AV-unprocessed.smi:2764|AV-procd|sdf|10643|dock1
  -GOLD-   2272015 93D 1   1.00000     0.00000
 Structure written by MMmdl.
 47 49  0  0  0  0  0  0  0  0  2 V2000
  151.0063  141.5858  155.3647 O   0  0  0  0  0  0  0  0  0  0  0  0
  150.8533  140.6900  156.1954 C   0  0  0  0  0  0  0  0  0  0  0  0
  150.9915  140.8293  157.5258 N   0  0  0  0  0  0  0  0  0  0  0  0
  151.3200  142.0025  158.2562 C   0  0  0  0  0  0  0  0  0  0  0  0
  151.0750  143.2179  157.5772 C   0  0  0  0  0  0  0  0  0  0  0  0
  151.3673  144.4393  158.2151 C   0  0  0  0  0  0  0  0  0  0  0  0
  151.8976  144.4115  159.5172 C   0  0  0  0  0  0  0  0  0  0  0  0
  152.1933  145.5597  160.1709 F   0  0  0  0  0  0  0  0  0  0  0  0
  152.1124  143.1597  160.1229 C   0  0  0  0  0  0  0  0  0  0  0  0
  151.8331  141.9883  159.5122 N   0  0  0  0  0  0  0  0  0  0  0  0
  150.5190  139.4323  155.8702 N   0  0  0  0  0  0  0  0  0  0  0  0
  150.3047  138.9393  154.5096 C   0  0  2  0  0  0  0  0  0  0  0  0
  148.8406  138.5222  154.2698 C   0  0  0  0  0  0  0  0  0  0  0  0
  148.4720  137.2425  155.0403 C   0  0  0  0  0  0  0  0  0  0  0  0
  149.3900  136.1227  154.7029 N   0  3  2  0  0  0  0  0  0  0  0  0
  148.9670  134.8426  155.3311 C   0  0  0  0  0  0  0  0  0  0  0  0
  149.5610  133.6000  154.6344 C   0  0  1  0  0  0  0  0  0  0  0  0
  149.9590  132.4472  155.5533 C   0  0  0  0  0  0  0  0  0  0  0  0
  149.5668  131.1813  154.7839 C   0  0  0  0  0  0  0  0  0  0  0  0
  149.1393  131.6337  153.5083 O   0  0  0  0  0  0  0  0  0  0  0  0
  148.5742  132.9194  153.6870 C   0  0  0  0  0  0  0  0  0  0  0  0
  150.8062  136.4805  154.9835 C   0  0  0  0  0  0  0  0  0  0  0  0
  151.2306  137.7468  154.2167 C   0  0  0  0  0  0  0  0  0  0  0  0
  150.8416  140.0012  158.0829 H   0  0  0  0  0  0  0  0  0  0  0  0
  150.6661  143.2200  156.5771 H   0  0  0  0  0  0  0  0  0  0  0  0
  151.1871  145.3788  157.7140 H   0  0  0  0  0  0  0  0  0  0  0  0
  152.5177  143.0957  161.1220 H   0  0  0  0  0  0  0  0  0  0  0  0
  150.4225  138.7613  156.6183 H   0  0  0  0  0  0  0  0  0  0  0  0
  150.5600  139.7446  153.8182 H   0  0  0  0  0  0  0  0  0  0  0  0
  148.1593  139.3299  154.5392 H   0  0  0  0  0  0  0  0  0  0  0  0
  148.6904  138.3491  153.2032 H   0  0  0  0  0  0  0  0  0  0  0  0
  148.4962  137.4256  156.1158 H   0  0  0  0  0  0  0  0  0  0  0  0
  147.4465  136.9677  154.7901 H   0  0  0  0  0  0  0  0  0  0  0  0
  149.1790  134.8451  156.4013 H   0  0  0  0  0  0  0  0  0  0  0  0
  147.8821  134.7628  155.2472 H   0  0  0  0  0  0  0  0  0  0  0  0
  150.4296  133.8932  154.0423 H   0  0  0  0  0  0  0  0  0  0  0  0
  151.0276  132.4671  155.7680 H   0  0  0  0  0  0  0  0  0  0  0  0
  149.4245  132.4805  156.5033 H   0  0  0  0  0  0  0  0  0  0  0  0
  150.3927  130.4759  154.6891 H   0  0  0  0  0  0  0  0  0  0  0  0
  148.7403  130.6720  155.2810 H   0  0  0  0  0  0  0  0  0  0  0  0
  147.5851  132.8256  154.1391 H   0  0  0  0  0  0  0  0  0  0  0  0
  148.4713  133.4459  152.7378 H   0  0  0  0  0  0  0  0  0  0  0  0
  150.9406  136.6247  156.0566 H   0  0  0  0  0  0  0  0  0  0  0  0
  151.4676  135.6677  154.6931 H   0  0  0  0  0  0  0  0  0  0  0  0
  151.2127  137.5358  153.1466 H   0  0  0  0  0  0  0  0  0  0  0  0
  152.2636  138.0022  154.4562 H   0  0  0  0  0  0  0  0  0  0  0  0
  149.3097  135.9902  153.7048 H   0  0  0  0  0  0  0  0  0  0  0  0
  1  2  2  0  0  0  0
  2  3  1  0  0  0  0
  2 11  1  0  0  0  0
  3  4  1  0  0  0  0
  3 24  1  0  0  0  0
  4 10  1  0  0  0  0
  4  5  2  0  0  0  0
  5  6  1  0  0  0  0
  5 25  1  0  0  0  0
  6  7  2  0  0  0  0
  6 26  1  0  0  0  0
  7  8  1  0  0  0  0
  7  9  1  0  0  0  0
  9 10  2  0  0  0  0
  9 27  1  0  0  0  0
 11 12  1  0  0  0  0
 11 28  1  0  0  0  0
 12 23  1  0  0  0  0
 12 13  1  0  0  0  0
 12 29  1  0  0  0  0
 13 14  1  0  0  0  0
 13 30  1  0  0  0  0
 13 31  1  0  0  0  0
 14 15  1  0  0  0  0
 14 32  1  0  0  0  0
 14 33  1  0  0  0  0
 15 16  1  0  0  0  0
 15 22  1  0  0  0  0
 15 47  1  0  0  0  0
 16 17  1  0  0  0  0
 16 34  1  0  0  0  0
 16 35  1  0  0  0  0
 17 21  1  0  0  0  0
 17 18  1  0  0  0  0
 17 36  1  0  0  0  0
 18 19  1  0  0  0  0
 18 37  1  0  0  0  0
 18 38  1  0  0  0  0
 19 20  1  0  0  0  0
 19 39  1  0  0  0  0
 19 40  1  0  0  0  0
 20 21  1  0  0  0  0
 21 41  1  0  0  0  0
 21 42  1  0  0  0  0
 22 23  1  0  0  0  0
 22 43  1  0  0  0  0
 22 44  1  0  0  0  0
 23 45  1  0  0  0  0
 23 46  1  0  0  0  0
M  CHG  1  15   1
M  END
> <s_m_source_file>
AV-unprocessed.smi

> <i_m_source_file_index>
2764

> <i_lp_mmshare_version>
43012

> <i_f3d_flags>
0

> <s_epik_input>
bjFbY0hdYyhGKVtjSF1bY0hdYzFbTkhdQyg9TylbTkhdW0NIXTJbQ0gyXVtDSDJdTihbQ0gyXVtDSDJdMilbQ0gyXVtDQEBIXTNbQ0gyXVtDSDJdT1tDSDJdMw==

> <s_epik_cmdline>
J2VwaWtfcHl0aG9uJywgJy1waCcsICc3LjAnLCAnLXRuJywgJzgnLCAnLW1hJywgJzIwMCcsICctbWV0YWxfYmluZGluZycsICctaW1hZScsICc8aW5maWxlLm1hZT4nLCAnLW9tYWUnLCAnPG91dGZpbGUubWFlPic=

> <r_epik_Ionization_Penalty>
0.0075076

> <r_epik_Ionization_Penalty_Charging>
0.00747775

> <r_epik_Ionization_Penalty_Neutral>
2.98483e-05

> <r_epik_State_Penalty>
0.00558817

> <r_epik_Charging_Adjusted_Penalty>
0.0130659

> <i_epik_Tot_Q>
1

> <i_epik_Tot_abs_Q>
1

> <r_epik_Metal_State_Penalty>
-0

> <b_epik_Metal_Only>
0

> <s_lp_Force_Field>
OPLS_2005

> <r_lp_Energy>
38.1344

> <b_lp_Chiralities_Consistent>
1

> <s_lp_Variant>
AV-unprocessed.smi:2764-4

> <Gold.Version>
5.8.1

> <Gold.Id.Protein>
6NUR|6NUR_protein|mol2

> <Gold.PLP.Fitness>
47.9072

> <Gold.PLP.PLP>
-42.3137

> <Gold.PLP.part.hbond>
-2.0000

> <Gold.PLP.part.metal>
0.0000

> <Gold.PLP.part.buried>
-1.9091

> <Gold.PLP.part.nonpolar>
-39.2081

> <Gold.PLP.part.repulsive>
0.3209

> <Gold.PLP.ligand.clash>
0.0000

> <Gold.PLP.ligand.torsion>
0.8002

> <Gold.PLP.Chemscore.Hbond>
2.3370

> <Gold.PLP.Chemscore.CHOScore>
0.0000

> <Gold.PLP.Chemscore.Metal>
0.0000

> <Gold.Chemscore.Hbonds>
donor molecule, donor type, donor heavy atom, donor atom, acceptor molecule, acceptor atom, score
      L1  H    15    47       P1  7948  2.00
      P1  H  7989  7998       L1     1  0.35

> <Gold.PLP.Chemscore.Internal.Correction>
0.1831

> <Gold.Rescore>
     Score         DG    S(hbond)    S(metal)    S(lipo)     H(rot)  DE(clash)    DE(int)     intcor
     13.73     -17.41       1.32        0.00      96.88       1.49       1.64       2.04       ----

> <Gold.Chemscore.Fitness>
13.7302

> <Gold.Chemscore.DG>
-17.4137

> <Gold.Chemscore.ZeroCoef>
-5.4800

> <Gold.Chemscore.Hbond>
1.3207

> <Gold.Chemscore.Metal>
0.0000

> <Gold.Chemscore.Lipo>
96.8776

> <Gold.Chemscore.Internal_Hbond>
0.0000

> <Gold.Chemscore.DEClash>
1.6420

> <Gold.Chemscore.DEInternal>
2.0415

> <Gold.Chemscore.Rot>
1.4891

> <Gold.Chemscore.Internal.Correction>
   9.000000E+99

> <Gold.Chemscore.Hbonds>
donor molecule, donor type, donor heavy atom, donor atom, acceptor molecule, acceptor atom, score
      L1  H    15    47       P1  7948  0.74
      P1  H  7989  7998       L1     1  0.29

> <Gold.Chemscore.Hbond.Weighted>
-4.4111

> <Gold.Chemscore.Metal.Weighted>
-0.0000

> <Gold.Chemscore.Lipo.Weighted>
-11.3347

> <Gold.Chemscore.Internal_Hbond.Weighted>
0.0000

> <Gold.Chemscore.DEClash.Weighted>
1.6420

> <Gold.Chemscore.DEInternal.Weighted>
2.0415

> <Gold.Chemscore.Rot.Weighted>
3.8121

> <Gold.Chemscore.Internal.Correction.Weighted>
   9.000000E+99

> <Gold.Protein.RotatedTorsions>
[ 6907 6896 6895 6894 ] final  -27.30 input  -60.11 | X-H torsion
[ 7974 7965 7964 7962 ] final  -45.09 input  175.53 | X-H torsion
[ 8008 7997 7996 7995 ] final  113.66 input   59.86 | X-H torsion
[ 10167 10162 10161 10158 ] final -155.82 input  -65.29 | X-H torsion
[ 10718 10713 10712 10709 ] final   16.52 input   66.30 | X-H torsion
[ 10763 10752 10751 10750 ] final  115.36 input  -60.55 | X-H torsion
[ 11005 11000 10999 10996 ] final  111.22 input  -57.11 | X-H torsion

> <Gold.Protein.ActiveResidues>
 VAL166  LYS551  ARG553  GLY616  TRP617  ASP618  TYR619  PRO620  LYS621  CYS622 
 ASP623  PHE694  ASN695  SER759  ASP760  ASP761  ALA762  ILE779  LEU786  VAL792 
 PHE793  MET794  SER795  GLU796  ALA797  LYS798  CYS799  TRP800  GLU811  SER814 

> <Gold.Protein.RotatedAtoms>
  151.1488  135.0217  159.8658 H   0  0  0  0  0  0  0  0  0  0  0  0  # atno 6907 bound_to 6896
  152.5453  134.1412  159.8490 H   0  0  0  0  0  0  0  0  0  0  0  0  # atno 6908 bound_to 6896
  151.1496  133.4871  159.2628 H   0  0  0  0  0  0  0  0  0  0  0  0  # atno 6909 bound_to 6896
  145.9855  140.7238  142.9342 H   0  0  0  0  0  0  0  0  0  0  0  0  # atno 7974 bound_to 7965
  156.2272  140.2975  156.0097 H   0  0  0  0  0  0  0  0  0  0  0  0  # atno 8008 bound_to 7997
  155.2324  140.0419  157.2981 H   0  0  0  0  0  0  0  0  0  0  0  0  # atno 8009 bound_to 7997
  154.5935  140.2408  155.7896 H   0  0  0  0  0  0  0  0  0  0  0  0  # atno 8010 bound_to 7997
  139.6900  143.9436  152.2380 H   0  0  0  0  0  0  0  0  0  0  0  0  # atno 10167 bound_to 10162
  157.0690  130.6340  149.5802 H   0  0  0  0  0  0  0  0  0  0  0  0  # atno 10718 bound_to 10713
  153.5210  135.3598  155.2632 H   0  0  0  0  0  0  0  0  0  0  0  0  # atno 10763 bound_to 10752
  154.8735  135.4045  154.3259 H   0  0  0  0  0  0  0  0  0  0  0  0  # atno 10764 bound_to 10752
  153.3930  135.7072  153.6548 H   0  0  0  0  0  0  0  0  0  0  0  0  # atno 10765 bound_to 10752
  139.8899  134.9503  156.6400 H   0  0  0  0  0  0  0  0  0  0  0  0  # atno 11005 bound_to 11000
  144.6873  140.2981  143.7267 LP  0  0  0  0  0  0  0  0  0  0  0  0  # atno 17320 bound_to 7965
  145.7707  139.1856  143.2214 LP  0  0  0  0  0  0  0  0  0  0  0  0  # atno 17321 bound_to 7965
  139.9249  144.6777  150.8422 LP  0  0  0  0  0  0  0  0  0  0  0  0  # atno 17342 bound_to 10162
  140.7680  143.3349  151.2331 LP  0  0  0  0  0  0  0  0  0  0  0  0  # atno 17343 bound_to 10162
  155.9956  130.5023  150.7464 LP  0  0  0  0  0  0  0  0  0  0  0  0  # atno 17370 bound_to 10713
  157.4893  131.0909  151.0445 LP  0  0  0  0  0  0  0  0  0  0  0  0  # atno 17371 bound_to 10713
  140.7601  133.8824  155.8412 LP  0  0  0  0  0  0  0  0  0  0  0  0  # atno 17394 bound_to 11000
  140.9929  134.1254  157.4391 LP  0  0  0  0  0  0  0  0  0  0  0  0  # atno 17395 bound_to 11000

$$$$
