AV-unprocessed.smi:3335|AV-procd|sdf|12837|dock1
  -GOLD-   2272019223D 1   1.00000     0.00000
 Structure written by MMmdl.
 47 48  0  0  0  0  0  0  0  0  2 V2000
  151.2926  142.6212  158.6219 C   0  0  0  0  0  0  0  0  0  0  0  0
  151.0578  141.6826  157.4739 C   0  0  0  0  0  0  0  0  0  0  0  0
  151.7571  140.4809  157.1695 C   0  0  0  0  0  0  0  0  0  0  0  0
  151.3093  139.8910  156.0735 N   0  0  0  0  0  0  0  0  0  0  0  0
  150.2977  140.6812  155.6474 N   0  0  0  0  0  0  0  0  0  0  0  0
  149.5811  140.3761  154.4133 C   0  0  2  0  0  0  0  0  0  0  0  0
  148.5877  141.4934  154.0288 C   0  0  0  0  0  0  0  0  0  0  0  0
  148.9550  138.9603  154.4769 C   0  0  2  0  0  0  0  0  0  0  0  0
  149.9975  137.8633  154.7574 C   0  0  0  0  0  0  0  0  0  0  0  0
  148.1857  138.6604  153.2433 N   0  3  0  0  0  0  0  0  0  0  0  0
  146.7132  138.5905  153.3955 C   0  0  2  0  0  0  0  0  0  0  0  0
  146.2523  139.6483  154.4100 C   0  0  0  0  0  0  0  0  0  0  0  0
  146.2631  137.1903  153.8604 C   0  0  0  0  0  0  0  0  0  0  0  0
  146.4525  136.8651  155.0334 O   0  0  0  0  0  0  0  0  0  0  0  0
  145.6632  136.3607  152.9803 N   0  0  0  0  0  0  0  0  0  0  0  0
  145.1765  135.0090  153.2556 C   0  0  0  0  0  0  0  0  0  0  0  0
  144.7991  134.4177  151.8975 C   0  0  0  0  0  0  0  0  0  0  0  0
  144.4887  135.6330  151.0357 C   0  0  0  0  0  0  0  0  0  0  0  0
  145.4057  136.7240  151.5876 C   0  0  0  0  0  0  0  0  0  0  0  0
  150.1358  141.7763  156.4705 C   0  0  0  0  0  0  0  0  0  0  0  0
  151.9184  142.1705  159.3925 H   0  0  0  0  0  0  0  0  0  0  0  0
  150.3579  142.9154  159.0995 H   0  0  0  0  0  0  0  0  0  0  0  0
  151.7906  143.5349  158.2972 H   0  0  0  0  0  0  0  0  0  0  0  0
  152.5782  140.0272  157.7047 H   0  0  0  0  0  0  0  0  0  0  0  0
  150.3386  140.3564  153.6282 H   0  0  0  0  0  0  0  0  0  0  0  0
  148.1694  141.3310  153.0358 H   0  0  0  0  0  0  0  0  0  0  0  0
  149.0854  142.4636  154.0097 H   0  0  0  0  0  0  0  0  0  0  0  0
  147.7563  141.5637  154.7308 H   0  0  0  0  0  0  0  0  0  0  0  0
  148.2625  138.9675  155.3201 H   0  0  0  0  0  0  0  0  0  0  0  0
  150.5939  138.1063  155.6372 H   0  0  0  0  0  0  0  0  0  0  0  0
  150.6806  137.7305  153.9185 H   0  0  0  0  0  0  0  0  0  0  0  0
  149.5237  136.9005  154.9478 H   0  0  0  0  0  0  0  0  0  0  0  0
  148.3796  139.3896  152.5703 H   0  0  0  0  0  0  0  0  0  0  0  0
  146.2727  138.8368  152.4307 H   0  0  0  0  0  0  0  0  0  0  0  0
  145.1686  139.6397  154.5318 H   0  0  0  0  0  0  0  0  0  0  0  0
  146.5343  140.6501  154.0848 H   0  0  0  0  0  0  0  0  0  0  0  0
  146.6970  139.4827  155.3924 H   0  0  0  0  0  0  0  0  0  0  0  0
  145.9231  134.3910  153.7557 H   0  0  0  0  0  0  0  0  0  0  0  0
  144.2964  135.0716  153.8975 H   0  0  0  0  0  0  0  0  0  0  0  0
  145.6537  133.8839  151.4797 H   0  0  0  0  0  0  0  0  0  0  0  0
  143.9654  133.7175  151.9579 H   0  0  0  0  0  0  0  0  0  0  0  0
  144.6430  135.4492  149.9721 H   0  0  0  0  0  0  0  0  0  0  0  0
  143.4471  135.9246  151.1773 H   0  0  0  0  0  0  0  0  0  0  0  0
  144.9470  137.7099  151.4962 H   0  0  0  0  0  0  0  0  0  0  0  0
  146.3520  136.7387  151.0447 H   0  0  0  0  0  0  0  0  0  0  0  0
  149.3863  142.5290  156.2740 H   0  0  0  0  0  0  0  0  0  0  0  0
  148.5230  137.7852  152.8694 H   0  0  0  0  0  0  0  0  0  0  0  0
  1  2  1  0  0  0  0
  1 21  1  0  0  0  0
  1 22  1  0  0  0  0
  1 23  1  0  0  0  0
  2 20  2  0  0  0  0
  2  3  1  0  0  0  0
  3  4  2  0  0  0  0
  3 24  1  0  0  0  0
  4  5  1  0  0  0  0
  5  6  1  0  0  0  0
  5 20  1  0  0  0  0
  6  7  1  0  0  0  0
  6  8  1  0  0  0  0
  6 25  1  0  0  0  0
  7 26  1  0  0  0  0
  7 27  1  0  0  0  0
  7 28  1  0  0  0  0
  8  9  1  0  0  0  0
  8 10  1  0  0  0  0
  8 29  1  0  0  0  0
  9 30  1  0  0  0  0
  9 31  1  0  0  0  0
  9 32  1  0  0  0  0
 10 11  1  0  0  0  0
 10 33  1  0  0  0  0
 10 47  1  0  0  0  0
 11 12  1  0  0  0  0
 11 13  1  0  0  0  0
 11 34  1  0  0  0  0
 12 35  1  0  0  0  0
 12 36  1  0  0  0  0
 12 37  1  0  0  0  0
 13 14  2  0  0  0  0
 13 15  1  0  0  0  0
 15 19  1  0  0  0  0
 15 16  1  0  0  0  0
 16 17  1  0  0  0  0
 16 38  1  0  0  0  0
 16 39  1  0  0  0  0
 17 18  1  0  0  0  0
 17 40  1  0  0  0  0
 17 41  1  0  0  0  0
 18 19  1  0  0  0  0
 18 42  1  0  0  0  0
 18 43  1  0  0  0  0
 19 44  1  0  0  0  0
 19 45  1  0  0  0  0
 20 46  1  0  0  0  0
M  CHG  1  10   1
M  END
> <s_m_source_file>
AV-unprocessed.smi

> <i_m_source_file_index>
3335

> <i_lp_mmshare_version>
43012

> <i_f3d_flags>
0

> <s_epik_input>
W0NIM11jMVtjSF1ubihbY0hdMSlbQ0BIXShbQ0gzXSlbQ0BIXShbQ0gzXSlbTkhdW0NASF0oW0NIM10pQyg9TylOMltDSDJdW0NIMl1bQ0gyXVtDSDJdMg==

> <s_epik_cmdline>
J2VwaWtfcHl0aG9uJywgJy1waCcsICc3LjAnLCAnLXRuJywgJzgnLCAnLW1hJywgJzIwMCcsICctbWV0YWxfYmluZGluZycsICctaW1hZScsICc8aW5maWxlLm1hZT4nLCAnLW9tYWUnLCAnPG91dGZpbGUubWFlPic=

> <r_lp_tautomer_probability>
1

> <r_epik_Ionization_Penalty>
0.14175

> <r_epik_Ionization_Penalty_Charging>
0.141731

> <r_epik_Ionization_Penalty_Neutral>
1.91261e-05

> <r_epik_State_Penalty>
0.131043

> <r_epik_Charging_Adjusted_Penalty>
0.272773

> <i_epik_Tot_Q>
1

> <i_epik_Tot_abs_Q>
1

> <r_epik_Metal_State_Penalty>
0.131408

> <b_epik_Metal_Only>
0

> <s_lp_Force_Field>
OPLS_2005

> <r_lp_Energy>
36.483

> <b_lp_Chiralities_Consistent>
1

> <s_lp_Variant>
AV-unprocessed.smi:3335-1

> <Gold.Version>
5.8.1

> <Gold.Id.Protein>
6NUR|6NUR_protein|mol2

> <Gold.PLP.Fitness>
42.8275

> <Gold.PLP.PLP>
-33.2667

> <Gold.PLP.part.hbond>
-2.0000

> <Gold.PLP.part.metal>
0.0000

> <Gold.PLP.part.buried>
-1.7665

> <Gold.PLP.part.nonpolar>
-29.1807

> <Gold.PLP.part.repulsive>
0.1141

> <Gold.PLP.ligand.clash>
0.0000

> <Gold.PLP.ligand.torsion>
1.3807

> <Gold.PLP.Chemscore.Hbond>
2.8640

> <Gold.PLP.Chemscore.CHOScore>
1.0000

> <Gold.PLP.Chemscore.Metal>
0.0000

> <Gold.Chemscore.Hbonds>
donor molecule, donor type, donor heavy atom, donor atom, acceptor molecule, acceptor atom, score
      L1  H    10    33       P1  7957  0.93
      L1  H    10    47       P1  7948  2.00
      L1  C    20    46       P1  8028  1.00

> <Gold.PLP.Chemscore.Internal.Correction>
0.7302

> <Gold.Rescore>
     Score         DG    S(hbond)    S(metal)    S(lipo)     H(rot)  DE(clash)    DE(int)     intcor
     12.84     -17.04       1.85        0.00      82.55       1.68       0.52       3.68       ----

> <Gold.Chemscore.Fitness>
12.8406

> <Gold.Chemscore.DG>
-17.0380

> <Gold.Chemscore.ZeroCoef>
-5.4800

> <Gold.Chemscore.Hbond>
1.8547

> <Gold.Chemscore.Metal>
0.0000

> <Gold.Chemscore.Lipo>
82.5501

> <Gold.Chemscore.Internal_Hbond>
0.0000

> <Gold.Chemscore.DEClash>
0.5223

> <Gold.Chemscore.DEInternal>
3.6752

> <Gold.Chemscore.Rot>
1.6778

> <Gold.Chemscore.Internal.Correction>
   9.000000E+99

> <Gold.Chemscore.Hbonds>
donor molecule, donor type, donor heavy atom, donor atom, acceptor molecule, acceptor atom, score
      L1  H    10    33       P1  7957  0.88
      L1  H    10    47       P1  7948  1.00

> <Gold.Chemscore.Hbond.Weighted>
-6.1948

> <Gold.Chemscore.Metal.Weighted>
-0.0000

> <Gold.Chemscore.Lipo.Weighted>
-9.6584

> <Gold.Chemscore.Internal_Hbond.Weighted>
0.0000

> <Gold.Chemscore.DEClash.Weighted>
0.5223

> <Gold.Chemscore.DEInternal.Weighted>
3.6752

> <Gold.Chemscore.Rot.Weighted>
4.2952

> <Gold.Chemscore.Internal.Correction.Weighted>
   9.000000E+99

> <Gold.Protein.RotatedTorsions>
[ 6907 6896 6895 6894 ] final  106.59 input  -60.11 | X-H torsion
[ 7974 7965 7964 7962 ] final  -73.88 input  175.53 | X-H torsion
[ 8008 7997 7996 7995 ] final  162.93 input   59.86 | X-H torsion
[ 10167 10162 10161 10158 ] final   30.98 input  -65.29 | X-H torsion
[ 10718 10713 10712 10709 ] final  111.96 input   66.30 | X-H torsion
[ 10763 10752 10751 10750 ] final  119.85 input  -60.55 | X-H torsion
[ 11005 11000 10999 10996 ] final   97.72 input  -57.11 | X-H torsion

> <Gold.Protein.ActiveResidues>
 VAL166  LYS551  ARG553  GLY616  TRP617  ASP618  TYR619  PRO620  LYS621  CYS622 
 ASP623  PHE694  ASN695  SER759  ASP760  ASP761  ALA762  ILE779  LEU786  VAL792 
 PHE793  MET794  SER795  GLU796  ALA797  LYS798  CYS799  TRP800  GLU811  SER814 

> <Gold.Protein.RotatedAtoms>
  152.5188  133.9358  159.7602 H   0  0  0  0  0  0  0  0  0  0  0  0  # atno 6907 bound_to 6896
  150.9699  133.6347  159.2747 H   0  0  0  0  0  0  0  0  0  0  0  0  # atno 6908 bound_to 6896
  151.3562  135.0900  159.9472 H   0  0  0  0  0  0  0  0  0  0  0  0  # atno 6909 bound_to 6896
  145.6464  140.9296  143.1008 H   0  0  0  0  0  0  0  0  0  0  0  0  # atno 7974 bound_to 7965
  156.1995  140.1737  156.7929 H   0  0  0  0  0  0  0  0  0  0  0  0  # atno 8008 bound_to 7997
  154.5573  140.0706  156.8794 H   0  0  0  0  0  0  0  0  0  0  0  0  # atno 8009 bound_to 7997
  155.2915  140.3355  155.4254 H   0  0  0  0  0  0  0  0  0  0  0  0  # atno 8010 bound_to 7997
  140.4630  144.0878  150.6217 H   0  0  0  0  0  0  0  0  0  0  0  0  # atno 10167 bound_to 10162
  157.6417  131.0960  150.6826 H   0  0  0  0  0  0  0  0  0  0  0  0  # atno 10718 bound_to 10713
  153.5893  135.3469  155.2905 H   0  0  0  0  0  0  0  0  0  0  0  0  # atno 10763 bound_to 10752
  154.8655  135.4201  154.2533 H   0  0  0  0  0  0  0  0  0  0  0  0  # atno 10764 bound_to 10752
  153.3337  135.7046  153.6996 H   0  0  0  0  0  0  0  0  0  0  0  0  # atno 10765 bound_to 10752
  139.8775  134.9014  156.4349 H   0  0  0  0  0  0  0  0  0  0  0  0  # atno 11005 bound_to 11000
  144.7139  139.8270  143.7405 LP  0  0  0  0  0  0  0  0  0  0  0  0  # atno 17320 bound_to 7965
  146.1240  139.4262  143.0211 LP  0  0  0  0  0  0  0  0  0  0  0  0  # atno 17321 bound_to 7965
  140.4071  143.2675  151.9878 LP  0  0  0  0  0  0  0  0  0  0  0  0  # atno 17342 bound_to 10162
  139.4808  144.5948  151.7709 LP  0  0  0  0  0  0  0  0  0  0  0  0  # atno 17343 bound_to 10162
  156.7149  130.4663  149.5538 LP  0  0  0  0  0  0  0  0  0  0  0  0  # atno 17370 bound_to 10713
  156.1705  130.6434  151.0831 LP  0  0  0  0  0  0  0  0  0  0  0  0  # atno 17371 bound_to 10713
  140.9041  133.7758  155.9714 LP  0  0  0  0  0  0  0  0  0  0  0  0  # atno 17394 bound_to 11000
  140.8619  134.2830  157.5230 LP  0  0  0  0  0  0  0  0  0  0  0  0  # atno 17395 bound_to 11000

$$$$
