AV-unprocessed.smi:2276|AV-procd|sdf|9174|dock3
  -GOLD-   2272012393D 1   1.00000     0.00000
 Structure written by MMmdl.
 53 54  0  0  0  0  0  0  0  0  2 V2000
  152.0434  145.9118  160.2426 C   0  0  0  0  0  0  0  0  0  0  0  0
  152.0111  144.5131  159.6633 C   0  0  0  0  0  0  0  0  0  0  0  0
  152.6555  143.4448  160.3159 C   0  0  0  0  0  0  0  0  0  0  0  0
  152.5899  142.1680  159.7248 C   0  0  0  0  0  0  0  0  0  0  0  0
  153.2610  140.9750  160.3724 C   0  0  0  0  0  0  0  0  0  0  0  0
  151.9423  141.9254  158.5650 N   0  0  0  0  0  0  0  0  0  0  0  0
  151.3186  142.9468  157.9271 C   0  0  0  0  0  0  0  0  0  0  0  0
  150.6088  142.7964  156.7061 N   0  0  0  0  0  0  0  0  0  0  0  0
  150.1474  141.6631  156.1485 C   0  0  0  0  0  0  0  0  0  0  0  0
  150.2900  140.5299  156.6091 O   0  0  0  0  0  0  0  0  0  0  0  0
  149.4996  141.9120  155.0023 N   0  0  0  0  0  0  0  0  0  0  0  0
  148.8750  140.8859  154.1766 C   0  0  0  0  0  0  0  0  0  0  0  0
  147.4081  140.6326  154.5845 C   0  0  2  0  0  0  0  0  0  0  0  0
  146.7552  139.5491  153.7068 C   0  0  0  0  0  0  0  0  0  0  0  0
  146.5749  141.9323  154.5226 C   0  0  0  0  0  0  0  0  0  0  0  0
  145.1101  141.6977  154.6058 N   0  3  0  0  0  0  0  0  0  0  0  0
  144.3165  142.9395  154.7879 C   0  0  0  0  0  0  0  0  0  0  0  0
  142.8056  142.6243  154.7958 C   0  0  0  0  0  0  0  0  0  0  0  0
  142.4491  141.6463  155.8248 N   0  0  0  0  0  0  0  0  0  0  0  0
  142.5216  142.1855  157.1785 C   0  0  0  0  0  0  0  0  0  0  0  0
  143.2387  140.4269  155.6469 C   0  0  0  0  0  0  0  0  0  0  0  0
  144.7557  140.7095  155.6532 C   0  0  0  0  0  0  0  0  0  0  0  0
  151.3337  144.2579  158.4537 C   0  0  0  0  0  0  0  0  0  0  0  0
  152.5029  145.9209  161.2317 H   0  0  0  0  0  0  0  0  0  0  0  0
  151.0317  146.3077  160.3336 H   0  0  0  0  0  0  0  0  0  0  0  0
  152.6158  146.5750  159.5937 H   0  0  0  0  0  0  0  0  0  0  0  0
  153.1859  143.5996  161.2442 H   0  0  0  0  0  0  0  0  0  0  0  0
  153.6196  141.2185  161.3728 H   0  0  0  0  0  0  0  0  0  0  0  0
  154.1122  140.6501  159.7738 H   0  0  0  0  0  0  0  0  0  0  0  0
  152.5615  140.1427  160.4568 H   0  0  0  0  0  0  0  0  0  0  0  0
  150.4260  143.6524  156.2037 H   0  0  0  0  0  0  0  0  0  0  0  0
  149.4234  142.8687  154.6887 H   0  0  0  0  0  0  0  0  0  0  0  0
  148.9305  141.2073  153.1355 H   0  0  0  0  0  0  0  0  0  0  0  0
  149.4484  139.9603  154.2531 H   0  0  0  0  0  0  0  0  0  0  0  0
  147.3993  140.2544  155.6063 H   0  0  0  0  0  0  0  0  0  0  0  0
  146.7609  139.8348  152.6544 H   0  0  0  0  0  0  0  0  0  0  0  0
  145.7183  139.3801  153.9982 H   0  0  0  0  0  0  0  0  0  0  0  0
  147.2717  138.5928  153.7939 H   0  0  0  0  0  0  0  0  0  0  0  0
  146.8859  142.5749  155.3480 H   0  0  0  0  0  0  0  0  0  0  0  0
  146.7935  142.4881  153.6094 H   0  0  0  0  0  0  0  0  0  0  0  0
  144.6158  143.4451  155.7068 H   0  0  0  0  0  0  0  0  0  0  0  0
  144.5184  143.6349  153.9745 H   0  0  0  0  0  0  0  0  0  0  0  0
  142.2273  143.5372  154.9425 H   0  0  0  0  0  0  0  0  0  0  0  0
  142.5117  142.2269  153.8232 H   0  0  0  0  0  0  0  0  0  0  0  0
  142.1867  141.4400  157.9005 H   0  0  0  0  0  0  0  0  0  0  0  0
  141.8674  143.0528  157.2738 H   0  0  0  0  0  0  0  0  0  0  0  0
  143.5296  142.4926  157.4548 H   0  0  0  0  0  0  0  0  0  0  0  0
  142.9822  139.7068  156.4250 H   0  0  0  0  0  0  0  0  0  0  0  0
  142.9582  139.9679  154.6978 H   0  0  0  0  0  0  0  0  0  0  0  0
  145.2882  139.7768  155.4636 H   0  0  0  0  0  0  0  0  0  0  0  0
  145.0874  141.0634  156.6303 H   0  0  0  0  0  0  0  0  0  0  0  0
  150.8328  145.0636  157.9364 H   0  0  0  0  0  0  0  0  0  0  0  0
  144.8282  141.2892  153.7260 H   0  0  0  0  0  0  0  0  0  0  0  0
  1  2  1  0  0  0  0
  1 24  1  0  0  0  0
  1 25  1  0  0  0  0
  1 26  1  0  0  0  0
  2 23  1  0  0  0  0
  2  3  2  0  0  0  0
  3  4  1  0  0  0  0
  3 27  1  0  0  0  0
  4  5  1  0  0  0  0
  4  6  2  0  0  0  0
  5 28  1  0  0  0  0
  5 29  1  0  0  0  0
  5 30  1  0  0  0  0
  6  7  1  0  0  0  0
  7  8  1  0  0  0  0
  7 23  2  0  0  0  0
  8  9  1  0  0  0  0
  8 31  1  0  0  0  0
  9 10  2  0  0  0  0
  9 11  1  0  0  0  0
 11 12  1  0  0  0  0
 11 32  1  0  0  0  0
 12 13  1  0  0  0  0
 12 33  1  0  0  0  0
 12 34  1  0  0  0  0
 13 14  1  0  0  0  0
 13 15  1  0  0  0  0
 13 35  1  0  0  0  0
 14 36  1  0  0  0  0
 14 37  1  0  0  0  0
 14 38  1  0  0  0  0
 15 16  1  0  0  0  0
 15 39  1  0  0  0  0
 15 40  1  0  0  0  0
 16 22  1  0  0  0  0
 16 17  1  0  0  0  0
 16 53  1  0  0  0  0
 17 18  1  0  0  0  0
 17 41  1  0  0  0  0
 17 42  1  0  0  0  0
 18 19  1  0  0  0  0
 18 43  1  0  0  0  0
 18 44  1  0  0  0  0
 19 20  1  0  0  0  0
 19 21  1  0  0  0  0
 20 45  1  0  0  0  0
 20 46  1  0  0  0  0
 20 47  1  0  0  0  0
 21 22  1  0  0  0  0
 21 48  1  0  0  0  0
 21 49  1  0  0  0  0
 22 50  1  0  0  0  0
 22 51  1  0  0  0  0
 23 52  1  0  0  0  0
M  CHG  1  16   1
M  END
> <s_m_source_file>
AV-unprocessed.smi

> <i_m_source_file_index>
2276

> <i_lp_mmshare_version>
43012

> <i_f3d_flags>
0

> <s_epik_input>
W0NIM11jMVtjSF1jKFtDSDNdKW5jKFtjSF0xKVtOSF1DKD1PKVtOSF1bQ0gyXVtDQEhdKFtDSDNdKVtDSDJdTjJbQ0gyXVtDSDJdTihbQ0gzXSlbQ0gyXVtDSDJdMg==

> <s_epik_cmdline>
J2VwaWtfcHl0aG9uJywgJy1waCcsICc3LjAnLCAnLXRuJywgJzgnLCAnLW1hJywgJzIwMCcsICctbWV0YWxfYmluZGluZycsICctaW1hZScsICc8aW5maWxlLm1hZT4nLCAnLW9tYWUnLCAnPG91dGZpbGUubWFlPic=

> <r_epik_Ionization_Penalty>
0.0485334

> <r_epik_Ionization_Penalty_Charging>
0.0462531

> <r_epik_Ionization_Penalty_Neutral>
0.00228028

> <r_epik_State_Penalty>
0.692588

> <r_epik_Charging_Adjusted_Penalty>
0.738841

> <i_epik_Tot_Q>
1

> <i_epik_Tot_abs_Q>
1

> <r_epik_Metal_State_Penalty>
0.692605

> <b_epik_Metal_Only>
0

> <s_lp_Force_Field>
OPLS_2005

> <r_lp_Energy>
23.0257

> <b_lp_Chiralities_Consistent>
1

> <s_lp_Variant>
AV-unprocessed.smi:2276-3

> <Gold.Version>
5.8.1

> <Gold.Id.Protein>
6NUR|6NUR_protein|mol2

> <Gold.PLP.Fitness>
52.1281

> <Gold.PLP.PLP>
-41.4960

> <Gold.PLP.part.hbond>
-3.0000

> <Gold.PLP.part.metal>
0.0000

> <Gold.PLP.part.buried>
-5.0614

> <Gold.PLP.part.nonpolar>
-34.8070

> <Gold.PLP.part.repulsive>
0.3842

> <Gold.PLP.ligand.clash>
0.0000

> <Gold.PLP.ligand.torsion>
0.4597

> <Gold.PLP.Chemscore.Hbond>
3.8080

> <Gold.PLP.Chemscore.CHOScore>
0.0000

> <Gold.PLP.Chemscore.Metal>
0.0000

> <Gold.Chemscore.Hbonds>
donor molecule, donor type, donor heavy atom, donor atom, acceptor molecule, acceptor atom, score
      L1  H     8    31       P1  8028  0.78
      L1  H    11    32       P1  8028  0.50
      L1  H    16    53       P1 10175  2.00

> <Gold.PLP.Chemscore.Internal.Correction>
0.1275

> <Gold.Rescore>
     Score         DG    S(hbond)    S(metal)    S(lipo)     H(rot)  DE(clash)    DE(int)     intcor
     20.20     -21.96       2.75        0.00      97.80       1.63       0.12       1.63       ----

> <Gold.Chemscore.Fitness>
20.2031

> <Gold.Chemscore.DG>
-21.9555

> <Gold.Chemscore.ZeroCoef>
-5.4800

> <Gold.Chemscore.Hbond>
2.7548

> <Gold.Chemscore.Metal>
0.0000

> <Gold.Chemscore.Lipo>
97.7999

> <Gold.Chemscore.Internal_Hbond>
0.0000

> <Gold.Chemscore.DEClash>
0.1220

> <Gold.Chemscore.DEInternal>
1.6304

> <Gold.Chemscore.Rot>
1.6282

> <Gold.Chemscore.Internal.Correction>
   9.000000E+99

> <Gold.Chemscore.Hbonds>
donor molecule, donor type, donor heavy atom, donor atom, acceptor molecule, acceptor atom, score
      L1  H     8    31       P1  8028  0.77
      L1  H    11    32       P1  8028  0.50
      L1  H    16    53       P1 10175  0.39

> <Gold.Chemscore.Hbond.Weighted>
-9.2011

> <Gold.Chemscore.Metal.Weighted>
-0.0000

> <Gold.Chemscore.Lipo.Weighted>
-11.4426

> <Gold.Chemscore.Internal_Hbond.Weighted>
0.0000

> <Gold.Chemscore.DEClash.Weighted>
0.1220

> <Gold.Chemscore.DEInternal.Weighted>
1.6304

> <Gold.Chemscore.Rot.Weighted>
4.1682

> <Gold.Chemscore.Internal.Correction.Weighted>
   9.000000E+99

> <Gold.Protein.RotatedTorsions>
[ 6907 6896 6895 6894 ] final  117.84 input  -60.11 | X-H torsion
[ 7974 7965 7964 7962 ] final   59.83 input  175.53 | X-H torsion
[ 8008 7997 7996 7995 ] final    1.49 input   59.86 | X-H torsion
[ 10167 10162 10161 10158 ] final -161.92 input  -65.29 | X-H torsion
[ 10718 10713 10712 10709 ] final  -95.76 input   66.30 | X-H torsion
[ 10763 10752 10751 10750 ] final  138.90 input  -60.55 | X-H torsion
[ 11005 11000 10999 10996 ] final  164.48 input  -57.11 | X-H torsion

> <Gold.Protein.ActiveResidues>
 VAL166  LYS551  ARG553  GLY616  TRP617  ASP618  TYR619  PRO620  LYS621  CYS622 
 ASP623  PHE694  ASN695  SER759  ASP760  ASP761  ALA762  ILE779  LEU786  VAL792 
 PHE793  MET794  SER795  GLU796  ALA797  LYS798  CYS799  TRP800  GLU811  SER814 

> <Gold.Protein.RotatedAtoms>
  152.4584  133.7771  159.6830 H   0  0  0  0  0  0  0  0  0  0  0  0  # atno 6907 bound_to 6896
  150.8519  133.7764  159.3029 H   0  0  0  0  0  0  0  0  0  0  0  0  # atno 6908 bound_to 6896
  151.5357  135.1071  159.9966 H   0  0  0  0  0  0  0  0  0  0  0  0  # atno 6909 bound_to 6896
  145.9028  139.3594  143.0582 H   0  0  0  0  0  0  0  0  0  0  0  0  # atno 7974 bound_to 7965
  154.6804  140.2631  155.6914 H   0  0  0  0  0  0  0  0  0  0  0  0  # atno 8008 bound_to 7997
  156.2694  140.2811  156.1268 H   0  0  0  0  0  0  0  0  0  0  0  0  # atno 8009 bound_to 7997
  155.1040  140.0375  157.2695 H   0  0  0  0  0  0  0  0  0  0  0  0  # atno 8010 bound_to 7997
  139.6429  144.0225  152.2106 H   0  0  0  0  0  0  0  0  0  0  0  0  # atno 10167 bound_to 10162
  156.0049  130.5123  150.6125 H   0  0  0  0  0  0  0  0  0  0  0  0  # atno 10718 bound_to 10713
  153.8972  135.3026  155.3448 H   0  0  0  0  0  0  0  0  0  0  0  0  # atno 10763 bound_to 10752
  154.7688  135.4897  153.9610 H   0  0  0  0  0  0  0  0  0  0  0  0  # atno 10764 bound_to 10752
  153.1265  135.6794  153.9348 H   0  0  0  0  0  0  0  0  0  0  0  0  # atno 10765 bound_to 10752
  140.2464  134.8011  157.3460 H   0  0  0  0  0  0  0  0  0  0  0  0  # atno 11005 bound_to 11000
  145.8769  140.9386  143.0621 LP  0  0  0  0  0  0  0  0  0  0  0  0  # atno 17320 bound_to 7965
  144.6737  140.0729  143.7472 LP  0  0  0  0  0  0  0  0  0  0  0  0  # atno 17321 bound_to 7965
  139.9920  144.6355  150.7806 LP  0  0  0  0  0  0  0  0  0  0  0  0  # atno 17342 bound_to 10162
  140.7500  143.2948  151.3234 LP  0  0  0  0  0  0  0  0  0  0  0  0  # atno 17343 bound_to 10162
  157.3955  131.0802  151.1356 LP  0  0  0  0  0  0  0  0  0  0  0  0  # atno 17370 bound_to 10713
  157.2034  130.6405  149.5747 LP  0  0  0  0  0  0  0  0  0  0  0  0  # atno 17371 bound_to 10713
  140.1602  134.4739  155.7900 LP  0  0  0  0  0  0  0  0  0  0  0  0  # atno 17394 bound_to 11000
  141.2206  133.6898  156.7530 LP  0  0  0  0  0  0  0  0  0  0  0  0  # atno 17395 bound_to 11000

$$$$
