AV-unprocessed.smi:100|AV-procd|sdf|902|dock7
  -GOLD-   2262017403D 1   1.00000     0.00000
 Structure written by MMmdl.
 31 33  0  0  0  0  0  0  0  0  1 V2000
  152.0640  144.2614  162.2972 N   0  0  0  0  0  0  0  0  0  0  0  0
  151.6773  144.0779  161.0272 C   0  0  0  0  0  0  0  0  0  0  0  0
  150.9440  145.0473  160.4322 N   0  0  0  0  0  0  0  0  0  0  0  0
  150.5443  144.8860  159.1670 C   0  0  0  0  0  0  0  0  0  0  0  0
  150.7670  143.8569  158.3458 N   0  0  0  0  0  0  0  0  0  0  0  0
  151.5107  142.8799  158.9443 C   0  0  0  0  0  0  0  0  0  0  0  0
  151.9997  142.9165  160.2804 C   0  0  0  0  0  0  0  0  0  0  0  0
  152.7090  141.7564  160.5586 N   0  0  0  0  0  0  0  0  0  0  0  0
  152.6411  141.0749  159.4471 C   0  0  0  0  0  0  0  0  0  0  0  0
  151.9443  141.6759  158.4209 N   0  0  0  0  0  0  0  0  0  0  0  0
  151.7158  141.1297  157.0420 C   0  0  1  0  0  0  0  0  0  0  0  0
  152.4992  139.9853  156.8751 O   0  0  0  0  0  0  0  0  0  0  0  0
  151.7153  138.9580  156.2775 C   0  0  1  0  0  0  0  0  0  0  0  0
  152.3076  137.5724  156.5785 C   0  0  0  0  0  0  0  0  0  0  0  0
  151.7447  136.6038  155.7195 O   0  0  0  0  0  0  0  0  0  0  0  0
  150.3061  139.2094  156.8212 C   0  0  1  0  0  0  0  0  0  0  0  0
  150.2090  138.7468  158.0697 F   0  0  0  0  0  0  0  0  0  0  0  0
  150.2457  140.7276  156.7949 C   0  0  1  0  0  0  0  0  0  0  0  0
  149.2961  141.2472  157.7090 O   0  0  0  0  0  0  0  0  0  0  0  0
  152.6112  143.5521  162.7630 H   0  0  0  0  0  0  0  0  0  0  0  0
  151.8095  145.1084  162.7842 H   0  0  0  0  0  0  0  0  0  0  0  0
  149.9632  145.6964  158.7525 H   0  0  0  0  0  0  0  0  0  0  0  0
  153.1077  140.1063  159.3415 H   0  0  0  0  0  0  0  0  0  0  0  0
  152.0551  141.9253  156.3773 H   0  0  0  0  0  0  0  0  0  0  0  0
  151.7212  139.1324  155.1998 H   0  0  0  0  0  0  0  0  0  0  0  0
  153.3861  137.5857  156.4201 H   0  0  0  0  0  0  0  0  0  0  0  0
  152.1420  137.2852  157.6173 H   0  0  0  0  0  0  0  0  0  0  0  0
  150.9440  136.2872  156.1090 H   0  0  0  0  0  0  0  0  0  0  0  0
  149.5227  138.7344  156.2300 H   0  0  0  0  0  0  0  0  0  0  0  0
  149.9820  141.0567  155.7889 H   0  0  0  0  0  0  0  0  0  0  0  0
  149.6945  141.2918  158.5645 H   0  0  0  0  0  0  0  0  0  0  0  0
  1  2  1  0  0  0  0
  1 20  1  0  0  0  0
  1 21  1  0  0  0  0
  2  7  1  0  0  0  0
  2  3  2  0  0  0  0
  3  4  1  0  0  0  0
  4  5  2  0  0  0  0
  4 22  1  0  0  0  0
  5  6  1  0  0  0  0
  6 10  1  0  0  0  0
  6  7  2  0  0  0  0
  7  8  1  0  0  0  0
  8  9  2  0  0  0  0
  9 10  1  0  0  0  0
  9 23  1  0  0  0  0
 10 11  1  0  0  0  0
 11 18  1  0  0  0  0
 11 12  1  0  0  0  0
 11 24  1  0  0  0  0
 12 13  1  0  0  0  0
 13 14  1  0  0  0  0
 13 16  1  0  0  0  0
 13 25  1  0  0  0  0
 14 15  1  0  0  0  0
 14 26  1  0  0  0  0
 14 27  1  0  0  0  0
 15 28  1  0  0  0  0
 16 17  1  0  0  0  0
 16 18  1  0  0  0  0
 16 29  1  0  0  0  0
 18 19  1  0  0  0  0
 18 30  1  0  0  0  0
 19 31  1  0  0  0  0
M  END
> <s_m_source_file>
AV-unprocessed.smi

> <i_m_source_file_index>
100

> <i_lp_mmshare_version>
43012

> <i_f3d_flags>
0

> <s_epik_input>
bjFbY0hdbmMoW05IMl0pYyhjMTIpbltjSF1uMltDQEBIXTNPW0NAQEhdKFtDSDJdW09IXSlbQ0BIXShGKVtDQEhdM1tPSF0=

> <s_epik_cmdline>
J2VwaWtfcHl0aG9uJywgJy1waCcsICc3LjAnLCAnLXRuJywgJzgnLCAnLW1hJywgJzIwMCcsICctbWV0YWxfYmluZGluZycsICctaW1hZScsICc8aW5maWxlLm1hZT4nLCAnLW9tYWUnLCAnPG91dGZpbGUubWFlPic=

> <r_lp_tautomer_probability>
1

> <r_epik_Ionization_Penalty>
0.000750324

> <r_epik_Ionization_Penalty_Charging>
0

> <r_epik_Ionization_Penalty_Neutral>
0.000750324

> <r_epik_State_Penalty>
-0

> <r_epik_Charging_Adjusted_Penalty>
0

> <i_epik_Tot_Q>
0

> <i_epik_Tot_abs_Q>
0

> <r_epik_Metal_State_Penalty>
-0

> <b_epik_Metal_Only>
0

> <s_epik_Chemistry_Notes>
This compound contains an acetal/aminal-like group ( X-CH(R)-Y where X, Y are N, S, or O) that may be acid/base labile, releasing an aldehyde.

> <s_lp_Force_Field>
OPLS_2005

> <r_lp_Energy>
37.3061

> <b_lp_Chiralities_Consistent>
1

> <s_lp_Variant>
AV-unprocessed.smi:100-6

> <Gold.Version>
5.8.1

> <Gold.Id.Protein>
6NUR|6NUR_protein|mol2

> <Gold.PLP.Fitness>
37.0145

> <Gold.PLP.PLP>
-28.5969

> <Gold.PLP.part.hbond>
-3.6239

> <Gold.PLP.part.metal>
0.0000

> <Gold.PLP.part.buried>
-7.1207

> <Gold.PLP.part.nonpolar>
-18.3284

> <Gold.PLP.part.repulsive>
0.4164

> <Gold.PLP.ligand.clash>
0.0000

> <Gold.PLP.ligand.torsion>
0.2924

> <Gold.PLP.Chemscore.Hbond>
2.0000

> <Gold.PLP.Chemscore.CHOScore>
1.0000

> <Gold.PLP.Chemscore.Metal>
0.0000

> <Gold.Chemscore.Hbonds>
donor molecule, donor type, donor heavy atom, donor atom, acceptor molecule, acceptor atom, score
      P1  H  7997  8008       L1    12  0.98
      P1  H 10752 10765       L1    15  1.00
      L1  C     4    22       P1  8029  0.99

> <Gold.PLP.Chemscore.Internal.Correction>
0.0024

> <Gold.Rescore>
     Score         DG    S(hbond)    S(metal)    S(lipo)     H(rot)  DE(clash)    DE(int)     intcor
      5.93      -7.25       1.90        0.00      30.65       3.19       0.08       1.25       ----

> <Gold.Chemscore.Fitness>
5.9298

> <Gold.Chemscore.DG>
-7.2549

> <Gold.Chemscore.ZeroCoef>
-5.4800

> <Gold.Chemscore.Hbond>
1.9028

> <Gold.Chemscore.Metal>
0.0000

> <Gold.Chemscore.Lipo>
30.6506

> <Gold.Chemscore.Internal_Hbond>
0.0000

> <Gold.Chemscore.DEClash>
0.0754

> <Gold.Chemscore.DEInternal>
1.2497

> <Gold.Chemscore.Rot>
3.1901

> <Gold.Chemscore.Internal.Correction>
   9.000000E+99

> <Gold.Chemscore.Hbonds>
donor molecule, donor type, donor heavy atom, donor atom, acceptor molecule, acceptor atom, score
      P1  H  7997  8008       L1    12  0.85
      P1  H 10752 10765       L1    15  0.91

> <Gold.Chemscore.Hbond.Weighted>
-6.3554

> <Gold.Chemscore.Metal.Weighted>
-0.0000

> <Gold.Chemscore.Lipo.Weighted>
-3.5861

> <Gold.Chemscore.Internal_Hbond.Weighted>
0.0000

> <Gold.Chemscore.DEClash.Weighted>
0.0754

> <Gold.Chemscore.DEInternal.Weighted>
1.2497

> <Gold.Chemscore.Rot.Weighted>
8.1667

> <Gold.Chemscore.Internal.Correction.Weighted>
   9.000000E+99

> <Gold.Protein.RotatedTorsions>
[ 6907 6896 6895 6894 ] final  -19.07 input  -60.11 | X-H torsion
[ 7974 7965 7964 7962 ] final   92.19 input  175.53 | X-H torsion
[ 8008 7997 7996 7995 ] final  -37.83 input   59.86 | X-H torsion
[ 10167 10162 10161 10158 ] final -142.08 input  -65.29 | X-H torsion
[ 10718 10713 10712 10709 ] final   95.30 input   66.30 | X-H torsion
[ 10763 10752 10751 10750 ] final  179.13 input  -60.55 | X-H torsion
[ 11005 11000 10999 10996 ] final  175.25 input  -57.11 | X-H torsion

> <Gold.Protein.ActiveResidues>
 VAL166  LYS551  ARG553  GLY616  TRP617  ASP618  TYR619  PRO620  LYS621  CYS622 
 ASP623  PHE694  ASN695  SER759  ASP760  ASP761  ALA762  ILE779  LEU786  VAL792 
 PHE793  MET794  SER795  GLU796  ALA797  LYS798  CYS799  TRP800  GLU811  SER814 

> <Gold.Protein.RotatedAtoms>
  151.2686  135.0677  159.9125 H   0  0  0  0  0  0  0  0  0  0  0  0  # atno 6907 bound_to 6896
  152.5354  134.0155  159.7968 H   0  0  0  0  0  0  0  0  0  0  0  0  # atno 6908 bound_to 6896
  151.0389  133.5673  159.2684 H   0  0  0  0  0  0  0  0  0  0  0  0  # atno 6909 bound_to 6896
  145.4956  139.2276  143.2806 H   0  0  0  0  0  0  0  0  0  0  0  0  # atno 7974 bound_to 7965
  154.4047  140.1594  156.2601 H   0  0  0  0  0  0  0  0  0  0  0  0  # atno 8008 bound_to 7997
  155.9044  140.3431  155.6028 H   0  0  0  0  0  0  0  0  0  0  0  0  # atno 8009 bound_to 7997
  155.7410  140.0792  157.2236 H   0  0  0  0  0  0  0  0  0  0  0  0  # atno 8010 bound_to 7997
  139.8123  143.7686  152.2664 H   0  0  0  0  0  0  0  0  0  0  0  0  # atno 10167 bound_to 10162
  157.6940  131.0541  150.4317 H   0  0  0  0  0  0  0  0  0  0  0  0  # atno 10718 bound_to 10713
  154.5166  135.2791  155.1298 H   0  0  0  0  0  0  0  0  0  0  0  0  # atno 10763 bound_to 10752
  154.2872  135.6274  153.5374 H   0  0  0  0  0  0  0  0  0  0  0  0  # atno 10764 bound_to 10752
  152.9929  135.5665  154.5645 H   0  0  0  0  0  0  0  0  0  0  0  0  # atno 10765 bound_to 10752
  140.3601  134.7120  157.4325 H   0  0  0  0  0  0  0  0  0  0  0  0  # atno 11005 bound_to 11000
  146.2257  140.5753  142.8997 LP  0  0  0  0  0  0  0  0  0  0  0  0  # atno 17320 bound_to 7965
  144.7809  140.5838  143.6606 LP  0  0  0  0  0  0  0  0  0  0  0  0  # atno 17321 bound_to 7965
  139.7839  144.7435  151.0050 LP  0  0  0  0  0  0  0  0  0  0  0  0  # atno 17342 bound_to 10162
  140.7817  143.4513  151.0409 LP  0  0  0  0  0  0  0  0  0  0  0  0  # atno 17343 bound_to 10162
  156.4683  130.4047  149.6533 LP  0  0  0  0  0  0  0  0  0  0  0  0  # atno 17370 bound_to 10713
  156.3623  130.7488  151.2461 LP  0  0  0  0  0  0  0  0  0  0  0  0  # atno 17371 bound_to 10713
  140.0633  134.5964  155.8723 LP  0  0  0  0  0  0  0  0  0  0  0  0  # atno 17394 bound_to 11000
  141.1986  133.6602  156.5803 LP  0  0  0  0  0  0  0  0  0  0  0  0  # atno 17395 bound_to 11000

$$$$
