AV-unprocessed.smi:1085|AV-procd|sdf|4722|dock5
  -GOLD-   22720 3253D 1   1.00000     0.00000
 Structure written by MMmdl.
 33 34  0  0  0  0  0  0  0  0  1 V2000
  152.6849  139.4628  156.8859 O   0  0  0  0  0  0  0  0  0  0  0  0
  152.2768  138.8682  157.8829 C   0  0  0  0  0  0  0  0  0  0  0  0
  151.6052  137.5017  157.7351 C   0  0  0  0  0  0  0  0  0  0  0  0
  150.3894  137.4216  158.5244 N   0  0  0  0  0  0  0  0  0  0  0  0
  149.1231  137.7113  158.2177 C   0  0  0  0  0  0  0  0  0  0  0  0
  148.3128  137.5066  159.2451 N   0  0  0  0  0  0  0  0  0  0  0  0
  149.1688  137.0598  160.2379 N   0  0  0  0  0  0  0  0  0  0  0  0
  150.4024  137.0068  159.8161 N   0  0  0  0  0  0  0  0  0  0  0  0
  152.3901  139.3491  159.1312 N   0  0  0  0  0  0  0  0  0  0  0  0
  152.9738  140.6354  159.4960 C   0  0  2  0  0  0  0  0  0  0  0  0
  153.0785  140.7654  161.0275 C   0  0  0  0  0  0  0  0  0  0  0  0
  153.6126  142.1472  161.4329 C   0  0  0  0  0  0  0  0  0  0  0  0
  152.7565  143.2756  160.8365 C   0  0  0  0  0  0  0  0  0  0  0  0
  152.6557  143.1633  159.3005 C   0  0  2  0  0  0  0  0  0  0  0  0
  151.8128  144.3018  158.6897 C   0  0  0  0  0  0  0  0  0  0  0  0
  150.5186  144.1333  158.9629 F   0  0  0  0  0  0  0  0  0  0  0  0
  152.2079  145.4765  159.1805 F   0  0  0  0  0  0  0  0  0  0  0  0
  151.9738  144.3293  157.3666 F   0  0  0  0  0  0  0  0  0  0  0  0
  152.1177  141.7713  158.9060 C   0  0  0  0  0  0  0  0  0  0  0  0
  151.3541  137.3175  156.6898 H   0  0  0  0  0  0  0  0  0  0  0  0
  152.2953  136.7157  158.0454 H   0  0  0  0  0  0  0  0  0  0  0  0
  148.7991  138.0721  157.2527 H   0  0  0  0  0  0  0  0  0  0  0  0
  152.0284  138.7853  159.8873 H   0  0  0  0  0  0  0  0  0  0  0  0
  153.9750  140.7113  159.0667 H   0  0  0  0  0  0  0  0  0  0  0  0
  152.0984  140.6090  161.4807 H   0  0  0  0  0  0  0  0  0  0  0  0
  153.7317  139.9891  161.4277 H   0  0  0  0  0  0  0  0  0  0  0  0
  153.6336  142.2323  162.5198 H   0  0  0  0  0  0  0  0  0  0  0  0
  154.6442  142.2533  161.0950 H   0  0  0  0  0  0  0  0  0  0  0  0
  151.7588  143.2447  161.2761 H   0  0  0  0  0  0  0  0  0  0  0  0
  153.1856  144.2385  161.1152 H   0  0  0  0  0  0  0  0  0  0  0  0
  153.6650  143.2541  158.8956 H   0  0  0  0  0  0  0  0  0  0  0  0
  152.0926  141.6786  157.8196 H   0  0  0  0  0  0  0  0  0  0  0  0
  151.0862  141.6688  159.2466 H   0  0  0  0  0  0  0  0  0  0  0  0
  1  2  2  0  0  0  0
  2  3  1  0  0  0  0
  2  9  1  0  0  0  0
  3  4  1  0  0  0  0
  3 20  1  0  0  0  0
  3 21  1  0  0  0  0
  4  8  1  0  0  0  0
  4  5  1  0  0  0  0
  5  6  2  0  0  0  0
  5 22  1  0  0  0  0
  6  7  1  0  0  0  0
  7  8  2  0  0  0  0
  9 10  1  0  0  0  0
  9 23  1  0  0  0  0
 10 19  1  0  0  0  0
 10 11  1  0  0  0  0
 10 24  1  0  0  0  0
 11 12  1  0  0  0  0
 11 25  1  0  0  0  0
 11 26  1  0  0  0  0
 12 13  1  0  0  0  0
 12 27  1  0  0  0  0
 12 28  1  0  0  0  0
 13 14  1  0  0  0  0
 13 29  1  0  0  0  0
 13 30  1  0  0  0  0
 14 15  1  0  0  0  0
 14 19  1  0  0  0  0
 14 31  1  0  0  0  0
 15 16  1  0  0  0  0
 15 17  1  0  0  0  0
 15 18  1  0  0  0  0
 19 32  1  0  0  0  0
 19 33  1  0  0  0  0
M  END
> <s_m_source_file>
AV-unprocessed.smi

> <i_m_source_file_index>
1085

> <i_lp_mmshare_version>
43012

> <i_f3d_flags>
0

> <s_epik_input>
bjFubltjSF1uMVtDSDJdQyg9TylbTkhdW0NAQEhdMltDSDJdW0NIMl1bQ0gyXVtDQEBIXShDKEYpKEYpRilbQ0gyXTI=

> <s_epik_cmdline>
J2VwaWtfcHl0aG9uJywgJy1waCcsICc3LjAnLCAnLXRuJywgJzgnLCAnLW1hJywgJzIwMCcsICctbWV0YWxfYmluZGluZycsICctaW1hZScsICc8aW5maWxlLm1hZT4nLCAnLW9tYWUnLCAnPG91dGZpbGUubWFlPic=

> <r_lp_tautomer_probability>
1

> <r_epik_Ionization_Penalty>
8.41315e-07

> <r_epik_Ionization_Penalty_Charging>
0

> <r_epik_Ionization_Penalty_Neutral>
8.41315e-07

> <r_epik_State_Penalty>
-0

> <r_epik_Charging_Adjusted_Penalty>
0

> <i_epik_Tot_Q>
0

> <i_epik_Tot_abs_Q>
0

> <r_epik_Metal_State_Penalty>
-0

> <b_epik_Metal_Only>
0

> <s_lp_Force_Field>
OPLS_2005

> <r_lp_Energy>
12.3149

> <b_lp_Chiralities_Consistent>
1

> <s_lp_Variant>
AV-unprocessed.smi:1085-3

> <Gold.Version>
5.8.1

> <Gold.Id.Protein>
6NUR|6NUR_protein|mol2

> <Gold.PLP.Fitness>
46.2794

> <Gold.PLP.PLP>
-40.0399

> <Gold.PLP.part.hbond>
-4.2612

> <Gold.PLP.part.metal>
0.0000

> <Gold.PLP.part.buried>
-6.4415

> <Gold.PLP.part.nonpolar>
-29.0151

> <Gold.PLP.part.repulsive>
0.1070

> <Gold.PLP.ligand.clash>
0.0000

> <Gold.PLP.ligand.torsion>
0.7358

> <Gold.PLP.Chemscore.Hbond>
2.5600

> <Gold.PLP.Chemscore.CHOScore>
0.0000

> <Gold.PLP.Chemscore.Metal>
0.0000

> <Gold.Chemscore.Hbonds>
donor molecule, donor type, donor heavy atom, donor atom, acceptor molecule, acceptor atom, score
      P1  H  6896  6908       L1     8  0.94
      P1  H  6931  6943       L1     7  0.54
      P1  H  7997  8010       L1     1  1.00

> <Gold.PLP.Chemscore.Internal.Correction>
0.0311

> <Gold.Rescore>
     Score         DG    S(hbond)    S(metal)    S(lipo)     H(rot)  DE(clash)    DE(int)     intcor
     15.63     -16.10       2.05        0.00      77.10       2.05       0.00       0.46       ----

> <Gold.Chemscore.Fitness>
15.6321

> <Gold.Chemscore.DG>
-16.0959

> <Gold.Chemscore.ZeroCoef>
-5.4800

> <Gold.Chemscore.Hbond>
2.0456

> <Gold.Chemscore.Metal>
0.0000

> <Gold.Chemscore.Lipo>
77.0977

> <Gold.Chemscore.Internal_Hbond>
0.0000

> <Gold.Chemscore.DEClash>
0.0000

> <Gold.Chemscore.DEInternal>
0.4638

> <Gold.Chemscore.Rot>
2.0456

> <Gold.Chemscore.Internal.Correction>
   9.000000E+99

> <Gold.Chemscore.Hbonds>
donor molecule, donor type, donor heavy atom, donor atom, acceptor molecule, acceptor atom, score
      P1  H  6896  6908       L1     8  0.54
      P1  H  6931  6943       L1     7  0.28
      P1  H  7997  8010       L1     1  1.00

> <Gold.Chemscore.Hbond.Weighted>
-6.8322

> <Gold.Chemscore.Metal.Weighted>
-0.0000

> <Gold.Chemscore.Lipo.Weighted>
-9.0204

> <Gold.Chemscore.Internal_Hbond.Weighted>
0.0000

> <Gold.Chemscore.DEClash.Weighted>
0.0000

> <Gold.Chemscore.DEInternal.Weighted>
0.4638

> <Gold.Chemscore.Rot.Weighted>
5.2368

> <Gold.Chemscore.Internal.Correction.Weighted>
   9.000000E+99

> <Gold.Protein.RotatedTorsions>
[ 6907 6896 6895 6894 ] final -143.92 input  -60.11 | X-H torsion
[ 7974 7965 7964 7962 ] final   69.21 input  175.53 | X-H torsion
[ 8008 7997 7996 7995 ] final   66.59 input   59.86 | X-H torsion
[ 10167 10162 10161 10158 ] final  159.80 input  -65.29 | X-H torsion
[ 10718 10713 10712 10709 ] final  -19.37 input   66.30 | X-H torsion
[ 10763 10752 10751 10750 ] final  -72.61 input  -60.55 | X-H torsion
[ 11005 11000 10999 10996 ] final -132.03 input  -57.11 | X-H torsion

> <Gold.Protein.ActiveResidues>
 VAL166  LYS551  ARG553  GLY616  TRP617  ASP618  TYR619  PRO620  LYS621  CYS622 
 ASP623  PHE694  ASN695  SER759  ASP760  ASP761  ALA762  ILE779  LEU786  VAL792 
 PHE793  MET794  SER795  GLU796  ALA797  LYS798  CYS799  TRP800  GLU811  SER814 

> <Gold.Protein.RotatedAtoms>
  151.1070  133.5201  159.2607 H   0  0  0  0  0  0  0  0  0  0  0  0  # atno 6907 bound_to 6896
  151.2010  135.0442  159.8882 H   0  0  0  0  0  0  0  0  0  0  0  0  # atno 6908 bound_to 6896
  152.5447  134.0898  159.8325 H   0  0  0  0  0  0  0  0  0  0  0  0  # atno 6909 bound_to 6896
  145.7932  139.2944  143.1198 H   0  0  0  0  0  0  0  0  0  0  0  0  # atno 7974 bound_to 7965
  155.6798  140.3496  155.4851 H   0  0  0  0  0  0  0  0  0  0  0  0  # atno 8008 bound_to 7997
  155.9616  140.1138  157.0913 H   0  0  0  0  0  0  0  0  0  0  0  0  # atno 8009 bound_to 7997
  154.4144  140.1174  156.5173 H   0  0  0  0  0  0  0  0  0  0  0  0  # atno 8010 bound_to 7997
  139.4835  144.4696  151.8595 H   0  0  0  0  0  0  0  0  0  0  0  0  # atno 10167 bound_to 10162
  156.5466  130.4691  149.6472 H   0  0  0  0  0  0  0  0  0  0  0  0  # atno 10718 bound_to 10713
  154.4481  135.5924  153.6173 H   0  0  0  0  0  0  0  0  0  0  0  0  # atno 10763 bound_to 10752
  152.9811  135.6014  154.3639 H   0  0  0  0  0  0  0  0  0  0  0  0  # atno 10764 bound_to 10752
  154.3497  135.2841  155.2357 H   0  0  0  0  0  0  0  0  0  0  0  0  # atno 10765 bound_to 10752
  140.9206  134.1449  157.4317 H   0  0  0  0  0  0  0  0  0  0  0  0  # atno 11005 bound_to 11000
  145.9955  140.8566  143.0045 LP  0  0  0  0  0  0  0  0  0  0  0  0  # atno 17320 bound_to 7965
  144.6779  140.2277  143.7359 LP  0  0  0  0  0  0  0  0  0  0  0  0  # atno 17321 bound_to 7965
  140.4163  144.2302  150.5887 LP  0  0  0  0  0  0  0  0  0  0  0  0  # atno 17342 bound_to 10162
  140.4917  143.2345  151.8809 LP  0  0  0  0  0  0  0  0  0  0  0  0  # atno 17343 bound_to 10162
  156.2923  130.7131  151.1983 LP  0  0  0  0  0  0  0  0  0  0  0  0  # atno 17370 bound_to 10713
  157.7395  131.0528  150.5224 LP  0  0  0  0  0  0  0  0  0  0  0  0  # atno 17371 bound_to 10713
  139.8775  134.9970  156.5824 LP  0  0  0  0  0  0  0  0  0  0  0  0  # atno 17394 bound_to 11000
  140.7992  133.8519  155.8712 LP  0  0  0  0  0  0  0  0  0  0  0  0  # atno 17395 bound_to 11000

$$$$
