AV-unprocessed.smi:103|AV-procd|sdf|977|dock6
  -GOLD-   2262017533D 1   1.00000     0.00000
 Structure written by MMmdl.
 53 55  0  0  0  0  0  0  0  0  1 V2000
  151.2388  140.7068  158.6739 C   0  0  0  0  0  0  0  0  0  0  0  0
  150.2140  141.4682  157.8432 C   0  0  0  0  0  0  0  0  0  0  0  0
  150.4431  142.6061  157.4318 O   0  0  0  0  0  0  0  0  0  0  0  0
  149.0885  140.7594  157.6333 O   0  0  0  0  0  0  0  0  0  0  0  0
  148.0154  141.3169  156.8866 C   0  0  0  0  0  0  0  0  0  0  0  0
  147.2848  140.2276  156.0776 C   0  0  2  0  0  0  0  0  0  0  0  0
  146.6530  139.3004  156.9513 O   0  0  0  0  0  0  0  0  0  0  0  0
  147.5782  138.3450  157.3605 C   0  0  1  0  0  0  0  0  0  0  0  0
  146.8553  137.0446  157.5436 N   0  0  0  0  0  0  0  0  0  0  0  0
  146.8718  136.1748  158.6148 C   0  0  0  0  0  0  0  0  0  0  0  0
  147.7462  136.4093  160.1575 S   0  0  0  0  0  0  0  0  0  0  0  0
  147.3937  134.8315  161.0338 C   0  0  0  0  0  0  0  0  0  0  0  0
  149.1798  136.4783  159.8332 O   0  0  0  0  0  0  0  0  0  0  0  0
  147.0868  137.5150  160.8686 O   0  0  0  0  0  0  0  0  0  0  0  0
  146.0984  135.1265  158.5311 N   0  0  0  0  0  0  0  0  0  0  0  0
  145.5415  135.2480  157.2656 C   0  0  0  0  0  0  0  0  0  0  0  0
  144.6406  134.4599  156.5059 C   0  0  0  0  0  0  0  0  0  0  0  0
  144.1154  133.3120  156.9554 N   0  0  0  0  0  0  0  0  0  0  0  0
  144.2952  134.8836  155.2678 N   0  0  0  0  0  0  0  0  0  0  0  0
  144.8043  136.0265  154.7972 C   0  0  0  0  0  0  0  0  0  0  0  0
  145.6517  136.8697  155.3916 N   0  0  0  0  0  0  0  0  0  0  0  0
  146.0045  136.4400  156.6387 C   0  0  0  0  0  0  0  0  0  0  0  0
  148.6893  138.2860  156.2898 C   0  0  1  0  0  0  0  0  0  0  0  0
  148.8389  136.9985  155.6920 O   0  0  0  0  0  0  0  0  0  0  0  0
  150.0544  136.4556  155.5182 C   0  0  0  0  0  0  0  0  0  0  0  0
  149.9759  135.0023  155.0714 C   0  0  0  0  0  0  0  0  0  0  0  0
  151.1351  137.0176  155.6920 O   0  0  0  0  0  0  0  0  0  0  0  0
  148.2523  139.3447  155.2788 C   0  0  1  0  0  0  0  0  0  0  0  0
  147.5622  138.7539  154.1812 O   0  0  0  0  0  0  0  0  0  0  0  0
  147.0033  139.5175  153.2293 C   0  0  0  0  0  0  0  0  0  0  0  0
  146.4612  138.6900  152.0719 C   0  0  0  0  0  0  0  0  0  0  0  0
  146.9086  140.7447  153.2458 O   0  0  0  0  0  0  0  0  0  0  0  0
  152.0721  140.3922  158.0455 H   0  0  0  0  0  0  0  0  0  0  0  0
  150.7936  139.8204  159.1266 H   0  0  0  0  0  0  0  0  0  0  0  0
  151.6265  141.3419  159.4705 H   0  0  0  0  0  0  0  0  0  0  0  0
  147.3191  141.7518  157.6038 H   0  0  0  0  0  0  0  0  0  0  0  0
  148.3503  142.1377  156.2506 H   0  0  0  0  0  0  0  0  0  0  0  0
  146.5448  140.6996  155.4299 H   0  0  0  0  0  0  0  0  0  0  0  0
  147.9526  138.6177  158.3446 H   0  0  0  0  0  0  0  0  0  0  0  0
  147.8750  134.8449  162.0112 H   0  0  0  0  0  0  0  0  0  0  0  0
  147.7813  133.9972  160.4494 H   0  0  0  0  0  0  0  0  0  0  0  0
  146.3178  134.7147  161.1611 H   0  0  0  0  0  0  0  0  0  0  0  0
  144.3592  132.9743  157.8754 H   0  0  0  0  0  0  0  0  0  0  0  0
  143.4771  132.7876  156.3749 H   0  0  0  0  0  0  0  0  0  0  0  0
  144.4875  136.3068  153.8036 H   0  0  0  0  0  0  0  0  0  0  0  0
  149.6133  138.6206  156.7634 H   0  0  0  0  0  0  0  0  0  0  0  0
  149.4251  134.4117  155.8036 H   0  0  0  0  0  0  0  0  0  0  0  0
  150.9748  134.5785  154.9667 H   0  0  0  0  0  0  0  0  0  0  0  0
  149.4660  134.9291  154.1107 H   0  0  0  0  0  0  0  0  0  0  0  0
  149.1161  139.9049  154.9170 H   0  0  0  0  0  0  0  0  0  0  0  0
  147.2671  138.1297  151.5975 H   0  0  0  0  0  0  0  0  0  0  0  0
  145.9987  139.3332  151.3230 H   0  0  0  0  0  0  0  0  0  0  0  0
  145.7129  137.9835  152.4313 H   0  0  0  0  0  0  0  0  0  0  0  0
  1  2  1  0  0  0  0
  1 33  1  0  0  0  0
  1 34  1  0  0  0  0
  1 35  1  0  0  0  0
  2  3  2  0  0  0  0
  2  4  1  0  0  0  0
  4  5  1  0  0  0  0
  5  6  1  0  0  0  0
  5 36  1  0  0  0  0
  5 37  1  0  0  0  0
  6 28  1  0  0  0  0
  6  7  1  0  0  0  0
  6 38  1  0  0  0  0
  7  8  1  0  0  0  0
  8  9  1  0  0  0  0
  8 23  1  0  0  0  0
  8 39  1  0  0  0  0
  9 22  1  0  0  0  0
  9 10  1  0  0  0  0
 10 11  1  0  0  0  0
 10 15  2  0  0  0  0
 11 12  1  0  0  0  0
 11 13  2  0  0  0  0
 11 14  2  0  0  0  0
 12 40  1  0  0  0  0
 12 41  1  0  0  0  0
 12 42  1  0  0  0  0
 15 16  1  0  0  0  0
 16 22  2  0  0  0  0
 16 17  1  0  0  0  0
 17 18  1  0  0  0  0
 17 19  2  0  0  0  0
 18 43  1  0  0  0  0
 18 44  1  0  0  0  0
 19 20  1  0  0  0  0
 20 21  2  0  0  0  0
 20 45  1  0  0  0  0
 21 22  1  0  0  0  0
 23 24  1  0  0  0  0
 23 28  1  0  0  0  0
 23 46  1  0  0  0  0
 24 25  1  0  0  0  0
 25 26  1  0  0  0  0
 25 27  2  0  0  0  0
 26 47  1  0  0  0  0
 26 48  1  0  0  0  0
 26 49  1  0  0  0  0
 28 29  1  0  0  0  0
 28 50  1  0  0  0  0
 29 30  1  0  0  0  0
 30 31  1  0  0  0  0
 30 32  2  0  0  0  0
 31 51  1  0  0  0  0
 31 52  1  0  0  0  0
 31 53  1  0  0  0  0
M  END
> <s_m_source_file>
AV-unprocessed.smi

> <i_m_source_file_index>
103

> <i_lp_mmshare_version>
43012

> <i_f3d_flags>
0

> <s_epik_input>
W0NIM11DKD1PKU9bQ0gyXVtDQEBIXTFPW0NASF0oW0NAQEhdKE9DKD1PKVtDSDNdKVtDQEhdMU9DKD1PKVtDSDNdKW4oYyhuMilTKD1PKSg9TylbQ0gzXSljKGMyMyluW2NIXW5jM1tOSDJd

> <s_epik_cmdline>
J2VwaWtfcHl0aG9uJywgJy1waCcsICc3LjAnLCAnLXRuJywgJzgnLCAnLW1hJywgJzIwMCcsICctbWV0YWxfYmluZGluZycsICctaW1hZScsICc8aW5maWxlLm1hZT4nLCAnLW9tYWUnLCAnPG91dGZpbGUubWFlPic=

> <r_lp_tautomer_probability>
1

> <r_epik_Ionization_Penalty>
1.51338e-05

> <r_epik_Ionization_Penalty_Charging>
0

> <r_epik_Ionization_Penalty_Neutral>
1.51338e-05

> <r_epik_State_Penalty>
-0

> <r_epik_Charging_Adjusted_Penalty>
0

> <i_epik_Tot_Q>
0

> <i_epik_Tot_abs_Q>
0

> <r_epik_Metal_State_Penalty>
-0

> <b_epik_Metal_Only>
0

> <s_epik_Chemistry_Notes>
This compound has an ester and may undergo hydrolysis at high or low pH. This compound contains an acetal/aminal-like group ( X-CH(R)-Y where X, Y are N, S, or O) that may be acid/base labile, releasing an aldehyde.

> <s_lp_Force_Field>
OPLS_2005

> <r_lp_Energy>
14.6626

> <b_lp_Chiralities_Consistent>
1

> <s_lp_Variant>
AV-unprocessed.smi:103-1

> <Gold.Version>
5.8.1

> <Gold.Id.Protein>
6NUR|6NUR_protein|mol2

> <Gold.PLP.Fitness>
37.4894

> <Gold.PLP.PLP>
-26.4205

> <Gold.PLP.part.hbond>
-5.0000

> <Gold.PLP.part.metal>
0.0000

> <Gold.PLP.part.buried>
-5.5058

> <Gold.PLP.part.nonpolar>
-17.5631

> <Gold.PLP.part.repulsive>
0.7091

> <Gold.PLP.ligand.clash>
0.0000

> <Gold.PLP.ligand.torsion>
2.4593

> <Gold.PLP.Chemscore.Hbond>
4.5610

> <Gold.PLP.Chemscore.CHOScore>
0.0000

> <Gold.PLP.Chemscore.Metal>
0.0000

> <Gold.Chemscore.Hbonds>
donor molecule, donor type, donor heavy atom, donor atom, acceptor molecule, acceptor atom, score
      L1  H    18    44       P1 10957  1.00
      P1  H  6896  6907       L1    13  0.03
      P1  H  6931  6943       L1    14  0.14
      P1  H  6934  6947       L1    14  0.94

> <Gold.PLP.Chemscore.Internal.Correction>
2.3045

> <Gold.Rescore>
     Score         DG    S(hbond)    S(metal)    S(lipo)     H(rot)  DE(clash)    DE(int)     intcor
      4.23     -12.67       4.21        0.00      34.02       4.25       0.11       8.32       ----

> <Gold.Chemscore.Fitness>
4.2342

> <Gold.Chemscore.DG>
-12.6657

> <Gold.Chemscore.ZeroCoef>
-5.4800

> <Gold.Chemscore.Hbond>
4.2137

> <Gold.Chemscore.Metal>
0.0000

> <Gold.Chemscore.Lipo>
34.0214

> <Gold.Chemscore.Internal_Hbond>
0.0000

> <Gold.Chemscore.DEClash>
0.1108

> <Gold.Chemscore.DEInternal>
8.3207

> <Gold.Chemscore.Rot>
4.2456

> <Gold.Chemscore.Internal.Correction>
   9.000000E+99

> <Gold.Chemscore.Hbonds>
donor molecule, donor type, donor heavy atom, donor atom, acceptor molecule, acceptor atom, score
      L1  H    18    44       P1 10957  0.94
      P1  H  6896  6907       L1    13  0.07
      P1  H  6931  6943       L1    14  0.02
      P1  H  6934  6947       L1    14  0.90

> <Gold.Chemscore.Hbond.Weighted>
-14.0739

> <Gold.Chemscore.Metal.Weighted>
-0.0000

> <Gold.Chemscore.Lipo.Weighted>
-3.9805

> <Gold.Chemscore.Internal_Hbond.Weighted>
0.0000

> <Gold.Chemscore.DEClash.Weighted>
0.1108

> <Gold.Chemscore.DEInternal.Weighted>
8.3207

> <Gold.Chemscore.Rot.Weighted>
10.8687

> <Gold.Chemscore.Internal.Correction.Weighted>
   9.000000E+99

> <Gold.Protein.RotatedTorsions>
[ 6907 6896 6895 6894 ] final  -70.49 input  -60.11 | X-H torsion
[ 7974 7965 7964 7962 ] final -173.05 input  175.53 | X-H torsion
[ 8008 7997 7996 7995 ] final  -77.14 input   59.86 | X-H torsion
[ 10167 10162 10161 10158 ] final -143.65 input  -65.29 | X-H torsion
[ 10718 10713 10712 10709 ] final   87.41 input   66.30 | X-H torsion
[ 10763 10752 10751 10750 ] final -175.89 input  -60.55 | X-H torsion
[ 11005 11000 10999 10996 ] final   29.89 input  -57.11 | X-H torsion

> <Gold.Protein.ActiveResidues>
 VAL166  LYS551  ARG553  GLY616  TRP617  ASP618  TYR619  PRO620  LYS621  CYS622 
 ASP623  PHE694  ASN695  SER759  ASP760  ASP761  ALA762  ILE779  LEU786  VAL792 
 PHE793  MET794  SER795  GLU796  ALA797  LYS798  CYS799  TRP800  GLU811  SER814 

> <Gold.Protein.RotatedAtoms>
  150.7255  134.5446  159.5763 H   0  0  0  0  0  0  0  0  0  0  0  0  # atno 6907 bound_to 6896
  152.2948  134.7677  160.0379 H   0  0  0  0  0  0  0  0  0  0  0  0  # atno 6908 bound_to 6896
  151.8278  133.3368  159.3640 H   0  0  0  0  0  0  0  0  0  0  0  0  # atno 6909 bound_to 6896
  144.7141  140.1681  143.6370 H   0  0  0  0  0  0  0  0  0  0  0  0  # atno 7974 bound_to 7965
  154.5568  140.0715  156.8757 H   0  0  0  0  0  0  0  0  0  0  0  0  # atno 8008 bound_to 7997
  155.2886  140.3376  155.4235 H   0  0  0  0  0  0  0  0  0  0  0  0  # atno 8009 bound_to 7997
  156.2009  140.1721  156.7887 H   0  0  0  0  0  0  0  0  0  0  0  0  # atno 8010 bound_to 7997
  139.7973  143.7882  152.2655 H   0  0  0  0  0  0  0  0  0  0  0  0  # atno 10167 bound_to 10162
  157.6940  131.0254  150.3119 H   0  0  0  0  0  0  0  0  0  0  0  0  # atno 10718 bound_to 10713
  154.5789  135.2834  155.0753 H   0  0  0  0  0  0  0  0  0  0  0  0  # atno 10763 bound_to 10752
  154.2096  135.6410  153.5115 H   0  0  0  0  0  0  0  0  0  0  0  0  # atno 10764 bound_to 10752
  153.0081  135.5488  154.6436 H   0  0  0  0  0  0  0  0  0  0  0  0  # atno 10765 bound_to 10752
  140.3002  134.2766  155.7756 H   0  0  0  0  0  0  0  0  0  0  0  0  # atno 11005 bound_to 11000
  145.8969  139.2408  143.1516 LP  0  0  0  0  0  0  0  0  0  0  0  0  # atno 17320 bound_to 7965
  145.9849  140.8652  143.0096 LP  0  0  0  0  0  0  0  0  0  0  0  0  # atno 17321 bound_to 7965
  139.7991  144.7381  150.9849 LP  0  0  0  0  0  0  0  0  0  0  0  0  # atno 17342 bound_to 10162
  140.7820  143.4363  151.0618 LP  0  0  0  0  0  0  0  0  0  0  0  0  # atno 17343 bound_to 10162
  156.3619  130.3848  149.7244 LP  0  0  0  0  0  0  0  0  0  0  0  0  # atno 17370 bound_to 10713
  156.4688  130.7986  151.3005 LP  0  0  0  0  0  0  0  0  0  0  0  0  # atno 17371 bound_to 10713
  141.2129  133.7641  156.9755 LP  0  0  0  0  0  0  0  0  0  0  0  0  # atno 17394 bound_to 11000
  140.1116  134.9473  157.2074 LP  0  0  0  0  0  0  0  0  0  0  0  0  # atno 17395 bound_to 11000

$$$$
