AV-unprocessed.smi:3076|AV-procd|sdf|11728|dock5
  -GOLD-   2272017123D 1   1.00000     0.00000
 Structure written by MMmdl.
 20 20  0  0  0  0  0  0  0  0  1 V2000
  147.5055  142.2427  155.5231 N   0  0  0  0  0  0  0  0  0  0  0  0
  148.7311  141.4517  155.7127 C   0  0  0  0  0  0  0  0  0  0  0  0
  148.9699  140.4390  154.5793 C   0  0  1  0  0  0  0  0  0  0  0  0
  148.9814  141.1392  153.3507 O   0  0  0  0  0  0  0  0  0  0  0  0
  150.2707  139.6818  154.7934 C   0  0  0  0  0  0  0  0  0  0  0  0
  150.6033  138.5554  154.0094 C   0  0  0  0  0  0  0  0  0  0  0  0
  151.8276  137.9002  154.2434 C   0  0  0  0  0  0  0  0  0  0  0  0
  152.6732  138.4000  155.2533 C   0  0  0  0  0  0  0  0  0  0  0  0
  152.3691  139.4773  156.0083 N   0  0  0  0  0  0  0  0  0  0  0  0
  151.1931  140.0999  155.7772 C   0  0  0  0  0  0  0  0  0  0  0  0
  147.6598  143.2110  155.7999 H   0  0  0  0  0  0  0  0  0  0  0  0
  147.2357  142.2512  154.5406 H   0  0  0  0  0  0  0  0  0  0  0  0
  149.5952  142.1074  155.8257 H   0  0  0  0  0  0  0  0  0  0  0  0
  148.6415  140.9062  156.6527 H   0  0  0  0  0  0  0  0  0  0  0  0
  148.1496  139.7200  154.5496 H   0  0  0  0  0  0  0  0  0  0  0  0
  149.1927  140.5301  152.6601 H   0  0  0  0  0  0  0  0  0  0  0  0
  149.9344  138.1996  153.2394 H   0  0  0  0  0  0  0  0  0  0  0  0
  152.1126  137.0364  153.6614 H   0  0  0  0  0  0  0  0  0  0  0  0
  153.6200  137.9228  155.4586 H   0  0  0  0  0  0  0  0  0  0  0  0
  150.9853  140.9600  156.3969 H   0  0  0  0  0  0  0  0  0  0  0  0
  1  2  1  0  0  0  0
  1 11  1  0  0  0  0
  1 12  1  0  0  0  0
  2  3  1  0  0  0  0
  2 13  1  0  0  0  0
  2 14  1  0  0  0  0
  3  4  1  0  0  0  0
  3  5  1  0  0  0  0
  3 15  1  0  0  0  0
  4 16  1  0  0  0  0
  5 10  1  0  0  0  0
  5  6  2  0  0  0  0
  6  7  1  0  0  0  0
  6 17  1  0  0  0  0
  7  8  2  0  0  0  0
  7 18  1  0  0  0  0
  8  9  1  0  0  0  0
  8 19  1  0  0  0  0
  9 10  2  0  0  0  0
 10 20  1  0  0  0  0
M  END
> <s_m_source_file>
AV-unprocessed.smi

> <i_m_source_file_index>
3076

> <i_lp_mmshare_version>
43012

> <i_f3d_flags>
0

> <s_epik_input>
W05IMl1bQ0gyXVtDQEhdKFtPSF0pYzFbY0hdW2NIXVtjSF1uW2NIXTE=

> <s_epik_cmdline>
J2VwaWtfcHl0aG9uJywgJy1waCcsICc3LjAnLCAnLXRuJywgJzgnLCAnLW1hJywgJzIwMCcsICctbWV0YWxfYmluZGluZycsICctaW1hZScsICc8aW5maWxlLm1hZT4nLCAnLW9tYWUnLCAnPG91dGZpbGUubWFlPic=

> <r_epik_Ionization_Penalty>
2.22627

> <r_epik_Ionization_Penalty_Charging>
0

> <r_epik_Ionization_Penalty_Neutral>
2.22627

> <r_epik_State_Penalty>
2.36938

> <r_epik_Charging_Adjusted_Penalty>
2.36938

> <i_epik_Tot_Q>
0

> <i_epik_Tot_abs_Q>
0

> <r_epik_Metal_State_Penalty>
2.36785

> <b_epik_Metal_Only>
0

> <s_lp_Force_Field>
OPLS_2005

> <r_lp_Energy>
11.5599

> <b_lp_Chiralities_Consistent>
1

> <s_lp_Variant>
AV-unprocessed.smi:3076-4

> <Gold.Version>
5.8.1

> <Gold.Id.Protein>
6NUR|6NUR_protein|mol2

> <Gold.PLP.Fitness>
34.4340

> <Gold.PLP.PLP>
-23.2987

> <Gold.PLP.part.hbond>
-4.1573

> <Gold.PLP.part.metal>
0.0000

> <Gold.PLP.part.buried>
-0.8924

> <Gold.PLP.part.nonpolar>
-18.7056

> <Gold.PLP.part.repulsive>
0.0000

> <Gold.PLP.ligand.clash>
0.0000

> <Gold.PLP.ligand.torsion>
0.2057

> <Gold.PLP.Chemscore.Hbond>
3.8480

> <Gold.PLP.Chemscore.CHOScore>
0.0000

> <Gold.PLP.Chemscore.Metal>
0.0000

> <Gold.Chemscore.Hbonds>
donor molecule, donor type, donor heavy atom, donor atom, acceptor molecule, acceptor atom, score
      L1  H     1    11       P1  8028  0.82
      L1  H     4    16       P1  7957  1.00
      P1  H  7997  8010       L1     9  0.70
      P1  H  8011  8017       L1     4  0.35

> <Gold.PLP.Chemscore.Internal.Correction>
0.0027

> <Gold.Rescore>
     Score         DG    S(hbond)    S(metal)    S(lipo)     H(rot)  DE(clash)    DE(int)     intcor
     16.71     -17.17       3.00        0.00      54.63       1.85       0.28       0.18       ----

> <Gold.Chemscore.Fitness>
16.7114

> <Gold.Chemscore.DG>
-17.1711

> <Gold.Chemscore.ZeroCoef>
-5.4800

> <Gold.Chemscore.Hbond>
3.0011

> <Gold.Chemscore.Metal>
0.0000

> <Gold.Chemscore.Lipo>
54.6326

> <Gold.Chemscore.Internal_Hbond>
0.0000

> <Gold.Chemscore.DEClash>
0.2797

> <Gold.Chemscore.DEInternal>
0.1800

> <Gold.Chemscore.Rot>
1.8455

> <Gold.Chemscore.Internal.Correction>
   9.000000E+99

> <Gold.Chemscore.Hbonds>
donor molecule, donor type, donor heavy atom, donor atom, acceptor molecule, acceptor atom, score
      L1  H     1    11       P1  8028  0.16
      L1  H     4    16       P1  7957  0.98
      P1  H  7997  8010       L1     9  0.12
      P1  H  8011  8017       L1     4  0.01

> <Gold.Chemscore.Hbond.Weighted>
-10.0236

> <Gold.Chemscore.Metal.Weighted>
-0.0000

> <Gold.Chemscore.Lipo.Weighted>
-6.3920

> <Gold.Chemscore.Internal_Hbond.Weighted>
0.0000

> <Gold.Chemscore.DEClash.Weighted>
0.2797

> <Gold.Chemscore.DEInternal.Weighted>
0.1800

> <Gold.Chemscore.Rot.Weighted>
4.7245

> <Gold.Chemscore.Internal.Correction.Weighted>
   9.000000E+99

> <Gold.Protein.RotatedTorsions>
[ 6907 6896 6895 6894 ] final   74.81 input  -60.11 | X-H torsion
[ 7974 7965 7964 7962 ] final  -26.99 input  175.53 | X-H torsion
[ 8008 7997 7996 7995 ] final   75.19 input   59.86 | X-H torsion
[ 10167 10162 10161 10158 ] final  -93.17 input  -65.29 | X-H torsion
[ 10718 10713 10712 10709 ] final   20.96 input   66.30 | X-H torsion
[ 10763 10752 10751 10750 ] final -164.59 input  -60.55 | X-H torsion
[ 11005 11000 10999 10996 ] final -106.53 input  -57.11 | X-H torsion

> <Gold.Protein.ActiveResidues>
 VAL166  LYS551  ARG553  GLY616  TRP617  ASP618  TYR619  PRO620  LYS621  CYS622 
 ASP623  PHE694  ASN695  SER759  ASP760  ASP761  ALA762  ILE779  LEU786  VAL792 
 PHE793  MET794  SER795  GLU796  ALA797  LYS798  CYS799  TRP800  GLU811  SER814 

> <Gold.Protein.RotatedAtoms>
  152.4994  134.4215  159.9482 H   0  0  0  0  0  0  0  0  0  0  0  0  # atno 6907 bound_to 6896
  151.4189  133.3698  159.2761 H   0  0  0  0  0  0  0  0  0  0  0  0  # atno 6908 bound_to 6896
  150.9237  134.8677  159.7565 H   0  0  0  0  0  0  0  0  0  0  0  0  # atno 6909 bound_to 6896
  146.1388  140.5093  142.8661 H   0  0  0  0  0  0  0  0  0  0  0  0  # atno 7974 bound_to 7965
  155.8093  140.3474  155.5448 H   0  0  0  0  0  0  0  0  0  0  0  0  # atno 8008 bound_to 7997
  155.8457  140.0948  157.1726 H   0  0  0  0  0  0  0  0  0  0  0  0  # atno 8009 bound_to 7997
  154.4006  140.1386  156.3771 H   0  0  0  0  0  0  0  0  0  0  0  0  # atno 8010 bound_to 7997
  140.3273  143.3014  151.9980 H   0  0  0  0  0  0  0  0  0  0  0  0  # atno 10167 bound_to 10162
  157.1317  130.6594  149.5954 H   0  0  0  0  0  0  0  0  0  0  0  0  # atno 10718 bound_to 10713
  154.7014  135.2988  154.9335 H   0  0  0  0  0  0  0  0  0  0  0  0  # atno 10763 bound_to 10752
  154.0266  135.6675  153.4781 H   0  0  0  0  0  0  0  0  0  0  0  0  # atno 10764 bound_to 10752
  153.0684  135.5075  154.8160 H   0  0  0  0  0  0  0  0  0  0  0  0  # atno 10765 bound_to 10752
  141.1000  133.8902  157.1867 H   0  0  0  0  0  0  0  0  0  0  0  0  # atno 11005 bound_to 11000
  144.7769  140.5759  143.6632 LP  0  0  0  0  0  0  0  0  0  0  0  0  # atno 17320 bound_to 7965
  145.5094  139.1480  143.3613 LP  0  0  0  0  0  0  0  0  0  0  0  0  # atno 17321 bound_to 7965
  139.4863  144.6263  151.7158 LP  0  0  0  0  0  0  0  0  0  0  0  0  # atno 17342 bound_to 10162
  140.5429  144.0550  150.6095 LP  0  0  0  0  0  0  0  0  0  0  0  0  # atno 17343 bound_to 10162
  155.9806  130.4808  150.6784 LP  0  0  0  0  0  0  0  0  0  0  0  0  # atno 17370 bound_to 10713
  157.4386  131.0858  151.0966 LP  0  0  0  0  0  0  0  0  0  0  0  0  # atno 17371 bound_to 10713
  139.9848  135.0086  156.9836 LP  0  0  0  0  0  0  0  0  0  0  0  0  # atno 17394 bound_to 11000
  140.5046  134.1063  155.7257 LP  0  0  0  0  0  0  0  0  0  0  0  0  # atno 17395 bound_to 11000

$$$$
