AV-unprocessed.smi:3210|AV-procd|sdf|12273|dock10
  -GOLD-   2272018113D 1   1.00000     0.00000
 Structure written by MMmdl.
 34 35  0  0  0  0  0  0  0  0  1 V2000
  146.5038  139.0598  154.7057 O   0  0  0  0  0  0  0  0  0  0  0  0
  146.9514  138.4220  153.7521 C   0  0  0  0  0  0  0  0  0  0  0  0
  146.0091  137.9232  152.6575 C   0  0  0  0  0  0  0  0  0  0  0  0
  146.4410  136.6262  152.1302 N   0  0  0  0  0  0  0  0  0  0  0  0
  145.7959  135.5369  152.8492 C   0  0  0  0  0  0  0  0  0  0  0  0
  146.2948  134.1792  152.3271 C   0  0  0  0  0  0  0  0  0  0  0  0
  145.4934  133.6868  151.2202 N   0  0  0  0  0  0  0  0  0  0  0  0
  145.7132  132.5758  150.4333 C   0  0  0  0  0  0  0  0  0  0  0  0
  144.7034  132.5211  149.5159 C   0  0  0  0  0  0  0  0  0  0  0  0
  143.9033  133.6563  149.8264 C   0  0  0  0  0  0  0  0  0  0  0  0
  144.3785  134.3515  150.8469 N   0  0  0  0  0  0  0  0  0  0  0  0
  148.2520  138.1269  153.6059 N   0  0  0  0  0  0  0  0  0  0  0  0
  149.3071  138.5138  154.5336 C   0  0  0  0  0  0  0  0  0  0  0  0
  150.7065  138.0920  154.1265 C   0  0  0  0  0  0  0  0  0  0  0  0
  151.3788  136.8996  154.7655 C   0  0  0  0  0  0  0  0  0  0  0  0
  151.8701  138.2951  155.0678 C   0  0  0  0  0  0  0  0  0  0  0  0
  145.0073  137.8353  153.0802 H   0  0  0  0  0  0  0  0  0  0  0  0
  145.9565  138.6521  151.8466 H   0  0  0  0  0  0  0  0  0  0  0  0
  147.4437  136.5192  152.1991 H   0  0  0  0  0  0  0  0  0  0  0  0
  145.9935  135.6188  153.9193 H   0  0  0  0  0  0  0  0  0  0  0  0
  144.7158  135.6080  152.7136 H   0  0  0  0  0  0  0  0  0  0  0  0
  147.3233  134.2765  151.9775 H   0  0  0  0  0  0  0  0  0  0  0  0
  146.3080  133.4356  153.1260 H   0  0  0  0  0  0  0  0  0  0  0  0
  146.5622  131.9261  150.5882 H   0  0  0  0  0  0  0  0  0  0  0  0
  144.5585  131.7835  148.7407 H   0  0  0  0  0  0  0  0  0  0  0  0
  142.9980  133.9936  149.3434 H   0  0  0  0  0  0  0  0  0  0  0  0
  148.5294  137.5952  152.7936 H   0  0  0  0  0  0  0  0  0  0  0  0
  149.2942  139.5965  154.6672 H   0  0  0  0  0  0  0  0  0  0  0  0
  149.0734  138.0844  155.5083 H   0  0  0  0  0  0  0  0  0  0  0  0
  150.9275  138.2599  153.0740 H   0  0  0  0  0  0  0  0  0  0  0  0
  150.8406  136.3749  155.5523 H   0  0  0  0  0  0  0  0  0  0  0  0
  152.0005  136.2738  154.1283 H   0  0  0  0  0  0  0  0  0  0  0  0
  152.8202  138.5991  154.6332 H   0  0  0  0  0  0  0  0  0  0  0  0
  151.6594  138.6975  156.0568 H   0  0  0  0  0  0  0  0  0  0  0  0
  1  2  2  0  0  0  0
  2  3  1  0  0  0  0
  2 12  1  0  0  0  0
  3  4  1  0  0  0  0
  3 17  1  0  0  0  0
  3 18  1  0  0  0  0
  4  5  1  0  0  0  0
  4 19  1  0  0  0  0
  5  6  1  0  0  0  0
  5 20  1  0  0  0  0
  5 21  1  0  0  0  0
  6  7  1  0  0  0  0
  6 22  1  0  0  0  0
  6 23  1  0  0  0  0
  7 11  1  0  0  0  0
  7  8  1  0  0  0  0
  8  9  2  0  0  0  0
  8 24  1  0  0  0  0
  9 10  1  0  0  0  0
  9 25  1  0  0  0  0
 10 11  2  0  0  0  0
 10 26  1  0  0  0  0
 12 13  1  0  0  0  0
 12 27  1  0  0  0  0
 13 14  1  0  0  0  0
 13 28  1  0  0  0  0
 13 29  1  0  0  0  0
 14 16  1  0  0  0  0
 14 15  1  0  0  0  0
 14 30  1  0  0  0  0
 15 16  1  0  0  0  0
 15 31  1  0  0  0  0
 15 32  1  0  0  0  0
 16 33  1  0  0  0  0
 16 34  1  0  0  0  0
M  END
> <s_m_source_file>
AV-unprocessed.smi

> <i_m_source_file_index>
3210

> <i_lp_mmshare_version>
43012

> <i_f3d_flags>
0

> <s_epik_input>
W0NIMl0xW0NIMl1bQ0hdMVtDSDJdW05IXUMoPU8pW0NIMl1bTkhdW0NIMl1bQ0gyXW4yW2NIXVtjSF1bY0hdbjI=

> <s_epik_cmdline>
J2VwaWtfcHl0aG9uJywgJy1waCcsICc3LjAnLCAnLXRuJywgJzgnLCAnLW1hJywgJzIwMCcsICctbWV0YWxfYmluZGluZycsICctaW1hZScsICc8aW5maWxlLm1hZT4nLCAnLW9tYWUnLCAnPG91dGZpbGUubWFlPic=

> <r_lp_tautomer_probability>
1

> <r_epik_Ionization_Penalty>
0.724936

> <r_epik_Ionization_Penalty_Charging>
0

> <r_epik_Ionization_Penalty_Neutral>
0.724936

> <r_epik_State_Penalty>
0.747957

> <r_epik_Charging_Adjusted_Penalty>
0.747957

> <i_epik_Tot_Q>
0

> <i_epik_Tot_abs_Q>
0

> <r_epik_Metal_State_Penalty>
0.746186

> <b_epik_Metal_Only>
0

> <s_lp_Force_Field>
OPLS_2005

> <r_lp_Energy>
13.4578

> <b_lp_Chiralities_Consistent>
1

> <s_lp_Variant>
AV-unprocessed.smi:3210-2

> <Gold.Version>
5.8.1

> <Gold.Id.Protein>
6NUR|6NUR_protein|mol2

> <Gold.PLP.Fitness>
41.3726

> <Gold.PLP.PLP>
-30.9488

> <Gold.PLP.part.hbond>
-2.9128

> <Gold.PLP.part.metal>
0.0000

> <Gold.PLP.part.buried>
-3.8951

> <Gold.PLP.part.nonpolar>
-24.9525

> <Gold.PLP.part.repulsive>
0.3251

> <Gold.PLP.ligand.clash>
0.0000

> <Gold.PLP.ligand.torsion>
1.0903

> <Gold.PLP.Chemscore.Hbond>
1.9913

> <Gold.PLP.Chemscore.CHOScore>
2.0000

> <Gold.PLP.Chemscore.Metal>
0.0000

> <Gold.Chemscore.Hbonds>
donor molecule, donor type, donor heavy atom, donor atom, acceptor molecule, acceptor atom, score
      L1  H     4    19       P1  7948  1.00
      L1  H    12    27       P1  7948  1.00
      L1  C     8    24       P1 10747  0.69
      L1  C    10    26       P1 10186  1.00

> <Gold.PLP.Chemscore.Internal.Correction>
0.6307

> <Gold.Rescore>
     Score         DG    S(hbond)    S(metal)    S(lipo)     H(rot)  DE(clash)    DE(int)     intcor
     13.68     -14.84       1.92        0.00      74.78       2.27       0.01       1.15       ----

> <Gold.Chemscore.Fitness>
13.6810

> <Gold.Chemscore.DG>
-14.8383

> <Gold.Chemscore.ZeroCoef>
-5.4800

> <Gold.Chemscore.Hbond>
1.9247

> <Gold.Chemscore.Metal>
0.0000

> <Gold.Chemscore.Lipo>
74.7840

> <Gold.Chemscore.Internal_Hbond>
0.0000

> <Gold.Chemscore.DEClash>
0.0063

> <Gold.Chemscore.DEInternal>
1.1510

> <Gold.Chemscore.Rot>
2.2734

> <Gold.Chemscore.Internal.Correction>
   9.000000E+99

> <Gold.Chemscore.Hbonds>
donor molecule, donor type, donor heavy atom, donor atom, acceptor molecule, acceptor atom, score
      L1  H     4    19       P1  7948  0.96
      L1  H    12    27       P1  7948  1.00

> <Gold.Chemscore.Hbond.Weighted>
-6.4285

> <Gold.Chemscore.Metal.Weighted>
-0.0000

> <Gold.Chemscore.Lipo.Weighted>
-8.7497

> <Gold.Chemscore.Internal_Hbond.Weighted>
0.0000

> <Gold.Chemscore.DEClash.Weighted>
0.0063

> <Gold.Chemscore.DEInternal.Weighted>
1.1510

> <Gold.Chemscore.Rot.Weighted>
5.8199

> <Gold.Chemscore.Internal.Correction.Weighted>
   9.000000E+99

> <Gold.Protein.RotatedTorsions>
[ 6907 6896 6895 6894 ] final -147.09 input  -60.11 | X-H torsion
[ 7974 7965 7964 7962 ] final -127.00 input  175.53 | X-H torsion
[ 8008 7997 7996 7995 ] final -168.71 input   59.86 | X-H torsion
[ 10167 10162 10161 10158 ] final   24.33 input  -65.29 | X-H torsion
[ 10718 10713 10712 10709 ] final  -55.03 input   66.30 | X-H torsion
[ 10763 10752 10751 10750 ] final  119.96 input  -60.55 | X-H torsion
[ 11005 11000 10999 10996 ] final  174.65 input  -57.11 | X-H torsion

> <Gold.Protein.ActiveResidues>
 VAL166  LYS551  ARG553  GLY616  TRP617  ASP618  TYR619  PRO620  LYS621  CYS622 
 ASP623  PHE694  ASN695  SER759  ASP760  ASP761  ALA762  ILE779  LEU786  VAL792 
 PHE793  MET794  SER795  GLU796  ALA797  LYS798  CYS799  TRP800  GLU811  SER814 

> <Gold.Protein.RotatedAtoms>
  151.1507  133.4909  159.2595 H   0  0  0  0  0  0  0  0  0  0  0  0  # atno 6907 bound_to 6896
  151.1557  135.0248  159.8698 H   0  0  0  0  0  0  0  0  0  0  0  0  # atno 6908 bound_to 6896
  152.5463  134.1386  159.8523 H   0  0  0  0  0  0  0  0  0  0  0  0  # atno 6909 bound_to 6896
  144.9816  140.7645  143.4609 H   0  0  0  0  0  0  0  0  0  0  0  0  # atno 7974 bound_to 7965
  155.8951  140.1031  157.1391 H   0  0  0  0  0  0  0  0  0  0  0  0  # atno 8008 bound_to 7997
  154.4019  140.1303  156.4429 H   0  0  0  0  0  0  0  0  0  0  0  0  # atno 8009 bound_to 7997
  155.7489  140.3465  155.5143 H   0  0  0  0  0  0  0  0  0  0  0  0  # atno 8010 bound_to 7997
  140.5197  144.0024  150.6411 H   0  0  0  0  0  0  0  0  0  0  0  0  # atno 10167 bound_to 10162
  156.1401  130.4155  150.0117 H   0  0  0  0  0  0  0  0  0  0  0  0  # atno 10718 bound_to 10713
  153.5910  135.3466  155.2911 H   0  0  0  0  0  0  0  0  0  0  0  0  # atno 10763 bound_to 10752
  154.8652  135.4205  154.2516 H   0  0  0  0  0  0  0  0  0  0  0  0  # atno 10764 bound_to 10752
  153.3323  135.7045  153.7008 H   0  0  0  0  0  0  0  0  0  0  0  0  # atno 10765 bound_to 10752
  140.3536  134.7173  157.4284 H   0  0  0  0  0  0  0  0  0  0  0  0  # atno 11005 bound_to 11000
  145.2413  139.2071  143.4991 LP  0  0  0  0  0  0  0  0  0  0  0  0  # atno 17320 bound_to 7965
  146.3409  140.2309  142.8593 LP  0  0  0  0  0  0  0  0  0  0  0  0  # atno 17321 bound_to 7965
  140.3369  143.3043  152.0629 LP  0  0  0  0  0  0  0  0  0  0  0  0  # atno 17342 bound_to 10162
  139.4919  144.6470  151.6757 LP  0  0  0  0  0  0  0  0  0  0  0  0  # atno 17343 bound_to 10162
  156.8005  130.9289  151.3646 LP  0  0  0  0  0  0  0  0  0  0  0  0  # atno 17370 bound_to 10713
  157.6568  130.8931  149.9746 LP  0  0  0  0  0  0  0  0  0  0  0  0  # atno 17371 bound_to 10713
  140.0683  134.5898  155.8670 LP  0  0  0  0  0  0  0  0  0  0  0  0  # atno 17394 bound_to 11000
  141.2005  133.6613  156.5899 LP  0  0  0  0  0  0  0  0  0  0  0  0  # atno 17395 bound_to 11000

$$$$
