AV-unprocessed.smi:2371|AV-procd|sdf|9437|dock3
  -GOLD-   2272013 63D 1   1.00000     0.00000
 Structure written by MMmdl.
 35 36  0  0  0  0  0  0  0  0  1 V2000
  150.6691  140.5078  155.5541 C   0  0  0  0  0  0  0  0  0  0  0  0
  149.4424  140.5047  154.7530 N   0  0  0  0  0  0  0  0  0  0  0  0
  148.7139  141.7033  154.6752 C   0  0  0  0  0  0  0  0  0  0  0  0
  147.5823  141.7929  153.9631 C   0  0  0  0  0  0  0  0  0  0  0  0
  147.1149  140.6188  153.2654 C   0  0  0  0  0  0  0  0  0  0  0  0
  147.7991  139.4484  153.3319 C   0  0  0  0  0  0  0  0  0  0  0  0
  147.4245  138.2561  152.6860 N   0  0  0  0  0  0  0  0  0  0  0  0
  146.2011  137.7844  152.3817 C   0  0  0  0  0  0  0  0  0  0  0  0
  145.1282  138.3310  152.6356 O   0  0  0  0  0  0  0  0  0  0  0  0
  146.2902  136.6014  151.7581 N   0  0  0  0  0  0  0  0  0  0  0  0
  145.1566  135.7993  151.3130 C   0  0  0  0  0  0  0  0  0  0  0  0
  145.6049  134.4196  150.8023 C   0  0  1  0  0  0  0  0  0  0  0  0
  146.2149  133.5270  151.8835 C   0  0  0  0  0  0  0  0  0  0  0  0
  145.8934  132.1134  151.4176 C   0  0  0  0  0  0  0  0  0  0  0  0
  144.9317  132.3130  150.2442 C   0  0  0  0  0  0  0  0  0  0  0  0
  144.4912  133.6567  150.3653 O   0  0  0  0  0  0  0  0  0  0  0  0
  149.0468  139.3619  154.1168 C   0  0  0  0  0  0  0  0  0  0  0  0
  149.7073  138.3237  154.2037 O   0  0  0  0  0  0  0  0  0  0  0  0
  150.8826  141.4820  155.9949 H   0  0  0  0  0  0  0  0  0  0  0  0
  151.5288  140.2346  154.9404 H   0  0  0  0  0  0  0  0  0  0  0  0
  150.5933  139.7902  156.3724 H   0  0  0  0  0  0  0  0  0  0  0  0
  149.1277  142.5360  155.2251 H   0  0  0  0  0  0  0  0  0  0  0  0
  147.0322  142.7210  153.9127 H   0  0  0  0  0  0  0  0  0  0  0  0
  146.2101  140.7237  152.6908 H   0  0  0  0  0  0  0  0  0  0  0  0
  148.2012  137.6628  152.4325 H   0  0  0  0  0  0  0  0  0  0  0  0
  147.2091  136.2172  151.5931 H   0  0  0  0  0  0  0  0  0  0  0  0
  144.4403  135.6862  152.1284 H   0  0  0  0  0  0  0  0  0  0  0  0
  144.6414  136.3435  150.5210 H   0  0  0  0  0  0  0  0  0  0  0  0
  146.3104  134.5238  149.9755 H   0  0  0  0  0  0  0  0  0  0  0  0
  147.2845  133.6991  152.0070 H   0  0  0  0  0  0  0  0  0  0  0  0
  145.7340  133.7103  152.8453 H   0  0  0  0  0  0  0  0  0  0  0  0
  146.7867  131.5723  151.1045 H   0  0  0  0  0  0  0  0  0  0  0  0
  145.4224  131.5464  152.2213 H   0  0  0  0  0  0  0  0  0  0  0  0
  145.4548  132.1918  149.2943 H   0  0  0  0  0  0  0  0  0  0  0  0
  144.0935  131.6161  150.2629 H   0  0  0  0  0  0  0  0  0  0  0  0
  1  2  1  0  0  0  0
  1 19  1  0  0  0  0
  1 20  1  0  0  0  0
  1 21  1  0  0  0  0
  2 17  1  0  0  0  0
  2  3  1  0  0  0  0
  3  4  2  0  0  0  0
  3 22  1  0  0  0  0
  4  5  1  0  0  0  0
  4 23  1  0  0  0  0
  5  6  2  0  0  0  0
  5 24  1  0  0  0  0
  6  7  1  0  0  0  0
  6 17  1  0  0  0  0
  7  8  1  0  0  0  0
  7 25  1  0  0  0  0
  8  9  2  0  0  0  0
  8 10  1  0  0  0  0
 10 11  1  0  0  0  0
 10 26  1  0  0  0  0
 11 12  1  0  0  0  0
 11 27  1  0  0  0  0
 11 28  1  0  0  0  0
 12 16  1  0  0  0  0
 12 13  1  0  0  0  0
 12 29  1  0  0  0  0
 13 14  1  0  0  0  0
 13 30  1  0  0  0  0
 13 31  1  0  0  0  0
 14 15  1  0  0  0  0
 14 32  1  0  0  0  0
 14 33  1  0  0  0  0
 15 16  1  0  0  0  0
 15 34  1  0  0  0  0
 15 35  1  0  0  0  0
 17 18  2  0  0  0  0
M  END
> <s_m_source_file>
AV-unprocessed.smi

> <i_m_source_file_index>
2371

> <i_lp_mmshare_version>
43012

> <i_f3d_flags>
0

> <s_epik_input>
W0NIM11uMVtjSF1bY0hdW2NIXWMoYzE9TylbTkhdQyg9TylbTkhdW0NIMl1bQ0BASF0yW0NIMl1bQ0gyXVtDSDJdTzI=

> <s_epik_cmdline>
J2VwaWtfcHl0aG9uJywgJy1waCcsICc3LjAnLCAnLXRuJywgJzgnLCAnLW1hJywgJzIwMCcsICctbWV0YWxfYmluZGluZycsICctaW1hZScsICc8aW5maWxlLm1hZT4nLCAnLW9tYWUnLCAnPG91dGZpbGUubWFlPic=

> <r_lp_tautomer_probability>
1

> <r_epik_Ionization_Penalty>
2.36512e-05

> <r_epik_Ionization_Penalty_Charging>
4.84074e-06

> <r_epik_Ionization_Penalty_Neutral>
1.88105e-05

> <r_epik_State_Penalty>
-0

> <r_epik_Charging_Adjusted_Penalty>
4.84074e-06

> <i_epik_Tot_Q>
0

> <i_epik_Tot_abs_Q>
0

> <r_epik_Metal_State_Penalty>
-0

> <b_epik_Metal_Only>
0

> <s_lp_Force_Field>
OPLS_2005

> <r_lp_Energy>
29.3434

> <b_lp_Chiralities_Consistent>
1

> <s_lp_Variant>
AV-unprocessed.smi:2371-2

> <Gold.Version>
5.8.1

> <Gold.Id.Protein>
6NUR|6NUR_protein|mol2

> <Gold.PLP.Fitness>
40.3447

> <Gold.PLP.PLP>
-31.8026

> <Gold.PLP.part.hbond>
-2.4854

> <Gold.PLP.part.metal>
0.0000

> <Gold.PLP.part.buried>
-1.3411

> <Gold.PLP.part.nonpolar>
-31.8014

> <Gold.PLP.part.repulsive>
4.3569

> <Gold.PLP.ligand.clash>
0.0000

> <Gold.PLP.ligand.torsion>
0.2325

> <Gold.PLP.Chemscore.Hbond>
2.0000

> <Gold.PLP.Chemscore.CHOScore>
1.0000

> <Gold.PLP.Chemscore.Metal>
0.0000

> <Gold.Chemscore.Hbonds>
donor molecule, donor type, donor heavy atom, donor atom, acceptor molecule, acceptor atom, score
      L1  H     7    25       P1  7948  1.00
      L1  H    10    26       P1  7948  1.00
      L1  C     3    22       P1  8028  1.00

> <Gold.PLP.Chemscore.Internal.Correction>
0.0072

> <Gold.Rescore>
     Score         DG    S(hbond)    S(metal)    S(lipo)     H(rot)  DE(clash)    DE(int)     intcor
     14.88     -16.89       1.96        0.00      68.84       1.25       1.76       0.25       ----

> <Gold.Chemscore.Fitness>
14.8815

> <Gold.Chemscore.DG>
-16.8908

> <Gold.Chemscore.ZeroCoef>
-5.4800

> <Gold.Chemscore.Hbond>
1.9614

> <Gold.Chemscore.Metal>
0.0000

> <Gold.Chemscore.Lipo>
68.8402

> <Gold.Chemscore.Internal_Hbond>
0.0000

> <Gold.Chemscore.DEClash>
1.7631

> <Gold.Chemscore.DEInternal>
0.2462

> <Gold.Chemscore.Rot>
1.2478

> <Gold.Chemscore.Internal.Correction>
   9.000000E+99

> <Gold.Chemscore.Hbonds>
donor molecule, donor type, donor heavy atom, donor atom, acceptor molecule, acceptor atom, score
      L1  H     7    25       P1  7948  0.98
      L1  H    10    26       P1  7948  0.96

> <Gold.Chemscore.Hbond.Weighted>
-6.5509

> <Gold.Chemscore.Metal.Weighted>
-0.0000

> <Gold.Chemscore.Lipo.Weighted>
-8.0543

> <Gold.Chemscore.Internal_Hbond.Weighted>
0.0000

> <Gold.Chemscore.DEClash.Weighted>
1.7631

> <Gold.Chemscore.DEInternal.Weighted>
0.2462

> <Gold.Chemscore.Rot.Weighted>
3.1944

> <Gold.Chemscore.Internal.Correction.Weighted>
   9.000000E+99

> <Gold.Protein.RotatedTorsions>
[ 6907 6896 6895 6894 ] final  138.79 input  -60.11 | X-H torsion
[ 7974 7965 7964 7962 ] final  112.30 input  175.53 | X-H torsion
[ 8008 7997 7996 7995 ] final -119.59 input   59.86 | X-H torsion
[ 10167 10162 10161 10158 ] final -172.17 input  -65.29 | X-H torsion
[ 10718 10713 10712 10709 ] final -112.71 input   66.30 | X-H torsion
[ 10763 10752 10751 10750 ] final  134.95 input  -60.55 | X-H torsion
[ 11005 11000 10999 10996 ] final   90.94 input  -57.11 | X-H torsion

> <Gold.Protein.ActiveResidues>
 VAL166  LYS551  ARG553  GLY616  TRP617  ASP618  TYR619  PRO620  LYS621  CYS622 
 ASP623  PHE694  ASN695  SER759  ASP760  ASP761  ALA762  ILE779  LEU786  VAL792 
 PHE793  MET794  SER795  GLU796  ALA797  LYS798  CYS799  TRP800  GLU811  SER814 

> <Gold.Protein.RotatedAtoms>
  152.2625  133.5310  159.5390 H   0  0  0  0  0  0  0  0  0  0  0  0  # atno 6907 bound_to 6896
  150.7130  134.0810  159.3907 H   0  0  0  0  0  0  0  0  0  0  0  0  # atno 6908 bound_to 6896
  151.8727  135.0483  160.0531 H   0  0  0  0  0  0  0  0  0  0  0  0  # atno 6909 bound_to 6896
  145.2312  139.2818  143.4167 H   0  0  0  0  0  0  0  0  0  0  0  0  # atno 7974 bound_to 7965
  155.1181  140.0398  157.2742 H   0  0  0  0  0  0  0  0  0  0  0  0  # atno 8008 bound_to 7997
  154.6634  140.2596  155.7058 H   0  0  0  0  0  0  0  0  0  0  0  0  # atno 8009 bound_to 7997
  156.2628  140.2812  156.1115 H   0  0  0  0  0  0  0  0  0  0  0  0  # atno 8010 bound_to 7997
  139.5760  144.1531  152.1451 H   0  0  0  0  0  0  0  0  0  0  0  0  # atno 10167 bound_to 10162
  156.0722  130.5934  150.8544 H   0  0  0  0  0  0  0  0  0  0  0  0  # atno 10718 bound_to 10713
  153.8320  135.3102  155.3419 H   0  0  0  0  0  0  0  0  0  0  0  0  # atno 10763 bound_to 10752
  154.7969  135.4750  154.0185 H   0  0  0  0  0  0  0  0  0  0  0  0  # atno 10764 bound_to 10752
  153.1628  135.6864  153.8808 H   0  0  0  0  0  0  0  0  0  0  0  0  # atno 10765 bound_to 10752
  139.8847  134.8644  156.3357 H   0  0  0  0  0  0  0  0  0  0  0  0  # atno 11005 bound_to 11000
  146.3352  140.2648  142.8603 LP  0  0  0  0  0  0  0  0  0  0  0  0  # atno 17320 bound_to 7965
  144.9674  140.8335  143.5476 LP  0  0  0  0  0  0  0  0  0  0  0  0  # atno 17321 bound_to 7965
  140.1074  144.5487  150.6948 LP  0  0  0  0  0  0  0  0  0  0  0  0  # atno 17342 bound_to 10162
  140.7042  143.2456  151.4774 LP  0  0  0  0  0  0  0  0  0  0  0  0  # atno 17343 bound_to 10162
  157.5799  131.0946  150.9288 LP  0  0  0  0  0  0  0  0  0  0  0  0  # atno 17370 bound_to 10713
  156.9486  130.5411  149.5282 LP  0  0  0  0  0  0  0  0  0  0  0  0  # atno 17371 bound_to 10713
  140.9693  133.7338  156.0511 LP  0  0  0  0  0  0  0  0  0  0  0  0  # atno 17394 bound_to 11000
  140.7891  134.3638  157.5469 LP  0  0  0  0  0  0  0  0  0  0  0  0  # atno 17395 bound_to 11000

$$$$
