AV-unprocessed.smi:1056|AV-procd|sdf|4636|dock9
  -GOLD-   22720 3143D 1   1.00000     0.00000
 Structure written by MMmdl.
 46 48  0  0  0  0  0  0  0  0  3 V2000
  151.9665  144.5853  160.5745 C   0  0  0  0  0  0  0  0  0  0  0  0
  151.8693  143.4971  159.5187 C   0  0  0  0  0  0  0  0  0  0  0  0
  150.9824  143.6852  158.4349 C   0  0  0  0  0  0  0  0  0  0  0  0
  150.9170  142.6721  157.4856 C   0  0  0  0  0  0  0  0  0  0  0  0
  150.1545  142.5598  156.3215 N   0  3  0  0  0  0  0  0  0  0  0  0
  150.4333  141.3771  155.7074 C   0  0  0  0  0  0  0  0  0  0  0  0
  151.3612  140.7292  156.4635 N   0  0  0  0  0  0  0  0  0  0  0  0
  152.0000  139.4221  156.2469 C   0  0  0  0  0  0  0  0  0  0  0  0
  150.9831  138.2705  156.1157 C   0  0  2  0  0  0  0  0  0  0  0  0
  151.3968  137.1759  156.9111 O   0  0  0  0  0  0  0  0  0  0  0  0
  150.8439  137.7947  154.6562 C   0  0  0  0  0  0  0  0  0  0  0  0
  149.9005  136.6559  154.5172 N   0  3  1  0  0  0  0  0  0  0  0  0
  150.5413  135.3301  154.6883 C   0  0  0  0  0  0  0  0  0  0  0  0
  149.5520  134.2110  154.3188 C   0  0  0  0  0  0  0  0  0  0  0  0
  148.2109  134.4353  154.8535 N   0  0  0  0  0  0  0  0  0  0  0  0
  147.7535  135.5978  155.3465 C   0  0  0  0  0  0  0  0  0  0  0  0
  146.6066  135.7143  155.7704 O   0  0  0  0  0  0  0  0  0  0  0  0
  148.7020  136.8061  155.3816 C   0  0  0  0  0  0  0  0  0  0  0  0
  151.6945  141.5014  157.5841 C   0  0  0  0  0  0  0  0  0  0  0  0
  152.5720  141.3003  158.6478 C   0  0  0  0  0  0  0  0  0  0  0  0
  152.6542  142.3198  159.6232 C   0  0  0  0  0  0  0  0  0  0  0  0
  153.6049  142.1282  160.7926 C   0  0  0  0  0  0  0  0  0  0  0  0
  151.2741  145.4025  160.3707 H   0  0  0  0  0  0  0  0  0  0  0  0
  152.9739  145.0010  160.6032 H   0  0  0  0  0  0  0  0  0  0  0  0
  151.7276  144.1863  161.5606 H   0  0  0  0  0  0  0  0  0  0  0  0
  150.3818  144.5789  158.3484 H   0  0  0  0  0  0  0  0  0  0  0  0
  149.9959  141.0196  154.7863 H   0  0  0  0  0  0  0  0  0  0  0  0
  152.5862  139.5026  155.3307 H   0  0  0  0  0  0  0  0  0  0  0  0
  152.7153  139.2308  157.0468 H   0  0  0  0  0  0  0  0  0  0  0  0
  150.0217  138.6159  156.4953 H   0  0  0  0  0  0  0  0  0  0  0  0
  150.6788  136.9151  157.4679 H   0  0  0  0  0  0  0  0  0  0  0  0
  150.5135  138.6125  154.0139 H   0  0  0  0  0  0  0  0  0  0  0  0
  151.8307  137.5040  154.2912 H   0  0  0  0  0  0  0  0  0  0  0  0
  151.4360  135.2407  154.0731 H   0  0  0  0  0  0  0  0  0  0  0  0
  150.8601  135.2197  155.7262 H   0  0  0  0  0  0  0  0  0  0  0  0
  149.4659  134.1421  153.2339 H   0  0  0  0  0  0  0  0  0  0  0  0
  149.9233  133.2463  154.6656 H   0  0  0  0  0  0  0  0  0  0  0  0
  147.5780  133.6477  154.8430 H   0  0  0  0  0  0  0  0  0  0  0  0
  149.0166  136.9572  156.4153 H   0  0  0  0  0  0  0  0  0  0  0  0
  148.1492  137.6971  155.0807 H   0  0  0  0  0  0  0  0  0  0  0  0
  153.1693  140.4053  158.7342 H   0  0  0  0  0  0  0  0  0  0  0  0
  154.1622  141.1949  160.7062 H   0  0  0  0  0  0  0  0  0  0  0  0
  153.0532  142.1016  161.7324 H   0  0  0  0  0  0  0  0  0  0  0  0
  154.3276  142.9431  160.8376 H   0  0  0  0  0  0  0  0  0  0  0  0
  149.5580  136.6874  153.5672 H   0  0  0  0  0  0  0  0  0  0  0  0
  149.4927  143.2400  155.9693 H   0  0  0  0  0  0  0  0  0  0  0  0
  1  2  1  0  0  0  0
  1 23  1  0  0  0  0
  1 24  1  0  0  0  0
  1 25  1  0  0  0  0
  2 21  1  0  0  0  0
  2  3  2  0  0  0  0
  3  4  1  0  0  0  0
  3 26  1  0  0  0  0
  4 19  2  0  0  0  0
  4  5  1  0  0  0  0
  5  6  2  0  0  0  0
  5 46  1  0  0  0  0
  6  7  1  0  0  0  0
  6 27  1  0  0  0  0
  7  8  1  0  0  0  0
  7 19  1  0  0  0  0
  8  9  1  0  0  0  0
  8 28  1  0  0  0  0
  8 29  1  0  0  0  0
  9 10  1  0  0  0  0
  9 11  1  0  0  0  0
  9 30  1  0  0  0  0
 10 31  1  0  0  0  0
 11 12  1  0  0  0  0
 11 32  1  0  0  0  0
 11 33  1  0  0  0  0
 12 18  1  0  0  0  0
 12 13  1  0  0  0  0
 12 45  1  0  0  0  0
 13 14  1  0  0  0  0
 13 34  1  0  0  0  0
 13 35  1  0  0  0  0
 14 15  1  0  0  0  0
 14 36  1  0  0  0  0
 14 37  1  0  0  0  0
 15 16  1  0  0  0  0
 15 38  1  0  0  0  0
 16 17  2  0  0  0  0
 16 18  1  0  0  0  0
 18 39  1  0  0  0  0
 18 40  1  0  0  0  0
 19 20  1  0  0  0  0
 20 21  2  0  0  0  0
 20 41  1  0  0  0  0
 21 22  1  0  0  0  0
 22 42  1  0  0  0  0
 22 43  1  0  0  0  0
 22 44  1  0  0  0  0
M  CHG  1   5   1
M  CHG  1  12   1
M  END
> <s_m_source_file>
AV-unprocessed.smi

> <i_m_source_file_index>
1056

> <i_lp_mmshare_version>
43012

> <i_f3d_flags>
0

> <s_epik_input>
W0NIM11jKFtjSF0xKWMoW0NIM10pW2NIXWMoYzEyKW4oW2NIXW4yKVtDSDJdW0NASF0oW09IXSlbQ0gyXU4zW0NIMl1bQ0gyXVtOSF1DKD1PKVtDSDJdMw==

> <s_epik_cmdline>
J2VwaWtfcHl0aG9uJywgJy1waCcsICc3LjAnLCAnLXRuJywgJzgnLCAnLW1hJywgJzIwMCcsICctbWV0YWxfYmluZGluZycsICctaW1hZScsICc8aW5maWxlLm1hZT4nLCAnLW9tYWUnLCAnPG91dGZpbGUubWFlPic=

> <r_epik_Ionization_Penalty>
1.262

> <r_epik_Ionization_Penalty_Charging>
1.26188

> <r_epik_Ionization_Penalty_Neutral>
0.000125436

> <r_epik_State_Penalty>
1.3387

> <r_epik_Charging_Adjusted_Penalty>
2.60058

> <i_epik_Tot_Q>
2

> <i_epik_Tot_abs_Q>
2

> <r_epik_Metal_State_Penalty>
1.58938

> <b_epik_Metal_Only>
0

> <s_lp_Force_Field>
OPLS_2005

> <r_lp_Energy>
35.3013

> <b_lp_Chiralities_Consistent>
1

> <s_lp_Variant>
AV-unprocessed.smi:1056-7

> <Gold.Version>
5.8.1

> <Gold.Id.Protein>
6NUR|6NUR_protein|mol2

> <Gold.PLP.Fitness>
52.0648

> <Gold.PLP.PLP>
-41.8979

> <Gold.PLP.part.hbond>
-1.9399

> <Gold.PLP.part.metal>
0.0000

> <Gold.PLP.part.buried>
-4.5856

> <Gold.PLP.part.nonpolar>
-34.8103

> <Gold.PLP.part.repulsive>
0.1609

> <Gold.PLP.ligand.clash>
0.0000

> <Gold.PLP.ligand.torsion>
0.9335

> <Gold.PLP.Chemscore.Hbond>
4.0000

> <Gold.PLP.Chemscore.CHOScore>
0.0000

> <Gold.PLP.Chemscore.Metal>
0.0000

> <Gold.Chemscore.Hbonds>
donor molecule, donor type, donor heavy atom, donor atom, acceptor molecule, acceptor atom, score
      L1  H     5    46       P1  8028  2.00
      L1  H    12    45       P1  7948  2.00

> <Gold.PLP.Chemscore.Internal.Correction>
0.0340

> <Gold.Rescore>
     Score         DG    S(hbond)    S(metal)    S(lipo)     H(rot)  DE(clash)    DE(int)     intcor
     17.59     -18.67       1.94        0.00     110.56       2.44       0.09       0.99       ----

> <Gold.Chemscore.Fitness>
17.5911

> <Gold.Chemscore.DG>
-18.6685

> <Gold.Chemscore.ZeroCoef>
-5.4800

> <Gold.Chemscore.Hbond>
1.9426

> <Gold.Chemscore.Metal>
0.0000

> <Gold.Chemscore.Lipo>
110.5613

> <Gold.Chemscore.Internal_Hbond>
0.0000

> <Gold.Chemscore.DEClash>
0.0905

> <Gold.Chemscore.DEInternal>
0.9869

> <Gold.Chemscore.Rot>
2.4357

> <Gold.Chemscore.Internal.Correction>
   9.000000E+99

> <Gold.Chemscore.Hbonds>
donor molecule, donor type, donor heavy atom, donor atom, acceptor molecule, acceptor atom, score
      L1  H     5    46       P1  8028  0.98
      L1  H    12    45       P1  7948  0.74

> <Gold.Chemscore.Hbond.Weighted>
-6.4882

> <Gold.Chemscore.Metal.Weighted>
-0.0000

> <Gold.Chemscore.Lipo.Weighted>
-12.9357

> <Gold.Chemscore.Internal_Hbond.Weighted>
0.0000

> <Gold.Chemscore.DEClash.Weighted>
0.0905

> <Gold.Chemscore.DEInternal.Weighted>
0.9869

> <Gold.Chemscore.Rot.Weighted>
6.2353

> <Gold.Chemscore.Internal.Correction.Weighted>
   9.000000E+99

> <Gold.Protein.RotatedTorsions>
[ 6907 6896 6895 6894 ] final   17.52 input  -60.11 | X-H torsion
[ 7974 7965 7964 7962 ] final  158.12 input  175.53 | X-H torsion
[ 8008 7997 7996 7995 ] final   39.74 input   59.86 | X-H torsion
[ 10167 10162 10161 10158 ] final   16.96 input  -65.29 | X-H torsion
[ 10718 10713 10712 10709 ] final -174.79 input   66.30 | X-H torsion
[ 10763 10752 10751 10750 ] final -107.77 input  -60.55 | X-H torsion
[ 11005 11000 10999 10996 ] final  -56.72 input  -57.11 | X-H torsion

> <Gold.Protein.ActiveResidues>
 VAL166  LYS551  ARG553  GLY616  TRP617  ASP618  TYR619  PRO620  LYS621  CYS622 
 ASP623  PHE694  ASN695  SER759  ASP760  ASP761  ALA762  ILE779  LEU786  VAL792 
 PHE793  MET794  SER795  GLU796  ALA797  LYS798  CYS799  TRP800  GLU811  SER814 

> <Gold.Protein.RotatedAtoms>
  151.8510  135.0558  160.0458 H   0  0  0  0  0  0  0  0  0  0  0  0  # atno 6907 bound_to 6896
  152.2736  133.5401  159.5463 H   0  0  0  0  0  0  0  0  0  0  0  0  # atno 6908 bound_to 6896
  150.7161  134.0579  159.3863 H   0  0  0  0  0  0  0  0  0  0  0  0  # atno 6909 bound_to 6896
  144.7864  139.7435  143.6239 H   0  0  0  0  0  0  0  0  0  0  0  0  # atno 7974 bound_to 7965
  155.2416  140.3346  155.4291 H   0  0  0  0  0  0  0  0  0  0  0  0  # atno 8008 bound_to 7997
  156.2253  140.1826  156.7423 H   0  0  0  0  0  0  0  0  0  0  0  0  # atno 8009 bound_to 7997
  154.5889  140.0641  156.9196 H   0  0  0  0  0  0  0  0  0  0  0  0  # atno 8010 bound_to 7997
  140.5760  143.9071  150.6751 H   0  0  0  0  0  0  0  0  0  0  0  0  # atno 10167 bound_to 10162
  156.7902  130.9515  151.3120 H   0  0  0  0  0  0  0  0  0  0  0  0  # atno 10718 bound_to 10713
  154.8095  135.4662  154.0480 H   0  0  0  0  0  0  0  0  0  0  0  0  # atno 10763 bound_to 10752
  153.1922  135.6857  153.8345 H   0  0  0  0  0  0  0  0  0  0  0  0  # atno 10764 bound_to 10752
  153.7859  135.3250  155.3349 H   0  0  0  0  0  0  0  0  0  0  0  0  # atno 10765 bound_to 10752
  141.1133  133.6610  156.4662 H   0  0  0  0  0  0  0  0  0  0  0  0  # atno 11005 bound_to 11000
  146.2097  139.5445  142.9689 LP  0  0  0  0  0  0  0  0  0  0  0  0  # atno 17320 bound_to 7965
  145.5911  141.0369  143.2069 LP  0  0  0  0  0  0  0  0  0  0  0  0  # atno 17321 bound_to 7965
  140.2558  143.3559  152.1366 LP  0  0  0  0  0  0  0  0  0  0  0  0  # atno 17342 bound_to 10162
  139.5143  144.6946  151.5666 LP  0  0  0  0  0  0  0  0  0  0  0  0  # atno 17343 bound_to 10162
  157.6604  130.8961  149.9818 LP  0  0  0  0  0  0  0  0  0  0  0  0  # atno 17370 bound_to 10713
  156.1163  130.3647  149.9962 LP  0  0  0  0  0  0  0  0  0  0  0  0  # atno 17371 bound_to 10713
  140.4716  134.6748  157.5131 LP  0  0  0  0  0  0  0  0  0  0  0  0  # atno 17394 bound_to 11000
  140.0039  134.6793  155.9486 LP  0  0  0  0  0  0  0  0  0  0  0  0  # atno 17395 bound_to 11000

$$$$
