AV-unprocessed.smi:3323|AV-procd|sdf|12778|dock4
  -GOLD-   2272019123D 1   1.00000     0.00000
 Structure written by MMmdl.
 37 38  0  0  0  0  0  0  0  0  1 V2000
  151.6309  138.7688  154.9277 C   0  0  0  0  0  0  0  0  0  0  0  0
  150.4440  139.4299  154.2180 C   0  0  1  0  0  0  0  0  0  0  0  0
  149.1898  138.5361  154.2326 C   0  0  0  0  0  0  0  0  0  0  0  0
  147.9947  139.2550  153.5799 C   0  0  1  0  0  0  0  0  0  0  0  0
  146.6930  138.4289  153.6379 C   0  0  0  0  0  0  0  0  0  0  0  0
  146.7820  137.1915  152.8694 N   0  0  0  0  0  0  0  0  0  0  0  0
  145.7667  136.3451  152.6487 C   0  0  0  0  0  0  0  0  0  0  0  0
  144.6310  136.5199  153.0893 O   0  0  0  0  0  0  0  0  0  0  0  0
  146.1649  135.2995  151.9037 N   0  0  0  0  0  0  0  0  0  0  0  0
  145.4151  134.1721  151.4699 C   0  0  0  0  0  0  0  0  0  0  0  0
  145.9128  133.1505  150.6246 C   0  0  0  0  0  0  0  0  0  0  0  0
  145.0638  132.0819  150.2778 C   0  0  0  0  0  0  0  0  0  0  0  0
  143.7532  132.0684  150.7927 C   0  0  0  0  0  0  0  0  0  0  0  0
  143.2697  133.0274  151.6099 N   0  0  0  0  0  0  0  0  0  0  0  0
  144.0894  134.0487  151.9378 C   0  0  0  0  0  0  0  0  0  0  0  0
  147.8162  140.6251  154.2524 C   0  0  0  0  0  0  0  0  0  0  0  0
  149.1346  141.4149  154.2436 C   0  0  0  0  0  0  0  0  0  0  0  0
  150.1588  140.6586  154.8801 O   0  0  0  0  0  0  0  0  0  0  0  0
  151.8974  137.8254  154.4507 H   0  0  0  0  0  0  0  0  0  0  0  0
  151.4014  138.5628  155.9736 H   0  0  0  0  0  0  0  0  0  0  0  0
  152.5096  139.4136  154.9000 H   0  0  0  0  0  0  0  0  0  0  0  0
  150.7315  139.6400  153.1862 H   0  0  0  0  0  0  0  0  0  0  0  0
  149.4029  137.6023  153.7112 H   0  0  0  0  0  0  0  0  0  0  0  0
  148.9410  138.2698  155.2609 H   0  0  0  0  0  0  0  0  0  0  0  0
  148.2393  139.4312  152.5312 H   0  0  0  0  0  0  0  0  0  0  0  0
  146.4651  138.1658  154.6712 H   0  0  0  0  0  0  0  0  0  0  0  0
  145.8503  139.0232  153.2809 H   0  0  0  0  0  0  0  0  0  0  0  0
  147.6830  136.9669  152.4733 H   0  0  0  0  0  0  0  0  0  0  0  0
  147.1455  135.2787  151.6651 H   0  0  0  0  0  0  0  0  0  0  0  0
  146.9221  133.1545  150.2446 H   0  0  0  0  0  0  0  0  0  0  0  0
  145.4112  131.2882  149.6331 H   0  0  0  0  0  0  0  0  0  0  0  0
  143.0765  131.2637  150.5453 H   0  0  0  0  0  0  0  0  0  0  0  0
  143.6692  134.7974  152.5937 H   0  0  0  0  0  0  0  0  0  0  0  0
  147.0388  141.1965  153.7443 H   0  0  0  0  0  0  0  0  0  0  0  0
  147.4832  140.4919  155.2826 H   0  0  0  0  0  0  0  0  0  0  0  0
  149.4319  141.6663  153.2243 H   0  0  0  0  0  0  0  0  0  0  0  0
  149.0096  142.3562  154.7789 H   0  0  0  0  0  0  0  0  0  0  0  0
  1  2  1  0  0  0  0
  1 19  1  0  0  0  0
  1 20  1  0  0  0  0
  1 21  1  0  0  0  0
  2 18  1  0  0  0  0
  2  3  1  0  0  0  0
  2 22  1  0  0  0  0
  3  4  1  0  0  0  0
  3 23  1  0  0  0  0
  3 24  1  0  0  0  0
  4  5  1  0  0  0  0
  4 16  1  0  0  0  0
  4 25  1  0  0  0  0
  5  6  1  0  0  0  0
  5 26  1  0  0  0  0
  5 27  1  0  0  0  0
  6  7  1  0  0  0  0
  6 28  1  0  0  0  0
  7  8  2  0  0  0  0
  7  9  1  0  0  0  0
  9 10  1  0  0  0  0
  9 29  1  0  0  0  0
 10 15  1  0  0  0  0
 10 11  2  0  0  0  0
 11 12  1  0  0  0  0
 11 30  1  0  0  0  0
 12 13  2  0  0  0  0
 12 31  1  0  0  0  0
 13 14  1  0  0  0  0
 13 32  1  0  0  0  0
 14 15  2  0  0  0  0
 15 33  1  0  0  0  0
 16 17  1  0  0  0  0
 16 34  1  0  0  0  0
 16 35  1  0  0  0  0
 17 18  1  0  0  0  0
 17 36  1  0  0  0  0
 17 37  1  0  0  0  0
M  END
> <s_m_source_file>
AV-unprocessed.smi

> <i_m_source_file_index>
3323

> <i_lp_mmshare_version>
43012

> <i_f3d_flags>
0

> <s_epik_input>
W0NIM11bQ0BASF0xW0NIMl1bQ0BIXShbQ0gyXVtDSDJdTzEpW0NIMl1bTkhdQyg9TylbTkhdYzJbY0hdW2NIXVtjSF1uW2NIXTI=

> <s_epik_cmdline>
J2VwaWtfcHl0aG9uJywgJy1waCcsICc3LjAnLCAnLXRuJywgJzgnLCAnLW1hJywgJzIwMCcsICctbWV0YWxfYmluZGluZycsICctaW1hZScsICc8aW5maWxlLm1hZT4nLCAnLW9tYWUnLCAnPG91dGZpbGUubWFlPic=

> <r_epik_Ionization_Penalty>
0.00485293

> <r_epik_Ionization_Penalty_Charging>
0

> <r_epik_Ionization_Penalty_Neutral>
0.00485293

> <r_epik_State_Penalty>
0.00349083

> <r_epik_Charging_Adjusted_Penalty>
0.00349083

> <i_epik_Tot_Q>
0

> <i_epik_Tot_abs_Q>
0

> <r_epik_Metal_State_Penalty>
-0

> <b_epik_Metal_Only>
0

> <s_lp_Force_Field>
OPLS_2005

> <r_lp_Energy>
10.9361

> <b_lp_Chiralities_Consistent>
1

> <s_lp_Variant>
AV-unprocessed.smi:3323-2

> <Gold.Version>
5.8.1

> <Gold.Id.Protein>
6NUR|6NUR_protein|mol2

> <Gold.PLP.Fitness>
41.0935

> <Gold.PLP.PLP>
-32.3498

> <Gold.PLP.part.hbond>
-2.8713

> <Gold.PLP.part.metal>
0.0000

> <Gold.PLP.part.buried>
-3.5665

> <Gold.PLP.part.nonpolar>
-26.4630

> <Gold.PLP.part.repulsive>
0.6031

> <Gold.PLP.ligand.clash>
0.0000

> <Gold.PLP.ligand.torsion>
0.0392

> <Gold.PLP.Chemscore.Hbond>
1.9440

> <Gold.PLP.Chemscore.CHOScore>
0.9956

> <Gold.PLP.Chemscore.Metal>
0.0000

> <Gold.Chemscore.Hbonds>
donor molecule, donor type, donor heavy atom, donor atom, acceptor molecule, acceptor atom, score
      L1  H     6    28       P1  7948  1.00
      L1  H     9    29       P1  7948  0.94
      L1  C    13    32       P1 10952  0.77

> <Gold.PLP.Chemscore.Internal.Correction>
0.0033

> <Gold.Rescore>
     Score         DG    S(hbond)    S(metal)    S(lipo)     H(rot)  DE(clash)    DE(int)     intcor
     17.53     -19.02       1.91        0.00      88.12       1.23       0.04       1.46       ----

> <Gold.Chemscore.Fitness>
17.5295

> <Gold.Chemscore.DG>
-19.0233

> <Gold.Chemscore.ZeroCoef>
-5.4800

> <Gold.Chemscore.Hbond>
1.9088

> <Gold.Chemscore.Metal>
0.0000

> <Gold.Chemscore.Lipo>
88.1184

> <Gold.Chemscore.Internal_Hbond>
0.0000

> <Gold.Chemscore.DEClash>
0.0370

> <Gold.Chemscore.DEInternal>
1.4568

> <Gold.Chemscore.Rot>
1.2273

> <Gold.Chemscore.Internal.Correction>
   9.000000E+99

> <Gold.Chemscore.Hbonds>
donor molecule, donor type, donor heavy atom, donor atom, acceptor molecule, acceptor atom, score
      L1  H     6    28       P1  7948  0.98
      L1  H     9    29       P1  7948  0.84

> <Gold.Chemscore.Hbond.Weighted>
-6.3753

> <Gold.Chemscore.Metal.Weighted>
-0.0000

> <Gold.Chemscore.Lipo.Weighted>
-10.3099

> <Gold.Chemscore.Internal_Hbond.Weighted>
0.0000

> <Gold.Chemscore.DEClash.Weighted>
0.0370

> <Gold.Chemscore.DEInternal.Weighted>
1.4568

> <Gold.Chemscore.Rot.Weighted>
3.1418

> <Gold.Chemscore.Internal.Correction.Weighted>
   9.000000E+99

> <Gold.Protein.RotatedTorsions>
[ 6907 6896 6895 6894 ] final -149.02 input  -60.11 | X-H torsion
[ 7974 7965 7964 7962 ] final -113.01 input  175.53 | X-H torsion
[ 8008 7997 7996 7995 ] final   21.19 input   59.86 | X-H torsion
[ 10167 10162 10161 10158 ] final -153.88 input  -65.29 | X-H torsion
[ 10718 10713 10712 10709 ] final -130.39 input   66.30 | X-H torsion
[ 10763 10752 10751 10750 ] final -146.68 input  -60.55 | X-H torsion
[ 11005 11000 10999 10996 ] final  -30.90 input  -57.11 | X-H torsion

> <Gold.Protein.ActiveResidues>
 VAL166  LYS551  ARG553  GLY616  TRP617  ASP618  TYR619  PRO620  LYS621  CYS622 
 ASP623  PHE694  ASN695  SER759  ASP760  ASP761  ALA762  ILE779  LEU786  VAL792 
 PHE793  MET794  SER795  GLU796  ALA797  LYS798  CYS799  TRP800  GLU811  SER814 

> <Gold.Protein.RotatedAtoms>
  151.1781  133.4742  159.2593 H   0  0  0  0  0  0  0  0  0  0  0  0  # atno 6907 bound_to 6896
  151.1287  135.0118  159.8582 H   0  0  0  0  0  0  0  0  0  0  0  0  # atno 6908 bound_to 6896
  152.5459  134.1685  159.8640 H   0  0  0  0  0  0  0  0  0  0  0  0  # atno 6909 bound_to 6896
  145.1372  140.8757  143.3723 H   0  0  0  0  0  0  0  0  0  0  0  0  # atno 7974 bound_to 7965
  154.9469  140.3060  155.5093 H   0  0  0  0  0  0  0  0  0  0  0  0  # atno 8008 bound_to 7997
  156.2991  140.2326  156.4481 H   0  0  0  0  0  0  0  0  0  0  0  0  # atno 8009 bound_to 7997
  154.8091  140.0429  157.1318 H   0  0  0  0  0  0  0  0  0  0  0  0  # atno 8010 bound_to 7997
  139.7060  143.9186  152.2449 H   0  0  0  0  0  0  0  0  0  0  0  0  # atno 10167 bound_to 10162
  156.2140  130.6936  151.0681 H   0  0  0  0  0  0  0  0  0  0  0  0  # atno 10718 bound_to 10713
  154.8324  135.3380  154.6700 H   0  0  0  0  0  0  0  0  0  0  0  0  # atno 10763 bound_to 10752
  153.7318  135.6951  153.4992 H   0  0  0  0  0  0  0  0  0  0  0  0  # atno 10764 bound_to 10752
  153.2307  135.4417  155.0543 H   0  0  0  0  0  0  0  0  0  0  0  0  # atno 10765 bound_to 10752
  140.9422  133.7271  156.1093 H   0  0  0  0  0  0  0  0  0  0  0  0  # atno 11005 bound_to 11000
  145.0572  139.3134  143.5899 LP  0  0  0  0  0  0  0  0  0  0  0  0  # atno 17320 bound_to 7965
  146.3508  140.0001  142.8677 LP  0  0  0  0  0  0  0  0  0  0  0  0  # atno 17321 bound_to 7965
  139.9041  144.6894  150.8633 LP  0  0  0  0  0  0  0  0  0  0  0  0  # atno 17342 bound_to 10162
  140.7722  143.3491  151.2050 LP  0  0  0  0  0  0  0  0  0  0  0  0  # atno 17343 bound_to 10162
  157.7053  131.0759  150.6687 LP  0  0  0  0  0  0  0  0  0  0  0  0  # atno 17370 bound_to 10713
  156.6747  130.4550  149.5646 LP  0  0  0  0  0  0  0  0  0  0  0  0  # atno 17371 bound_to 10713
  140.7718  134.3824  157.5506 LP  0  0  0  0  0  0  0  0  0  0  0  0  # atno 17394 bound_to 11000
  139.8823  134.9027  156.2838 LP  0  0  0  0  0  0  0  0  0  0  0  0  # atno 17395 bound_to 11000

$$$$
