AV-unprocessed.smi:2194|AV-procd|sdf|8903|dock5
  -GOLD-   2272012113D 1   1.00000     0.00000
 Structure written by MMmdl.
 45 47  0  0  0  0  0  0  0  0  1 V2000
  151.4540  145.7973  159.9936 C   0  0  0  0  0  0  0  0  0  0  0  0
  151.2808  144.3531  159.5709 C   0  0  0  0  0  0  0  0  0  0  0  0
  150.3780  144.0169  158.5428 C   0  0  0  0  0  0  0  0  0  0  0  0
  150.2213  142.6731  158.1522 C   0  0  0  0  0  0  0  0  0  0  0  0
  150.9605  141.6477  158.7770 C   0  0  0  0  0  0  0  0  0  0  0  0
  150.7446  140.3609  158.3323 O   0  0  0  0  0  0  0  0  0  0  0  0
  151.3705  139.2934  159.0319 C   0  0  0  0  0  0  0  0  0  0  0  0
  150.7383  137.9658  158.5887 C   0  0  1  0  0  0  0  0  0  0  0  0
  151.3701  136.9156  159.2939 O   0  0  0  0  0  0  0  0  0  0  0  0
  149.2146  137.9328  158.8256 C   0  0  0  0  0  0  0  0  0  0  0  0
  148.6354  136.6240  158.5614 N   0  0  0  0  0  0  0  0  0  0  0  0
  148.7697  135.9145  157.4227 C   0  0  0  0  0  0  0  0  0  0  0  0
  148.1563  134.7309  157.4063 N   0  0  0  0  0  0  0  0  0  0  0  0
  147.5716  134.6879  158.6675 C   0  0  0  0  0  0  0  0  0  0  0  0
  147.8448  135.8120  159.3746 C   0  0  0  0  0  0  0  0  0  0  0  0
  147.3609  136.0311  160.7422 C   0  0  0  0  0  0  0  0  0  0  0  0
  147.6319  137.0592  161.3641 O   0  0  0  0  0  0  0  0  0  0  0  0
  146.6069  135.0009  161.2381 N   0  0  0  0  0  0  0  0  0  0  0  0
  146.0971  135.1629  162.6132 C   0  0  0  0  0  0  0  0  0  0  0  0
  146.3238  133.8243  160.5647 C   0  0  0  0  0  0  0  0  0  0  0  0
  145.6785  132.9170  161.0971 O   0  0  0  0  0  0  0  0  0  0  0  0
  146.7837  133.6790  159.2794 N   0  0  0  0  0  0  0  0  0  0  0  0
  146.4858  132.4559  158.5287 C   0  0  0  0  0  0  0  0  0  0  0  0
  151.8697  141.9935  159.8087 C   0  0  0  0  0  0  0  0  0  0  0  0
  152.0267  143.3373  160.2005 C   0  0  0  0  0  0  0  0  0  0  0  0
  150.5541  146.3764  159.7840 H   0  0  0  0  0  0  0  0  0  0  0  0
  152.2873  146.2494  159.4553 H   0  0  0  0  0  0  0  0  0  0  0  0
  151.6577  145.8661  161.0628 H   0  0  0  0  0  0  0  0  0  0  0  0
  149.8029  144.7873  158.0502 H   0  0  0  0  0  0  0  0  0  0  0  0
  149.5257  142.4267  157.3633 H   0  0  0  0  0  0  0  0  0  0  0  0
  152.4367  139.2872  158.7985 H   0  0  0  0  0  0  0  0  0  0  0  0
  151.2606  139.4186  160.1106 H   0  0  0  0  0  0  0  0  0  0  0  0
  150.9432  137.8113  157.5285 H   0  0  0  0  0  0  0  0  0  0  0  0
  152.2074  136.7440  158.8904 H   0  0  0  0  0  0  0  0  0  0  0  0
  148.9681  138.2438  159.8399 H   0  0  0  0  0  0  0  0  0  0  0  0
  148.7254  138.6531  158.1688 H   0  0  0  0  0  0  0  0  0  0  0  0
  149.3400  136.2763  156.5798 H   0  0  0  0  0  0  0  0  0  0  0  0
  145.2327  134.5383  162.8415 H   0  0  0  0  0  0  0  0  0  0  0  0
  145.7710  136.1852  162.8127 H   0  0  0  0  0  0  0  0  0  0  0  0
  146.8808  134.9161  163.3307 H   0  0  0  0  0  0  0  0  0  0  0  0
  145.4121  132.2629  158.5121 H   0  0  0  0  0  0  0  0  0  0  0  0
  146.9798  131.5987  158.9880 H   0  0  0  0  0  0  0  0  0  0  0  0
  146.8159  132.5072  157.4912 H   0  0  0  0  0  0  0  0  0  0  0  0
  152.4607  141.2461  160.3158 H   0  0  0  0  0  0  0  0  0  0  0  0
  152.7238  143.5857  160.9875 H   0  0  0  0  0  0  0  0  0  0  0  0
  1  2  1  0  0  0  0
  1 26  1  0  0  0  0
  1 27  1  0  0  0  0
  1 28  1  0  0  0  0
  2 25  1  0  0  0  0
  2  3  2  0  0  0  0
  3  4  1  0  0  0  0
  3 29  1  0  0  0  0
  4  5  2  0  0  0  0
  4 30  1  0  0  0  0
  5  6  1  0  0  0  0
  5 24  1  0  0  0  0
  6  7  1  0  0  0  0
  7  8  1  0  0  0  0
  7 31  1  0  0  0  0
  7 32  1  0  0  0  0
  8  9  1  0  0  0  0
  8 10  1  0  0  0  0
  8 33  1  0  0  0  0
  9 34  1  0  0  0  0
 10 11  1  0  0  0  0
 10 35  1  0  0  0  0
 10 36  1  0  0  0  0
 11 15  1  0  0  0  0
 11 12  1  0  0  0  0
 12 13  2  0  0  0  0
 12 37  1  0  0  0  0
 13 14  1  0  0  0  0
 14 22  1  0  0  0  0
 14 15  2  0  0  0  0
 15 16  1  0  0  0  0
 16 17  2  0  0  0  0
 16 18  1  0  0  0  0
 18 19  1  0  0  0  0
 18 20  1  0  0  0  0
 19 38  1  0  0  0  0
 19 39  1  0  0  0  0
 19 40  1  0  0  0  0
 20 21  2  0  0  0  0
 20 22  1  0  0  0  0
 22 23  1  0  0  0  0
 23 41  1  0  0  0  0
 23 42  1  0  0  0  0
 23 43  1  0  0  0  0
 24 25  2  0  0  0  0
 24 44  1  0  0  0  0
 25 45  1  0  0  0  0
M  END
> <s_m_source_file>
AV-unprocessed.smi

> <i_m_source_file_index>
2194

> <i_lp_mmshare_version>
43012

> <i_f3d_flags>
0

> <s_epik_input>
W0NIM11jMVtjSF1bY0hdYyhbY0hdW2NIXTEpT1tDSDJdW0NASF0oW09IXSlbQ0gyXW4oW2NIXW4yKWMoYzIzKWMoPU8pbihbQ0gzXSljKD1PKW4zW0NIM10=

> <s_epik_cmdline>
J2VwaWtfcHl0aG9uJywgJy1waCcsICc3LjAnLCAnLXRuJywgJzgnLCAnLW1hJywgJzIwMCcsICctbWV0YWxfYmluZGluZycsICctaW1hZScsICc8aW5maWxlLm1hZT4nLCAnLW9tYWUnLCAnPG91dGZpbGUubWFlPic=

> <r_lp_tautomer_probability>
1

> <r_epik_Ionization_Penalty>
1.06124e-06

> <r_epik_Ionization_Penalty_Charging>
3.25921e-09

> <r_epik_Ionization_Penalty_Neutral>
1.05798e-06

> <r_epik_State_Penalty>
-0

> <r_epik_Charging_Adjusted_Penalty>
3.25921e-09

> <i_epik_Tot_Q>
0

> <i_epik_Tot_abs_Q>
0

> <r_epik_Metal_State_Penalty>
-0

> <b_epik_Metal_Only>
0

> <s_lp_Force_Field>
OPLS_2005

> <r_lp_Energy>
38.6758

> <b_lp_Chiralities_Consistent>
1

> <s_lp_Variant>
AV-unprocessed.smi:2194-2

> <Gold.Version>
5.8.1

> <Gold.Id.Protein>
6NUR|6NUR_protein|mol2

> <Gold.PLP.Fitness>
51.8815

> <Gold.PLP.PLP>
-45.7059

> <Gold.PLP.part.hbond>
-2.8294

> <Gold.PLP.part.metal>
0.0000

> <Gold.PLP.part.buried>
-6.0866

> <Gold.PLP.part.nonpolar>
-37.7839

> <Gold.PLP.part.repulsive>
0.0114

> <Gold.PLP.ligand.clash>
0.0000

> <Gold.PLP.ligand.torsion>
0.1520

> <Gold.PLP.Chemscore.Hbond>
2.1539

> <Gold.PLP.Chemscore.CHOScore>
0.0000

> <Gold.PLP.Chemscore.Metal>
0.0000

> <Gold.Chemscore.Hbonds>
donor molecule, donor type, donor heavy atom, donor atom, acceptor molecule, acceptor atom, score
      P1  H  6896  6909       L1     9  0.35
      P1  H  6931  6943       L1    17  1.00
      P1  H  6934  6947       L1    17  0.81

> <Gold.PLP.Chemscore.Internal.Correction>
0.0179

> <Gold.Rescore>
     Score         DG    S(hbond)    S(metal)    S(lipo)     H(rot)  DE(clash)    DE(int)     intcor
     17.69     -18.10       2.37        0.00      99.05       2.69       0.08       0.34       ----

> <Gold.Chemscore.Fitness>
17.6892

> <Gold.Chemscore.DG>
-18.1022

> <Gold.Chemscore.ZeroCoef>
-5.4800

> <Gold.Chemscore.Hbond>
2.3700

> <Gold.Chemscore.Metal>
0.0000

> <Gold.Chemscore.Lipo>
99.0509

> <Gold.Chemscore.Internal_Hbond>
0.0000

> <Gold.Chemscore.DEClash>
0.0762

> <Gold.Chemscore.DEInternal>
0.3367

> <Gold.Chemscore.Rot>
2.6885

> <Gold.Chemscore.Internal.Correction>
   9.000000E+99

> <Gold.Chemscore.Hbonds>
donor molecule, donor type, donor heavy atom, donor atom, acceptor molecule, acceptor atom, score
      P1  H  6896  6909       L1     9  0.01
      P1  H  6931  6943       L1    17  0.95
      P1  H  6934  6947       L1    17  0.76

> <Gold.Chemscore.Hbond.Weighted>
-7.9158

> <Gold.Chemscore.Metal.Weighted>
-0.0000

> <Gold.Chemscore.Lipo.Weighted>
-11.5890

> <Gold.Chemscore.Internal_Hbond.Weighted>
0.0000

> <Gold.Chemscore.DEClash.Weighted>
0.0762

> <Gold.Chemscore.DEInternal.Weighted>
0.3367

> <Gold.Chemscore.Rot.Weighted>
6.8825

> <Gold.Chemscore.Internal.Correction.Weighted>
   9.000000E+99

> <Gold.Protein.RotatedTorsions>
[ 6907 6896 6895 6894 ] final  113.03 input  -60.11 | X-H torsion
[ 7974 7965 7964 7962 ] final  164.78 input  175.53 | X-H torsion
[ 8008 7997 7996 7995 ] final -109.85 input   59.86 | X-H torsion
[ 10167 10162 10161 10158 ] final  -88.03 input  -65.29 | X-H torsion
[ 10718 10713 10712 10709 ] final   71.59 input   66.30 | X-H torsion
[ 10763 10752 10751 10750 ] final -172.11 input  -60.55 | X-H torsion
[ 11005 11000 10999 10996 ] final -131.09 input  -57.11 | X-H torsion

> <Gold.Protein.ActiveResidues>
 VAL166  LYS551  ARG553  GLY616  TRP617  ASP618  TYR619  PRO620  LYS621  CYS622 
 ASP623  PHE694  ASN695  SER759  ASP760  ASP761  ALA762  ILE779  LEU786  VAL792 
 PHE793  MET794  SER795  GLU796  ALA797  LYS798  CYS799  TRP800  GLU811  SER814 

> <Gold.Protein.RotatedAtoms>
  152.4884  133.8433  159.7163 H   0  0  0  0  0  0  0  0  0  0  0  0  # atno 6907 bound_to 6896
  150.8990  133.7134  159.2890 H   0  0  0  0  0  0  0  0  0  0  0  0  # atno 6908 bound_to 6896
  151.4581  135.1040  159.9769 H   0  0  0  0  0  0  0  0  0  0  0  0  # atno 6909 bound_to 6896
  144.7530  139.8376  143.6359 H   0  0  0  0  0  0  0  0  0  0  0  0  # atno 7974 bound_to 7965
  154.9655  140.0398  157.2210 H   0  0  0  0  0  0  0  0  0  0  0  0  # atno 8008 bound_to 7997
  154.7849  140.2825  155.6013 H   0  0  0  0  0  0  0  0  0  0  0  0  # atno 8009 bound_to 7997
  156.2941  140.2584  156.2683 H   0  0  0  0  0  0  0  0  0  0  0  0  # atno 8010 bound_to 7997
  140.3787  143.2759  151.9411 H   0  0  0  0  0  0  0  0  0  0  0  0  # atno 10167 bound_to 10162
  157.6459  130.9536  150.0810 H   0  0  0  0  0  0  0  0  0  0  0  0  # atno 10718 bound_to 10713
  154.6230  135.2877  155.0305 H   0  0  0  0  0  0  0  0  0  0  0  0  # atno 10763 bound_to 10752
  154.1493  135.6506  153.4963 H   0  0  0  0  0  0  0  0  0  0  0  0  # atno 10764 bound_to 10752
  153.0244  135.5351  154.7027 H   0  0  0  0  0  0  0  0  0  0  0  0  # atno 10765 bound_to 10752
  140.9289  134.1346  157.4251 H   0  0  0  0  0  0  0  0  0  0  0  0  # atno 11005 bound_to 11000
  146.1505  139.4587  143.0051 LP  0  0  0  0  0  0  0  0  0  0  0  0  # atno 17320 bound_to 7965
  145.6877  141.0173  143.1572 LP  0  0  0  0  0  0  0  0  0  0  0  0  # atno 17321 bound_to 7965
  139.4797  144.5839  151.7886 LP  0  0  0  0  0  0  0  0  0  0  0  0  # atno 17342 bound_to 10162
  140.4959  144.1240  150.5960 LP  0  0  0  0  0  0  0  0  0  0  0  0  # atno 17343 bound_to 10162
  156.1786  130.3649  149.9066 LP  0  0  0  0  0  0  0  0  0  0  0  0  # atno 17370 bound_to 10713
  156.7024  130.8938  151.3601 LP  0  0  0  0  0  0  0  0  0  0  0  0  # atno 17371 bound_to 10713
  139.8792  134.9998  156.5975 LP  0  0  0  0  0  0  0  0  0  0  0  0  # atno 17394 bound_to 11000
  140.7889  133.8599  155.8629 LP  0  0  0  0  0  0  0  0  0  0  0  0  # atno 17395 bound_to 11000

$$$$
