AV-unprocessed.smi:197|AV-procd|sdf|1548|dock6
  -GOLD-   2262019413D 1   1.00000     0.00000
 Structure written by MMmdl.
 54 57  0  0  0  0  0  0  0  0  1 V2000
  152.2346  142.8196  160.1067 C   0  0  0  0  0  0  0  0  0  0  0  0
  151.3613  141.8293  159.5863 O   0  0  0  0  0  0  0  0  0  0  0  0
  150.5064  142.2896  158.5475 C   0  0  0  0  0  0  0  0  0  0  0  0
  149.7214  141.1423  157.8831 C   0  0  0  0  0  0  0  0  0  0  0  0
  150.6121  140.0416  157.2477 C   0  0  2  0  0  0  0  0  0  0  0  0
  151.8109  140.6587  156.4888 C   0  0  0  0  0  0  0  0  0  0  0  0
  152.5998  139.6398  155.8847 O   0  0  0  0  0  0  0  0  0  0  0  0
  151.8601  138.8923  154.9289 C   0  0  0  0  0  0  0  0  0  0  0  0
  150.6927  138.1950  155.6393 C   0  0  0  0  0  0  0  0  0  0  0  0
  149.8619  139.1760  156.3276 N   0  0  0  0  0  0  0  0  0  0  0  0
  148.7423  138.5938  156.8139 C   0  0  0  0  0  0  0  0  0  0  0  0
  147.5668  138.9520  156.2418 N   0  0  0  0  0  0  0  0  0  0  0  0
  146.4210  138.4255  156.6840 C   0  0  0  0  0  0  0  0  0  0  0  0
  146.2322  137.5401  157.6646 N   0  0  0  0  0  0  0  0  0  0  0  0
  147.4151  137.1652  158.2310 C   0  0  0  0  0  0  0  0  0  0  0  0
  148.7081  137.6380  157.8697 C   0  0  0  0  0  0  0  0  0  0  0  0
  149.6725  137.0322  158.6660 N   0  0  0  0  0  0  0  0  0  0  0  0
  148.9880  136.2575  159.4620 C   0  0  0  0  0  0  0  0  0  0  0  0
  147.6258  136.2659  159.2622 N   0  0  0  0  0  0  0  0  0  0  0  0
  146.6319  135.5045  160.0045 C   0  0  0  0  0  0  0  0  0  0  0  0
  146.3292  136.0528  161.4256 C   0  0  1  0  0  0  0  0  0  0  0  0
  146.1799  137.4596  161.3437 O   0  0  0  0  0  0  0  0  0  0  0  0
  145.0695  135.4678  162.0584 C   0  0  0  0  0  0  0  0  0  0  0  0
  145.5987  134.2171  162.7400 C   0  0  0  0  0  0  0  0  0  0  0  0
  146.8286  134.6547  163.2931 O   0  0  0  0  0  0  0  0  0  0  0  0
  147.4301  135.6221  162.4328 C   0  0  2  0  0  0  0  0  0  0  0  0
  148.0012  136.7346  163.3284 C   0  0  0  0  0  0  0  0  0  0  0  0
  152.8783  142.3716  160.8633 H   0  0  0  0  0  0  0  0  0  0  0  0
  151.6909  143.6362  160.5811 H   0  0  0  0  0  0  0  0  0  0  0  0
  152.8741  143.2317  159.3252 H   0  0  0  0  0  0  0  0  0  0  0  0
  149.8218  143.0475  158.9310 H   0  0  0  0  0  0  0  0  0  0  0  0
  151.1213  142.7978  157.8057 H   0  0  0  0  0  0  0  0  0  0  0  0
  149.0554  140.7175  158.6326 H   0  0  0  0  0  0  0  0  0  0  0  0
  149.0629  141.5566  157.1190 H   0  0  0  0  0  0  0  0  0  0  0  0
  151.0153  139.4156  158.0434 H   0  0  0  0  0  0  0  0  0  0  0  0
  151.4722  141.3643  155.7283 H   0  0  0  0  0  0  0  0  0  0  0  0
  152.4569  141.2117  157.1697 H   0  0  0  0  0  0  0  0  0  0  0  0
  151.5002  139.5450  154.1318 H   0  0  0  0  0  0  0  0  0  0  0  0
  152.5166  138.1543  154.4678 H   0  0  0  0  0  0  0  0  0  0  0  0
  150.0967  137.6421  154.9116 H   0  0  0  0  0  0  0  0  0  0  0  0
  151.0769  137.4706  156.3590 H   0  0  0  0  0  0  0  0  0  0  0  0
  145.5270  138.7622  156.1802 H   0  0  0  0  0  0  0  0  0  0  0  0
  149.4622  135.6483  160.2177 H   0  0  0  0  0  0  0  0  0  0  0  0
  145.7196  135.4756  159.4076 H   0  0  0  0  0  0  0  0  0  0  0  0
  146.9778  134.4718  160.0706 H   0  0  0  0  0  0  0  0  0  0  0  0
  145.5531  137.7328  161.9960 H   0  0  0  0  0  0  0  0  0  0  0  0
  144.6783  136.1418  162.8226 H   0  0  0  0  0  0  0  0  0  0  0  0
  144.2586  135.2653  161.3608 H   0  0  0  0  0  0  0  0  0  0  0  0
  144.9261  133.8383  163.5095 H   0  0  0  0  0  0  0  0  0  0  0  0
  145.7803  133.4207  162.0169 H   0  0  0  0  0  0  0  0  0  0  0  0
  148.2560  135.1405  161.9071 H   0  0  0  0  0  0  0  0  0  0  0  0
  148.5052  137.5000  162.7375 H   0  0  0  0  0  0  0  0  0  0  0  0
  148.7313  136.3294  164.0291 H   0  0  0  0  0  0  0  0  0  0  0  0
  147.2167  137.2175  163.9118 H   0  0  0  0  0  0  0  0  0  0  0  0
  1  2  1  0  0  0  0
  1 28  1  0  0  0  0
  1 29  1  0  0  0  0
  1 30  1  0  0  0  0
  2  3  1  0  0  0  0
  3  4  1  0  0  0  0
  3 31  1  0  0  0  0
  3 32  1  0  0  0  0
  4  5  1  0  0  0  0
  4 33  1  0  0  0  0
  4 34  1  0  0  0  0
  5 10  1  0  0  0  0
  5  6  1  0  0  0  0
  5 35  1  0  0  0  0
  6  7  1  0  0  0  0
  6 36  1  0  0  0  0
  6 37  1  0  0  0  0
  7  8  1  0  0  0  0
  8  9  1  0  0  0  0
  8 38  1  0  0  0  0
  8 39  1  0  0  0  0
  9 10  1  0  0  0  0
  9 40  1  0  0  0  0
  9 41  1  0  0  0  0
 10 11  1  0  0  0  0
 11 16  1  0  0  0  0
 11 12  2  0  0  0  0
 12 13  1  0  0  0  0
 13 14  2  0  0  0  0
 13 42  1  0  0  0  0
 14 15  1  0  0  0  0
 15 19  1  0  0  0  0
 15 16  2  0  0  0  0
 16 17  1  0  0  0  0
 17 18  2  0  0  0  0
 18 19  1  0  0  0  0
 18 43  1  0  0  0  0
 19 20  1  0  0  0  0
 20 21  1  0  0  0  0
 20 44  1  0  0  0  0
 20 45  1  0  0  0  0
 21 26  1  0  0  0  0
 21 22  1  0  0  0  0
 21 23  1  0  0  0  0
 22 46  1  0  0  0  0
 23 24  1  0  0  0  0
 23 47  1  0  0  0  0
 23 48  1  0  0  0  0
 24 25  1  0  0  0  0
 24 49  1  0  0  0  0
 24 50  1  0  0  0  0
 25 26  1  0  0  0  0
 26 27  1  0  0  0  0
 26 51  1  0  0  0  0
 27 52  1  0  0  0  0
 27 53  1  0  0  0  0
 27 54  1  0  0  0  0
M  END
> <s_m_source_file>
AV-unprocessed.smi

> <i_m_source_file_index>
197

> <i_lp_mmshare_version>
43012

> <i_f3d_flags>
0

> <s_epik_input>
W0NIM11PW0NIMl1bQ0gyXVtDQEBIXTFbQ0gyXU9bQ0gyXVtDSDJdTjFjKG5bY0hdbjIpYyhjMjMpbltjSF1uM1tDSDJdW0NAQF00KFtPSF0pW0NIMl1bQ0gyXU9bQ0BIXTRbQ0gzXQ==

> <s_epik_cmdline>
J2VwaWtfcHl0aG9uJywgJy1waCcsICc3LjAnLCAnLXRuJywgJzgnLCAnLW1hJywgJzIwMCcsICctbWV0YWxfYmluZGluZycsICctaW1hZScsICc8aW5maWxlLm1hZT4nLCAnLW9tYWUnLCAnPG91dGZpbGUubWFlPic=

> <r_lp_tautomer_probability>
1

> <r_epik_Ionization_Penalty>
0.000106218

> <r_epik_Ionization_Penalty_Charging>
0

> <r_epik_Ionization_Penalty_Neutral>
0.000106218

> <r_epik_State_Penalty>
-0

> <r_epik_Charging_Adjusted_Penalty>
0

> <i_epik_Tot_Q>
0

> <i_epik_Tot_abs_Q>
0

> <r_epik_Metal_State_Penalty>
-0

> <b_epik_Metal_Only>
0

> <s_lp_Force_Field>
OPLS_2005

> <r_lp_Energy>
44.1389

> <b_lp_Chiralities_Consistent>
1

> <s_lp_Variant>
AV-unprocessed.smi:197-5

> <Gold.Version>
5.8.1

> <Gold.Id.Protein>
6NUR|6NUR_protein|mol2

> <Gold.PLP.Fitness>
42.1043

> <Gold.PLP.PLP>
-37.0847

> <Gold.PLP.part.hbond>
-3.2113

> <Gold.PLP.part.metal>
0.0000

> <Gold.PLP.part.buried>
-6.9055

> <Gold.PLP.part.nonpolar>
-25.7287

> <Gold.PLP.part.repulsive>
0.0000

> <Gold.PLP.ligand.clash>
0.0000

> <Gold.PLP.ligand.torsion>
0.6249

> <Gold.PLP.Chemscore.Hbond>
2.0000

> <Gold.PLP.Chemscore.CHOScore>
0.0000

> <Gold.PLP.Chemscore.Metal>
0.0000

> <Gold.Chemscore.Hbonds>
donor molecule, donor type, donor heavy atom, donor atom, acceptor molecule, acceptor atom, score
      P1  H  6934  6947       L1    22  1.00
      P1  H  7997  8008       L1     7  1.00

> <Gold.PLP.Chemscore.Internal.Correction>
0.2695

> <Gold.Rescore>
     Score         DG    S(hbond)    S(metal)    S(lipo)     H(rot)  DE(clash)    DE(int)     intcor
     13.19     -13.98       1.62        0.00      88.50       2.84       0.38       0.41       ----

> <Gold.Chemscore.Fitness>
13.1915

> <Gold.Chemscore.DG>
-13.9823

> <Gold.Chemscore.ZeroCoef>
-5.4800

> <Gold.Chemscore.Hbond>
1.6191

> <Gold.Chemscore.Metal>
0.0000

> <Gold.Chemscore.Lipo>
88.4955

> <Gold.Chemscore.Internal_Hbond>
0.0000

> <Gold.Chemscore.DEClash>
0.3801

> <Gold.Chemscore.DEInternal>
0.4107

> <Gold.Chemscore.Rot>
2.8358

> <Gold.Chemscore.Internal.Correction>
   9.000000E+99

> <Gold.Chemscore.Hbonds>
donor molecule, donor type, donor heavy atom, donor atom, acceptor molecule, acceptor atom, score
      P1  H  6934  6947       L1    22  0.44
      P1  H  7997  8008       L1     7  0.63

> <Gold.Chemscore.Hbond.Weighted>
-5.4079

> <Gold.Chemscore.Metal.Weighted>
-0.0000

> <Gold.Chemscore.Lipo.Weighted>
-10.3540

> <Gold.Chemscore.Internal_Hbond.Weighted>
0.0000

> <Gold.Chemscore.DEClash.Weighted>
0.3801

> <Gold.Chemscore.DEInternal.Weighted>
0.4107

> <Gold.Chemscore.Rot.Weighted>
7.2596

> <Gold.Chemscore.Internal.Correction.Weighted>
   9.000000E+99

> <Gold.Protein.RotatedTorsions>
[ 6907 6896 6895 6894 ] final  -37.86 input  -60.11 | X-H torsion
[ 7974 7965 7964 7962 ] final  -71.99 input  175.53 | X-H torsion
[ 8008 7997 7996 7995 ] final  -16.33 input   59.86 | X-H torsion
[ 10167 10162 10161 10158 ] final  112.21 input  -65.29 | X-H torsion
[ 10718 10713 10712 10709 ] final -151.40 input   66.30 | X-H torsion
[ 10763 10752 10751 10750 ] final  -57.74 input  -60.55 | X-H torsion
[ 11005 11000 10999 10996 ] final  -95.12 input  -57.11 | X-H torsion

> <Gold.Protein.ActiveResidues>
 VAL166  LYS551  ARG553  GLY616  TRP617  ASP618  TYR619  PRO620  LYS621  CYS622 
 ASP623  PHE694  ASN695  SER759  ASP760  ASP761  ALA762  ILE779  LEU786  VAL792 
 PHE793  MET794  SER795  GLU796  ALA797  LYS798  CYS799  TRP800  GLU811  SER814 

> <Gold.Protein.RotatedAtoms>
  151.0095  134.9386  159.7998 H   0  0  0  0  0  0  0  0  0  0  0  0  # atno 6907 bound_to 6896
  152.5299  134.3047  159.9101 H   0  0  0  0  0  0  0  0  0  0  0  0  # atno 6908 bound_to 6896
  151.3053  133.4063  159.2677 H   0  0  0  0  0  0  0  0  0  0  0  0  # atno 6909 bound_to 6896
  145.6709  140.9221  143.0883 H   0  0  0  0  0  0  0  0  0  0  0  0  # atno 7974 bound_to 7965
  154.5062  140.2172  155.9247 H   0  0  0  0  0  0  0  0  0  0  0  0  # atno 8008 bound_to 7997
  156.1496  140.3164  155.8593 H   0  0  0  0  0  0  0  0  0  0  0  0  # atno 8009 bound_to 7997
  155.3965  140.0481  157.3029 H   0  0  0  0  0  0  0  0  0  0  0  0  # atno 8010 bound_to 7997
  139.6553  144.7129  151.1969 H   0  0  0  0  0  0  0  0  0  0  0  0  # atno 10167 bound_to 10162
  156.4587  130.8203  151.2434 H   0  0  0  0  0  0  0  0  0  0  0  0  # atno 10718 bound_to 10713
  154.2272  135.6367  153.5163 H   0  0  0  0  0  0  0  0  0  0  0  0  # atno 10763 bound_to 10752
  152.9956  135.5510  154.6051 H   0  0  0  0  0  0  0  0  0  0  0  0  # atno 10764 bound_to 10752
  154.5526  135.2903  155.0969 H   0  0  0  0  0  0  0  0  0  0  0  0  # atno 10765 bound_to 10752
  141.1451  133.8004  157.0392 H   0  0  0  0  0  0  0  0  0  0  0  0  # atno 11005 bound_to 11000
  144.7057  139.8572  143.7430 LP  0  0  0  0  0  0  0  0  0  0  0  0  # atno 17320 bound_to 7965
  146.1046  139.4044  143.0326 LP  0  0  0  0  0  0  0  0  0  0  0  0  # atno 17321 bound_to 7965
  140.7556  143.6082  150.8631 LP  0  0  0  0  0  0  0  0  0  0  0  0  # atno 17342 bound_to 10162
  139.9735  143.6031  152.2966 LP  0  0  0  0  0  0  0  0  0  0  0  0  # atno 17343 bound_to 10162
  157.7499  131.0114  150.3344 LP  0  0  0  0  0  0  0  0  0  0  0  0  # atno 17370 bound_to 10713
  156.3739  130.3868  149.7154 LP  0  0  0  0  0  0  0  0  0  0  0  0  # atno 17371 bound_to 10713
  140.0704  134.9705  157.1457 LP  0  0  0  0  0  0  0  0  0  0  0  0  # atno 17394 bound_to 11000
  140.3719  134.2381  155.7177 LP  0  0  0  0  0  0  0  0  0  0  0  0  # atno 17395 bound_to 11000

$$$$
