AV-unprocessed.smi:3334|AV-procd|sdf|12836|dock9
  -GOLD-   2272019223D 1   1.00000     0.00000
 Structure written by MMmdl.
 41 42  0  0  0  0  0  0  0  0  1 V2000
  148.5001  133.7804  152.9010 C   0  0  0  0  0  0  0  0  0  0  0  0
  149.3659  133.8926  154.1642 C   0  0  0  0  0  0  0  0  0  0  0  0
  148.8318  133.0347  155.3184 C   0  0  0  0  0  0  0  0  0  0  0  0
  149.5734  135.3165  154.5789 C   0  0  0  0  0  0  0  0  0  0  0  0
  150.7785  135.8874  154.6486 N   0  0  0  0  0  0  0  0  0  0  0  0
  150.7264  137.2227  155.0620 C   0  0  0  0  0  0  0  0  0  0  0  0
  152.0019  137.9999  155.2326 C   0  0  0  0  0  0  0  0  0  0  0  0
  151.8157  139.5223  155.0871 C   0  0  0  0  0  0  0  0  0  0  0  0
  151.3489  140.1260  156.3317 N   0  0  0  0  0  0  0  0  0  0  0  0
  151.9751  140.0438  157.5140 C   0  0  0  0  0  0  0  0  0  0  0  0
  152.9321  139.2991  157.7263 O   0  0  0  0  0  0  0  0  0  0  0  0
  151.4657  140.9789  158.6157 C   0  0  0  0  0  0  0  0  0  0  0  0
  152.5494  141.9501  159.1355 C   0  0  1  0  0  0  0  0  0  0  0  0
  152.7690  143.1566  158.2529 C   0  0  0  0  0  0  0  0  0  0  0  0
  152.7114  144.3028  158.9259 C   0  0  0  0  0  0  0  0  0  0  0  0
  152.4314  144.0974  160.3884 C   0  0  0  0  0  0  0  0  0  0  0  0
  152.2058  142.5738  160.5123 C   0  0  0  0  0  0  0  0  0  0  0  0
  149.4510  137.6570  155.3231 C   0  0  0  0  0  0  0  0  0  0  0  0
  148.2714  136.4007  155.0641 S   0  0  0  0  0  0  0  0  0  0  0  0
  148.9338  134.3479  152.0769 H   0  0  0  0  0  0  0  0  0  0  0  0
  147.4919  134.1583  153.0728 H   0  0  0  0  0  0  0  0  0  0  0  0
  148.4128  132.7433  152.5767 H   0  0  0  0  0  0  0  0  0  0  0  0
  150.3471  133.4926  153.9046 H   0  0  0  0  0  0  0  0  0  0  0  0
  149.5021  133.0741  156.1776 H   0  0  0  0  0  0  0  0  0  0  0  0
  148.7381  131.9901  155.0214 H   0  0  0  0  0  0  0  0  0  0  0  0
  147.8487  133.3759  155.6433 H   0  0  0  0  0  0  0  0  0  0  0  0
  152.4245  137.7929  156.2168 H   0  0  0  0  0  0  0  0  0  0  0  0
  152.7502  137.6580  154.5170 H   0  0  0  0  0  0  0  0  0  0  0  0
  152.7466  139.9947  154.7727 H   0  0  0  0  0  0  0  0  0  0  0  0
  151.0885  139.7032  154.2939 H   0  0  0  0  0  0  0  0  0  0  0  0
  150.5644  140.7580  156.2589 H   0  0  0  0  0  0  0  0  0  0  0  0
  150.6122  141.5479  158.2428 H   0  0  0  0  0  0  0  0  0  0  0  0
  151.0936  140.3673  159.4380 H   0  0  0  0  0  0  0  0  0  0  0  0
  153.5042  141.4269  159.2080 H   0  0  0  0  0  0  0  0  0  0  0  0
  152.9707  143.0729  157.1947 H   0  0  0  0  0  0  0  0  0  0  0  0
  152.8542  145.2837  158.4974 H   0  0  0  0  0  0  0  0  0  0  0  0
  153.2862  144.4288  160.9785 H   0  0  0  0  0  0  0  0  0  0  0  0
  151.5523  144.6643  160.6960 H   0  0  0  0  0  0  0  0  0  0  0  0
  151.1641  142.3827  160.7733 H   0  0  0  0  0  0  0  0  0  0  0  0
  152.8160  142.1433  161.3069 H   0  0  0  0  0  0  0  0  0  0  0  0
  149.1369  138.6304  155.6692 H   0  0  0  0  0  0  0  0  0  0  0  0
  1  2  1  0  0  0  0
  1 20  1  0  0  0  0
  1 21  1  0  0  0  0
  1 22  1  0  0  0  0
  2  3  1  0  0  0  0
  2  4  1  0  0  0  0
  2 23  1  0  0  0  0
  3 24  1  0  0  0  0
  3 25  1  0  0  0  0
  3 26  1  0  0  0  0
  4 19  1  0  0  0  0
  4  5  2  0  0  0  0
  5  6  1  0  0  0  0
  6  7  1  0  0  0  0
  6 18  2  0  0  0  0
  7  8  1  0  0  0  0
  7 27  1  0  0  0  0
  7 28  1  0  0  0  0
  8  9  1  0  0  0  0
  8 29  1  0  0  0  0
  8 30  1  0  0  0  0
  9 10  1  0  0  0  0
  9 31  1  0  0  0  0
 10 11  2  0  0  0  0
 10 12  1  0  0  0  0
 12 13  1  0  0  0  0
 12 32  1  0  0  0  0
 12 33  1  0  0  0  0
 13 17  1  0  0  0  0
 13 14  1  0  0  0  0
 13 34  1  0  0  0  0
 14 15  2  0  0  0  0
 14 35  1  0  0  0  0
 15 16  1  0  0  0  0
 15 36  1  0  0  0  0
 16 17  1  0  0  0  0
 16 37  1  0  0  0  0
 16 38  1  0  0  0  0
 17 39  1  0  0  0  0
 17 40  1  0  0  0  0
 18 19  1  0  0  0  0
 18 41  1  0  0  0  0
M  END
> <s_m_source_file>
AV-unprocessed.smi

> <i_m_source_file_index>
3334

> <i_lp_mmshare_version>
43012

> <i_f3d_flags>
0

> <s_epik_input>
W0NIM11bQ0hdKFtDSDNdKWMxbmMoW2NIXXMxKVtDSDJdW0NIMl1bTkhdQyg9TylbQ0gyXVtDQEBIXTJbQ0hdPVtDSF1bQ0gyXVtDSDJdMg==

> <s_epik_cmdline>
J2VwaWtfcHl0aG9uJywgJy1waCcsICc3LjAnLCAnLXRuJywgJzgnLCAnLW1hJywgJzIwMCcsICctbWV0YWxfYmluZGluZycsICctaW1hZScsICc8aW5maWxlLm1hZT4nLCAnLW9tYWUnLCAnPG91dGZpbGUubWFlPic=

> <r_epik_Ionization_Penalty>
0.000771592

> <r_epik_Ionization_Penalty_Charging>
0

> <r_epik_Ionization_Penalty_Neutral>
0.000771592

> <r_epik_State_Penalty>
0.000494253

> <r_epik_Charging_Adjusted_Penalty>
0.000494253

> <i_epik_Tot_Q>
0

> <i_epik_Tot_abs_Q>
0

> <r_epik_Metal_State_Penalty>
-0

> <b_epik_Metal_Only>
0

> <s_lp_Force_Field>
OPLS_2005

> <r_lp_Energy>
5.93023

> <b_lp_Chiralities_Consistent>
1

> <s_lp_Variant>
AV-unprocessed.smi:3334-2

> <Gold.Version>
5.8.1

> <Gold.Id.Protein>
6NUR|6NUR_protein|mol2

> <Gold.PLP.Fitness>
45.0885

> <Gold.PLP.PLP>
-40.3699

> <Gold.PLP.part.hbond>
-2.0000

> <Gold.PLP.part.metal>
0.0000

> <Gold.PLP.part.buried>
-4.0015

> <Gold.PLP.part.nonpolar>
-34.4751

> <Gold.PLP.part.repulsive>
0.2494

> <Gold.PLP.ligand.clash>
0.0000

> <Gold.PLP.ligand.torsion>
0.6955

> <Gold.PLP.Chemscore.Hbond>
2.0000

> <Gold.PLP.Chemscore.CHOScore>
0.0000

> <Gold.PLP.Chemscore.Metal>
0.0000

> <Gold.Chemscore.Hbonds>
donor molecule, donor type, donor heavy atom, donor atom, acceptor molecule, acceptor atom, score
      P1  H  7997  8010       L1    11  1.00
      P1  H 10752 10764       L1     5  0.62

> <Gold.PLP.Chemscore.Internal.Correction>
0.1096

> <Gold.Rescore>
     Score         DG    S(hbond)    S(metal)    S(lipo)     H(rot)  DE(clash)    DE(int)     intcor
     19.39     -21.34       1.95        0.00     112.97       1.52       0.04       1.91       ----

> <Gold.Chemscore.Fitness>
19.3906

> <Gold.Chemscore.DG>
-21.3371

> <Gold.Chemscore.ZeroCoef>
-5.4800

> <Gold.Chemscore.Hbond>
1.9524

> <Gold.Chemscore.Metal>
0.0000

> <Gold.Chemscore.Lipo>
112.9718

> <Gold.Chemscore.Internal_Hbond>
0.0000

> <Gold.Chemscore.DEClash>
0.0413

> <Gold.Chemscore.DEInternal>
1.9052

> <Gold.Chemscore.Rot>
1.5162

> <Gold.Chemscore.Internal.Correction>
   9.000000E+99

> <Gold.Chemscore.Hbonds>
donor molecule, donor type, donor heavy atom, donor atom, acceptor molecule, acceptor atom, score
      P1  H  7997  8010       L1    11  0.55
      P1  H 10752 10764       L1     5  0.19

> <Gold.Chemscore.Hbond.Weighted>
-6.5209

> <Gold.Chemscore.Metal.Weighted>
-0.0000

> <Gold.Chemscore.Lipo.Weighted>
-13.2177

> <Gold.Chemscore.Internal_Hbond.Weighted>
0.0000

> <Gold.Chemscore.DEClash.Weighted>
0.0413

> <Gold.Chemscore.DEInternal.Weighted>
1.9052

> <Gold.Chemscore.Rot.Weighted>
3.8815

> <Gold.Chemscore.Internal.Correction.Weighted>
   9.000000E+99

> <Gold.Protein.RotatedTorsions>
[ 6907 6896 6895 6894 ] final  -78.10 input  -60.11 | X-H torsion
[ 7974 7965 7964 7962 ] final  115.98 input  175.53 | X-H torsion
[ 8008 7997 7996 7995 ] final   52.92 input   59.86 | X-H torsion
[ 10167 10162 10161 10158 ] final  -45.88 input  -65.29 | X-H torsion
[ 10718 10713 10712 10709 ] final -126.85 input   66.30 | X-H torsion
[ 10763 10752 10751 10750 ] final  -76.10 input  -60.55 | X-H torsion
[ 11005 11000 10999 10996 ] final  -60.35 input  -57.11 | X-H torsion

> <Gold.Protein.ActiveResidues>
 VAL166  LYS551  ARG553  GLY616  TRP617  ASP618  TYR619  PRO620  LYS621  CYS622 
 ASP623  PHE694  ASN695  SER759  ASP760  ASP761  ALA762  ILE779  LEU786  VAL792 
 PHE793  MET794  SER795  GLU796  ALA797  LYS798  CYS799  TRP800  GLU811  SER814 

> <Gold.Protein.RotatedAtoms>
  150.6981  134.4323  159.5253 H   0  0  0  0  0  0  0  0  0  0  0  0  # atno 6907 bound_to 6896
  152.2047  134.8553  160.0513 H   0  0  0  0  0  0  0  0  0  0  0  0  # atno 6908 bound_to 6896
  151.9460  133.3617  159.4019 H   0  0  0  0  0  0  0  0  0  0  0  0  # atno 6909 bound_to 6896
  145.1853  139.3028  143.4396 H   0  0  0  0  0  0  0  0  0  0  0  0  # atno 7974 bound_to 7965
  155.4597  140.3461  155.4311 H   0  0  0  0  0  0  0  0  0  0  0  0  # atno 8008 bound_to 7997
  156.1168  140.1476  156.9290 H   0  0  0  0  0  0  0  0  0  0  0  0  # atno 8009 bound_to 7997
  154.4795  140.0874  156.7322 H   0  0  0  0  0  0  0  0  0  0  0  0  # atno 8010 bound_to 7997
  140.6840  143.2858  151.3702 H   0  0  0  0  0  0  0  0  0  0  0  0  # atno 10167 bound_to 10162
  156.1802  130.6727  151.0295 H   0  0  0  0  0  0  0  0  0  0  0  0  # atno 10718 bound_to 10713
  154.4953  135.5809  153.6490 H   0  0  0  0  0  0  0  0  0  0  0  0  # atno 10763 bound_to 10752
  152.9869  135.6122  154.3072 H   0  0  0  0  0  0  0  0  0  0  0  0  # atno 10764 bound_to 10752
  154.2975  135.2847  155.2606 H   0  0  0  0  0  0  0  0  0  0  0  0  # atno 10765 bound_to 10752
  141.1284  133.6622  156.5210 H   0  0  0  0  0  0  0  0  0  0  0  0  # atno 11005 bound_to 11000
  146.3446  140.2047  142.8589 LP  0  0  0  0  0  0  0  0  0  0  0  0  # atno 17320 bound_to 7965
  145.0095  140.8702  143.5233 LP  0  0  0  0  0  0  0  0  0  0  0  0  # atno 17321 bound_to 7965
  139.6184  144.0956  152.2368 LP  0  0  0  0  0  0  0  0  0  0  0  0  # atno 17342 bound_to 10162
  140.0393  144.6020  150.7424 LP  0  0  0  0  0  0  0  0  0  0  0  0  # atno 17343 bound_to 10162
  157.6863  131.0824  150.7233 LP  0  0  0  0  0  0  0  0  0  0  0  0  # atno 17370 bound_to 10713
  156.7290  130.4704  149.5504 LP  0  0  0  0  0  0  0  0  0  0  0  0  # atno 17371 bound_to 10713
  140.4292  134.7117  157.4932 LP  0  0  0  0  0  0  0  0  0  0  0  0  # atno 17394 bound_to 11000
  140.0306  134.6412  155.9112 LP  0  0  0  0  0  0  0  0  0  0  0  0  # atno 17395 bound_to 11000

$$$$
