AV-unprocessed.smi:300|AV-procd|sdf|2269|dock2
  -GOLD-   2262022163D 1   1.00000     0.00000
 Structure written by MMmdl.
 45 46  0  0  0  0  0  0  0  0  1 V2000
  142.4507  146.4596  154.8023 C   0  0  0  0  0  0  0  0  0  0  0  0
  143.2291  145.3353  155.2790 N   0  0  0  0  0  0  0  0  0  0  0  0
  142.9392  144.7912  156.5536 C   0  0  0  0  0  0  0  0  0  0  0  0
  142.0462  145.2332  157.2770 O   0  0  0  0  0  0  0  0  0  0  0  0
  143.7910  143.6726  156.9396 C   0  0  0  0  0  0  0  0  0  0  0  0
  144.7694  143.2297  156.1201 C   0  0  0  0  0  0  0  0  0  0  0  0
  145.0381  143.7862  154.8829 N   0  0  0  0  0  0  0  0  0  0  0  0
  146.1327  143.2486  154.0646 C   0  0  0  0  0  0  0  0  0  0  0  0
  146.8553  142.0658  154.7236 C   0  0  0  0  0  0  0  0  0  0  0  0
  146.3210  140.9577  154.7915 O   0  0  0  0  0  0  0  0  0  0  0  0
  148.0888  142.3155  155.1876 N   0  0  0  0  0  0  0  0  0  0  0  0
  148.9522  141.3373  155.8374 C   0  0  0  0  0  0  0  0  0  0  0  0
  150.4234  141.7931  155.8346 C   0  0  0  0  0  0  0  0  0  0  0  0
  151.0020  141.7401  157.1852 N   0  0  0  0  0  0  0  0  0  0  0  0
  150.4705  142.7190  158.1462 C   0  0  0  0  0  0  0  0  0  0  0  0
  151.5329  143.7346  158.6097 C   0  0  0  0  0  0  0  0  0  0  0  0
  152.4528  143.2128  159.7234 C   0  0  0  0  0  0  0  0  0  0  0  0
  153.3215  142.0132  159.3183 C   0  0  0  0  0  0  0  0  0  0  0  0
  152.5004  140.7730  158.9286 C   0  0  0  0  0  0  0  0  0  0  0  0
  151.9696  140.8428  157.4912 C   0  0  0  0  0  0  0  0  0  0  0  0
  152.4354  140.0601  156.6617 O   0  0  0  0  0  0  0  0  0  0  0  0
  144.2617  144.8753  154.4322 C   0  0  0  0  0  0  0  0  0  0  0  0
  144.4890  145.4008  153.3395 O   0  0  0  0  0  0  0  0  0  0  0  0
  141.5586  146.6049  155.4110 H   0  0  0  0  0  0  0  0  0  0  0  0
  142.1428  146.2442  153.7773 H   0  0  0  0  0  0  0  0  0  0  0  0
  143.0981  147.3366  154.8488 H   0  0  0  0  0  0  0  0  0  0  0  0
  143.6378  143.1944  157.8959 H   0  0  0  0  0  0  0  0  0  0  0  0
  145.3755  142.4004  156.4544 H   0  0  0  0  0  0  0  0  0  0  0  0
  145.7462  142.9149  153.1007 H   0  0  0  0  0  0  0  0  0  0  0  0
  146.8505  144.0385  153.8357 H   0  0  0  0  0  0  0  0  0  0  0  0
  148.4548  143.2513  155.0861 H   0  0  0  0  0  0  0  0  0  0  0  0
  148.5981  141.2056  156.8602 H   0  0  0  0  0  0  0  0  0  0  0  0
  148.8508  140.3669  155.3484 H   0  0  0  0  0  0  0  0  0  0  0  0
  151.0040  141.1824  155.1424 H   0  0  0  0  0  0  0  0  0  0  0  0
  150.4959  142.8062  155.4342 H   0  0  0  0  0  0  0  0  0  0  0  0
  149.6524  143.2823  157.6967 H   0  0  0  0  0  0  0  0  0  0  0  0
  150.0254  142.2055  158.9995 H   0  0  0  0  0  0  0  0  0  0  0  0
  152.1228  144.0797  157.7594 H   0  0  0  0  0  0  0  0  0  0  0  0
  151.0184  144.6173  158.9907 H   0  0  0  0  0  0  0  0  0  0  0  0
  153.1065  144.0239  160.0455 H   0  0  0  0  0  0  0  0  0  0  0  0
  151.8530  142.9497  160.5956 H   0  0  0  0  0  0  0  0  0  0  0  0
  153.9917  142.2968  158.5055 H   0  0  0  0  0  0  0  0  0  0  0  0
  153.9671  141.7546  160.1581 H   0  0  0  0  0  0  0  0  0  0  0  0
  153.1405  139.8929  159.0054 H   0  0  0  0  0  0  0  0  0  0  0  0
  151.6821  140.6038  159.6292 H   0  0  0  0  0  0  0  0  0  0  0  0
  1  2  1  0  0  0  0
  1 24  1  0  0  0  0
  1 25  1  0  0  0  0
  1 26  1  0  0  0  0
  2 22  1  0  0  0  0
  2  3  1  0  0  0  0
  3  4  2  0  0  0  0
  3  5  1  0  0  0  0
  5  6  2  0  0  0  0
  5 27  1  0  0  0  0
  6  7  1  0  0  0  0
  6 28  1  0  0  0  0
  7  8  1  0  0  0  0
  7 22  1  0  0  0  0
  8  9  1  0  0  0  0
  8 29  1  0  0  0  0
  8 30  1  0  0  0  0
  9 10  2  0  0  0  0
  9 11  1  0  0  0  0
 11 12  1  0  0  0  0
 11 31  1  0  0  0  0
 12 13  1  0  0  0  0
 12 32  1  0  0  0  0
 12 33  1  0  0  0  0
 13 14  1  0  0  0  0
 13 34  1  0  0  0  0
 13 35  1  0  0  0  0
 14 20  1  0  0  0  0
 14 15  1  0  0  0  0
 15 16  1  0  0  0  0
 15 36  1  0  0  0  0
 15 37  1  0  0  0  0
 16 17  1  0  0  0  0
 16 38  1  0  0  0  0
 16 39  1  0  0  0  0
 17 18  1  0  0  0  0
 17 40  1  0  0  0  0
 17 41  1  0  0  0  0
 18 19  1  0  0  0  0
 18 42  1  0  0  0  0
 18 43  1  0  0  0  0
 19 20  1  0  0  0  0
 19 44  1  0  0  0  0
 19 45  1  0  0  0  0
 20 21  2  0  0  0  0
 22 23  2  0  0  0  0
M  END
> <s_m_source_file>
AV-unprocessed.smi

> <i_m_source_file_index>
300

> <i_lp_mmshare_version>
43012

> <i_f3d_flags>
0

> <s_epik_input>
W0NIM11uMWMoPU8pW2NIXVtjSF1uKGMxPU8pW0NIMl1DKD1PKVtOSF1bQ0gyXVtDSDJdTjJbQ0gyXVtDSDJdW0NIMl1bQ0gyXVtDSDJdQzI9Tw==

> <s_epik_cmdline>
J2VwaWtfcHl0aG9uJywgJy1waCcsICc3LjAnLCAnLXRuJywgJzgnLCAnLW1hJywgJzIwMCcsICctbWV0YWxfYmluZGluZycsICctaW1hZScsICc8aW5maWxlLm1hZT4nLCAnLW9tYWUnLCAnPG91dGZpbGUubWFlPic=

> <r_lp_tautomer_probability>
1

> <r_epik_Ionization_Penalty>
6.11943e-08

> <r_epik_Ionization_Penalty_Charging>
1.13819e-08

> <r_epik_Ionization_Penalty_Neutral>
4.98124e-08

> <r_epik_State_Penalty>
-0

> <r_epik_Charging_Adjusted_Penalty>
1.13819e-08

> <i_epik_Tot_Q>
0

> <i_epik_Tot_abs_Q>
0

> <r_epik_Metal_State_Penalty>
-0

> <b_epik_Metal_Only>
0

> <s_lp_Force_Field>
OPLS_2005

> <r_lp_Energy>
25.2871

> <b_lp_Chiralities_Consistent>
1

> <s_lp_Variant>
AV-unprocessed.smi:300-1

> <Gold.Version>
5.8.1

> <Gold.Id.Protein>
6NUR|6NUR_protein|mol2

> <Gold.PLP.Fitness>
50.8401

> <Gold.PLP.PLP>
-46.4571

> <Gold.PLP.part.hbond>
-2.7590

> <Gold.PLP.part.metal>
0.0000

> <Gold.PLP.part.buried>
-8.4280

> <Gold.PLP.part.nonpolar>
-36.4140

> <Gold.PLP.part.repulsive>
0.4022

> <Gold.PLP.ligand.clash>
0.0000

> <Gold.PLP.ligand.torsion>
0.6995

> <Gold.PLP.Chemscore.Hbond>
1.9120

> <Gold.PLP.Chemscore.CHOScore>
0.0000

> <Gold.PLP.Chemscore.Metal>
0.0000

> <Gold.Chemscore.Hbonds>
donor molecule, donor type, donor heavy atom, donor atom, acceptor molecule, acceptor atom, score
      L1  H    11    31       P1  8028  1.00
      P1  H  7997  8008       L1    21  1.00

> <Gold.PLP.Chemscore.Internal.Correction>
0.0460

> <Gold.Rescore>
     Score         DG    S(hbond)    S(metal)    S(lipo)     H(rot)  DE(clash)    DE(int)     intcor
     15.26     -15.98       1.91        0.00      82.88       2.18       0.01       0.72       ----

> <Gold.Chemscore.Fitness>
15.2551

> <Gold.Chemscore.DG>
-15.9847

> <Gold.Chemscore.ZeroCoef>
-5.4800

> <Gold.Chemscore.Hbond>
1.9142

> <Gold.Chemscore.Metal>
0.0000

> <Gold.Chemscore.Lipo>
82.8809

> <Gold.Chemscore.Internal_Hbond>
0.0000

> <Gold.Chemscore.DEClash>
0.0106

> <Gold.Chemscore.DEInternal>
0.7190

> <Gold.Chemscore.Rot>
2.1820

> <Gold.Chemscore.Internal.Correction>
   9.000000E+99

> <Gold.Chemscore.Hbonds>
donor molecule, donor type, donor heavy atom, donor atom, acceptor molecule, acceptor atom, score
      L1  H    11    31       P1  8028  0.96
      P1  H  7997  8008       L1    21  0.74

> <Gold.Chemscore.Hbond.Weighted>
-6.3936

> <Gold.Chemscore.Metal.Weighted>
-0.0000

> <Gold.Chemscore.Lipo.Weighted>
-9.6971

> <Gold.Chemscore.Internal_Hbond.Weighted>
0.0000

> <Gold.Chemscore.DEClash.Weighted>
0.0106

> <Gold.Chemscore.DEInternal.Weighted>
0.7190

> <Gold.Chemscore.Rot.Weighted>
5.5860

> <Gold.Chemscore.Internal.Correction.Weighted>
   9.000000E+99

> <Gold.Protein.RotatedTorsions>
[ 6907 6896 6895 6894 ] final -133.77 input  -60.11 | X-H torsion
[ 7974 7965 7964 7962 ] final  -92.62 input  175.53 | X-H torsion
[ 8008 7997 7996 7995 ] final  -63.29 input   59.86 | X-H torsion
[ 10167 10162 10161 10158 ] final   29.76 input  -65.29 | X-H torsion
[ 10718 10713 10712 10709 ] final  145.25 input   66.30 | X-H torsion
[ 10763 10752 10751 10750 ] final  -21.25 input  -60.55 | X-H torsion
[ 11005 11000 10999 10996 ] final  -32.15 input  -57.11 | X-H torsion

> <Gold.Protein.ActiveResidues>
 VAL166  LYS551  ARG553  GLY616  TRP617  ASP618  TYR619  PRO620  LYS621  CYS622 
 ASP623  PHE694  ASN695  SER759  ASP760  ASP761  ALA762  ILE779  LEU786  VAL792 
 PHE793  MET794  SER795  GLU796  ALA797  LYS798  CYS799  TRP800  GLU811  SER814 

> <Gold.Protein.RotatedAtoms>
  150.9779  133.6275  159.2727 H   0  0  0  0  0  0  0  0  0  0  0  0  # atno 6907 bound_to 6896
  151.3541  135.0889  159.9422 H   0  0  0  0  0  0  0  0  0  0  0  0  # atno 6908 bound_to 6896
  152.5206  133.9366  159.7661 H   0  0  0  0  0  0  0  0  0  0  0  0  # atno 6909 bound_to 6896
  145.3974  140.9534  143.2306 H   0  0  0  0  0  0  0  0  0  0  0  0  # atno 7974 bound_to 7965
  154.4546  140.0978  156.6719 H   0  0  0  0  0  0  0  0  0  0  0  0  # atno 8008 bound_to 7997
  155.5179  140.3478  155.4382 H   0  0  0  0  0  0  0  0  0  0  0  0  # atno 8009 bound_to 7997
  156.0751  140.1359  156.9770 H   0  0  0  0  0  0  0  0  0  0  0  0  # atno 8010 bound_to 7997
  140.4737  144.0722  150.6244 H   0  0  0  0  0  0  0  0  0  0  0  0  # atno 10167 bound_to 10162
  157.3475  131.0945  151.1029 H   0  0  0  0  0  0  0  0  0  0  0  0  # atno 10718 bound_to 10713
  153.6332  135.6988  153.5268 H   0  0  0  0  0  0  0  0  0  0  0  0  # atno 10763 bound_to 10752
  153.2842  135.4176  155.1106 H   0  0  0  0  0  0  0  0  0  0  0  0  # atno 10764 bound_to 10752
  154.8517  135.3609  154.5875 H   0  0  0  0  0  0  0  0  0  0  0  0  # atno 10765 bound_to 10752
  140.9528  133.7211  156.1246 H   0  0  0  0  0  0  0  0  0  0  0  0  # atno 11005 bound_to 11000
  144.8397  139.5491  143.6906 LP  0  0  0  0  0  0  0  0  0  0  0  0  # atno 17320 bound_to 7965
  146.2768  139.6774  142.9257 LP  0  0  0  0  0  0  0  0  0  0  0  0  # atno 17321 bound_to 7965
  140.3945  143.2735  152.0021 LP  0  0  0  0  0  0  0  0  0  0  0  0  # atno 17342 bound_to 10162
  139.4822  144.6050  151.7538 LP  0  0  0  0  0  0  0  0  0  0  0  0  # atno 17343 bound_to 10162
  157.2217  130.6484  149.5814 LP  0  0  0  0  0  0  0  0  0  0  0  0  # atno 17370 bound_to 10713
  155.9716  130.4627  150.6155 LP  0  0  0  0  0  0  0  0  0  0  0  0  # atno 17371 bound_to 10713
  140.7579  134.3972  157.5531 LP  0  0  0  0  0  0  0  0  0  0  0  0  # atno 17394 bound_to 11000
  139.8853  134.8942  156.2653 LP  0  0  0  0  0  0  0  0  0  0  0  0  # atno 17395 bound_to 11000

$$$$
