AV-unprocessed.smi:3244|AV-procd|sdf|12401|dock10
  -GOLD-   2272018273D 1   1.00000     0.00000
 Structure written by MMmdl.
 40 41  0  0  0  0  0  0  0  0  1 V2000
  150.3866  135.0233  154.9781 C   0  0  0  0  0  0  0  0  0  0  0  0
  149.1290  134.1933  155.2826 C   0  0  0  0  0  0  0  0  0  0  0  0
  148.9180  133.1169  154.2990 N   0  0  0  0  0  0  0  0  0  0  0  0
  147.7903  133.0937  153.5417 C   0  0  0  0  0  0  0  0  0  0  0  0
  147.5048  132.1385  152.8180 O   0  0  0  0  0  0  0  0  0  0  0  0
  146.8125  134.2802  153.5651 C   0  0  0  0  0  0  0  0  0  0  0  0
  146.7933  135.0326  152.2996 N   0  0  0  0  0  0  0  0  0  0  0  0
  145.5577  135.7751  152.0660 C   0  0  1  0  0  0  0  0  0  0  0  0
  145.9135  137.2709  152.0288 C   0  0  0  0  0  0  0  0  0  0  0  0
  144.8291  135.2899  150.7861 C   0  0  0  0  0  0  0  0  0  0  0  0
  144.8479  133.8468  150.6054 N   0  0  0  0  0  0  0  0  0  0  0  0
  143.7870  132.9653  150.6325 C   0  0  0  0  0  0  0  0  0  0  0  0
  144.2907  131.7147  150.4168 C   0  0  0  0  0  0  0  0  0  0  0  0
  145.6889  131.9341  150.2711 C   0  0  0  0  0  0  0  0  0  0  0  0
  146.0183  133.2093  150.3887 N   0  0  0  0  0  0  0  0  0  0  0  0
  149.8627  132.0319  154.3725 C   0  0  0  0  0  0  0  0  0  0  0  0
  149.8391  131.0697  155.5474 C   0  0  0  0  0  0  0  0  0  0  0  0
  150.9672  132.0545  155.4128 C   0  0  0  0  0  0  0  0  0  0  0  0
  150.4829  135.8493  155.6829 H   0  0  0  0  0  0  0  0  0  0  0  0
  150.3438  135.4475  153.9745 H   0  0  0  0  0  0  0  0  0  0  0  0
  151.2944  134.4249  155.0524 H   0  0  0  0  0  0  0  0  0  0  0  0
  149.1971  133.7718  156.2869 H   0  0  0  0  0  0  0  0  0  0  0  0
  148.2767  134.8705  155.3163 H   0  0  0  0  0  0  0  0  0  0  0  0
  145.8170  133.9069  153.8116 H   0  0  0  0  0  0  0  0  0  0  0  0
  147.0640  134.9574  154.3792 H   0  0  0  0  0  0  0  0  0  0  0  0
  147.5833  135.6583  152.2363 H   0  0  0  0  0  0  0  0  0  0  0  0
  144.8991  135.6226  152.9226 H   0  0  0  0  0  0  0  0  0  0  0  0
  145.0272  137.8774  151.8415 H   0  0  0  0  0  0  0  0  0  0  0  0
  146.6424  137.4977  151.2499 H   0  0  0  0  0  0  0  0  0  0  0  0
  146.3376  137.5974  152.9791 H   0  0  0  0  0  0  0  0  0  0  0  0
  143.7946  135.6334  150.7575 H   0  0  0  0  0  0  0  0  0  0  0  0
  145.3100  135.7354  149.9144 H   0  0  0  0  0  0  0  0  0  0  0  0
  142.7731  133.2988  150.7982 H   0  0  0  0  0  0  0  0  0  0  0  0
  143.7439  130.7846  150.3712 H   0  0  0  0  0  0  0  0  0  0  0  0
  146.4691  131.2105  150.0870 H   0  0  0  0  0  0  0  0  0  0  0  0
  150.1202  131.5837  153.4144 H   0  0  0  0  0  0  0  0  0  0  0  0
  149.1392  131.2459  156.3616 H   0  0  0  0  0  0  0  0  0  0  0  0
  150.0582  130.0238  155.3419 H   0  0  0  0  0  0  0  0  0  0  0  0
  151.9410  131.6702  155.1164 H   0  0  0  0  0  0  0  0  0  0  0  0
  150.9882  132.8722  156.1307 H   0  0  0  0  0  0  0  0  0  0  0  0
  1  2  1  0  0  0  0
  1 19  1  0  0  0  0
  1 20  1  0  0  0  0
  1 21  1  0  0  0  0
  2  3  1  0  0  0  0
  2 22  1  0  0  0  0
  2 23  1  0  0  0  0
  3  4  1  0  0  0  0
  3 16  1  0  0  0  0
  4  5  2  0  0  0  0
  4  6  1  0  0  0  0
  6  7  1  0  0  0  0
  6 24  1  0  0  0  0
  6 25  1  0  0  0  0
  7  8  1  0  0  0  0
  7 26  1  0  0  0  0
  8  9  1  0  0  0  0
  8 10  1  0  0  0  0
  8 27  1  0  0  0  0
  9 28  1  0  0  0  0
  9 29  1  0  0  0  0
  9 30  1  0  0  0  0
 10 11  1  0  0  0  0
 10 31  1  0  0  0  0
 10 32  1  0  0  0  0
 11 15  1  0  0  0  0
 11 12  1  0  0  0  0
 12 13  2  0  0  0  0
 12 33  1  0  0  0  0
 13 14  1  0  0  0  0
 13 34  1  0  0  0  0
 14 15  2  0  0  0  0
 14 35  1  0  0  0  0
 16 18  1  0  0  0  0
 16 17  1  0  0  0  0
 16 36  1  0  0  0  0
 17 18  1  0  0  0  0
 17 37  1  0  0  0  0
 17 38  1  0  0  0  0
 18 39  1  0  0  0  0
 18 40  1  0  0  0  0
M  END
> <s_m_source_file>
AV-unprocessed.smi

> <i_m_source_file_index>
3244

> <i_lp_mmshare_version>
43012

> <i_f3d_flags>
0

> <s_epik_input>
W0NIMl0xW0NIMl1bQ0hdMU4oW0NIMl1bQ0gzXSlDKD1PKVtDSDJdW05IXVtDQEhdKFtDSDNdKVtDSDJdbjJbY0hdW2NIXVtjSF1uMg==

> <s_epik_cmdline>
J2VwaWtfcHl0aG9uJywgJy1waCcsICc3LjAnLCAnLXRuJywgJzgnLCAnLW1hJywgJzIwMCcsICctbWV0YWxfYmluZGluZycsICctaW1hZScsICc8aW5maWxlLm1hZT4nLCAnLW9tYWUnLCAnPG91dGZpbGUubWFlPic=

> <r_lp_tautomer_probability>
1

> <r_epik_Ionization_Penalty>
1.02506

> <r_epik_Ionization_Penalty_Charging>
0

> <r_epik_Ionization_Penalty_Neutral>
1.02506

> <r_epik_State_Penalty>
1.07563

> <r_epik_Charging_Adjusted_Penalty>
1.07563

> <i_epik_Tot_Q>
0

> <i_epik_Tot_abs_Q>
0

> <r_epik_Metal_State_Penalty>
1.07558

> <b_epik_Metal_Only>
0

> <s_lp_Force_Field>
OPLS_2005

> <r_lp_Energy>
38.4793

> <b_lp_Chiralities_Consistent>
1

> <s_lp_Variant>
AV-unprocessed.smi:3244-4

> <Gold.Version>
5.8.1

> <Gold.Id.Protein>
6NUR|6NUR_protein|mol2

> <Gold.PLP.Fitness>
40.9391

> <Gold.PLP.PLP>
-34.5372

> <Gold.PLP.part.hbond>
-0.8776

> <Gold.PLP.part.metal>
0.0000

> <Gold.PLP.part.buried>
-5.1633

> <Gold.PLP.part.nonpolar>
-30.0014

> <Gold.PLP.part.repulsive>
0.3091

> <Gold.PLP.ligand.clash>
0.0000

> <Gold.PLP.ligand.torsion>
1.4592

> <Gold.PLP.Chemscore.Hbond>
0.9913

> <Gold.PLP.Chemscore.CHOScore>
2.0000

> <Gold.PLP.Chemscore.Metal>
0.0000

> <Gold.Chemscore.Hbonds>
donor molecule, donor type, donor heavy atom, donor atom, acceptor molecule, acceptor atom, score
      L1  H     7    26       P1  7948  0.94
      L1  C    12    33       P1 10186  1.00
      L1  C    14    35       P1 10747  1.00

> <Gold.PLP.Chemscore.Internal.Correction>
0.3465

> <Gold.Rescore>
     Score         DG    S(hbond)    S(metal)    S(lipo)     H(rot)  DE(clash)    DE(int)     intcor
      9.99     -12.75       0.98        0.00      76.82       1.95       0.02       2.74       ----

> <Gold.Chemscore.Fitness>
9.9905

> <Gold.Chemscore.DG>
-12.7530

> <Gold.Chemscore.ZeroCoef>
-5.4800

> <Gold.Chemscore.Hbond>
0.9849

> <Gold.Chemscore.Metal>
0.0000

> <Gold.Chemscore.Lipo>
76.8218

> <Gold.Chemscore.Internal_Hbond>
0.0000

> <Gold.Chemscore.DEClash>
0.0245

> <Gold.Chemscore.DEInternal>
2.7380

> <Gold.Chemscore.Rot>
1.9550

> <Gold.Chemscore.Internal.Correction>
   9.000000E+99

> <Gold.Chemscore.Hbonds>
donor molecule, donor type, donor heavy atom, donor atom, acceptor molecule, acceptor atom, score
      L1  H     7    26       P1  7948  0.89

> <Gold.Chemscore.Hbond.Weighted>
-3.2896

> <Gold.Chemscore.Metal.Weighted>
-0.0000

> <Gold.Chemscore.Lipo.Weighted>
-8.9882

> <Gold.Chemscore.Internal_Hbond.Weighted>
0.0000

> <Gold.Chemscore.DEClash.Weighted>
0.0245

> <Gold.Chemscore.DEInternal.Weighted>
2.7380

> <Gold.Chemscore.Rot.Weighted>
5.0047

> <Gold.Chemscore.Internal.Correction.Weighted>
   9.000000E+99

> <Gold.Protein.RotatedTorsions>
[ 6907 6896 6895 6894 ] final  -57.39 input  -60.11 | X-H torsion
[ 7974 7965 7964 7962 ] final  -84.57 input  175.53 | X-H torsion
[ 8008 7997 7996 7995 ] final -172.91 input   59.86 | X-H torsion
[ 10167 10162 10161 10158 ] final -148.79 input  -65.29 | X-H torsion
[ 10718 10713 10712 10709 ] final  106.21 input   66.30 | X-H torsion
[ 10763 10752 10751 10750 ] final -132.86 input  -60.55 | X-H torsion
[ 11005 11000 10999 10996 ] final   -9.21 input  -57.11 | X-H torsion

> <Gold.Protein.ActiveResidues>
 VAL166  LYS551  ARG553  GLY616  TRP617  ASP618  TYR619  PRO620  LYS621  CYS622 
 ASP623  PHE694  ASN695  SER759  ASP760  ASP761  ALA762  ILE779  LEU786  VAL792 
 PHE793  MET794  SER795  GLU796  ALA797  LYS798  CYS799  TRP800  GLU811  SER814 

> <Gold.Protein.RotatedAtoms>
  150.8090  134.7233  159.6670 H   0  0  0  0  0  0  0  0  0  0  0  0  # atno 6907 bound_to 6896
  152.4210  134.5952  159.9995 H   0  0  0  0  0  0  0  0  0  0  0  0  # atno 6908 bound_to 6896
  151.6168  133.3305  159.3115 H   0  0  0  0  0  0  0  0  0  0  0  0  # atno 6909 bound_to 6896
  145.5048  140.9544  143.1739 H   0  0  0  0  0  0  0  0  0  0  0  0  # atno 7974 bound_to 7965
  155.9507  140.1126  157.0979 H   0  0  0  0  0  0  0  0  0  0  0  0  # atno 8008 bound_to 7997
  154.4109  140.1201  156.5114 H   0  0  0  0  0  0  0  0  0  0  0  0  # atno 8009 bound_to 7997
  155.6846  140.3473  155.4871 H   0  0  0  0  0  0  0  0  0  0  0  0  # atno 8010 bound_to 7997
  139.7500  143.8532  152.2584 H   0  0  0  0  0  0  0  0  0  0  0  0  # atno 10167 bound_to 10162
  157.6677  131.0845  150.5972 H   0  0  0  0  0  0  0  0  0  0  0  0  # atno 10718 bound_to 10713
  154.8739  135.3784  154.4478 H   0  0  0  0  0  0  0  0  0  0  0  0  # atno 10763 bound_to 10752
  153.5157  135.7029  153.5762 H   0  0  0  0  0  0  0  0  0  0  0  0  # atno 10764 bound_to 10752
  153.4032  135.3943  155.1967 H   0  0  0  0  0  0  0  0  0  0  0  0  # atno 10765 bound_to 10752
  140.7317  133.8743  155.8898 H   0  0  0  0  0  0  0  0  0  0  0  0  # atno 11005 bound_to 11000
  144.7760  139.6630  143.7175 LP  0  0  0  0  0  0  0  0  0  0  0  0  # atno 17320 bound_to 7965
  146.2203  139.5624  142.9623 LP  0  0  0  0  0  0  0  0  0  0  0  0  # atno 17321 bound_to 7965
  139.8508  144.7165  150.9217 LP  0  0  0  0  0  0  0  0  0  0  0  0  # atno 17342 bound_to 10162
  140.7797  143.3901  151.1325 LP  0  0  0  0  0  0  0  0  0  0  0  0  # atno 17343 bound_to 10162
  156.6273  130.4422  149.5800 LP  0  0  0  0  0  0  0  0  0  0  0  0  # atno 17370 bound_to 10713
  156.2309  130.6794  151.1462 LP  0  0  0  0  0  0  0  0  0  0  0  0  # atno 17371 bound_to 10713
  140.9915  134.1272  157.4404 LP  0  0  0  0  0  0  0  0  0  0  0  0  # atno 17394 bound_to 11000
  139.8825  135.0042  156.6232 LP  0  0  0  0  0  0  0  0  0  0  0  0  # atno 17395 bound_to 11000

$$$$
