AV-unprocessed.smi:265|AV-procd|sdf|2028|dock10
  -GOLD-   2262021233D 1   1.00000     0.00000
 Structure written by MMmdl.
 52 56  0  0  0  0  0  0  0  0  1 V2000
  148.2705  133.0215  153.4130 C   0  0  0  0  0  0  0  0  0  0  0  0
  148.9072  133.0125  154.8113 C   0  0  1  0  0  0  0  0  0  0  0  0
  149.9143  132.0069  154.9144 O   0  0  0  0  0  0  0  0  0  0  0  0
  151.0769  132.5299  155.5464 C   0  0  0  0  0  0  0  0  0  0  0  0
  150.6192  133.8104  156.2364 C   0  0  0  0  0  0  0  0  0  0  0  0
  149.5527  134.3351  155.2850 C   0  0  1  0  0  0  0  0  0  0  0  0
  150.1971  134.9859  154.2023 O   0  0  0  0  0  0  0  0  0  0  0  0
  148.5829  135.3797  155.8964 C   0  0  0  0  0  0  0  0  0  0  0  0
  149.2207  136.5728  156.4314 N   0  0  0  0  0  0  0  0  0  0  0  0
  149.3823  136.8999  157.7588 C   0  0  0  0  0  0  0  0  0  0  0  0
  149.9979  138.0283  157.9837 N   0  0  0  0  0  0  0  0  0  0  0  0
  150.2945  138.5128  156.7149 C   0  0  0  0  0  0  0  0  0  0  0  0
  150.9544  139.6761  156.2264 C   0  0  0  0  0  0  0  0  0  0  0  0
  151.4448  140.6411  157.0455 N   0  0  0  0  0  0  0  0  0  0  0  0
  152.1210  140.1394  158.2452 C   0  0  0  0  0  0  0  0  0  0  0  0
  152.9623  141.2407  158.9169 C   0  0  0  0  0  0  0  0  0  0  0  0
  152.0921  142.4758  159.1830 C   0  0  1  0  0  0  0  0  0  0  0  0
  152.8477  143.5565  159.7084 O   0  0  0  0  0  0  0  0  0  0  0  0
  152.0421  144.6687  160.1141 C   0  0  0  0  0  0  0  0  0  0  0  0
  150.9855  145.0602  159.0588 C   0  0  0  0  0  0  0  0  0  0  0  0
  150.3888  146.1298  159.1578 O   0  0  0  0  0  0  0  0  0  0  0  0
  150.7185  144.1868  158.0737 N   0  0  0  0  0  0  0  0  0  0  0  0
  151.4849  142.9664  157.8596 C   0  0  2  0  0  0  0  0  0  0  0  0
  150.6372  141.8517  157.2268 C   0  0  0  0  0  0  0  0  0  0  0  0
  151.0842  139.8005  154.8781 N   0  0  0  0  0  0  0  0  0  0  0  0
  150.5969  138.8608  154.0626 C   0  0  0  0  0  0  0  0  0  0  0  0
  149.9565  137.7337  154.3774 N   0  0  0  0  0  0  0  0  0  0  0  0
  149.8264  137.5998  155.7282 C   0  0  0  0  0  0  0  0  0  0  0  0
  151.3058  142.2053  159.8915 H   0  0  0  0  0  0  0  0  0  0  0  0
  152.2925  143.2207  157.1706 H   0  0  0  0  0  0  0  0  0  0  0  0
  147.5062  133.7952  153.3365 H   0  0  0  0  0  0  0  0  0  0  0  0
  147.7950  132.0639  153.2005 H   0  0  0  0  0  0  0  0  0  0  0  0
  149.0114  133.1988  152.6332 H   0  0  0  0  0  0  0  0  0  0  0  0
  148.1463  132.7067  155.5277 H   0  0  0  0  0  0  0  0  0  0  0  0
  151.5107  131.8111  156.2418 H   0  0  0  0  0  0  0  0  0  0  0  0
  151.8217  132.7525  154.7813 H   0  0  0  0  0  0  0  0  0  0  0  0
  150.1864  133.5455  157.2004 H   0  0  0  0  0  0  0  0  0  0  0  0
  151.4322  134.5147  156.4173 H   0  0  0  0  0  0  0  0  0  0  0  0
  149.5595  135.5107  153.7433 H   0  0  0  0  0  0  0  0  0  0  0  0
  147.8569  135.6965  155.1462 H   0  0  0  0  0  0  0  0  0  0  0  0
  148.0041  134.9211  156.6993 H   0  0  0  0  0  0  0  0  0  0  0  0
  149.0224  136.2730  158.5618 H   0  0  0  0  0  0  0  0  0  0  0  0
  151.3643  139.7773  158.9425 H   0  0  0  0  0  0  0  0  0  0  0  0
  152.7626  139.2894  158.0167 H   0  0  0  0  0  0  0  0  0  0  0  0
  153.3881  140.8705  159.8498 H   0  0  0  0  0  0  0  0  0  0  0  0
  153.8011  141.5076  158.2725 H   0  0  0  0  0  0  0  0  0  0  0  0
  151.5309  144.4201  161.0449 H   0  0  0  0  0  0  0  0  0  0  0  0
  152.6905  145.5206  160.3199 H   0  0  0  0  0  0  0  0  0  0  0  0
  150.0053  144.4194  157.3978 H   0  0  0  0  0  0  0  0  0  0  0  0
  150.2522  142.1890  156.2633 H   0  0  0  0  0  0  0  0  0  0  0  0
  149.7782  141.6242  157.8602 H   0  0  0  0  0  0  0  0  0  0  0  0
  150.7394  139.0380  153.0068 H   0  0  0  0  0  0  0  0  0  0  0  0
  1  2  1  0  0  0  0
  1 31  1  0  0  0  0
  1 32  1  0  0  0  0
  1 33  1  0  0  0  0
  2  6  1  0  0  0  0
  2  3  1  0  0  0  0
  2 34  1  0  0  0  0
  3  4  1  0  0  0  0
  4  5  1  0  0  0  0
  4 35  1  0  0  0  0
  4 36  1  0  0  0  0
  5  6  1  0  0  0  0
  5 37  1  0  0  0  0
  5 38  1  0  0  0  0
  6  7  1  0  0  0  0
  6  8  1  0  0  0  0
  7 39  1  0  0  0  0
  8  9  1  0  0  0  0
  8 40  1  0  0  0  0
  8 41  1  0  0  0  0
  9 28  1  0  0  0  0
  9 10  1  0  0  0  0
 10 11  2  0  0  0  0
 10 42  1  0  0  0  0
 11 12  1  0  0  0  0
 12 28  2  0  0  0  0
 12 13  1  0  0  0  0
 13 14  1  0  0  0  0
 13 25  2  0  0  0  0
 14 24  1  0  0  0  0
 14 15  1  0  0  0  0
 15 16  1  0  0  0  0
 15 43  1  0  0  0  0
 15 44  1  0  0  0  0
 16 17  1  0  0  0  0
 16 45  1  0  0  0  0
 16 46  1  0  0  0  0
 17 29  1  0  0  0  0
 17 23  1  0  0  0  0
 17 18  1  0  0  0  0
 18 19  1  0  0  0  0
 19 20  1  0  0  0  0
 19 47  1  0  0  0  0
 19 48  1  0  0  0  0
 20 21  2  0  0  0  0
 20 22  1  0  0  0  0
 22 23  1  0  0  0  0
 22 49  1  0  0  0  0
 23 30  1  0  0  0  0
 23 24  1  0  0  0  0
 24 50  1  0  0  0  0
 24 51  1  0  0  0  0
 25 26  1  0  0  0  0
 26 27  2  0  0  0  0
 26 52  1  0  0  0  0
 27 28  1  0  0  0  0
M  END
> <s_m_source_file>
AV-unprocessed.smi

> <i_m_source_file_index>
265

> <i_lp_mmshare_version>
43012

> <i_f3d_flags>
0

> <s_epik_input>
W0NIMl0xW0NIMl1PW0NAQEhdKFtDSDNdKVtDQEBdMShbT0hdKVtDSDJdbihbY0hdbjIpYyhjMjMpbltjSF1uYzNOKFtDSDJdW0NIMl00KVtDSDJdW0NAQEhdKFtDQEhdNDUpW05IXUMoPU8pW0NIMl1PNQ==

> <s_epik_cmdline>
J2VwaWtfcHl0aG9uJywgJy1waCcsICc3LjAnLCAnLXRuJywgJzgnLCAnLW1hJywgJzIwMCcsICctbWV0YWxfYmluZGluZycsICctaW1hZScsICc8aW5maWxlLm1hZT4nLCAnLW9tYWUnLCAnPG91dGZpbGUubWFlPic=

> <r_lp_tautomer_probability>
1

> <r_epik_Ionization_Penalty>
0.00221504

> <r_epik_Ionization_Penalty_Charging>
0

> <r_epik_Ionization_Penalty_Neutral>
0.00221504

> <r_epik_State_Penalty>
-0

> <r_epik_Charging_Adjusted_Penalty>
0

> <i_epik_Tot_Q>
0

> <i_epik_Tot_abs_Q>
0

> <r_epik_Metal_State_Penalty>
-0

> <b_epik_Metal_Only>
0

> <s_lp_Force_Field>
OPLS_2005

> <r_lp_Energy>
47.2889

> <b_lp_Chiralities_Consistent>
1

> <s_lp_Variant>
AV-unprocessed.smi:265-14

> <Gold.Version>
5.8.1

> <Gold.Id.Protein>
6NUR|6NUR_protein|mol2

> <Gold.PLP.Fitness>
46.4952

> <Gold.PLP.PLP>
-36.8824

> <Gold.PLP.part.hbond>
-6.1773

> <Gold.PLP.part.metal>
0.0000

> <Gold.PLP.part.buried>
-2.6064

> <Gold.PLP.part.nonpolar>
-29.0826

> <Gold.PLP.part.repulsive>
1.1166

> <Gold.PLP.ligand.clash>
0.0000

> <Gold.PLP.ligand.torsion>
0.6772

> <Gold.PLP.Chemscore.Hbond>
2.5143

> <Gold.PLP.Chemscore.CHOScore>
1.0000

> <Gold.PLP.Chemscore.Metal>
0.0000

> <Gold.Chemscore.Hbonds>
donor molecule, donor type, donor heavy atom, donor atom, acceptor molecule, acceptor atom, score
      L1  H     7    39       P1  7948  0.71
      L1  H    22    49       P1  8028  0.94
      P1  H  7989  7998       L1    25  0.65
      L1  C    26    52       P1  7957  1.00

> <Gold.PLP.Chemscore.Internal.Correction>
0.4243

> <Gold.Rescore>
     Score         DG    S(hbond)    S(metal)    S(lipo)     H(rot)  DE(clash)    DE(int)     intcor
      8.92     -14.41       1.68        0.00      77.54       2.25       2.84       2.65       ----

> <Gold.Chemscore.Fitness>
8.9246

> <Gold.Chemscore.DG>
-14.4080

> <Gold.Chemscore.ZeroCoef>
-5.4800

> <Gold.Chemscore.Hbond>
1.6778

> <Gold.Chemscore.Metal>
0.0000

> <Gold.Chemscore.Lipo>
77.5377

> <Gold.Chemscore.Internal_Hbond>
0.0000

> <Gold.Chemscore.DEClash>
2.8365

> <Gold.Chemscore.DEInternal>
2.6469

> <Gold.Chemscore.Rot>
2.2453

> <Gold.Chemscore.Internal.Correction>
   9.000000E+99

> <Gold.Chemscore.Hbonds>
donor molecule, donor type, donor heavy atom, donor atom, acceptor molecule, acceptor atom, score
      L1  H     7    39       P1  7948  0.13
      L1  H    22    49       P1  8028  0.31
      P1  H  7989  7998       L1    25  0.06

> <Gold.Chemscore.Hbond.Weighted>
-5.6040

> <Gold.Chemscore.Metal.Weighted>
-0.0000

> <Gold.Chemscore.Lipo.Weighted>
-9.0719

> <Gold.Chemscore.Internal_Hbond.Weighted>
0.0000

> <Gold.Chemscore.DEClash.Weighted>
2.8365

> <Gold.Chemscore.DEInternal.Weighted>
2.6469

> <Gold.Chemscore.Rot.Weighted>
5.7479

> <Gold.Chemscore.Internal.Correction.Weighted>
   9.000000E+99

> <Gold.Protein.RotatedTorsions>
[ 6907 6896 6895 6894 ] final   26.84 input  -60.11 | X-H torsion
[ 7974 7965 7964 7962 ] final   34.31 input  175.53 | X-H torsion
[ 8008 7997 7996 7995 ] final -102.38 input   59.86 | X-H torsion
[ 10167 10162 10161 10158 ] final -146.95 input  -65.29 | X-H torsion
[ 10718 10713 10712 10709 ] final  168.58 input   66.30 | X-H torsion
[ 10763 10752 10751 10750 ] final -144.90 input  -60.55 | X-H torsion
[ 11005 11000 10999 10996 ] final  -96.25 input  -57.11 | X-H torsion

> <Gold.Protein.ActiveResidues>
 VAL166  LYS551  ARG553  GLY616  TRP617  ASP618  TYR619  PRO620  LYS621  CYS622 
 ASP623  PHE694  ASN695  SER759  ASP760  ASP761  ALA762  ILE779  LEU786  VAL792 
 PHE793  MET794  SER795  GLU796  ALA797  LYS798  CYS799  TRP800  GLU811  SER814 

> <Gold.Protein.RotatedAtoms>
  151.9934  134.9967  160.0562 H   0  0  0  0  0  0  0  0  0  0  0  0  # atno 6907 bound_to 6896
  152.1587  133.4563  159.4858 H   0  0  0  0  0  0  0  0  0  0  0  0  # atno 6908 bound_to 6896
  150.6885  134.2017  159.4367 H   0  0  0  0  0  0  0  0  0  0  0  0  # atno 6909 bound_to 6896
  146.1362  139.6286  142.9194 H   0  0  0  0  0  0  0  0  0  0  0  0  # atno 7974 bound_to 7965
  154.8559  140.0429  157.1634 H   0  0  0  0  0  0  0  0  0  0  0  0  # atno 8008 bound_to 7997
  154.8893  140.2984  155.5359 H   0  0  0  0  0  0  0  0  0  0  0  0  # atno 8009 bound_to 7997
  156.2997  140.2396  156.3906 H   0  0  0  0  0  0  0  0  0  0  0  0  # atno 8010 bound_to 7997
  139.7666  143.8298  152.2617 H   0  0  0  0  0  0  0  0  0  0  0  0  # atno 10167 bound_to 10162
  157.0350  131.0270  151.2732 H   0  0  0  0  0  0  0  0  0  0  0  0  # atno 10718 bound_to 10713
  154.8407  135.3427  154.6420 H   0  0  0  0  0  0  0  0  0  0  0  0  # atno 10763 bound_to 10752
  153.7031  135.6968  153.5062 H   0  0  0  0  0  0  0  0  0  0  0  0  # atno 10764 bound_to 10752
  153.2508  135.4354  155.0749 H   0  0  0  0  0  0  0  0  0  0  0  0  # atno 10765 bound_to 10752
  141.1417  133.8084  157.0545 H   0  0  0  0  0  0  0  0  0  0  0  0  # atno 11005 bound_to 11000
  145.5151  141.0434  143.2466 LP  0  0  0  0  0  0  0  0  0  0  0  0  # atno 17320 bound_to 7965
  144.7742  139.6667  143.7182 LP  0  0  0  0  0  0  0  0  0  0  0  0  # atno 17321 bound_to 7965
  139.8320  144.7249  150.9438 LP  0  0  0  0  0  0  0  0  0  0  0  0  # atno 17342 bound_to 10162
  140.7811  143.4061  151.1069 LP  0  0  0  0  0  0  0  0  0  0  0  0  # atno 17343 bound_to 10162
  157.5148  130.7961  149.7745 LP  0  0  0  0  0  0  0  0  0  0  0  0  # atno 17370 bound_to 10713
  156.0057  130.3857  150.2441 LP  0  0  0  0  0  0  0  0  0  0  0  0  # atno 17371 bound_to 10713
  140.0610  134.9754  157.1305 LP  0  0  0  0  0  0  0  0  0  0  0  0  # atno 17394 bound_to 11000
  140.3848  134.2248  155.7169 LP  0  0  0  0  0  0  0  0  0  0  0  0  # atno 17395 bound_to 11000

$$$$
