AV-unprocessed.smi:1389|AV-procd|sdf|5647|dock6
  -GOLD-   22720 5263D 1   1.00000     0.00000
 Structure written by MMmdl.
 51 53  0  0  0  0  0  0  0  0  1 V2000
  151.0285  135.0292  155.8249 C   0  0  0  0  0  0  0  0  0  0  0  0
  150.1400  136.0189  155.0371 C   0  0  1  0  0  0  0  0  0  0  0  0
  148.6633  135.5654  155.1752 C   0  0  0  0  0  0  0  0  0  0  0  0
  148.2822  134.6213  154.1269 N   0  0  0  0  0  0  0  0  0  0  0  0
  147.9721  133.3307  154.3121 C   0  0  0  0  0  0  0  0  0  0  0  0
  148.0220  132.7640  155.4039 O   0  0  0  0  0  0  0  0  0  0  0  0
  147.5747  132.7602  153.1632 N   0  0  0  0  0  0  0  0  0  0  0  0
  147.1321  131.4232  152.9574 C   0  0  0  0  0  0  0  0  0  0  0  0
  147.7087  130.3254  153.6409 C   0  0  0  0  0  0  0  0  0  0  0  0
  147.2332  129.0281  153.3802 C   0  0  0  0  0  0  0  0  0  0  0  0
  146.2025  128.8729  152.4370 C   0  0  0  0  0  0  0  0  0  0  0  0
  145.6551  129.9061  151.7655 N   0  0  0  0  0  0  0  0  0  0  0  0
  146.1035  131.1614  152.0125 C   0  0  0  0  0  0  0  0  0  0  0  0
  145.5323  132.2185  151.2738 N   0  0  0  0  0  0  0  0  0  0  0  0
  145.7293  132.1019  149.8320 C   0  0  0  0  0  0  0  0  0  0  0  0
  144.4760  132.6860  149.1788 C   0  0  0  0  0  0  0  0  0  0  0  0
  143.3960  132.4257  150.2218 C   0  0  0  0  0  0  0  0  0  0  0  0
  144.1499  132.6167  151.5370 C   0  0  0  0  0  0  0  0  0  0  0  0
  150.3708  137.4350  155.3989 N   0  0  0  0  0  0  0  0  0  0  0  0
  151.7886  137.8044  155.3489 C   0  0  0  0  0  0  0  0  0  0  0  0
  152.0277  139.2805  155.7106 C   0  0  0  0  0  0  0  0  0  0  0  0
  151.2725  140.1144  154.8416 O   0  0  0  0  0  0  0  0  0  0  0  0
  149.8800  139.8366  154.9062 C   0  0  0  0  0  0  0  0  0  0  0  0
  149.6278  138.3636  154.5415 C   0  0  0  0  0  0  0  0  0  0  0  0
  150.7389  133.9962  155.6300 H   0  0  0  0  0  0  0  0  0  0  0  0
  150.9544  135.1932  156.9005 H   0  0  0  0  0  0  0  0  0  0  0  0
  152.0782  135.1094  155.5442 H   0  0  0  0  0  0  0  0  0  0  0  0
  150.4008  135.8961  153.9848 H   0  0  0  0  0  0  0  0  0  0  0  0
  148.4811  135.0980  156.1419 H   0  0  0  0  0  0  0  0  0  0  0  0
  148.0081  136.4381  155.1717 H   0  0  0  0  0  0  0  0  0  0  0  0
  148.2031  134.9966  153.1932 H   0  0  0  0  0  0  0  0  0  0  0  0
  147.4755  133.3768  152.3701 H   0  0  0  0  0  0  0  0  0  0  0  0
  148.5141  130.4566  154.3476 H   0  0  0  0  0  0  0  0  0  0  0  0
  147.6529  128.1725  153.8883 H   0  0  0  0  0  0  0  0  0  0  0  0
  145.8127  127.8920  152.2089 H   0  0  0  0  0  0  0  0  0  0  0  0
  146.6263  132.6324  149.5123 H   0  0  0  0  0  0  0  0  0  0  0  0
  145.8421  131.0527  149.5526 H   0  0  0  0  0  0  0  0  0  0  0  0
  144.5990  133.7605  149.0352 H   0  0  0  0  0  0  0  0  0  0  0  0
  144.2540  132.2377  148.2101 H   0  0  0  0  0  0  0  0  0  0  0  0
  142.5367  133.0897  150.1243 H   0  0  0  0  0  0  0  0  0  0  0  0
  143.0428  131.3965  150.1421 H   0  0  0  0  0  0  0  0  0  0  0  0
  143.6714  132.0819  152.3574 H   0  0  0  0  0  0  0  0  0  0  0  0
  144.1568  133.6721  151.8102 H   0  0  0  0  0  0  0  0  0  0  0  0
  152.3660  137.1996  156.0465 H   0  0  0  0  0  0  0  0  0  0  0  0
  152.1880  137.6066  154.3529 H   0  0  0  0  0  0  0  0  0  0  0  0
  151.7483  139.4746  156.7474 H   0  0  0  0  0  0  0  0  0  0  0  0
  153.0846  139.5282  155.6119 H   0  0  0  0  0  0  0  0  0  0  0  0
  149.5023  140.0568  155.9059 H   0  0  0  0  0  0  0  0  0  0  0  0
  149.3539  140.4938  154.2136 H   0  0  0  0  0  0  0  0  0  0  0  0
  149.8975  138.1988  153.4970 H   0  0  0  0  0  0  0  0  0  0  0  0
  148.5566  138.1875  154.6225 H   0  0  0  0  0  0  0  0  0  0  0  0
  1  2  1  0  0  0  0
  1 25  1  0  0  0  0
  1 26  1  0  0  0  0
  1 27  1  0  0  0  0
  2  3  1  0  0  0  0
  2 19  1  0  0  0  0
  2 28  1  0  0  0  0
  3  4  1  0  0  0  0
  3 29  1  0  0  0  0
  3 30  1  0  0  0  0
  4  5  1  0  0  0  0
  4 31  1  0  0  0  0
  5  6  2  0  0  0  0
  5  7  1  0  0  0  0
  7  8  1  0  0  0  0
  7 32  1  0  0  0  0
  8 13  1  0  0  0  0
  8  9  2  0  0  0  0
  9 10  1  0  0  0  0
  9 33  1  0  0  0  0
 10 11  2  0  0  0  0
 10 34  1  0  0  0  0
 11 12  1  0  0  0  0
 11 35  1  0  0  0  0
 12 13  2  0  0  0  0
 13 14  1  0  0  0  0
 14 18  1  0  0  0  0
 14 15  1  0  0  0  0
 15 16  1  0  0  0  0
 15 36  1  0  0  0  0
 15 37  1  0  0  0  0
 16 17  1  0  0  0  0
 16 38  1  0  0  0  0
 16 39  1  0  0  0  0
 17 18  1  0  0  0  0
 17 40  1  0  0  0  0
 17 41  1  0  0  0  0
 18 42  1  0  0  0  0
 18 43  1  0  0  0  0
 19 24  1  0  0  0  0
 19 20  1  0  0  0  0
 20 21  1  0  0  0  0
 20 44  1  0  0  0  0
 20 45  1  0  0  0  0
 21 22  1  0  0  0  0
 21 46  1  0  0  0  0
 21 47  1  0  0  0  0
 22 23  1  0  0  0  0
 23 24  1  0  0  0  0
 23 48  1  0  0  0  0
 23 49  1  0  0  0  0
 24 50  1  0  0  0  0
 24 51  1  0  0  0  0
M  END
> <s_m_source_file>
AV-unprocessed.smi

> <i_m_source_file_index>
1389

> <i_lp_mmshare_version>
43012

> <i_f3d_flags>
0

> <s_epik_input>
W0NIMl0xW0NIMl1PW0NIMl1bQ0gyXU4xW0NASF0oW0NIM10pW0NIMl1bTkhdQyg9TylbTkhdYzJbY0hdW2NIXVtjSF1uYzJOM1tDSDJdW0NIMl1bQ0gyXVtDSDJdMw==

> <s_epik_cmdline>
J2VwaWtfcHl0aG9uJywgJy1waCcsICc3LjAnLCAnLXRuJywgJzgnLCAnLW1hJywgJzIwMCcsICctbWV0YWxfYmluZGluZycsICctaW1hZScsICc8aW5maWxlLm1hZT4nLCAnLW9tYWUnLCAnPG91dGZpbGUubWFlPic=

> <r_lp_tautomer_probability>
1

> <r_epik_Ionization_Penalty>
0.365229

> <r_epik_Ionization_Penalty_Charging>
0

> <r_epik_Ionization_Penalty_Neutral>
0.365229

> <r_epik_State_Penalty>
0.350519

> <r_epik_Charging_Adjusted_Penalty>
0.350519

> <i_epik_Tot_Q>
0

> <i_epik_Tot_abs_Q>
0

> <r_epik_Metal_State_Penalty>
0.33386

> <b_epik_Metal_Only>
0

> <s_lp_Force_Field>
OPLS_2005

> <r_lp_Energy>
61.7302

> <b_lp_Chiralities_Consistent>
1

> <s_lp_Variant>
AV-unprocessed.smi:1389-2

> <Gold.Version>
5.8.1

> <Gold.Id.Protein>
6NUR|6NUR_protein|mol2

> <Gold.PLP.Fitness>
44.4054

> <Gold.PLP.PLP>
-40.1646

> <Gold.PLP.part.hbond>
-1.9190

> <Gold.PLP.part.metal>
0.0000

> <Gold.PLP.part.buried>
-4.4656

> <Gold.PLP.part.nonpolar>
-33.4386

> <Gold.PLP.part.repulsive>
0.4179

> <Gold.PLP.ligand.clash>
0.0000

> <Gold.PLP.ligand.torsion>
0.8430

> <Gold.PLP.Chemscore.Hbond>
1.9193

> <Gold.PLP.Chemscore.CHOScore>
0.0000

> <Gold.PLP.Chemscore.Metal>
0.0000

> <Gold.Chemscore.Hbonds>
donor molecule, donor type, donor heavy atom, donor atom, acceptor molecule, acceptor atom, score
      L1  H     4    31       P1  7948  0.93
      P1  H  7989  7998       L1    22  1.00

> <Gold.PLP.Chemscore.Internal.Correction>
0.1690

> <Gold.Rescore>
     Score         DG    S(hbond)    S(metal)    S(lipo)     H(rot)  DE(clash)    DE(int)     intcor
     17.54     -19.58       1.78        0.00     104.22       1.57       0.03       2.01       ----

> <Gold.Chemscore.Fitness>
17.5431

> <Gold.Chemscore.DG>
-19.5806

> <Gold.Chemscore.ZeroCoef>
-5.4800

> <Gold.Chemscore.Hbond>
1.7755

> <Gold.Chemscore.Metal>
0.0000

> <Gold.Chemscore.Lipo>
104.2247

> <Gold.Chemscore.Internal_Hbond>
0.0000

> <Gold.Chemscore.DEClash>
0.0262

> <Gold.Chemscore.DEInternal>
2.0113

> <Gold.Chemscore.Rot>
1.5718

> <Gold.Chemscore.Internal.Correction>
   9.000000E+99

> <Gold.Chemscore.Hbonds>
donor molecule, donor type, donor heavy atom, donor atom, acceptor molecule, acceptor atom, score
      L1  H     4    31       P1  7948  0.82
      P1  H  7989  7998       L1    22  0.76

> <Gold.Chemscore.Hbond.Weighted>
-5.9302

> <Gold.Chemscore.Metal.Weighted>
-0.0000

> <Gold.Chemscore.Lipo.Weighted>
-12.1943

> <Gold.Chemscore.Internal_Hbond.Weighted>
0.0000

> <Gold.Chemscore.DEClash.Weighted>
0.0262

> <Gold.Chemscore.DEInternal.Weighted>
2.0113

> <Gold.Chemscore.Rot.Weighted>
4.0239

> <Gold.Chemscore.Internal.Correction.Weighted>
   9.000000E+99

> <Gold.Protein.RotatedTorsions>
[ 6907 6896 6895 6894 ] final   38.34 input  -60.11 | X-H torsion
[ 7974 7965 7964 7962 ] final   32.36 input  175.53 | X-H torsion
[ 8008 7997 7996 7995 ] final  -67.82 input   59.86 | X-H torsion
[ 10167 10162 10161 10158 ] final -133.73 input  -65.29 | X-H torsion
[ 10718 10713 10712 10709 ] final  108.10 input   66.30 | X-H torsion
[ 10763 10752 10751 10750 ] final  -31.89 input  -60.55 | X-H torsion
[ 11005 11000 10999 10996 ] final   80.06 input  -57.11 | X-H torsion

> <Gold.Protein.ActiveResidues>
 VAL166  LYS551  ARG553  GLY616  TRP617  ASP618  TYR619  PRO620  LYS621  CYS622 
 ASP623  PHE694  ASN695  SER759  ASP760  ASP761  ALA762  ILE779  LEU786  VAL792 
 PHE793  MET794  SER795  GLU796  ALA797  LYS798  CYS799  TRP800  GLU811  SER814 

> <Gold.Protein.RotatedAtoms>
  152.1551  134.8957  160.0545 H   0  0  0  0  0  0  0  0  0  0  0  0  # atno 6907 bound_to 6896
  151.9974  133.3808  159.4176 H   0  0  0  0  0  0  0  0  0  0  0  0  # atno 6908 bound_to 6896
  150.6880  134.3793  159.5071 H   0  0  0  0  0  0  0  0  0  0  0  0  # atno 6909 bound_to 6896
  146.1491  139.6536  142.9111 H   0  0  0  0  0  0  0  0  0  0  0  0  # atno 7974 bound_to 7965
  154.4825  140.0885  156.7411 H   0  0  0  0  0  0  0  0  0  0  0  0  # atno 8008 bound_to 7997
  155.4433  140.3454  155.4274 H   0  0  0  0  0  0  0  0  0  0  0  0  # atno 8009 bound_to 7997
  156.1213  140.1475  156.9189 H   0  0  0  0  0  0  0  0  0  0  0  0  # atno 8010 bound_to 7997
  139.8953  143.6673  152.2605 H   0  0  0  0  0  0  0  0  0  0  0  0  # atno 10167 bound_to 10162
  157.6600  131.0887  150.6256 H   0  0  0  0  0  0  0  0  0  0  0  0  # atno 10718 bound_to 10713
  153.8048  135.6887  153.4850 H   0  0  0  0  0  0  0  0  0  0  0  0  # atno 10763 bound_to 10752
  153.1666  135.4559  154.9843 H   0  0  0  0  0  0  0  0  0  0  0  0  # atno 10764 bound_to 10752
  154.7992  135.3331  154.7533 H   0  0  0  0  0  0  0  0  0  0  0  0  # atno 10765 bound_to 10752
  139.9148  134.7891  156.1860 H   0  0  0  0  0  0  0  0  0  0  0  0  # atno 11005 bound_to 11000
  145.4866  141.0438  143.2616 LP  0  0  0  0  0  0  0  0  0  0  0  0  # atno 17320 bound_to 7965
  144.7882  139.6382  143.7125 LP  0  0  0  0  0  0  0  0  0  0  0  0  # atno 17321 bound_to 7965
  139.7073  144.7626  151.1171 LP  0  0  0  0  0  0  0  0  0  0  0  0  # atno 17342 bound_to 10162
  140.7718  143.5377  150.9349 LP  0  0  0  0  0  0  0  0  0  0  0  0  # atno 17343 bound_to 10162
  156.6559  130.4498  149.5703 LP  0  0  0  0  0  0  0  0  0  0  0  0  # atno 17370 bound_to 10713
  156.2103  130.6674  151.1262 LP  0  0  0  0  0  0  0  0  0  0  0  0  # atno 17371 bound_to 10713
  141.0613  133.6840  156.1958 LP  0  0  0  0  0  0  0  0  0  0  0  0  # atno 17394 bound_to 11000
  140.6657  134.4921  157.5585 LP  0  0  0  0  0  0  0  0  0  0  0  0  # atno 17395 bound_to 11000

$$$$
