AV-unprocessed.smi:12|AV-procd|sdf|66|dock3
  -GOLD-   2262015183D 1   1.00000     0.00000
 Structure written by MMmdl.
 41 44  0  0  0  0  0  0  0  0  1 V2000
  151.9057  143.6640  159.0312 C   0  0  0  0  0  0  0  0  0  0  0  0
  151.5825  142.4527  158.1751 C   0  0  0  0  0  0  0  0  0  0  0  0
  150.9931  142.5753  156.9623 C   0  0  0  0  0  0  0  0  0  0  0  0
  150.7202  141.4520  156.2327 N   0  0  0  0  0  0  0  0  0  0  0  0
  151.0695  140.1831  156.7429 C   0  0  0  0  0  0  0  0  0  0  0  0
  151.6343  139.9830  157.8929 N   0  0  0  0  0  0  0  0  0  0  0  0
  151.9251  141.1043  158.6937 C   0  0  0  0  0  0  0  0  0  0  0  0
  152.4536  140.9638  159.7957 O   0  0  0  0  0  0  0  0  0  0  0  0
  150.7321  139.2309  155.8298 O   0  0  0  0  0  0  0  0  0  0  0  0
  150.1573  139.8507  154.6713 C   0  0  1  0  0  0  0  0  0  0  0  0
  148.6912  139.4605  154.5068 C   0  0  2  0  0  0  0  0  0  0  0  0
  148.5234  138.5970  153.4004 O   0  0  0  0  0  0  0  0  0  0  0  0
  147.9863  140.8013  154.2788 C   0  0  1  0  0  0  0  0  0  0  0  0
  146.5236  140.8362  154.7391 C   0  0  0  0  0  0  0  0  0  0  0  0
  146.0559  142.1749  154.7140 O   0  0  0  0  0  0  0  0  0  0  0  0
  145.1307  142.5855  155.6026 C   0  0  0  0  0  0  0  0  0  0  0  0
  144.8905  141.9968  156.6586 O   0  0  0  0  0  0  0  0  0  0  0  0
  144.4296  143.8306  155.1752 C   0  0  0  0  0  0  0  0  0  0  0  0
  144.7364  144.4027  153.9182 C   0  0  0  0  0  0  0  0  0  0  0  0
  144.0873  145.5755  153.4861 C   0  0  0  0  0  0  0  0  0  0  0  0
  143.1239  146.1917  154.3061 C   0  0  0  0  0  0  0  0  0  0  0  0
  142.8118  145.6343  155.5598 C   0  0  0  0  0  0  0  0  0  0  0  0
  143.4595  144.4610  155.9934 C   0  0  0  0  0  0  0  0  0  0  0  0
  148.7537  141.7158  155.0447 O   0  0  0  0  0  0  0  0  0  0  0  0
  150.0947  141.3708  154.9139 C   0  0  1  0  0  0  0  0  0  0  0  0
  151.6008  144.5888  158.5403 H   0  0  0  0  0  0  0  0  0  0  0  0
  152.9777  143.7212  159.2223 H   0  0  0  0  0  0  0  0  0  0  0  0
  151.3875  143.6042  159.9887 H   0  0  0  0  0  0  0  0  0  0  0  0
  150.7317  143.5454  156.5654 H   0  0  0  0  0  0  0  0  0  0  0  0
  150.7569  139.6582  153.7802 H   0  0  0  0  0  0  0  0  0  0  0  0
  148.3211  138.9844  155.4163 H   0  0  0  0  0  0  0  0  0  0  0  0
  148.7356  139.0747  152.6129 H   0  0  0  0  0  0  0  0  0  0  0  0
  148.0637  141.1038  153.2324 H   0  0  0  0  0  0  0  0  0  0  0  0
  145.9051  140.2046  154.1000 H   0  0  0  0  0  0  0  0  0  0  0  0
  146.4482  140.4480  155.7559 H   0  0  0  0  0  0  0  0  0  0  0  0
  145.4718  143.9471  153.2707 H   0  0  0  0  0  0  0  0  0  0  0  0
  144.3289  146.0022  152.5236 H   0  0  0  0  0  0  0  0  0  0  0  0
  142.6254  147.0905  153.9739 H   0  0  0  0  0  0  0  0  0  0  0  0
  142.0735  146.1069  156.1909 H   0  0  0  0  0  0  0  0  0  0  0  0
  143.1955  144.0601  156.9612 H   0  0  0  0  0  0  0  0  0  0  0  0
  150.6842  141.9915  154.2382 H   0  0  0  0  0  0  0  0  0  0  0  0
  1  2  1  0  0  0  0
  1 26  1  0  0  0  0
  1 27  1  0  0  0  0
  1 28  1  0  0  0  0
  2  7  1  0  0  0  0
  2  3  2  0  0  0  0
  3  4  1  0  0  0  0
  3 29  1  0  0  0  0
  4 25  1  0  0  0  0
  4  5  1  0  0  0  0
  5  6  2  0  0  0  0
  5  9  1  0  0  0  0
  6  7  1  0  0  0  0
  7  8  2  0  0  0  0
  9 10  1  0  0  0  0
 10 25  1  0  0  0  0
 10 11  1  0  0  0  0
 10 30  1  0  0  0  0
 11 12  1  0  0  0  0
 11 13  1  0  0  0  0
 11 31  1  0  0  0  0
 12 32  1  0  0  0  0
 13 14  1  0  0  0  0
 13 24  1  0  0  0  0
 13 33  1  0  0  0  0
 14 15  1  0  0  0  0
 14 34  1  0  0  0  0
 14 35  1  0  0  0  0
 15 16  1  0  0  0  0
 16 17  2  0  0  0  0
 16 18  1  0  0  0  0
 18 23  1  0  0  0  0
 18 19  2  0  0  0  0
 19 20  1  0  0  0  0
 19 36  1  0  0  0  0
 20 21  2  0  0  0  0
 20 37  1  0  0  0  0
 21 22  1  0  0  0  0
 21 38  1  0  0  0  0
 22 23  2  0  0  0  0
 22 39  1  0  0  0  0
 23 40  1  0  0  0  0
 24 25  1  0  0  0  0
 25 41  1  0  0  0  0
M  END
> <s_m_source_file>
AV-unprocessed.smi

> <i_m_source_file_index>
12

> <i_lp_mmshare_version>
43012

> <i_f3d_flags>
0

> <s_epik_input>
W0NIM11jKFtjSF0xKWMoPU8pbmMobjEyKU9bQ0BIXTNbQ0BASF0yT1tDQEBIXShbQ0BASF0zW09IXSlbQ0gyXU9DKD1PKWM0W2NIXVtjSF1bY0hdW2NIXVtjSF00

> <s_epik_cmdline>
J2VwaWtfcHl0aG9uJywgJy1waCcsICc3LjAnLCAnLXRuJywgJzgnLCAnLW1hJywgJzIwMCcsICctbWV0YWxfYmluZGluZycsICctaW1hZScsICc8aW5maWxlLm1hZT4nLCAnLW9tYWUnLCAnPG91dGZpbGUubWFlPic=

> <r_lp_tautomer_probability>
0.933681

> <r_epik_Ionization_Penalty>
0.00399549

> <r_epik_Ionization_Penalty_Charging>
3.09373e-09

> <r_epik_Ionization_Penalty_Neutral>
0.00399549

> <r_epik_State_Penalty>
0.00284953

> <r_epik_Charging_Adjusted_Penalty>
0.00284953

> <i_epik_Tot_Q>
0

> <i_epik_Tot_abs_Q>
0

> <r_epik_Metal_State_Penalty>
-0

> <b_epik_Metal_Only>
0

> <s_epik_Chemistry_Notes>
This compound has an ester and may undergo hydrolysis at high or low pH. This compound contains an acetal/aminal-like group ( X-CH(R)-Y where X, Y are N, S, or O) that may be acid/base labile, releasing an aldehyde.

> <s_lp_Force_Field>
OPLS_2005

> <r_lp_Energy>
41.0284

> <b_lp_Chiralities_Consistent>
1

> <s_lp_Variant>
AV-unprocessed.smi:12-6

> <Gold.Version>
5.8.1

> <Gold.Id.Protein>
6NUR|6NUR_protein|mol2

> <Gold.PLP.Fitness>
45.0469

> <Gold.PLP.PLP>
-40.0672

> <Gold.PLP.part.hbond>
-2.0000

> <Gold.PLP.part.metal>
0.0000

> <Gold.PLP.part.buried>
-4.0184

> <Gold.PLP.part.nonpolar>
-35.1235

> <Gold.PLP.part.repulsive>
0.8282

> <Gold.PLP.ligand.clash>
0.0000

> <Gold.PLP.ligand.torsion>
0.5141

> <Gold.PLP.Chemscore.Hbond>
1.0000

> <Gold.PLP.Chemscore.CHOScore>
1.0000

> <Gold.PLP.Chemscore.Metal>
0.0000

> <Gold.Chemscore.Hbonds>
donor molecule, donor type, donor heavy atom, donor atom, acceptor molecule, acceptor atom, score
      L1  H    12    32       P1  7957  1.00
      L1  C     3    29       P1  8028  1.00

> <Gold.PLP.Chemscore.Internal.Correction>
0.0080

> <Gold.Rescore>
     Score         DG    S(hbond)    S(metal)    S(lipo)     H(rot)  DE(clash)    DE(int)     intcor
     12.42     -13.90       0.97        0.00      91.84       2.18       0.96       0.52       ----

> <Gold.Chemscore.Fitness>
12.4241

> <Gold.Chemscore.DG>
-13.8971

> <Gold.Chemscore.ZeroCoef>
-5.4800

> <Gold.Chemscore.Hbond>
0.9740

> <Gold.Chemscore.Metal>
0.0000

> <Gold.Chemscore.Lipo>
91.8361

> <Gold.Chemscore.Internal_Hbond>
0.0000

> <Gold.Chemscore.DEClash>
0.9559

> <Gold.Chemscore.DEInternal>
0.5171

> <Gold.Chemscore.Rot>
2.1800

> <Gold.Chemscore.Internal.Correction>
   9.000000E+99

> <Gold.Chemscore.Hbonds>
donor molecule, donor type, donor heavy atom, donor atom, acceptor molecule, acceptor atom, score
      L1  H    12    32       P1  7957  0.99

> <Gold.Chemscore.Hbond.Weighted>
-3.2530

> <Gold.Chemscore.Metal.Weighted>
-0.0000

> <Gold.Chemscore.Lipo.Weighted>
-10.7448

> <Gold.Chemscore.Internal_Hbond.Weighted>
0.0000

> <Gold.Chemscore.DEClash.Weighted>
0.9559

> <Gold.Chemscore.DEInternal.Weighted>
0.5171

> <Gold.Chemscore.Rot.Weighted>
5.5807

> <Gold.Chemscore.Internal.Correction.Weighted>
   9.000000E+99

> <Gold.Protein.RotatedTorsions>
[ 6907 6896 6895 6894 ] final  177.95 input  -60.11 | X-H torsion
[ 7974 7965 7964 7962 ] final   27.25 input  175.53 | X-H torsion
[ 8008 7997 7996 7995 ] final  178.54 input   59.86 | X-H torsion
[ 10167 10162 10161 10158 ] final   12.23 input  -65.29 | X-H torsion
[ 10718 10713 10712 10709 ] final  132.55 input   66.30 | X-H torsion
[ 10763 10752 10751 10750 ] final -142.86 input  -60.55 | X-H torsion
[ 11005 11000 10999 10996 ] final  -74.21 input  -57.11 | X-H torsion

> <Gold.Protein.ActiveResidues>
 VAL166  LYS551  ARG553  GLY616  TRP617  ASP618  TYR619  PRO620  LYS621  CYS622 
 ASP623  PHE694  ASN695  SER759  ASP760  ASP761  ALA762  ILE779  LEU786  VAL792 
 PHE793  MET794  SER795  GLU796  ALA797  LYS798  CYS799  TRP800  GLU811  SER814 

> <Gold.Protein.RotatedAtoms>
  151.6957  133.3311  159.3253 H   0  0  0  0  0  0  0  0  0  0  0  0  # atno 6907 bound_to 6896
  150.7759  134.6660  159.6375 H   0  0  0  0  0  0  0  0  0  0  0  0  # atno 6908 bound_to 6896
  152.3800  134.6608  160.0198 H   0  0  0  0  0  0  0  0  0  0  0  0  # atno 6909 bound_to 6896
  146.1794  139.7217  142.8911 H   0  0  0  0  0  0  0  0  0  0  0  0  # atno 7974 bound_to 7965
  156.0535  140.1331  157.0023 H   0  0  0  0  0  0  0  0  0  0  0  0  # atno 8008 bound_to 7997
  154.4446  140.1006  156.6482 H   0  0  0  0  0  0  0  0  0  0  0  0  # atno 8009 bound_to 7997
  155.5487  140.3462  155.4466 H   0  0  0  0  0  0  0  0  0  0  0  0  # atno 8010 bound_to 7997
  140.6081  143.8465  150.7036 H   0  0  0  0  0  0  0  0  0  0  0  0  # atno 10167 bound_to 10162
  157.4860  131.1088  150.9619 H   0  0  0  0  0  0  0  0  0  0  0  0  # atno 10718 bound_to 10713
  154.8492  135.3484  154.6096 H   0  0  0  0  0  0  0  0  0  0  0  0  # atno 10763 bound_to 10752
  153.6704  135.6985  153.5153 H   0  0  0  0  0  0  0  0  0  0  0  0  # atno 10764 bound_to 10752
  153.2747  135.4282  155.0978 H   0  0  0  0  0  0  0  0  0  0  0  0  # atno 10765 bound_to 10752
  141.1632  133.6904  156.7330 H   0  0  0  0  0  0  0  0  0  0  0  0  # atno 11005 bound_to 11000
  145.4119  141.0397  143.3012 LP  0  0  0  0  0  0  0  0  0  0  0  0  # atno 17320 bound_to 7965
  144.8290  139.5661  143.6952 LP  0  0  0  0  0  0  0  0  0  0  0  0  # atno 17321 bound_to 7965
  140.2027  143.3947  152.1779 LP  0  0  0  0  0  0  0  0  0  0  0  0  # atno 17342 bound_to 10162
  139.5340  144.7190  151.4956 LP  0  0  0  0  0  0  0  0  0  0  0  0  # atno 17343 bound_to 10162
  157.0337  130.5721  149.5346 LP  0  0  0  0  0  0  0  0  0  0  0  0  # atno 17370 bound_to 10713
  156.0147  130.5240  150.8098 LP  0  0  0  0  0  0  0  0  0  0  0  0  # atno 17371 bound_to 10713
  140.2731  134.8376  157.3865 LP  0  0  0  0  0  0  0  0  0  0  0  0  # atno 17394 bound_to 11000
  140.1503  134.4859  155.7966 LP  0  0  0  0  0  0  0  0  0  0  0  0  # atno 17395 bound_to 11000

$$$$
