AV-unprocessed.smi:413|AV-procd|sdf|2513|dock2
  -GOLD-   2262022463D 1   1.00000     0.00000
 Structure written by MMmdl.
 40 42  0  0  0  0  0  0  0  0  1 V2000
  154.3118  141.3702  160.9271 C   0  0  0  0  0  0  0  0  0  0  0  0
  153.3012  141.5568  159.8932 N   0  0  0  0  0  0  0  0  0  0  0  0
  153.0579  140.7478  158.8353 C   0  0  0  0  0  0  0  0  0  0  0  0
  153.6584  139.7078  158.5653 O   0  0  0  0  0  0  0  0  0  0  0  0
  152.0407  141.2862  158.1220 N   0  0  0  0  0  0  0  0  0  0  0  0
  151.4673  140.7542  156.8878 C   0  0  0  0  0  0  0  0  0  0  0  0
  150.1237  140.0423  157.1444 C   0  0  1  0  0  0  0  0  0  0  0  0
  150.1416  139.3852  158.3953 O   0  0  0  0  0  0  0  0  0  0  0  0
  148.9220  141.0014  157.1331 C   0  0  0  0  0  0  0  0  0  0  0  0
  148.5510  141.2948  155.7913 O   0  0  0  0  0  0  0  0  0  0  0  0
  147.3677  141.9654  155.5704 C   0  0  0  0  0  0  0  0  0  0  0  0
  147.0303  142.2401  154.2289 C   0  0  0  0  0  0  0  0  0  0  0  0
  145.8387  142.9190  153.9095 C   0  0  0  0  0  0  0  0  0  0  0  0
  144.9686  143.3323  154.9349 C   0  0  0  0  0  0  0  0  0  0  0  0
  143.8221  143.9848  154.6302 F   0  0  0  0  0  0  0  0  0  0  0  0
  145.2928  143.0657  156.2780 C   0  0  0  0  0  0  0  0  0  0  0  0
  146.4851  142.3868  156.5974 C   0  0  0  0  0  0  0  0  0  0  0  0
  151.6323  142.4803  158.7331 C   0  0  0  0  0  0  0  0  0  0  0  0
  150.6370  143.4084  158.3805 C   0  0  0  0  0  0  0  0  0  0  0  0
  150.4763  144.5345  159.2217 C   0  0  0  0  0  0  0  0  0  0  0  0
  151.2938  144.7077  160.3691 C   0  0  0  0  0  0  0  0  0  0  0  0
  152.2894  143.7585  160.6999 C   0  0  0  0  0  0  0  0  0  0  0  0
  152.4262  142.6494  159.8476 C   0  0  0  0  0  0  0  0  0  0  0  0
  154.7942  140.3945  160.8563 H   0  0  0  0  0  0  0  0  0  0  0  0
  153.8599  141.4483  161.9164 H   0  0  0  0  0  0  0  0  0  0  0  0
  155.0825  142.1364  160.8418 H   0  0  0  0  0  0  0  0  0  0  0  0
  151.3578  141.5392  156.1374 H   0  0  0  0  0  0  0  0  0  0  0  0
  152.1841  140.0460  156.4706 H   0  0  0  0  0  0  0  0  0  0  0  0
  149.9524  139.2832  156.3799 H   0  0  0  0  0  0  0  0  0  0  0  0
  150.1577  138.4524  158.2428 H   0  0  0  0  0  0  0  0  0  0  0  0
  148.0842  140.5147  157.6351 H   0  0  0  0  0  0  0  0  0  0  0  0
  149.1553  141.9131  157.6862 H   0  0  0  0  0  0  0  0  0  0  0  0
  147.6928  141.9259  153.4356 H   0  0  0  0  0  0  0  0  0  0  0  0
  145.5928  143.1215  152.8776 H   0  0  0  0  0  0  0  0  0  0  0  0
  144.6257  143.3823  157.0661 H   0  0  0  0  0  0  0  0  0  0  0  0
  146.6990  142.2015  157.6388 H   0  0  0  0  0  0  0  0  0  0  0  0
  150.0202  143.2720  157.5045 H   0  0  0  0  0  0  0  0  0  0  0  0
  149.7230  145.2719  158.9871 H   0  0  0  0  0  0  0  0  0  0  0  0
  151.1551  145.5754  160.9973 H   0  0  0  0  0  0  0  0  0  0  0  0
  152.9168  143.8839  161.5700 H   0  0  0  0  0  0  0  0  0  0  0  0
  1  2  1  0  0  0  0
  1 24  1  0  0  0  0
  1 25  1  0  0  0  0
  1 26  1  0  0  0  0
  2 23  1  0  0  0  0
  2  3  1  0  0  0  0
  3  4  2  0  0  0  0
  3  5  1  0  0  0  0
  5  6  1  0  0  0  0
  5 18  1  0  0  0  0
  6  7  1  0  0  0  0
  6 27  1  0  0  0  0
  6 28  1  0  0  0  0
  7  8  1  0  0  0  0
  7  9  1  0  0  0  0
  7 29  1  0  0  0  0
  8 30  1  0  0  0  0
  9 10  1  0  0  0  0
  9 31  1  0  0  0  0
  9 32  1  0  0  0  0
 10 11  1  0  0  0  0
 11 17  1  0  0  0  0
 11 12  2  0  0  0  0
 12 13  1  0  0  0  0
 12 33  1  0  0  0  0
 13 14  2  0  0  0  0
 13 34  1  0  0  0  0
 14 15  1  0  0  0  0
 14 16  1  0  0  0  0
 16 17  2  0  0  0  0
 16 35  1  0  0  0  0
 17 36  1  0  0  0  0
 18 23  2  0  0  0  0
 18 19  1  0  0  0  0
 19 20  2  0  0  0  0
 19 37  1  0  0  0  0
 20 21  1  0  0  0  0
 20 38  1  0  0  0  0
 21 22  2  0  0  0  0
 21 39  1  0  0  0  0
 22 23  1  0  0  0  0
 22 40  1  0  0  0  0
M  END
> <s_m_source_file>
AV-unprocessed.smi

> <i_m_source_file_index>
413

> <i_lp_mmshare_version>
43012

> <i_f3d_flags>
0

> <s_epik_input>
W2NIXTFbY0hdW2NIXVtjSF1jKGMxMiluKFtDSDNdKWMoPU8pbjJbQ0gyXVtDQEhdKFtPSF0pW0NIMl1PYzNbY0hdW2NIXWMoRilbY0hdW2NIXTM=

> <s_epik_cmdline>
J2VwaWtfcHl0aG9uJywgJy1waCcsICc3LjAnLCAnLXRuJywgJzgnLCAnLW1hJywgJzIwMCcsICctbWV0YWxfYmluZGluZycsICctaW1hZScsICc8aW5maWxlLm1hZT4nLCAnLW9tYWUnLCAnPG91dGZpbGUubWFlPic=

> <r_lp_tautomer_probability>
1

> <r_epik_Ionization_Penalty>
2.40172e-06

> <r_epik_Ionization_Penalty_Charging>
2.42369e-09

> <r_epik_Ionization_Penalty_Neutral>
2.3993e-06

> <r_epik_State_Penalty>
-0

> <r_epik_Charging_Adjusted_Penalty>
2.42369e-09

> <i_epik_Tot_Q>
0

> <i_epik_Tot_abs_Q>
0

> <r_epik_Metal_State_Penalty>
-0

> <b_epik_Metal_Only>
0

> <s_lp_Force_Field>
OPLS_2005

> <r_lp_Energy>
47.225

> <b_lp_Chiralities_Consistent>
1

> <s_lp_Variant>
AV-unprocessed.smi:413-2

> <Gold.Version>
5.8.1

> <Gold.Id.Protein>
6NUR|6NUR_protein|mol2

> <Gold.PLP.Fitness>
48.1693

> <Gold.PLP.PLP>
-46.6530

> <Gold.PLP.part.hbond>
-1.0000

> <Gold.PLP.part.metal>
0.0000

> <Gold.PLP.part.buried>
-4.1591

> <Gold.PLP.part.nonpolar>
-41.5806

> <Gold.PLP.part.repulsive>
0.0917

> <Gold.PLP.ligand.clash>
0.0000

> <Gold.PLP.ligand.torsion>
0.7640

> <Gold.PLP.Chemscore.Hbond>
1.0000

> <Gold.PLP.Chemscore.CHOScore>
0.0000

> <Gold.PLP.Chemscore.Metal>
0.0000

> <Gold.Chemscore.Hbonds>
donor molecule, donor type, donor heavy atom, donor atom, acceptor molecule, acceptor atom, score
      P1  H  7997  8009       L1     4  1.00

> <Gold.PLP.Chemscore.Internal.Correction>
0.0442

> <Gold.Rescore>
     Score         DG    S(hbond)    S(metal)    S(lipo)     H(rot)  DE(clash)    DE(int)     intcor
     14.30     -15.08       0.91        0.00     105.83       2.27       0.06       0.72       ----

> <Gold.Chemscore.Fitness>
14.3023

> <Gold.Chemscore.DG>
-15.0849

> <Gold.Chemscore.ZeroCoef>
-5.4800

> <Gold.Chemscore.Hbond>
0.9089

> <Gold.Chemscore.Metal>
0.0000

> <Gold.Chemscore.Lipo>
105.8296

> <Gold.Chemscore.Internal_Hbond>
0.0000

> <Gold.Chemscore.DEClash>
0.0590

> <Gold.Chemscore.DEInternal>
0.7237

> <Gold.Chemscore.Rot>
2.2706

> <Gold.Chemscore.Internal.Correction>
   9.000000E+99

> <Gold.Chemscore.Hbonds>
donor molecule, donor type, donor heavy atom, donor atom, acceptor molecule, acceptor atom, score
      P1  H  7997  8009       L1     4  0.53

> <Gold.Chemscore.Hbond.Weighted>
-3.0357

> <Gold.Chemscore.Metal.Weighted>
-0.0000

> <Gold.Chemscore.Lipo.Weighted>
-12.3821

> <Gold.Chemscore.Internal_Hbond.Weighted>
0.0000

> <Gold.Chemscore.DEClash.Weighted>
0.0590

> <Gold.Chemscore.DEInternal.Weighted>
0.7237

> <Gold.Chemscore.Rot.Weighted>
5.8128

> <Gold.Chemscore.Internal.Correction.Weighted>
   9.000000E+99

> <Gold.Protein.RotatedTorsions>
[ 6907 6896 6895 6894 ] final  133.39 input  -60.11 | X-H torsion
[ 7974 7965 7964 7962 ] final -144.62 input  175.53 | X-H torsion
[ 8008 7997 7996 7995 ] final  159.16 input   59.86 | X-H torsion
[ 10167 10162 10161 10158 ] final  176.77 input  -65.29 | X-H torsion
[ 10718 10713 10712 10709 ] final  133.66 input   66.30 | X-H torsion
[ 10763 10752 10751 10750 ] final   71.90 input  -60.55 | X-H torsion
[ 11005 11000 10999 10996 ] final -103.43 input  -57.11 | X-H torsion

> <Gold.Protein.ActiveResidues>
 VAL166  LYS551  ARG553  GLY616  TRP617  ASP618  TYR619  PRO620  LYS621  CYS622 
 ASP623  PHE694  ASN695  SER759  ASP760  ASP761  ALA762  ILE779  LEU786  VAL792 
 PHE793  MET794  SER795  GLU796  ALA797  LYS798  CYS799  TRP800  GLU811  SER814 

> <Gold.Protein.RotatedAtoms>
  152.3224  133.5868  159.5753 H   0  0  0  0  0  0  0  0  0  0  0  0  # atno 6907 bound_to 6896
  150.7378  133.9991  159.3641 H   0  0  0  0  0  0  0  0  0  0  0  0  # atno 6908 bound_to 6896
  151.7874  135.0746  160.0433 H   0  0  0  0  0  0  0  0  0  0  0  0  # atno 6909 bound_to 6896
  144.8285  140.5687  143.5531 H   0  0  0  0  0  0  0  0  0  0  0  0  # atno 7974 bound_to 7965
  156.2257  140.1839  156.7369 H   0  0  0  0  0  0  0  0  0  0  0  0  # atno 8008 bound_to 7997
  154.5937  140.0646  156.9302 H   0  0  0  0  0  0  0  0  0  0  0  0  # atno 8009 bound_to 7997
  155.2292  140.3313  155.4308 H   0  0  0  0  0  0  0  0  0  0  0  0  # atno 8010 bound_to 7997
  139.5227  144.2877  152.0491 H   0  0  0  0  0  0  0  0  0  0  0  0  # atno 10167 bound_to 10162
  157.4751  131.1082  150.9754 H   0  0  0  0  0  0  0  0  0  0  0  0  # atno 10718 bound_to 10713
  153.0426  135.5120  154.7663 H   0  0  0  0  0  0  0  0  0  0  0  0  # atno 10763 bound_to 10752
  154.6588  135.2935  154.9896 H   0  0  0  0  0  0  0  0  0  0  0  0  # atno 10764 bound_to 10752
  154.0754  135.6671  153.4882 H   0  0  0  0  0  0  0  0  0  0  0  0  # atno 10765 bound_to 10752
  141.1146  133.8640  157.1485 H   0  0  0  0  0  0  0  0  0  0  0  0  # atno 11005 bound_to 11000
  145.4948  139.1486  143.3690 LP  0  0  0  0  0  0  0  0  0  0  0  0  # atno 17320 bound_to 7965
  146.2589  140.5087  142.8862 LP  0  0  0  0  0  0  0  0  0  0  0  0  # atno 17321 bound_to 7965
  140.2329  144.4350  150.6292 LP  0  0  0  0  0  0  0  0  0  0  0  0  # atno 17342 bound_to 10162
  140.6343  143.2192  151.6429 LP  0  0  0  0  0  0  0  0  0  0  0  0  # atno 17343 bound_to 10162
  157.0505  130.5785  149.5370 LP  0  0  0  0  0  0  0  0  0  0  0  0  # atno 17370 bound_to 10713
  156.0093  130.5183  150.7934 LP  0  0  0  0  0  0  0  0  0  0  0  0  # atno 17371 bound_to 10713
  140.0060  135.0008  157.0293 LP  0  0  0  0  0  0  0  0  0  0  0  0  # atno 17394 bound_to 11000
  140.4682  134.1414  155.7199 LP  0  0  0  0  0  0  0  0  0  0  0  0  # atno 17395 bound_to 11000

$$$$
