AV-unprocessed.smi:1258|AV-procd|sdf|5288|dock7
  -GOLD-   22720 4403D 1   1.00000     0.00000
 Structure written by MMmdl.
 33 34  0  0  0  0  0  0  0  0  1 V2000
  151.9124  145.2452  158.6944 C   0  0  0  0  0  0  0  0  0  0  0  0
  152.5055  143.8294  158.7302 C   0  0  1  0  0  0  0  0  0  0  0  0
  152.7984  143.3776  160.1737 C   0  0  0  0  0  0  0  0  0  0  0  0
  153.3899  141.9598  160.2110 C   0  0  0  0  0  0  0  0  0  0  0  0
  152.4701  140.9536  159.5025 C   0  0  0  0  0  0  0  0  0  0  0  0
  152.1738  141.3890  158.0559 C   0  0  1  0  0  0  0  0  0  0  0  0
  151.2546  140.4378  157.4394 N   0  0  0  0  0  0  0  0  0  0  0  0
  151.4861  139.7548  156.3072 C   0  0  0  0  0  0  0  0  0  0  0  0
  152.5144  139.8700  155.6409 O   0  0  0  0  0  0  0  0  0  0  0  0
  150.3892  138.7908  155.8565 C   0  0  0  0  0  0  0  0  0  0  0  0
  150.7555  137.4175  156.1455 N   0  0  0  0  0  0  0  0  0  0  0  0
  151.0374  136.3960  155.3340 C   0  0  0  0  0  0  0  0  0  0  0  0
  151.3369  135.3001  156.0144 N   0  0  0  0  0  0  0  0  0  0  0  0
  151.2229  135.7071  157.3334 N   0  0  0  0  0  0  0  0  0  0  0  0
  150.8787  136.9629  157.4176 N   0  0  0  0  0  0  0  0  0  0  0  0
  151.5859  142.8151  158.0226 C   0  0  0  0  0  0  0  0  0  0  0  0
  150.9588  145.2890  159.2213 H   0  0  0  0  0  0  0  0  0  0  0  0
  151.7415  145.5736  157.6690 H   0  0  0  0  0  0  0  0  0  0  0  0
  152.5849  145.9646  159.1625 H   0  0  0  0  0  0  0  0  0  0  0  0
  153.4522  143.8573  158.1886 H   0  0  0  0  0  0  0  0  0  0  0  0
  153.4899  144.0737  160.6499 H   0  0  0  0  0  0  0  0  0  0  0  0
  151.8805  143.4036  160.7626 H   0  0  0  0  0  0  0  0  0  0  0  0
  154.3697  141.9593  159.7319 H   0  0  0  0  0  0  0  0  0  0  0  0
  153.5511  141.6516  161.2444 H   0  0  0  0  0  0  0  0  0  0  0  0
  152.9329  139.9659  159.5089 H   0  0  0  0  0  0  0  0  0  0  0  0
  151.5373  140.8620  160.0612 H   0  0  0  0  0  0  0  0  0  0  0  0
  153.1145  141.3824  157.5018 H   0  0  0  0  0  0  0  0  0  0  0  0
  150.3802  140.2764  157.9186 H   0  0  0  0  0  0  0  0  0  0  0  0
  149.4478  139.0306  156.3537 H   0  0  0  0  0  0  0  0  0  0  0  0
  150.2223  138.8897  154.7832 H   0  0  0  0  0  0  0  0  0  0  0  0
  151.0262  136.4567  154.2556 H   0  0  0  0  0  0  0  0  0  0  0  0
  150.6043  142.8181  158.4991 H   0  0  0  0  0  0  0  0  0  0  0  0
  151.4271  143.1260  156.9890 H   0  0  0  0  0  0  0  0  0  0  0  0
  1  2  1  0  0  0  0
  1 17  1  0  0  0  0
  1 18  1  0  0  0  0
  1 19  1  0  0  0  0
  2 16  1  0  0  0  0
  2  3  1  0  0  0  0
  2 20  1  0  0  0  0
  3  4  1  0  0  0  0
  3 21  1  0  0  0  0
  3 22  1  0  0  0  0
  4  5  1  0  0  0  0
  4 23  1  0  0  0  0
  4 24  1  0  0  0  0
  5  6  1  0  0  0  0
  5 25  1  0  0  0  0
  5 26  1  0  0  0  0
  6  7  1  0  0  0  0
  6 16  1  0  0  0  0
  6 27  1  0  0  0  0
  7  8  1  0  0  0  0
  7 28  1  0  0  0  0
  8  9  2  0  0  0  0
  8 10  1  0  0  0  0
 10 11  1  0  0  0  0
 10 29  1  0  0  0  0
 10 30  1  0  0  0  0
 11 15  1  0  0  0  0
 11 12  1  0  0  0  0
 12 13  2  0  0  0  0
 12 31  1  0  0  0  0
 13 14  1  0  0  0  0
 14 15  2  0  0  0  0
 16 32  1  0  0  0  0
 16 33  1  0  0  0  0
M  END
> <s_m_source_file>
AV-unprocessed.smi

> <i_m_source_file_index>
1258

> <i_lp_mmshare_version>
43012

> <i_f3d_flags>
0

> <s_epik_input>
W0NIM11bQ0BASF0xW0NIMl1bQ0gyXVtDSDJdW0NASF0oW0NIMl0xKVtOSF1DKD1PKVtDSDJdbjJbY0hdbm5uMg==

> <s_epik_cmdline>
J2VwaWtfcHl0aG9uJywgJy1waCcsICc3LjAnLCAnLXRuJywgJzgnLCAnLW1hJywgJzIwMCcsICctbWV0YWxfYmluZGluZycsICctaW1hZScsICc8aW5maWxlLm1hZT4nLCAnLW9tYWUnLCAnPG91dGZpbGUubWFlPic=

> <r_lp_tautomer_probability>
1

> <r_epik_Ionization_Penalty>
5.03816e-07

> <r_epik_Ionization_Penalty_Charging>
0

> <r_epik_Ionization_Penalty_Neutral>
5.03816e-07

> <r_epik_State_Penalty>
-0

> <r_epik_Charging_Adjusted_Penalty>
0

> <i_epik_Tot_Q>
0

> <i_epik_Tot_abs_Q>
0

> <r_epik_Metal_State_Penalty>
-0

> <b_epik_Metal_Only>
0

> <s_lp_Force_Field>
OPLS_2005

> <r_lp_Energy>
10.5543

> <b_lp_Chiralities_Consistent>
1

> <s_lp_Variant>
AV-unprocessed.smi:1258-2

> <Gold.Version>
5.8.1

> <Gold.Id.Protein>
6NUR|6NUR_protein|mol2

> <Gold.PLP.Fitness>
41.6260

> <Gold.PLP.PLP>
-31.5970

> <Gold.PLP.part.hbond>
-3.0000

> <Gold.PLP.part.metal>
0.0000

> <Gold.PLP.part.buried>
-2.3498

> <Gold.PLP.part.nonpolar>
-25.8036

> <Gold.PLP.part.repulsive>
0.1852

> <Gold.PLP.ligand.clash>
0.0000

> <Gold.PLP.ligand.torsion>
0.2756

> <Gold.PLP.Chemscore.Hbond>
2.4281

> <Gold.PLP.Chemscore.CHOScore>
1.0970

> <Gold.PLP.Chemscore.Metal>
0.0000

> <Gold.Chemscore.Hbonds>
donor molecule, donor type, donor heavy atom, donor atom, acceptor molecule, acceptor atom, score
      P1  H  7997  8010       L1     9  1.00
      P1  H 10752 10764       L1    13  0.10
      L1  C    12    31       P1  7949  0.32

> <Gold.PLP.Chemscore.Internal.Correction>
0.0050

> <Gold.Rescore>
     Score         DG    S(hbond)    S(metal)    S(lipo)     H(rot)  DE(clash)    DE(int)     intcor
     13.83     -15.61       1.66        0.00      81.26       1.92       1.39       0.38       ----

> <Gold.Chemscore.Fitness>
13.8346

> <Gold.Chemscore.DG>
-15.6086

> <Gold.Chemscore.ZeroCoef>
-5.4800

> <Gold.Chemscore.Hbond>
1.6551

> <Gold.Chemscore.Metal>
0.0000

> <Gold.Chemscore.Lipo>
81.2641

> <Gold.Chemscore.Internal_Hbond>
0.0000

> <Gold.Chemscore.DEClash>
1.3899

> <Gold.Chemscore.DEInternal>
0.3842

> <Gold.Chemscore.Rot>
1.9169

> <Gold.Chemscore.Internal.Correction>
   9.000000E+99

> <Gold.Chemscore.Hbonds>
donor molecule, donor type, donor heavy atom, donor atom, acceptor molecule, acceptor atom, score
      P1  H  7997  8010       L1     9  0.99

> <Gold.Chemscore.Hbond.Weighted>
-5.5280

> <Gold.Chemscore.Metal.Weighted>
-0.0000

> <Gold.Chemscore.Lipo.Weighted>
-9.5079

> <Gold.Chemscore.Internal_Hbond.Weighted>
0.0000

> <Gold.Chemscore.DEClash.Weighted>
1.3899

> <Gold.Chemscore.DEInternal.Weighted>
0.3842

> <Gold.Chemscore.Rot.Weighted>
4.9073

> <Gold.Chemscore.Internal.Correction.Weighted>
   9.000000E+99

> <Gold.Protein.RotatedTorsions>
[ 6907 6896 6895 6894 ] final  106.27 input  -60.11 | X-H torsion
[ 7974 7965 7964 7962 ] final -156.35 input  175.53 | X-H torsion
[ 8008 7997 7996 7995 ] final   87.13 input   59.86 | X-H torsion
[ 10167 10162 10161 10158 ] final  131.26 input  -65.29 | X-H torsion
[ 10718 10713 10712 10709 ] final -107.31 input   66.30 | X-H torsion
[ 10763 10752 10751 10750 ] final  -36.49 input  -60.55 | X-H torsion
[ 11005 11000 10999 10996 ] final -116.87 input  -57.11 | X-H torsion

> <Gold.Protein.ActiveResidues>
 VAL166  LYS551  ARG553  GLY616  TRP617  ASP618  TYR619  PRO620  LYS621  CYS622 
 ASP623  PHE694  ASN695  SER759  ASP760  ASP761  ALA762  ILE779  LEU786  VAL792 
 PHE793  MET794  SER795  GLU796  ALA797  LYS798  CYS799  TRP800  GLU811  SER814 

> <Gold.Protein.RotatedAtoms>
  152.5200  133.9405  159.7623 H   0  0  0  0  0  0  0  0  0  0  0  0  # atno 6907 bound_to 6896
  150.9736  133.6310  159.2741 H   0  0  0  0  0  0  0  0  0  0  0  0  # atno 6908 bound_to 6896
  151.3512  135.0890  159.9456 H   0  0  0  0  0  0  0  0  0  0  0  0  # atno 6909 bound_to 6896
  144.7597  140.4122  143.5985 H   0  0  0  0  0  0  0  0  0  0  0  0  # atno 7974 bound_to 7965
  155.9715  140.3385  155.6580 H   0  0  0  0  0  0  0  0  0  0  0  0  # atno 8008 bound_to 7997
  155.6668  140.0722  157.2552 H   0  0  0  0  0  0  0  0  0  0  0  0  # atno 8009 bound_to 7997
  154.4168  140.1698  156.1823 H   0  0  0  0  0  0  0  0  0  0  0  0  # atno 8010 bound_to 7997
  139.5392  144.6714  151.4681 H   0  0  0  0  0  0  0  0  0  0  0  0  # atno 10167 bound_to 10162
  156.0430  130.5656  150.7803 H   0  0  0  0  0  0  0  0  0  0  0  0  # atno 10718 bound_to 10713
  153.8806  135.6822  153.4767 H   0  0  0  0  0  0  0  0  0  0  0  0  # atno 10763 bound_to 10752
  153.1236  135.4729  154.9233 H   0  0  0  0  0  0  0  0  0  0  0  0  # atno 10764 bound_to 10752
  154.7670  135.3227  154.8217 H   0  0  0  0  0  0  0  0  0  0  0  0  # atno 10765 bound_to 10752
  141.0393  133.9861  157.3021 H   0  0  0  0  0  0  0  0  0  0  0  0  # atno 11005 bound_to 11000
  145.6659  139.1590  143.2782 LP  0  0  0  0  0  0  0  0  0  0  0  0  # atno 17320 bound_to 7965
  146.1647  140.6735  142.9261 LP  0  0  0  0  0  0  0  0  0  0  0  0  # atno 17321 bound_to 7965
  140.6614  143.8490  150.6892 LP  0  0  0  0  0  0  0  0  0  0  0  0  # atno 17342 bound_to 10162
  140.1886  143.4055  152.1880 LP  0  0  0  0  0  0  0  0  0  0  0  0  # atno 17343 bound_to 10162
  157.5272  131.0935  151.0002 LP  0  0  0  0  0  0  0  0  0  0  0  0  # atno 17370 bound_to 10713
  157.0317  130.5714  149.5344 LP  0  0  0  0  0  0  0  0  0  0  0  0  # atno 17371 bound_to 10713
  139.9264  135.0201  156.8247 LP  0  0  0  0  0  0  0  0  0  0  0  0  # atno 17394 bound_to 11000
  140.6264  133.9946  155.7642 LP  0  0  0  0  0  0  0  0  0  0  0  0  # atno 17395 bound_to 11000

$$$$
