AV-unprocessed.smi:35|AV-procd|sdf|256|dock8
  -GOLD-   2262016 23D 1   1.00000     0.00000
 Structure written by MMmdl.
 29 30  0  0  0  0  0  0  0  0  1 V2000
  152.8241  139.0284  157.2969 O   0  0  0  0  0  0  0  0  0  0  0  0
  151.9376  139.6252  156.6898 C   0  0  0  0  0  0  0  0  0  0  0  0
  151.1680  140.5949  157.3367 N   0  0  0  0  0  0  0  0  0  0  0  0
  150.1316  141.3289  156.7567 C   0  0  0  0  0  0  0  0  0  0  0  0
  149.5553  142.1931  157.4157 O   0  0  0  0  0  0  0  0  0  0  0  0
  149.7994  141.0383  155.4120 N   0  0  0  0  0  0  0  0  0  0  0  0
  148.7021  141.8447  154.7333 C   0  0  1  0  0  0  0  0  0  0  0  0
  148.5395  141.3934  153.4169 O   0  0  0  0  0  0  0  0  0  0  0  0
  147.3634  140.5987  153.2718 C   0  0  1  0  0  0  0  0  0  0  0  0
  147.6583  139.1105  153.5739 C   0  0  0  0  0  0  0  0  0  0  0  0
  147.5531  138.3491  152.3899 O   0  0  0  0  0  0  0  0  0  0  0  0
  146.4155  141.2883  154.2586 C   0  0  1  0  0  0  0  0  0  0  0  0
  145.3486  140.4603  154.6791 O   0  0  0  0  0  0  0  0  0  0  0  0
  147.3237  141.6738  155.4192 C   0  0  2  0  0  0  0  0  0  0  0  0
  146.8625  142.8808  155.9941 O   0  0  0  0  0  0  0  0  0  0  0  0
  150.5847  140.1260  154.7129 C   0  0  0  0  0  0  0  0  0  0  0  0
  151.5933  139.4295  155.2869 C   0  0  0  0  0  0  0  0  0  0  0  0
  152.5728  138.1653  154.1178 Br  0  0  0  0  0  0  0  0  0  0  0  0
  151.3898  140.7907  158.3022 H   0  0  0  0  0  0  0  0  0  0  0  0
  149.0795  142.8690  154.7250 H   0  0  0  0  0  0  0  0  0  0  0  0
  146.9737  140.6904  152.2570 H   0  0  0  0  0  0  0  0  0  0  0  0
  148.6298  138.9601  154.0420 H   0  0  0  0  0  0  0  0  0  0  0  0
  146.9164  138.7065  154.2622 H   0  0  0  0  0  0  0  0  0  0  0  0
  148.2863  137.7541  152.3490 H   0  0  0  0  0  0  0  0  0  0  0  0
  146.0093  142.1825  153.7820 H   0  0  0  0  0  0  0  0  0  0  0  0
  144.6788  140.4775  154.0125 H   0  0  0  0  0  0  0  0  0  0  0  0
  147.3629  140.8729  156.1595 H   0  0  0  0  0  0  0  0  0  0  0  0
  147.6101  143.4355  156.1603 H   0  0  0  0  0  0  0  0  0  0  0  0
  150.4059  139.9461  153.6639 H   0  0  0  0  0  0  0  0  0  0  0  0
  1  2  2  0  0  0  0
  2 17  1  0  0  0  0
  2  3  1  0  0  0  0
  3 19  1  0  0  0  0
  3  4  1  0  0  0  0
  4  5  2  0  0  0  0
  4  6  1  0  0  0  0
  6  7  1  0  0  0  0
  6 16  1  0  0  0  0
  7 14  1  0  0  0  0
  7  8  1  0  0  0  0
  7 20  1  0  0  0  0
  8  9  1  0  0  0  0
  9 10  1  0  0  0  0
  9 12  1  0  0  0  0
  9 21  1  0  0  0  0
 10 11  1  0  0  0  0
 10 22  1  0  0  0  0
 10 23  1  0  0  0  0
 11 24  1  0  0  0  0
 12 13  1  0  0  0  0
 12 14  1  0  0  0  0
 12 25  1  0  0  0  0
 13 26  1  0  0  0  0
 14 15  1  0  0  0  0
 14 27  1  0  0  0  0
 15 28  1  0  0  0  0
 16 17  2  0  0  0  0
 16 29  1  0  0  0  0
 17 18  1  0  0  0  0
M  END
> <s_m_source_file>
AV-unprocessed.smi

> <i_m_source_file_index>
35

> <i_lp_mmshare_version>
43012

> <i_f3d_flags>
0

> <s_epik_input>
Tz1jMVtuSF1jKD1PKW4oW2NIXWMxQnIpW0NAQEhdMk9bQ0BASF0oW0NIMl1bT0hdKVtDQEBIXShbT0hdKVtDQEhdMltPSF0=

> <s_epik_cmdline>
J2VwaWtfcHl0aG9uJywgJy1waCcsICc3LjAnLCAnLXRuJywgJzgnLCAnLW1hJywgJzIwMCcsICctbWV0YWxfYmluZGluZycsICctaW1hZScsICc8aW5maWxlLm1hZT4nLCAnLW9tYWUnLCAnPG91dGZpbGUubWFlPic=

> <r_lp_tautomer_probability>
0.999537

> <r_epik_Ionization_Penalty>
0.10812

> <r_epik_Ionization_Penalty_Charging>
0.108119

> <r_epik_Ionization_Penalty_Neutral>
4.93006e-07

> <r_epik_State_Penalty>
0.0979238

> <r_epik_Charging_Adjusted_Penalty>
0.206043

> <i_epik_Tot_Q>
0

> <i_epik_Tot_abs_Q>
0

> <r_epik_Metal_State_Penalty>
3.07911

> <b_epik_Metal_Only>
0

> <s_epik_Chemistry_Notes>
This compound contains an acetal/aminal-like group ( X-CH(R)-Y where X, Y are N, S, or O) that may be acid/base labile, releasing an aldehyde.

> <s_lp_Force_Field>
OPLS_2005

> <r_lp_Energy>
30.5173

> <b_lp_Chiralities_Consistent>
1

> <s_lp_Variant>
AV-unprocessed.smi:35-10

> <Gold.Version>
5.8.1

> <Gold.Id.Protein>
6NUR|6NUR_protein|mol2

> <Gold.PLP.Fitness>
37.7922

> <Gold.PLP.PLP>
-23.8731

> <Gold.PLP.part.hbond>
-6.0000

> <Gold.PLP.part.metal>
0.0000

> <Gold.PLP.part.buried>
4.8067

> <Gold.PLP.part.nonpolar>
-23.2652

> <Gold.PLP.part.repulsive>
2.2362

> <Gold.PLP.ligand.clash>
0.0000

> <Gold.PLP.ligand.torsion>
0.7246

> <Gold.PLP.Chemscore.Hbond>
4.3160

> <Gold.PLP.Chemscore.CHOScore>
0.7850

> <Gold.PLP.Chemscore.Metal>
0.0000

> <Gold.Chemscore.Hbonds>
donor molecule, donor type, donor heavy atom, donor atom, acceptor molecule, acceptor atom, score
      L1  H    11    24       P1  7948  1.00
      L1  H    13    26       P1 10175  1.00
      L1  H    15    28       P1  8028  0.45
      P1  H  7997  8010       L1     1  1.00
      P1  H  8011  8017       L1     8  0.80
      L1  C    16    29       P1  7957  0.77

> <Gold.PLP.Chemscore.Internal.Correction>
0.0653

> <Gold.Rescore>
     Score         DG    S(hbond)    S(metal)    S(lipo)     H(rot)  DE(clash)    DE(int)     intcor
      8.60     -12.54       3.24        0.00      48.10       3.67       2.34       1.60       ----

> <Gold.Chemscore.Fitness>
8.6006

> <Gold.Chemscore.DG>
-12.5397

> <Gold.Chemscore.ZeroCoef>
-5.4800

> <Gold.Chemscore.Hbond>
3.2419

> <Gold.Chemscore.Metal>
0.0000

> <Gold.Chemscore.Lipo>
48.0967

> <Gold.Chemscore.Internal_Hbond>
0.0000

> <Gold.Chemscore.DEClash>
2.3363

> <Gold.Chemscore.DEInternal>
1.6028

> <Gold.Chemscore.Rot>
3.6701

> <Gold.Chemscore.Internal.Correction>
   9.000000E+99

> <Gold.Chemscore.Hbonds>
donor molecule, donor type, donor heavy atom, donor atom, acceptor molecule, acceptor atom, score
      L1  H    11    24       P1  7948  0.94
      L1  H    13    26       P1 10175  1.00
      L1  H    15    28       P1  8028  0.02
      P1  H  7997  8010       L1     1  0.53
      P1  H  8011  8017       L1     8  0.48

> <Gold.Chemscore.Hbond.Weighted>
-10.8278

> <Gold.Chemscore.Metal.Weighted>
-0.0000

> <Gold.Chemscore.Lipo.Weighted>
-5.6273

> <Gold.Chemscore.Internal_Hbond.Weighted>
0.0000

> <Gold.Chemscore.DEClash.Weighted>
2.3363

> <Gold.Chemscore.DEInternal.Weighted>
1.6028

> <Gold.Chemscore.Rot.Weighted>
9.3955

> <Gold.Chemscore.Internal.Correction.Weighted>
   9.000000E+99

> <Gold.Protein.RotatedTorsions>
[ 6907 6896 6895 6894 ] final  -29.77 input  -60.11 | X-H torsion
[ 7974 7965 7964 7962 ] final  -34.27 input  175.53 | X-H torsion
[ 8008 7997 7996 7995 ] final   41.08 input   59.86 | X-H torsion
[ 10167 10162 10161 10158 ] final -105.80 input  -65.29 | X-H torsion
[ 10718 10713 10712 10709 ] final  161.89 input   66.30 | X-H torsion
[ 10763 10752 10751 10750 ] final -132.32 input  -60.55 | X-H torsion
[ 11005 11000 10999 10996 ] final   14.68 input  -57.11 | X-H torsion

> <Gold.Protein.ActiveResidues>
 VAL166  LYS551  ARG553  GLY616  TRP617  ASP618  TYR619  PRO620  LYS621  CYS622 
 ASP623  PHE694  ASN695  SER759  ASP760  ASP761  ALA762  ILE779  LEU786  VAL792 
 PHE793  MET794  SER795  GLU796  ALA797  LYS798  CYS799  TRP800  GLU811  SER814 

> <Gold.Protein.RotatedAtoms>
  151.1147  135.0046  159.8510 H   0  0  0  0  0  0  0  0  0  0  0  0  # atno 6907 bound_to 6896
  152.5445  134.1794  159.8639 H   0  0  0  0  0  0  0  0  0  0  0  0  # atno 6908 bound_to 6896
  151.1847  133.4659  159.2627 H   0  0  0  0  0  0  0  0  0  0  0  0  # atno 6909 bound_to 6896
  146.0843  140.6018  142.8894 H   0  0  0  0  0  0  0  0  0  0  0  0  # atno 7974 bound_to 7965
  155.2637  140.3361  155.4271 H   0  0  0  0  0  0  0  0  0  0  0  0  # atno 8008 bound_to 7997
  156.2163  140.1790  156.7622 H   0  0  0  0  0  0  0  0  0  0  0  0  # atno 8009 bound_to 7997
  154.5759  140.0662  156.9018 H   0  0  0  0  0  0  0  0  0  0  0  0  # atno 8010 bound_to 7997
  140.1946  143.3865  152.1178 H   0  0  0  0  0  0  0  0  0  0  0  0  # atno 10167 bound_to 10162
  157.1302  131.0514  151.2375 H   0  0  0  0  0  0  0  0  0  0  0  0  # atno 10718 bound_to 10713
  154.8744  135.3801  154.4390 H   0  0  0  0  0  0  0  0  0  0  0  0  # atno 10763 bound_to 10752
  153.5077  135.7030  153.5802 H   0  0  0  0  0  0  0  0  0  0  0  0  # atno 10764 bound_to 10752
  153.4106  135.3926  155.2014 H   0  0  0  0  0  0  0  0  0  0  0  0  # atno 10765 bound_to 10752
  140.4667  134.1072  155.7725 H   0  0  0  0  0  0  0  0  0  0  0  0  # atno 11005 bound_to 11000
  144.7315  140.4685  143.6934 LP  0  0  0  0  0  0  0  0  0  0  0  0  # atno 17320 bound_to 7965
  145.6159  139.1518  143.3050 LP  0  0  0  0  0  0  0  0  0  0  0  0  # atno 17321 bound_to 7965
  139.5242  144.7080  151.5294 LP  0  0  0  0  0  0  0  0  0  0  0  0  # atno 17342 bound_to 10162
  140.6432  143.8847  150.6712 LP  0  0  0  0  0  0  0  0  0  0  0  0  # atno 17343 bound_to 10162
  157.4399  130.7538  149.7060 LP  0  0  0  0  0  0  0  0  0  0  0  0  # atno 17370 bound_to 10713
  155.9809  130.4024  150.3499 LP  0  0  0  0  0  0  0  0  0  0  0  0  # atno 17371 bound_to 10713
  141.1596  133.8818  157.1885 LP  0  0  0  0  0  0  0  0  0  0  0  0  # atno 17394 bound_to 11000
  139.9910  135.0064  156.9976 LP  0  0  0  0  0  0  0  0  0  0  0  0  # atno 17395 bound_to 11000

$$$$
