AV-unprocessed.smi:2363|AV-procd|sdf|9416|dock4
  -GOLD-   2272013 53D 1   1.00000     0.00000
 Structure written by MMmdl.
 44 45  0  0  0  0  0  0  0  0  1 V2000
  147.3678  141.4591  153.6876 C   0  0  0  0  0  0  0  0  0  0  0  0
  148.8084  141.0555  154.0333 C   0  0  0  0  0  0  0  0  0  0  0  0
  149.0528  139.5359  154.0302 C   0  0  0  0  0  0  0  0  0  0  0  0
  150.3791  139.1784  154.5080 N   0  0  0  0  0  0  0  0  0  0  0  0
  151.2241  140.1489  154.9204 N   0  0  0  0  0  0  0  0  0  0  0  0
  152.3269  139.5113  155.2911 C   0  0  0  0  0  0  0  0  0  0  0  0
  152.2350  138.0994  155.1325 C   0  0  0  0  0  0  0  0  0  0  0  0
  150.9712  137.9387  154.6332 C   0  0  0  0  0  0  0  0  0  0  0  0
  150.3297  136.7898  154.2909 N   0  0  0  0  0  0  0  0  0  0  0  0
  150.4535  135.5651  154.8301 C   0  0  0  0  0  0  0  0  0  0  0  0
  151.2049  135.2684  155.7589 O   0  0  0  0  0  0  0  0  0  0  0  0
  149.6439  134.6868  154.2191 N   0  0  0  0  0  0  0  0  0  0  0  0
  149.5110  133.2668  154.5478 C   0  0  1  0  0  0  0  0  0  0  0  0
  149.0410  133.1613  156.0087 C   0  0  0  0  0  0  0  0  0  0  0  0
  148.5619  132.5578  153.5445 C   0  0  0  0  0  0  0  0  0  0  0  0
  147.4085  133.4701  153.0794 C   0  0  0  0  0  0  0  0  0  0  0  0
  146.4389  132.7212  152.1507 C   0  0  0  0  0  0  0  0  0  0  0  0
  145.9308  131.5654  152.8047 O   0  0  0  0  0  0  0  0  0  0  0  0
  146.9506  130.6308  153.1330 C   0  0  0  0  0  0  0  0  0  0  0  0
  147.9460  131.2633  154.1186 C   0  0  0  0  0  0  0  0  0  0  0  0
  147.2696  142.5440  153.6478 H   0  0  0  0  0  0  0  0  0  0  0  0
  146.6593  141.0939  154.4313 H   0  0  0  0  0  0  0  0  0  0  0  0
  147.0710  141.0623  152.7165 H   0  0  0  0  0  0  0  0  0  0  0  0
  149.4891  141.5235  153.3217 H   0  0  0  0  0  0  0  0  0  0  0  0
  149.0683  141.4622  155.0114 H   0  0  0  0  0  0  0  0  0  0  0  0
  148.3070  139.0338  154.6472 H   0  0  0  0  0  0  0  0  0  0  0  0
  148.9300  139.1414  153.0205 H   0  0  0  0  0  0  0  0  0  0  0  0
  153.1594  140.0904  155.6623 H   0  0  0  0  0  0  0  0  0  0  0  0
  152.9808  137.3510  155.3542 H   0  0  0  0  0  0  0  0  0  0  0  0
  149.6576  136.8800  153.5435 H   0  0  0  0  0  0  0  0  0  0  0  0
  149.0666  135.0272  153.4643 H   0  0  0  0  0  0  0  0  0  0  0  0
  150.4876  132.7834  154.4878 H   0  0  0  0  0  0  0  0  0  0  0  0
  149.0582  132.1323  156.3660 H   0  0  0  0  0  0  0  0  0  0  0  0
  148.0263  133.5421  156.1293 H   0  0  0  0  0  0  0  0  0  0  0  0
  149.6913  133.7352  156.6702 H   0  0  0  0  0  0  0  0  0  0  0  0
  149.1458  132.2831  152.6644 H   0  0  0  0  0  0  0  0  0  0  0  0
  146.8612  133.8446  153.9455 H   0  0  0  0  0  0  0  0  0  0  0  0
  147.7935  134.3420  152.5516 H   0  0  0  0  0  0  0  0  0  0  0  0
  145.6034  133.3684  151.8832 H   0  0  0  0  0  0  0  0  0  0  0  0
  146.9317  132.4383  151.2191 H   0  0  0  0  0  0  0  0  0  0  0  0
  146.4892  129.7505  153.5812 H   0  0  0  0  0  0  0  0  0  0  0  0
  147.4592  130.2964  152.2276 H   0  0  0  0  0  0  0  0  0  0  0  0
  148.7220  130.5335  154.3497 H   0  0  0  0  0  0  0  0  0  0  0  0
  147.4361  131.4823  155.0578 H   0  0  0  0  0  0  0  0  0  0  0  0
  1  2  1  0  0  0  0
  1 21  1  0  0  0  0
  1 22  1  0  0  0  0
  1 23  1  0  0  0  0
  2  3  1  0  0  0  0
  2 24  1  0  0  0  0
  2 25  1  0  0  0  0
  3  4  1  0  0  0  0
  3 26  1  0  0  0  0
  3 27  1  0  0  0  0
  4  8  1  0  0  0  0
  4  5  1  0  0  0  0
  5  6  2  0  0  0  0
  6  7  1  0  0  0  0
  6 28  1  0  0  0  0
  7  8  2  0  0  0  0
  7 29  1  0  0  0  0
  8  9  1  0  0  0  0
  9 10  1  0  0  0  0
  9 30  1  0  0  0  0
 10 11  2  0  0  0  0
 10 12  1  0  0  0  0
 12 13  1  0  0  0  0
 12 31  1  0  0  0  0
 13 14  1  0  0  0  0
 13 15  1  0  0  0  0
 13 32  1  0  0  0  0
 14 33  1  0  0  0  0
 14 34  1  0  0  0  0
 14 35  1  0  0  0  0
 15 20  1  0  0  0  0
 15 16  1  0  0  0  0
 15 36  1  0  0  0  0
 16 17  1  0  0  0  0
 16 37  1  0  0  0  0
 16 38  1  0  0  0  0
 17 18  1  0  0  0  0
 17 39  1  0  0  0  0
 17 40  1  0  0  0  0
 18 19  1  0  0  0  0
 19 20  1  0  0  0  0
 19 41  1  0  0  0  0
 19 42  1  0  0  0  0
 20 43  1  0  0  0  0
 20 44  1  0  0  0  0
M  END
> <s_m_source_file>
AV-unprocessed.smi

> <i_m_source_file_index>
2363

> <i_lp_mmshare_version>
43012

> <i_f3d_flags>
0

> <s_epik_input>
W0NIM11bQ0gyXVtDSDJdbjFuW2NIXVtjSF1jMVtOSF1DKD1PKVtOSF1bQ0BIXShbQ0gzXSlbQ0hdMltDSDJdW0NIMl1PW0NIMl1bQ0gyXTI=

> <s_epik_cmdline>
J2VwaWtfcHl0aG9uJywgJy1waCcsICc3LjAnLCAnLXRuJywgJzgnLCAnLW1hJywgJzIwMCcsICctbWV0YWxfYmluZGluZycsICctaW1hZScsICc8aW5maWxlLm1hZT4nLCAnLW9tYWUnLCAnPG91dGZpbGUubWFlPic=

> <r_lp_tautomer_probability>
1

> <r_epik_Ionization_Penalty>
3.26671e-05

> <r_epik_Ionization_Penalty_Charging>
0

> <r_epik_Ionization_Penalty_Neutral>
3.26671e-05

> <r_epik_State_Penalty>
-0

> <r_epik_Charging_Adjusted_Penalty>
0

> <i_epik_Tot_Q>
0

> <i_epik_Tot_abs_Q>
0

> <r_epik_Metal_State_Penalty>
-0

> <b_epik_Metal_Only>
0

> <s_lp_Force_Field>
OPLS_2005

> <r_lp_Energy>
15.2221

> <b_lp_Chiralities_Consistent>
1

> <s_lp_Variant>
AV-unprocessed.smi:2363-2

> <Gold.Version>
5.8.1

> <Gold.Id.Protein>
6NUR|6NUR_protein|mol2

> <Gold.PLP.Fitness>
49.5349

> <Gold.PLP.PLP>
-39.6722

> <Gold.PLP.part.hbond>
-5.2974

> <Gold.PLP.part.metal>
0.0000

> <Gold.PLP.part.buried>
-0.0443

> <Gold.PLP.part.nonpolar>
-34.7447

> <Gold.PLP.part.repulsive>
0.3817

> <Gold.PLP.ligand.clash>
0.0000

> <Gold.PLP.ligand.torsion>
0.7676

> <Gold.PLP.Chemscore.Hbond>
3.7784

> <Gold.PLP.Chemscore.CHOScore>
0.0000

> <Gold.PLP.Chemscore.Metal>
0.0000

> <Gold.Chemscore.Hbonds>
donor molecule, donor type, donor heavy atom, donor atom, acceptor molecule, acceptor atom, score
      L1  H     9    30       P1  7948  0.96
      L1  H    12    31       P1  7948  0.91
      P1  H  7989  7998       L1     5  1.00
      P1  H 10752 10764       L1    11  0.98

> <Gold.PLP.Chemscore.Internal.Correction>
0.0628

> <Gold.Rescore>
     Score         DG    S(hbond)    S(metal)    S(lipo)     H(rot)  DE(clash)    DE(int)     intcor
     12.91     -15.11       1.56        0.00      71.03       1.52       0.07       2.13       ----

> <Gold.Chemscore.Fitness>
12.9093

> <Gold.Chemscore.DG>
-15.1144

> <Gold.Chemscore.ZeroCoef>
-5.4800

> <Gold.Chemscore.Hbond>
1.5594

> <Gold.Chemscore.Metal>
0.0000

> <Gold.Chemscore.Lipo>
71.0343

> <Gold.Chemscore.Internal_Hbond>
0.0000

> <Gold.Chemscore.DEClash>
0.0704

> <Gold.Chemscore.DEInternal>
2.1348

> <Gold.Chemscore.Rot>
1.5176

> <Gold.Chemscore.Internal.Correction>
   9.000000E+99

> <Gold.Chemscore.Hbonds>
donor molecule, donor type, donor heavy atom, donor atom, acceptor molecule, acceptor atom, score
      L1  H     9    30       P1  7948  0.64
      L1  H    12    31       P1  7948  0.22
      P1  H  7989  7998       L1     5  0.15
      P1  H 10752 10764       L1    11  0.44

> <Gold.Chemscore.Hbond.Weighted>
-5.2085

> <Gold.Chemscore.Metal.Weighted>
-0.0000

> <Gold.Chemscore.Lipo.Weighted>
-8.3110

> <Gold.Chemscore.Internal_Hbond.Weighted>
0.0000

> <Gold.Chemscore.DEClash.Weighted>
0.0704

> <Gold.Chemscore.DEInternal.Weighted>
2.1348

> <Gold.Chemscore.Rot.Weighted>
3.8851

> <Gold.Chemscore.Internal.Correction.Weighted>
   9.000000E+99

> <Gold.Protein.RotatedTorsions>
[ 6907 6896 6895 6894 ] final -121.18 input  -60.11 | X-H torsion
[ 7974 7965 7964 7962 ] final  -25.53 input  175.53 | X-H torsion
[ 8008 7997 7996 7995 ] final  107.15 input   59.86 | X-H torsion
[ 10167 10162 10161 10158 ] final -143.29 input  -65.29 | X-H torsion
[ 10718 10713 10712 10709 ] final -145.80 input   66.30 | X-H torsion
[ 10763 10752 10751 10750 ] final  -34.04 input  -60.55 | X-H torsion
[ 11005 11000 10999 10996 ] final   27.28 input  -57.11 | X-H torsion

> <Gold.Protein.ActiveResidues>
 VAL166  LYS551  ARG553  GLY616  TRP617  ASP618  TYR619  PRO620  LYS621  CYS622 
 ASP623  PHE694  ASN695  SER759  ASP760  ASP761  ALA762  ILE779  LEU786  VAL792 
 PHE793  MET794  SER795  GLU796  ALA797  LYS798  CYS799  TRP800  GLU811  SER814 

> <Gold.Protein.RotatedAtoms>
  150.8460  133.7861  159.3042 H   0  0  0  0  0  0  0  0  0  0  0  0  # atno 6907 bound_to 6896
  151.5548  135.1065  159.9968 H   0  0  0  0  0  0  0  0  0  0  0  0  # atno 6908 bound_to 6896
  152.4513  133.7593  159.6793 H   0  0  0  0  0  0  0  0  0  0  0  0  # atno 6909 bound_to 6896
  146.1485  140.4899  142.8621 H   0  0  0  0  0  0  0  0  0  0  0  0  # atno 7974 bound_to 7965
  156.1801  140.3100  155.9132 H   0  0  0  0  0  0  0  0  0  0  0  0  # atno 8008 bound_to 7997
  155.3403  140.0465  157.3062 H   0  0  0  0  0  0  0  0  0  0  0  0  # atno 8009 bound_to 7997
  154.5333  140.2237  155.8777 H   0  0  0  0  0  0  0  0  0  0  0  0  # atno 8010 bound_to 7997
  139.8008  143.7836  152.2658 H   0  0  0  0  0  0  0  0  0  0  0  0  # atno 10167 bound_to 10162
  156.3870  130.7866  151.2064 H   0  0  0  0  0  0  0  0  0  0  0  0  # atno 10718 bound_to 10713
  153.8401  135.6858  153.4804 H   0  0  0  0  0  0  0  0  0  0  0  0  # atno 10763 bound_to 10752
  153.1458  135.4638  154.9562 H   0  0  0  0  0  0  0  0  0  0  0  0  # atno 10764 bound_to 10752
  154.7848  135.3281  154.7856 H   0  0  0  0  0  0  0  0  0  0  0  0  # atno 10765 bound_to 10752
  140.3279  134.2470  155.7707 H   0  0  0  0  0  0  0  0  0  0  0  0  # atno 11005 bound_to 11000
  144.7875  140.5965  143.6564 LP  0  0  0  0  0  0  0  0  0  0  0  0  # atno 17320 bound_to 7965
  145.4881  139.1490  143.3725 LP  0  0  0  0  0  0  0  0  0  0  0  0  # atno 17321 bound_to 7965
  139.7956  144.7394  150.9895 LP  0  0  0  0  0  0  0  0  0  0  0  0  # atno 17342 bound_to 10162
  140.7820  143.4397  151.0570 LP  0  0  0  0  0  0  0  0  0  0  0  0  # atno 17343 bound_to 10162
  157.7496  131.0327  150.4238 LP  0  0  0  0  0  0  0  0  0  0  0  0  # atno 17370 bound_to 10713
  156.4493  130.4008  149.6646 LP  0  0  0  0  0  0  0  0  0  0  0  0  # atno 17371 bound_to 10713
  141.2070  133.7816  157.0141 LP  0  0  0  0  0  0  0  0  0  0  0  0  # atno 17394 bound_to 11000
  140.0885  134.9606  157.1739 LP  0  0  0  0  0  0  0  0  0  0  0  0  # atno 17395 bound_to 11000

$$$$
