AV-unprocessed.smi:48|AV-procd|sdf|453|dock4
  -GOLD-   2262016323D 1   1.00000     0.00000
 Structure written by MMmdl.
 30 32  0  0  0  0  0  0  0  0  1 V2000
  142.8131  132.1220  148.9544 O   0  0  0  0  0  0  0  0  0  0  0  0
  144.1213  132.6335  148.8140 C   0  0  0  0  0  0  0  0  0  0  0  0
  144.7462  132.8631  150.1982 C   0  0  1  0  0  0  0  0  0  0  0  0
  146.1632  132.9021  150.0903 O   0  0  0  0  0  0  0  0  0  0  0  0
  146.6924  133.5314  151.2158 C   0  0  2  0  0  0  0  0  0  0  0  0
  146.9807  132.4948  152.2603 N   0  0  0  0  0  0  0  0  0  0  0  0
  146.4183  131.2802  152.4450 C   0  0  0  0  0  0  0  0  0  0  0  0
  146.8822  130.5351  153.4482 N   0  0  0  0  0  0  0  0  0  0  0  0
  147.8748  131.3517  153.9635 C   0  0  0  0  0  0  0  0  0  0  0  0
  148.7870  131.1988  155.0360 C   0  0  0  0  0  0  0  0  0  0  0  0
  148.7924  129.7691  156.0022 Cl  0  0  0  0  0  0  0  0  0  0  0  0
  149.6613  132.2029  155.2863 N   0  0  0  0  0  0  0  0  0  0  0  0
  149.6390  133.2998  154.5186 C   0  0  0  0  0  0  0  0  0  0  0  0
  148.8428  133.5842  153.4812 N   0  0  0  0  0  0  0  0  0  0  0  0
  147.9602  132.5712  153.2348 C   0  0  0  0  0  0  0  0  0  0  0  0
  145.6184  134.5146  151.7182 C   0  0  1  0  0  0  0  0  0  0  0  0
  146.0445  135.8553  151.5914 O   0  0  0  0  0  0  0  0  0  0  0  0
  144.4326  134.2392  150.7934 C   0  0  2  0  0  0  0  0  0  0  0  0
  143.2280  134.1897  151.5309 O   0  0  0  0  0  0  0  0  0  0  0  0
  144.4483  132.0794  150.8977 H   0  0  0  0  0  0  0  0  0  0  0  0
  147.6650  133.9795  151.0071 H   0  0  0  0  0  0  0  0  0  0  0  0
  145.3756  134.3071  152.7620 H   0  0  0  0  0  0  0  0  0  0  0  0
  144.3675  134.9885  150.0022 H   0  0  0  0  0  0  0  0  0  0  0  0
  142.2256  132.8424  149.1243 H   0  0  0  0  0  0  0  0  0  0  0  0
  144.7305  131.9616  148.2085 H   0  0  0  0  0  0  0  0  0  0  0  0
  144.0471  133.5785  148.2752 H   0  0  0  0  0  0  0  0  0  0  0  0
  145.6234  130.9167  151.8103 H   0  0  0  0  0  0  0  0  0  0  0  0
  150.3634  134.0599  154.7712 H   0  0  0  0  0  0  0  0  0  0  0  0
  146.9701  135.8577  151.3996 H   0  0  0  0  0  0  0  0  0  0  0  0
  142.5051  134.2132  150.9225 H   0  0  0  0  0  0  0  0  0  0  0  0
  1  2  1  0  0  0  0
  1 24  1  0  0  0  0
  2  3  1  0  0  0  0
  2 25  1  0  0  0  0
  2 26  1  0  0  0  0
  3 20  1  0  0  0  0
  3 18  1  0  0  0  0
  3  4  1  0  0  0  0
  4  5  1  0  0  0  0
  5 21  1  0  0  0  0
  5  6  1  0  0  0  0
  5 16  1  0  0  0  0
  6 15  1  0  0  0  0
  6  7  1  0  0  0  0
  7  8  2  0  0  0  0
  7 27  1  0  0  0  0
  8  9  1  0  0  0  0
  9 15  2  0  0  0  0
  9 10  1  0  0  0  0
 10 11  1  0  0  0  0
 10 12  2  0  0  0  0
 12 13  1  0  0  0  0
 13 14  2  0  0  0  0
 13 28  1  0  0  0  0
 14 15  1  0  0  0  0
 16 22  1  0  0  0  0
 16 17  1  0  0  0  0
 16 18  1  0  0  0  0
 17 29  1  0  0  0  0
 18 23  1  0  0  0  0
 18 19  1  0  0  0  0
 19 30  1  0  0  0  0
M  END
> <s_m_source_file>
AV-unprocessed.smi

> <i_m_source_file_index>
48

> <i_lp_mmshare_version>
43012

> <i_f3d_flags>
0

> <s_epik_input>
W09IXVtDSDJdW0NASF0xT1tDQEhdKFtDQEhdKFtPSF0pW0NAQEhdMVtPSF0pbihbY0hdbjIpYyhjMjMpbltjSF1uYzNDbA==

> <s_epik_cmdline>
J2VwaWtfcHl0aG9uJywgJy1waCcsICc3LjAnLCAnLXRuJywgJzgnLCAnLW1hJywgJzIwMCcsICctbWV0YWxfYmluZGluZycsICctaW1hZScsICc8aW5maWxlLm1hZT4nLCAnLW9tYWUnLCAnPG91dGZpbGUubWFlPic=

> <r_lp_tautomer_probability>
1

> <r_epik_Ionization_Penalty>
3.45505e-06

> <r_epik_Ionization_Penalty_Charging>
0

> <r_epik_Ionization_Penalty_Neutral>
3.45505e-06

> <r_epik_State_Penalty>
-0

> <r_epik_Charging_Adjusted_Penalty>
0

> <i_epik_Tot_Q>
0

> <i_epik_Tot_abs_Q>
0

> <r_epik_Metal_State_Penalty>
-0

> <b_epik_Metal_Only>
0

> <s_epik_Chemistry_Notes>
This compound contains an acetal/aminal-like group ( X-CH(R)-Y where X, Y are N, S, or O) that may be acid/base labile, releasing an aldehyde.

> <s_lp_Force_Field>
OPLS_2005

> <r_lp_Energy>
31.0033

> <b_lp_Chiralities_Consistent>
1

> <s_lp_Variant>
AV-unprocessed.smi:48-7

> <Gold.Version>
5.8.1

> <Gold.Id.Protein>
6NUR|6NUR_protein|mol2

> <Gold.PLP.Fitness>
42.4508

> <Gold.PLP.PLP>
-32.4176

> <Gold.PLP.part.hbond>
-5.0000

> <Gold.PLP.part.metal>
0.0000

> <Gold.PLP.part.buried>
-6.3083

> <Gold.PLP.part.nonpolar>
-22.5057

> <Gold.PLP.part.repulsive>
1.2425

> <Gold.PLP.ligand.clash>
0.0000

> <Gold.PLP.ligand.torsion>
0.9991

> <Gold.PLP.Chemscore.Hbond>
4.0000

> <Gold.PLP.Chemscore.CHOScore>
0.0000

> <Gold.PLP.Chemscore.Metal>
0.0000

> <Gold.Chemscore.Hbonds>
donor molecule, donor type, donor heavy atom, donor atom, acceptor molecule, acceptor atom, score
      L1  H     1    24       P1 10186  1.00
      L1  H    17    29       P1  7948  1.00
      L1  H    19    30       P1 10186  1.00
      P1  H 10785 10796       L1     1  1.00

> <Gold.PLP.Chemscore.Internal.Correction>
0.0313

> <Gold.Rescore>
     Score         DG    S(hbond)    S(metal)    S(lipo)     H(rot)  DE(clash)    DE(int)     intcor
      8.42      -9.72       2.72        0.00      41.67       3.80       0.27       1.04       ----

> <Gold.Chemscore.Fitness>
8.4189

> <Gold.Chemscore.DG>
-9.7203

> <Gold.Chemscore.ZeroCoef>
-5.4800

> <Gold.Chemscore.Hbond>
2.7237

> <Gold.Chemscore.Metal>
0.0000

> <Gold.Chemscore.Lipo>
41.6718

> <Gold.Chemscore.Internal_Hbond>
0.0000

> <Gold.Chemscore.DEClash>
0.2660

> <Gold.Chemscore.DEInternal>
1.0354

> <Gold.Chemscore.Rot>
3.8017

> <Gold.Chemscore.Internal.Correction>
   9.000000E+99

> <Gold.Chemscore.Hbonds>
donor molecule, donor type, donor heavy atom, donor atom, acceptor molecule, acceptor atom, score
      L1  H     1    24       P1 10186  0.93
      L1  H    17    29       P1  7948  0.92
      L1  H    19    30       P1 10186  0.28
      P1  H 10785 10796       L1     1  0.24

> <Gold.Chemscore.Hbond.Weighted>
-9.0971

> <Gold.Chemscore.Metal.Weighted>
-0.0000

> <Gold.Chemscore.Lipo.Weighted>
-4.8756

> <Gold.Chemscore.Internal_Hbond.Weighted>
0.0000

> <Gold.Chemscore.DEClash.Weighted>
0.2660

> <Gold.Chemscore.DEInternal.Weighted>
1.0354

> <Gold.Chemscore.Rot.Weighted>
9.7324

> <Gold.Chemscore.Internal.Correction.Weighted>
   9.000000E+99

> <Gold.Protein.RotatedTorsions>
[ 6907 6896 6895 6894 ] final -165.07 input  -60.11 | X-H torsion
[ 7974 7965 7964 7962 ] final -155.59 input  175.53 | X-H torsion
[ 8008 7997 7996 7995 ] final  -12.72 input   59.86 | X-H torsion
[ 10167 10162 10161 10158 ] final -166.85 input  -65.29 | X-H torsion
[ 10718 10713 10712 10709 ] final   35.09 input   66.30 | X-H torsion
[ 10763 10752 10751 10750 ] final  -96.91 input  -60.55 | X-H torsion
[ 11005 11000 10999 10996 ] final  -34.18 input  -57.11 | X-H torsion

> <Gold.Protein.ActiveResidues>
 VAL166  LYS551  ARG553  GLY616  TRP617  ASP618  TYR619  PRO620  LYS621  CYS622 
 ASP623  PHE694  ASN695  SER759  ASP760  ASP761  ALA762  ILE779  LEU786  VAL792 
 PHE793  MET794  SER795  GLU796  ALA797  LYS798  CYS799  TRP800  GLU811  SER814 

> <Gold.Protein.RotatedAtoms>
  151.4219  133.3695  159.2757 H   0  0  0  0  0  0  0  0  0  0  0  0  # atno 6907 bound_to 6896
  150.9287  134.8704  159.7548 H   0  0  0  0  0  0  0  0  0  0  0  0  # atno 6908 bound_to 6896
  152.5018  134.4162  159.9517 H   0  0  0  0  0  0  0  0  0  0  0  0  # atno 6909 bound_to 6896
  144.7633  140.4228  143.5960 H   0  0  0  0  0  0  0  0  0  0  0  0  # atno 7974 bound_to 7965
  154.5353  140.2268  155.8733 H   0  0  0  0  0  0  0  0  0  0  0  0  # atno 8008 bound_to 7997
  156.1805  140.3101  155.9103 H   0  0  0  0  0  0  0  0  0  0  0  0  # atno 8009 bound_to 7997
  155.3367  140.0448  157.3034 H   0  0  0  0  0  0  0  0  0  0  0  0  # atno 8010 bound_to 7997
  139.6088  144.0858  152.1820 H   0  0  0  0  0  0  0  0  0  0  0  0  # atno 10167 bound_to 10162
  157.3183  130.7435  149.6769 H   0  0  0  0  0  0  0  0  0  0  0  0  # atno 10718 bound_to 10713
  154.7281  135.5066  153.8919 H   0  0  0  0  0  0  0  0  0  0  0  0  # atno 10763 bound_to 10752
  153.0924  135.6663  153.9837 H   0  0  0  0  0  0  0  0  0  0  0  0  # atno 10764 bound_to 10752
  153.9645  135.3044  155.3411 H   0  0  0  0  0  0  0  0  0  0  0  0  # atno 10765 bound_to 10752
  140.9695  133.7118  156.1500 H   0  0  0  0  0  0  0  0  0  0  0  0  # atno 11005 bound_to 11000
  145.6550  139.1571  143.2840 LP  0  0  0  0  0  0  0  0  0  0  0  0  # atno 17320 bound_to 7965
  146.1717  140.6635  142.9230 LP  0  0  0  0  0  0  0  0  0  0  0  0  # atno 17321 bound_to 7965
  140.0472  144.5961  150.7364 LP  0  0  0  0  0  0  0  0  0  0  0  0  # atno 17342 bound_to 10162
  140.7304  143.2683  151.3973 LP  0  0  0  0  0  0  0  0  0  0  0  0  # atno 17343 bound_to 10162
  155.9683  130.4230  150.4545 LP  0  0  0  0  0  0  0  0  0  0  0  0  # atno 17370 bound_to 10713
  157.2556  131.0556  151.2352 LP  0  0  0  0  0  0  0  0  0  0  0  0  # atno 17371 bound_to 10713
  140.7350  134.4213  157.5561 LP  0  0  0  0  0  0  0  0  0  0  0  0  # atno 17394 bound_to 11000
  139.8907  134.8799  156.2357 LP  0  0  0  0  0  0  0  0  0  0  0  0  # atno 17395 bound_to 11000

$$$$
