AV-unprocessed.smi:1550|AV-procd|sdf|6224|dock1
  -GOLD-   22720 6393D 1   1.00000     0.00000
 Structure written by MMmdl.
 43 44  0  0  0  0  0  0  0  0  1 V2000
  150.6647  136.3949  156.0787 C   0  0  0  0  0  0  0  0  0  0  0  0
  150.6526  136.6921  157.5855 C   0  0  2  0  0  0  0  0  0  0  0  0
  149.3341  136.4360  158.0612 O   0  0  0  0  0  0  0  0  0  0  0  0
  149.1024  136.7605  159.4277 C   0  0  0  0  0  0  0  0  0  0  0  0
  148.1580  135.7153  160.0339 C   0  0  2  0  0  0  0  0  0  0  0  0
  148.1571  135.7520  161.5753 C   0  0  0  0  0  0  0  0  0  0  0  0
  147.2736  134.6345  162.1403 C   0  0  0  0  0  0  0  0  0  0  0  0
  147.6961  133.2891  161.5406 C   0  0  0  0  0  0  0  0  0  0  0  0
  147.7219  133.3724  160.0061 C   0  0  0  0  0  0  0  0  0  0  0  0
  148.5828  134.4283  159.5903 O   0  0  0  0  0  0  0  0  0  0  0  0
  151.0489  138.1496  157.8748 C   0  0  0  0  0  0  0  0  0  0  0  0
  151.8113  138.3928  158.8094 O   0  0  0  0  0  0  0  0  0  0  0  0
  150.5318  139.0643  157.0303 N   0  0  0  0  0  0  0  0  0  0  0  0
  150.7011  140.4594  156.9923 C   0  0  0  0  0  0  0  0  0  0  0  0
  151.2245  141.2158  157.9931 C   0  0  0  0  0  0  0  0  0  0  0  0
  151.3679  142.6577  157.8769 C   0  0  0  0  0  0  0  0  0  0  0  0
  151.9019  143.4998  159.0256 C   0  0  0  0  0  0  0  0  0  0  0  0
  152.3668  142.7337  160.0136 F   0  0  0  0  0  0  0  0  0  0  0  0
  152.8881  144.2978  158.6157 F   0  0  0  0  0  0  0  0  0  0  0  0
  150.9275  144.2642  159.5168 F   0  0  0  0  0  0  0  0  0  0  0  0
  150.9293  143.2146  156.7330 C   0  0  0  0  0  0  0  0  0  0  0  0
  150.3936  142.4449  155.6985 N   0  0  0  0  0  0  0  0  0  0  0  0
  150.2474  141.1021  155.7474 C   0  0  0  0  0  0  0  0  0  0  0  0
  149.7623  140.4960  154.7926 O   0  0  0  0  0  0  0  0  0  0  0  0
  150.0974  142.9354  154.8672 H   0  0  0  0  0  0  0  0  0  0  0  0
  151.6486  136.5789  155.6456 H   0  0  0  0  0  0  0  0  0  0  0  0
  149.9409  137.0089  155.5412 H   0  0  0  0  0  0  0  0  0  0  0  0
  150.4128  135.3511  155.8896 H   0  0  0  0  0  0  0  0  0  0  0  0
  151.3519  136.0103  158.0739 H   0  0  0  0  0  0  0  0  0  0  0  0
  150.0529  136.7510  159.9630 H   0  0  0  0  0  0  0  0  0  0  0  0
  148.6752  137.7573  159.5428 H   0  0  0  0  0  0  0  0  0  0  0  0
  147.1496  135.8971  159.6578 H   0  0  0  0  0  0  0  0  0  0  0  0
  149.1757  135.6342  161.9473 H   0  0  0  0  0  0  0  0  0  0  0  0
  147.8051  136.7204  161.9324 H   0  0  0  0  0  0  0  0  0  0  0  0
  147.3445  134.6061  163.2279 H   0  0  0  0  0  0  0  0  0  0  0  0
  146.2290  134.8340  161.8975 H   0  0  0  0  0  0  0  0  0  0  0  0
  148.6877  133.0198  161.9068 H   0  0  0  0  0  0  0  0  0  0  0  0
  147.0172  132.5005  161.8656 H   0  0  0  0  0  0  0  0  0  0  0  0
  148.0871  132.4348  159.5870 H   0  0  0  0  0  0  0  0  0  0  0  0
  146.7182  133.5284  159.6077 H   0  0  0  0  0  0  0  0  0  0  0  0
  149.9538  138.6978  156.2875 H   0  0  0  0  0  0  0  0  0  0  0  0
  151.5511  140.7724  158.9186 H   0  0  0  0  0  0  0  0  0  0  0  0
  150.9499  144.2742  156.5247 H   0  0  0  0  0  0  0  0  0  0  0  0
  1  2  1  0  0  0  0
  1 26  1  0  0  0  0
  1 27  1  0  0  0  0
  1 28  1  0  0  0  0
  2  3  1  0  0  0  0
  2 11  1  0  0  0  0
  2 29  1  0  0  0  0
  3  4  1  0  0  0  0
  4  5  1  0  0  0  0
  4 30  1  0  0  0  0
  4 31  1  0  0  0  0
  5 10  1  0  0  0  0
  5  6  1  0  0  0  0
  5 32  1  0  0  0  0
  6  7  1  0  0  0  0
  6 33  1  0  0  0  0
  6 34  1  0  0  0  0
  7  8  1  0  0  0  0
  7 35  1  0  0  0  0
  7 36  1  0  0  0  0
  8  9  1  0  0  0  0
  8 37  1  0  0  0  0
  8 38  1  0  0  0  0
  9 10  1  0  0  0  0
  9 39  1  0  0  0  0
  9 40  1  0  0  0  0
 11 12  2  0  0  0  0
 11 13  1  0  0  0  0
 13 14  1  0  0  0  0
 13 41  1  0  0  0  0
 14 23  1  0  0  0  0
 14 15  2  0  0  0  0
 15 16  1  0  0  0  0
 15 42  1  0  0  0  0
 16 17  1  0  0  0  0
 16 21  2  0  0  0  0
 17 18  1  0  0  0  0
 17 19  1  0  0  0  0
 17 20  1  0  0  0  0
 21 22  1  0  0  0  0
 21 43  1  0  0  0  0
 22 25  1  0  0  0  0
 22 23  1  0  0  0  0
 23 24  2  0  0  0  0
M  END
> <s_m_source_file>
AV-unprocessed.smi

> <i_m_source_file_index>
1550

> <i_lp_mmshare_version>
43012

> <i_f3d_flags>
0

> <s_epik_input>
TzFbQ0gyXVtDSDJdW0NIMl1bQ0gyXVtDQEhdMVtDSDJdT1tDQEBIXShbQ0gzXSlDKD1PKVtOSF1jMltjSF1jKEMoRikoRilGKVtjSF1bbkhdYzI9Tw==

> <s_epik_cmdline>
J2VwaWtfcHl0aG9uJywgJy1waCcsICc3LjAnLCAnLXRuJywgJzgnLCAnLW1hJywgJzIwMCcsICctbWV0YWxfYmluZGluZycsICctaW1hZScsICc8aW5maWxlLm1hZT4nLCAnLW9tYWUnLCAnPG91dGZpbGUubWFlPic=

> <r_lp_tautomer_probability>
0.999

> <r_epik_Ionization_Penalty>
0.00891333

> <r_epik_Ionization_Penalty_Charging>
0.00891323

> <r_epik_Ionization_Penalty_Neutral>
1.00146e-07

> <r_epik_State_Penalty>
0.00674197

> <r_epik_Charging_Adjusted_Penalty>
0.0156552

> <i_epik_Tot_Q>
0

> <i_epik_Tot_abs_Q>
0

> <r_epik_Metal_State_Penalty>
0.321024

> <b_epik_Metal_Only>
0

> <s_lp_Force_Field>
OPLS_2005

> <r_lp_Energy>
25.3727

> <b_lp_Chiralities_Consistent>
1

> <s_lp_Variant>
AV-unprocessed.smi:1550-1

> <Gold.Version>
5.8.1

> <Gold.Id.Protein>
6NUR|6NUR_protein|mol2

> <Gold.PLP.Fitness>
46.7562

> <Gold.PLP.PLP>
-42.1969

> <Gold.PLP.part.hbond>
-3.0000

> <Gold.PLP.part.metal>
0.0000

> <Gold.PLP.part.buried>
0.6360

> <Gold.PLP.part.nonpolar>
-39.3991

> <Gold.PLP.part.repulsive>
0.2888

> <Gold.PLP.ligand.clash>
0.0000

> <Gold.PLP.ligand.torsion>
1.0771

> <Gold.PLP.Chemscore.Hbond>
1.7410

> <Gold.PLP.Chemscore.CHOScore>
0.4467

> <Gold.PLP.Chemscore.Metal>
0.0000

> <Gold.Chemscore.Hbonds>
donor molecule, donor type, donor heavy atom, donor atom, acceptor molecule, acceptor atom, score
      L1  H    22    25       P1  8028  0.04
      P1  H  6896  6907       L1    10  0.69
      P1  H  7989  7998       L1    24  0.18
      L1  C    21    43       P1  8028  0.52

> <Gold.PLP.Chemscore.Internal.Correction>
0.1502

> <Gold.Rescore>
     Score         DG    S(hbond)    S(metal)    S(lipo)     H(rot)  DE(clash)    DE(int)     intcor
     13.13     -15.27       1.53        0.00      80.59       1.86       0.24       1.89       ----

> <Gold.Chemscore.Fitness>
13.1350

> <Gold.Chemscore.DG>
-15.2674

> <Gold.Chemscore.ZeroCoef>
-5.4800

> <Gold.Chemscore.Hbond>
1.5305

> <Gold.Chemscore.Metal>
0.0000

> <Gold.Chemscore.Lipo>
80.5943

> <Gold.Chemscore.Internal_Hbond>
0.0000

> <Gold.Chemscore.DEClash>
0.2408

> <Gold.Chemscore.DEInternal>
1.8917

> <Gold.Chemscore.Rot>
1.8571

> <Gold.Chemscore.Internal.Correction>
   9.000000E+99

> <Gold.Chemscore.Hbonds>
donor molecule, donor type, donor heavy atom, donor atom, acceptor molecule, acceptor atom, score
      L1  H    22    25       P1  8028  0.04
      P1  H  6896  6907       L1    10  0.30
      P1  H  7989  7998       L1    24  0.01

> <Gold.Chemscore.Hbond.Weighted>
-5.1120

> <Gold.Chemscore.Metal.Weighted>
-0.0000

> <Gold.Chemscore.Lipo.Weighted>
-9.4295

> <Gold.Chemscore.Internal_Hbond.Weighted>
0.0000

> <Gold.Chemscore.DEClash.Weighted>
0.2408

> <Gold.Chemscore.DEInternal.Weighted>
1.8917

> <Gold.Chemscore.Rot.Weighted>
4.7541

> <Gold.Chemscore.Internal.Correction.Weighted>
   9.000000E+99

> <Gold.Protein.RotatedTorsions>
[ 6907 6896 6895 6894 ] final  -68.95 input  -60.11 | X-H torsion
[ 7974 7965 7964 7962 ] final   80.93 input  175.53 | X-H torsion
[ 8008 7997 7996 7995 ] final  175.87 input   59.86 | X-H torsion
[ 10167 10162 10161 10158 ] final -166.28 input  -65.29 | X-H torsion
[ 10718 10713 10712 10709 ] final   14.17 input   66.30 | X-H torsion
[ 10763 10752 10751 10750 ] final  128.88 input  -60.55 | X-H torsion
[ 11005 11000 10999 10996 ] final   90.10 input  -57.11 | X-H torsion

> <Gold.Protein.ActiveResidues>
 VAL166  LYS551  ARG553  GLY616  TRP617  ASP618  TYR619  PRO620  LYS621  CYS622 
 ASP623  PHE694  ASN695  SER759  ASP760  ASP761  ALA762  ILE779  LEU786  VAL792 
 PHE793  MET794  SER795  GLU796  ALA797  LYS798  CYS799  TRP800  GLU811  SER814 

> <Gold.Protein.RotatedAtoms>
  150.7330  134.5666  159.5868 H   0  0  0  0  0  0  0  0  0  0  0  0  # atno 6907 bound_to 6896
  152.3116  134.7488  160.0344 H   0  0  0  0  0  0  0  0  0  0  0  0  # atno 6908 bound_to 6896
  151.8034  133.3337  159.3570 H   0  0  0  0  0  0  0  0  0  0  0  0  # atno 6909 bound_to 6896
  145.6447  139.2433  143.2010 H   0  0  0  0  0  0  0  0  0  0  0  0  # atno 7974 bound_to 7965
  156.0825  140.1398  156.9694 H   0  0  0  0  0  0  0  0  0  0  0  0  # atno 8008 bound_to 7997
  154.4593  140.0949  156.6898 H   0  0  0  0  0  0  0  0  0  0  0  0  # atno 8009 bound_to 7997
  155.5052  140.3452  155.4380 H   0  0  0  0  0  0  0  0  0  0  0  0  # atno 8010 bound_to 7997
  139.6125  144.0785  152.1856 H   0  0  0  0  0  0  0  0  0  0  0  0  # atno 10167 bound_to 10162
  157.0352  130.6209  149.5742 H   0  0  0  0  0  0  0  0  0  0  0  0  # atno 10718 bound_to 10713
  153.7328  135.3236  155.3289 H   0  0  0  0  0  0  0  0  0  0  0  0  # atno 10763 bound_to 10752
  154.8320  135.4526  154.1105 H   0  0  0  0  0  0  0  0  0  0  0  0  # atno 10764 bound_to 10752
  153.2257  135.6954  153.8029 H   0  0  0  0  0  0  0  0  0  0  0  0  # atno 10765 bound_to 10752
  139.8862  134.8593  156.3237 H   0  0  0  0  0  0  0  0  0  0  0  0  # atno 11005 bound_to 11000
  146.1252  140.7257  142.9438 LP  0  0  0  0  0  0  0  0  0  0  0  0  # atno 17320 bound_to 7965
  144.7144  140.4157  143.7055 LP  0  0  0  0  0  0  0  0  0  0  0  0  # atno 17321 bound_to 7965
  140.0407  144.6009  150.7413 LP  0  0  0  0  0  0  0  0  0  0  0  0  # atno 17342 bound_to 10162
  140.7329  143.2711  151.3886 LP  0  0  0  0  0  0  0  0  0  0  0  0  # atno 17343 bound_to 10162
  156.0056  130.5142  150.7818 LP  0  0  0  0  0  0  0  0  0  0  0  0  # atno 17370 bound_to 10713
  157.5147  131.0928  151.0154 LP  0  0  0  0  0  0  0  0  0  0  0  0  # atno 17371 bound_to 10713
  140.9769  133.7291  156.0616 LP  0  0  0  0  0  0  0  0  0  0  0  0  # atno 17394 bound_to 11000
  140.7799  134.3737  157.5489 LP  0  0  0  0  0  0  0  0  0  0  0  0  # atno 17395 bound_to 11000

$$$$
