AV-unprocessed.smi:2139|AV-procd|sdf|8713|dock1
  -GOLD-   2272011473D 1   1.00000     0.00000
 Structure written by MMmdl.
 40 41  0  0  0  0  0  0  0  0  1 V2000
  154.9346  138.0907  162.3186 C   0  0  0  0  0  0  0  0  0  0  0  0
  154.1001  139.1385  161.5678 C   0  0  0  0  0  0  0  0  0  0  0  0
  154.8949  140.3947  161.1617 C   0  0  1  0  0  0  0  0  0  0  0  0
  155.9919  140.0658  160.1398 C   0  0  0  0  0  0  0  0  0  0  0  0
  154.0054  141.4098  160.5996 N   0  0  0  0  0  0  0  0  0  0  0  0
  153.2860  141.2905  159.4710 C   0  0  0  0  0  0  0  0  0  0  0  0
  153.3124  140.2956  158.7459 O   0  0  0  0  0  0  0  0  0  0  0  0
  152.4518  142.4945  159.1164 C   0  0  0  0  0  0  0  0  0  0  0  0
  152.7642  143.7481  159.6921 C   0  0  0  0  0  0  0  0  0  0  0  0
  151.9602  144.8651  159.4048 C   0  0  0  0  0  0  0  0  0  0  0  0
  150.8575  144.6884  158.5521 C   0  0  0  0  0  0  0  0  0  0  0  0
  150.5403  143.5029  157.9945 N   0  0  0  0  0  0  0  0  0  0  0  0
  151.3115  142.4195  158.2617 C   0  0  0  0  0  0  0  0  0  0  0  0
  150.9571  141.2207  157.6116 N   0  0  0  0  0  0  0  0  0  0  0  0
  149.7307  140.5570  158.0399 C   0  0  0  0  0  0  0  0  0  0  0  0
  149.6474  139.1600  157.4008 C   0  0  0  0  0  0  0  0  0  0  0  0
  149.7402  139.2758  155.9831 O   0  0  0  0  0  0  0  0  0  0  0  0
  150.9721  139.8628  155.5710 C   0  0  0  0  0  0  0  0  0  0  0  0
  151.0930  141.2774  156.1622 C   0  0  0  0  0  0  0  0  0  0  0  0
  154.3460  137.1938  162.5113 H   0  0  0  0  0  0  0  0  0  0  0  0
  155.2791  138.4690  163.2804 H   0  0  0  0  0  0  0  0  0  0  0  0
  155.8107  137.7960  161.7401 H   0  0  0  0  0  0  0  0  0  0  0  0
  153.6886  138.6733  160.6713 H   0  0  0  0  0  0  0  0  0  0  0  0
  153.2439  139.4233  162.1805 H   0  0  0  0  0  0  0  0  0  0  0  0
  155.3898  140.7800  162.0548 H   0  0  0  0  0  0  0  0  0  0  0  0
  156.6898  139.3283  160.5369 H   0  0  0  0  0  0  0  0  0  0  0  0
  156.5669  140.9559  159.8820 H   0  0  0  0  0  0  0  0  0  0  0  0
  155.5703  139.6626  159.2185 H   0  0  0  0  0  0  0  0  0  0  0  0
  153.9282  142.2752  161.1140 H   0  0  0  0  0  0  0  0  0  0  0  0
  153.6067  143.8590  160.3595 H   0  0  0  0  0  0  0  0  0  0  0  0
  152.1789  145.8316  159.8342 H   0  0  0  0  0  0  0  0  0  0  0  0
  150.2132  145.5206  158.3102 H   0  0  0  0  0  0  0  0  0  0  0  0
  149.7123  140.4748  159.1271 H   0  0  0  0  0  0  0  0  0  0  0  0
  148.8657  141.1508  157.7418 H   0  0  0  0  0  0  0  0  0  0  0  0
  150.4421  138.5133  157.7758 H   0  0  0  0  0  0  0  0  0  0  0  0
  148.7008  138.6847  157.6580 H   0  0  0  0  0  0  0  0  0  0  0  0
  151.8092  139.2379  155.8871 H   0  0  0  0  0  0  0  0  0  0  0  0
  150.9995  139.9061  154.4821 H   0  0  0  0  0  0  0  0  0  0  0  0
  150.3128  141.9219  155.7548 H   0  0  0  0  0  0  0  0  0  0  0  0
  152.0486  141.7189  155.8818 H   0  0  0  0  0  0  0  0  0  0  0  0
  1  2  1  0  0  0  0
  1 20  1  0  0  0  0
  1 21  1  0  0  0  0
  1 22  1  0  0  0  0
  2  3  1  0  0  0  0
  2 23  1  0  0  0  0
  2 24  1  0  0  0  0
  3  4  1  0  0  0  0
  3  5  1  0  0  0  0
  3 25  1  0  0  0  0
  4 26  1  0  0  0  0
  4 27  1  0  0  0  0
  4 28  1  0  0  0  0
  5  6  1  0  0  0  0
  5 29  1  0  0  0  0
  6  7  2  0  0  0  0
  6  8  1  0  0  0  0
  8 13  1  0  0  0  0
  8  9  2  0  0  0  0
  9 10  1  0  0  0  0
  9 30  1  0  0  0  0
 10 11  2  0  0  0  0
 10 31  1  0  0  0  0
 11 12  1  0  0  0  0
 11 32  1  0  0  0  0
 12 13  2  0  0  0  0
 13 14  1  0  0  0  0
 14 19  1  0  0  0  0
 14 15  1  0  0  0  0
 15 16  1  0  0  0  0
 15 33  1  0  0  0  0
 15 34  1  0  0  0  0
 16 17  1  0  0  0  0
 16 35  1  0  0  0  0
 16 36  1  0  0  0  0
 17 18  1  0  0  0  0
 18 19  1  0  0  0  0
 18 37  1  0  0  0  0
 18 38  1  0  0  0  0
 19 39  1  0  0  0  0
 19 40  1  0  0  0  0
M  END
> <s_m_source_file>
AV-unprocessed.smi

> <i_m_source_file_index>
2139

> <i_lp_mmshare_version>
43012

> <i_f3d_flags>
0

> <s_epik_input>
W0NIM11bQ0gyXVtDQEhdKFtDSDNdKVtOSF1DKD1PKWMxW2NIXVtjSF1bY0hdbmMxTjJbQ0gyXVtDSDJdT1tDSDJdW0NIMl0y

> <s_epik_cmdline>
J2VwaWtfcHl0aG9uJywgJy1waCcsICc3LjAnLCAnLXRuJywgJzgnLCAnLW1hJywgJzIwMCcsICctbWV0YWxfYmluZGluZycsICctaW1hZScsICc8aW5maWxlLm1hZT4nLCAnLW9tYWUnLCAnPG91dGZpbGUubWFlPic=

> <r_lp_tautomer_probability>
1

> <r_epik_Ionization_Penalty>
1.73125e-05

> <r_epik_Ionization_Penalty_Charging>
0

> <r_epik_Ionization_Penalty_Neutral>
1.73125e-05

> <r_epik_State_Penalty>
-0

> <r_epik_Charging_Adjusted_Penalty>
0

> <i_epik_Tot_Q>
0

> <i_epik_Tot_abs_Q>
0

> <r_epik_Metal_State_Penalty>
-0

> <b_epik_Metal_Only>
0

> <s_lp_Force_Field>
OPLS_2005

> <r_lp_Energy>
25.2402

> <b_lp_Chiralities_Consistent>
1

> <s_lp_Variant>
AV-unprocessed.smi:2139-2

> <Gold.Version>
5.8.1

> <Gold.Id.Protein>
6NUR|6NUR_protein|mol2

> <Gold.PLP.Fitness>
40.1025

> <Gold.PLP.PLP>
-35.1903

> <Gold.PLP.part.hbond>
-1.0000

> <Gold.PLP.part.metal>
0.0000

> <Gold.PLP.part.buried>
-4.1952

> <Gold.PLP.part.nonpolar>
-30.1405

> <Gold.PLP.part.repulsive>
0.2953

> <Gold.PLP.ligand.clash>
0.0000

> <Gold.PLP.ligand.torsion>
0.3444

> <Gold.PLP.Chemscore.Hbond>
0.7823

> <Gold.PLP.Chemscore.CHOScore>
1.0000

> <Gold.PLP.Chemscore.Metal>
0.0000

> <Gold.Chemscore.Hbonds>
donor molecule, donor type, donor heavy atom, donor atom, acceptor molecule, acceptor atom, score
      P1  H  7997  8008       L1     7  0.58
      L1  C    11    32       P1  8029  0.95

> <Gold.PLP.Chemscore.Internal.Correction>
0.2541

> <Gold.Rescore>
     Score         DG    S(hbond)    S(metal)    S(lipo)     H(rot)  DE(clash)    DE(int)     intcor
     13.25     -15.61       0.77        0.00      93.25       1.30       0.03       2.34       ----

> <Gold.Chemscore.Fitness>
13.2455

> <Gold.Chemscore.DG>
-15.6150

> <Gold.Chemscore.ZeroCoef>
-5.4800

> <Gold.Chemscore.Hbond>
0.7675

> <Gold.Chemscore.Metal>
0.0000

> <Gold.Chemscore.Lipo>
93.2485

> <Gold.Chemscore.Internal_Hbond>
0.0000

> <Gold.Chemscore.DEClash>
0.0340

> <Gold.Chemscore.DEInternal>
2.3354

> <Gold.Chemscore.Rot>
1.3041

> <Gold.Chemscore.Internal.Correction>
   9.000000E+99

> <Gold.Chemscore.Hbonds>
donor molecule, donor type, donor heavy atom, donor atom, acceptor molecule, acceptor atom, score
      P1  H  7997  8008       L1     7  0.56

> <Gold.Chemscore.Hbond.Weighted>
-2.5634

> <Gold.Chemscore.Metal.Weighted>
-0.0000

> <Gold.Chemscore.Lipo.Weighted>
-10.9101

> <Gold.Chemscore.Internal_Hbond.Weighted>
0.0000

> <Gold.Chemscore.DEClash.Weighted>
0.0340

> <Gold.Chemscore.DEInternal.Weighted>
2.3354

> <Gold.Chemscore.Rot.Weighted>
3.3385

> <Gold.Chemscore.Internal.Correction.Weighted>
   9.000000E+99

> <Gold.Protein.RotatedTorsions>
[ 6907 6896 6895 6894 ] final  134.49 input  -60.11 | X-H torsion
[ 7974 7965 7964 7962 ] final  179.18 input  175.53 | X-H torsion
[ 8008 7997 7996 7995 ] final -103.49 input   59.86 | X-H torsion
[ 10167 10162 10161 10158 ] final  -50.02 input  -65.29 | X-H torsion
[ 10718 10713 10712 10709 ] final   12.25 input   66.30 | X-H torsion
[ 10763 10752 10751 10750 ] final   -8.25 input  -60.55 | X-H torsion
[ 11005 11000 10999 10996 ] final -130.35 input  -57.11 | X-H torsion

> <Gold.Protein.ActiveResidues>
 VAL166  LYS551  ARG553  GLY616  TRP617  ASP618  TYR619  PRO620  LYS621  CYS622 
 ASP623  PHE694  ASN695  SER759  ASP760  ASP761  ALA762  ILE779  LEU786  VAL792 
 PHE793  MET794  SER795  GLU796  ALA797  LYS798  CYS799  TRP800  GLU811  SER814 

> <Gold.Protein.RotatedAtoms>
  152.3107  133.5750  159.5678 H   0  0  0  0  0  0  0  0  0  0  0  0  # atno 6907 bound_to 6896
  150.7322  134.0156  159.3693 H   0  0  0  0  0  0  0  0  0  0  0  0  # atno 6908 bound_to 6896
  151.8049  135.0698  160.0456 H   0  0  0  0  0  0  0  0  0  0  0  0  # atno 6909 bound_to 6896
  144.7148  140.0509  143.6435 H   0  0  0  0  0  0  0  0  0  0  0  0  # atno 7974 bound_to 7965
  154.8717  140.0422  157.1728 H   0  0  0  0  0  0  0  0  0  0  0  0  # atno 8008 bound_to 7997
  154.8732  140.2961  155.5448 H   0  0  0  0  0  0  0  0  0  0  0  0  # atno 8009 bound_to 7997
  156.2999  140.2425  156.3724 H   0  0  0  0  0  0  0  0  0  0  0  0  # atno 8010 bound_to 7997
  140.6657  143.2674  151.4300 H   0  0  0  0  0  0  0  0  0  0  0  0  # atno 10167 bound_to 10162
  157.0074  130.6103  149.5704 H   0  0  0  0  0  0  0  0  0  0  0  0  # atno 10718 bound_to 10713
  153.4379  135.7013  153.6188 H   0  0  0  0  0  0  0  0  0  0  0  0  # atno 10763 bound_to 10752
  153.4575  135.3744  155.2320 H   0  0  0  0  0  0  0  0  0  0  0  0  # atno 10764 bound_to 10752
  154.8727  135.4012  154.3773 H   0  0  0  0  0  0  0  0  0  0  0  0  # atno 10765 bound_to 10752
  140.9353  134.1265  157.4199 H   0  0  0  0  0  0  0  0  0  0  0  0  # atno 11005 bound_to 11000
  145.9944  139.3041  143.0965 LP  0  0  0  0  0  0  0  0  0  0  0  0  # atno 17320 bound_to 7965
  145.8865  140.9330  143.0574 LP  0  0  0  0  0  0  0  0  0  0  0  0  # atno 17321 bound_to 7965
  139.5905  144.1509  152.2083 LP  0  0  0  0  0  0  0  0  0  0  0  0  # atno 17342 bound_to 10162
  140.0862  144.5659  150.7087 LP  0  0  0  0  0  0  0  0  0  0  0  0  # atno 17343 bound_to 10162
  156.0148  130.5242  150.8102 LP  0  0  0  0  0  0  0  0  0  0  0  0  # atno 17370 bound_to 10713
  157.5345  131.0938  150.9910 LP  0  0  0  0  0  0  0  0  0  0  0  0  # atno 17371 bound_to 10713
  139.8806  135.0019  156.6093 LP  0  0  0  0  0  0  0  0  0  0  0  0  # atno 17394 bound_to 11000
  140.7808  133.8662  155.8566 LP  0  0  0  0  0  0  0  0  0  0  0  0  # atno 17395 bound_to 11000

$$$$
