AV-unprocessed.smi:3350|AV-procd|sdf|12944|dock2
  -GOLD-   2272019373D 1   1.00000     0.00000
 Structure written by MMmdl.
 41 42  0  0  0  0  0  0  0  0  1 V2000
  147.9111  138.7178  155.4581 C   0  0  0  0  0  0  0  0  0  0  0  0
  147.6818  139.1486  154.0031 C   0  0  1  0  0  0  0  0  0  0  0  0
  148.9369  139.8295  153.4151 C   0  0  0  0  0  0  0  0  0  0  0  0
  150.1681  139.3704  154.0334 N   0  0  0  0  0  0  0  0  0  0  0  0
  150.6064  138.0750  154.2127 C   0  0  0  0  0  0  0  0  0  0  0  0
  151.8277  138.1396  154.8192 C   0  0  0  0  0  0  0  0  0  0  0  0
  152.0522  139.5358  154.9775 C   0  0  0  0  0  0  0  0  0  0  0  0
  151.0552  140.2698  154.5103 N   0  0  0  0  0  0  0  0  0  0  0  0
  147.3083  137.9746  153.2149 N   0  0  0  0  0  0  0  0  0  0  0  0
  146.0604  137.5150  153.0406 C   0  0  0  0  0  0  0  0  0  0  0  0
  145.0618  138.0206  153.5526 O   0  0  0  0  0  0  0  0  0  0  0  0
  146.0376  136.4528  152.2209 N   0  0  0  0  0  0  0  0  0  0  0  0
  144.8610  135.7119  151.7598 C   0  0  2  0  0  0  0  0  0  0  0  0
  143.9179  135.3817  152.9328 C   0  0  0  0  0  0  0  0  0  0  0  0
  145.2531  134.4685  150.9306 C   0  0  1  0  0  0  0  0  0  0  0  0
  145.9750  133.3777  151.7225 C   0  0  0  0  0  0  0  0  0  0  0  0
  145.6835  132.1114  150.9329 C   0  0  0  0  0  0  0  0  0  0  0  0
  144.5121  132.4985  150.0258 C   0  0  0  0  0  0  0  0  0  0  0  0
  144.0972  133.7797  150.4788 O   0  0  0  0  0  0  0  0  0  0  0  0
  148.1537  139.5749  156.0866 H   0  0  0  0  0  0  0  0  0  0  0  0
  148.7321  138.0042  155.5376 H   0  0  0  0  0  0  0  0  0  0  0  0
  147.0191  138.2483  155.8743 H   0  0  0  0  0  0  0  0  0  0  0  0
  146.8605  139.8680  154.0073 H   0  0  0  0  0  0  0  0  0  0  0  0
  149.0046  139.6319  152.3442 H   0  0  0  0  0  0  0  0  0  0  0  0
  148.8732  140.9130  153.5261 H   0  0  0  0  0  0  0  0  0  0  0  0
  150.0238  137.2256  153.8884 H   0  0  0  0  0  0  0  0  0  0  0  0
  152.4652  137.3159  155.1036 H   0  0  0  0  0  0  0  0  0  0  0  0
  152.9043  140.0345  155.4151 H   0  0  0  0  0  0  0  0  0  0  0  0
  148.0590  137.4865  152.7491 H   0  0  0  0  0  0  0  0  0  0  0  0
  146.9252  136.1267  151.8681 H   0  0  0  0  0  0  0  0  0  0  0  0
  144.3294  136.3983  151.1001 H   0  0  0  0  0  0  0  0  0  0  0  0
  142.9720  134.9755  152.5746 H   0  0  0  0  0  0  0  0  0  0  0  0
  143.6876  136.2747  153.5149 H   0  0  0  0  0  0  0  0  0  0  0  0
  144.3532  134.6461  153.6095 H   0  0  0  0  0  0  0  0  0  0  0  0
  145.8585  134.7468  150.0663 H   0  0  0  0  0  0  0  0  0  0  0  0
  147.0424  133.5716  151.8310 H   0  0  0  0  0  0  0  0  0  0  0  0
  145.5460  133.2897  152.7217 H   0  0  0  0  0  0  0  0  0  0  0  0
  146.5447  131.8072  150.3371 H   0  0  0  0  0  0  0  0  0  0  0  0
  145.4262  131.2863  151.5979 H   0  0  0  0  0  0  0  0  0  0  0  0
  144.8394  132.5733  148.9880 H   0  0  0  0  0  0  0  0  0  0  0  0
  143.6911  131.7830  150.0727 H   0  0  0  0  0  0  0  0  0  0  0  0
  1  2  1  0  0  0  0
  1 20  1  0  0  0  0
  1 21  1  0  0  0  0
  1 22  1  0  0  0  0
  2  3  1  0  0  0  0
  2  9  1  0  0  0  0
  2 23  1  0  0  0  0
  3  4  1  0  0  0  0
  3 24  1  0  0  0  0
  3 25  1  0  0  0  0
  4  8  1  0  0  0  0
  4  5  1  0  0  0  0
  5  6  2  0  0  0  0
  5 26  1  0  0  0  0
  6  7  1  0  0  0  0
  6 27  1  0  0  0  0
  7  8  2  0  0  0  0
  7 28  1  0  0  0  0
  9 10  1  0  0  0  0
  9 29  1  0  0  0  0
 10 11  2  0  0  0  0
 10 12  1  0  0  0  0
 12 13  1  0  0  0  0
 12 30  1  0  0  0  0
 13 14  1  0  0  0  0
 13 15  1  0  0  0  0
 13 31  1  0  0  0  0
 14 32  1  0  0  0  0
 14 33  1  0  0  0  0
 14 34  1  0  0  0  0
 15 19  1  0  0  0  0
 15 16  1  0  0  0  0
 15 35  1  0  0  0  0
 16 17  1  0  0  0  0
 16 36  1  0  0  0  0
 16 37  1  0  0  0  0
 17 18  1  0  0  0  0
 17 38  1  0  0  0  0
 17 39  1  0  0  0  0
 18 19  1  0  0  0  0
 18 40  1  0  0  0  0
 18 41  1  0  0  0  0
M  END
> <s_m_source_file>
AV-unprocessed.smi

> <i_m_source_file_index>
3350

> <i_lp_mmshare_version>
43012

> <i_f3d_flags>
0

> <s_epik_input>
bjFbY0hdW2NIXVtjSF1uMVtDSDJdW0NAQEhdKFtDSDNdKVtOSF1DKD1PKVtOSF1bQ0BIXShbQ0gzXSlbQ0BASF0yW0NIMl1bQ0gyXVtDSDJdTzI=

> <s_epik_cmdline>
J2VwaWtfcHl0aG9uJywgJy1waCcsICc3LjAnLCAnLXRuJywgJzgnLCAnLW1hJywgJzIwMCcsICctbWV0YWxfYmluZGluZycsICctaW1hZScsICc8aW5maWxlLm1hZT4nLCAnLW9tYWUnLCAnPG91dGZpbGUubWFlPic=

> <r_lp_tautomer_probability>
1

> <r_epik_Ionization_Penalty>
6.42349e-05

> <r_epik_Ionization_Penalty_Charging>
0

> <r_epik_Ionization_Penalty_Neutral>
6.42349e-05

> <r_epik_State_Penalty>
-0

> <r_epik_Charging_Adjusted_Penalty>
0

> <i_epik_Tot_Q>
0

> <i_epik_Tot_abs_Q>
0

> <r_epik_Metal_State_Penalty>
-0

> <b_epik_Metal_Only>
0

> <s_lp_Force_Field>
OPLS_2005

> <r_lp_Energy>
15.9813

> <b_lp_Chiralities_Consistent>
1

> <s_lp_Variant>
AV-unprocessed.smi:3350-6

> <Gold.Version>
5.8.1

> <Gold.Id.Protein>
6NUR|6NUR_protein|mol2

> <Gold.PLP.Fitness>
42.6413

> <Gold.PLP.PLP>
-32.4307

> <Gold.PLP.part.hbond>
-3.0000

> <Gold.PLP.part.metal>
0.0000

> <Gold.PLP.part.buried>
-3.9749

> <Gold.PLP.part.nonpolar>
-26.8105

> <Gold.PLP.part.repulsive>
0.4322

> <Gold.PLP.ligand.clash>
0.0000

> <Gold.PLP.ligand.torsion>
0.9797

> <Gold.PLP.Chemscore.Hbond>
3.0000

> <Gold.PLP.Chemscore.CHOScore>
1.0120

> <Gold.PLP.Chemscore.Metal>
0.0000

> <Gold.Chemscore.Hbonds>
donor molecule, donor type, donor heavy atom, donor atom, acceptor molecule, acceptor atom, score
      L1  H     9    29       P1  7948  1.00
      L1  H    12    30       P1  7948  1.00
      P1  H  7989  7998       L1     8  0.46
      L1  C     5    26       P1  7948  1.00

> <Gold.PLP.Chemscore.Internal.Correction>
0.1340

> <Gold.Rescore>
     Score         DG    S(hbond)    S(metal)    S(lipo)     H(rot)  DE(clash)    DE(int)     intcor
     16.07     -18.78       2.64        0.00      77.98       1.82       2.00       0.72       ----

> <Gold.Chemscore.Fitness>
16.0650

> <Gold.Chemscore.DG>
-18.7780

> <Gold.Chemscore.ZeroCoef>
-5.4800

> <Gold.Chemscore.Hbond>
2.6445

> <Gold.Chemscore.Metal>
0.0000

> <Gold.Chemscore.Lipo>
77.9818

> <Gold.Chemscore.Internal_Hbond>
0.0000

> <Gold.Chemscore.DEClash>
1.9974

> <Gold.Chemscore.DEInternal>
0.7156

> <Gold.Chemscore.Rot>
1.8197

> <Gold.Chemscore.Internal.Correction>
   9.000000E+99

> <Gold.Chemscore.Hbonds>
donor molecule, donor type, donor heavy atom, donor atom, acceptor molecule, acceptor atom, score
      L1  H     9    29       P1  7948  1.00
      L1  H    12    30       P1  7948  0.92
      P1  H  7989  7998       L1     8  0.10

> <Gold.Chemscore.Hbond.Weighted>
-8.8325

> <Gold.Chemscore.Metal.Weighted>
-0.0000

> <Gold.Chemscore.Lipo.Weighted>
-9.1239

> <Gold.Chemscore.Internal_Hbond.Weighted>
0.0000

> <Gold.Chemscore.DEClash.Weighted>
1.9974

> <Gold.Chemscore.DEInternal.Weighted>
0.7156

> <Gold.Chemscore.Rot.Weighted>
4.6583

> <Gold.Chemscore.Internal.Correction.Weighted>
   9.000000E+99

> <Gold.Protein.RotatedTorsions>
[ 6907 6896 6895 6894 ] final -112.42 input  -60.11 | X-H torsion
[ 7974 7965 7964 7962 ] final  -25.83 input  175.53 | X-H torsion
[ 8008 7997 7996 7995 ] final  -79.21 input   59.86 | X-H torsion
[ 10167 10162 10161 10158 ] final  -17.09 input  -65.29 | X-H torsion
[ 10718 10713 10712 10709 ] final   90.56 input   66.30 | X-H torsion
[ 10763 10752 10751 10750 ] final   69.86 input  -60.55 | X-H torsion
[ 11005 11000 10999 10996 ] final -158.87 input  -57.11 | X-H torsion

> <Gold.Protein.ActiveResidues>
 VAL166  LYS551  ARG553  GLY616  TRP617  ASP618  TYR619  PRO620  LYS621  CYS622 
 ASP623  PHE694  ASN695  SER759  ASP760  ASP761  ALA762  ILE779  LEU786  VAL792 
 PHE793  MET794  SER795  GLU796  ALA797  LYS798  CYS799  TRP800  GLU811  SER814 

> <Gold.Protein.RotatedAtoms>
  150.7757  133.9092  159.3364 H   0  0  0  0  0  0  0  0  0  0  0  0  # atno 6907 bound_to 6896
  151.6967  135.0935  160.0253 H   0  0  0  0  0  0  0  0  0  0  0  0  # atno 6908 bound_to 6896
  152.3792  133.6485  159.6183 H   0  0  0  0  0  0  0  0  0  0  0  0  # atno 6909 bound_to 6896
  146.1465  140.4939  142.8629 H   0  0  0  0  0  0  0  0  0  0  0  0  # atno 7974 bound_to 7965
  154.5763  140.0682  156.9039 H   0  0  0  0  0  0  0  0  0  0  0  0  # atno 8008 bound_to 7997
  155.2543  140.3354  155.4261 H   0  0  0  0  0  0  0  0  0  0  0  0  # atno 8009 bound_to 7997
  156.2156  140.1777  156.7581 H   0  0  0  0  0  0  0  0  0  0  0  0  # atno 8010 bound_to 7997
  140.7242  143.5050  150.9821 H   0  0  0  0  0  0  0  0  0  0  0  0  # atno 10167 bound_to 10162
  157.6959  131.0375  150.3596 H   0  0  0  0  0  0  0  0  0  0  0  0  # atno 10718 bound_to 10713
  153.0310  135.5195  154.7353 H   0  0  0  0  0  0  0  0  0  0  0  0  # atno 10763 bound_to 10752
  154.6368  135.2907  155.0153 H   0  0  0  0  0  0  0  0  0  0  0  0  # atno 10764 bound_to 10752
  154.1085  135.6625  153.4933 H   0  0  0  0  0  0  0  0  0  0  0  0  # atno 10765 bound_to 10752
  140.6488  134.4472  157.5235 H   0  0  0  0  0  0  0  0  0  0  0  0  # atno 11005 bound_to 11000
  144.7853  140.5923  143.6578 LP  0  0  0  0  0  0  0  0  0  0  0  0  # atno 17320 bound_to 7965
  145.4924  139.1488  143.3702 LP  0  0  0  0  0  0  0  0  0  0  0  0  # atno 17321 bound_to 7965
  139.8762  143.7130  152.3162 LP  0  0  0  0  0  0  0  0  0  0  0  0  # atno 17342 bound_to 10162
  139.7396  144.7563  151.0673 LP  0  0  0  0  0  0  0  0  0  0  0  0  # atno 17343 bound_to 10162
  156.4034  130.3920  149.6943 LP  0  0  0  0  0  0  0  0  0  0  0  0  # atno 17370 bound_to 10713
  156.4252  130.7788  151.2806 LP  0  0  0  0  0  0  0  0  0  0  0  0  # atno 17371 bound_to 10713
  139.9053  134.8463  156.1730 LP  0  0  0  0  0  0  0  0  0  0  0  0  # atno 17394 bound_to 11000
  141.0552  133.6869  156.1847 LP  0  0  0  0  0  0  0  0  0  0  0  0  # atno 17395 bound_to 11000

$$$$
