AV-unprocessed.smi:3234|AV-procd|sdf|12351|dock1
  -GOLD-   2272018213D 1   1.00000     0.00000
 Structure written by MMmdl.
 37 39  0  0  0  0  0  0  0  0  2 V2000
  146.7314  136.9304  153.5159 O   0  0  0  0  0  0  0  0  0  0  0  0
  145.9688  137.6460  152.8667 C   0  0  0  0  0  0  0  0  0  0  0  0
  146.0583  138.9826  152.7543 N   0  0  0  0  0  0  0  0  0  0  0  0
  146.9887  139.8632  153.3693 C   0  0  0  0  0  0  0  0  0  0  0  0
  148.2069  139.3187  153.8257 C   0  0  0  0  0  0  0  0  0  0  0  0
  149.1515  140.1757  154.4248 C   0  0  0  0  0  0  0  0  0  0  0  0
  148.9571  141.5025  154.5775 N   0  0  0  0  0  0  0  0  0  0  0  0
  147.7974  142.0245  154.1251 C   0  0  0  0  0  0  0  0  0  0  0  0
  146.7866  141.2569  153.5127 C   0  0  0  0  0  0  0  0  0  0  0  0
  144.9411  137.1660  152.1522 N   0  0  0  0  0  0  0  0  0  0  0  0
  144.5784  135.7558  152.0619 C   0  0  1  0  0  0  0  0  0  0  0  0
  143.2362  135.4268  152.7017 C   0  0  0  0  0  0  0  0  0  0  0  0
  142.8759  134.0873  152.0484 C   0  0  0  0  0  0  0  0  0  0  0  0
  143.5314  134.0702  150.7165 N   0  3  2  0  0  0  0  0  0  0  0  0
  144.2669  132.8179  150.4362 C   0  0  0  0  0  0  0  0  0  0  0  0
  144.7888  132.1345  151.6772 C   0  0  0  0  0  0  0  0  0  0  0  0
  145.7368  132.8926  150.7735 C   0  0  0  0  0  0  0  0  0  0  0  0
  144.3721  135.2836  150.6204 C   0  0  0  0  0  0  0  0  0  0  0  0
  145.4132  139.4191  152.1120 H   0  0  0  0  0  0  0  0  0  0  0  0
  148.4158  138.2633  153.7276 H   0  0  0  0  0  0  0  0  0  0  0  0
  150.0895  139.7842  154.7894 H   0  0  0  0  0  0  0  0  0  0  0  0
  147.6723  143.0899  154.2498 H   0  0  0  0  0  0  0  0  0  0  0  0
  145.8939  141.7491  153.1588 H   0  0  0  0  0  0  0  0  0  0  0  0
  144.3654  137.8212  151.6434 H   0  0  0  0  0  0  0  0  0  0  0  0
  145.3514  135.1470  152.5360 H   0  0  0  0  0  0  0  0  0  0  0  0
  143.2849  135.3670  153.7894 H   0  0  0  0  0  0  0  0  0  0  0  0
  142.4936  136.1812  152.4365 H   0  0  0  0  0  0  0  0  0  0  0  0
  143.2540  133.2699  152.6651 H   0  0  0  0  0  0  0  0  0  0  0  0
  141.7978  133.9547  151.9554 H   0  0  0  0  0  0  0  0  0  0  0  0
  143.9237  132.2329  149.5844 H   0  0  0  0  0  0  0  0  0  0  0  0
  144.5560  132.5756  152.6448 H   0  0  0  0  0  0  0  0  0  0  0  0
  144.8490  131.0481  151.6642 H   0  0  0  0  0  0  0  0  0  0  0  0
  146.4216  132.3054  150.1651 H   0  0  0  0  0  0  0  0  0  0  0  0
  146.1344  133.8370  151.1411 H   0  0  0  0  0  0  0  0  0  0  0  0
  143.8181  136.0315  150.0510 H   0  0  0  0  0  0  0  0  0  0  0  0
  145.3141  135.1057  150.0988 H   0  0  0  0  0  0  0  0  0  0  0  0
  142.8099  134.1539  150.0145 H   0  0  0  0  0  0  0  0  0  0  0  0
  1  2  2  0  0  0  0
  2  3  1  0  0  0  0
  2 10  1  0  0  0  0
  3  4  1  0  0  0  0
  3 19  1  0  0  0  0
  4  9  1  0  0  0  0
  4  5  2  0  0  0  0
  5  6  1  0  0  0  0
  5 20  1  0  0  0  0
  6  7  2  0  0  0  0
  6 21  1  0  0  0  0
  7  8  1  0  0  0  0
  8  9  2  0  0  0  0
  8 22  1  0  0  0  0
  9 23  1  0  0  0  0
 10 11  1  0  0  0  0
 10 24  1  0  0  0  0
 11 18  1  0  0  0  0
 11 12  1  0  0  0  0
 11 25  1  0  0  0  0
 12 13  1  0  0  0  0
 12 26  1  0  0  0  0
 12 27  1  0  0  0  0
 13 14  1  0  0  0  0
 13 28  1  0  0  0  0
 13 29  1  0  0  0  0
 14 15  1  0  0  0  0
 14 18  1  0  0  0  0
 14 37  1  0  0  0  0
 15 17  1  0  0  0  0
 15 16  1  0  0  0  0
 15 30  1  0  0  0  0
 16 17  1  0  0  0  0
 16 31  1  0  0  0  0
 16 32  1  0  0  0  0
 17 33  1  0  0  0  0
 17 34  1  0  0  0  0
 18 35  1  0  0  0  0
 18 36  1  0  0  0  0
M  CHG  1  14   1
M  END
> <s_m_source_file>
AV-unprocessed.smi

> <i_m_source_file_index>
3234

> <i_lp_mmshare_version>
43012

> <i_f3d_flags>
0

> <s_epik_input>
W2NIXTFbY0hdbltjSF1bY0hdYzFbTkhdQyg9TylbTkhdW0NAQEhdMltDSDJdW0NIMl1OKFtDSDJdMilbQ0hdM1tDSDJdW0NIMl0z

> <s_epik_cmdline>
J2VwaWtfcHl0aG9uJywgJy1waCcsICc3LjAnLCAnLXRuJywgJzgnLCAnLW1hJywgJzIwMCcsICctbWV0YWxfYmluZGluZycsICctaW1hZScsICc8aW5maWxlLm1hZT4nLCAnLW9tYWUnLCAnPG91dGZpbGUubWFlPic=

> <r_epik_Ionization_Penalty>
0.0934328

> <r_epik_Ionization_Penalty_Charging>
0.000606352

> <r_epik_Ionization_Penalty_Neutral>
0.0928265

> <r_epik_State_Penalty>
0.0830811

> <r_epik_Charging_Adjusted_Penalty>
0.0836875

> <i_epik_Tot_Q>
1

> <i_epik_Tot_abs_Q>
1

> <r_epik_Metal_State_Penalty>
0.0724491

> <b_epik_Metal_Only>
0

> <s_lp_Force_Field>
OPLS_2005

> <r_lp_Energy>
41.5008

> <b_lp_Chiralities_Consistent>
1

> <s_lp_Variant>
AV-unprocessed.smi:3234-4

> <Gold.Version>
5.8.1

> <Gold.Id.Protein>
6NUR|6NUR_protein|mol2

> <Gold.PLP.Fitness>
45.5056

> <Gold.PLP.PLP>
-32.7324

> <Gold.PLP.part.hbond>
-3.2471

> <Gold.PLP.part.metal>
0.0000

> <Gold.PLP.part.buried>
-4.6798

> <Gold.PLP.part.nonpolar>
-26.3517

> <Gold.PLP.part.repulsive>
2.0278

> <Gold.PLP.ligand.clash>
0.0000

> <Gold.PLP.ligand.torsion>
1.0341

> <Gold.PLP.Chemscore.Hbond>
3.5239

> <Gold.PLP.Chemscore.CHOScore>
1.0000

> <Gold.PLP.Chemscore.Metal>
0.0000

> <Gold.Chemscore.Hbonds>
donor molecule, donor type, donor heavy atom, donor atom, acceptor molecule, acceptor atom, score
      L1  H     3    19       P1 10175  0.60
      L1  H    10    24       P1 10171  0.92
      L1  H    14    37       P1 10186  2.00
      L1  C     8    22       P1  8028  1.00

> <Gold.PLP.Chemscore.Internal.Correction>
1.2699

> <Gold.Rescore>
     Score         DG    S(hbond)    S(metal)    S(lipo)     H(rot)  DE(clash)    DE(int)     intcor
     16.19     -19.18       2.33        0.00      77.19       1.21       0.57       2.43       ----

> <Gold.Chemscore.Fitness>
16.1857

> <Gold.Chemscore.DG>
-19.1837

> <Gold.Chemscore.ZeroCoef>
-5.4800

> <Gold.Chemscore.Hbond>
2.3270

> <Gold.Chemscore.Metal>
0.0000

> <Gold.Chemscore.Lipo>
77.1898

> <Gold.Chemscore.Internal_Hbond>
0.0000

> <Gold.Chemscore.DEClash>
0.5700

> <Gold.Chemscore.DEInternal>
2.4281

> <Gold.Chemscore.Rot>
1.2108

> <Gold.Chemscore.Internal.Correction>
   9.000000E+99

> <Gold.Chemscore.Hbonds>
donor molecule, donor type, donor heavy atom, donor atom, acceptor molecule, acceptor atom, score
      L1  H     3    19       P1 10175  0.56
      L1  H    10    24       P1 10171  0.83
      L1  H    14    37       P1 10186  0.93

> <Gold.Chemscore.Hbond.Weighted>
-7.7721

> <Gold.Chemscore.Metal.Weighted>
-0.0000

> <Gold.Chemscore.Lipo.Weighted>
-9.0312

> <Gold.Chemscore.Internal_Hbond.Weighted>
0.0000

> <Gold.Chemscore.DEClash.Weighted>
0.5700

> <Gold.Chemscore.DEInternal.Weighted>
2.4281

> <Gold.Chemscore.Rot.Weighted>
3.0996

> <Gold.Chemscore.Internal.Correction.Weighted>
   9.000000E+99

> <Gold.Protein.RotatedTorsions>
[ 6907 6896 6895 6894 ] final -132.77 input  -60.11 | X-H torsion
[ 7974 7965 7964 7962 ] final  -16.63 input  175.53 | X-H torsion
[ 8008 7997 7996 7995 ] final  173.08 input   59.86 | X-H torsion
[ 10167 10162 10161 10158 ] final  117.66 input  -65.29 | X-H torsion
[ 10718 10713 10712 10709 ] final  163.02 input   66.30 | X-H torsion
[ 10763 10752 10751 10750 ] final   28.64 input  -60.55 | X-H torsion
[ 11005 11000 10999 10996 ] final   51.78 input  -57.11 | X-H torsion

> <Gold.Protein.ActiveResidues>
 VAL166  LYS551  ARG553  GLY616  TRP617  ASP618  TYR619  PRO620  LYS621  CYS622 
 ASP623  PHE694  ASN695  SER759  ASP760  ASP761  ALA762  ILE779  LEU786  VAL792 
 PHE793  MET794  SER795  GLU796  ALA797  LYS798  CYS799  TRP800  GLU811  SER814 

> <Gold.Protein.RotatedAtoms>
  150.9663  133.6392  159.2745 H   0  0  0  0  0  0  0  0  0  0  0  0  # atno 6907 bound_to 6896
  151.3696  135.0919  159.9471 H   0  0  0  0  0  0  0  0  0  0  0  0  # atno 6908 bound_to 6896
  152.5166  133.9220  159.7593 H   0  0  0  0  0  0  0  0  0  0  0  0  # atno 6909 bound_to 6896
  146.1979  140.3663  142.8434 H   0  0  0  0  0  0  0  0  0  0  0  0  # atno 7974 bound_to 7965
  156.1111  140.1469  156.9337 H   0  0  0  0  0  0  0  0  0  0  0  0  # atno 8008 bound_to 7997
  154.4767  140.0892  156.7323 H   0  0  0  0  0  0  0  0  0  0  0  0  # atno 8009 bound_to 7997
  155.4595  140.3438  155.4313 H   0  0  0  0  0  0  0  0  0  0  0  0  # atno 8010 bound_to 7997
  139.6163  144.7092  151.2731 H   0  0  0  0  0  0  0  0  0  0  0  0  # atno 10167 bound_to 10162
  157.1144  131.0476  151.2443 H   0  0  0  0  0  0  0  0  0  0  0  0  # atno 10718 bound_to 10713
  153.0479  135.6508  154.0769 H   0  0  0  0  0  0  0  0  0  0  0  0  # atno 10763 bound_to 10752
  154.0463  135.2899  155.3349 H   0  0  0  0  0  0  0  0  0  0  0  0  # atno 10764 bound_to 10752
  154.6749  135.5342  153.8252 H   0  0  0  0  0  0  0  0  0  0  0  0  # atno 10765 bound_to 10752
  140.0904  134.5217  155.8858 H   0  0  0  0  0  0  0  0  0  0  0  0  # atno 11005 bound_to 11000
  144.8619  140.7151  143.6102 LP  0  0  0  0  0  0  0  0  0  0  0  0  # atno 17320 bound_to 7965
  145.3583  139.1688  143.4397 LP  0  0  0  0  0  0  0  0  0  0  0  0  # atno 17321 bound_to 7965
  140.7353  143.6740  150.8057 LP  0  0  0  0  0  0  0  0  0  0  0  0  # atno 17342 bound_to 10162
  140.0344  143.5411  152.2746 LP  0  0  0  0  0  0  0  0  0  0  0  0  # atno 17343 bound_to 10162
  157.4531  130.7610  149.7169 LP  0  0  0  0  0  0  0  0  0  0  0  0  # atno 17370 bound_to 10713
  155.9843  130.3993  150.3319 LP  0  0  0  0  0  0  0  0  0  0  0  0  # atno 17371 bound_to 10713
  141.2076  133.6665  156.6315 LP  0  0  0  0  0  0  0  0  0  0  0  0  # atno 17394 bound_to 11000
  140.3361  134.7888  157.4363 LP  0  0  0  0  0  0  0  0  0  0  0  0  # atno 17395 bound_to 11000

$$$$
