AV-unprocessed.smi:3126|AV-procd|sdf|11911|dock7
  -GOLD-   2272017293D 1   1.00000     0.00000
 Structure written by MMmdl.
 42 43  0  0  0  0  0  0  0  0  2 V2000
  151.9575  144.2448  160.7726 C   0  0  0  0  0  0  0  0  0  0  0  0
  152.7491  144.2914  159.4582 C   0  0  0  0  0  0  0  0  0  0  0  0
  152.4464  143.1228  158.4980 C   0  0  1  0  0  0  0  0  0  0  0  0
  152.5719  141.7702  159.2270 C   0  0  0  0  0  0  0  0  0  0  0  0
  152.2839  140.5902  158.2872 C   0  0  0  0  0  0  0  0  0  0  0  0
  150.8973  140.7231  157.6422 C   0  0  0  0  0  0  0  0  0  0  0  0
  150.7531  142.0603  156.8936 C   0  0  1  0  0  0  0  0  0  0  0  0
  149.3970  142.1589  156.3084 N   0  3  0  0  0  0  0  0  0  0  0  0
  149.0334  141.0784  155.3681 C   0  0  0  0  0  0  0  0  0  0  0  0
  148.2111  141.6261  154.1947 C   0  0  0  0  0  0  0  0  0  0  0  0
  146.9098  142.2516  154.6565 C   0  0  0  0  0  0  0  0  0  0  0  0
  146.1677  143.0941  153.8030 C   0  0  0  0  0  0  0  0  0  0  0  0
  144.9610  143.6453  154.2753 C   0  0  0  0  0  0  0  0  0  0  0  0
  144.5467  143.3300  155.5848 C   0  0  0  0  0  0  0  0  0  0  0  0
  145.2489  142.5240  156.4103 N   0  0  0  0  0  0  0  0  0  0  0  0
  146.4051  142.0003  155.9502 C   0  0  0  0  0  0  0  0  0  0  0  0
  151.0532  143.2429  157.8412 C   0  0  0  0  0  0  0  0  0  0  0  0
  152.1627  145.1297  161.3754 H   0  0  0  0  0  0  0  0  0  0  0  0
  152.2191  143.3749  161.3741 H   0  0  0  0  0  0  0  0  0  0  0  0
  150.8839  144.2157  160.5850 H   0  0  0  0  0  0  0  0  0  0  0  0
  152.5128  145.2322  158.9594 H   0  0  0  0  0  0  0  0  0  0  0  0
  153.8174  144.3280  159.6752 H   0  0  0  0  0  0  0  0  0  0  0  0
  153.1973  143.1395  157.7064 H   0  0  0  0  0  0  0  0  0  0  0  0
  153.5737  141.6624  159.6447 H   0  0  0  0  0  0  0  0  0  0  0  0
  151.8818  141.7401  160.0715 H   0  0  0  0  0  0  0  0  0  0  0  0
  153.0484  140.5442  157.5102 H   0  0  0  0  0  0  0  0  0  0  0  0
  152.3483  139.6522  158.8394 H   0  0  0  0  0  0  0  0  0  0  0  0
  150.7330  139.8905  156.9571 H   0  0  0  0  0  0  0  0  0  0  0  0
  150.1304  140.6442  158.4144 H   0  0  0  0  0  0  0  0  0  0  0  0
  151.4766  142.0669  156.0768 H   0  0  0  0  0  0  0  0  0  0  0  0
  148.7347  142.1270  157.0704 H   0  0  0  0  0  0  0  0  0  0  0  0
  149.9356  140.5987  154.9882 H   0  0  0  0  0  0  0  0  0  0  0  0
  148.4602  140.3168  155.8983 H   0  0  0  0  0  0  0  0  0  0  0  0
  148.7887  142.3728  153.6475 H   0  0  0  0  0  0  0  0  0  0  0  0
  147.9885  140.8275  153.4856 H   0  0  0  0  0  0  0  0  0  0  0  0
  146.5136  143.3134  152.8034 H   0  0  0  0  0  0  0  0  0  0  0  0
  144.3661  144.2938  153.6492 H   0  0  0  0  0  0  0  0  0  0  0  0
  143.6257  143.7337  155.9787 H   0  0  0  0  0  0  0  0  0  0  0  0
  146.9410  141.3582  156.6337 H   0  0  0  0  0  0  0  0  0  0  0  0
  150.2868  143.2957  158.6162 H   0  0  0  0  0  0  0  0  0  0  0  0
  150.9961  144.1787  157.2875 H   0  0  0  0  0  0  0  0  0  0  0  0
  149.3057  143.0507  155.8433 H   0  0  0  0  0  0  0  0  0  0  0  0
  1  2  1  0  0  0  0
  1 18  1  0  0  0  0
  1 19  1  0  0  0  0
  1 20  1  0  0  0  0
  2  3  1  0  0  0  0
  2 21  1  0  0  0  0
  2 22  1  0  0  0  0
  3 17  1  0  0  0  0
  3  4  1  0  0  0  0
  3 23  1  0  0  0  0
  4  5  1  0  0  0  0
  4 24  1  0  0  0  0
  4 25  1  0  0  0  0
  5  6  1  0  0  0  0
  5 26  1  0  0  0  0
  5 27  1  0  0  0  0
  6  7  1  0  0  0  0
  6 28  1  0  0  0  0
  6 29  1  0  0  0  0
  7  8  1  0  0  0  0
  7 17  1  0  0  0  0
  7 30  1  0  0  0  0
  8  9  1  0  0  0  0
  8 31  1  0  0  0  0
  8 42  1  0  0  0  0
  9 10  1  0  0  0  0
  9 32  1  0  0  0  0
  9 33  1  0  0  0  0
 10 11  1  0  0  0  0
 10 34  1  0  0  0  0
 10 35  1  0  0  0  0
 11 16  1  0  0  0  0
 11 12  2  0  0  0  0
 12 13  1  0  0  0  0
 12 36  1  0  0  0  0
 13 14  2  0  0  0  0
 13 37  1  0  0  0  0
 14 15  1  0  0  0  0
 14 38  1  0  0  0  0
 15 16  2  0  0  0  0
 16 39  1  0  0  0  0
 17 40  1  0  0  0  0
 17 41  1  0  0  0  0
M  CHG  1   8   1
M  END
> <s_m_source_file>
AV-unprocessed.smi

> <i_m_source_file_index>
3126

> <i_lp_mmshare_version>
43012

> <i_f3d_flags>
0

> <s_epik_input>
W0NIM11bQ0gyXVtDQEBIXTFbQ0gyXVtDSDJdW0NIMl1bQ0BIXShbQ0gyXTEpW05IXVtDSDJdW0NIMl1jMltjSF1bY0hdW2NIXW5bY0hdMg==

> <s_epik_cmdline>
J2VwaWtfcHl0aG9uJywgJy1waCcsICc3LjAnLCAnLXRuJywgJzgnLCAnLW1hJywgJzIwMCcsICctbWV0YWxfYmluZGluZycsICctaW1hZScsICc8aW5maWxlLm1hZT4nLCAnLW9tYWUnLCAnPG91dGZpbGUubWFlPic=

> <r_lp_tautomer_probability>
1

> <r_epik_Ionization_Penalty>
0.000947364

> <r_epik_Ionization_Penalty_Charging>
0.000286103

> <r_epik_Ionization_Penalty_Neutral>
0.000661261

> <r_epik_State_Penalty>
-0

> <r_epik_Charging_Adjusted_Penalty>
0.000286103

> <i_epik_Tot_Q>
1

> <i_epik_Tot_abs_Q>
1

> <r_epik_Metal_State_Penalty>
-0

> <b_epik_Metal_Only>
0

> <s_lp_Force_Field>
OPLS_2005

> <r_lp_Energy>
13.7456

> <b_lp_Chiralities_Consistent>
1

> <s_lp_Variant>
AV-unprocessed.smi:3126-2

> <Gold.Version>
5.8.1

> <Gold.Id.Protein>
6NUR|6NUR_protein|mol2

> <Gold.PLP.Fitness>
45.0028

> <Gold.PLP.PLP>
-40.0501

> <Gold.PLP.part.hbond>
-1.0000

> <Gold.PLP.part.metal>
0.0000

> <Gold.PLP.part.buried>
-4.2863

> <Gold.PLP.part.nonpolar>
-34.8754

> <Gold.PLP.part.repulsive>
0.1762

> <Gold.PLP.ligand.clash>
0.0000

> <Gold.PLP.ligand.torsion>
0.5284

> <Gold.PLP.Chemscore.Hbond>
2.0000

> <Gold.PLP.Chemscore.CHOScore>
0.0000

> <Gold.PLP.Chemscore.Metal>
0.0000

> <Gold.Chemscore.Hbonds>
donor molecule, donor type, donor heavy atom, donor atom, acceptor molecule, acceptor atom, score
      L1  H     8    42       P1  8028  2.00

> <Gold.PLP.Chemscore.Internal.Correction>
0.0097

> <Gold.Rescore>
     Score         DG    S(hbond)    S(metal)    S(lipo)     H(rot)  DE(clash)    DE(int)     intcor
     18.61     -19.35       0.99        0.00     119.89       1.35       0.10       0.65       ----

> <Gold.Chemscore.Fitness>
18.6071

> <Gold.Chemscore.DG>
-19.3503

> <Gold.Chemscore.ZeroCoef>
-5.4800

> <Gold.Chemscore.Hbond>
0.9884

> <Gold.Chemscore.Metal>
0.0000

> <Gold.Chemscore.Lipo>
119.8867

> <Gold.Chemscore.Internal_Hbond>
0.0000

> <Gold.Chemscore.DEClash>
0.0980

> <Gold.Chemscore.DEInternal>
0.6452

> <Gold.Chemscore.Rot>
1.3507

> <Gold.Chemscore.Internal.Correction>
   9.000000E+99

> <Gold.Chemscore.Hbonds>
donor molecule, donor type, donor heavy atom, donor atom, acceptor molecule, acceptor atom, score
      L1  H     8    42       P1  8028  0.99

> <Gold.Chemscore.Hbond.Weighted>
-3.3014

> <Gold.Chemscore.Metal.Weighted>
-0.0000

> <Gold.Chemscore.Lipo.Weighted>
-14.0267

> <Gold.Chemscore.Internal_Hbond.Weighted>
0.0000

> <Gold.Chemscore.DEClash.Weighted>
0.0980

> <Gold.Chemscore.DEInternal.Weighted>
0.6452

> <Gold.Chemscore.Rot.Weighted>
3.4579

> <Gold.Chemscore.Internal.Correction.Weighted>
   9.000000E+99

> <Gold.Protein.RotatedTorsions>
[ 6907 6896 6895 6894 ] final    2.29 input  -60.11 | X-H torsion
[ 7974 7965 7964 7962 ] final  -43.39 input  175.53 | X-H torsion
[ 8008 7997 7996 7995 ] final  -57.03 input   59.86 | X-H torsion
[ 10167 10162 10161 10158 ] final -152.45 input  -65.29 | X-H torsion
[ 10718 10713 10712 10709 ] final  178.02 input   66.30 | X-H torsion
[ 10763 10752 10751 10750 ] final  145.02 input  -60.55 | X-H torsion
[ 11005 11000 10999 10996 ] final   75.30 input  -57.11 | X-H torsion

> <Gold.Protein.ActiveResidues>
 VAL166  LYS551  ARG553  GLY616  TRP617  ASP618  TYR619  PRO620  LYS621  CYS622 
 ASP623  PHE694  ASN695  SER759  ASP760  ASP761  ALA762  ILE779  LEU786  VAL792 
 PHE793  MET794  SER795  GLU796  ALA797  LYS798  CYS799  TRP800  GLU811  SER814 

> <Gold.Protein.RotatedAtoms>
  151.6065  135.1043  160.0071 H   0  0  0  0  0  0  0  0  0  0  0  0  # atno 6907 bound_to 6896
  152.4231  133.7145  159.6508 H   0  0  0  0  0  0  0  0  0  0  0  0  # atno 6908 bound_to 6896
  150.8119  133.8334  159.3200 H   0  0  0  0  0  0  0  0  0  0  0  0  # atno 6909 bound_to 6896
  146.0023  140.7060  142.9264 H   0  0  0  0  0  0  0  0  0  0  0  0  # atno 7974 bound_to 7965
  154.4252  140.1116  156.5732 H   0  0  0  0  0  0  0  0  0  0  0  0  # atno 8008 bound_to 7997
  155.6190  140.3495  155.4627 H   0  0  0  0  0  0  0  0  0  0  0  0  # atno 8009 bound_to 7997
  156.0039  140.1205  157.0510 H   0  0  0  0  0  0  0  0  0  0  0  0  # atno 8010 bound_to 7997
  139.7180  143.9002  152.2493 H   0  0  0  0  0  0  0  0  0  0  0  0  # atno 10167 bound_to 10162
  156.8967  130.9865  151.3041 H   0  0  0  0  0  0  0  0  0  0  0  0  # atno 10718 bound_to 10713
  153.9985  135.2925  155.3405 H   0  0  0  0  0  0  0  0  0  0  0  0  # atno 10763 bound_to 10752
  154.7173  135.5124  153.8760 H   0  0  0  0  0  0  0  0  0  0  0  0  # atno 10764 bound_to 10752
  153.0776  135.6668  154.0230 H   0  0  0  0  0  0  0  0  0  0  0  0  # atno 10765 bound_to 10752
  139.9350  134.7506  156.1254 H   0  0  0  0  0  0  0  0  0  0  0  0  # atno 11005 bound_to 11000
  144.6924  140.3255  143.7225 LP  0  0  0  0  0  0  0  0  0  0  0  0  # atno 17320 bound_to 7965
  145.7468  139.1781  143.2344 LP  0  0  0  0  0  0  0  0  0  0  0  0  # atno 17321 bound_to 7965
  139.8890  144.6976  150.8792 LP  0  0  0  0  0  0  0  0  0  0  0  0  # atno 17342 bound_to 10162
  140.7748  143.3601  151.1845 LP  0  0  0  0  0  0  0  0  0  0  0  0  # atno 17343 bound_to 10162
  157.6051  130.8541  149.8862 LP  0  0  0  0  0  0  0  0  0  0  0  0  # atno 17370 bound_to 10713
  156.0602  130.3701  150.1000 LP  0  0  0  0  0  0  0  0  0  0  0  0  # atno 17371 bound_to 10713
  141.0959  133.6696  156.2644 LP  0  0  0  0  0  0  0  0  0  0  0  0  # atno 17394 bound_to 11000
  140.6100  134.5468  157.5532 LP  0  0  0  0  0  0  0  0  0  0  0  0  # atno 17395 bound_to 11000

$$$$
