AV-unprocessed.smi:781|AV-procd|sdf|3708|dock5
  -GOLD-   22720 1133D 1   1.00000     0.00000
 Structure written by MMmdl.
 38 40  0  0  0  0  0  0  0  0  1 V2000
  146.6525  133.6420  161.7891 C   0  0  0  0  0  0  0  0  0  0  0  0
  147.2920  134.8966  161.3009 C   0  0  0  0  0  0  0  0  0  0  0  0
  147.7345  135.2967  160.0714 C   0  0  0  0  0  0  0  0  0  0  0  0
  148.2313  136.6038  160.3199 C   0  0  0  0  0  0  0  0  0  0  0  0
  148.7900  137.3810  159.2736 N   0  0  0  0  0  0  0  0  0  0  0  0
  149.9963  137.2359  158.6995 C   0  0  0  0  0  0  0  0  0  0  0  0
  150.8242  136.3735  158.9937 O   0  0  0  0  0  0  0  0  0  0  0  0
  150.1934  138.1554  157.7446 N   0  0  0  0  0  0  0  0  0  0  0  0
  151.3969  138.2604  156.9188 C   0  0  1  0  0  0  0  0  0  0  0  0
  151.2296  137.6420  155.5060 C   0  0  1  0  0  0  0  0  0  0  0  0
  149.9465  138.1547  154.8180 C   0  0  0  0  0  0  0  0  0  0  0  0
  150.2899  139.6258  154.5232 C   0  0  0  0  0  0  0  0  0  0  0  0
  151.7359  139.7557  155.0466 C   0  0  2  0  0  0  0  0  0  0  0  0
  152.2981  138.3803  154.7064 C   0  0  0  0  0  0  0  0  0  0  0  0
  151.8032  139.7254  156.5932 C   0  0  1  0  0  0  0  0  0  0  0  0
  151.0415  140.8507  157.3295 C   0  0  0  0  0  0  0  0  0  0  0  0
  151.5762  142.1111  156.9853 O   0  0  0  0  0  0  0  0  0  0  0  0
  148.1032  136.9690  161.5864 N   0  0  0  0  0  0  0  0  0  0  0  0
  147.4994  135.8772  162.2213 O   0  0  0  0  0  0  0  0  0  0  0  0
  146.8842  132.8054  161.1299 H   0  0  0  0  0  0  0  0  0  0  0  0
  145.5689  133.7519  161.8290 H   0  0  0  0  0  0  0  0  0  0  0  0
  147.0044  133.3896  162.7896 H   0  0  0  0  0  0  0  0  0  0  0  0
  147.7062  134.7413  159.1459 H   0  0  0  0  0  0  0  0  0  0  0  0
  148.2080  138.1277  158.9247 H   0  0  0  0  0  0  0  0  0  0  0  0
  149.4601  138.8254  157.5672 H   0  0  0  0  0  0  0  0  0  0  0  0
  152.2257  137.7748  157.4379 H   0  0  0  0  0  0  0  0  0  0  0  0
  151.3215  136.5554  155.4940 H   0  0  0  0  0  0  0  0  0  0  0  0
  149.7733  137.6140  153.8865 H   0  0  0  0  0  0  0  0  0  0  0  0
  149.0477  138.0448  155.4243 H   0  0  0  0  0  0  0  0  0  0  0  0
  150.2555  139.8108  153.4489 H   0  0  0  0  0  0  0  0  0  0  0  0
  149.5963  140.3222  154.9916 H   0  0  0  0  0  0  0  0  0  0  0  0
  152.2845  140.5883  154.6049 H   0  0  0  0  0  0  0  0  0  0  0  0
  153.3098  138.2174  155.0823 H   0  0  0  0  0  0  0  0  0  0  0  0
  152.2760  138.1540  153.6387 H   0  0  0  0  0  0  0  0  0  0  0  0
  152.8537  139.8325  156.8710 H   0  0  0  0  0  0  0  0  0  0  0  0
  149.9746  140.8415  157.1089 H   0  0  0  0  0  0  0  0  0  0  0  0
  151.1414  140.7247  158.4080 H   0  0  0  0  0  0  0  0  0  0  0  0
  150.9926  142.7829  157.3032 H   0  0  0  0  0  0  0  0  0  0  0  0
  1  2  1  0  0  0  0
  1 20  1  0  0  0  0
  1 21  1  0  0  0  0
  1 22  1  0  0  0  0
  2 19  1  0  0  0  0
  2  3  2  0  0  0  0
  3  4  1  0  0  0  0
  3 23  1  0  0  0  0
  4  5  1  0  0  0  0
  4 18  2  0  0  0  0
  5  6  1  0  0  0  0
  5 24  1  0  0  0  0
  6  7  2  0  0  0  0
  6  8  1  0  0  0  0
  8  9  1  0  0  0  0
  8 25  1  0  0  0  0
  9 15  1  0  0  0  0
  9 10  1  0  0  0  0
  9 26  1  0  0  0  0
 10 14  1  0  0  0  0
 10 11  1  0  0  0  0
 10 27  1  0  0  0  0
 11 12  1  0  0  0  0
 11 28  1  0  0  0  0
 11 29  1  0  0  0  0
 12 13  1  0  0  0  0
 12 30  1  0  0  0  0
 12 31  1  0  0  0  0
 13 14  1  0  0  0  0
 13 15  1  0  0  0  0
 13 32  1  0  0  0  0
 14 33  1  0  0  0  0
 14 34  1  0  0  0  0
 15 16  1  0  0  0  0
 15 35  1  0  0  0  0
 16 17  1  0  0  0  0
 16 36  1  0  0  0  0
 16 37  1  0  0  0  0
 17 38  1  0  0  0  0
 18 19  1  0  0  0  0
M  END
> <s_m_source_file>
AV-unprocessed.smi

> <i_m_source_file_index>
781

> <i_lp_mmshare_version>
43012

> <i_f3d_flags>
0

> <s_epik_input>
W0NIM11jMVtjSF1jKG5vMSlbTkhdQyg9TylbTkhdW0NASF0oW0NAQEhdMjMpW0NASF0oW0NIMl1bT0hdKVtDQEBIXShbQ0gyXTMpW0NIMl1bQ0gyXTI=

> <s_epik_cmdline>
J2VwaWtfcHl0aG9uJywgJy1waCcsICc3LjAnLCAnLXRuJywgJzgnLCAnLW1hJywgJzIwMCcsICctbWV0YWxfYmluZGluZycsICctaW1hZScsICc8aW5maWxlLm1hZT4nLCAnLW9tYWUnLCAnPG91dGZpbGUubWFlPic=

> <r_lp_tautomer_probability>
1

> <r_epik_Ionization_Penalty>
2.32222e-05

> <r_epik_Ionization_Penalty_Charging>
0

> <r_epik_Ionization_Penalty_Neutral>
2.32222e-05

> <r_epik_State_Penalty>
-0

> <r_epik_Charging_Adjusted_Penalty>
0

> <i_epik_Tot_Q>
0

> <i_epik_Tot_abs_Q>
0

> <r_epik_Metal_State_Penalty>
-0

> <b_epik_Metal_Only>
0

> <s_lp_Force_Field>
OPLS_2005

> <r_lp_Energy>
48.8521

> <b_lp_Chiralities_Consistent>
1

> <s_lp_Variant>
AV-unprocessed.smi:781-2

> <Gold.Version>
5.8.1

> <Gold.Id.Protein>
6NUR|6NUR_protein|mol2

> <Gold.PLP.Fitness>
39.8774

> <Gold.PLP.PLP>
-32.3775

> <Gold.PLP.part.hbond>
-4.0000

> <Gold.PLP.part.metal>
0.0000

> <Gold.PLP.part.buried>
-2.4572

> <Gold.PLP.part.nonpolar>
-26.2091

> <Gold.PLP.part.repulsive>
0.2683

> <Gold.PLP.ligand.clash>
0.0000

> <Gold.PLP.ligand.torsion>
1.0107

> <Gold.PLP.Chemscore.Hbond>
3.1704

> <Gold.PLP.Chemscore.CHOScore>
0.0000

> <Gold.PLP.Chemscore.Metal>
0.0000

> <Gold.Chemscore.Hbonds>
donor molecule, donor type, donor heavy atom, donor atom, acceptor molecule, acceptor atom, score
      P1  H  6896  6907       L1     7  1.00
      P1  H  6931  6943       L1    18  1.00
      P1  H  6934  6947       L1    18  0.09

> <Gold.PLP.Chemscore.Internal.Correction>
0.0101

> <Gold.Rescore>
     Score         DG    S(hbond)    S(metal)    S(lipo)     H(rot)  DE(clash)    DE(int)     intcor
     15.27     -17.92       2.58        0.00      73.32       1.86       1.55       1.10       ----

> <Gold.Chemscore.Fitness>
15.2700

> <Gold.Chemscore.DG>
-17.9232

> <Gold.Chemscore.ZeroCoef>
-5.4800

> <Gold.Chemscore.Hbond>
2.5819

> <Gold.Chemscore.Metal>
0.0000

> <Gold.Chemscore.Lipo>
73.3170

> <Gold.Chemscore.Internal_Hbond>
0.0000

> <Gold.Chemscore.DEClash>
1.5512

> <Gold.Chemscore.DEInternal>
1.1020

> <Gold.Chemscore.Rot>
1.8587

> <Gold.Chemscore.Internal.Correction>
   9.000000E+99

> <Gold.Chemscore.Hbonds>
donor molecule, donor type, donor heavy atom, donor atom, acceptor molecule, acceptor atom, score
      P1  H  6896  6907       L1     7  0.93
      P1  H  6931  6943       L1    18  0.78
      P1  H  6934  6947       L1    18  0.01

> <Gold.Chemscore.Hbond.Weighted>
-8.6234

> <Gold.Chemscore.Metal.Weighted>
-0.0000

> <Gold.Chemscore.Lipo.Weighted>
-8.5781

> <Gold.Chemscore.Internal_Hbond.Weighted>
0.0000

> <Gold.Chemscore.DEClash.Weighted>
1.5512

> <Gold.Chemscore.DEInternal.Weighted>
1.1020

> <Gold.Chemscore.Rot.Weighted>
4.7583

> <Gold.Chemscore.Internal.Correction.Weighted>
   9.000000E+99

> <Gold.Protein.RotatedTorsions>
[ 6907 6896 6895 6894 ] final  -33.79 input  -60.11 | X-H torsion
[ 7974 7965 7964 7962 ] final  153.43 input  175.53 | X-H torsion
[ 8008 7997 7996 7995 ] final  -21.98 input   59.86 | X-H torsion
[ 10167 10162 10161 10158 ] final   24.55 input  -65.29 | X-H torsion
[ 10718 10713 10712 10709 ] final -100.10 input   66.30 | X-H torsion
[ 10763 10752 10751 10750 ] final  -31.52 input  -60.55 | X-H torsion
[ 11005 11000 10999 10996 ] final  127.02 input  -57.11 | X-H torsion

> <Gold.Protein.ActiveResidues>
 VAL166  LYS551  ARG553  GLY616  TRP617  ASP618  TYR619  PRO620  LYS621  CYS622 
 ASP623  PHE694  ASN695  SER759  ASP760  ASP761  ALA762  ILE779  LEU786  VAL792 
 PHE793  MET794  SER795  GLU796  ALA797  LYS798  CYS799  TRP800  GLU811  SER814 

> <Gold.Protein.RotatedAtoms>
  151.0610  134.9736  159.8259 H   0  0  0  0  0  0  0  0  0  0  0  0  # atno 6907 bound_to 6896
  152.5395  134.2418  159.8875 H   0  0  0  0  0  0  0  0  0  0  0  0  # atno 6908 bound_to 6896
  151.2438  133.4342  159.2642 H   0  0  0  0  0  0  0  0  0  0  0  0  # atno 6909 bound_to 6896
  144.8155  139.6800  143.6123 H   0  0  0  0  0  0  0  0  0  0  0  0  # atno 7974 bound_to 7965
  154.4672  140.2020  156.0088 H   0  0  0  0  0  0  0  0  0  0  0  0  # atno 8008 bound_to 7997
  156.0948  140.3253  155.7834 H   0  0  0  0  0  0  0  0  0  0  0  0  # atno 8009 bound_to 7997
  155.4897  140.0545  157.2946 H   0  0  0  0  0  0  0  0  0  0  0  0  # atno 8010 bound_to 7997
  140.5179  144.0052  150.6402 H   0  0  0  0  0  0  0  0  0  0  0  0  # atno 10167 bound_to 10162
  156.0153  130.5312  150.6768 H   0  0  0  0  0  0  0  0  0  0  0  0  # atno 10718 bound_to 10713
  153.7988  135.6892  153.4859 H   0  0  0  0  0  0  0  0  0  0  0  0  # atno 10763 bound_to 10752
  153.1702  135.4545  154.9890 H   0  0  0  0  0  0  0  0  0  0  0  0  # atno 10764 bound_to 10752
  154.8015  135.3339  154.7478 H   0  0  0  0  0  0  0  0  0  0  0  0  # atno 10765 bound_to 10752
  139.9486  134.9626  156.8793 H   0  0  0  0  0  0  0  0  0  0  0  0  # atno 11005 bound_to 11000
  146.2457  139.6094  142.9461 LP  0  0  0  0  0  0  0  0  0  0  0  0  # atno 17320 bound_to 7965
  145.5225  141.0431  143.2427 LP  0  0  0  0  0  0  0  0  0  0  0  0  # atno 17321 bound_to 7965
  140.3393  143.3029  152.0605 LP  0  0  0  0  0  0  0  0  0  0  0  0  # atno 17342 bound_to 10162
  139.4914  144.6454  151.6789 LP  0  0  0  0  0  0  0  0  0  0  0  0  # atno 17343 bound_to 10162
  157.4478  131.0869  151.0877 LP  0  0  0  0  0  0  0  0  0  0  0  0  # atno 17370 bound_to 10713
  157.1401  130.6139  149.5553 LP  0  0  0  0  0  0  0  0  0  0  0  0  # atno 17371 bound_to 10713
  140.5774  134.0385  155.7452 LP  0  0  0  0  0  0  0  0  0  0  0  0  # atno 17394 bound_to 11000
  141.1143  133.9565  157.2852 LP  0  0  0  0  0  0  0  0  0  0  0  0  # atno 17395 bound_to 11000

$$$$
