AV-unprocessed.smi:2776|AV-procd|sdf|10706|dock10
  -GOLD-   2272015143D 1   1.00000     0.00000
 Structure written by MMmdl.
 26 27  0  0  0  0  0  0  0  0  2 V2000
  149.8823  138.9233  157.0784 O   0  0  0  0  0  0  0  0  0  0  0  0
  151.1002  138.5712  156.4497 C   0  0  2  0  0  0  0  0  0  0  0  0
  152.1585  139.6652  156.7014 C   0  0  0  0  0  0  0  0  0  0  0  0
  151.5641  140.9725  157.0166 N   0  0  0  0  0  0  0  0  0  0  0  0
  150.6846  141.7220  156.2980 C   0  0  0  0  0  0  0  0  0  0  0  0
  150.4327  142.8559  157.0088 N   0  3  0  0  0  0  0  0  0  0  0  0
  151.1629  142.8321  158.1990 C   0  0  0  0  0  0  0  0  0  0  0  0
  151.2398  143.7527  159.2392 C   0  0  0  0  0  0  0  0  0  0  0  0
  152.0883  143.4243  160.3169 C   0  0  0  0  0  0  0  0  0  0  0  0
  152.2005  144.2859  161.3554 F   0  0  0  0  0  0  0  0  0  0  0  0
  152.8213  142.2187  160.3326 C   0  0  0  0  0  0  0  0  0  0  0  0
  153.6267  141.9429  161.3856 F   0  0  0  0  0  0  0  0  0  0  0  0
  152.7339  141.2925  159.2724 C   0  0  0  0  0  0  0  0  0  0  0  0
  151.8924  141.6246  158.2114 C   0  0  0  0  0  0  0  0  0  0  0  0
  150.8404  138.3220  154.9515 C   0  0  0  0  0  0  0  0  0  0  0  0
  150.2126  139.3698  154.4174 F   0  0  0  0  0  0  0  0  0  0  0  0
  151.9827  138.1046  154.2988 F   0  0  0  0  0  0  0  0  0  0  0  0
  150.0561  137.2539  154.8083 F   0  0  0  0  0  0  0  0  0  0  0  0
  149.3112  139.3053  156.4289 H   0  0  0  0  0  0  0  0  0  0  0  0
  151.4418  137.6400  156.9038 H   0  0  0  0  0  0  0  0  0  0  0  0
  152.7856  139.3876  157.5492 H   0  0  0  0  0  0  0  0  0  0  0  0
  152.8302  139.7720  155.8495 H   0  0  0  0  0  0  0  0  0  0  0  0
  150.2631  141.4640  155.3370 H   0  0  0  0  0  0  0  0  0  0  0  0
  150.6817  144.6773  159.2306 H   0  0  0  0  0  0  0  0  0  0  0  0
  153.3043  140.3759  159.2935 H   0  0  0  0  0  0  0  0  0  0  0  0
  149.8085  143.5909  156.7008 H   0  0  0  0  0  0  0  0  0  0  0  0
  1  2  1  0  0  0  0
  1 19  1  0  0  0  0
  2  3  1  0  0  0  0
  2 15  1  0  0  0  0
  2 20  1  0  0  0  0
  3  4  1  0  0  0  0
  3 21  1  0  0  0  0
  3 22  1  0  0  0  0
  4 14  1  0  0  0  0
  4  5  1  0  0  0  0
  5  6  2  0  0  0  0
  5 23  1  0  0  0  0
  6  7  1  0  0  0  0
  6 26  1  0  0  0  0
  7 14  2  0  0  0  0
  7  8  1  0  0  0  0
  8  9  2  0  0  0  0
  8 24  1  0  0  0  0
  9 10  1  0  0  0  0
  9 11  1  0  0  0  0
 11 12  1  0  0  0  0
 11 13  2  0  0  0  0
 13 14  1  0  0  0  0
 13 25  1  0  0  0  0
 15 16  1  0  0  0  0
 15 17  1  0  0  0  0
 15 18  1  0  0  0  0
M  CHG  1   6   1
M  END
> <s_m_source_file>
AV-unprocessed.smi

> <i_m_source_file_index>
2776

> <i_lp_mmshare_version>
43012

> <i_f3d_flags>
0

> <s_epik_input>
RkMoRikoRilbQ0BIXShbT0hdKVtDSDJdbihbY0hdbjEpYyhjMTIpW2NIXWMoRiljKEYpW2NIXTI=

> <s_epik_cmdline>
J2VwaWtfcHl0aG9uJywgJy1waCcsICc3LjAnLCAnLXRuJywgJzgnLCAnLW1hJywgJzIwMCcsICctbWV0YWxfYmluZGluZycsICctaW1hZScsICc8aW5maWxlLm1hZT4nLCAnLW9tYWUnLCAnPG91dGZpbGUubWFlPic=

> <r_epik_Ionization_Penalty>
2.38424

> <r_epik_Ionization_Penalty_Charging>
2.37244

> <r_epik_Ionization_Penalty_Neutral>
0.0117937

> <r_epik_State_Penalty>
2.52832

> <r_epik_Charging_Adjusted_Penalty>
4.90076

> <i_epik_Tot_Q>
1

> <i_epik_Tot_abs_Q>
1

> <r_epik_Metal_State_Penalty>
6.61271

> <b_epik_Metal_Only>
0

> <s_lp_Force_Field>
OPLS_2005

> <r_lp_Energy>
13.8942

> <b_lp_Chiralities_Consistent>
1

> <s_lp_Variant>
AV-unprocessed.smi:2776-3

> <Gold.Version>
5.8.1

> <Gold.Id.Protein>
6NUR|6NUR_protein|mol2

> <Gold.PLP.Fitness>
46.1671

> <Gold.PLP.PLP>
-41.4024

> <Gold.PLP.part.hbond>
-1.0000

> <Gold.PLP.part.metal>
0.0000

> <Gold.PLP.part.buried>
-4.6817

> <Gold.PLP.part.nonpolar>
-35.8395

> <Gold.PLP.part.repulsive>
0.0172

> <Gold.PLP.ligand.clash>
0.0000

> <Gold.PLP.ligand.torsion>
0.6238

> <Gold.PLP.Chemscore.Hbond>
2.0000

> <Gold.PLP.Chemscore.CHOScore>
0.0000

> <Gold.PLP.Chemscore.Metal>
0.0000

> <Gold.Chemscore.Hbonds>
donor molecule, donor type, donor heavy atom, donor atom, acceptor molecule, acceptor atom, score
      L1  H     6    26       P1  8028  2.00

> <Gold.PLP.Chemscore.Internal.Correction>
0.0122

> <Gold.Rescore>
     Score         DG    S(hbond)    S(metal)    S(lipo)     H(rot)  DE(clash)    DE(int)     intcor
     11.70     -12.42       1.00        0.00      77.11       2.12       0.04       0.68       ----

> <Gold.Chemscore.Fitness>
11.7042

> <Gold.Chemscore.DG>
-12.4212

> <Gold.Chemscore.ZeroCoef>
-5.4800

> <Gold.Chemscore.Hbond>
0.9999

> <Gold.Chemscore.Metal>
0.0000

> <Gold.Chemscore.Lipo>
77.1084

> <Gold.Chemscore.Internal_Hbond>
0.0000

> <Gold.Chemscore.DEClash>
0.0402

> <Gold.Chemscore.DEInternal>
0.6768

> <Gold.Chemscore.Rot>
2.1173

> <Gold.Chemscore.Internal.Correction>
   9.000000E+99

> <Gold.Chemscore.Hbonds>
donor molecule, donor type, donor heavy atom, donor atom, acceptor molecule, acceptor atom, score
      L1  H     6    26       P1  8028  1.00

> <Gold.Chemscore.Hbond.Weighted>
-3.3397

> <Gold.Chemscore.Metal.Weighted>
-0.0000

> <Gold.Chemscore.Lipo.Weighted>
-9.0217

> <Gold.Chemscore.Internal_Hbond.Weighted>
0.0000

> <Gold.Chemscore.DEClash.Weighted>
0.0402

> <Gold.Chemscore.DEInternal.Weighted>
0.6768

> <Gold.Chemscore.Rot.Weighted>
5.4202

> <Gold.Chemscore.Internal.Correction.Weighted>
   9.000000E+99

> <Gold.Protein.RotatedTorsions>
[ 6907 6896 6895 6894 ] final   34.45 input  -60.11 | X-H torsion
[ 7974 7965 7964 7962 ] final  135.81 input  175.53 | X-H torsion
[ 8008 7997 7996 7995 ] final -120.33 input   59.86 | X-H torsion
[ 10167 10162 10161 10158 ] final    0.29 input  -65.29 | X-H torsion
[ 10718 10713 10712 10709 ] final  -83.54 input   66.30 | X-H torsion
[ 10763 10752 10751 10750 ] final    2.03 input  -60.55 | X-H torsion
[ 11005 11000 10999 10996 ] final -100.61 input  -57.11 | X-H torsion

> <Gold.Protein.ActiveResidues>
 VAL166  LYS551  ARG553  GLY616  TRP617  ASP618  TYR619  PRO620  LYS621  CYS622 
 ASP623  PHE694  ASN695  SER759  ASP760  ASP761  ALA762  ILE779  LEU786  VAL792 
 PHE793  MET794  SER795  GLU796  ALA797  LYS798  CYS799  TRP800  GLU811  SER814 

> <Gold.Protein.RotatedAtoms>
  152.1026  134.9331  160.0568 H   0  0  0  0  0  0  0  0  0  0  0  0  # atno 6907 bound_to 6896
  152.0540  133.4027  159.4397 H   0  0  0  0  0  0  0  0  0  0  0  0  # atno 6908 bound_to 6896
  150.6840  134.3197  159.4825 H   0  0  0  0  0  0  0  0  0  0  0  0  # atno 6909 bound_to 6896
  144.9627  139.4692  143.5471 H   0  0  0  0  0  0  0  0  0  0  0  0  # atno 7974 bound_to 7965
  155.1300  140.0400  157.2772 H   0  0  0  0  0  0  0  0  0  0  0  0  # atno 8008 bound_to 7997
  154.6549  140.2578  155.7146 H   0  0  0  0  0  0  0  0  0  0  0  0  # atno 8009 bound_to 7997
  156.2594  140.2828  156.0998 H   0  0  0  0  0  0  0  0  0  0  0  0  # atno 8010 bound_to 7997
  140.6735  143.6982  150.7973 H   0  0  0  0  0  0  0  0  0  0  0  0  # atno 10167 bound_to 10162
  156.0017  130.4669  150.4273 H   0  0  0  0  0  0  0  0  0  0  0  0  # atno 10718 bound_to 10713
  153.3006  135.6955  153.7207 H   0  0  0  0  0  0  0  0  0  0  0  0  # atno 10763 bound_to 10752
  153.6122  135.3442  155.2983 H   0  0  0  0  0  0  0  0  0  0  0  0  # atno 10764 bound_to 10752
  154.8549  135.4366  154.2116 H   0  0  0  0  0  0  0  0  0  0  0  0  # atno 10765 bound_to 10752
  141.1264  133.8412  157.1125 H   0  0  0  0  0  0  0  0  0  0  0  0  # atno 11005 bound_to 11000
  146.3358  139.8787  142.8828 LP  0  0  0  0  0  0  0  0  0  0  0  0  # atno 17320 bound_to 7965
  145.2676  141.0098  143.3790 LP  0  0  0  0  0  0  0  0  0  0  0  0  # atno 17321 bound_to 7965
  140.0671  143.5097  152.2598 LP  0  0  0  0  0  0  0  0  0  0  0  0  # atno 17342 bound_to 10162
  139.6015  144.7584  151.3161 LP  0  0  0  0  0  0  0  0  0  0  0  0  # atno 17343 bound_to 10162
  157.2324  131.0507  151.2484 LP  0  0  0  0  0  0  0  0  0  0  0  0  # atno 17370 bound_to 10713
  157.3698  130.7175  149.6557 LP  0  0  0  0  0  0  0  0  0  0  0  0  # atno 17371 bound_to 10713
  140.0266  134.9921  157.0699 LP  0  0  0  0  0  0  0  0  0  0  0  0  # atno 17394 bound_to 11000
  140.4352  134.1739  155.7170 LP  0  0  0  0  0  0  0  0  0  0  0  0  # atno 17395 bound_to 11000

$$$$
