AV-unprocessed.smi:901|AV-procd|sdf|4093|dock8
  -GOLD-   22720 1583D 1   1.00000     0.00000
 Structure written by MMmdl.
 43 44  0  0  0  0  0  0  0  0  1 V2000
  152.0384  139.0249  155.0045 C   0  0  0  0  0  0  0  0  0  0  0  0
  150.9638  138.0182  155.3643 C   0  0  0  0  0  0  0  0  0  0  0  0
  150.1757  138.3518  156.6186 C   0  0  0  0  0  0  0  0  0  0  0  0
  150.7441  136.9202  154.6158 C   0  0  0  0  0  0  0  0  0  0  0  0
  149.7273  135.8642  154.8645 C   0  0  1  0  0  0  0  0  0  0  0  0
  150.1338  134.4038  154.9453 C   0  0  2  0  0  0  0  0  0  0  0  0
  149.2458  133.3709  154.3219 C   0  0  0  0  0  0  0  0  0  0  0  0
  149.3239  132.1705  154.5884 O   0  0  0  0  0  0  0  0  0  0  0  0
  148.3583  133.8940  153.4565 N   0  0  0  0  0  0  0  0  0  0  0  0
  147.3741  133.2091  152.6988 C   0  0  0  0  0  0  0  0  0  0  0  0
  146.5656  132.2059  153.3005 C   0  0  0  0  0  0  0  0  0  0  0  0
  145.7647  131.7907  152.2748 C   0  0  0  0  0  0  0  0  0  0  0  0
  146.1093  132.5225  151.1550 N   0  0  0  0  0  0  0  0  0  0  0  0
  145.5449  132.4459  149.8174 C   0  0  0  0  0  0  0  0  0  0  0  0
  144.0890  132.9245  149.7748 C   0  0  0  0  0  0  0  0  0  0  0  0
  143.8015  133.9001  148.9094 N   0  0  0  0  0  0  0  0  0  0  0  0
  143.2326  132.4258  150.5034 O   0  0  0  0  0  0  0  0  0  0  0  0
  147.0998  133.4038  151.4161 N   0  0  0  0  0  0  0  0  0  0  0  0
  149.6558  135.1342  156.1957 C   0  0  0  0  0  0  0  0  0  0  0  0
  150.6791  135.3856  157.2935 C   0  0  0  0  0  0  0  0  0  0  0  0
  148.2883  134.8987  156.8267 C   0  0  0  0  0  0  0  0  0  0  0  0
  151.5944  140.0056  154.8311 H   0  0  0  0  0  0  0  0  0  0  0  0
  152.5776  138.7327  154.1028 H   0  0  0  0  0  0  0  0  0  0  0  0
  152.7600  139.1140  155.8170 H   0  0  0  0  0  0  0  0  0  0  0  0
  150.8421  138.3849  157.4806 H   0  0  0  0  0  0  0  0  0  0  0  0
  149.3934  137.6227  156.8274 H   0  0  0  0  0  0  0  0  0  0  0  0
  149.7027  139.3286  156.5159 H   0  0  0  0  0  0  0  0  0  0  0  0
  151.3523  136.7690  153.7358 H   0  0  0  0  0  0  0  0  0  0  0  0
  148.7857  136.0947  154.3692 H   0  0  0  0  0  0  0  0  0  0  0  0
  151.2003  134.1862  154.9030 H   0  0  0  0  0  0  0  0  0  0  0  0
  148.3931  134.8944  153.3263 H   0  0  0  0  0  0  0  0  0  0  0  0
  146.5716  131.8465  154.3188 H   0  0  0  0  0  0  0  0  0  0  0  0
  144.9882  131.0404  152.2466 H   0  0  0  0  0  0  0  0  0  0  0  0
  146.1619  133.0502  149.1510 H   0  0  0  0  0  0  0  0  0  0  0  0
  145.5956  131.4166  149.4580 H   0  0  0  0  0  0  0  0  0  0  0  0
  142.8591  134.2564  148.8428 H   0  0  0  0  0  0  0  0  0  0  0  0
  144.5322  134.2815  148.3261 H   0  0  0  0  0  0  0  0  0  0  0  0
  150.7078  134.5423  157.9842 H   0  0  0  0  0  0  0  0  0  0  0  0
  150.4236  136.2857  157.8529 H   0  0  0  0  0  0  0  0  0  0  0  0
  151.6785  135.5162  156.8777 H   0  0  0  0  0  0  0  0  0  0  0  0
  148.2643  133.9304  157.3274 H   0  0  0  0  0  0  0  0  0  0  0  0
  147.4923  134.9257  156.0833 H   0  0  0  0  0  0  0  0  0  0  0  0
  148.0710  135.6738  157.5622 H   0  0  0  0  0  0  0  0  0  0  0  0
  1  2  1  0  0  0  0
  1 22  1  0  0  0  0
  1 23  1  0  0  0  0
  1 24  1  0  0  0  0
  2  3  1  0  0  0  0
  2  4  2  0  0  0  0
  3 25  1  0  0  0  0
  3 26  1  0  0  0  0
  3 27  1  0  0  0  0
  4  5  1  0  0  0  0
  4 28  1  0  0  0  0
  5 19  1  0  0  0  0
  5  6  1  0  0  0  0
  5 29  1  0  0  0  0
  6  7  1  0  0  0  0
  6 19  1  0  0  0  0
  6 30  1  0  0  0  0
  7  8  2  0  0  0  0
  7  9  1  0  0  0  0
  9 10  1  0  0  0  0
  9 31  1  0  0  0  0
 10 18  2  0  0  0  0
 10 11  1  0  0  0  0
 11 12  2  0  0  0  0
 11 32  1  0  0  0  0
 12 13  1  0  0  0  0
 12 33  1  0  0  0  0
 13 14  1  0  0  0  0
 13 18  1  0  0  0  0
 14 15  1  0  0  0  0
 14 34  1  0  0  0  0
 14 35  1  0  0  0  0
 15 16  1  0  0  0  0
 15 17  2  0  0  0  0
 16 36  1  0  0  0  0
 16 37  1  0  0  0  0
 19 20  1  0  0  0  0
 19 21  1  0  0  0  0
 20 38  1  0  0  0  0
 20 39  1  0  0  0  0
 20 40  1  0  0  0  0
 21 41  1  0  0  0  0
 21 42  1  0  0  0  0
 21 43  1  0  0  0  0
M  END
> <s_m_source_file>
AV-unprocessed.smi

> <i_m_source_file_index>
901

> <i_lp_mmshare_version>
43012

> <i_f3d_flags>
0

> <s_epik_input>
W0NIM11DKFtDSDNdKT1bQ0hdW0NAQEhdKEMxKFtDSDNdKVtDSDNdKVtDQEhdMUMoPU8pW05IXWMyW2NIXVtjSF1uKG4yKVtDSDJdQyg9TylbTkgyXQ==

> <s_epik_cmdline>
J2VwaWtfcHl0aG9uJywgJy1waCcsICc3LjAnLCAnLXRuJywgJzgnLCAnLW1hJywgJzIwMCcsICctbWV0YWxfYmluZGluZycsICctaW1hZScsICc8aW5maWxlLm1hZT4nLCAnLW9tYWUnLCAnPG91dGZpbGUubWFlPic=

> <r_lp_tautomer_probability>
1

> <r_epik_Ionization_Penalty>
1.01454e-05

> <r_epik_Ionization_Penalty_Charging>
0

> <r_epik_Ionization_Penalty_Neutral>
1.01454e-05

> <r_epik_State_Penalty>
-0

> <r_epik_Charging_Adjusted_Penalty>
0

> <i_epik_Tot_Q>
0

> <i_epik_Tot_abs_Q>
0

> <r_epik_Metal_State_Penalty>
-0

> <b_epik_Metal_Only>
0

> <s_lp_Force_Field>
OPLS_2005

> <r_lp_Energy>
18.0241

> <b_lp_Chiralities_Consistent>
1

> <s_lp_Variant>
AV-unprocessed.smi:901-4

> <Gold.Version>
5.8.1

> <Gold.Id.Protein>
6NUR|6NUR_protein|mol2

> <Gold.PLP.Fitness>
38.0234

> <Gold.PLP.PLP>
-31.7009

> <Gold.PLP.part.hbond>
-3.0000

> <Gold.PLP.part.metal>
0.0000

> <Gold.PLP.part.buried>
-2.9485

> <Gold.PLP.part.nonpolar>
-26.7634

> <Gold.PLP.part.repulsive>
0.6529

> <Gold.PLP.ligand.clash>
0.0000

> <Gold.PLP.ligand.torsion>
1.0533

> <Gold.PLP.Chemscore.Hbond>
2.7520

> <Gold.PLP.Chemscore.CHOScore>
0.0000

> <Gold.PLP.Chemscore.Metal>
0.0000

> <Gold.Chemscore.Hbonds>
donor molecule, donor type, donor heavy atom, donor atom, acceptor molecule, acceptor atom, score
      L1  H     9    31       P1  7948  0.73
      L1  H    16    36       P1 10186  1.00
      L1  H    16    37       P1  7921  1.00

> <Gold.PLP.Chemscore.Internal.Correction>
0.1731

> <Gold.Rescore>
     Score         DG    S(hbond)    S(metal)    S(lipo)     H(rot)  DE(clash)    DE(int)     intcor
     13.83     -16.32       2.56        0.00      66.13       2.13       0.58       1.91       ----

> <Gold.Chemscore.Fitness>
13.8308

> <Gold.Chemscore.DG>
-16.3186

> <Gold.Chemscore.ZeroCoef>
-5.4800

> <Gold.Chemscore.Hbond>
2.5620

> <Gold.Chemscore.Metal>
0.0000

> <Gold.Chemscore.Lipo>
66.1259

> <Gold.Chemscore.Internal_Hbond>
0.0000

> <Gold.Chemscore.DEClash>
0.5756

> <Gold.Chemscore.DEInternal>
1.9122

> <Gold.Chemscore.Rot>
2.1309

> <Gold.Chemscore.Internal.Correction>
   9.000000E+99

> <Gold.Chemscore.Hbonds>
donor molecule, donor type, donor heavy atom, donor atom, acceptor molecule, acceptor atom, score
      L1  H     9    31       P1  7948  0.57
      L1  H    16    36       P1 10186  0.94
      L1  H    16    37       P1  7921  1.00

> <Gold.Chemscore.Hbond.Weighted>
-8.5570

> <Gold.Chemscore.Metal.Weighted>
-0.0000

> <Gold.Chemscore.Lipo.Weighted>
-7.7367

> <Gold.Chemscore.Internal_Hbond.Weighted>
0.0000

> <Gold.Chemscore.DEClash.Weighted>
0.5756

> <Gold.Chemscore.DEInternal.Weighted>
1.9122

> <Gold.Chemscore.Rot.Weighted>
5.4552

> <Gold.Chemscore.Internal.Correction.Weighted>
   9.000000E+99

> <Gold.Protein.RotatedTorsions>
[ 6907 6896 6895 6894 ] final   -8.84 input  -60.11 | X-H torsion
[ 7974 7965 7964 7962 ] final   65.25 input  175.53 | X-H torsion
[ 8008 7997 7996 7995 ] final -100.69 input   59.86 | X-H torsion
[ 10167 10162 10161 10158 ] final    6.74 input  -65.29 | X-H torsion
[ 10718 10713 10712 10709 ] final   26.78 input   66.30 | X-H torsion
[ 10763 10752 10751 10750 ] final   96.56 input  -60.55 | X-H torsion
[ 11005 11000 10999 10996 ] final   36.58 input  -57.11 | X-H torsion

> <Gold.Protein.ActiveResidues>
 VAL166  LYS551  ARG553  GLY616  TRP617  ASP618  TYR619  PRO620  LYS621  CYS622 
 ASP623  PHE694  ASN695  SER759  ASP760  ASP761  ALA762  ILE779  LEU786  VAL792 
 PHE793  MET794  SER795  GLU796  ALA797  LYS798  CYS799  TRP800  GLU811  SER814 

> <Gold.Protein.RotatedAtoms>
  151.4272  135.1005  159.9631 H   0  0  0  0  0  0  0  0  0  0  0  0  # atno 6907 bound_to 6896
  152.4968  133.8652  159.7281 H   0  0  0  0  0  0  0  0  0  0  0  0  # atno 6908 bound_to 6896
  150.9181  133.6856  159.2866 H   0  0  0  0  0  0  0  0  0  0  0  0  # atno 6909 bound_to 6896
  145.8407  139.3193  143.0933 H   0  0  0  0  0  0  0  0  0  0  0  0  # atno 7974 bound_to 7965
  154.8322  140.0439  157.1484 H   0  0  0  0  0  0  0  0  0  0  0  0  # atno 8008 bound_to 7997
  154.9140  140.3017  155.5231 H   0  0  0  0  0  0  0  0  0  0  0  0  # atno 8009 bound_to 7997
  156.2987  140.2353  156.4183 H   0  0  0  0  0  0  0  0  0  0  0  0  # atno 8010 bound_to 7997
  140.6411  143.7773  150.7429 H   0  0  0  0  0  0  0  0  0  0  0  0  # atno 10167 bound_to 10162
  157.2114  130.6936  149.6230 H   0  0  0  0  0  0  0  0  0  0  0  0  # atno 10718 bound_to 10713
  153.2664  135.4214  155.0945 H   0  0  0  0  0  0  0  0  0  0  0  0  # atno 10763 bound_to 10752
  154.8439  135.3461  154.6306 H   0  0  0  0  0  0  0  0  0  0  0  0  # atno 10764 bound_to 10752
  153.6726  135.7043  153.5200 H   0  0  0  0  0  0  0  0  0  0  0  0  # atno 10765 bound_to 10752
  140.2311  134.3526  155.7963 H   0  0  0  0  0  0  0  0  0  0  0  0  # atno 11005 bound_to 11000
  145.9469  140.8938  143.0279 LP  0  0  0  0  0  0  0  0  0  0  0  0  # atno 17320 bound_to 7965
  144.6734  140.1625  143.7421 LP  0  0  0  0  0  0  0  0  0  0  0  0  # atno 17321 bound_to 7965
  140.1404  143.4446  152.2197 LP  0  0  0  0  0  0  0  0  0  0  0  0  # atno 17342 bound_to 10162
  139.5620  144.7411  151.4129 LP  0  0  0  0  0  0  0  0  0  0  0  0  # atno 17343 bound_to 10162
  155.9690  130.4550  150.5870 LP  0  0  0  0  0  0  0  0  0  0  0  0  # atno 17370 bound_to 10713
  157.3668  131.0759  151.1591 LP  0  0  0  0  0  0  0  0  0  0  0  0  # atno 17371 bound_to 10713
  141.2217  133.7246  156.8733 LP  0  0  0  0  0  0  0  0  0  0  0  0  # atno 17394 bound_to 11000
  140.1749  134.9074  157.2879 LP  0  0  0  0  0  0  0  0  0  0  0  0  # atno 17395 bound_to 11000

$$$$
