AV-unprocessed.smi:1560|AV-procd|sdf|6279|dock10
  -GOLD-   22720 6473D 1   1.00000     0.00000
 Structure written by MMmdl.
 46 47  0  0  0  0  0  0  0  0  2 V2000
  145.8032  138.7443  154.6612 C   0  0  0  0  0  0  0  0  0  0  0  0
  147.3027  139.0901  154.7173 C   0  0  0  0  0  0  0  0  0  0  0  0
  148.1173  138.3857  155.8485 C   0  0  1  0  0  0  0  0  0  0  0  0
  147.5344  138.9005  157.1923 C   0  0  0  0  0  0  0  0  0  0  0  0
  147.8631  136.8455  155.7649 C   0  0  0  0  0  0  0  0  0  0  0  0
  148.3373  136.1003  156.9309 N   0  0  0  0  0  0  0  0  0  0  0  0
  147.6049  135.2599  157.6779 C   0  0  0  0  0  0  0  0  0  0  0  0
  146.4087  135.0433  157.4792 O   0  0  0  0  0  0  0  0  0  0  0  0
  148.3338  134.5915  158.8508 C   0  0  0  0  0  0  0  0  0  0  0  0
  148.0784  135.2609  160.1364 N   0  0  0  0  0  0  0  0  0  0  0  0
  147.7353  134.4572  161.2381 C   0  0  0  0  0  0  0  0  0  0  0  0
  147.4856  134.9849  162.4518 C   0  0  0  0  0  0  0  0  0  0  0  0
  147.5785  136.4313  162.6084 C   0  0  0  0  0  0  0  0  0  0  0  0
  147.3483  136.9312  163.7079 O   0  0  0  0  0  0  0  0  0  0  0  0
  147.9207  137.1676  161.5106 N   0  5  0  0  0  0  0  0  0  0  0  0
  148.1735  136.6172  160.2828 C   0  0  0  0  0  0  0  0  0  0  0  0
  148.4817  137.3004  159.3053 O   0  0  0  0  0  0  0  0  0  0  0  0
  149.5669  138.7181  155.7451 N   0  0  0  0  0  0  0  0  0  0  0  0
  149.8882  140.1472  155.8491 C   0  0  0  0  0  0  0  0  0  0  0  0
  151.4055  140.3953  155.8836 C   0  0  0  0  0  0  0  0  0  0  0  0
  152.0096  139.8306  154.7261 O   0  0  0  0  0  0  0  0  0  0  0  0
  151.7698  138.4330  154.6155 C   0  0  0  0  0  0  0  0  0  0  0  0
  150.2549  138.1688  154.5706 C   0  0  0  0  0  0  0  0  0  0  0  0
  145.3191  139.2833  153.8469 H   0  0  0  0  0  0  0  0  0  0  0  0
  145.2879  139.0179  155.5817 H   0  0  0  0  0  0  0  0  0  0  0  0
  145.6388  137.6813  154.4875 H   0  0  0  0  0  0  0  0  0  0  0  0
  147.7262  138.8410  153.7441 H   0  0  0  0  0  0  0  0  0  0  0  0
  147.4119  140.1723  154.7906 H   0  0  0  0  0  0  0  0  0  0  0  0
  146.4440  138.8869  157.1984 H   0  0  0  0  0  0  0  0  0  0  0  0
  147.8432  139.9257  157.3988 H   0  0  0  0  0  0  0  0  0  0  0  0
  147.8532  138.2887  158.0364 H   0  0  0  0  0  0  0  0  0  0  0  0
  146.8067  136.6329  155.5992 H   0  0  0  0  0  0  0  0  0  0  0  0
  148.3849  136.4192  154.9090 H   0  0  0  0  0  0  0  0  0  0  0  0
  149.3094  136.2182  157.1771 H   0  0  0  0  0  0  0  0  0  0  0  0
  148.0511  133.5390  158.9160 H   0  0  0  0  0  0  0  0  0  0  0  0
  149.4013  134.5878  158.6264 H   0  0  0  0  0  0  0  0  0  0  0  0
  147.6940  133.3963  161.0390 H   0  0  0  0  0  0  0  0  0  0  0  0
  147.2258  134.3536  163.2889 H   0  0  0  0  0  0  0  0  0  0  0  0
  149.4673  140.6925  155.0046 H   0  0  0  0  0  0  0  0  0  0  0  0
  149.4588  140.5812  156.7502 H   0  0  0  0  0  0  0  0  0  0  0  0
  151.6135  141.4651  155.9074 H   0  0  0  0  0  0  0  0  0  0  0  0
  151.8468  139.9625  156.7828 H   0  0  0  0  0  0  0  0  0  0  0  0
  152.2466  138.0605  153.7088 H   0  0  0  0  0  0  0  0  0  0  0  0
  152.2276  137.9097  155.4564 H   0  0  0  0  0  0  0  0  0  0  0  0
  150.1091  137.0923  154.5007 H   0  0  0  0  0  0  0  0  0  0  0  0
  149.8520  138.6039  153.6562 H   0  0  0  0  0  0  0  0  0  0  0  0
  1  2  1  0  0  0  0
  1 24  1  0  0  0  0
  1 25  1  0  0  0  0
  1 26  1  0  0  0  0
  2  3  1  0  0  0  0
  2 27  1  0  0  0  0
  2 28  1  0  0  0  0
  3  4  1  0  0  0  0
  3  5  1  0  0  0  0
  3 18  1  0  0  0  0
  4 29  1  0  0  0  0
  4 30  1  0  0  0  0
  4 31  1  0  0  0  0
  5  6  1  0  0  0  0
  5 32  1  0  0  0  0
  5 33  1  0  0  0  0
  6  7  1  0  0  0  0
  6 34  1  0  0  0  0
  7  8  2  0  0  0  0
  7  9  1  0  0  0  0
  9 10  1  0  0  0  0
  9 35  1  0  0  0  0
  9 36  1  0  0  0  0
 10 16  1  0  0  0  0
 10 11  1  0  0  0  0
 11 12  2  0  0  0  0
 11 37  1  0  0  0  0
 12 13  1  0  0  0  0
 12 38  1  0  0  0  0
 13 14  2  0  0  0  0
 13 15  1  0  0  0  0
 15 16  1  0  0  0  0
 16 17  2  0  0  0  0
 18 23  1  0  0  0  0
 18 19  1  0  0  0  0
 19 20  1  0  0  0  0
 19 39  1  0  0  0  0
 19 40  1  0  0  0  0
 20 21  1  0  0  0  0
 20 41  1  0  0  0  0
 20 42  1  0  0  0  0
 21 22  1  0  0  0  0
 22 23  1  0  0  0  0
 22 43  1  0  0  0  0
 22 44  1  0  0  0  0
 23 45  1  0  0  0  0
 23 46  1  0  0  0  0
M  CHG  1  15  -1
M  END
> <s_m_source_file>
AV-unprocessed.smi

> <i_m_source_file_index>
1560

> <i_lp_mmshare_version>
43012

> <i_f3d_flags>
0

> <s_epik_input>
W0NIMl0xW0NIMl1PW0NIMl1bQ0gyXU4xW0NAQF0oW0NIM10pKFtDSDJdW0NIM10pW0NIMl1bTkhdQyg9TylbQ0gyXW4yW2NIXVtjSF1jKD1PKVtuSF1jMj1P

> <s_epik_cmdline>
J2VwaWtfcHl0aG9uJywgJy1waCcsICc3LjAnLCAnLXRuJywgJzgnLCAnLW1hJywgJzIwMCcsICctbWV0YWxfYmluZGluZycsICctaW1hZScsICc8aW5maWxlLm1hZT4nLCAnLW9tYWUnLCAnPG91dGZpbGUubWFlPic=

> <r_lp_tautomer_probability>
0.999537

> <r_epik_Ionization_Penalty>
3.35108

> <r_epik_Ionization_Penalty_Charging>
2.65778e-08

> <r_epik_Ionization_Penalty_Neutral>
3.35108

> <r_epik_State_Penalty>
3.36199

> <r_epik_Charging_Adjusted_Penalty>
3.36199

> <i_epik_Tot_Q>
-1

> <i_epik_Tot_abs_Q>
1

> <r_epik_Metal_State_Penalty>
0.748914

> <b_epik_Metal_Only>
1

> <s_lp_Force_Field>
OPLS_2005

> <r_lp_Energy>
51.7621

> <b_lp_Chiralities_Consistent>
1

> <s_lp_Variant>
AV-unprocessed.smi:1560-5

> <Gold.Version>
5.8.1

> <Gold.Id.Protein>
6NUR|6NUR_protein|mol2

> <Gold.PLP.Fitness>
40.7585

> <Gold.PLP.PLP>
-28.8611

> <Gold.PLP.part.hbond>
-3.3154

> <Gold.PLP.part.metal>
0.0000

> <Gold.PLP.part.buried>
-2.0556

> <Gold.PLP.part.nonpolar>
-23.4399

> <Gold.PLP.part.repulsive>
0.1286

> <Gold.PLP.ligand.clash>
0.0000

> <Gold.PLP.ligand.torsion>
0.5705

> <Gold.PLP.Chemscore.Hbond>
4.2880

> <Gold.PLP.Chemscore.CHOScore>
0.0000

> <Gold.PLP.Chemscore.Metal>
0.0000

> <Gold.Chemscore.Hbonds>
donor molecule, donor type, donor heavy atom, donor atom, acceptor molecule, acceptor atom, score
      P1  H  6931  6943       L1    15  2.00
      P1  H  6934  6947       L1    15  1.20
      P1  H  7989  7998       L1    21  0.88

> <Gold.PLP.Chemscore.Internal.Correction>
0.1745

> <Gold.Rescore>
     Score         DG    S(hbond)    S(metal)    S(lipo)     H(rot)  DE(clash)    DE(int)     intcor
      7.33     -10.65       1.66        0.00      49.75       2.42       0.13       3.19       ----

> <Gold.Chemscore.Fitness>
7.3339

> <Gold.Chemscore.DG>
-10.6523

> <Gold.Chemscore.ZeroCoef>
-5.4800

> <Gold.Chemscore.Hbond>
1.6604

> <Gold.Chemscore.Metal>
0.0000

> <Gold.Chemscore.Lipo>
49.7506

> <Gold.Chemscore.Internal_Hbond>
0.0000

> <Gold.Chemscore.DEClash>
0.1252

> <Gold.Chemscore.DEInternal>
3.1932

> <Gold.Chemscore.Rot>
2.4197

> <Gold.Chemscore.Internal.Correction>
   9.000000E+99

> <Gold.Chemscore.Hbonds>
donor molecule, donor type, donor heavy atom, donor atom, acceptor molecule, acceptor atom, score
      P1  H  6931  6943       L1    15  0.59
      P1  H  6934  6947       L1    15  0.18
      P1  H  7989  7998       L1    21  0.47

> <Gold.Chemscore.Hbond.Weighted>
-5.5458

> <Gold.Chemscore.Metal.Weighted>
-0.0000

> <Gold.Chemscore.Lipo.Weighted>
-5.8208

> <Gold.Chemscore.Internal_Hbond.Weighted>
0.0000

> <Gold.Chemscore.DEClash.Weighted>
0.1252

> <Gold.Chemscore.DEInternal.Weighted>
3.1932

> <Gold.Chemscore.Rot.Weighted>
6.1943

> <Gold.Chemscore.Internal.Correction.Weighted>
   9.000000E+99

> <Gold.Protein.RotatedTorsions>
[ 6907 6896 6895 6894 ] final   60.47 input  -60.11 | X-H torsion
[ 7974 7965 7964 7962 ] final   84.80 input  175.53 | X-H torsion
[ 8008 7997 7996 7995 ] final   57.59 input   59.86 | X-H torsion
[ 10167 10162 10161 10158 ] final  -55.14 input  -65.29 | X-H torsion
[ 10718 10713 10712 10709 ] final   38.27 input   66.30 | X-H torsion
[ 10763 10752 10751 10750 ] final   64.32 input  -60.55 | X-H torsion
[ 11005 11000 10999 10996 ] final   56.59 input  -57.11 | X-H torsion

> <Gold.Protein.ActiveResidues>
 VAL166  LYS551  ARG553  GLY616  TRP617  ASP618  TYR619  PRO620  LYS621  CYS622 
 ASP623  PHE694  ASN695  SER759  ASP760  ASP761  ALA762  ILE779  LEU786  VAL792 
 PHE793  MET794  SER795  GLU796  ALA797  LYS798  CYS799  TRP800  GLU811  SER814 

> <Gold.Protein.RotatedAtoms>
  152.4005  134.6294  160.0071 H   0  0  0  0  0  0  0  0  0  0  0  0  # atno 6907 bound_to 6896
  151.6500  133.3316  159.3158 H   0  0  0  0  0  0  0  0  0  0  0  0  # atno 6908 bound_to 6896
  150.7906  134.6970  159.6573 H   0  0  0  0  0  0  0  0  0  0  0  0  # atno 6909 bound_to 6896
  145.5939  139.2342  143.2284 H   0  0  0  0  0  0  0  0  0  0  0  0  # atno 7974 bound_to 7965
  155.5362  140.3483  155.4437 H   0  0  0  0  0  0  0  0  0  0  0  0  # atno 8008 bound_to 7997
  156.0683  140.1357  156.9886 H   0  0  0  0  0  0  0  0  0  0  0  0  # atno 8009 bound_to 7997
  154.4515  140.0971  156.6605 H   0  0  0  0  0  0  0  0  0  0  0  0  # atno 8010 bound_to 7997
  140.6391  143.2498  151.5037 H   0  0  0  0  0  0  0  0  0  0  0  0  # atno 10167 bound_to 10162
  157.3568  130.7628  149.7018 H   0  0  0  0  0  0  0  0  0  0  0  0  # atno 10718 bound_to 10713
  153.0051  135.5397  154.6491 H   0  0  0  0  0  0  0  0  0  0  0  0  # atno 10763 bound_to 10752
  154.5727  135.2843  155.0813 H   0  0  0  0  0  0  0  0  0  0  0  0  # atno 10764 bound_to 10752
  154.1973  135.6490  153.5129 H   0  0  0  0  0  0  0  0  0  0  0  0  # atno 10765 bound_to 10752
  140.0517  134.5727  155.9255 H   0  0  0  0  0  0  0  0  0  0  0  0  # atno 11005 bound_to 11000
  146.1626  140.6765  142.9270 LP  0  0  0  0  0  0  0  0  0  0  0  0  # atno 17320 bound_to 7965
  144.7339  140.4752  143.6918 LP  0  0  0  0  0  0  0  0  0  0  0  0  # atno 17321 bound_to 7965
  139.5601  144.2179  152.1676 LP  0  0  0  0  0  0  0  0  0  0  0  0  # atno 17342 bound_to 10162
  140.1444  144.5173  150.6725 LP  0  0  0  0  0  0  0  0  0  0  0  0  # atno 17343 bound_to 10162
  155.9730  130.4125  150.4035 LP  0  0  0  0  0  0  0  0  0  0  0  0  # atno 17370 bound_to 10713
  157.2106  131.0459  151.2601 LP  0  0  0  0  0  0  0  0  0  0  0  0  # atno 17371 bound_to 10713
  141.1933  133.6578  156.5544 LP  0  0  0  0  0  0  0  0  0  0  0  0  # atno 17394 bound_to 11000
  140.3907  134.7443  157.4719 LP  0  0  0  0  0  0  0  0  0  0  0  0  # atno 17395 bound_to 11000

$$$$
