AV-unprocessed.smi:1686|AV-procd|sdf|6759|dock10
  -GOLD-   22720 7523D 1   1.00000     0.00000
 Structure written by MMmdl.
 41 43  0  0  0  0  0  0  0  0  1 V2000
  150.3160  135.2350  156.1496 C   0  0  0  0  0  0  0  0  0  0  0  0
  150.0203  133.7684  156.2832 C   0  0  0  0  0  0  0  0  0  0  0  0
  150.0986  133.1900  157.4747 N   0  0  0  0  0  0  0  0  0  0  0  0
  149.7861  131.8398  157.2782 O   0  0  0  0  0  0  0  0  0  0  0  0
  149.5337  131.6791  155.9588 C   0  0  0  0  0  0  0  0  0  0  0  0
  149.1223  130.1546  155.2786 Cl  0  0  0  0  0  0  0  0  0  0  0  0
  149.6567  132.8451  155.2597 C   0  0  0  0  0  0  0  0  0  0  0  0
  149.4740  133.1062  153.7869 C   0  0  0  0  0  0  0  0  0  0  0  0
  147.9912  133.0033  153.4353 C   0  0  0  0  0  0  0  0  0  0  0  0
  147.3458  132.0125  153.7763 O   0  0  0  0  0  0  0  0  0  0  0  0
  147.4665  134.0403  152.7642 N   0  0  0  0  0  0  0  0  0  0  0  0
  146.0720  134.1707  152.3509 C   0  0  1  0  0  0  0  0  0  0  0  0
  145.6146  135.6214  152.5757 C   0  0  0  0  0  0  0  0  0  0  0  0
  145.9195  133.7332  150.8755 C   0  0  2  0  0  0  0  0  0  0  0  0
  144.5351  134.0251  150.2535 C   0  0  0  0  0  0  0  0  0  0  0  0
  144.1449  132.6740  149.6252 C   0  0  2  0  0  0  0  0  0  0  0  0
  143.7545  131.6925  150.7457 C   0  0  0  0  0  0  0  0  0  0  0  0
  145.1123  131.3576  151.3890 C   0  0  0  0  0  0  0  0  0  0  0  0
  146.0985  132.2225  150.5767 C   0  0  1  0  0  0  0  0  0  0  0  0
  145.4948  132.1236  149.1795 C   0  0  0  0  0  0  0  0  0  0  0  0
  151.2780  135.3935  155.6622 H   0  0  0  0  0  0  0  0  0  0  0  0
  150.3494  135.7311  157.1201 H   0  0  0  0  0  0  0  0  0  0  0  0
  149.5548  135.7346  155.5502 H   0  0  0  0  0  0  0  0  0  0  0  0
  149.8449  134.0920  153.5031 H   0  0  0  0  0  0  0  0  0  0  0  0
  150.0331  132.3897  153.1840 H   0  0  0  0  0  0  0  0  0  0  0  0
  148.0801  134.8078  152.5311 H   0  0  0  0  0  0  0  0  0  0  0  0
  145.4444  133.5281  152.9698 H   0  0  0  0  0  0  0  0  0  0  0  0
  144.5676  135.7555  152.3039 H   0  0  0  0  0  0  0  0  0  0  0  0
  146.2041  136.3208  151.9821 H   0  0  0  0  0  0  0  0  0  0  0  0
  145.7172  135.9066  153.6232 H   0  0  0  0  0  0  0  0  0  0  0  0
  146.6718  134.2676  150.2921 H   0  0  0  0  0  0  0  0  0  0  0  0
  143.7969  134.3557  150.9853 H   0  0  0  0  0  0  0  0  0  0  0  0
  144.6155  134.8026  149.4928 H   0  0  0  0  0  0  0  0  0  0  0  0
  143.3959  132.7577  148.8372 H   0  0  0  0  0  0  0  0  0  0  0  0
  143.0546  132.1326  151.4570 H   0  0  0  0  0  0  0  0  0  0  0  0
  143.2930  130.7935  150.3353 H   0  0  0  0  0  0  0  0  0  0  0  0
  145.1360  131.5601  152.4591 H   0  0  0  0  0  0  0  0  0  0  0  0
  145.3397  130.2990  151.2572 H   0  0  0  0  0  0  0  0  0  0  0  0
  147.1325  131.8827  150.6449 H   0  0  0  0  0  0  0  0  0  0  0  0
  145.4411  131.1012  148.8006 H   0  0  0  0  0  0  0  0  0  0  0  0
  145.9970  132.7520  148.4418 H   0  0  0  0  0  0  0  0  0  0  0  0
  1  2  1  0  0  0  0
  1 21  1  0  0  0  0
  1 22  1  0  0  0  0
  1 23  1  0  0  0  0
  2  7  1  0  0  0  0
  2  3  2  0  0  0  0
  3  4  1  0  0  0  0
  4  5  1  0  0  0  0
  5  6  1  0  0  0  0
  5  7  2  0  0  0  0
  7  8  1  0  0  0  0
  8  9  1  0  0  0  0
  8 24  1  0  0  0  0
  8 25  1  0  0  0  0
  9 10  2  0  0  0  0
  9 11  1  0  0  0  0
 11 12  1  0  0  0  0
 11 26  1  0  0  0  0
 12 13  1  0  0  0  0
 12 14  1  0  0  0  0
 12 27  1  0  0  0  0
 13 28  1  0  0  0  0
 13 29  1  0  0  0  0
 13 30  1  0  0  0  0
 14 19  1  0  0  0  0
 14 15  1  0  0  0  0
 14 31  1  0  0  0  0
 15 16  1  0  0  0  0
 15 32  1  0  0  0  0
 15 33  1  0  0  0  0
 16 20  1  0  0  0  0
 16 17  1  0  0  0  0
 16 34  1  0  0  0  0
 17 18  1  0  0  0  0
 17 35  1  0  0  0  0
 17 36  1  0  0  0  0
 18 19  1  0  0  0  0
 18 37  1  0  0  0  0
 18 38  1  0  0  0  0
 19 20  1  0  0  0  0
 19 39  1  0  0  0  0
 20 40  1  0  0  0  0
 20 41  1  0  0  0  0
M  END
> <s_m_source_file>
AV-unprocessed.smi

> <i_m_source_file_index>
1686

> <i_lp_mmshare_version>
43012

> <i_f3d_flags>
0

> <s_epik_input>
W0NIM11jMW5vYyhDbCljMVtDSDJdQyg9TylbTkhdW0NASF0oW0NIM10pW0NASF0oW0NIMl1bQ0BIXTIzKVtDQEhdKFtDSDJdMylbQ0gyXVtDSDJdMg==

> <s_epik_cmdline>
J2VwaWtfcHl0aG9uJywgJy1waCcsICc3LjAnLCAnLXRuJywgJzgnLCAnLW1hJywgJzIwMCcsICctbWV0YWxfYmluZGluZycsICctaW1hZScsICc8aW5maWxlLm1hZT4nLCAnLW9tYWUnLCAnPG91dGZpbGUubWFlPic=

> <r_lp_tautomer_probability>
1

> <r_epik_Ionization_Penalty>
2.01576e-08

> <r_epik_Ionization_Penalty_Charging>
0

> <r_epik_Ionization_Penalty_Neutral>
2.01576e-08

> <r_epik_State_Penalty>
-0

> <r_epik_Charging_Adjusted_Penalty>
0

> <i_epik_Tot_Q>
0

> <i_epik_Tot_abs_Q>
0

> <r_epik_Metal_State_Penalty>
-0

> <b_epik_Metal_Only>
0

> <s_lp_Force_Field>
OPLS_2005

> <r_lp_Energy>
45.5395

> <b_lp_Chiralities_Consistent>
1

> <s_lp_Variant>
AV-unprocessed.smi:1686-2

> <Gold.Version>
5.8.1

> <Gold.Id.Protein>
6NUR|6NUR_protein|mol2

> <Gold.PLP.Fitness>
40.7335

> <Gold.PLP.PLP>
-35.8524

> <Gold.PLP.part.hbond>
-2.0000

> <Gold.PLP.part.metal>
0.0000

> <Gold.PLP.part.buried>
-3.5865

> <Gold.PLP.part.nonpolar>
-31.0085

> <Gold.PLP.part.repulsive>
0.0658

> <Gold.PLP.ligand.clash>
0.0000

> <Gold.PLP.ligand.torsion>
0.5665

> <Gold.PLP.Chemscore.Hbond>
2.0000

> <Gold.PLP.Chemscore.CHOScore>
0.0000

> <Gold.PLP.Chemscore.Metal>
0.0000

> <Gold.Chemscore.Hbonds>
donor molecule, donor type, donor heavy atom, donor atom, acceptor molecule, acceptor atom, score
      L1  H    11    26       P1  7948  1.00
      P1  H  6896  6909       L1     3  0.98

> <Gold.PLP.Chemscore.Internal.Correction>
0.0140

> <Gold.Rescore>
     Score         DG    S(hbond)    S(metal)    S(lipo)     H(rot)  DE(clash)    DE(int)     intcor
     18.78     -19.56       1.87        0.00      99.13       1.46       0.00       0.77       ----

> <Gold.Chemscore.Fitness>
18.7843

> <Gold.Chemscore.DG>
-19.5580

> <Gold.Chemscore.ZeroCoef>
-5.4800

> <Gold.Chemscore.Hbond>
1.8653

> <Gold.Chemscore.Metal>
0.0000

> <Gold.Chemscore.Lipo>
99.1266

> <Gold.Chemscore.Internal_Hbond>
0.0000

> <Gold.Chemscore.DEClash>
0.0015

> <Gold.Chemscore.DEInternal>
0.7722

> <Gold.Chemscore.Rot>
1.4648

> <Gold.Chemscore.Internal.Correction>
   9.000000E+99

> <Gold.Chemscore.Hbonds>
donor molecule, donor type, donor heavy atom, donor atom, acceptor molecule, acceptor atom, score
      L1  H    11    26       P1  7948  0.65
      P1  H  6896  6909       L1     3  0.68

> <Gold.Chemscore.Hbond.Weighted>
-6.2301

> <Gold.Chemscore.Metal.Weighted>
-0.0000

> <Gold.Chemscore.Lipo.Weighted>
-11.5978

> <Gold.Chemscore.Internal_Hbond.Weighted>
0.0000

> <Gold.Chemscore.DEClash.Weighted>
0.0015

> <Gold.Chemscore.DEInternal.Weighted>
0.7722

> <Gold.Chemscore.Rot.Weighted>
3.7500

> <Gold.Chemscore.Internal.Correction.Weighted>
   9.000000E+99

> <Gold.Protein.RotatedTorsions>
[ 6907 6896 6895 6894 ] final  -28.54 input  -60.11 | X-H torsion
[ 7974 7965 7964 7962 ] final -104.66 input  175.53 | X-H torsion
[ 8008 7997 7996 7995 ] final   33.88 input   59.86 | X-H torsion
[ 10167 10162 10161 10158 ] final   81.73 input  -65.29 | X-H torsion
[ 10718 10713 10712 10709 ] final  -26.51 input   66.30 | X-H torsion
[ 10763 10752 10751 10750 ] final -158.81 input  -60.55 | X-H torsion
[ 11005 11000 10999 10996 ] final  174.30 input  -57.11 | X-H torsion

> <Gold.Protein.ActiveResidues>
 VAL166  LYS551  ARG553  GLY616  TRP617  ASP618  TYR619  PRO620  LYS621  CYS622 
 ASP623  PHE694  ASN695  SER759  ASP760  ASP761  ALA762  ILE779  LEU786  VAL792 
 PHE793  MET794  SER795  GLU796  ALA797  LYS798  CYS799  TRP800  GLU811  SER814 

> <Gold.Protein.RotatedAtoms>
  151.1316  135.0133  159.8584 H   0  0  0  0  0  0  0  0  0  0  0  0  # atno 6907 bound_to 6896
  152.5451  134.1604  159.8565 H   0  0  0  0  0  0  0  0  0  0  0  0  # atno 6908 bound_to 6896
  151.1671  133.4762  159.2627 H   0  0  0  0  0  0  0  0  0  0  0  0  # atno 6909 bound_to 6896
  145.2403  140.9203  143.3153 H   0  0  0  0  0  0  0  0  0  0  0  0  # atno 7974 bound_to 7965
  155.1458  140.3270  155.4442 H   0  0  0  0  0  0  0  0  0  0  0  0  # atno 8008 bound_to 7997
  156.2590  140.1985  156.6521 H   0  0  0  0  0  0  0  0  0  0  0  0  # atno 8009 bound_to 7997
  154.6509  140.0558  156.9941 H   0  0  0  0  0  0  0  0  0  0  0  0  # atno 8010 bound_to 7997
  139.9362  144.6119  150.8296 H   0  0  0  0  0  0  0  0  0  0  0  0  # atno 10167 bound_to 10162
  156.4502  130.4482  149.6994 H   0  0  0  0  0  0  0  0  0  0  0  0  # atno 10718 bound_to 10713
  154.7527  135.3096  154.8528 H   0  0  0  0  0  0  0  0  0  0  0  0  # atno 10763 bound_to 10752
  153.9311  135.6785  153.4749 H   0  0  0  0  0  0  0  0  0  0  0  0  # atno 10764 bound_to 10752
  153.1123  135.4861  154.8985 H   0  0  0  0  0  0  0  0  0  0  0  0  # atno 10765 bound_to 10752
  140.3499  134.7204  157.4260 H   0  0  0  0  0  0  0  0  0  0  0  0  # atno 11005 bound_to 11000
  144.9595  139.3995  143.6363 LP  0  0  0  0  0  0  0  0  0  0  0  0  # atno 17320 bound_to 7965
  146.3330  139.8641  142.8851 LP  0  0  0  0  0  0  0  0  0  0  0  0  # atno 17321 bound_to 7965
  140.7624  143.3196  151.2652 LP  0  0  0  0  0  0  0  0  0  0  0  0  # atno 17342 bound_to 10162
  139.6741  143.9968  152.2771 LP  0  0  0  0  0  0  0  0  0  0  0  0  # atno 17343 bound_to 10162
  156.3824  130.7585  151.2579 LP  0  0  0  0  0  0  0  0  0  0  0  0  # atno 17370 bound_to 10713
  157.7503  131.0292  150.4081 LP  0  0  0  0  0  0  0  0  0  0  0  0  # atno 17371 bound_to 10713
  140.0712  134.5860  155.8640 LP  0  0  0  0  0  0  0  0  0  0  0  0  # atno 17394 bound_to 11000
  141.2015  133.6619  156.5954 LP  0  0  0  0  0  0  0  0  0  0  0  0  # atno 17395 bound_to 11000

$$$$
