AV-unprocessed.smi:767|AV-procd|sdf|3671|dock3
  -GOLD-   22720 1 83D 1   1.00000     0.00000
 Structure written by MMmdl.
 48 50  0  0  0  0  0  0  0  0  2 V2000
  145.9410  129.7558  151.6611 C   0  0  0  0  0  0  0  0  0  0  0  0
  145.6842  131.2232  151.3900 C   0  0  0  0  0  0  0  0  0  0  0  0
  144.3826  131.7684  151.3913 C   0  0  0  0  0  0  0  0  0  0  0  0
  144.2106  133.1431  151.1275 C   0  0  0  0  0  0  0  0  0  0  0  0
  145.3432  133.9443  150.8639 C   0  0  0  0  0  0  0  0  0  0  0  0
  145.1933  135.4260  150.5619 C   0  0  0  0  0  0  0  0  0  0  0  0
  145.0335  136.3100  151.8177 C   0  0  0  0  0  0  0  0  0  0  0  0
  146.2999  136.7952  152.3609 N   0  0  0  0  0  0  0  0  0  0  0  0
  146.4343  137.5566  153.4553 C   0  0  0  0  0  0  0  0  0  0  0  0
  145.4935  137.9380  154.1513 O   0  0  0  0  0  0  0  0  0  0  0  0
  147.7190  137.8300  153.7155 N   0  0  0  0  0  0  0  0  0  0  0  0
  148.1829  138.5908  154.8801 C   0  0  2  0  0  0  0  0  0  0  0  0
  147.7271  140.0520  154.8546 C   0  0  2  0  0  0  0  0  0  0  0  0
  146.6832  140.8306  154.1391 C   0  0  0  0  0  0  0  0  0  0  0  0
  147.5511  142.0820  153.8345 C   0  0  0  0  0  0  0  0  0  0  0  0
  148.9142  141.7156  154.1722 O   0  0  0  0  0  0  0  0  0  0  0  0
  148.9443  140.3139  153.9920 C   0  0  1  0  0  0  0  0  0  0  0  0
  149.6468  139.1760  154.7660 C   0  0  0  0  0  0  0  0  0  0  0  0
  150.3587  139.5512  156.0782 C   0  0  0  0  0  0  0  0  0  0  0  0
  150.6633  138.3632  153.9563 C   0  0  0  0  0  0  0  0  0  0  0  0
  146.6209  133.3442  150.8783 C   0  0  0  0  0  0  0  0  0  0  0  0
  146.7434  132.0238  151.1356 N   0  3  0  0  0  0  0  0  0  0  0  0
  145.2010  129.3580  152.3563 H   0  0  0  0  0  0  0  0  0  0  0  0
  146.9295  129.6045  152.0963 H   0  0  0  0  0  0  0  0  0  0  0  0
  145.8818  129.1854  150.7338 H   0  0  0  0  0  0  0  0  0  0  0  0
  143.5253  131.1419  151.5913 H   0  0  0  0  0  0  0  0  0  0  0  0
  143.2205  133.5749  151.1227 H   0  0  0  0  0  0  0  0  0  0  0  0
  146.0595  135.7575  149.9881 H   0  0  0  0  0  0  0  0  0  0  0  0
  144.3331  135.5663  149.9061 H   0  0  0  0  0  0  0  0  0  0  0  0
  144.4423  137.1898  151.5628 H   0  0  0  0  0  0  0  0  0  0  0  0
  144.4741  135.7783  152.5888 H   0  0  0  0  0  0  0  0  0  0  0  0
  147.1371  136.5349  151.8600 H   0  0  0  0  0  0  0  0  0  0  0  0
  148.4248  137.4789  153.0850 H   0  0  0  0  0  0  0  0  0  0  0  0
  147.9838  138.1042  155.8366 H   0  0  0  0  0  0  0  0  0  0  0  0
  147.8293  140.4579  155.8641 H   0  0  0  0  0  0  0  0  0  0  0  0
  146.3472  140.3334  153.2281 H   0  0  0  0  0  0  0  0  0  0  0  0
  145.8193  141.0596  154.7635 H   0  0  0  0  0  0  0  0  0  0  0  0
  147.4798  142.3566  152.7812 H   0  0  0  0  0  0  0  0  0  0  0  0
  147.2471  142.9432  154.4301 H   0  0  0  0  0  0  0  0  0  0  0  0
  148.8042  140.0649  152.9350 H   0  0  0  0  0  0  0  0  0  0  0  0
  151.2197  140.1933  155.8907 H   0  0  0  0  0  0  0  0  0  0  0  0
  150.7218  138.6638  156.5973 H   0  0  0  0  0  0  0  0  0  0  0  0
  149.7211  140.0818  156.7831 H   0  0  0  0  0  0  0  0  0  0  0  0
  151.6138  138.8889  153.8588 H   0  0  0  0  0  0  0  0  0  0  0  0
  150.3118  138.1645  152.9439 H   0  0  0  0  0  0  0  0  0  0  0  0
  150.8653  137.3995  154.4250 H   0  0  0  0  0  0  0  0  0  0  0  0
  147.5419  133.8746  150.6846 H   0  0  0  0  0  0  0  0  0  0  0  0
  147.6773  131.6128  151.1372 H   0  0  0  0  0  0  0  0  0  0  0  0
  1  2  1  0  0  0  0
  1 23  1  0  0  0  0
  1 24  1  0  0  0  0
  1 25  1  0  0  0  0
  2 22  1  0  0  0  0
  2  3  2  0  0  0  0
  3  4  1  0  0  0  0
  3 26  1  0  0  0  0
  4  5  2  0  0  0  0
  4 27  1  0  0  0  0
  5  6  1  0  0  0  0
  5 21  1  0  0  0  0
  6  7  1  0  0  0  0
  6 28  1  0  0  0  0
  6 29  1  0  0  0  0
  7  8  1  0  0  0  0
  7 30  1  0  0  0  0
  7 31  1  0  0  0  0
  8  9  1  0  0  0  0
  8 32  1  0  0  0  0
  9 10  2  0  0  0  0
  9 11  1  0  0  0  0
 11 12  1  0  0  0  0
 11 33  1  0  0  0  0
 12 18  1  0  0  0  0
 12 13  1  0  0  0  0
 12 34  1  0  0  0  0
 13 17  1  0  0  0  0
 13 14  1  0  0  0  0
 13 35  1  0  0  0  0
 14 15  1  0  0  0  0
 14 36  1  0  0  0  0
 14 37  1  0  0  0  0
 15 16  1  0  0  0  0
 15 38  1  0  0  0  0
 15 39  1  0  0  0  0
 16 17  1  0  0  0  0
 17 18  1  0  0  0  0
 17 40  1  0  0  0  0
 18 19  1  0  0  0  0
 18 20  1  0  0  0  0
 19 41  1  0  0  0  0
 19 42  1  0  0  0  0
 19 43  1  0  0  0  0
 20 44  1  0  0  0  0
 20 45  1  0  0  0  0
 20 46  1  0  0  0  0
 21 22  2  0  0  0  0
 21 47  1  0  0  0  0
 22 48  1  0  0  0  0
M  CHG  1  22   1
M  END
> <s_m_source_file>
AV-unprocessed.smi

> <i_m_source_file_index>
767

> <i_lp_mmshare_version>
43012

> <i_f3d_flags>
0

> <s_epik_input>
W0NIM11jMVtjSF1bY0hdYyhbY0hdbjEpW0NIMl1bQ0gyXVtOSF1DKD1PKVtOSF1bQ0BIXTJDKFtDSDNdKShbQ0gzXSlbQ0BIXShbQ0BASF0yMylPW0NIMl1bQ0gyXTM=

> <s_epik_cmdline>
J2VwaWtfcHl0aG9uJywgJy1waCcsICc3LjAnLCAnLXRuJywgJzgnLCAnLW1hJywgJzIwMCcsICctbWV0YWxfYmluZGluZycsICctaW1hZScsICc8aW5maWxlLm1hZT4nLCAnLW9tYWUnLCAnPG91dGZpbGUubWFlPic=

> <r_epik_Ionization_Penalty>
1.41853

> <r_epik_Ionization_Penalty_Charging>
1.41848

> <r_epik_Ionization_Penalty_Neutral>
5.17407e-05

> <r_epik_State_Penalty>
1.50205

> <r_epik_Charging_Adjusted_Penalty>
2.92053

> <i_epik_Tot_Q>
1

> <i_epik_Tot_abs_Q>
1

> <r_epik_Metal_State_Penalty>
1.5544

> <b_epik_Metal_Only>
0

> <s_lp_Force_Field>
OPLS_2005

> <r_lp_Energy>
65.9861

> <b_lp_Chiralities_Consistent>
1

> <s_lp_Variant>
AV-unprocessed.smi:767-15

> <Gold.Version>
5.8.1

> <Gold.Id.Protein>
6NUR|6NUR_protein|mol2

> <Gold.PLP.Fitness>
47.6585

> <Gold.PLP.PLP>
-38.5708

> <Gold.PLP.part.hbond>
-4.0000

> <Gold.PLP.part.metal>
0.0000

> <Gold.PLP.part.buried>
-4.2476

> <Gold.PLP.part.nonpolar>
-30.1136

> <Gold.PLP.part.repulsive>
0.3945

> <Gold.PLP.ligand.clash>
0.0000

> <Gold.PLP.ligand.torsion>
0.6330

> <Gold.PLP.Chemscore.Hbond>
3.3602

> <Gold.PLP.Chemscore.CHOScore>
0.0000

> <Gold.PLP.Chemscore.Metal>
0.0000

> <Gold.Chemscore.Hbonds>
donor molecule, donor type, donor heavy atom, donor atom, acceptor molecule, acceptor atom, score
      L1  H     8    32       P1  7948  1.00
      L1  H    11    33       P1  7948  1.00
      L1  H    22    48       P1 10747  0.99
      P1  H  8011  8017       L1    16  0.30

> <Gold.PLP.Chemscore.Internal.Correction>
0.2732

> <Gold.Rescore>
     Score         DG    S(hbond)    S(metal)    S(lipo)     H(rot)  DE(clash)    DE(int)     intcor
     23.00     -23.79       2.92        0.00     106.59       1.52       0.19       0.60       ----

> <Gold.Chemscore.Fitness>
23.0039

> <Gold.Chemscore.DG>
-23.7928

> <Gold.Chemscore.ZeroCoef>
-5.4800

> <Gold.Chemscore.Hbond>
2.9164

> <Gold.Chemscore.Metal>
0.0000

> <Gold.Chemscore.Lipo>
106.5933

> <Gold.Chemscore.Internal_Hbond>
0.0000

> <Gold.Chemscore.DEClash>
0.1897

> <Gold.Chemscore.DEInternal>
0.5992

> <Gold.Chemscore.Rot>
1.5233

> <Gold.Chemscore.Internal.Correction>
   9.000000E+99

> <Gold.Chemscore.Hbonds>
donor molecule, donor type, donor heavy atom, donor atom, acceptor molecule, acceptor atom, score
      L1  H     8    32       P1  7948  0.95
      L1  H    11    33       P1  7948  0.94
      L1  H    22    48       P1 10747  0.93
      P1  H  8011  8017       L1    16  0.02

> <Gold.Chemscore.Hbond.Weighted>
-9.7409

> <Gold.Chemscore.Metal.Weighted>
-0.0000

> <Gold.Chemscore.Lipo.Weighted>
-12.4714

> <Gold.Chemscore.Internal_Hbond.Weighted>
0.0000

> <Gold.Chemscore.DEClash.Weighted>
0.1897

> <Gold.Chemscore.DEInternal.Weighted>
0.5992

> <Gold.Chemscore.Rot.Weighted>
3.8995

> <Gold.Chemscore.Internal.Correction.Weighted>
   9.000000E+99

> <Gold.Protein.RotatedTorsions>
[ 6907 6896 6895 6894 ] final  -13.74 input  -60.11 | X-H torsion
[ 7974 7965 7964 7962 ] final  154.87 input  175.53 | X-H torsion
[ 8008 7997 7996 7995 ] final  179.37 input   59.86 | X-H torsion
[ 10167 10162 10161 10158 ] final -160.21 input  -65.29 | X-H torsion
[ 10718 10713 10712 10709 ] final    2.71 input   66.30 | X-H torsion
[ 10763 10752 10751 10750 ] final -166.69 input  -60.55 | X-H torsion
[ 11005 11000 10999 10996 ] final  171.13 input  -57.11 | X-H torsion

> <Gold.Protein.ActiveResidues>
 VAL166  LYS551  ARG553  GLY616  TRP617  ASP618  TYR619  PRO620  LYS621  CYS622 
 ASP623  PHE694  ASN695  SER759  ASP760  ASP761  ALA762  ILE779  LEU786  VAL792 
 PHE793  MET794  SER795  GLU796  ALA797  LYS798  CYS799  TRP800  GLU811  SER814 

> <Gold.Protein.RotatedAtoms>
  151.3501  135.0882  159.9399 H   0  0  0  0  0  0  0  0  0  0  0  0  # atno 6907 bound_to 6896
  152.5189  133.9360  159.7614 H   0  0  0  0  0  0  0  0  0  0  0  0  # atno 6908 bound_to 6896
  150.9734  133.6266  159.2763 H   0  0  0  0  0  0  0  0  0  0  0  0  # atno 6909 bound_to 6896
  144.8061  139.6992  143.6161 H   0  0  0  0  0  0  0  0  0  0  0  0  # atno 7974 bound_to 7965
  156.0441  140.1310  157.0123 H   0  0  0  0  0  0  0  0  0  0  0  0  # atno 8008 bound_to 7997
  154.4404  140.1024  156.6350 H   0  0  0  0  0  0  0  0  0  0  0  0  # atno 8009 bound_to 7997
  155.5622  140.3465  155.4496 H   0  0  0  0  0  0  0  0  0  0  0  0  # atno 8010 bound_to 7997
  139.6557  144.0004  152.2192 H   0  0  0  0  0  0  0  0  0  0  0  0  # atno 10167 bound_to 10162
  156.8671  130.5607  149.5659 H   0  0  0  0  0  0  0  0  0  0  0  0  # atno 10718 bound_to 10713
  154.6808  135.2954  154.9615 H   0  0  0  0  0  0  0  0  0  0  0  0  # atno 10763 bound_to 10752
  154.0611  135.6631  153.4816 H   0  0  0  0  0  0  0  0  0  0  0  0  # atno 10764 bound_to 10752
  153.0546  135.5152  154.7850 H   0  0  0  0  0  0  0  0  0  0  0  0  # atno 10765 bound_to 10752
  140.3157  134.7480  157.4025 H   0  0  0  0  0  0  0  0  0  0  0  0  # atno 11005 bound_to 11000
  146.2352  139.5891  142.9528 LP  0  0  0  0  0  0  0  0  0  0  0  0  # atno 17320 bound_to 7965
  145.5436  141.0419  143.2317 LP  0  0  0  0  0  0  0  0  0  0  0  0  # atno 17321 bound_to 7965
  139.9729  144.6481  150.7972 LP  0  0  0  0  0  0  0  0  0  0  0  0  # atno 17342 bound_to 10162
  140.7558  143.3053  151.2978 LP  0  0  0  0  0  0  0  0  0  0  0  0  # atno 17343 bound_to 10162
  156.0746  130.5771  150.9449 LP  0  0  0  0  0  0  0  0  0  0  0  0  # atno 17370 bound_to 10713
  157.6217  131.0929  150.8610 LP  0  0  0  0  0  0  0  0  0  0  0  0  # atno 17371 bound_to 10713
  140.0986  134.5504  155.8375 LP  0  0  0  0  0  0  0  0  0  0  0  0  # atno 17394 bound_to 11000
  141.2098  133.6688  156.6465 LP  0  0  0  0  0  0  0  0  0  0  0  0  # atno 17395 bound_to 11000

$$$$
