AV-unprocessed.smi:703|AV-procd|sdf|3427|dock8
  -GOLD-   22720 0413D 1   1.00000     0.00000
 Structure written by MMmdl.
 38 39  0  0  0  0  0  0  0  0  2 V2000
  146.5711  132.0764  152.1581 C   0  0  0  0  0  0  0  0  0  0  0  0
  147.0471  133.5336  152.0886 C   0  0  0  0  0  0  0  0  0  0  0  0
  147.8018  133.9347  153.2989 N   0  3  2  0  0  0  0  0  0  0  0  0
  148.9045  133.0313  153.6826 C   0  0  0  0  0  0  0  0  0  0  0  0
  149.2187  133.3839  155.1384 C   0  0  1  0  0  0  0  0  0  0  0  0
  150.2325  134.5453  155.2094 C   0  0  0  0  0  0  0  0  0  0  0  0
  147.8198  133.6945  155.7115 C   0  0  1  0  0  0  0  0  0  0  0  0
  147.8549  134.7175  156.7641 N   0  0  0  0  0  0  0  0  0  0  0  0
  148.6996  134.3727  158.2294 S   0  0  0  0  0  0  0  0  0  0  0  0
  149.4177  133.1037  158.0368 O   0  0  0  0  0  0  0  0  0  0  0  0
  149.4395  135.5838  158.6160 O   0  0  0  0  0  0  0  0  0  0  0  0
  147.3272  134.1138  159.4309 C   0  0  0  0  0  0  0  0  0  0  0  0
  147.3726  135.1832  160.4846 C   0  0  0  0  0  0  0  0  0  0  0  0
  147.3051  135.0348  161.8976 C   0  0  0  0  0  0  0  0  0  0  0  0
  147.3893  136.3175  162.3571 C   0  0  0  0  0  0  0  0  0  0  0  0
  147.4962  137.1870  161.3208 O   0  0  0  0  0  0  0  0  0  0  0  0
  147.4831  136.4534  160.1291 N   0  0  0  0  0  0  0  0  0  0  0  0
  146.9644  134.1219  154.5031 C   0  0  0  0  0  0  0  0  0  0  0  0
  146.0753  131.7889  151.2308 H   0  0  0  0  0  0  0  0  0  0  0  0
  145.8592  131.9230  152.9693 H   0  0  0  0  0  0  0  0  0  0  0  0
  147.4081  131.3945  152.3104 H   0  0  0  0  0  0  0  0  0  0  0  0
  147.6980  133.6461  151.2205 H   0  0  0  0  0  0  0  0  0  0  0  0
  146.2004  134.2042  151.9355 H   0  0  0  0  0  0  0  0  0  0  0  0
  148.5635  131.9962  153.6230 H   0  0  0  0  0  0  0  0  0  0  0  0
  149.7678  133.1357  153.0245 H   0  0  0  0  0  0  0  0  0  0  0  0
  149.6542  132.5230  155.6479 H   0  0  0  0  0  0  0  0  0  0  0  0
  149.8418  135.4516  154.7451 H   0  0  0  0  0  0  0  0  0  0  0  0
  151.1590  134.2847  154.6973 H   0  0  0  0  0  0  0  0  0  0  0  0
  150.4955  134.7827  156.2406 H   0  0  0  0  0  0  0  0  0  0  0  0
  147.4071  132.7738  156.1266 H   0  0  0  0  0  0  0  0  0  0  0  0
  146.9218  135.0806  156.9577 H   0  0  0  0  0  0  0  0  0  0  0  0
  146.3833  134.1286  158.8847 H   0  0  0  0  0  0  0  0  0  0  0  0
  147.4393  133.1254  159.8759 H   0  0  0  0  0  0  0  0  0  0  0  0
  147.2133  134.1309  162.4814 H   0  0  0  0  0  0  0  0  0  0  0  0
  147.3866  136.7538  163.3452 H   0  0  0  0  0  0  0  0  0  0  0  0
  146.6499  135.1648  154.5522 H   0  0  0  0  0  0  0  0  0  0  0  0
  146.0629  133.5088  154.4552 H   0  0  0  0  0  0  0  0  0  0  0  0
  148.2222  134.8335  153.1107 H   0  0  0  0  0  0  0  0  0  0  0  0
  1  2  1  0  0  0  0
  1 19  1  0  0  0  0
  1 20  1  0  0  0  0
  1 21  1  0  0  0  0
  2  3  1  0  0  0  0
  2 22  1  0  0  0  0
  2 23  1  0  0  0  0
  3 18  1  0  0  0  0
  3  4  1  0  0  0  0
  3 38  1  0  0  0  0
  4  5  1  0  0  0  0
  4 24  1  0  0  0  0
  4 25  1  0  0  0  0
  5  6  1  0  0  0  0
  5  7  1  0  0  0  0
  5 26  1  0  0  0  0
  6 27  1  0  0  0  0
  6 28  1  0  0  0  0
  6 29  1  0  0  0  0
  7  8  1  0  0  0  0
  7 18  1  0  0  0  0
  7 30  1  0  0  0  0
  8  9  1  0  0  0  0
  8 31  1  0  0  0  0
  9 10  2  0  0  0  0
  9 11  2  0  0  0  0
  9 12  1  0  0  0  0
 12 13  1  0  0  0  0
 12 32  1  0  0  0  0
 12 33  1  0  0  0  0
 13 17  2  0  0  0  0
 13 14  1  0  0  0  0
 14 15  2  0  0  0  0
 14 34  1  0  0  0  0
 15 16  1  0  0  0  0
 15 35  1  0  0  0  0
 16 17  1  0  0  0  0
 18 36  1  0  0  0  0
 18 37  1  0  0  0  0
M  CHG  1   3   1
M  END
> <s_m_source_file>
AV-unprocessed.smi

> <i_m_source_file_index>
703

> <i_lp_mmshare_version>
43012

> <i_f3d_flags>
0

> <s_epik_input>
W0NIM11bQ0gyXU4xW0NIMl1bQ0BASF0oW0NIM10pW0NASF0oW0NIMl0xKVtOSF1TKD1PKSg9TylbQ0gyXWMyW2NIXVtjSF1vbjI=

> <s_epik_cmdline>
J2VwaWtfcHl0aG9uJywgJy1waCcsICc3LjAnLCAnLXRuJywgJzgnLCAnLW1hJywgJzIwMCcsICctbWV0YWxfYmluZGluZycsICctaW1hZScsICc8aW5maWxlLm1hZT4nLCAnLW9tYWUnLCAnPG91dGZpbGUubWFlPic=

> <r_epik_Ionization_Penalty>
0.00324529

> <r_epik_Ionization_Penalty_Charging>
0.0019384

> <r_epik_Ionization_Penalty_Neutral>
0.00130689

> <r_epik_State_Penalty>
0.00218682

> <r_epik_Charging_Adjusted_Penalty>
0.00412522

> <i_epik_Tot_Q>
1

> <i_epik_Tot_abs_Q>
1

> <r_epik_Metal_State_Penalty>
0.310831

> <b_epik_Metal_Only>
0

> <s_lp_Force_Field>
OPLS_2005

> <r_lp_Energy>
22.9594

> <b_lp_Chiralities_Consistent>
1

> <s_lp_Variant>
AV-unprocessed.smi:703-2

> <Gold.Version>
5.8.1

> <Gold.Id.Protein>
6NUR|6NUR_protein|mol2

> <Gold.PLP.Fitness>
41.9697

> <Gold.PLP.PLP>
-27.7356

> <Gold.PLP.part.hbond>
-5.0000

> <Gold.PLP.part.metal>
0.0000

> <Gold.PLP.part.buried>
-2.9431

> <Gold.PLP.part.nonpolar>
-20.1710

> <Gold.PLP.part.repulsive>
0.0000

> <Gold.PLP.ligand.clash>
0.0000

> <Gold.PLP.ligand.torsion>
0.4864

> <Gold.PLP.Chemscore.Hbond>
5.0190

> <Gold.PLP.Chemscore.CHOScore>
0.0000

> <Gold.PLP.Chemscore.Metal>
0.0000

> <Gold.Chemscore.Hbonds>
donor molecule, donor type, donor heavy atom, donor atom, acceptor molecule, acceptor atom, score
      L1  H     3    38       P1  7948  2.00
      P1  H  6896  6908       L1    10  0.06
      P1  H  6896  6909       L1    11  1.00
      P1  H  6931  6943       L1    16  0.91
      P1  H  6934  6947       L1    16  0.91

> <Gold.PLP.Chemscore.Internal.Correction>
0.1499

> <Gold.Rescore>
     Score         DG    S(hbond)    S(metal)    S(lipo)     H(rot)  DE(clash)    DE(int)     intcor
     14.32     -17.58       3.16        0.00      55.60       1.94       0.00       3.26       ----

> <Gold.Chemscore.Fitness>
14.3161

> <Gold.Chemscore.DG>
-17.5814

> <Gold.Chemscore.ZeroCoef>
-5.4800

> <Gold.Chemscore.Hbond>
3.1623

> <Gold.Chemscore.Metal>
0.0000

> <Gold.Chemscore.Lipo>
55.6047

> <Gold.Chemscore.Internal_Hbond>
0.0000

> <Gold.Chemscore.DEClash>
0.0048

> <Gold.Chemscore.DEInternal>
3.2605

> <Gold.Chemscore.Rot>
1.9400

> <Gold.Chemscore.Internal.Correction>
   9.000000E+99

> <Gold.Chemscore.Hbonds>
donor molecule, donor type, donor heavy atom, donor atom, acceptor molecule, acceptor atom, score
      L1  H     3    38       P1  7948  0.76
      P1  H  6896  6908       L1    10  0.03
      P1  H  6896  6909       L1    11  0.29
      P1  H  6931  6943       L1    16  0.26
      P1  H  6934  6947       L1    16  0.67

> <Gold.Chemscore.Hbond.Weighted>
-10.5622

> <Gold.Chemscore.Metal.Weighted>
-0.0000

> <Gold.Chemscore.Lipo.Weighted>
-6.5057

> <Gold.Chemscore.Internal_Hbond.Weighted>
0.0000

> <Gold.Chemscore.DEClash.Weighted>
0.0048

> <Gold.Chemscore.DEInternal.Weighted>
3.2605

> <Gold.Chemscore.Rot.Weighted>
4.9665

> <Gold.Chemscore.Internal.Correction.Weighted>
   9.000000E+99

> <Gold.Protein.RotatedTorsions>
[ 6907 6896 6895 6894 ] final   70.28 input  -60.11 | X-H torsion
[ 7974 7965 7964 7962 ] final  -69.48 input  175.53 | X-H torsion
[ 8008 7997 7996 7995 ] final  118.91 input   59.86 | X-H torsion
[ 10167 10162 10161 10158 ] final  -78.09 input  -65.29 | X-H torsion
[ 10718 10713 10712 10709 ] final    3.22 input   66.30 | X-H torsion
[ 10763 10752 10751 10750 ] final -126.53 input  -60.55 | X-H torsion
[ 11005 11000 10999 10996 ] final   19.11 input  -57.11 | X-H torsion

> <Gold.Protein.ActiveResidues>
 VAL166  LYS551  ARG553  GLY616  TRP617  ASP618  TYR619  PRO620  LYS621  CYS622 
 ASP623  PHE694  ASN695  SER759  ASP760  ASP761  ALA762  ILE779  LEU786  VAL792 
 PHE793  MET794  SER795  GLU796  ALA797  LYS798  CYS799  TRP800  GLU811  SER814 

> <Gold.Protein.RotatedAtoms>
  152.4739  134.4892  159.9689 H   0  0  0  0  0  0  0  0  0  0  0  0  # atno 6907 bound_to 6896
  151.4913  133.3518  159.2861 H   0  0  0  0  0  0  0  0  0  0  0  0  # atno 6908 bound_to 6896
  150.8766  134.8176  159.7255 H   0  0  0  0  0  0  0  0  0  0  0  0  # atno 6909 bound_to 6896
  145.7032  140.9108  143.0720 H   0  0  0  0  0  0  0  0  0  0  0  0  # atno 7974 bound_to 7965
  156.2570  140.2864  156.0908 H   0  0  0  0  0  0  0  0  0  0  0  0  # atno 8008 bound_to 7997
  155.1465  140.0396  157.2828 H   0  0  0  0  0  0  0  0  0  0  0  0  # atno 8009 bound_to 7997
  154.6492  140.2540  155.7239 H   0  0  0  0  0  0  0  0  0  0  0  0  # atno 8010 bound_to 7997
  140.4713  143.2426  151.8200 H   0  0  0  0  0  0  0  0  0  0  0  0  # atno 10167 bound_to 10162
  156.8746  130.5632  149.5655 H   0  0  0  0  0  0  0  0  0  0  0  0  # atno 10718 bound_to 10713
  154.8746  135.3992  154.3446 H   0  0  0  0  0  0  0  0  0  0  0  0  # atno 10763 bound_to 10752
  153.4240  135.7024  153.6280 H   0  0  0  0  0  0  0  0  0  0  0  0  # atno 10764 bound_to 10752
  153.4930  135.3744  155.2471 H   0  0  0  0  0  0  0  0  0  0  0  0  # atno 10765 bound_to 10752
  140.4173  134.1555  155.7670 H   0  0  0  0  0  0  0  0  0  0  0  0  # atno 11005 bound_to 11000
  144.6963  139.8975  143.7456 LP  0  0  0  0  0  0  0  0  0  0  0  0  # atno 17320 bound_to 7965
  146.0779  139.3767  143.0482 LP  0  0  0  0  0  0  0  0  0  0  0  0  # atno 17321 bound_to 7965
  139.4819  144.4888  151.9212 LP  0  0  0  0  0  0  0  0  0  0  0  0  # atno 17342 bound_to 10162
  140.3973  144.2538  150.5895 LP  0  0  0  0  0  0  0  0  0  0  0  0  # atno 17343 bound_to 10162
  156.0708  130.5742  150.9380 LP  0  0  0  0  0  0  0  0  0  0  0  0  # atno 17370 bound_to 10713
  157.6176  131.0932  150.8682 LP  0  0  0  0  0  0  0  0  0  0  0  0  # atno 17371 bound_to 10713
  141.1798  133.8438  157.1298 LP  0  0  0  0  0  0  0  0  0  0  0  0  # atno 17394 bound_to 11000
  140.0225  134.9939  157.0619 LP  0  0  0  0  0  0  0  0  0  0  0  0  # atno 17395 bound_to 11000

$$$$
