AV-unprocessed.smi:1580|AV-procd|sdf|6359|dock4
  -GOLD-   22720 6583D 1   1.00000     0.00000
 Structure written by MMmdl.
 37 38  0  0  0  0  0  0  0  0  1 V2000
  153.7789  136.1100  158.0006 C   0  0  0  0  0  0  0  0  0  0  0  0
  152.5431  137.4427  158.2802 S   0  0  0  0  0  0  0  0  0  0  0  0
  152.0396  137.3096  159.6564 O   0  0  0  0  0  0  0  0  0  0  0  0
  153.1323  138.7180  157.8429 O   0  0  0  0  0  0  0  0  0  0  0  0
  151.2148  137.0344  157.1532 C   0  0  0  0  0  0  0  0  0  0  0  0
  149.8983  136.8765  157.6296 C   0  0  0  0  0  0  0  0  0  0  0  0
  148.8966  136.5165  156.7081 C   0  0  0  0  0  0  0  0  0  0  0  0
  149.2517  136.3219  155.3495 C   0  0  0  0  0  0  0  0  0  0  0  0
  148.3472  135.9548  154.3145 N   0  0  0  0  0  0  0  0  0  0  0  0
  147.1027  135.4537  154.4026 C   0  0  0  0  0  0  0  0  0  0  0  0
  146.5000  135.2068  155.4464 O   0  0  0  0  0  0  0  0  0  0  0  0
  146.5785  135.2520  153.1858 N   0  0  0  0  0  0  0  0  0  0  0  0
  145.2533  134.7001  152.9278 C   0  0  0  0  0  0  0  0  0  0  0  0
  145.1239  134.2000  151.4795 C   0  0  1  0  0  0  0  0  0  0  0  0
  145.9548  132.9526  151.1842 C   0  0  0  0  0  0  0  0  0  0  0  0
  145.1996  132.3531  150.0204 C   0  0  0  0  0  0  0  0  0  0  0  0
  143.7522  132.6262  150.4178 C   0  0  0  0  0  0  0  0  0  0  0  0
  143.7783  133.8194  151.1979 O   0  0  0  0  0  0  0  0  0  0  0  0
  150.6083  136.4880  154.9953 C   0  0  0  0  0  0  0  0  0  0  0  0
  151.5774  136.8310  155.8693 N   0  0  0  0  0  0  0  0  0  0  0  0
  154.6403  136.2722  158.6479 H   0  0  0  0  0  0  0  0  0  0  0  0
  154.0997  136.1244  156.9592 H   0  0  0  0  0  0  0  0  0  0  0  0
  153.3294  135.1439  158.2290 H   0  0  0  0  0  0  0  0  0  0  0  0
  149.6558  137.0251  158.6713 H   0  0  0  0  0  0  0  0  0  0  0  0
  147.8894  136.3927  157.0712 H   0  0  0  0  0  0  0  0  0  0  0  0
  148.6844  136.1188  153.3773 H   0  0  0  0  0  0  0  0  0  0  0  0
  147.1401  135.4808  152.3788 H   0  0  0  0  0  0  0  0  0  0  0  0
  145.0461  133.8887  153.6274 H   0  0  0  0  0  0  0  0  0  0  0  0
  144.5119  135.4745  153.1253 H   0  0  0  0  0  0  0  0  0  0  0  0
  145.4066  134.9843  150.7753 H   0  0  0  0  0  0  0  0  0  0  0  0
  146.9946  133.1806  150.9484 H   0  0  0  0  0  0  0  0  0  0  0  0
  145.9381  132.2663  152.0322 H   0  0  0  0  0  0  0  0  0  0  0  0
  145.4450  132.8858  149.1006 H   0  0  0  0  0  0  0  0  0  0  0  0
  145.4089  131.2937  149.8701 H   0  0  0  0  0  0  0  0  0  0  0  0
  143.0971  132.7294  149.5526 H   0  0  0  0  0  0  0  0  0  0  0  0
  143.3680  131.8160  151.0385 H   0  0  0  0  0  0  0  0  0  0  0  0
  150.9293  136.3401  153.9745 H   0  0  0  0  0  0  0  0  0  0  0  0
  1  2  1  0  0  0  0
  1 21  1  0  0  0  0
  1 22  1  0  0  0  0
  1 23  1  0  0  0  0
  2  3  2  0  0  0  0
  2  4  2  0  0  0  0
  2  5  1  0  0  0  0
  5 20  1  0  0  0  0
  5  6  2  0  0  0  0
  6  7  1  0  0  0  0
  6 24  1  0  0  0  0
  7  8  2  0  0  0  0
  7 25  1  0  0  0  0
  8  9  1  0  0  0  0
  8 19  1  0  0  0  0
  9 10  1  0  0  0  0
  9 26  1  0  0  0  0
 10 11  2  0  0  0  0
 10 12  1  0  0  0  0
 12 13  1  0  0  0  0
 12 27  1  0  0  0  0
 13 14  1  0  0  0  0
 13 28  1  0  0  0  0
 13 29  1  0  0  0  0
 14 18  1  0  0  0  0
 14 15  1  0  0  0  0
 14 30  1  0  0  0  0
 15 16  1  0  0  0  0
 15 31  1  0  0  0  0
 15 32  1  0  0  0  0
 16 17  1  0  0  0  0
 16 33  1  0  0  0  0
 16 34  1  0  0  0  0
 17 18  1  0  0  0  0
 17 35  1  0  0  0  0
 17 36  1  0  0  0  0
 19 20  2  0  0  0  0
 19 37  1  0  0  0  0
M  END
> <s_m_source_file>
AV-unprocessed.smi

> <i_m_source_file_index>
1580

> <i_lp_mmshare_version>
43012

> <i_f3d_flags>
0

> <s_epik_input>
W0NIM11TKD1PKSg9TyljMVtjSF1bY0hdYyhbY0hdbjEpW05IXUMoPU8pW05IXVtDSDJdW0NAQEhdMltDSDJdW0NIMl1bQ0gyXU8y

> <s_epik_cmdline>
J2VwaWtfcHl0aG9uJywgJy1waCcsICc3LjAnLCAnLXRuJywgJzgnLCAnLW1hJywgJzIwMCcsICctbWV0YWxfYmluZGluZycsICctaW1hZScsICc8aW5maWxlLm1hZT4nLCAnLW9tYWUnLCAnPG91dGZpbGUubWFlPic=

> <r_lp_tautomer_probability>
1

> <r_epik_Ionization_Penalty>
3.28405e-05

> <r_epik_Ionization_Penalty_Charging>
0

> <r_epik_Ionization_Penalty_Neutral>
3.28405e-05

> <r_epik_State_Penalty>
-0

> <r_epik_Charging_Adjusted_Penalty>
0

> <i_epik_Tot_Q>
0

> <i_epik_Tot_abs_Q>
0

> <r_epik_Metal_State_Penalty>
-0

> <b_epik_Metal_Only>
0

> <s_lp_Force_Field>
OPLS_2005

> <r_lp_Energy>
18.5383

> <b_lp_Chiralities_Consistent>
1

> <s_lp_Variant>
AV-unprocessed.smi:1580-2

> <Gold.Version>
5.8.1

> <Gold.Id.Protein>
6NUR|6NUR_protein|mol2

> <Gold.PLP.Fitness>
39.8406

> <Gold.PLP.PLP>
-23.0163

> <Gold.PLP.part.hbond>
-5.0000

> <Gold.PLP.part.metal>
0.0000

> <Gold.PLP.part.buried>
-4.9517

> <Gold.PLP.part.nonpolar>
-14.0208

> <Gold.PLP.part.repulsive>
0.2247

> <Gold.PLP.ligand.clash>
0.0000

> <Gold.PLP.ligand.torsion>
1.3030

> <Gold.PLP.Chemscore.Hbond>
4.7977

> <Gold.PLP.Chemscore.CHOScore>
1.0030

> <Gold.PLP.Chemscore.Metal>
0.0000

> <Gold.Chemscore.Hbonds>
donor molecule, donor type, donor heavy atom, donor atom, acceptor molecule, acceptor atom, score
      L1  H     9    26       P1  7948  1.00
      L1  H    12    27       P1  7948  0.86
      P1  H  6896  6908       L1     3  0.57
      P1  H  7997  8010       L1     4  0.78
      P1  H 10752 10763       L1    20  0.41
      L1  C    19    37       P1  7948  0.03
      L1  C    19    37       P1  7949  0.92

> <Gold.PLP.Chemscore.Internal.Correction>
2.0282

> <Gold.Rescore>
     Score         DG    S(hbond)    S(metal)    S(lipo)     H(rot)  DE(clash)    DE(int)     intcor
     18.52     -20.87       3.82        0.00      50.22       1.27       0.00       2.35       ----

> <Gold.Chemscore.Fitness>
18.5201

> <Gold.Chemscore.DG>
-20.8677

> <Gold.Chemscore.ZeroCoef>
-5.4800

> <Gold.Chemscore.Hbond>
3.8234

> <Gold.Chemscore.Metal>
0.0000

> <Gold.Chemscore.Lipo>
50.2150

> <Gold.Chemscore.Internal_Hbond>
0.0000

> <Gold.Chemscore.DEClash>
0.0000

> <Gold.Chemscore.DEInternal>
2.3476

> <Gold.Chemscore.Rot>
1.2725

> <Gold.Chemscore.Internal.Correction>
   9.000000E+99

> <Gold.Chemscore.Hbonds>
donor molecule, donor type, donor heavy atom, donor atom, acceptor molecule, acceptor atom, score
      L1  H     9    26       P1  7948  0.93
      L1  H    12    27       P1  7948  0.81
      P1  H  6896  6908       L1     3  0.34
      P1  H  7997  8010       L1     4  0.77
      P1  H 10752 10763       L1    20  0.08

> <Gold.Chemscore.Hbond.Weighted>
-12.7701

> <Gold.Chemscore.Metal.Weighted>
-0.0000

> <Gold.Chemscore.Lipo.Weighted>
-5.8752

> <Gold.Chemscore.Internal_Hbond.Weighted>
0.0000

> <Gold.Chemscore.DEClash.Weighted>
0.0000

> <Gold.Chemscore.DEInternal.Weighted>
2.3476

> <Gold.Chemscore.Rot.Weighted>
3.2576

> <Gold.Chemscore.Internal.Correction.Weighted>
   9.000000E+99

> <Gold.Protein.RotatedTorsions>
[ 6907 6896 6895 6894 ] final -111.68 input  -60.11 | X-H torsion
[ 7974 7965 7964 7962 ] final  -73.43 input  175.53 | X-H torsion
[ 8008 7997 7996 7995 ] final   35.89 input   59.86 | X-H torsion
[ 10167 10162 10161 10158 ] final   49.52 input  -65.29 | X-H torsion
[ 10718 10713 10712 10709 ] final   58.15 input   66.30 | X-H torsion
[ 10763 10752 10751 10750 ] final   93.93 input  -60.55 | X-H torsion
[ 11005 11000 10999 10996 ] final  170.81 input  -57.11 | X-H torsion

> <Gold.Protein.ActiveResidues>
 VAL166  LYS551  ARG553  GLY616  TRP617  ASP618  TYR619  PRO620  LYS621  CYS622 
 ASP623  PHE694  ASN695  SER759  ASP760  ASP761  ALA762  ILE779  LEU786  VAL792 
 PHE793  MET794  SER795  GLU796  ALA797  LYS798  CYS799  TRP800  GLU811  SER814 

> <Gold.Protein.RotatedAtoms>
  150.7707  133.9199  159.3394 H   0  0  0  0  0  0  0  0  0  0  0  0  # atno 6907 bound_to 6896
  151.7086  135.0915  160.0273 H   0  0  0  0  0  0  0  0  0  0  0  0  # atno 6908 bound_to 6896
  152.3723  133.6397  159.6132 H   0  0  0  0  0  0  0  0  0  0  0  0  # atno 6909 bound_to 6896
  145.6523  140.9279  143.0978 H   0  0  0  0  0  0  0  0  0  0  0  0  # atno 7974 bound_to 7965
  155.1785  140.3298  155.4379 H   0  0  0  0  0  0  0  0  0  0  0  0  # atno 8008 bound_to 7997
  156.2485  140.1931  156.6835 H   0  0  0  0  0  0  0  0  0  0  0  0  # atno 8009 bound_to 7997
  154.6287  140.0585  156.9692 H   0  0  0  0  0  0  0  0  0  0  0  0  # atno 8010 bound_to 7997
  140.2821  144.3145  150.6262 H   0  0  0  0  0  0  0  0  0  0  0  0  # atno 10167 bound_to 10162
  157.5573  130.8809  149.9055 H   0  0  0  0  0  0  0  0  0  0  0  0  # atno 10718 bound_to 10713
  153.2359  135.4307  155.0646 H   0  0  0  0  0  0  0  0  0  0  0  0  # atno 10763 bound_to 10752
  154.8318  135.3391  154.6719 H   0  0  0  0  0  0  0  0  0  0  0  0  # atno 10764 bound_to 10752
  153.7145  135.7021  153.5085 H   0  0  0  0  0  0  0  0  0  0  0  0  # atno 10765 bound_to 10752
  140.3123  134.7507  157.4000 H   0  0  0  0  0  0  0  0  0  0  0  0  # atno 11005 bound_to 11000
  144.7118  139.8342  143.7412 LP  0  0  0  0  0  0  0  0  0  0  0  0  # atno 17320 bound_to 7965
  146.1193  139.4209  143.0238 LP  0  0  0  0  0  0  0  0  0  0  0  0  # atno 17321 bound_to 7965
  140.5803  143.2173  151.7440 LP  0  0  0  0  0  0  0  0  0  0  0  0  # atno 17342 bound_to 10162
  139.4960  144.4089  152.0101 LP  0  0  0  0  0  0  0  0  0  0  0  0  # atno 17343 bound_to 10162
  156.0630  130.3697  150.0941 LP  0  0  0  0  0  0  0  0  0  0  0  0  # atno 17370 bound_to 10713
  156.9108  130.9651  151.3563 LP  0  0  0  0  0  0  0  0  0  0  0  0  # atno 17371 bound_to 10713
  140.1014  134.5467  155.8349 LP  0  0  0  0  0  0  0  0  0  0  0  0  # atno 17394 bound_to 11000
  141.2105  133.6696  156.6517 LP  0  0  0  0  0  0  0  0  0  0  0  0  # atno 17395 bound_to 11000

$$$$
