AV-unprocessed.smi:1007|AV-procd|sdf|4398|dock1
  -GOLD-   22720 2333D 1   1.00000     0.00000
 Structure written by MMmdl.
 56 58  0  0  0  0  0  0  0  0  2 V2000
  147.9567  132.7890  158.9985 C   0  0  0  0  0  0  0  0  0  0  0  0
  149.2346  133.1320  158.4849 O   0  0  0  0  0  0  0  0  0  0  0  0
  149.2646  133.3108  157.0760 C   0  0  0  0  0  0  0  0  0  0  0  0
  148.1842  134.3051  156.6110 C   0  0  0  0  0  0  0  0  0  0  0  0
  148.1874  134.5890  155.1725 N   0  0  0  0  0  0  0  0  0  0  0  0
  147.8029  135.9667  154.8669 C   0  0  0  0  0  0  0  0  0  0  0  0
  148.8807  137.0016  155.2510 C   0  0  0  0  0  0  0  0  0  0  0  0
  150.1698  136.6823  154.5803 N   0  3  0  0  0  0  0  0  0  0  0  0
  151.2476  137.6622  154.8680 C   0  0  0  0  0  0  0  0  0  0  0  0
  150.7068  139.0895  155.1087 C   0  0  2  0  0  0  0  0  0  0  0  0
  150.1336  139.5689  153.9090 O   0  0  0  0  0  0  0  0  0  0  0  0
  151.7907  140.0940  155.5460 C   0  0  0  0  0  0  0  0  0  0  0  0
  152.0600  140.0341  156.9710 N   0  0  0  0  0  0  0  0  0  0  0  0
  152.3130  138.9304  157.7004 C   0  0  0  0  0  0  0  0  0  0  0  0
  152.5470  139.0993  158.9983 N   0  0  0  0  0  0  0  0  0  0  0  0
  152.4244  140.4719  159.1285 C   0  0  0  0  0  0  0  0  0  0  0  0
  152.5595  141.3010  160.2633 C   0  0  0  0  0  0  0  0  0  0  0  0
  152.3950  142.7008  160.1617 C   0  0  0  0  0  0  0  0  0  0  0  0
  152.5508  143.5542  161.4082 C   0  0  0  0  0  0  0  0  0  0  0  0
  152.0907  143.2917  158.9090 C   0  0  0  0  0  0  0  0  0  0  0  0
  151.9098  144.7935  158.7759 C   0  0  0  0  0  0  0  0  0  0  0  0
  151.9508  142.4779  157.7655 C   0  0  0  0  0  0  0  0  0  0  0  0
  152.1175  141.0863  157.8792 C   0  0  0  0  0  0  0  0  0  0  0  0
  150.5824  135.2860  154.8760 C   0  0  0  0  0  0  0  0  0  0  0  0
  149.4566  134.3017  154.5001 C   0  0  0  0  0  0  0  0  0  0  0  0
  148.0087  132.7282  160.0856 H   0  0  0  0  0  0  0  0  0  0  0  0
  147.6170  131.8211  158.6306 H   0  0  0  0  0  0  0  0  0  0  0  0
  147.2114  133.5430  158.7426 H   0  0  0  0  0  0  0  0  0  0  0  0
  150.2628  133.6133  156.7577 H   0  0  0  0  0  0  0  0  0  0  0  0
  149.0732  132.3382  156.6214 H   0  0  0  0  0  0  0  0  0  0  0  0
  147.2159  133.8788  156.8764 H   0  0  0  0  0  0  0  0  0  0  0  0
  148.2653  135.2299  157.1796 H   0  0  0  0  0  0  0  0  0  0  0  0
  147.6003  136.0495  153.7981 H   0  0  0  0  0  0  0  0  0  0  0  0
  146.8633  136.2080  155.3655 H   0  0  0  0  0  0  0  0  0  0  0  0
  148.5362  137.9913  154.9545 H   0  0  0  0  0  0  0  0  0  0  0  0
  149.0196  137.0328  156.3325 H   0  0  0  0  0  0  0  0  0  0  0  0
  151.8161  137.3048  155.7273 H   0  0  0  0  0  0  0  0  0  0  0  0
  151.9501  137.6949  154.0337 H   0  0  0  0  0  0  0  0  0  0  0  0
  149.9275  139.0774  155.8698 H   0  0  0  0  0  0  0  0  0  0  0  0
  150.1847  138.8888  153.2542 H   0  0  0  0  0  0  0  0  0  0  0  0
  152.7218  139.9132  155.0072 H   0  0  0  0  0  0  0  0  0  0  0  0
  151.4837  141.1121  155.3016 H   0  0  0  0  0  0  0  0  0  0  0  0
  152.3324  137.9478  157.2516 H   0  0  0  0  0  0  0  0  0  0  0  0
  152.7919  140.8512  161.2174 H   0  0  0  0  0  0  0  0  0  0  0  0
  151.6603  144.1610  161.5727 H   0  0  0  0  0  0  0  0  0  0  0  0
  153.4095  144.2185  161.3095 H   0  0  0  0  0  0  0  0  0  0  0  0
  152.7024  142.9393  162.2957 H   0  0  0  0  0  0  0  0  0  0  0  0
  151.7483  145.0846  157.7377 H   0  0  0  0  0  0  0  0  0  0  0  0
  152.7933  145.3202  159.1363 H   0  0  0  0  0  0  0  0  0  0  0  0
  151.0479  145.1258  159.3550 H   0  0  0  0  0  0  0  0  0  0  0  0
  151.7184  142.9163  156.8063 H   0  0  0  0  0  0  0  0  0  0  0  0
  151.4760  135.0421  154.3006 H   0  0  0  0  0  0  0  0  0  0  0  0
  150.8519  135.1901  155.9286 H   0  0  0  0  0  0  0  0  0  0  0  0
  149.7726  133.2788  154.7005 H   0  0  0  0  0  0  0  0  0  0  0  0
  149.3002  134.3480  153.4214 H   0  0  0  0  0  0  0  0  0  0  0  0
  150.0030  136.7219  153.5849 H   0  0  0  0  0  0  0  0  0  0  0  0
  1  2  1  0  0  0  0
  1 26  1  0  0  0  0
  1 27  1  0  0  0  0
  1 28  1  0  0  0  0
  2  3  1  0  0  0  0
  3  4  1  0  0  0  0
  3 29  1  0  0  0  0
  3 30  1  0  0  0  0
  4  5  1  0  0  0  0
  4 31  1  0  0  0  0
  4 32  1  0  0  0  0
  5 25  1  0  0  0  0
  5  6  1  0  0  0  0
  6  7  1  0  0  0  0
  6 33  1  0  0  0  0
  6 34  1  0  0  0  0
  7  8  1  0  0  0  0
  7 35  1  0  0  0  0
  7 36  1  0  0  0  0
  8  9  1  0  0  0  0
  8 24  1  0  0  0  0
  8 56  1  0  0  0  0
  9 10  1  0  0  0  0
  9 37  1  0  0  0  0
  9 38  1  0  0  0  0
 10 11  1  0  0  0  0
 10 12  1  0  0  0  0
 10 39  1  0  0  0  0
 11 40  1  0  0  0  0
 12 13  1  0  0  0  0
 12 41  1  0  0  0  0
 12 42  1  0  0  0  0
 13 23  1  0  0  0  0
 13 14  1  0  0  0  0
 14 15  2  0  0  0  0
 14 43  1  0  0  0  0
 15 16  1  0  0  0  0
 16 23  2  0  0  0  0
 16 17  1  0  0  0  0
 17 18  2  0  0  0  0
 17 44  1  0  0  0  0
 18 19  1  0  0  0  0
 18 20  1  0  0  0  0
 19 45  1  0  0  0  0
 19 46  1  0  0  0  0
 19 47  1  0  0  0  0
 20 21  1  0  0  0  0
 20 22  2  0  0  0  0
 21 48  1  0  0  0  0
 21 49  1  0  0  0  0
 21 50  1  0  0  0  0
 22 23  1  0  0  0  0
 22 51  1  0  0  0  0
 24 25  1  0  0  0  0
 24 52  1  0  0  0  0
 24 53  1  0  0  0  0
 25 54  1  0  0  0  0
 25 55  1  0  0  0  0
M  CHG  1   8   1
M  END
> <s_m_source_file>
AV-unprocessed.smi

> <i_m_source_file_index>
1007

> <i_lp_mmshare_version>
43012

> <i_f3d_flags>
0

> <s_epik_input>
W0NIM11PW0NIMl1bQ0gyXU4xW0NIMl1bQ0gyXU4oW0NIMl1bQ0gyXTEpW0NIMl1bQ0BIXShbT0hdKVtDSDJdbihbY0hdbjIpYyhjMjMpW2NIXWMoW0NIM10pYyhbY0hdMylbQ0gzXQ==

> <s_epik_cmdline>
J2VwaWtfcHl0aG9uJywgJy1waCcsICc3LjAnLCAnLXRuJywgJzgnLCAnLW1hJywgJzIwMCcsICctbWV0YWxfYmluZGluZycsICctaW1hZScsICc8aW5maWxlLm1hZT4nLCAnLW9tYWUnLCAnPG91dGZpbGUubWFlPic=

> <r_epik_Ionization_Penalty>
0.102698

> <r_epik_Ionization_Penalty_Charging>
0.00226046

> <r_epik_Ionization_Penalty_Neutral>
0.100438

> <r_epik_State_Penalty>
0.191223

> <r_epik_Charging_Adjusted_Penalty>
0.193484

> <i_epik_Tot_Q>
1

> <i_epik_Tot_abs_Q>
1

> <r_epik_Metal_State_Penalty>
0.102154

> <b_epik_Metal_Only>
0

> <s_lp_Force_Field>
OPLS_2005

> <r_lp_Energy>
34.1063

> <b_lp_Chiralities_Consistent>
1

> <s_lp_Variant>
AV-unprocessed.smi:1007-1

> <Gold.Version>
5.8.1

> <Gold.Id.Protein>
6NUR|6NUR_protein|mol2

> <Gold.PLP.Fitness>
52.6332

> <Gold.PLP.PLP>
-43.1573

> <Gold.PLP.part.hbond>
-4.0000

> <Gold.PLP.part.metal>
0.0000

> <Gold.PLP.part.buried>
-4.2783

> <Gold.PLP.part.nonpolar>
-35.7235

> <Gold.PLP.part.repulsive>
0.1187

> <Gold.PLP.ligand.clash>
0.0000

> <Gold.PLP.ligand.torsion>
1.1758

> <Gold.PLP.Chemscore.Hbond>
3.8257

> <Gold.PLP.Chemscore.CHOScore>
0.0000

> <Gold.PLP.Chemscore.Metal>
0.0000

> <Gold.Chemscore.Hbonds>
donor molecule, donor type, donor heavy atom, donor atom, acceptor molecule, acceptor atom, score
      L1  H     8    56       P1  7948  1.88
      P1  H  6896  6908       L1     2  1.00
      P1  H  7989  7998       L1    11  0.79

> <Gold.PLP.Chemscore.Internal.Correction>
0.3504

> <Gold.Rescore>
     Score         DG    S(hbond)    S(metal)    S(lipo)     H(rot)  DE(clash)    DE(int)     intcor
     17.97     -19.39       1.84        0.00     122.45       2.56       0.29       1.12       ----

> <Gold.Chemscore.Fitness>
17.9734

> <Gold.Chemscore.DG>
-19.3880

> <Gold.Chemscore.ZeroCoef>
-5.4800

> <Gold.Chemscore.Hbond>
1.8366

> <Gold.Chemscore.Metal>
0.0000

> <Gold.Chemscore.Lipo>
122.4451

> <Gold.Chemscore.Internal_Hbond>
0.0000

> <Gold.Chemscore.DEClash>
0.2899

> <Gold.Chemscore.DEInternal>
1.1248

> <Gold.Chemscore.Rot>
2.5594

> <Gold.Chemscore.Internal.Correction>
   9.000000E+99

> <Gold.Chemscore.Hbonds>
donor molecule, donor type, donor heavy atom, donor atom, acceptor molecule, acceptor atom, score
      L1  H     8    56       P1  7948  0.19
      L1  H    11    40       P1  7957  0.01
      P1  H  6896  6908       L1     2  0.78
      P1  H  7989  7998       L1    11  0.06

> <Gold.Chemscore.Hbond.Weighted>
-6.1341

> <Gold.Chemscore.Metal.Weighted>
-0.0000

> <Gold.Chemscore.Lipo.Weighted>
-14.3261

> <Gold.Chemscore.Internal_Hbond.Weighted>
0.0000

> <Gold.Chemscore.DEClash.Weighted>
0.2899

> <Gold.Chemscore.DEInternal.Weighted>
1.1248

> <Gold.Chemscore.Rot.Weighted>
6.5522

> <Gold.Chemscore.Internal.Correction.Weighted>
   9.000000E+99

> <Gold.Protein.RotatedTorsions>
[ 6907 6896 6895 6894 ] final  118.85 input  -60.11 | X-H torsion
[ 7974 7965 7964 7962 ] final   42.35 input  175.53 | X-H torsion
[ 8008 7997 7996 7995 ] final    2.73 input   59.86 | X-H torsion
[ 10167 10162 10161 10158 ] final -103.60 input  -65.29 | X-H torsion
[ 10718 10713 10712 10709 ] final -157.19 input   66.30 | X-H torsion
[ 10763 10752 10751 10750 ] final  -43.17 input  -60.55 | X-H torsion
[ 11005 11000 10999 10996 ] final   34.66 input  -57.11 | X-H torsion

> <Gold.Protein.ActiveResidues>
 VAL166  LYS551  ARG553  GLY616  TRP617  ASP618  TYR619  PRO620  LYS621  CYS622 
 ASP623  PHE694  ASN695  SER759  ASP760  ASP761  ALA762  ILE779  LEU786  VAL792 
 PHE793  MET794  SER795  GLU796  ALA797  LYS798  CYS799  TRP800  GLU811  SER814 

> <Gold.Protein.RotatedAtoms>
  152.4514  133.7636  159.6759 H   0  0  0  0  0  0  0  0  0  0  0  0  # atno 6907 bound_to 6896
  150.8427  133.7901  159.3061 H   0  0  0  0  0  0  0  0  0  0  0  0  # atno 6908 bound_to 6896
  151.5521  135.1070  160.0004 H   0  0  0  0  0  0  0  0  0  0  0  0  # atno 6909 bound_to 6896
  146.0747  139.5310  142.9575 H   0  0  0  0  0  0  0  0  0  0  0  0  # atno 7974 bound_to 7965
  154.6951  140.2661  155.6774 H   0  0  0  0  0  0  0  0  0  0  0  0  # atno 8008 bound_to 7997
  156.2746  140.2783  156.1466 H   0  0  0  0  0  0  0  0  0  0  0  0  # atno 8009 bound_to 7997
  155.0842  140.0373  157.2638 H   0  0  0  0  0  0  0  0  0  0  0  0  # atno 8010 bound_to 7997
  140.2182  143.3695  152.0992 H   0  0  0  0  0  0  0  0  0  0  0  0  # atno 10167 bound_to 10162
  156.5369  130.8546  151.2735 H   0  0  0  0  0  0  0  0  0  0  0  0  # atno 10718 bound_to 10713
  153.9911  135.6705  153.4754 H   0  0  0  0  0  0  0  0  0  0  0  0  # atno 10763 bound_to 10752
  153.0704  135.4977  154.8289 H   0  0  0  0  0  0  0  0  0  0  0  0  # atno 10764 bound_to 10752
  154.7108  135.3097  154.9162 H   0  0  0  0  0  0  0  0  0  0  0  0  # atno 10765 bound_to 10752
  140.2506  134.3307  155.7892 H   0  0  0  0  0  0  0  0  0  0  0  0  # atno 11005 bound_to 11000
  145.6327  141.0301  143.1854 LP  0  0  0  0  0  0  0  0  0  0  0  0  # atno 17320 bound_to 7965
  144.7254  139.7893  143.7367 LP  0  0  0  0  0  0  0  0  0  0  0  0  # atno 17321 bound_to 7965
  139.5154  144.6962  151.5623 LP  0  0  0  0  0  0  0  0  0  0  0  0  # atno 17342 bound_to 10162
  140.6274  143.9142  150.6576 LP  0  0  0  0  0  0  0  0  0  0  0  0  # atno 17343 bound_to 10162
  157.7412  130.9865  150.2429 LP  0  0  0  0  0  0  0  0  0  0  0  0  # atno 17370 bound_to 10713
  156.3007  130.3758  149.7753 LP  0  0  0  0  0  0  0  0  0  0  0  0  # atno 17371 bound_to 10713
  141.2202  133.7351  156.9031 LP  0  0  0  0  0  0  0  0  0  0  0  0  # atno 17394 bound_to 11000
  140.1562  134.9197  157.2656 LP  0  0  0  0  0  0  0  0  0  0  0  0  # atno 17395 bound_to 11000

$$$$
