AV-unprocessed.smi:47|AV-procd|sdf|438|dock7
  -GOLD-   2262016303D 1   1.00000     0.00000
 Structure written by MMmdl.
 31 33  0  0  0  0  0  0  0  0  1 V2000
  145.0872  141.0011  155.0027 O   0  0  0  0  0  0  0  0  0  0  0  0
  146.4540  141.3320  154.8783 C   0  0  2  0  0  0  0  0  0  0  0  0
  146.8480  141.6456  153.4410 C   0  0  0  0  0  0  0  0  0  0  0  0
  148.2947  141.4855  153.4182 N   0  0  0  0  0  0  0  0  0  0  0  0
  148.6437  140.4322  154.3794 C   0  0  1  0  0  0  0  0  0  0  0  0
  149.8184  140.7975  155.2346 C   0  0  0  0  0  0  0  0  0  0  0  0
  150.9570  140.1165  155.1533 N   0  0  0  0  0  0  0  0  0  0  0  0
  151.7071  140.7168  156.1001 N   0  0  0  0  0  0  0  0  0  0  0  0
  151.0075  141.6865  156.7030 C   0  0  0  0  0  0  0  0  0  0  0  0
  151.5127  142.5309  157.7877 C   0  0  0  0  0  0  0  0  0  0  0  0
  151.5054  143.9397  157.6632 C   0  0  0  0  0  0  0  0  0  0  0  0
  151.9960  144.7515  158.7046 C   0  0  0  0  0  0  0  0  0  0  0  0
  152.4980  144.1639  159.8808 C   0  0  0  0  0  0  0  0  0  0  0  0
  152.5079  142.7631  160.0154 C   0  0  0  0  0  0  0  0  0  0  0  0
  152.0179  141.9505  158.9747 C   0  0  0  0  0  0  0  0  0  0  0  0
  149.7814  141.7771  156.1879 N   0  0  0  0  0  0  0  0  0  0  0  0
  147.3809  140.1701  155.2224 C   0  0  0  0  0  0  0  0  0  0  0  0
  146.6800  142.1870  155.5177 H   0  0  0  0  0  0  0  0  0  0  0  0
  148.8895  139.5193  153.8350 H   0  0  0  0  0  0  0  0  0  0  0  0
  152.6557  140.4374  156.3042 H   0  0  0  0  0  0  0  0  0  0  0  0
  144.7384  140.8378  154.1396 H   0  0  0  0  0  0  0  0  0  0  0  0
  146.3890  140.9245  152.7629 H   0  0  0  0  0  0  0  0  0  0  0  0
  146.5422  142.6438  153.1269 H   0  0  0  0  0  0  0  0  0  0  0  0
  148.5817  141.2109  152.4844 H   0  0  0  0  0  0  0  0  0  0  0  0
  151.1258  144.4121  156.7691 H   0  0  0  0  0  0  0  0  0  0  0  0
  151.9877  145.8265  158.6000 H   0  0  0  0  0  0  0  0  0  0  0  0
  152.8747  144.7865  160.6788 H   0  0  0  0  0  0  0  0  0  0  0  0
  152.8925  142.3102  160.9174 H   0  0  0  0  0  0  0  0  0  0  0  0
  152.0354  140.8776  159.0985 H   0  0  0  0  0  0  0  0  0  0  0  0
  147.5748  140.0899  156.2931 H   0  0  0  0  0  0  0  0  0  0  0  0
  146.9309  139.2293  154.9016 H   0  0  0  0  0  0  0  0  0  0  0  0
  1  2  1  0  0  0  0
  1 21  1  0  0  0  0
  2 18  1  0  0  0  0
  2 17  1  0  0  0  0
  2  3  1  0  0  0  0
  3  4  1  0  0  0  0
  3 22  1  0  0  0  0
  3 23  1  0  0  0  0
  4  5  1  0  0  0  0
  4 24  1  0  0  0  0
  5 19  1  0  0  0  0
  5  6  1  0  0  0  0
  5 17  1  0  0  0  0
  6 16  1  0  0  0  0
  6  7  2  0  0  0  0
  7  8  1  0  0  0  0
  8 20  1  0  0  0  0
  8  9  1  0  0  0  0
  9 10  1  0  0  0  0
  9 16  2  0  0  0  0
 10 15  1  0  0  0  0
 10 11  2  0  0  0  0
 11 12  1  0  0  0  0
 11 25  1  0  0  0  0
 12 13  2  0  0  0  0
 12 26  1  0  0  0  0
 13 14  1  0  0  0  0
 13 27  1  0  0  0  0
 14 15  2  0  0  0  0
 14 28  1  0  0  0  0
 15 29  1  0  0  0  0
 17 30  1  0  0  0  0
 17 31  1  0  0  0  0
M  END
> <s_m_source_file>
AV-unprocessed.smi

> <i_m_source_file_index>
47

> <i_lp_mmshare_version>
43012

> <i_f3d_flags>
0

> <s_epik_input>
W09IXVtDQEhdMVtDSDJdW05IXVtDQEBIXShbQ0gyXTEpYzJuW25IXWMobjIpLWMzW2NIXVtjSF1bY0hdW2NIXVtjSF0z

> <s_epik_cmdline>
J2VwaWtfcHl0aG9uJywgJy1waCcsICc3LjAnLCAnLXRuJywgJzgnLCAnLW1hJywgJzIwMCcsICctbWV0YWxfYmluZGluZycsICctaW1hZScsICc8aW5maWxlLm1hZT4nLCAnLW9tYWUnLCAnPG91dGZpbGUubWFlPic=

> <r_epik_Ionization_Penalty>
1.65981

> <r_epik_Ionization_Penalty_Charging>
0

> <r_epik_Ionization_Penalty_Neutral>
1.65981

> <r_epik_State_Penalty>
2.0492

> <r_epik_Charging_Adjusted_Penalty>
2.0492

> <i_epik_Tot_Q>
0

> <i_epik_Tot_abs_Q>
0

> <r_epik_Metal_State_Penalty>
2.54641

> <b_epik_Metal_Only>
0

> <s_lp_Force_Field>
OPLS_2005

> <r_lp_Energy>
25.8544

> <b_lp_Chiralities_Consistent>
1

> <s_lp_Variant>
AV-unprocessed.smi:47-16

> <Gold.Version>
5.8.1

> <Gold.Id.Protein>
6NUR|6NUR_protein|mol2

> <Gold.PLP.Fitness>
42.1626

> <Gold.PLP.PLP>
-35.5762

> <Gold.PLP.part.hbond>
-4.0000

> <Gold.PLP.part.metal>
0.0000

> <Gold.PLP.part.buried>
-4.0573

> <Gold.PLP.part.nonpolar>
-28.7925

> <Gold.PLP.part.repulsive>
0.3908

> <Gold.PLP.ligand.clash>
0.0000

> <Gold.PLP.ligand.torsion>
1.1398

> <Gold.PLP.Chemscore.Hbond>
2.9500

> <Gold.PLP.Chemscore.CHOScore>
0.0000

> <Gold.PLP.Chemscore.Metal>
0.0000

> <Gold.Chemscore.Hbonds>
donor molecule, donor type, donor heavy atom, donor atom, acceptor molecule, acceptor atom, score
      L1  H     1    21       P1 10175  1.00
      L1  H     4    24       P1  7957  1.00
      P1  H  7989  7998       L1     7  0.95

> <Gold.PLP.Chemscore.Internal.Correction>
0.0159

> <Gold.Rescore>
     Score         DG    S(hbond)    S(metal)    S(lipo)     H(rot)  DE(clash)    DE(int)     intcor
     17.84     -18.89       2.01        0.00      89.53       1.48       0.08       0.97       ----

> <Gold.Chemscore.Fitness>
17.8408

> <Gold.Chemscore.DG>
-18.8856

> <Gold.Chemscore.ZeroCoef>
-5.4800

> <Gold.Chemscore.Hbond>
2.0109

> <Gold.Chemscore.Metal>
0.0000

> <Gold.Chemscore.Lipo>
89.5266

> <Gold.Chemscore.Internal_Hbond>
0.0000

> <Gold.Chemscore.DEClash>
0.0785

> <Gold.Chemscore.DEInternal>
0.9663

> <Gold.Chemscore.Rot>
1.4786

> <Gold.Chemscore.Internal.Correction>
   9.000000E+99

> <Gold.Chemscore.Hbonds>
donor molecule, donor type, donor heavy atom, donor atom, acceptor molecule, acceptor atom, score
      L1  H     1    21       P1 10175  0.94
      L1  H     4    24       P1  7957  0.92
      P1  H  7989  7998       L1     7  0.08

> <Gold.Chemscore.Hbond.Weighted>
-6.7163

> <Gold.Chemscore.Metal.Weighted>
-0.0000

> <Gold.Chemscore.Lipo.Weighted>
-10.4746

> <Gold.Chemscore.Internal_Hbond.Weighted>
0.0000

> <Gold.Chemscore.DEClash.Weighted>
0.0785

> <Gold.Chemscore.DEInternal.Weighted>
0.9663

> <Gold.Chemscore.Rot.Weighted>
3.7853

> <Gold.Chemscore.Internal.Correction.Weighted>
   9.000000E+99

> <Gold.Protein.RotatedTorsions>
[ 6907 6896 6895 6894 ] final  -98.67 input  -60.11 | X-H torsion
[ 7974 7965 7964 7962 ] final  -50.61 input  175.53 | X-H torsion
[ 8008 7997 7996 7995 ] final -114.78 input   59.86 | X-H torsion
[ 10167 10162 10161 10158 ] final -144.78 input  -65.29 | X-H torsion
[ 10718 10713 10712 10709 ] final -102.45 input   66.30 | X-H torsion
[ 10763 10752 10751 10750 ] final   -1.74 input  -60.55 | X-H torsion
[ 11005 11000 10999 10996 ] final  -26.60 input  -57.11 | X-H torsion

> <Gold.Protein.ActiveResidues>
 VAL166  LYS551  ARG553  GLY616  TRP617  ASP618  TYR619  PRO620  LYS621  CYS622 
 ASP623  PHE694  ASN695  SER759  ASP760  ASP761  ALA762  ILE779  LEU786  VAL792 
 PHE793  MET794  SER795  GLU796  ALA797  LYS798  CYS799  TRP800  GLU811  SER814 

> <Gold.Protein.RotatedAtoms>
  150.7054  134.1158  159.4016 H   0  0  0  0  0  0  0  0  0  0  0  0  # atno 6907 bound_to 6896
  151.9145  135.0322  160.0526 H   0  0  0  0  0  0  0  0  0  0  0  0  # atno 6908 bound_to 6896
  152.2308  133.5021  159.5251 H   0  0  0  0  0  0  0  0  0  0  0  0  # atno 6909 bound_to 6896
  145.9280  140.7775  142.9614 H   0  0  0  0  0  0  0  0  0  0  0  0  # atno 7974 bound_to 7965
  155.0417  140.0392  157.2512 H   0  0  0  0  0  0  0  0  0  0  0  0  # atno 8008 bound_to 7997
  154.7211  140.2712  155.6517 H   0  0  0  0  0  0  0  0  0  0  0  0  # atno 8009 bound_to 7997
  156.2816  140.2703  156.1882 H   0  0  0  0  0  0  0  0  0  0  0  0  # atno 8010 bound_to 7997
  139.7867  143.8023  152.2645 H   0  0  0  0  0  0  0  0  0  0  0  0  # atno 10167 bound_to 10162
  156.0229  130.5421  150.7110 H   0  0  0  0  0  0  0  0  0  0  0  0  # atno 10718 bound_to 10713
  153.3489  135.6984  153.6805 H   0  0  0  0  0  0  0  0  0  0  0  0  # atno 10763 bound_to 10752
  153.5540  135.3548  155.2772 H   0  0  0  0  0  0  0  0  0  0  0  0  # atno 10764 bound_to 10752
  154.8650  135.4233  154.2719 H   0  0  0  0  0  0  0  0  0  0  0  0  # atno 10765 bound_to 10752
  140.9044  133.7502  156.0586 H   0  0  0  0  0  0  0  0  0  0  0  0  # atno 11005 bound_to 11000
  144.6761  140.2082  143.7380 LP  0  0  0  0  0  0  0  0  0  0  0  0  # atno 17320 bound_to 7965
  145.8463  139.2154  143.1798 LP  0  0  0  0  0  0  0  0  0  0  0  0  # atno 17321 bound_to 7965
  139.8102  144.7339  150.9707 LP  0  0  0  0  0  0  0  0  0  0  0  0  # atno 17342 bound_to 10162
  140.7820  143.4258  151.0771 LP  0  0  0  0  0  0  0  0  0  0  0  0  # atno 17343 bound_to 10162
  157.4748  131.0897  151.0602 LP  0  0  0  0  0  0  0  0  0  0  0  0  # atno 17370 bound_to 10713
  157.1052  130.5998  149.5469 LP  0  0  0  0  0  0  0  0  0  0  0  0  # atno 17371 bound_to 10713
  140.8189  134.3312  157.5388 LP  0  0  0  0  0  0  0  0  0  0  0  0  # atno 17394 bound_to 11000
  139.8747  134.9298  156.3485 LP  0  0  0  0  0  0  0  0  0  0  0  0  # atno 17395 bound_to 11000

$$$$
