AV-unprocessed.smi:1400|AV-procd|sdf|5686|dock6
  -GOLD-   22720 5313D 1   1.00000     0.00000
 Structure written by MMmdl.
 34 35  0  0  0  0  0  0  0  0  1 V2000
  149.5097  140.5729  156.1911 C   0  0  0  0  0  0  0  0  0  0  0  0
  148.8663  140.9513  154.8549 C   0  0  0  0  0  0  0  0  0  0  0  0
  149.4880  141.7057  154.1067 O   0  0  0  0  0  0  0  0  0  0  0  0
  147.6505  140.4440  154.5379 N   0  0  0  0  0  0  0  0  0  0  0  0
  147.0067  140.6768  153.2398 C   0  0  0  0  0  0  0  0  0  0  0  0
  147.0170  139.3630  152.4367 C   0  0  0  0  0  0  0  0  0  0  0  0
  146.3478  138.2163  153.2254 C   0  0  0  0  0  0  0  0  0  0  0  0
  146.5585  136.9478  152.5325 N   0  0  0  0  0  0  0  0  0  0  0  0
  145.5988  136.0950  152.1442 C   0  0  0  0  0  0  0  0  0  0  0  0
  144.3968  136.2880  152.3298 O   0  0  0  0  0  0  0  0  0  0  0  0
  146.1265  135.0183  151.5357 N   0  0  0  0  0  0  0  0  0  0  0  0
  145.4486  133.8945  150.9937 C   0  0  0  0  0  0  0  0  0  0  0  0
  146.0395  132.9266  150.2831 N   0  0  0  0  0  0  0  0  0  0  0  0
  145.1309  131.9468  149.8749 C   0  0  0  0  0  0  0  0  0  0  0  0
  143.8434  132.1863  150.2861 C   0  0  0  0  0  0  0  0  0  0  0  0
  143.7200  133.6606  151.2086 S   0  0  0  0  0  0  0  0  0  0  0  0
  146.8979  138.1213  154.6647 C   0  0  0  0  0  0  0  0  0  0  0  0
  146.8858  139.4956  155.3573 C   0  0  0  0  0  0  0  0  0  0  0  0
  149.6268  139.4918  156.2725 H   0  0  0  0  0  0  0  0  0  0  0  0
  148.9057  140.9291  157.0259 H   0  0  0  0  0  0  0  0  0  0  0  0
  150.4998  141.0212  156.2806 H   0  0  0  0  0  0  0  0  0  0  0  0
  145.9806  141.0111  153.3995 H   0  0  0  0  0  0  0  0  0  0  0  0
  147.4895  141.4672  152.6639 H   0  0  0  0  0  0  0  0  0  0  0  0
  146.5104  139.5062  151.4816 H   0  0  0  0  0  0  0  0  0  0  0  0
  148.0494  139.0979  152.2027 H   0  0  0  0  0  0  0  0  0  0  0  0
  145.2821  138.4416  153.2967 H   0  0  0  0  0  0  0  0  0  0  0  0
  147.5165  136.7006  152.3318 H   0  0  0  0  0  0  0  0  0  0  0  0
  147.1323  134.9978  151.4532 H   0  0  0  0  0  0  0  0  0  0  0  0
  145.4879  131.1104  149.2923 H   0  0  0  0  0  0  0  0  0  0  0  0
  142.9640  131.5870  150.1026 H   0  0  0  0  0  0  0  0  0  0  0  0
  146.3105  137.4072  155.2431 H   0  0  0  0  0  0  0  0  0  0  0  0
  147.9201  137.7395  154.6480 H   0  0  0  0  0  0  0  0  0  0  0  0
  147.2555  139.4016  156.3773 H   0  0  0  0  0  0  0  0  0  0  0  0
  145.8596  139.8532  155.4538 H   0  0  0  0  0  0  0  0  0  0  0  0
  1  2  1  0  0  0  0
  1 19  1  0  0  0  0
  1 20  1  0  0  0  0
  1 21  1  0  0  0  0
  2  3  2  0  0  0  0
  2  4  1  0  0  0  0
  4 18  1  0  0  0  0
  4  5  1  0  0  0  0
  5  6  1  0  0  0  0
  5 22  1  0  0  0  0
  5 23  1  0  0  0  0
  6  7  1  0  0  0  0
  6 24  1  0  0  0  0
  6 25  1  0  0  0  0
  7  8  1  0  0  0  0
  7 17  1  0  0  0  0
  7 26  1  0  0  0  0
  8  9  1  0  0  0  0
  8 27  1  0  0  0  0
  9 10  2  0  0  0  0
  9 11  1  0  0  0  0
 11 12  1  0  0  0  0
 11 28  1  0  0  0  0
 12 16  1  0  0  0  0
 12 13  2  0  0  0  0
 13 14  1  0  0  0  0
 14 15  2  0  0  0  0
 14 29  1  0  0  0  0
 15 16  1  0  0  0  0
 15 30  1  0  0  0  0
 17 18  1  0  0  0  0
 17 31  1  0  0  0  0
 17 32  1  0  0  0  0
 18 33  1  0  0  0  0
 18 34  1  0  0  0  0
M  END
> <s_m_source_file>
AV-unprocessed.smi

> <i_m_source_file_index>
1400

> <i_lp_mmshare_version>
43012

> <i_f3d_flags>
0

> <s_epik_input>
W0NIM11DKD1PKU4xW0NIMl1bQ0gyXVtDSF0oW0NIMl1bQ0gyXTEpW05IXUMoPU8pW05IXWMybltjSF1bY0hdczI=

> <s_epik_cmdline>
J2VwaWtfcHl0aG9uJywgJy1waCcsICc3LjAnLCAnLXRuJywgJzgnLCAnLW1hJywgJzIwMCcsICctbWV0YWxfYmluZGluZycsICctaW1hZScsICc8aW5maWxlLm1hZT4nLCAnLW9tYWUnLCAnPG91dGZpbGUubWFlPic=

> <r_lp_tautomer_probability>
1

> <r_epik_Ionization_Penalty>
0.000151384

> <r_epik_Ionization_Penalty_Charging>
0

> <r_epik_Ionization_Penalty_Neutral>
0.000151384

> <r_epik_State_Penalty>
-0

> <r_epik_Charging_Adjusted_Penalty>
0

> <i_epik_Tot_Q>
0

> <i_epik_Tot_abs_Q>
0

> <r_epik_Metal_State_Penalty>
0.0312905

> <b_epik_Metal_Only>
0

> <s_lp_Force_Field>
OPLS_2005

> <r_lp_Energy>
21.754

> <b_lp_Chiralities_Consistent>
1

> <s_lp_Variant>
AV-unprocessed.smi:1400-1

> <Gold.Version>
5.8.1

> <Gold.Id.Protein>
6NUR|6NUR_protein|mol2

> <Gold.PLP.Fitness>
36.4378

> <Gold.PLP.PLP>
-27.1975

> <Gold.PLP.part.hbond>
-3.9524

> <Gold.PLP.part.metal>
0.0000

> <Gold.PLP.part.buried>
-2.7921

> <Gold.PLP.part.nonpolar>
-22.0301

> <Gold.PLP.part.repulsive>
0.6405

> <Gold.PLP.ligand.clash>
0.0000

> <Gold.PLP.ligand.torsion>
0.0598

> <Gold.PLP.Chemscore.Hbond>
2.1373

> <Gold.PLP.Chemscore.CHOScore>
0.9771

> <Gold.PLP.Chemscore.Metal>
0.0000

> <Gold.Chemscore.Hbonds>
donor molecule, donor type, donor heavy atom, donor atom, acceptor molecule, acceptor atom, score
      L1  H     8    27       P1  7948  1.00
      L1  H    11    28       P1  7948  0.53
      P1  H  7989  7998       L1     3  0.04
      P1  H  8011  8017       L1     3  0.54
      L1  C    15    30       P1 10952  0.99

> <Gold.PLP.Chemscore.Internal.Correction>
0.0165

> <Gold.Rescore>
     Score         DG    S(hbond)    S(metal)    S(lipo)     H(rot)  DE(clash)    DE(int)     intcor
     15.28     -16.84       2.20        0.00      56.24       1.00       0.29       1.27       ----

> <Gold.Chemscore.Fitness>
15.2754

> <Gold.Chemscore.DG>
-16.8363

> <Gold.Chemscore.ZeroCoef>
-5.4800

> <Gold.Chemscore.Hbond>
2.1964

> <Gold.Chemscore.Metal>
0.0000

> <Gold.Chemscore.Lipo>
56.2423

> <Gold.Chemscore.Internal_Hbond>
0.0000

> <Gold.Chemscore.DEClash>
0.2890

> <Gold.Chemscore.DEInternal>
1.2719

> <Gold.Chemscore.Rot>
1.0000

> <Gold.Chemscore.Internal.Correction>
   9.000000E+99

> <Gold.Chemscore.Hbonds>
donor molecule, donor type, donor heavy atom, donor atom, acceptor molecule, acceptor atom, score
      L1  H     8    27       P1  7948  0.97
      L1  H    11    28       P1  7948  0.40
      P1  H  7989  7998       L1     3  0.04
      P1  H  8011  8017       L1     3  0.54

> <Gold.Chemscore.Hbond.Weighted>
-7.3359

> <Gold.Chemscore.Metal.Weighted>
-0.0000

> <Gold.Chemscore.Lipo.Weighted>
-6.5803

> <Gold.Chemscore.Internal_Hbond.Weighted>
0.0000

> <Gold.Chemscore.DEClash.Weighted>
0.2890

> <Gold.Chemscore.DEInternal.Weighted>
1.2719

> <Gold.Chemscore.Rot.Weighted>
2.5600

> <Gold.Chemscore.Internal.Correction.Weighted>
   9.000000E+99

> <Gold.Protein.RotatedTorsions>
[ 6907 6896 6895 6894 ] final   32.24 input  -60.11 | X-H torsion
[ 7974 7965 7964 7962 ] final   92.10 input  175.53 | X-H torsion
[ 8008 7997 7996 7995 ] final   82.07 input   59.86 | X-H torsion
[ 10167 10162 10161 10158 ] final  130.40 input  -65.29 | X-H torsion
[ 10718 10713 10712 10709 ] final  101.41 input   66.30 | X-H torsion
[ 10763 10752 10751 10750 ] final  -51.79 input  -60.55 | X-H torsion
[ 11005 11000 10999 10996 ] final   50.98 input  -57.11 | X-H torsion

> <Gold.Protein.ActiveResidues>
 VAL166  LYS551  ARG553  GLY616  TRP617  ASP618  TYR619  PRO620  LYS621  CYS622 
 ASP623  PHE694  ASN695  SER759  ASP760  ASP761  ALA762  ILE779  LEU786  VAL792 
 PHE793  MET794  SER795  GLU796  ALA797  LYS798  CYS799  TRP800  GLU811  SER814 

> <Gold.Protein.RotatedAtoms>
  152.0717  134.9529  160.0574 H   0  0  0  0  0  0  0  0  0  0  0  0  # atno 6907 bound_to 6896
  152.0852  133.4168  159.4527 H   0  0  0  0  0  0  0  0  0  0  0  0  # atno 6908 bound_to 6896
  150.6836  134.2855  159.4688 H   0  0  0  0  0  0  0  0  0  0  0  0  # atno 6909 bound_to 6896
  145.4968  139.2276  143.2799 H   0  0  0  0  0  0  0  0  0  0  0  0  # atno 7974 bound_to 7965
  155.9057  140.3430  155.6060 H   0  0  0  0  0  0  0  0  0  0  0  0  # atno 8008 bound_to 7997
  155.7447  140.0812  157.2248 H   0  0  0  0  0  0  0  0  0  0  0  0  # atno 8009 bound_to 7997
  154.4049  140.1564  156.2643 H   0  0  0  0  0  0  0  0  0  0  0  0  # atno 8010 bound_to 7997
  139.5432  144.6750  151.4557 H   0  0  0  0  0  0  0  0  0  0  0  0  # atno 10167 bound_to 10162
  157.6830  131.0725  150.5249 H   0  0  0  0  0  0  0  0  0  0  0  0  # atno 10718 bound_to 10713
  154.1322  135.6518  153.4924 H   0  0  0  0  0  0  0  0  0  0  0  0  # atno 10763 bound_to 10752
  153.0191  135.5295  154.6989 H   0  0  0  0  0  0  0  0  0  0  0  0  # atno 10764 bound_to 10752
  154.6227  135.2966  155.0278 H   0  0  0  0  0  0  0  0  0  0  0  0  # atno 10765 bound_to 10752
  140.0971  134.5131  155.8797 H   0  0  0  0  0  0  0  0  0  0  0  0  # atno 11005 bound_to 11000
  146.2250  140.5766  142.9000 LP  0  0  0  0  0  0  0  0  0  0  0  0  # atno 17320 bound_to 7965
  144.7802  140.5825  143.6610 LP  0  0  0  0  0  0  0  0  0  0  0  0  # atno 17321 bound_to 7965
  140.6670  143.8376  150.6954 LP  0  0  0  0  0  0  0  0  0  0  0  0  # atno 17342 bound_to 10162
  140.1788  143.4132  152.1948 LP  0  0  0  0  0  0  0  0  0  0  0  0  # atno 17343 bound_to 10162
  156.5561  130.4243  149.6085 LP  0  0  0  0  0  0  0  0  0  0  0  0  # atno 17370 bound_to 10713
  156.2861  130.7098  151.1935 LP  0  0  0  0  0  0  0  0  0  0  0  0  # atno 17371 bound_to 10713
  141.2095  133.6684  156.6444 LP  0  0  0  0  0  0  0  0  0  0  0  0  # atno 17394 bound_to 11000
  140.3271  134.7959  157.4298 LP  0  0  0  0  0  0  0  0  0  0  0  0  # atno 17395 bound_to 11000

$$$$
