AV-unprocessed.smi:1243|AV-procd|sdf|5218|dock7
  -GOLD-   22720 4313D 1   1.00000     0.00000
 Structure written by MMmdl.
 51 52  0  0  0  0  0  0  0  0  2 V2000
  148.5547  140.4037  153.8741 C   0  0  0  0  0  0  0  0  0  0  0  0
  149.3346  139.2193  153.7501 O   0  0  0  0  0  0  0  0  0  0  0  0
  150.3890  139.0302  154.6234 C   0  0  0  0  0  0  0  0  0  0  0  0
  151.0302  140.1232  155.1083 N   0  0  0  0  0  0  0  0  0  0  0  0
  152.0613  139.9392  155.9584 C   0  0  0  0  0  0  0  0  0  0  0  0
  152.5102  138.6682  156.3622 C   0  0  0  0  0  0  0  0  0  0  0  0
  151.8462  137.5332  155.8614 C   0  0  0  0  0  0  0  0  0  0  0  0
  150.7522  137.7110  154.9808 C   0  0  0  0  0  0  0  0  0  0  0  0
  150.0317  136.6305  154.4040 N   0  0  0  0  0  0  0  0  0  0  0  0
  149.6664  135.4756  154.9844 C   0  0  0  0  0  0  0  0  0  0  0  0
  149.8889  135.1695  156.1556 O   0  0  0  0  0  0  0  0  0  0  0  0
  148.9928  134.6976  154.1257 N   0  0  0  0  0  0  0  0  0  0  0  0
  148.3954  133.3983  154.4344 C   0  0  0  0  0  0  0  0  0  0  0  0
  146.8423  133.4092  154.3208 C   0  0  0  0  0  0  0  0  0  0  0  0
  146.3005  132.0551  154.8382 C   0  0  0  0  0  0  0  0  0  0  0  0
  146.3150  134.5392  155.2417 C   0  0  0  0  0  0  0  0  0  0  0  0
  146.4219  133.6735  152.9174 N   0  0  0  0  0  0  0  0  0  0  0  0
  144.9667  133.7838  152.7194 C   0  0  0  0  0  0  0  0  0  0  0  0
  144.6523  134.3091  151.3042 C   0  0  0  0  0  0  0  0  0  0  0  0
  145.2160  133.4259  150.2582 N   0  3  0  0  0  0  0  0  0  0  0  0
  144.4481  132.1772  150.0466 C   0  0  0  0  0  0  0  0  0  0  0  0
  146.6610  133.2093  150.4970 C   0  0  0  0  0  0  0  0  0  0  0  0
  146.9281  132.7056  151.9296 C   0  0  0  0  0  0  0  0  0  0  0  0
  147.7645  140.3953  153.1237 H   0  0  0  0  0  0  0  0  0  0  0  0
  149.1580  141.2972  153.7087 H   0  0  0  0  0  0  0  0  0  0  0  0
  148.0790  140.4686  154.8539 H   0  0  0  0  0  0  0  0  0  0  0  0
  152.5475  140.8322  156.3225 H   0  0  0  0  0  0  0  0  0  0  0  0
  153.3477  138.5665  157.0362 H   0  0  0  0  0  0  0  0  0  0  0  0
  152.1946  136.5523  156.1466 H   0  0  0  0  0  0  0  0  0  0  0  0
  149.6881  136.7901  153.4683 H   0  0  0  0  0  0  0  0  0  0  0  0
  148.8532  135.0435  153.1881 H   0  0  0  0  0  0  0  0  0  0  0  0
  148.8418  132.6525  153.7781 H   0  0  0  0  0  0  0  0  0  0  0  0
  148.6830  133.0725  155.4356 H   0  0  0  0  0  0  0  0  0  0  0  0
  146.6070  131.8896  155.8717 H   0  0  0  0  0  0  0  0  0  0  0  0
  146.6773  131.2104  154.2618 H   0  0  0  0  0  0  0  0  0  0  0  0
  145.2117  132.0103  154.8259 H   0  0  0  0  0  0  0  0  0  0  0  0
  146.7875  134.4970  156.2238 H   0  0  0  0  0  0  0  0  0  0  0  0
  145.2428  134.4665  155.4231 H   0  0  0  0  0  0  0  0  0  0  0  0
  146.5184  135.5283  154.8293 H   0  0  0  0  0  0  0  0  0  0  0  0
  144.4791  132.8232  152.8854 H   0  0  0  0  0  0  0  0  0  0  0  0
  144.5252  134.4861  153.4229 H   0  0  0  0  0  0  0  0  0  0  0  0
  143.5755  134.4116  151.1648 H   0  0  0  0  0  0  0  0  0  0  0  0
  145.0741  135.3081  151.1829 H   0  0  0  0  0  0  0  0  0  0  0  0
  144.4523  131.5393  150.9304 H   0  0  0  0  0  0  0  0  0  0  0  0
  144.8678  131.6084  149.2163 H   0  0  0  0  0  0  0  0  0  0  0  0
  143.4108  132.4054  149.7988 H   0  0  0  0  0  0  0  0  0  0  0  0
  147.0587  132.5066  149.7638 H   0  0  0  0  0  0  0  0  0  0  0  0
  147.1875  134.1514  150.3365 H   0  0  0  0  0  0  0  0  0  0  0  0
  148.0034  132.5720  152.0226 H   0  0  0  0  0  0  0  0  0  0  0  0
  146.4754  131.7254  152.0801 H   0  0  0  0  0  0  0  0  0  0  0  0
  145.1436  133.9336  149.3881 H   0  0  0  0  0  0  0  0  0  0  0  0
  1  2  1  0  0  0  0
  1 24  1  0  0  0  0
  1 25  1  0  0  0  0
  1 26  1  0  0  0  0
  2  3  1  0  0  0  0
  3  8  1  0  0  0  0
  3  4  2  0  0  0  0
  4  5  1  0  0  0  0
  5  6  2  0  0  0  0
  5 27  1  0  0  0  0
  6  7  1  0  0  0  0
  6 28  1  0  0  0  0
  7  8  2  0  0  0  0
  7 29  1  0  0  0  0
  8  9  1  0  0  0  0
  9 10  1  0  0  0  0
  9 30  1  0  0  0  0
 10 11  2  0  0  0  0
 10 12  1  0  0  0  0
 12 13  1  0  0  0  0
 12 31  1  0  0  0  0
 13 14  1  0  0  0  0
 13 32  1  0  0  0  0
 13 33  1  0  0  0  0
 14 15  1  0  0  0  0
 14 16  1  0  0  0  0
 14 17  1  0  0  0  0
 15 34  1  0  0  0  0
 15 35  1  0  0  0  0
 15 36  1  0  0  0  0
 16 37  1  0  0  0  0
 16 38  1  0  0  0  0
 16 39  1  0  0  0  0
 17 23  1  0  0  0  0
 17 18  1  0  0  0  0
 18 19  1  0  0  0  0
 18 40  1  0  0  0  0
 18 41  1  0  0  0  0
 19 20  1  0  0  0  0
 19 42  1  0  0  0  0
 19 43  1  0  0  0  0
 20 21  1  0  0  0  0
 20 22  1  0  0  0  0
 20 51  1  0  0  0  0
 21 44  1  0  0  0  0
 21 45  1  0  0  0  0
 21 46  1  0  0  0  0
 22 23  1  0  0  0  0
 22 47  1  0  0  0  0
 22 48  1  0  0  0  0
 23 49  1  0  0  0  0
 23 50  1  0  0  0  0
M  CHG  1  20   1
M  END
> <s_m_source_file>
AV-unprocessed.smi

> <i_m_source_file_index>
1243

> <i_lp_mmshare_version>
43012

> <i_f3d_flags>
0

> <s_epik_input>
W0NIM11PYzFuW2NIXVtjSF1bY0hdYzFbTkhdQyg9TylbTkhdW0NIMl1DKFtDSDNdKShbQ0gzXSlOMltDSDJdW0NIMl1OKFtDSDNdKVtDSDJdW0NIMl0y

> <s_epik_cmdline>
J2VwaWtfcHl0aG9uJywgJy1waCcsICc3LjAnLCAnLXRuJywgJzgnLCAnLW1hJywgJzIwMCcsICctbWV0YWxfYmluZGluZycsICctaW1hZScsICc8aW5maWxlLm1hZT4nLCAnLW9tYWUnLCAnPG91dGZpbGUubWFlPic=

> <r_lp_tautomer_probability>
1

> <r_epik_Ionization_Penalty>
0.0248754

> <r_epik_Ionization_Penalty_Charging>
0.0238192

> <r_epik_Ionization_Penalty_Neutral>
0.00105626

> <r_epik_State_Penalty>
0.139266

> <r_epik_Charging_Adjusted_Penalty>
0.163085

> <i_epik_Tot_Q>
1

> <i_epik_Tot_abs_Q>
1

> <r_epik_Metal_State_Penalty>
0.139265

> <b_epik_Metal_Only>
0

> <s_lp_Force_Field>
OPLS_2005

> <r_lp_Energy>
29.8064

> <b_lp_Chiralities_Consistent>
1

> <s_lp_Variant>
AV-unprocessed.smi:1243-1

> <Gold.Version>
5.8.1

> <Gold.Id.Protein>
6NUR|6NUR_protein|mol2

> <Gold.PLP.Fitness>
40.3307

> <Gold.PLP.PLP>
-32.0816

> <Gold.PLP.part.hbond>
-4.1276

> <Gold.PLP.part.metal>
0.0000

> <Gold.PLP.part.buried>
-3.1356

> <Gold.PLP.part.nonpolar>
-25.7830

> <Gold.PLP.part.repulsive>
2.1264

> <Gold.PLP.ligand.clash>
0.0000

> <Gold.PLP.ligand.torsion>
0.7153

> <Gold.PLP.Chemscore.Hbond>
3.2118

> <Gold.PLP.Chemscore.CHOScore>
0.0000

> <Gold.PLP.Chemscore.Metal>
0.0000

> <Gold.Chemscore.Hbonds>
donor molecule, donor type, donor heavy atom, donor atom, acceptor molecule, acceptor atom, score
      L1  H     9    30       P1  7948  1.00
      L1  H    12    31       P1  7948  1.00
      L1  H    20    51       P1  7921  0.57
      P1  H  7989  7998       L1     4  1.00

> <Gold.PLP.Chemscore.Internal.Correction>
0.0441

> <Gold.Rescore>
     Score         DG    S(hbond)    S(metal)    S(lipo)     H(rot)  DE(clash)    DE(int)     intcor
     15.74     -17.25       2.30        0.00      72.64       1.72       0.18       1.33       ----

> <Gold.Chemscore.Fitness>
15.7411

> <Gold.Chemscore.DG>
-17.2524

> <Gold.Chemscore.ZeroCoef>
-5.4800

> <Gold.Chemscore.Hbond>
2.2994

> <Gold.Chemscore.Metal>
0.0000

> <Gold.Chemscore.Lipo>
72.6414

> <Gold.Chemscore.Internal_Hbond>
0.0000

> <Gold.Chemscore.DEClash>
0.1801

> <Gold.Chemscore.DEInternal>
1.3312

> <Gold.Chemscore.Rot>
1.7213

> <Gold.Chemscore.Internal.Correction>
   9.000000E+99

> <Gold.Chemscore.Hbonds>
donor molecule, donor type, donor heavy atom, donor atom, acceptor molecule, acceptor atom, score
      L1  H     9    30       P1  7948  0.54
      L1  H    12    31       P1  7948  0.39
      L1  H    20    51       P1  7921  0.50
      P1  H  7989  7998       L1     4  0.19

> <Gold.Chemscore.Hbond.Weighted>
-7.6799

> <Gold.Chemscore.Metal.Weighted>
-0.0000

> <Gold.Chemscore.Lipo.Weighted>
-8.4990

> <Gold.Chemscore.Internal_Hbond.Weighted>
0.0000

> <Gold.Chemscore.DEClash.Weighted>
0.1801

> <Gold.Chemscore.DEInternal.Weighted>
1.3312

> <Gold.Chemscore.Rot.Weighted>
4.4066

> <Gold.Chemscore.Internal.Correction.Weighted>
   9.000000E+99

> <Gold.Protein.RotatedTorsions>
[ 6907 6896 6895 6894 ] final   79.54 input  -60.11 | X-H torsion
[ 7974 7965 7964 7962 ] final -122.64 input  175.53 | X-H torsion
[ 8008 7997 7996 7995 ] final  136.51 input   59.86 | X-H torsion
[ 10167 10162 10161 10158 ] final  -18.08 input  -65.29 | X-H torsion
[ 10718 10713 10712 10709 ] final  -76.55 input   66.30 | X-H torsion
[ 10763 10752 10751 10750 ] final   86.63 input  -60.55 | X-H torsion
[ 11005 11000 10999 10996 ] final  139.42 input  -57.11 | X-H torsion

> <Gold.Protein.ActiveResidues>
 VAL166  LYS551  ARG553  GLY616  TRP617  ASP618  TYR619  PRO620  LYS621  CYS622 
 ASP623  PHE694  ASN695  SER759  ASP760  ASP761  ALA762  ILE779  LEU786  VAL792 
 PHE793  MET794  SER795  GLU796  ALA797  LYS798  CYS799  TRP800  GLU811  SER814 

> <Gold.Protein.RotatedAtoms>
  152.5202  134.3496  159.9245 H   0  0  0  0  0  0  0  0  0  0  0  0  # atno 6907 bound_to 6896
  151.3446  133.3942  159.2682 H   0  0  0  0  0  0  0  0  0  0  0  0  # atno 6908 bound_to 6896
  150.9776  134.9155  159.7883 H   0  0  0  0  0  0  0  0  0  0  0  0  # atno 6909 bound_to 6896
  145.0272  140.8038  143.4345 H   0  0  0  0  0  0  0  0  0  0  0  0  # atno 7974 bound_to 7965
  156.3004  140.2443  156.3758 H   0  0  0  0  0  0  0  0  0  0  0  0  # atno 8008 bound_to 7997
  154.8747  140.0415  157.1765 H   0  0  0  0  0  0  0  0  0  0  0  0  # atno 8009 bound_to 7997
  154.8759  140.2942  155.5458 H   0  0  0  0  0  0  0  0  0  0  0  0  # atno 8010 bound_to 7997
  140.7254  143.4952  150.9940 H   0  0  0  0  0  0  0  0  0  0  0  0  # atno 10167 bound_to 10162
  156.0171  130.4468  150.3211 H   0  0  0  0  0  0  0  0  0  0  0  0  # atno 10718 bound_to 10713
  153.1589  135.4573  154.9743 H   0  0  0  0  0  0  0  0  0  0  0  0  # atno 10763 bound_to 10752
  154.7882  135.3211  154.7840 H   0  0  0  0  0  0  0  0  0  0  0  0  # atno 10764 bound_to 10752
  153.8333  135.6936  153.4866 H   0  0  0  0  0  0  0  0  0  0  0  0  # atno 10765 bound_to 10752
  140.0253  134.9377  157.0556 H   0  0  0  0  0  0  0  0  0  0  0  0  # atno 11005 bound_to 11000
  145.1817  139.2348  143.5289 LP  0  0  0  0  0  0  0  0  0  0  0  0  # atno 17320 bound_to 7965
  146.3494  140.1593  142.8591 LP  0  0  0  0  0  0  0  0  0  0  0  0  # atno 17321 bound_to 7965
  139.8658  143.7255  152.3170 LP  0  0  0  0  0  0  0  0  0  0  0  0  # atno 17342 bound_to 10162
  139.7487  144.7540  151.0540 LP  0  0  0  0  0  0  0  0  0  0  0  0  # atno 17343 bound_to 10162
  157.1311  131.0272  151.2969 LP  0  0  0  0  0  0  0  0  0  0  0  0  # atno 17370 bound_to 10713
  157.4550  130.7620  149.7184 LP  0  0  0  0  0  0  0  0  0  0  0  0  # atno 17371 bound_to 10713
  140.4317  134.1774  155.7168 LP  0  0  0  0  0  0  0  0  0  0  0  0  # atno 17394 bound_to 11000
  141.1799  133.8436  157.1294 LP  0  0  0  0  0  0  0  0  0  0  0  0  # atno 17395 bound_to 11000

$$$$
