AV-unprocessed.smi:3098|AV-procd|sdf|11800|dock6
  -GOLD-   2272017173D 1   1.00000     0.00000
 Structure written by MMmdl.
 30 31  0  0  0  0  0  0  0  0  2 V2000
  149.6659  138.7404  152.8878 N   0  3  0  0  0  0  0  0  0  0  0  0
  150.8153  138.3604  153.7256 C   0  0  0  0  0  0  0  0  0  0  0  0
  150.9867  139.3243  154.8825 C   0  0  0  0  0  0  0  0  0  0  0  0
  152.0676  139.1941  155.7796 C   0  0  0  0  0  0  0  0  0  0  0  0
  152.2645  140.0201  156.8285 N   0  0  0  0  0  0  0  0  0  0  0  0
  151.3820  141.0291  157.0294 C   0  0  0  0  0  0  0  0  0  0  0  0
  151.5879  141.8840  158.1220 N   0  0  0  0  0  0  0  0  0  0  0  0
  152.4516  141.3170  159.1503 C   0  0  0  0  0  0  0  0  0  0  0  0
  152.5136  142.2607  160.3638 C   0  0  0  0  0  0  0  0  0  0  0  0
  152.9458  143.5515  159.9429 O   0  0  0  0  0  0  0  0  0  0  0  0
  152.0559  144.1307  158.9926 C   0  0  0  0  0  0  0  0  0  0  0  0
  151.9820  143.2355  157.7435 C   0  0  0  0  0  0  0  0  0  0  0  0
  150.2713  141.2431  156.1838 C   0  0  0  0  0  0  0  0  0  0  0  0
  149.4073  142.2611  156.4130 F   0  0  0  0  0  0  0  0  0  0  0  0
  150.0722  140.3767  155.0918 C   0  0  0  0  0  0  0  0  0  0  0  0
  148.9050  139.0470  153.4773 H   0  0  0  0  0  0  0  0  0  0  0  0
  149.3680  137.9445  152.3418 H   0  0  0  0  0  0  0  0  0  0  0  0
  150.6669  137.3486  154.1040 H   0  0  0  0  0  0  0  0  0  0  0  0
  151.7184  138.3467  153.1145 H   0  0  0  0  0  0  0  0  0  0  0  0
  152.7916  138.4021  155.6564 H   0  0  0  0  0  0  0  0  0  0  0  0
  152.0739  140.3399  159.4541 H   0  0  0  0  0  0  0  0  0  0  0  0
  153.4543  141.1655  158.7481 H   0  0  0  0  0  0  0  0  0  0  0  0
  151.5402  142.3327  160.8519 H   0  0  0  0  0  0  0  0  0  0  0  0
  153.2144  141.8755  161.1048 H   0  0  0  0  0  0  0  0  0  0  0  0
  151.0679  144.2622  159.4369 H   0  0  0  0  0  0  0  0  0  0  0  0
  152.4196  145.1223  158.7235 H   0  0  0  0  0  0  0  0  0  0  0  0
  152.9535  143.2128  157.2476 H   0  0  0  0  0  0  0  0  0  0  0  0
  151.2642  143.6441  157.0313 H   0  0  0  0  0  0  0  0  0  0  0  0
  149.2303  140.5184  154.4299 H   0  0  0  0  0  0  0  0  0  0  0  0
  149.9334  139.4917  152.2678 H   0  0  0  0  0  0  0  0  0  0  0  0
  1  2  1  0  0  0  0
  1 16  1  0  0  0  0
  1 17  1  0  0  0  0
  1 30  1  0  0  0  0
  2  3  1  0  0  0  0
  2 18  1  0  0  0  0
  2 19  1  0  0  0  0
  3 15  1  0  0  0  0
  3  4  2  0  0  0  0
  4  5  1  0  0  0  0
  4 20  1  0  0  0  0
  5  6  2  0  0  0  0
  6  7  1  0  0  0  0
  6 13  1  0  0  0  0
  7 12  1  0  0  0  0
  7  8  1  0  0  0  0
  8  9  1  0  0  0  0
  8 21  1  0  0  0  0
  8 22  1  0  0  0  0
  9 10  1  0  0  0  0
  9 23  1  0  0  0  0
  9 24  1  0  0  0  0
 10 11  1  0  0  0  0
 11 12  1  0  0  0  0
 11 25  1  0  0  0  0
 11 26  1  0  0  0  0
 12 27  1  0  0  0  0
 12 28  1  0  0  0  0
 13 14  1  0  0  0  0
 13 15  2  0  0  0  0
 15 29  1  0  0  0  0
M  CHG  1   1   1
M  END
> <s_m_source_file>
AV-unprocessed.smi

> <i_m_source_file_index>
3098

> <i_lp_mmshare_version>
43012

> <i_f3d_flags>
0

> <s_epik_input>
W05IMl1bQ0gyXWMxW2NIXW5jKGMoRilbY0hdMSlOMltDSDJdW0NIMl1PW0NIMl1bQ0gyXTI=

> <s_epik_cmdline>
J2VwaWtfcHl0aG9uJywgJy1waCcsICc3LjAnLCAnLXRuJywgJzgnLCAnLW1hJywgJzIwMCcsICctbWV0YWxfYmluZGluZycsICctaW1hZScsICc8aW5maWxlLm1hZT4nLCAnLW9tYWUnLCAnPG91dGZpbGUubWFlPic=

> <r_lp_tautomer_probability>
1

> <r_epik_Ionization_Penalty>
0.06982

> <r_epik_Ionization_Penalty_Charging>
0.0698168

> <r_epik_Ionization_Penalty_Neutral>
3.20429e-06

> <r_epik_State_Penalty>
0.0611812

> <r_epik_Charging_Adjusted_Penalty>
0.130998

> <i_epik_Tot_Q>
1

> <i_epik_Tot_abs_Q>
1

> <r_epik_Metal_State_Penalty>
0.0611834

> <b_epik_Metal_Only>
0

> <s_lp_Force_Field>
OPLS_2005

> <r_lp_Energy>
20.0675

> <b_lp_Chiralities_Consistent>
1

> <s_lp_Variant>
AV-unprocessed.smi:3098-1

> <Gold.Version>
5.8.1

> <Gold.Id.Protein>
6NUR|6NUR_protein|mol2

> <Gold.PLP.Fitness>
41.5833

> <Gold.PLP.PLP>
-30.7126

> <Gold.PLP.part.hbond>
-3.0000

> <Gold.PLP.part.metal>
0.0000

> <Gold.PLP.part.buried>
-3.2364

> <Gold.PLP.part.nonpolar>
-24.8304

> <Gold.PLP.part.repulsive>
0.0985

> <Gold.PLP.ligand.clash>
0.0000

> <Gold.PLP.ligand.torsion>
0.3721

> <Gold.PLP.Chemscore.Hbond>
3.8352

> <Gold.PLP.Chemscore.CHOScore>
0.0000

> <Gold.PLP.Chemscore.Metal>
0.0000

> <Gold.Chemscore.Hbonds>
donor molecule, donor type, donor heavy atom, donor atom, acceptor molecule, acceptor atom, score
      L1  H     1    17       P1  7948  2.00
      L1  H     1    30       P1  7957  0.28
      P1  H  7997  8009       L1     5  0.61

> <Gold.PLP.Chemscore.Internal.Correction>
0.1094

> <Gold.Rescore>
     Score         DG    S(hbond)    S(metal)    S(lipo)     H(rot)  DE(clash)    DE(int)     intcor
     17.01     -17.80       2.00        0.00      77.68       1.34       0.14       0.65       ----

> <Gold.Chemscore.Fitness>
17.0150

> <Gold.Chemscore.DG>
-17.8033

> <Gold.Chemscore.ZeroCoef>
-5.4800

> <Gold.Chemscore.Hbond>
1.9973

> <Gold.Chemscore.Metal>
0.0000

> <Gold.Chemscore.Lipo>
77.6786

> <Gold.Chemscore.Internal_Hbond>
0.0000

> <Gold.Chemscore.DEClash>
0.1431

> <Gold.Chemscore.DEInternal>
0.6451

> <Gold.Chemscore.Rot>
1.3423

> <Gold.Chemscore.Internal.Correction>
   9.000000E+99

> <Gold.Chemscore.Hbonds>
donor molecule, donor type, donor heavy atom, donor atom, acceptor molecule, acceptor atom, score
      L1  H     1    17       P1  7948  0.74
      L1  H     1    30       P1  7957  0.24
      P1  H  7997  8009       L1     5  0.07

> <Gold.Chemscore.Hbond.Weighted>
-6.6711

> <Gold.Chemscore.Metal.Weighted>
-0.0000

> <Gold.Chemscore.Lipo.Weighted>
-9.0884

> <Gold.Chemscore.Internal_Hbond.Weighted>
0.0000

> <Gold.Chemscore.DEClash.Weighted>
0.1431

> <Gold.Chemscore.DEInternal.Weighted>
0.6451

> <Gold.Chemscore.Rot.Weighted>
3.4363

> <Gold.Chemscore.Internal.Correction.Weighted>
   9.000000E+99

> <Gold.Protein.RotatedTorsions>
[ 6907 6896 6895 6894 ] final  101.35 input  -60.11 | X-H torsion
[ 7974 7965 7964 7962 ] final  -43.33 input  175.53 | X-H torsion
[ 8008 7997 7996 7995 ] final -177.62 input   59.86 | X-H torsion
[ 10167 10162 10161 10158 ] final   24.66 input  -65.29 | X-H torsion
[ 10718 10713 10712 10709 ] final   -2.45 input   66.30 | X-H torsion
[ 10763 10752 10751 10750 ] final   46.97 input  -60.55 | X-H torsion
[ 11005 11000 10999 10996 ] final    2.33 input  -57.11 | X-H torsion

> <Gold.Protein.ActiveResidues>
 VAL166  LYS551  ARG553  GLY616  TRP617  ASP618  TYR619  PRO620  LYS621  CYS622 
 ASP623  PHE694  ASN695  SER759  ASP760  ASP761  ALA762  ILE779  LEU786  VAL792 
 PHE793  MET794  SER795  GLU796  ALA797  LYS798  CYS799  TRP800  GLU811  SER814 

> <Gold.Protein.RotatedAtoms>
  152.5351  134.0139  159.7950 H   0  0  0  0  0  0  0  0  0  0  0  0  # atno 6907 bound_to 6896
  151.0336  133.5760  159.2665 H   0  0  0  0  0  0  0  0  0  0  0  0  # atno 6908 bound_to 6896
  151.2756  135.0705  159.9204 H   0  0  0  0  0  0  0  0  0  0  0  0  # atno 6909 bound_to 6896
  146.0030  140.7053  142.9261 H   0  0  0  0  0  0  0  0  0  0  0  0  # atno 7974 bound_to 7965
  156.0091  140.1237  157.0471 H   0  0  0  0  0  0  0  0  0  0  0  0  # atno 8008 bound_to 7997
  154.4269  140.1091  156.5874 H   0  0  0  0  0  0  0  0  0  0  0  0  # atno 8009 bound_to 7997
  155.6105  140.3471  155.4623 H   0  0  0  0  0  0  0  0  0  0  0  0  # atno 8010 bound_to 7997
  140.5170  144.0066  150.6398 H   0  0  0  0  0  0  0  0  0  0  0  0  # atno 10167 bound_to 10162
  156.7907  130.5361  149.5736 H   0  0  0  0  0  0  0  0  0  0  0  0  # atno 10718 bound_to 10713
  152.9805  135.5991  154.3686 H   0  0  0  0  0  0  0  0  0  0  0  0  # atno 10763 bound_to 10752
  154.3362  135.2768  155.2448 H   0  0  0  0  0  0  0  0  0  0  0  0  # atno 10764 bound_to 10752
  154.4550  135.5980  153.6272 H   0  0  0  0  0  0  0  0  0  0  0  0  # atno 10765 bound_to 10752
  140.6055  133.9797  155.8152 H   0  0  0  0  0  0  0  0  0  0  0  0  # atno 11005 bound_to 11000
  144.6926  140.3266  143.7223 LP  0  0  0  0  0  0  0  0  0  0  0  0  # atno 17320 bound_to 7965
  145.7459  139.1778  143.2349 LP  0  0  0  0  0  0  0  0  0  0  0  0  # atno 17321 bound_to 7965
  140.3404  143.3023  152.0594 LP  0  0  0  0  0  0  0  0  0  0  0  0  # atno 17342 bound_to 10162
  139.4912  144.6446  151.6805 LP  0  0  0  0  0  0  0  0  0  0  0  0  # atno 17343 bound_to 10162
  156.1161  130.6076  151.0122 LP  0  0  0  0  0  0  0  0  0  0  0  0  # atno 17370 bound_to 10713
  157.6602  131.0882  150.7856 LP  0  0  0  0  0  0  0  0  0  0  0  0  # atno 17371 bound_to 10713
  141.0844  134.0014  157.3337 LP  0  0  0  0  0  0  0  0  0  0  0  0  # atno 17394 bound_to 11000
  139.9214  135.0200  156.8078 LP  0  0  0  0  0  0  0  0  0  0  0  0  # atno 17395 bound_to 11000

$$$$
