AV-unprocessed.smi:2857|AV-procd|sdf|10998|dock3
  -GOLD-   2272015453D 1   1.00000     0.00000
 Structure written by MMmdl.
 44 46  0  0  0  0  0  0  0  0  1 V2000
  150.9694  144.1846  158.6851 C   0  0  0  0  0  0  0  0  0  0  0  0
  151.8941  143.1003  159.1990 C   0  0  0  0  0  0  0  0  0  0  0  0
  152.5505  143.2505  160.4358 C   0  0  0  0  0  0  0  0  0  0  0  0
  153.4069  142.2376  160.9035 C   0  0  0  0  0  0  0  0  0  0  0  0
  153.6137  141.0707  160.1389 C   0  0  0  0  0  0  0  0  0  0  0  0
  154.5396  139.9876  160.6597 C   0  0  0  0  0  0  0  0  0  0  0  0
  152.9631  140.9078  158.8939 C   0  0  0  0  0  0  0  0  0  0  0  0
  153.2122  139.7444  158.1942 O   0  0  0  0  0  0  0  0  0  0  0  0
  152.3517  139.4108  157.1143 C   0  0  0  0  0  0  0  0  0  0  0  0
  153.1525  138.6519  156.0404 C   0  0  1  0  0  0  0  0  0  0  0  0
  153.4310  137.3541  156.5251 O   0  0  0  0  0  0  0  0  0  0  0  0
  152.4009  138.4853  154.7030 C   0  0  0  0  0  0  0  0  0  0  0  0
  151.1639  137.7299  154.8354 N   0  0  0  0  0  0  0  0  0  0  0  0
  151.2194  136.3851  155.0155 N   0  0  0  0  0  0  0  0  0  0  0  0
  149.9546  135.9765  155.0937 C   0  0  0  0  0  0  0  0  0  0  0  0
  149.0372  137.0548  154.9620 C   0  0  0  0  0  0  0  0  0  0  0  0
  147.5831  137.1816  154.9611 C   0  0  0  0  0  0  0  0  0  0  0  0
  147.0701  138.3612  154.7999 N   0  0  0  0  0  0  0  0  0  0  0  0
  147.8802  139.4896  154.6290 N   0  0  0  0  0  0  0  0  0  0  0  0
  147.1526  140.7442  154.4511 C   0  0  0  0  0  0  0  0  0  0  0  0
  149.2470  139.4794  154.6173 C   0  0  0  0  0  0  0  0  0  0  0  0
  149.9421  140.4827  154.4565 O   0  0  0  0  0  0  0  0  0  0  0  0
  149.8429  138.1340  154.8051 C   0  0  0  0  0  0  0  0  0  0  0  0
  152.1003  141.9357  158.4329 C   0  0  0  0  0  0  0  0  0  0  0  0
  150.7993  144.9534  159.4394 H   0  0  0  0  0  0  0  0  0  0  0  0
  150.0034  143.7605  158.4096 H   0  0  0  0  0  0  0  0  0  0  0  0
  151.4003  144.6597  157.8034 H   0  0  0  0  0  0  0  0  0  0  0  0
  152.4011  144.1403  161.0297 H   0  0  0  0  0  0  0  0  0  0  0  0
  153.9052  142.3611  161.8538 H   0  0  0  0  0  0  0  0  0  0  0  0
  155.3378  139.7934  159.9427 H   0  0  0  0  0  0  0  0  0  0  0  0
  153.9859  139.0615  160.8158 H   0  0  0  0  0  0  0  0  0  0  0  0
  154.9980  140.2737  161.6068 H   0  0  0  0  0  0  0  0  0  0  0  0
  151.4963  138.8211  157.4491 H   0  0  0  0  0  0  0  0  0  0  0  0
  151.9745  140.3447  156.6994 H   0  0  0  0  0  0  0  0  0  0  0  0
  154.0959  139.1673  155.8547 H   0  0  0  0  0  0  0  0  0  0  0  0
  152.6974  136.7939  156.3228 H   0  0  0  0  0  0  0  0  0  0  0  0
  152.1559  139.4660  154.2918 H   0  0  0  0  0  0  0  0  0  0  0  0
  153.0360  138.0018  153.9614 H   0  0  0  0  0  0  0  0  0  0  0  0
  149.7493  134.9259  155.2373 H   0  0  0  0  0  0  0  0  0  0  0  0
  146.9506  136.3037  155.0921 H   0  0  0  0  0  0  0  0  0  0  0  0
  147.3670  141.4299  155.2719 H   0  0  0  0  0  0  0  0  0  0  0  0
  146.0728  140.5898  154.4218 H   0  0  0  0  0  0  0  0  0  0  0  0
  147.4395  141.2286  153.5165 H   0  0  0  0  0  0  0  0  0  0  0  0
  151.5827  141.8547  157.4890 H   0  0  0  0  0  0  0  0  0  0  0  0
  1  2  1  0  0  0  0
  1 25  1  0  0  0  0
  1 26  1  0  0  0  0
  1 27  1  0  0  0  0
  2 24  1  0  0  0  0
  2  3  2  0  0  0  0
  3  4  1  0  0  0  0
  3 28  1  0  0  0  0
  4  5  2  0  0  0  0
  4 29  1  0  0  0  0
  5  6  1  0  0  0  0
  5  7  1  0  0  0  0
  6 30  1  0  0  0  0
  6 31  1  0  0  0  0
  6 32  1  0  0  0  0
  7  8  1  0  0  0  0
  7 24  2  0  0  0  0
  8  9  1  0  0  0  0
  9 10  1  0  0  0  0
  9 33  1  0  0  0  0
  9 34  1  0  0  0  0
 10 11  1  0  0  0  0
 10 12  1  0  0  0  0
 10 35  1  0  0  0  0
 11 36  1  0  0  0  0
 12 13  1  0  0  0  0
 12 37  1  0  0  0  0
 12 38  1  0  0  0  0
 13 23  1  0  0  0  0
 13 14  1  0  0  0  0
 14 15  2  0  0  0  0
 15 16  1  0  0  0  0
 15 39  1  0  0  0  0
 16 23  2  0  0  0  0
 16 17  1  0  0  0  0
 17 18  2  0  0  0  0
 17 40  1  0  0  0  0
 18 19  1  0  0  0  0
 19 20  1  0  0  0  0
 19 21  1  0  0  0  0
 20 41  1  0  0  0  0
 20 42  1  0  0  0  0
 20 43  1  0  0  0  0
 21 22  2  0  0  0  0
 21 23  1  0  0  0  0
 24 44  1  0  0  0  0
M  END
> <s_m_source_file>
AV-unprocessed.smi

> <i_m_source_file_index>
2857

> <i_lp_mmshare_version>
43012

> <i_f3d_flags>
0

> <s_epik_input>
W0NIM11jMVtjSF1bY0hdYyhbQ0gzXSljKFtjSF0xKU9bQ0gyXVtDQEhdKFtPSF0pW0NIMl1uKG5bY0hdMiljKGMyMyljKD1PKW4oW0NIM10pbltjSF0z

> <s_epik_cmdline>
J2VwaWtfcHl0aG9uJywgJy1waCcsICc3LjAnLCAnLXRuJywgJzgnLCAnLW1hJywgJzIwMCcsICctbWV0YWxfYmluZGluZycsICctaW1hZScsICc8aW5maWxlLm1hZT4nLCAnLW9tYWUnLCAnPG91dGZpbGUubWFlPic=

> <r_lp_tautomer_probability>
1

> <r_epik_Ionization_Penalty>
2.24607e-06

> <r_epik_Ionization_Penalty_Charging>
1.42095e-10

> <r_epik_Ionization_Penalty_Neutral>
2.24593e-06

> <r_epik_State_Penalty>
-0

> <r_epik_Charging_Adjusted_Penalty>
1.42095e-10

> <i_epik_Tot_Q>
0

> <i_epik_Tot_abs_Q>
0

> <r_epik_Metal_State_Penalty>
-0

> <b_epik_Metal_Only>
0

> <s_lp_Force_Field>
OPLS_2005

> <r_lp_Energy>
31.6427

> <b_lp_Chiralities_Consistent>
1

> <s_lp_Variant>
AV-unprocessed.smi:2857-2

> <Gold.Version>
5.8.1

> <Gold.Id.Protein>
6NUR|6NUR_protein|mol2

> <Gold.PLP.Fitness>
49.7166

> <Gold.PLP.PLP>
-43.0850

> <Gold.PLP.part.hbond>
-3.4834

> <Gold.PLP.part.metal>
0.0000

> <Gold.PLP.part.buried>
-0.5845

> <Gold.PLP.part.nonpolar>
-38.8007

> <Gold.PLP.part.repulsive>
0.3873

> <Gold.PLP.ligand.clash>
0.0000

> <Gold.PLP.ligand.torsion>
0.6225

> <Gold.PLP.Chemscore.Hbond>
2.6064

> <Gold.PLP.Chemscore.CHOScore>
0.0000

> <Gold.PLP.Chemscore.Metal>
0.0000

> <Gold.Chemscore.Hbonds>
donor molecule, donor type, donor heavy atom, donor atom, acceptor molecule, acceptor atom, score
      P1  H  7989  7998       L1    22  0.85
      P1  H  7997  8008       L1     8  0.88
      P1  H 10752 10764       L1    14  1.00

> <Gold.PLP.Chemscore.Internal.Correction>
0.0573

> <Gold.Rescore>
     Score         DG    S(hbond)    S(metal)    S(lipo)     H(rot)  DE(clash)    DE(int)     intcor
     17.22     -20.64       1.90        0.00     126.07       2.32       1.48       1.94       ----

> <Gold.Chemscore.Fitness>
17.2204

> <Gold.Chemscore.DG>
-20.6374

> <Gold.Chemscore.ZeroCoef>
-5.4800

> <Gold.Chemscore.Hbond>
1.9030

> <Gold.Chemscore.Metal>
0.0000

> <Gold.Chemscore.Lipo>
126.0669

> <Gold.Chemscore.Internal_Hbond>
0.0000

> <Gold.Chemscore.DEClash>
1.4800

> <Gold.Chemscore.DEInternal>
1.9371

> <Gold.Chemscore.Rot>
2.3236

> <Gold.Chemscore.Internal.Correction>
   9.000000E+99

> <Gold.Chemscore.Hbonds>
donor molecule, donor type, donor heavy atom, donor atom, acceptor molecule, acceptor atom, score
      P1  H  7989  7998       L1    22  0.82
      P1  H  7997  8008       L1     8  0.12
      P1  H 10752 10764       L1    14  0.88

> <Gold.Chemscore.Hbond.Weighted>
-6.3560

> <Gold.Chemscore.Metal.Weighted>
-0.0000

> <Gold.Chemscore.Lipo.Weighted>
-14.7498

> <Gold.Chemscore.Internal_Hbond.Weighted>
0.0000

> <Gold.Chemscore.DEClash.Weighted>
1.4800

> <Gold.Chemscore.DEInternal.Weighted>
1.9371

> <Gold.Chemscore.Rot.Weighted>
5.9484

> <Gold.Chemscore.Internal.Correction.Weighted>
   9.000000E+99

> <Gold.Protein.RotatedTorsions>
[ 6907 6896 6895 6894 ] final   94.54 input  -60.11 | X-H torsion
[ 7974 7965 7964 7962 ] final  150.75 input  175.53 | X-H torsion
[ 8008 7997 7996 7995 ] final -106.27 input   59.86 | X-H torsion
[ 10167 10162 10161 10158 ] final  -56.85 input  -65.29 | X-H torsion
[ 10718 10713 10712 10709 ] final    8.26 input   66.30 | X-H torsion
[ 10763 10752 10751 10750 ] final  -62.84 input  -60.55 | X-H torsion
[ 11005 11000 10999 10996 ] final  118.15 input  -57.11 | X-H torsion

> <Gold.Protein.ActiveResidues>
 VAL166  LYS551  ARG553  GLY616  TRP617  ASP618  TYR619  PRO620  LYS621  CYS622 
 ASP623  PHE694  ASN695  SER759  ASP760  ASP761  ALA762  ILE779  LEU786  VAL792 
 PHE793  MET794  SER795  GLU796  ALA797  LYS798  CYS799  TRP800  GLU811  SER814 

> <Gold.Protein.RotatedAtoms>
  152.5449  134.1178  159.8385 H   0  0  0  0  0  0  0  0  0  0  0  0  # atno 6907 bound_to 6896
  151.1238  133.5078  159.2608 H   0  0  0  0  0  0  0  0  0  0  0  0  # atno 6908 bound_to 6896
  151.1750  135.0345  159.8822 H   0  0  0  0  0  0  0  0  0  0  0  0  # atno 6909 bound_to 6896
  144.8342  139.6449  143.6045 H   0  0  0  0  0  0  0  0  0  0  0  0  # atno 7974 bound_to 7965
  154.9121  140.0409  157.1952 H   0  0  0  0  0  0  0  0  0  0  0  0  # atno 8008 bound_to 7997
  154.8338  140.2903  155.5683 H   0  0  0  0  0  0  0  0  0  0  0  0  # atno 8009 bound_to 7997
  156.2988  140.2496  156.3268 H   0  0  0  0  0  0  0  0  0  0  0  0  # atno 8010 bound_to 7997
  140.6293  143.2452  151.5283 H   0  0  0  0  0  0  0  0  0  0  0  0  # atno 10167 bound_to 10162
  156.9490  130.5890  149.5656 H   0  0  0  0  0  0  0  0  0  0  0  0  # atno 10718 bound_to 10713
  154.3060  135.6225  153.5445 H   0  0  0  0  0  0  0  0  0  0  0  0  # atno 10763 bound_to 10752
  152.9835  135.5690  154.5231 H   0  0  0  0  0  0  0  0  0  0  0  0  # atno 10764 bound_to 10752
  154.4871  135.2865  155.1502 H   0  0  0  0  0  0  0  0  0  0  0  0  # atno 10765 bound_to 10752
  139.9099  134.9617  156.7460 H   0  0  0  0  0  0  0  0  0  0  0  0  # atno 11005 bound_to 11000
  146.2642  139.6480  142.9341 LP  0  0  0  0  0  0  0  0  0  0  0  0  # atno 17320 bound_to 7965
  145.4831  141.0438  143.2634 LP  0  0  0  0  0  0  0  0  0  0  0  0  # atno 17321 bound_to 7965
  139.5509  144.2398  152.1528 LP  0  0  0  0  0  0  0  0  0  0  0  0  # atno 17342 bound_to 10162
  140.1638  144.5001  150.6617 LP  0  0  0  0  0  0  0  0  0  0  0  0  # atno 17343 bound_to 10162
  156.0371  130.5457  150.8680 LP  0  0  0  0  0  0  0  0  0  0  0  0  # atno 17370 bound_to 10713
  157.5734  131.0946  150.9382 LP  0  0  0  0  0  0  0  0  0  0  0  0  # atno 17371 bound_to 10713
  140.6812  133.9473  155.7911 LP  0  0  0  0  0  0  0  0  0  0  0  0  # atno 17394 bound_to 11000
  141.0509  134.0486  157.3785 LP  0  0  0  0  0  0  0  0  0  0  0  0  # atno 17395 bound_to 11000

$$$$
