AV-unprocessed.smi:34|AV-procd|sdf|229|dock8
  -GOLD-   2262015563D 1   1.00000     0.00000
 Structure written by MMmdl.
 55 59  0  0  0  0  0  0  0  0  1 V2000
  151.5745  139.4993  158.0517 O   0  0  0  0  0  0  0  0  0  0  0  0
  151.0639  140.5214  157.5923 C   0  0  0  0  0  0  0  0  0  0  0  0
  150.0491  140.4804  156.5545 N   0  0  0  0  0  0  0  0  0  0  0  0
  149.4738  139.3924  155.9913 C   0  0  0  0  0  0  0  0  0  0  0  0
  150.0640  138.1683  156.0021 N   0  0  0  0  0  0  0  0  0  0  0  0
  149.4576  137.1252  155.4291 C   0  0  0  0  0  0  0  0  0  0  0  0
  148.2801  137.0888  154.8033 N   0  0  0  0  0  0  0  0  0  0  0  0
  147.6757  138.3112  154.7920 C   0  0  0  0  0  0  0  0  0  0  0  0
  148.2051  139.5016  155.3644 C   0  0  0  0  0  0  0  0  0  0  0  0
  147.3203  140.5531  155.1656 N   0  0  0  0  0  0  0  0  0  0  0  0
  146.3298  140.0124  154.5089 C   0  0  0  0  0  0  0  0  0  0  0  0
  146.4625  138.6691  154.2353 N   0  0  0  0  0  0  0  0  0  0  0  0
  145.4958  137.8014  153.4883 C   0  0  2  0  0  0  0  0  0  0  0  0
  145.4797  136.5164  154.0385 O   0  0  0  0  0  0  0  0  0  0  0  0
  145.4513  135.5176  153.0135 C   0  0  2  0  0  0  0  0  0  0  0  0
  146.7781  134.7419  153.0387 C   0  0  0  0  0  0  0  0  0  0  0  0
  146.4975  133.3514  153.0504 O   0  0  0  0  0  0  0  0  0  0  0  0
  147.4531  132.4685  153.4016 C   0  0  0  0  0  0  0  0  0  0  0  0
  148.5160  132.7883  153.9379 O   0  0  0  0  0  0  0  0  0  0  0  0
  147.0835  131.0590  153.0851 C   0  0  0  0  0  0  0  0  0  0  0  0
  147.9447  130.0103  153.4843 C   0  0  0  0  0  0  0  0  0  0  0  0
  147.6191  128.6689  153.2039 C   0  0  0  0  0  0  0  0  0  0  0  0
  146.4285  128.3599  152.5210 C   0  0  0  0  0  0  0  0  0  0  0  0
  145.5638  129.3940  152.1184 C   0  0  0  0  0  0  0  0  0  0  0  0
  145.8873  130.7359  152.3985 C   0  0  0  0  0  0  0  0  0  0  0  0
  145.2210  136.3059  151.7193 C   0  0  2  0  0  0  0  0  0  0  0  0
  145.6814  135.7233  150.6107 F   0  0  0  0  0  0  0  0  0  0  0  0
  145.8379  137.6628  151.9996 C   0  0  2  0  0  0  0  0  0  0  0  0
  147.2301  137.6956  151.7354 O   0  0  0  0  0  0  0  0  0  0  0  0
  151.5226  141.8882  158.0085 C   0  0  0  0  0  0  0  0  0  0  0  0
  151.0809  143.0277  157.2993 C   0  0  0  0  0  0  0  0  0  0  0  0
  151.5145  144.3138  157.6755 C   0  0  0  0  0  0  0  0  0  0  0  0
  152.4009  144.4702  158.7578 C   0  0  0  0  0  0  0  0  0  0  0  0
  152.8562  143.3393  159.4614 C   0  0  0  0  0  0  0  0  0  0  0  0
  152.4222  142.0525  159.0873 C   0  0  0  0  0  0  0  0  0  0  0  0
  149.7391  141.3754  156.2054 H   0  0  0  0  0  0  0  0  0  0  0  0
  149.9916  136.1873  155.4766 H   0  0  0  0  0  0  0  0  0  0  0  0
  145.4691  140.5860  154.1966 H   0  0  0  0  0  0  0  0  0  0  0  0
  144.5214  138.2643  153.6509 H   0  0  0  0  0  0  0  0  0  0  0  0
  144.6236  134.8285  153.1856 H   0  0  0  0  0  0  0  0  0  0  0  0
  147.3688  134.9705  152.1512 H   0  0  0  0  0  0  0  0  0  0  0  0
  147.3728  135.0286  153.9059 H   0  0  0  0  0  0  0  0  0  0  0  0
  148.8633  130.2234  154.0114 H   0  0  0  0  0  0  0  0  0  0  0  0
  148.2839  127.8765  153.5147 H   0  0  0  0  0  0  0  0  0  0  0  0
  146.1785  127.3313  152.3063 H   0  0  0  0  0  0  0  0  0  0  0  0
  144.6494  129.1583  151.5945 H   0  0  0  0  0  0  0  0  0  0  0  0
  145.2010  131.5052  152.0764 H   0  0  0  0  0  0  0  0  0  0  0  0
  144.1473  136.4321  151.5721 H   0  0  0  0  0  0  0  0  0  0  0  0
  145.3565  138.4607  151.4333 H   0  0  0  0  0  0  0  0  0  0  0  0
  147.6293  136.9386  152.1363 H   0  0  0  0  0  0  0  0  0  0  0  0
  150.4012  142.9239  156.4659 H   0  0  0  0  0  0  0  0  0  0  0  0
  151.1668  145.1800  157.1325 H   0  0  0  0  0  0  0  0  0  0  0  0
  152.7339  145.4566  159.0454 H   0  0  0  0  0  0  0  0  0  0  0  0
  153.5413  143.4581  160.2879 H   0  0  0  0  0  0  0  0  0  0  0  0
  152.7901  141.1970  159.6350 H   0  0  0  0  0  0  0  0  0  0  0  0
  1  2  2  0  0  0  0
  2  3  1  0  0  0  0
  2 30  1  0  0  0  0
  3  4  1  0  0  0  0
  3 36  1  0  0  0  0
  4  9  1  0  0  0  0
  4  5  2  0  0  0  0
  5  6  1  0  0  0  0
  6  7  2  0  0  0  0
  6 37  1  0  0  0  0
  7  8  1  0  0  0  0
  8 12  1  0  0  0  0
  8  9  2  0  0  0  0
  9 10  1  0  0  0  0
 10 11  2  0  0  0  0
 11 12  1  0  0  0  0
 11 38  1  0  0  0  0
 12 13  1  0  0  0  0
 13 28  1  0  0  0  0
 13 14  1  0  0  0  0
 13 39  1  0  0  0  0
 14 15  1  0  0  0  0
 15 16  1  0  0  0  0
 15 26  1  0  0  0  0
 15 40  1  0  0  0  0
 16 17  1  0  0  0  0
 16 41  1  0  0  0  0
 16 42  1  0  0  0  0
 17 18  1  0  0  0  0
 18 19  2  0  0  0  0
 18 20  1  0  0  0  0
 20 25  1  0  0  0  0
 20 21  2  0  0  0  0
 21 22  1  0  0  0  0
 21 43  1  0  0  0  0
 22 23  2  0  0  0  0
 22 44  1  0  0  0  0
 23 24  1  0  0  0  0
 23 45  1  0  0  0  0
 24 25  2  0  0  0  0
 24 46  1  0  0  0  0
 25 47  1  0  0  0  0
 26 27  1  0  0  0  0
 26 28  1  0  0  0  0
 26 48  1  0  0  0  0
 28 29  1  0  0  0  0
 28 49  1  0  0  0  0
 29 50  1  0  0  0  0
 30 35  1  0  0  0  0
 30 31  2  0  0  0  0
 31 32  1  0  0  0  0
 31 51  1  0  0  0  0
 32 33  2  0  0  0  0
 32 52  1  0  0  0  0
 33 34  1  0  0  0  0
 33 53  1  0  0  0  0
 34 35  2  0  0  0  0
 34 54  1  0  0  0  0
 35 55  1  0  0  0  0
M  END
> <s_m_source_file>
AV-unprocessed.smi

> <i_m_source_file_index>
34

> <i_lp_mmshare_version>
43012

> <i_f3d_flags>
0

> <s_epik_input>
W2NIXTFbY0hdW2NIXVtjSF1bY0hdYzFDKD1PKVtOSF1jKG5bY0hdbjIpYyhjMjMpbltjSF1uM1tDQEBIXTRPW0NASF0oW0NAQEhdKEYpW0NASF00W09IXSlbQ0gyXU9DKD1PKWM1W2NIXVtjSF1bY0hdW2NIXVtjSF01

> <s_epik_cmdline>
J2VwaWtfcHl0aG9uJywgJy1waCcsICc3LjAnLCAnLXRuJywgJzgnLCAnLW1hJywgJzIwMCcsICctbWV0YWxfYmluZGluZycsICctaW1hZScsICc8aW5maWxlLm1hZT4nLCAnLW9tYWUnLCAnPG91dGZpbGUubWFlPic=

> <r_lp_tautomer_probability>
1

> <r_epik_Ionization_Penalty>
0.00257489

> <r_epik_Ionization_Penalty_Charging>
0

> <r_epik_Ionization_Penalty_Neutral>
0.00257489

> <r_epik_State_Penalty>
0.00519398

> <r_epik_Charging_Adjusted_Penalty>
0.00519398

> <i_epik_Tot_Q>
0

> <i_epik_Tot_abs_Q>
0

> <r_epik_Metal_State_Penalty>
0.335891

> <b_epik_Metal_Only>
0

> <s_epik_Chemistry_Notes>
This compound has an ester and may undergo hydrolysis at high or low pH. This compound contains an acetal/aminal-like group ( X-CH(R)-Y where X, Y are N, S, or O) that may be acid/base labile, releasing an aldehyde.

> <s_lp_Force_Field>
OPLS_2005

> <r_lp_Energy>
55.6649

> <b_lp_Chiralities_Consistent>
1

> <s_lp_Variant>
AV-unprocessed.smi:34-15

> <Gold.Version>
5.8.1

> <Gold.Id.Protein>
6NUR|6NUR_protein|mol2

> <Gold.PLP.Fitness>
52.8281

> <Gold.PLP.PLP>
-48.0190

> <Gold.PLP.part.hbond>
-1.2163

> <Gold.PLP.part.metal>
0.0000

> <Gold.PLP.part.buried>
-1.4718

> <Gold.PLP.part.nonpolar>
-46.5331

> <Gold.PLP.part.repulsive>
1.2275

> <Gold.PLP.ligand.clash>
0.0000

> <Gold.PLP.ligand.torsion>
1.7518

> <Gold.PLP.Chemscore.Hbond>
1.6953

> <Gold.PLP.Chemscore.CHOScore>
1.0000

> <Gold.PLP.Chemscore.Metal>
0.0000

> <Gold.Chemscore.Hbonds>
donor molecule, donor type, donor heavy atom, donor atom, acceptor molecule, acceptor atom, score
      L1  H    29    50       P1  7948  0.57
      P1  H  7954  7966       L1    29  0.91
      L1  C    11    38       P1 10175  1.00

> <Gold.PLP.Chemscore.Internal.Correction>
0.2271

> <Gold.Rescore>
     Score         DG    S(hbond)    S(metal)    S(lipo)     H(rot)  DE(clash)    DE(int)     intcor
     11.63     -16.52       0.83        0.00     130.31       2.72       0.70       4.19       ----

> <Gold.Chemscore.Fitness>
11.6319

> <Gold.Chemscore.DG>
-16.5238

> <Gold.Chemscore.ZeroCoef>
-5.4800

> <Gold.Chemscore.Hbond>
0.8278

> <Gold.Chemscore.Metal>
0.0000

> <Gold.Chemscore.Lipo>
130.3074

> <Gold.Chemscore.Internal_Hbond>
0.0000

> <Gold.Chemscore.DEClash>
0.7001

> <Gold.Chemscore.DEInternal>
4.1918

> <Gold.Chemscore.Rot>
2.7215

> <Gold.Chemscore.Internal.Correction>
   9.000000E+99

> <Gold.Chemscore.Hbonds>
donor molecule, donor type, donor heavy atom, donor atom, acceptor molecule, acceptor atom, score
      L1  H    29    50       P1  7948  0.54
      P1  H  7954  7966       L1    29  0.39

> <Gold.Chemscore.Hbond.Weighted>
-2.7649

> <Gold.Chemscore.Metal.Weighted>
-0.0000

> <Gold.Chemscore.Lipo.Weighted>
-15.2460

> <Gold.Chemscore.Internal_Hbond.Weighted>
0.0000

> <Gold.Chemscore.DEClash.Weighted>
0.7001

> <Gold.Chemscore.DEInternal.Weighted>
4.1918

> <Gold.Chemscore.Rot.Weighted>
6.9670

> <Gold.Chemscore.Internal.Correction.Weighted>
   9.000000E+99

> <Gold.Protein.RotatedTorsions>
[ 6907 6896 6895 6894 ] final   91.82 input  -60.11 | X-H torsion
[ 7974 7965 7964 7962 ] final  127.89 input  175.53 | X-H torsion
[ 8008 7997 7996 7995 ] final  160.37 input   59.86 | X-H torsion
[ 10167 10162 10161 10158 ] final   99.27 input  -65.29 | X-H torsion
[ 10718 10713 10712 10709 ] final  174.13 input   66.30 | X-H torsion
[ 10763 10752 10751 10750 ] final -123.00 input  -60.55 | X-H torsion
[ 11005 11000 10999 10996 ] final  -53.85 input  -57.11 | X-H torsion

> <Gold.Protein.ActiveResidues>
 VAL166  LYS551  ARG553  GLY616  TRP617  ASP618  TYR619  PRO620  LYS621  CYS622 
 ASP623  PHE694  ASN695  SER759  ASP760  ASP761  ALA762  ILE779  LEU786  VAL792 
 PHE793  MET794  SER795  GLU796  ALA797  LYS798  CYS799  TRP800  GLU811  SER814 

> <Gold.Protein.RotatedAtoms>
  152.5451  134.1598  159.8552 H   0  0  0  0  0  0  0  0  0  0  0  0  # atno 6907 bound_to 6896
  151.1617  133.4834  159.2601 H   0  0  0  0  0  0  0  0  0  0  0  0  # atno 6908 bound_to 6896
  151.1366  135.0169  159.8662 H   0  0  0  0  0  0  0  0  0  0  0  0  # atno 6909 bound_to 6896
  145.0456  139.3926  143.5080 H   0  0  0  0  0  0  0  0  0  0  0  0  # atno 7974 bound_to 7965
  156.2177  140.1806  156.7551 H   0  0  0  0  0  0  0  0  0  0  0  0  # atno 8008 bound_to 7997
  154.5816  140.0665  156.9142 H   0  0  0  0  0  0  0  0  0  0  0  0  # atno 8009 bound_to 7997
  155.2492  140.3327  155.4286 H   0  0  0  0  0  0  0  0  0  0  0  0  # atno 8010 bound_to 7997
  139.7632  144.6947  151.0261 H   0  0  0  0  0  0  0  0  0  0  0  0  # atno 10167 bound_to 10162
  156.9541  131.0040  151.2942 H   0  0  0  0  0  0  0  0  0  0  0  0  # atno 10718 bound_to 10713
  154.8700  135.4113  154.2872 H   0  0  0  0  0  0  0  0  0  0  0  0  # atno 10763 bound_to 10752
  153.3754  135.7009  153.6611 H   0  0  0  0  0  0  0  0  0  0  0  0  # atno 10764 bound_to 10752
  153.5455  135.3639  155.2709 H   0  0  0  0  0  0  0  0  0  0  0  0  # atno 10765 bound_to 10752
  141.0997  133.6619  156.4233 H   0  0  0  0  0  0  0  0  0  0  0  0  # atno 11005 bound_to 11000
  146.3513  140.0079  142.8670 LP  0  0  0  0  0  0  0  0  0  0  0  0  # atno 17320 bound_to 7965
  145.1592  140.9664  143.4387 LP  0  0  0  0  0  0  0  0  0  0  0  0  # atno 17321 bound_to 7965
  140.7809  143.4672  151.0195 LP  0  0  0  0  0  0  0  0  0  0  0  0  # atno 17342 bound_to 10162
  139.8358  143.7630  152.3180 LP  0  0  0  0  0  0  0  0  0  0  0  0  # atno 17343 bound_to 10162
  157.5702  130.8305  149.8382 LP  0  0  0  0  0  0  0  0  0  0  0  0  # atno 17370 bound_to 10713
  156.0350  130.3754  150.1584 LP  0  0  0  0  0  0  0  0  0  0  0  0  # atno 17371 bound_to 10713
  140.5053  134.6446  157.5264 LP  0  0  0  0  0  0  0  0  0  0  0  0  # atno 17394 bound_to 11000
  139.9844  134.7085  155.9801 LP  0  0  0  0  0  0  0  0  0  0  0  0  # atno 17395 bound_to 11000

$$$$
