AV-unprocessed.smi:534|AV-procd|sdf|2857|dock1
  -GOLD-   2262023343D 1   1.00000     0.00000
 Structure written by MMmdl.
 39 40  0  0  0  0  0  0  0  0  2 V2000
  151.4784  144.7814  160.3141 C   0  0  0  0  0  0  0  0  0  0  0  0
  151.7426  143.4669  160.7707 O   0  0  0  0  0  0  0  0  0  0  0  0
  153.0262  143.0046  160.3827 C   0  0  0  0  0  0  0  0  0  0  0  0
  153.4414  141.8516  161.3043 C   0  0  0  0  0  0  0  0  0  0  0  0
  153.5501  140.6035  160.5742 N   0  0  0  0  0  0  0  0  0  0  0  0
  153.0776  140.2148  159.3267 C   0  0  0  0  0  0  0  0  0  0  0  0
  152.3526  140.9893  158.5181 N   0  0  0  0  0  0  0  0  0  0  0  0
  152.1058  140.1519  157.4385 C   0  0  0  0  0  0  0  0  0  0  0  0
  152.6686  138.9271  157.6247 C   0  0  0  0  0  0  0  0  0  0  0  0
  152.5555  137.8113  156.6614 C   0  0  0  0  0  0  0  0  0  0  0  0
  153.0710  136.7192  156.8927 O   0  0  0  0  0  0  0  0  0  0  0  0
  151.8303  138.1598  155.5516 N   0  5  0  0  0  0  0  0  0  0  0  0
  151.2460  139.3866  155.3181 C   0  0  0  0  0  0  0  0  0  0  0  0
  150.6037  139.6157  154.2922 O   0  0  0  0  0  0  0  0  0  0  0  0
  151.3729  140.3895  156.2438 N   0  0  0  0  0  0  0  0  0  0  0  0
  150.7594  141.7025  156.0240 C   0  0  0  0  0  0  0  0  0  0  0  0
  153.3182  138.9647  158.8608 N   0  0  0  0  0  0  0  0  0  0  0  0
  154.0638  137.8984  159.5235 C   0  0  0  0  0  0  0  0  0  0  0  0
  155.4656  138.3596  159.9481 C   0  0  0  0  0  0  0  0  0  0  0  0
  155.9665  139.2927  159.0035 O   0  0  0  0  0  0  0  0  0  0  0  0
  157.2677  139.7493  159.3241 C   0  0  0  0  0  0  0  0  0  0  0  0
  150.4915  145.0951  160.6540 H   0  0  0  0  0  0  0  0  0  0  0  0
  151.4888  144.8277  159.2243 H   0  0  0  0  0  0  0  0  0  0  0  0
  152.2106  145.4900  160.7027 H   0  0  0  0  0  0  0  0  0  0  0  0
  153.0269  142.6812  159.3400 H   0  0  0  0  0  0  0  0  0  0  0  0
  153.7444  143.8209  160.4707 H   0  0  0  0  0  0  0  0  0  0  0  0
  154.4092  142.0693  161.7567 H   0  0  0  0  0  0  0  0  0  0  0  0
  152.7268  141.7349  162.1192 H   0  0  0  0  0  0  0  0  0  0  0  0
  153.9283  139.8478  161.1269 H   0  0  0  0  0  0  0  0  0  0  0  0
  151.1014  142.1343  155.0825 H   0  0  0  0  0  0  0  0  0  0  0  0
  151.0008  142.4159  156.8115 H   0  0  0  0  0  0  0  0  0  0  0  0
  149.6733  141.6123  155.9842 H   0  0  0  0  0  0  0  0  0  0  0  0
  153.4976  137.5444  160.3840 H   0  0  0  0  0  0  0  0  0  0  0  0
  154.1398  137.0403  158.8555 H   0  0  0  0  0  0  0  0  0  0  0  0
  155.4242  138.8152  160.9387 H   0  0  0  0  0  0  0  0  0  0  0  0
  156.1346  137.5005  160.0121 H   0  0  0  0  0  0  0  0  0  0  0  0
  157.6043  140.4557  158.5656 H   0  0  0  0  0  0  0  0  0  0  0  0
  157.9792  138.9232  159.3558 H   0  0  0  0  0  0  0  0  0  0  0  0
  157.2792  140.2601  160.2879 H   0  0  0  0  0  0  0  0  0  0  0  0
  1  2  1  0  0  0  0
  1 22  1  0  0  0  0
  1 23  1  0  0  0  0
  1 24  1  0  0  0  0
  2  3  1  0  0  0  0
  3  4  1  0  0  0  0
  3 25  1  0  0  0  0
  3 26  1  0  0  0  0
  4  5  1  0  0  0  0
  4 27  1  0  0  0  0
  4 28  1  0  0  0  0
  5  6  1  0  0  0  0
  5 29  1  0  0  0  0
  6 17  1  0  0  0  0
  6  7  2  0  0  0  0
  7  8  1  0  0  0  0
  8 15  1  0  0  0  0
  8  9  2  0  0  0  0
  9 10  1  0  0  0  0
  9 17  1  0  0  0  0
 10 11  2  0  0  0  0
 10 12  1  0  0  0  0
 12 13  1  0  0  0  0
 13 14  2  0  0  0  0
 13 15  1  0  0  0  0
 15 16  1  0  0  0  0
 16 30  1  0  0  0  0
 16 31  1  0  0  0  0
 16 32  1  0  0  0  0
 17 18  1  0  0  0  0
 18 19  1  0  0  0  0
 18 33  1  0  0  0  0
 18 34  1  0  0  0  0
 19 20  1  0  0  0  0
 19 35  1  0  0  0  0
 19 36  1  0  0  0  0
 20 21  1  0  0  0  0
 21 37  1  0  0  0  0
 21 38  1  0  0  0  0
 21 39  1  0  0  0  0
M  CHG  1  12  -1
M  END
> <s_m_source_file>
AV-unprocessed.smi

> <i_m_source_file_index>
534

> <i_lp_mmshare_version>
43012

> <i_f3d_flags>
0

> <s_epik_input>
W0NIM11PW0NIMl1bQ0gyXVtOSF1jKG4xKW4oW0NIMl1bQ0gyXU9bQ0gzXSljKGMxMiljKD1PKVtuSF1jKD1PKW4yW0NIM10=

> <s_epik_cmdline>
J2VwaWtfcHl0aG9uJywgJy1waCcsICc3LjAnLCAnLXRuJywgJzgnLCAnLW1hJywgJzIwMCcsICctbWV0YWxfYmluZGluZycsICctaW1hZScsICc8aW5maWxlLm1hZT4nLCAnLW9tYWUnLCAnPG91dGZpbGUubWFlPic=

> <r_lp_tautomer_probability>
1

> <r_epik_Ionization_Penalty>
5.88862

> <r_epik_Ionization_Penalty_Charging>
1.42184e-08

> <r_epik_Ionization_Penalty_Neutral>
5.88862

> <r_epik_State_Penalty>
5.88846

> <r_epik_Charging_Adjusted_Penalty>
5.88846

> <i_epik_Tot_Q>
-1

> <i_epik_Tot_abs_Q>
1

> <r_epik_Metal_State_Penalty>
1.85033

> <b_epik_Metal_Only>
1

> <s_lp_Force_Field>
OPLS_2005

> <r_lp_Energy>
24.5539

> <b_lp_Chiralities_Consistent>
1

> <s_lp_Variant>
AV-unprocessed.smi:534-2

> <Gold.Version>
5.8.1

> <Gold.Id.Protein>
6NUR|6NUR_protein|mol2

> <Gold.PLP.Fitness>
42.3272

> <Gold.PLP.PLP>
-34.8333

> <Gold.PLP.part.hbond>
-3.3735

> <Gold.PLP.part.metal>
0.0000

> <Gold.PLP.part.buried>
-5.6103

> <Gold.PLP.part.nonpolar>
-26.3606

> <Gold.PLP.part.repulsive>
0.3631

> <Gold.PLP.ligand.clash>
0.0000

> <Gold.PLP.ligand.torsion>
0.7742

> <Gold.PLP.Chemscore.Hbond>
2.9600

> <Gold.PLP.Chemscore.CHOScore>
0.0000

> <Gold.PLP.Chemscore.Metal>
0.0000

> <Gold.Chemscore.Hbonds>
donor molecule, donor type, donor heavy atom, donor atom, acceptor molecule, acceptor atom, score
      P1  H  7989  7998       L1    14  1.00
      P1  H  7997  8009       L1    20  1.00
      P1  H 10752 10765       L1    11  0.83

> <Gold.PLP.Chemscore.Internal.Correction>
0.1622

> <Gold.Rescore>
     Score         DG    S(hbond)    S(metal)    S(lipo)     H(rot)  DE(clash)    DE(int)     intcor
     11.96     -14.16       2.32        0.00      60.63       2.40       0.11       2.09       ----

> <Gold.Chemscore.Fitness>
11.9570

> <Gold.Chemscore.DG>
-14.1580

> <Gold.Chemscore.ZeroCoef>
-5.4800

> <Gold.Chemscore.Hbond>
2.3150

> <Gold.Chemscore.Metal>
0.0000

> <Gold.Chemscore.Lipo>
60.6322

> <Gold.Chemscore.Internal_Hbond>
0.0000

> <Gold.Chemscore.DEClash>
0.1086

> <Gold.Chemscore.DEInternal>
2.0924

> <Gold.Chemscore.Rot>
2.4016

> <Gold.Chemscore.Internal.Correction>
   9.000000E+99

> <Gold.Chemscore.Hbonds>
donor molecule, donor type, donor heavy atom, donor atom, acceptor molecule, acceptor atom, score
      P1  H  7989  7998       L1    14  0.35
      P1  H  7997  8009       L1    20  0.81
      P1  H 10752 10765       L1    11  0.78

> <Gold.Chemscore.Hbond.Weighted>
-7.7321

> <Gold.Chemscore.Metal.Weighted>
-0.0000

> <Gold.Chemscore.Lipo.Weighted>
-7.0940

> <Gold.Chemscore.Internal_Hbond.Weighted>
0.0000

> <Gold.Chemscore.DEClash.Weighted>
0.1086

> <Gold.Chemscore.DEInternal.Weighted>
2.0924

> <Gold.Chemscore.Rot.Weighted>
6.1481

> <Gold.Chemscore.Internal.Correction.Weighted>
   9.000000E+99

> <Gold.Protein.RotatedTorsions>
[ 6907 6896 6895 6894 ] final  128.78 input  -60.11 | X-H torsion
[ 7974 7965 7964 7962 ] final  -88.52 input  175.53 | X-H torsion
[ 8008 7997 7996 7995 ] final  109.10 input   59.86 | X-H torsion
[ 10167 10162 10161 10158 ] final  -38.75 input  -65.29 | X-H torsion
[ 10718 10713 10712 10709 ] final  171.99 input   66.30 | X-H torsion
[ 10763 10752 10751 10750 ] final -121.10 input  -60.55 | X-H torsion
[ 11005 11000 10999 10996 ] final  -84.59 input  -57.11 | X-H torsion

> <Gold.Protein.ActiveResidues>
 VAL166  LYS551  ARG553  GLY616  TRP617  ASP618  TYR619  PRO620  LYS621  CYS622 
 ASP623  PHE694  ASN695  SER759  ASP760  ASP761  ALA762  ILE779  LEU786  VAL792 
 PHE793  MET794  SER795  GLU796  ALA797  LYS798  CYS799  TRP800  GLU811  SER814 

> <Gold.Protein.RotatedAtoms>
  152.3687  133.6390  159.6069 H   0  0  0  0  0  0  0  0  0  0  0  0  # atno 6907 bound_to 6896
  150.7653  133.9306  159.3434 H   0  0  0  0  0  0  0  0  0  0  0  0  # atno 6908 bound_to 6896
  151.7132  135.0910  160.0322 H   0  0  0  0  0  0  0  0  0  0  0  0  # atno 6909 bound_to 6896
  145.4521  140.9561  143.2016 H   0  0  0  0  0  0  0  0  0  0  0  0  # atno 7974 bound_to 7965
  156.1953  140.3064  155.9415 H   0  0  0  0  0  0  0  0  0  0  0  0  # atno 8008 bound_to 7997
  155.3079  140.0449  157.3050 H   0  0  0  0  0  0  0  0  0  0  0  0  # atno 8009 bound_to 7997
  154.5502  140.2289  155.8506 H   0  0  0  0  0  0  0  0  0  0  0  0  # atno 8010 bound_to 7997
  140.7083  143.3257  151.2686 H   0  0  0  0  0  0  0  0  0  0  0  0  # atno 10167 bound_to 10162
  156.9855  131.0132  151.2870 H   0  0  0  0  0  0  0  0  0  0  0  0  # atno 10718 bound_to 10713
  154.8660  135.4179  154.2566 H   0  0  0  0  0  0  0  0  0  0  0  0  # atno 10763 bound_to 10752
  153.3502  135.6998  153.6800 H   0  0  0  0  0  0  0  0  0  0  0  0  # atno 10764 bound_to 10752
  153.5743  135.3585  155.2823 H   0  0  0  0  0  0  0  0  0  0  0  0  # atno 10765 bound_to 10752
  141.1649  133.7354  156.8891 H   0  0  0  0  0  0  0  0  0  0  0  0  # atno 11005 bound_to 11000
  144.8055  139.6059  143.7053 LP  0  0  0  0  0  0  0  0  0  0  0  0  # atno 17320 bound_to 7965
  146.2498  139.6176  142.9434 LP  0  0  0  0  0  0  0  0  0  0  0  0  # atno 17321 bound_to 7965
  139.6724  143.9996  152.2761 LP  0  0  0  0  0  0  0  0  0  0  0  0  # atno 17342 bound_to 10162
  139.9599  144.6565  150.8089 LP  0  0  0  0  0  0  0  0  0  0  0  0  # atno 17343 bound_to 10162
  157.5496  130.8173  149.8128 LP  0  0  0  0  0  0  0  0  0  0  0  0  # atno 17370 bound_to 10713
  156.0227  130.3790  150.1913 LP  0  0  0  0  0  0  0  0  0  0  0  0  # atno 17371 bound_to 10713
  140.1661  134.9132  157.2776 LP  0  0  0  0  0  0  0  0  0  0  0  0  # atno 17394 bound_to 11000
  140.2555  134.3632  155.7426 LP  0  0  0  0  0  0  0  0  0  0  0  0  # atno 17395 bound_to 11000

$$$$
