AV-unprocessed.smi:2528|AV-procd|sdf|9953|dock9
  -GOLD-   2272013593D 1   1.00000     0.00000
 Structure written by MMmdl.
 44 46  0  0  0  0  0  0  0  0  2 V2000
  146.6184  139.4301  154.1236 O   0  0  0  0  0  0  0  0  0  0  0  0
  147.3751  138.6491  153.5455 C   0  0  0  0  0  0  0  0  0  0  0  0
  146.9472  137.7105  152.6888 N   0  0  0  0  0  0  0  0  0  0  0  0
  145.5531  137.4978  152.3142 C   0  0  0  0  0  0  0  0  0  0  0  0
  145.2572  136.0184  152.0096 C   0  0  1  0  0  0  0  0  0  0  0  0
  145.4097  135.7034  150.5051 C   0  0  0  0  0  0  0  0  0  0  0  0
  145.2349  134.2563  150.2314 N   0  3  2  0  0  0  0  0  0  0  0  0
  143.8117  133.8198  150.2448 C   0  0  0  0  0  0  0  0  0  0  0  0
  143.6797  132.3316  149.8912 C   0  0  0  0  0  0  0  0  0  0  0  0
  144.5130  131.4726  150.8488 C   0  0  0  0  0  0  0  0  0  0  0  0
  145.9771  131.9317  150.8189 C   0  0  0  0  0  0  0  0  0  0  0  0
  146.1289  133.4419  151.1005 C   0  0  2  0  0  0  0  0  0  0  0  0
  145.9414  133.8223  152.5844 C   0  0  0  0  0  0  0  0  0  0  0  0
  146.1770  135.2163  152.7451 O   0  0  0  0  0  0  0  0  0  0  0  0
  148.7124  138.6156  153.6798 N   0  0  0  0  0  0  0  0  0  0  0  0
  149.5340  139.4484  154.4857 C   0  0  0  0  0  0  0  0  0  0  0  0
  150.8170  138.9285  154.7705 C   0  0  0  0  0  0  0  0  0  0  0  0
  151.7090  139.6791  155.5610 C   0  0  0  0  0  0  0  0  0  0  0  0
  151.2939  140.9317  156.0475 C   0  0  0  0  0  0  0  0  0  0  0  0
  149.9995  141.3748  155.7193 C   0  0  0  0  0  0  0  0  0  0  0  0
  149.1429  140.6570  154.9620 N   0  0  0  0  0  0  0  0  0  0  0  0
  147.6326  137.1064  152.2591 H   0  0  0  0  0  0  0  0  0  0  0  0
  144.9051  137.8569  153.1156 H   0  0  0  0  0  0  0  0  0  0  0  0
  145.3332  138.1127  151.4411 H   0  0  0  0  0  0  0  0  0  0  0  0
  144.2409  135.7876  152.3312 H   0  0  0  0  0  0  0  0  0  0  0  0
  144.7020  136.2850  149.9129 H   0  0  0  0  0  0  0  0  0  0  0  0
  146.4059  135.9962  150.1703 H   0  0  0  0  0  0  0  0  0  0  0  0
  143.3626  134.0012  151.2212 H   0  0  0  0  0  0  0  0  0  0  0  0
  143.2463  134.4146  149.5266 H   0  0  0  0  0  0  0  0  0  0  0  0
  142.6328  132.0298  149.9358 H   0  0  0  0  0  0  0  0  0  0  0  0
  144.0077  132.1650  148.8643 H   0  0  0  0  0  0  0  0  0  0  0  0
  144.1145  131.5492  151.8610 H   0  0  0  0  0  0  0  0  0  0  0  0
  144.4440  130.4216  150.5668 H   0  0  0  0  0  0  0  0  0  0  0  0
  146.5668  131.3530  151.5307 H   0  0  0  0  0  0  0  0  0  0  0  0
  146.3929  131.7112  149.8346 H   0  0  0  0  0  0  0  0  0  0  0  0
  147.1530  133.7096  150.8351 H   0  0  0  0  0  0  0  0  0  0  0  0
  144.9466  133.5649  152.9498 H   0  0  0  0  0  0  0  0  0  0  0  0
  146.6548  133.2789  153.2040 H   0  0  0  0  0  0  0  0  0  0  0  0
  149.2012  137.9200  153.1358 H   0  0  0  0  0  0  0  0  0  0  0  0
  151.1203  137.9649  154.3873 H   0  0  0  0  0  0  0  0  0  0  0  0
  152.6941  139.2996  155.7890 H   0  0  0  0  0  0  0  0  0  0  0  0
  151.9494  141.5365  156.6564 H   0  0  0  0  0  0  0  0  0  0  0  0
  149.6412  142.3301  156.0740 H   0  0  0  0  0  0  0  0  0  0  0  0
  145.5494  134.1067  149.2831 H   0  0  0  0  0  0  0  0  0  0  0  0
  1  2  2  0  0  0  0
  2  3  1  0  0  0  0
  2 15  1  0  0  0  0
  3  4  1  0  0  0  0
  3 22  1  0  0  0  0
  4  5  1  0  0  0  0
  4 23  1  0  0  0  0
  4 24  1  0  0  0  0
  5 14  1  0  0  0  0
  5  6  1  0  0  0  0
  5 25  1  0  0  0  0
  6  7  1  0  0  0  0
  6 26  1  0  0  0  0
  6 27  1  0  0  0  0
  7 12  1  0  0  0  0
  7  8  1  0  0  0  0
  7 44  1  0  0  0  0
  8  9  1  0  0  0  0
  8 28  1  0  0  0  0
  8 29  1  0  0  0  0
  9 10  1  0  0  0  0
  9 30  1  0  0  0  0
  9 31  1  0  0  0  0
 10 11  1  0  0  0  0
 10 32  1  0  0  0  0
 10 33  1  0  0  0  0
 11 12  1  0  0  0  0
 11 34  1  0  0  0  0
 11 35  1  0  0  0  0
 12 13  1  0  0  0  0
 12 36  1  0  0  0  0
 13 14  1  0  0  0  0
 13 37  1  0  0  0  0
 13 38  1  0  0  0  0
 15 16  1  0  0  0  0
 15 39  1  0  0  0  0
 16 21  1  0  0  0  0
 16 17  2  0  0  0  0
 17 18  1  0  0  0  0
 17 40  1  0  0  0  0
 18 19  2  0  0  0  0
 18 41  1  0  0  0  0
 19 20  1  0  0  0  0
 19 42  1  0  0  0  0
 20 21  2  0  0  0  0
 20 43  1  0  0  0  0
M  CHG  1   7   1
M  END
> <s_m_source_file>
AV-unprocessed.smi

> <i_m_source_file_index>
2528

> <i_lp_mmshare_version>
43012

> <i_f3d_flags>
0

> <s_epik_input>
bjFbY0hdW2NIXVtjSF1bY0hdYzFbTkhdQyg9TylbTkhdW0NIMl1bQ0BIXShbQ0gyXTIpT1tDSDJdW0NAQEhdKE4yMylbQ0gyXVtDSDJdW0NIMl1bQ0gyXTM=

> <s_epik_cmdline>
J2VwaWtfcHl0aG9uJywgJy1waCcsICc3LjAnLCAnLXRuJywgJzgnLCAnLW1hJywgJzIwMCcsICctbWV0YWxfYmluZGluZycsICctaW1hZScsICc8aW5maWxlLm1hZT4nLCAnLW9tYWUnLCAnPG91dGZpbGUubWFlPic=

> <r_epik_Ionization_Penalty>
0.0932337

> <r_epik_Ionization_Penalty_Charging>
0.0931942

> <r_epik_Ionization_Penalty_Neutral>
3.9565e-05

> <r_epik_State_Penalty>
0.0834605

> <r_epik_Charging_Adjusted_Penalty>
0.176655

> <i_epik_Tot_Q>
1

> <i_epik_Tot_abs_Q>
1

> <r_epik_Metal_State_Penalty>
0.0834607

> <b_epik_Metal_Only>
0

> <s_lp_Force_Field>
OPLS_2005

> <r_lp_Energy>
28.0088

> <b_lp_Chiralities_Consistent>
1

> <s_lp_Variant>
AV-unprocessed.smi:2528-6

> <Gold.Version>
5.8.1

> <Gold.Id.Protein>
6NUR|6NUR_protein|mol2

> <Gold.PLP.Fitness>
49.2842

> <Gold.PLP.PLP>
-39.2293

> <Gold.PLP.part.hbond>
-4.0000

> <Gold.PLP.part.metal>
0.0000

> <Gold.PLP.part.buried>
-1.0356

> <Gold.PLP.part.nonpolar>
-35.1722

> <Gold.PLP.part.repulsive>
1.2032

> <Gold.PLP.ligand.clash>
0.0000

> <Gold.PLP.ligand.torsion>
0.7061

> <Gold.PLP.Chemscore.Hbond>
2.8219

> <Gold.PLP.Chemscore.CHOScore>
1.0000

> <Gold.PLP.Chemscore.Metal>
0.0000

> <Gold.Chemscore.Hbonds>
donor molecule, donor type, donor heavy atom, donor atom, acceptor molecule, acceptor atom, score
      L1  H     3    22       P1  7948  1.00
      L1  H     7    44       P1  7921  0.99
      L1  H    15    39       P1  7948  0.76
      L1  C    20    43       P1  8028  0.97

> <Gold.PLP.Chemscore.Internal.Correction>
0.0014

> <Gold.Rescore>
     Score         DG    S(hbond)    S(metal)    S(lipo)     H(rot)  DE(clash)    DE(int)     intcor
     20.48     -22.97       2.83        0.00      96.86       1.29       0.57       1.91       ----

> <Gold.Chemscore.Fitness>
20.4833

> <Gold.Chemscore.DG>
-22.9676

> <Gold.Chemscore.ZeroCoef>
-5.4800

> <Gold.Chemscore.Hbond>
2.8292

> <Gold.Chemscore.Metal>
0.0000

> <Gold.Chemscore.Lipo>
96.8626

> <Gold.Chemscore.Internal_Hbond>
0.0000

> <Gold.Chemscore.DEClash>
0.5723

> <Gold.Chemscore.DEInternal>
1.9120

> <Gold.Chemscore.Rot>
1.2870

> <Gold.Chemscore.Internal.Correction>
   9.000000E+99

> <Gold.Chemscore.Hbonds>
donor molecule, donor type, donor heavy atom, donor atom, acceptor molecule, acceptor atom, score
      L1  H     3    22       P1  7948  0.99
      L1  H     7    44       P1  7921  0.70
      L1  H    15    39       P1  7948  0.71

> <Gold.Chemscore.Hbond.Weighted>
-9.4495

> <Gold.Chemscore.Metal.Weighted>
-0.0000

> <Gold.Chemscore.Lipo.Weighted>
-11.3329

> <Gold.Chemscore.Internal_Hbond.Weighted>
0.0000

> <Gold.Chemscore.DEClash.Weighted>
0.5723

> <Gold.Chemscore.DEInternal.Weighted>
1.9120

> <Gold.Chemscore.Rot.Weighted>
3.2948

> <Gold.Chemscore.Internal.Correction.Weighted>
   9.000000E+99

> <Gold.Protein.RotatedTorsions>
[ 6907 6896 6895 6894 ] final   91.69 input  -60.11 | X-H torsion
[ 7974 7965 7964 7962 ] final   84.81 input  175.53 | X-H torsion
[ 8008 7997 7996 7995 ] final   18.10 input   59.86 | X-H torsion
[ 10167 10162 10161 10158 ] final  -31.39 input  -65.29 | X-H torsion
[ 10718 10713 10712 10709 ] final  137.27 input   66.30 | X-H torsion
[ 10763 10752 10751 10750 ] final  -74.53 input  -60.55 | X-H torsion
[ 11005 11000 10999 10996 ] final -116.79 input  -57.11 | X-H torsion

> <Gold.Protein.ActiveResidues>
 VAL166  LYS551  ARG553  GLY616  TRP617  ASP618  TYR619  PRO620  LYS621  CYS622 
 ASP623  PHE694  ASN695  SER759  ASP760  ASP761  ALA762  ILE779  LEU786  VAL792 
 PHE793  MET794  SER795  GLU796  ALA797  LYS798  CYS799  TRP800  GLU811  SER814 

> <Gold.Protein.RotatedAtoms>
  152.5451  134.1618  159.8560 H   0  0  0  0  0  0  0  0  0  0  0  0  # atno 6907 bound_to 6896
  151.1636  133.4822  159.2601 H   0  0  0  0  0  0  0  0  0  0  0  0  # atno 6908 bound_to 6896
  151.1348  135.0160  159.8654 H   0  0  0  0  0  0  0  0  0  0  0  0  # atno 6909 bound_to 6896
  145.5938  139.2342  143.2284 H   0  0  0  0  0  0  0  0  0  0  0  0  # atno 7974 bound_to 7965
  154.9010  140.3000  155.5317 H   0  0  0  0  0  0  0  0  0  0  0  0  # atno 8008 bound_to 7997
  156.3018  140.2407  156.3973 H   0  0  0  0  0  0  0  0  0  0  0  0  # atno 8009 bound_to 7997
  154.8521  140.0409  157.1599 H   0  0  0  0  0  0  0  0  0  0  0  0  # atno 8010 bound_to 7997
  140.7237  143.3774  151.1663 H   0  0  0  0  0  0  0  0  0  0  0  0  # atno 10167 bound_to 10162
  157.4378  131.1055  151.0177 H   0  0  0  0  0  0  0  0  0  0  0  0  # atno 10718 bound_to 10713
  154.4743  135.5861  153.6344 H   0  0  0  0  0  0  0  0  0  0  0  0  # atno 10763 bound_to 10752
  152.9839  135.6074  154.3327 H   0  0  0  0  0  0  0  0  0  0  0  0  # atno 10764 bound_to 10752
  154.3212  135.2843  155.2498 H   0  0  0  0  0  0  0  0  0  0  0  0  # atno 10765 bound_to 10752
  141.0399  133.9852  157.3012 H   0  0  0  0  0  0  0  0  0  0  0  0  # atno 11005 bound_to 11000
  146.1627  140.6763  142.9270 LP  0  0  0  0  0  0  0  0  0  0  0  0  # atno 17320 bound_to 7965
  144.7340  140.4754  143.6917 LP  0  0  0  0  0  0  0  0  0  0  0  0  # atno 17321 bound_to 7965
  139.7357  143.9002  152.3034 LP  0  0  0  0  0  0  0  0  0  0  0  0  # atno 17342 bound_to 10162
  139.8807  144.7019  150.8881 LP  0  0  0  0  0  0  0  0  0  0  0  0  # atno 17343 bound_to 10162
  157.1051  130.5998  149.5469 LP  0  0  0  0  0  0  0  0  0  0  0  0  # atno 17370 bound_to 10713
  155.9937  130.4999  150.7391 LP  0  0  0  0  0  0  0  0  0  0  0  0  # atno 17371 bound_to 10713
  139.9268  135.0201  156.8261 LP  0  0  0  0  0  0  0  0  0  0  0  0  # atno 17394 bound_to 11000
  140.6254  133.9955  155.7637 LP  0  0  0  0  0  0  0  0  0  0  0  0  # atno 17395 bound_to 11000

$$$$
