AV-unprocessed.smi:688|AV-procd|sdf|3354|dock8
  -GOLD-   22720 0333D 1   1.00000     0.00000
 Structure written by MMmdl.
 36 37  0  0  0  0  0  0  0  0  1 V2000
  149.3086  132.9661  157.7391 O   0  0  0  0  0  0  0  0  0  0  0  0
  149.6325  133.8876  156.9925 C   0  0  0  0  0  0  0  0  0  0  0  0
  150.8688  134.5185  157.1615 N   0  0  0  0  0  0  0  0  0  0  0  0
  151.3562  135.5711  156.3860 C   0  0  0  0  0  0  0  0  0  0  0  0
  152.4597  136.0577  156.6342 O   0  0  0  0  0  0  0  0  0  0  0  0
  150.5256  136.0261  155.3359 N   0  0  0  0  0  0  0  0  0  0  0  0
  150.9974  137.1211  154.5224 C   0  0  0  0  0  0  0  0  0  0  0  0
  151.1326  138.4490  155.3010 C   0  0  2  0  0  0  0  0  0  0  0  0
  150.8220  139.5066  154.4144 O   0  0  0  0  0  0  0  0  0  0  0  0
  152.5715  138.6744  155.7950 C   0  0  0  0  0  0  0  0  0  0  0  0
  152.6477  139.9278  156.4541 O   0  0  0  0  0  0  0  0  0  0  0  0
  151.6688  140.0756  157.4706 C   0  0  0  0  0  0  0  0  0  0  0  0
  151.5729  141.5044  157.9721 C   0  0  0  0  0  0  0  0  0  0  0  0
  150.9259  142.4932  157.2000 C   0  0  0  0  0  0  0  0  0  0  0  0
  150.8557  143.8213  157.6639 C   0  0  0  0  0  0  0  0  0  0  0  0
  151.4386  144.1688  158.8981 C   0  0  0  0  0  0  0  0  0  0  0  0
  151.3529  145.7957  159.4665 Cl  0  0  0  0  0  0  0  0  0  0  0  0
  152.0944  143.1876  159.6667 C   0  0  0  0  0  0  0  0  0  0  0  0
  152.1641  141.8593  159.2031 C   0  0  0  0  0  0  0  0  0  0  0  0
  149.2874  135.4352  155.1367 C   0  0  0  0  0  0  0  0  0  0  0  0
  148.8197  134.4162  155.8975 C   0  0  0  0  0  0  0  0  0  0  0  0
  147.2643  133.7319  155.5870 Cl  0  0  0  0  0  0  0  0  0  0  0  0
  151.4578  134.1862  157.9113 H   0  0  0  0  0  0  0  0  0  0  0  0
  151.9470  136.7983  154.0897 H   0  0  0  0  0  0  0  0  0  0  0  0
  150.3080  137.2100  153.6805 H   0  0  0  0  0  0  0  0  0  0  0  0
  150.4496  138.4657  156.1513 H   0  0  0  0  0  0  0  0  0  0  0  0
  149.9884  139.8740  154.6651 H   0  0  0  0  0  0  0  0  0  0  0  0
  152.8399  137.8995  156.5147 H   0  0  0  0  0  0  0  0  0  0  0  0
  153.2860  138.6106  154.9721 H   0  0  0  0  0  0  0  0  0  0  0  0
  150.6956  139.7613  157.0899 H   0  0  0  0  0  0  0  0  0  0  0  0
  151.9110  139.4318  158.3174 H   0  0  0  0  0  0  0  0  0  0  0  0
  150.4803  142.2381  156.2495 H   0  0  0  0  0  0  0  0  0  0  0  0
  150.3554  144.5729  157.0707 H   0  0  0  0  0  0  0  0  0  0  0  0
  152.5458  143.4515  160.6118 H   0  0  0  0  0  0  0  0  0  0  0  0
  152.6721  141.1135  159.7968 H   0  0  0  0  0  0  0  0  0  0  0  0
  148.6600  135.8047  154.3380 H   0  0  0  0  0  0  0  0  0  0  0  0
  1  2  2  0  0  0  0
  2 21  1  0  0  0  0
  2  3  1  0  0  0  0
  3 23  1  0  0  0  0
  3  4  1  0  0  0  0
  4  5  2  0  0  0  0
  4  6  1  0  0  0  0
  6  7  1  0  0  0  0
  6 20  1  0  0  0  0
  7  8  1  0  0  0  0
  7 24  1  0  0  0  0
  7 25  1  0  0  0  0
  8  9  1  0  0  0  0
  8 10  1  0  0  0  0
  8 26  1  0  0  0  0
  9 27  1  0  0  0  0
 10 11  1  0  0  0  0
 10 28  1  0  0  0  0
 10 29  1  0  0  0  0
 11 12  1  0  0  0  0
 12 13  1  0  0  0  0
 12 30  1  0  0  0  0
 12 31  1  0  0  0  0
 13 19  1  0  0  0  0
 13 14  2  0  0  0  0
 14 15  1  0  0  0  0
 14 32  1  0  0  0  0
 15 16  2  0  0  0  0
 15 33  1  0  0  0  0
 16 17  1  0  0  0  0
 16 18  1  0  0  0  0
 18 19  2  0  0  0  0
 18 34  1  0  0  0  0
 19 35  1  0  0  0  0
 20 21  2  0  0  0  0
 20 36  1  0  0  0  0
 21 22  1  0  0  0  0
M  END
> <s_m_source_file>
AV-unprocessed.smi

> <i_m_source_file_index>
688

> <i_lp_mmshare_version>
43012

> <i_f3d_flags>
0

> <s_epik_input>
Tz1jMVtuSF1jKD1PKW4oW2NIXWMxQ2wpW0NIMl1bQ0BIXShbT0hdKVtDSDJdT1tDSDJdYzJbY0hdW2NIXWMoQ2wpW2NIXVtjSF0y

> <s_epik_cmdline>
J2VwaWtfcHl0aG9uJywgJy1waCcsICc3LjAnLCAnLXRuJywgJzgnLCAnLW1hJywgJzIwMCcsICctbWV0YWxfYmluZGluZycsICctaW1hZScsICc8aW5maWxlLm1hZT4nLCAnLW9tYWUnLCAnPG91dGZpbGUubWFlPic=

> <r_lp_tautomer_probability>
0.999537

> <r_epik_Ionization_Penalty>
0.0280571

> <r_epik_Ionization_Penalty_Charging>
0.028057

> <r_epik_Ionization_Penalty_Neutral>
6.25502e-08

> <r_epik_State_Penalty>
0.0230008

> <r_epik_Charging_Adjusted_Penalty>
0.0510579

> <i_epik_Tot_Q>
0

> <i_epik_Tot_abs_Q>
0

> <r_epik_Metal_State_Penalty>
2.1942

> <b_epik_Metal_Only>
0

> <s_lp_Force_Field>
OPLS_2005

> <r_lp_Energy>
17.1949

> <b_lp_Chiralities_Consistent>
1

> <s_lp_Variant>
AV-unprocessed.smi:688-1

> <Gold.Version>
5.8.1

> <Gold.Id.Protein>
6NUR|6NUR_protein|mol2

> <Gold.PLP.Fitness>
48.7041

> <Gold.PLP.PLP>
-38.3791

> <Gold.PLP.part.hbond>
-3.0000

> <Gold.PLP.part.metal>
0.0000

> <Gold.PLP.part.buried>
-1.4251

> <Gold.PLP.part.nonpolar>
-33.6226

> <Gold.PLP.part.repulsive>
0.1984

> <Gold.PLP.ligand.clash>
0.0000

> <Gold.PLP.ligand.torsion>
0.7759

> <Gold.PLP.Chemscore.Hbond>
3.0000

> <Gold.PLP.Chemscore.CHOScore>
0.9388

> <Gold.PLP.Chemscore.Metal>
0.0000

> <Gold.Chemscore.Hbonds>
donor molecule, donor type, donor heavy atom, donor atom, acceptor molecule, acceptor atom, score
      P1  H  6896  6909       L1     1  0.01
      P1  H  7989  7998       L1     9  1.00
      P1  H  7997  8010       L1    11  0.90
      P1  H 10752 10765       L1     5  0.75
      L1  C    20    36       P1  7948  1.00

> <Gold.PLP.Chemscore.Internal.Correction>
0.0604

> <Gold.Rescore>
     Score         DG    S(hbond)    S(metal)    S(lipo)     H(rot)  DE(clash)    DE(int)     intcor
     17.69     -20.05       2.86        0.00     107.32       2.94       0.13       2.23       ----

> <Gold.Chemscore.Fitness>
17.6894

> <Gold.Chemscore.DG>
-20.0504

> <Gold.Chemscore.ZeroCoef>
-5.4800

> <Gold.Chemscore.Hbond>
2.8584

> <Gold.Chemscore.Metal>
0.0000

> <Gold.Chemscore.Lipo>
107.3242

> <Gold.Chemscore.Internal_Hbond>
0.0000

> <Gold.Chemscore.DEClash>
0.1261

> <Gold.Chemscore.DEInternal>
2.2349

> <Gold.Chemscore.Rot>
2.9429

> <Gold.Chemscore.Internal.Correction>
   9.000000E+99

> <Gold.Chemscore.Hbonds>
donor molecule, donor type, donor heavy atom, donor atom, acceptor molecule, acceptor atom, score
      P1  H  7989  7998       L1     9  0.45
      P1  H  7997  8010       L1    11  0.18
      P1  H 10752 10765       L1     5  0.09

> <Gold.Chemscore.Hbond.Weighted>
-9.5472

> <Gold.Chemscore.Metal.Weighted>
-0.0000

> <Gold.Chemscore.Lipo.Weighted>
-12.5569

> <Gold.Chemscore.Internal_Hbond.Weighted>
0.0000

> <Gold.Chemscore.DEClash.Weighted>
0.1261

> <Gold.Chemscore.DEInternal.Weighted>
2.2349

> <Gold.Chemscore.Rot.Weighted>
7.5337

> <Gold.Chemscore.Internal.Correction.Weighted>
   9.000000E+99

> <Gold.Protein.RotatedTorsions>
[ 6907 6896 6895 6894 ] final   23.82 input  -60.11 | X-H torsion
[ 7974 7965 7964 7962 ] final  -46.62 input  175.53 | X-H torsion
[ 8008 7997 7996 7995 ] final   76.73 input   59.86 | X-H torsion
[ 10167 10162 10161 10158 ] final    5.57 input  -65.29 | X-H torsion
[ 10718 10713 10712 10709 ] final   84.43 input   66.30 | X-H torsion
[ 10763 10752 10751 10750 ] final -145.12 input  -60.55 | X-H torsion
[ 11005 11000 10999 10996 ] final   -9.55 input  -57.11 | X-H torsion

> <Gold.Protein.ActiveResidues>
 VAL166  LYS551  ARG553  GLY616  TRP617  ASP618  TYR619  PRO620  LYS621  CYS622 
 ASP623  PHE694  ASN695  SER759  ASP760  ASP761  ALA762  ILE779  LEU786  VAL792 
 PHE793  MET794  SER795  GLU796  ALA797  LYS798  CYS799  TRP800  GLU811  SER814 

> <Gold.Protein.RotatedAtoms>
  151.9482  135.0181  160.0540 H   0  0  0  0  0  0  0  0  0  0  0  0  # atno 6907 bound_to 6896
  152.1976  133.4813  159.5049 H   0  0  0  0  0  0  0  0  0  0  0  0  # atno 6908 bound_to 6896
  150.6948  134.1549  159.4197 H   0  0  0  0  0  0  0  0  0  0  0  0  # atno 6909 bound_to 6896
  145.9701  140.7392  142.9415 H   0  0  0  0  0  0  0  0  0  0  0  0  # atno 7974 bound_to 7965
  155.8315  140.3466  155.5575 H   0  0  0  0  0  0  0  0  0  0  0  0  # atno 8008 bound_to 7997
  155.8237  140.0916  157.1854 H   0  0  0  0  0  0  0  0  0  0  0  0  # atno 8009 bound_to 7997
  154.4004  140.1425  156.3517 H   0  0  0  0  0  0  0  0  0  0  0  0  # atno 8010 bound_to 7997
  140.6475  143.7626  150.7522 H   0  0  0  0  0  0  0  0  0  0  0  0  # atno 10167 bound_to 10162
  157.6898  131.0133  150.2672 H   0  0  0  0  0  0  0  0  0  0  0  0  # atno 10718 bound_to 10713
  154.8398  135.3422  154.6453 H   0  0  0  0  0  0  0  0  0  0  0  0  # atno 10763 bound_to 10752
  153.7065  135.6966  153.5053 H   0  0  0  0  0  0  0  0  0  0  0  0  # atno 10764 bound_to 10752
  153.2483  135.4361  155.0725 H   0  0  0  0  0  0  0  0  0  0  0  0  # atno 10765 bound_to 10752
  140.7353  133.8715  155.8925 H   0  0  0  0  0  0  0  0  0  0  0  0  # atno 11005 bound_to 11000
  144.6835  140.2734  143.7302 LP  0  0  0  0  0  0  0  0  0  0  0  0  # atno 17320 bound_to 7965
  145.7919  139.1930  143.2098 LP  0  0  0  0  0  0  0  0  0  0  0  0  # atno 17321 bound_to 7965
  140.1270  143.4560  152.2278 LP  0  0  0  0  0  0  0  0  0  0  0  0  # atno 17342 bound_to 10162
  139.5687  144.7450  151.3951 LP  0  0  0  0  0  0  0  0  0  0  0  0  # atno 17343 bound_to 10162
  156.3241  130.3790  149.7549 LP  0  0  0  0  0  0  0  0  0  0  0  0  # atno 17370 bound_to 10713
  156.5109  130.8172  151.3168 LP  0  0  0  0  0  0  0  0  0  0  0  0  # atno 17371 bound_to 10713
  140.9885  134.1311  157.4430 LP  0  0  0  0  0  0  0  0  0  0  0  0  # atno 17394 bound_to 11000
  139.8817  135.0033  156.6178 LP  0  0  0  0  0  0  0  0  0  0  0  0  # atno 17395 bound_to 11000

$$$$
