AV-unprocessed.smi:3187|AV-procd|sdf|12175|dock8
  -GOLD-   2272018 13D 1   1.00000     0.00000
 Structure written by MMmdl.
 41 42  0  0  0  0  0  0  0  0  2 V2000
  151.8019  145.2561  158.8377 C   0  0  0  0  0  0  0  0  0  0  0  0
  152.2000  144.2070  159.8632 C   0  0  0  0  0  0  0  0  0  0  0  0
  152.1816  144.4896  161.1808 C   0  0  0  0  0  0  0  0  0  0  0  0
  152.6136  143.5334  162.2788 C   0  0  0  0  0  0  0  0  0  0  0  0
  152.9087  142.1152  161.7637 C   0  0  0  0  0  0  0  0  0  0  0  0
  153.5808  142.1475  160.3803 C   0  0  1  0  0  0  0  0  0  0  0  0
  154.0958  140.7614  159.9552 C   0  0  0  0  0  0  0  0  0  0  0  0
  152.6665  142.8443  159.3328 C   0  0  1  0  0  0  0  0  0  0  0  0
  151.4804  141.9538  158.8778 C   0  0  0  0  0  0  0  0  0  0  0  0
  151.3881  141.8240  157.4102 N   0  3  0  0  0  0  0  0  0  0  0  0
  150.1070  141.2687  156.9335 C   0  0  0  0  0  0  0  0  0  0  0  0
  150.1376  141.0347  155.4173 C   0  0  0  0  0  0  0  0  0  0  0  0
  150.8521  139.8191  155.0844 N   0  0  0  0  0  0  0  0  0  0  0  0
  150.5263  138.8987  154.0970 C   0  0  0  0  0  0  0  0  0  0  0  0
  151.4802  137.9075  154.1538 C   0  0  0  0  0  0  0  0  0  0  0  0
  152.3961  138.1963  155.1626 N   0  0  0  0  0  0  0  0  0  0  0  0
  151.9606  139.3428  155.6679 C   0  0  0  0  0  0  0  0  0  0  0  0
  152.5516  145.3251  158.0491 H   0  0  0  0  0  0  0  0  0  0  0  0
  151.7171  146.2409  159.2986 H   0  0  0  0  0  0  0  0  0  0  0  0
  150.8380  145.0287  158.3858 H   0  0  0  0  0  0  0  0  0  0  0  0
  151.8704  145.4698  161.5121 H   0  0  0  0  0  0  0  0  0  0  0  0
  153.5104  143.9494  162.7387 H   0  0  0  0  0  0  0  0  0  0  0  0
  151.8486  143.5001  163.0551 H   0  0  0  0  0  0  0  0  0  0  0  0
  153.5406  141.5945  162.4843 H   0  0  0  0  0  0  0  0  0  0  0  0
  151.9816  141.5441  161.7101 H   0  0  0  0  0  0  0  0  0  0  0  0
  154.4708  142.7718  160.4789 H   0  0  0  0  0  0  0  0  0  0  0  0
  153.3073  140.0090  159.9718 H   0  0  0  0  0  0  0  0  0  0  0  0
  154.8789  140.4176  160.6315 H   0  0  0  0  0  0  0  0  0  0  0  0
  154.5201  140.7883  158.9515 H   0  0  0  0  0  0  0  0  0  0  0  0
  153.2910  143.0382  158.4591 H   0  0  0  0  0  0  0  0  0  0  0  0
  151.5803  140.9453  159.2765 H   0  0  0  0  0  0  0  0  0  0  0  0
  150.5402  142.3547  159.2577 H   0  0  0  0  0  0  0  0  0  0  0  0
  151.5125  142.7396  157.0025 H   0  0  0  0  0  0  0  0  0  0  0  0
  149.9073  140.3307  157.4534 H   0  0  0  0  0  0  0  0  0  0  0  0
  149.3004  141.9578  157.1877 H   0  0  0  0  0  0  0  0  0  0  0  0
  149.1240  140.9610  155.0206 H   0  0  0  0  0  0  0  0  0  0  0  0
  150.6193  141.8711  154.9087 H   0  0  0  0  0  0  0  0  0  0  0  0
  149.6671  139.0197  153.4535 H   0  0  0  0  0  0  0  0  0  0  0  0
  151.5768  137.0155  153.5526 H   0  0  0  0  0  0  0  0  0  0  0  0
  152.4580  139.8461  156.4840 H   0  0  0  0  0  0  0  0  0  0  0  0
  152.1374  141.2248  157.0941 H   0  0  0  0  0  0  0  0  0  0  0  0
  1  2  1  0  0  0  0
  1 18  1  0  0  0  0
  1 19  1  0  0  0  0
  1 20  1  0  0  0  0
  2  8  1  0  0  0  0
  2  3  2  0  0  0  0
  3  4  1  0  0  0  0
  3 21  1  0  0  0  0
  4  5  1  0  0  0  0
  4 22  1  0  0  0  0
  4 23  1  0  0  0  0
  5  6  1  0  0  0  0
  5 24  1  0  0  0  0
  5 25  1  0  0  0  0
  6  7  1  0  0  0  0
  6  8  1  0  0  0  0
  6 26  1  0  0  0  0
  7 27  1  0  0  0  0
  7 28  1  0  0  0  0
  7 29  1  0  0  0  0
  8  9  1  0  0  0  0
  8 30  1  0  0  0  0
  9 10  1  0  0  0  0
  9 31  1  0  0  0  0
  9 32  1  0  0  0  0
 10 11  1  0  0  0  0
 10 33  1  0  0  0  0
 10 41  1  0  0  0  0
 11 12  1  0  0  0  0
 11 34  1  0  0  0  0
 11 35  1  0  0  0  0
 12 13  1  0  0  0  0
 12 36  1  0  0  0  0
 12 37  1  0  0  0  0
 13 17  1  0  0  0  0
 13 14  1  0  0  0  0
 14 15  2  0  0  0  0
 14 38  1  0  0  0  0
 15 16  1  0  0  0  0
 15 39  1  0  0  0  0
 16 17  2  0  0  0  0
 17 40  1  0  0  0  0
M  CHG  1  10   1
M  END
> <s_m_source_file>
AV-unprocessed.smi

> <i_m_source_file_index>
3187

> <i_lp_mmshare_version>
43012

> <i_f3d_flags>
0

> <s_epik_input>
W0NIM11DMT1bQ0hdW0NIMl1bQ0gyXVtDQEBIXShbQ0gzXSlbQ0BIXTFbQ0gyXVtOSF1bQ0gyXVtDSDJdbjJbY0hdW2NIXW5bY0hdMg==

> <s_epik_cmdline>
J2VwaWtfcHl0aG9uJywgJy1waCcsICc3LjAnLCAnLXRuJywgJzgnLCAnLW1hJywgJzIwMCcsICctbWV0YWxfYmluZGluZycsICctaW1hZScsICc8aW5maWxlLm1hZT4nLCAnLW9tYWUnLCAnPG91dGZpbGUubWFlPic=

> <r_lp_tautomer_probability>
1

> <r_epik_Ionization_Penalty>
0.0501625

> <r_epik_Ionization_Penalty_Charging>
0.0501625

> <r_epik_Ionization_Penalty_Neutral>
0

> <r_epik_State_Penalty>
0.0972392

> <r_epik_Charging_Adjusted_Penalty>
0.147402

> <i_epik_Tot_Q>
1

> <i_epik_Tot_abs_Q>
1

> <r_epik_Metal_State_Penalty>
0.000104376

> <b_epik_Metal_Only>
0

> <s_lp_Force_Field>
OPLS_2005

> <r_lp_Energy>
16.942

> <b_lp_Chiralities_Consistent>
1

> <s_lp_Variant>
AV-unprocessed.smi:3187-1

> <Gold.Version>
5.8.1

> <Gold.Id.Protein>
6NUR|6NUR_protein|mol2

> <Gold.PLP.Fitness>
51.6117

> <Gold.PLP.PLP>
-48.0946

> <Gold.PLP.part.hbond>
0.0000

> <Gold.PLP.part.metal>
0.0000

> <Gold.PLP.part.buried>
-3.0382

> <Gold.PLP.part.nonpolar>
-43.7993

> <Gold.PLP.part.repulsive>
0.0884

> <Gold.PLP.ligand.clash>
0.0000

> <Gold.PLP.ligand.torsion>
1.1396

> <Gold.PLP.Chemscore.Hbond>
0.0000

> <Gold.PLP.Chemscore.CHOScore>
1.9249

> <Gold.PLP.Chemscore.Metal>
0.0000

> <Gold.Chemscore.Hbonds>
donor molecule, donor type, donor heavy atom, donor atom, acceptor molecule, acceptor atom, score
      L1  C    14    38       P1  7957  0.94
      L1  C    15    39       P1  7949  1.00

> <Gold.PLP.Chemscore.Internal.Correction>
0.0216

> <Gold.Rescore>
     Score         DG    S(hbond)    S(metal)    S(lipo)     H(rot)  DE(clash)    DE(int)     intcor
     15.05     -16.15       0.00        0.00     132.41       1.89       0.13       0.96       ----

> <Gold.Chemscore.Fitness>
15.0532

> <Gold.Chemscore.DG>
-16.1460

> <Gold.Chemscore.ZeroCoef>
-5.4800

> <Gold.Chemscore.Hbond>
0.0000

> <Gold.Chemscore.Metal>
0.0000

> <Gold.Chemscore.Lipo>
132.4124

> <Gold.Chemscore.Internal_Hbond>
0.0000

> <Gold.Chemscore.DEClash>
0.1332

> <Gold.Chemscore.DEInternal>
0.9596

> <Gold.Chemscore.Rot>
1.8853

> <Gold.Chemscore.Internal.Correction>
   9.000000E+99

> <Gold.Chemscore.Hbond.Weighted>
-0.0000

> <Gold.Chemscore.Metal.Weighted>
-0.0000

> <Gold.Chemscore.Lipo.Weighted>
-15.4923

> <Gold.Chemscore.Internal_Hbond.Weighted>
0.0000

> <Gold.Chemscore.DEClash.Weighted>
0.1332

> <Gold.Chemscore.DEInternal.Weighted>
0.9596

> <Gold.Chemscore.Rot.Weighted>
4.8263

> <Gold.Chemscore.Internal.Correction.Weighted>
   9.000000E+99

> <Gold.Protein.RotatedTorsions>
[ 6907 6896 6895 6894 ] final  129.69 input  -60.11 | X-H torsion
[ 7974 7965 7964 7962 ] final -173.25 input  175.53 | X-H torsion
[ 8008 7997 7996 7995 ] final  -95.25 input   59.86 | X-H torsion
[ 10167 10162 10161 10158 ] final  -59.44 input  -65.29 | X-H torsion
[ 10718 10713 10712 10709 ] final -119.53 input   66.30 | X-H torsion
[ 10763 10752 10751 10750 ] final -121.46 input  -60.55 | X-H torsion
[ 11005 11000 10999 10996 ] final  -71.74 input  -57.11 | X-H torsion

> <Gold.Protein.ActiveResidues>
 VAL166  LYS551  ARG553  GLY616  TRP617  ASP618  TYR619  PRO620  LYS621  CYS622 
 ASP623  PHE694  ASN695  SER759  ASP760  ASP761  ALA762  ILE779  LEU786  VAL792 
 PHE793  MET794  SER795  GLU796  ALA797  LYS798  CYS799  TRP800  GLU811  SER814 

> <Gold.Protein.RotatedAtoms>
  152.3599  133.6284  159.6006 H   0  0  0  0  0  0  0  0  0  0  0  0  # atno 6907 bound_to 6896
  150.7594  133.9440  159.3474 H   0  0  0  0  0  0  0  0  0  0  0  0  # atno 6908 bound_to 6896
  151.7280  135.0882  160.0346 H   0  0  0  0  0  0  0  0  0  0  0  0  # atno 6909 bound_to 6896
  144.7139  140.1650  143.6372 H   0  0  0  0  0  0  0  0  0  0  0  0  # atno 7974 bound_to 7965
  154.7589  140.0482  157.0956 H   0  0  0  0  0  0  0  0  0  0  0  0  # atno 8008 bound_to 7997
  154.9963  140.3119  155.4866 H   0  0  0  0  0  0  0  0  0  0  0  0  # atno 8009 bound_to 7997
  156.2900  140.2209  156.5071 H   0  0  0  0  0  0  0  0  0  0  0  0  # atno 8010 bound_to 7997
  140.6135  143.2394  151.5653 H   0  0  0  0  0  0  0  0  0  0  0  0  # atno 10167 bound_to 10162
  156.1188  130.6307  150.9428 H   0  0  0  0  0  0  0  0  0  0  0  0  # atno 10718 bound_to 10713
  154.8668  135.4167  154.2624 H   0  0  0  0  0  0  0  0  0  0  0  0  # atno 10763 bound_to 10752
  153.3550  135.7000  153.6764 H   0  0  0  0  0  0  0  0  0  0  0  0  # atno 10764 bound_to 10752
  153.5688  135.3595  155.2802 H   0  0  0  0  0  0  0  0  0  0  0  0  # atno 10765 bound_to 10752
  141.1597  133.6826  156.6952 H   0  0  0  0  0  0  0  0  0  0  0  0  # atno 11005 bound_to 11000
  145.8996  139.2422  143.1501 LP  0  0  0  0  0  0  0  0  0  0  0  0  # atno 17320 bound_to 7965
  145.9824  140.8672  143.0108 LP  0  0  0  0  0  0  0  0  0  0  0  0  # atno 17321 bound_to 7965
  139.5380  144.2727  152.1291 LP  0  0  0  0  0  0  0  0  0  0  0  0  # atno 17342 bound_to 10162
  140.1932  144.4731  150.6468 LP  0  0  0  0  0  0  0  0  0  0  0  0  # atno 17343 bound_to 10162
  157.6372  131.0914  150.8325 LP  0  0  0  0  0  0  0  0  0  0  0  0  # atno 17370 bound_to 10713
  156.8424  130.5052  149.5320 LP  0  0  0  0  0  0  0  0  0  0  0  0  # atno 17371 bound_to 10713
  140.3000  134.8171  157.4090 LP  0  0  0  0  0  0  0  0  0  0  0  0  # atno 17394 bound_to 11000
  140.1270  134.5145  155.8136 LP  0  0  0  0  0  0  0  0  0  0  0  0  # atno 17395 bound_to 11000

$$$$
