AV-unprocessed.smi:1767|AV-procd|sdf|7139|dock5
  -GOLD-   22720 8373D 1   1.00000     0.00000
 Structure written by MMmdl.
 32 34  0  0  0  0  0  0  0  0  1 V2000
  151.0623  144.0848  157.3541 O   0  0  0  0  0  0  0  0  0  0  0  0
  151.4598  142.8258  157.8572 C   0  0  2  0  0  0  0  0  0  0  0  0
  150.2528  141.8705  157.7772 C   0  0  0  0  0  0  0  0  0  0  0  0
  150.0812  141.3148  156.4468 N   0  0  0  0  0  0  0  0  0  0  0  0
  150.9989  140.6418  155.7266 C   0  0  0  0  0  0  0  0  0  0  0  0
  150.6298  140.2012  154.5275 N   0  0  0  0  0  0  0  0  0  0  0  0
  149.3188  140.6407  154.4600 C   0  0  0  0  0  0  0  0  0  0  0  0
  148.3540  140.4933  153.4378 C   0  0  0  0  0  0  0  0  0  0  0  0
  147.0594  141.0307  153.5945 C   0  0  0  0  0  0  0  0  0  0  0  0
  146.7100  141.7230  154.7722 C   0  0  0  0  0  0  0  0  0  0  0  0
  147.6548  141.8836  155.8037 C   0  0  0  0  0  0  0  0  0  0  0  0
  148.9451  141.3448  155.6444 C   0  0  0  0  0  0  0  0  0  0  0  0
  152.0290  142.9222  159.2664 C   0  0  0  0  0  0  0  0  0  0  0  0
  152.8780  141.9052  159.7542 C   0  0  0  0  0  0  0  0  0  0  0  0
  153.3840  141.9712  161.0669 C   0  0  0  0  0  0  0  0  0  0  0  0
  153.0451  143.0550  161.8992 C   0  0  0  0  0  0  0  0  0  0  0  0
  153.5301  143.1173  163.1619 F   0  0  0  0  0  0  0  0  0  0  0  0
  152.2003  144.0733  161.4182 C   0  0  0  0  0  0  0  0  0  0  0  0
  151.6931  144.0074  160.1059 C   0  0  0  0  0  0  0  0  0  0  0  0
  150.2908  143.9634  156.8220 H   0  0  0  0  0  0  0  0  0  0  0  0
  152.2425  142.4627  157.1894 H   0  0  0  0  0  0  0  0  0  0  0  0
  150.3531  141.0537  158.4932 H   0  0  0  0  0  0  0  0  0  0  0  0
  149.3357  142.4012  158.0377 H   0  0  0  0  0  0  0  0  0  0  0  0
  151.9934  140.4603  156.1075 H   0  0  0  0  0  0  0  0  0  0  0  0
  148.6103  139.9646  152.5318 H   0  0  0  0  0  0  0  0  0  0  0  0
  146.3302  140.9107  152.8067 H   0  0  0  0  0  0  0  0  0  0  0  0
  145.7158  142.1304  154.8836 H   0  0  0  0  0  0  0  0  0  0  0  0
  147.3886  142.4102  156.7080 H   0  0  0  0  0  0  0  0  0  0  0  0
  153.1360  141.0648  159.1266 H   0  0  0  0  0  0  0  0  0  0  0  0
  154.0298  141.1883  161.4364 H   0  0  0  0  0  0  0  0  0  0  0  0
  151.9381  144.9036  162.0569 H   0  0  0  0  0  0  0  0  0  0  0  0
  151.0375  144.7883  159.7494 H   0  0  0  0  0  0  0  0  0  0  0  0
  1  2  1  0  0  0  0
  1 20  1  0  0  0  0
  2  3  1  0  0  0  0
  2 13  1  0  0  0  0
  2 21  1  0  0  0  0
  3  4  1  0  0  0  0
  3 22  1  0  0  0  0
  3 23  1  0  0  0  0
  4 12  1  0  0  0  0
  4  5  1  0  0  0  0
  5  6  2  0  0  0  0
  5 24  1  0  0  0  0
  6  7  1  0  0  0  0
  7 12  2  0  0  0  0
  7  8  1  0  0  0  0
  8  9  2  0  0  0  0
  8 25  1  0  0  0  0
  9 10  1  0  0  0  0
  9 26  1  0  0  0  0
 10 11  2  0  0  0  0
 10 27  1  0  0  0  0
 11 12  1  0  0  0  0
 11 28  1  0  0  0  0
 13 19  1  0  0  0  0
 13 14  2  0  0  0  0
 14 15  1  0  0  0  0
 14 29  1  0  0  0  0
 15 16  2  0  0  0  0
 15 30  1  0  0  0  0
 16 17  1  0  0  0  0
 16 18  1  0  0  0  0
 18 19  2  0  0  0  0
 18 31  1  0  0  0  0
 19 32  1  0  0  0  0
M  END
> <s_m_source_file>
AV-unprocessed.smi

> <i_m_source_file_index>
1767

> <i_lp_mmshare_version>
43012

> <i_f3d_flags>
0

> <s_epik_input>
W2NIXTFbY0hdYyhGKVtjSF1bY0hdYzFbQ0BIXShbT0hdKVtDSDJdbihbY0hdbjIpYyhjMjMpW2NIXVtjSF1bY0hdW2NIXTM=

> <s_epik_cmdline>
J2VwaWtfcHl0aG9uJywgJy1waCcsICc3LjAnLCAnLXRuJywgJzgnLCAnLW1hJywgJzIwMCcsICctbWV0YWxfYmluZGluZycsICctaW1hZScsICc8aW5maWxlLm1hZT4nLCAnLW9tYWUnLCAnPG91dGZpbGUubWFlPic=

> <r_epik_Ionization_Penalty>
0.0696514

> <r_epik_Ionization_Penalty_Charging>
0

> <r_epik_Ionization_Penalty_Neutral>
0.0696514

> <r_epik_State_Penalty>
0.0610247

> <r_epik_Charging_Adjusted_Penalty>
0.0610247

> <i_epik_Tot_Q>
0

> <i_epik_Tot_abs_Q>
0

> <r_epik_Metal_State_Penalty>
6.42746e-05

> <b_epik_Metal_Only>
0

> <s_lp_Force_Field>
OPLS_2005

> <r_lp_Energy>
11.9132

> <b_lp_Chiralities_Consistent>
1

> <s_lp_Variant>
AV-unprocessed.smi:1767-1

> <Gold.Version>
5.8.1

> <Gold.Id.Protein>
6NUR|6NUR_protein|mol2

> <Gold.PLP.Fitness>
53.2304

> <Gold.PLP.PLP>
-48.9788

> <Gold.PLP.part.hbond>
-2.0000

> <Gold.PLP.part.metal>
0.0000

> <Gold.PLP.part.buried>
-1.1615

> <Gold.PLP.part.nonpolar>
-45.5067

> <Gold.PLP.part.repulsive>
0.0874

> <Gold.PLP.ligand.clash>
0.0000

> <Gold.PLP.ligand.torsion>
0.8740

> <Gold.PLP.Chemscore.Hbond>
1.9913

> <Gold.PLP.Chemscore.CHOScore>
0.0000

> <Gold.PLP.Chemscore.Metal>
0.0000

> <Gold.Chemscore.Hbonds>
donor molecule, donor type, donor heavy atom, donor atom, acceptor molecule, acceptor atom, score
      L1  H     1    20       P1  8028  0.96
      P1  H  7989  7998       L1     6  1.00

> <Gold.PLP.Chemscore.Internal.Correction>
0.0258

> <Gold.Rescore>
     Score         DG    S(hbond)    S(metal)    S(lipo)     H(rot)  DE(clash)    DE(int)     intcor
     17.85     -19.94       1.59        0.00     120.06       1.91       1.67       0.42       ----

> <Gold.Chemscore.Fitness>
17.8518

> <Gold.Chemscore.DG>
-19.9398

> <Gold.Chemscore.ZeroCoef>
-5.4800

> <Gold.Chemscore.Hbond>
1.5889

> <Gold.Chemscore.Metal>
0.0000

> <Gold.Chemscore.Lipo>
120.0550

> <Gold.Chemscore.Internal_Hbond>
0.0000

> <Gold.Chemscore.DEClash>
1.6709

> <Gold.Chemscore.DEInternal>
0.4172

> <Gold.Chemscore.Rot>
1.9116

> <Gold.Chemscore.Internal.Correction>
   9.000000E+99

> <Gold.Chemscore.Hbonds>
donor molecule, donor type, donor heavy atom, donor atom, acceptor molecule, acceptor atom, score
      L1  H     1    20       P1  8028  0.91
      P1  H  7989  7998       L1     6  0.49

> <Gold.Chemscore.Hbond.Weighted>
-5.3071

> <Gold.Chemscore.Metal.Weighted>
-0.0000

> <Gold.Chemscore.Lipo.Weighted>
-14.0464

> <Gold.Chemscore.Internal_Hbond.Weighted>
0.0000

> <Gold.Chemscore.DEClash.Weighted>
1.6709

> <Gold.Chemscore.DEInternal.Weighted>
0.4172

> <Gold.Chemscore.Rot.Weighted>
4.8937

> <Gold.Chemscore.Internal.Correction.Weighted>
   9.000000E+99

> <Gold.Protein.RotatedTorsions>
[ 6907 6896 6895 6894 ] final  142.46 input  -60.11 | X-H torsion
[ 7974 7965 7964 7962 ] final  159.52 input  175.53 | X-H torsion
[ 8008 7997 7996 7995 ] final   86.67 input   59.86 | X-H torsion
[ 10167 10162 10161 10158 ] final   57.45 input  -65.29 | X-H torsion
[ 10718 10713 10712 10709 ] final   62.38 input   66.30 | X-H torsion
[ 10763 10752 10751 10750 ] final  177.46 input  -60.55 | X-H torsion
[ 11005 11000 10999 10996 ] final   32.86 input  -57.11 | X-H torsion

> <Gold.Protein.ActiveResidues>
 VAL166  LYS551  ARG553  GLY616  TRP617  ASP618  TYR619  PRO620  LYS621  CYS622 
 ASP623  PHE694  ASN695  SER759  ASP760  ASP761  ALA762  ILE779  LEU786  VAL792 
 PHE793  MET794  SER795  GLU796  ALA797  LYS798  CYS799  TRP800  GLU811  SER814 

> <Gold.Protein.RotatedAtoms>
  152.2184  133.4964  159.5148 H   0  0  0  0  0  0  0  0  0  0  0  0  # atno 6907 bound_to 6896
  150.7007  134.1375  159.4101 H   0  0  0  0  0  0  0  0  0  0  0  0  # atno 6908 bound_to 6896
  151.9295  135.0262  160.0579 H   0  0  0  0  0  0  0  0  0  0  0  0  # atno 6909 bound_to 6896
  144.7786  139.7628  143.6269 H   0  0  0  0  0  0  0  0  0  0  0  0  # atno 7974 bound_to 7965
  155.9657  140.3390  155.6531 H   0  0  0  0  0  0  0  0  0  0  0  0  # atno 8008 bound_to 7997
  155.6740  140.0730  157.2528 H   0  0  0  0  0  0  0  0  0  0  0  0  # atno 8009 bound_to 7997
  154.4154  140.1686  156.1897 H   0  0  0  0  0  0  0  0  0  0  0  0  # atno 8010 bound_to 7997
  140.1978  144.4019  150.6542 H   0  0  0  0  0  0  0  0  0  0  0  0  # atno 10167 bound_to 10162
  157.5896  130.9047  149.9580 H   0  0  0  0  0  0  0  0  0  0  0  0  # atno 10718 bound_to 10713
  154.4948  135.2780  155.1468 H   0  0  0  0  0  0  0  0  0  0  0  0  # atno 10763 bound_to 10752
  154.3125  135.6226  153.5475 H   0  0  0  0  0  0  0  0  0  0  0  0  # atno 10764 bound_to 10752
  152.9893  135.5723  154.5378 H   0  0  0  0  0  0  0  0  0  0  0  0  # atno 10765 bound_to 10752
  140.2691  134.3103  155.7833 H   0  0  0  0  0  0  0  0  0  0  0  0  # atno 11005 bound_to 11000
  146.1981  139.5259  142.9761 LP  0  0  0  0  0  0  0  0  0  0  0  0  # atno 17320 bound_to 7965
  145.6114  141.0339  143.1964 LP  0  0  0  0  0  0  0  0  0  0  0  0  # atno 17321 bound_to 7965
  140.6411  143.2204  151.6287 LP  0  0  0  0  0  0  0  0  0  0  0  0  # atno 17342 bound_to 10162
  139.5229  144.3148  152.0962 LP  0  0  0  0  0  0  0  0  0  0  0  0  # atno 17343 bound_to 10162
  156.0949  130.3660  150.0325 LP  0  0  0  0  0  0  0  0  0  0  0  0  # atno 17370 bound_to 10713
  156.8450  130.9439  151.3629 LP  0  0  0  0  0  0  0  0  0  0  0  0  # atno 17371 bound_to 10713
  141.2180  133.7456  156.9306 LP  0  0  0  0  0  0  0  0  0  0  0  0  # atno 17394 bound_to 11000
  140.1390  134.9306  157.2441 LP  0  0  0  0  0  0  0  0  0  0  0  0  # atno 17395 bound_to 11000

$$$$
