AV-unprocessed.smi:2765|AV-procd|sdf|10644|dock2
  -GOLD-   2272015 93D 1   1.00000     0.00000
 Structure written by MMmdl.
 45 46  0  0  0  0  0  0  0  0  2 V2000
  147.1864  139.8326  154.8200 C   0  0  0  0  0  0  0  0  0  0  0  0
  147.9590  138.9992  153.7740 C   0  0  0  0  0  0  0  0  0  0  0  0
  147.0871  138.9712  152.5035 C   0  0  0  0  0  0  0  0  0  0  0  0
  149.3224  139.6363  153.4053 C   0  0  0  0  0  0  0  0  0  0  0  0
  150.4564  139.3914  154.4195 C   0  0  0  0  0  0  0  0  0  0  0  0
  150.3609  140.2190  155.6204 N   0  0  0  0  0  0  0  0  0  0  0  0
  151.2829  140.2896  156.5922 C   0  0  0  0  0  0  0  0  0  0  0  0
  152.3379  139.6554  156.5717 O   0  0  0  0  0  0  0  0  0  0  0  0
  150.9014  141.1358  157.5654 N   0  0  0  0  0  0  0  0  0  0  0  0
  151.5977  141.4727  158.7569 C   0  0  0  0  0  0  0  0  0  0  0  0
  151.3041  142.7526  159.2802 C   0  0  0  0  0  0  0  0  0  0  0  0
  151.9410  143.1812  160.4613 C   0  0  0  0  0  0  0  0  0  0  0  0
  152.8557  142.3163  161.0878 C   0  0  0  0  0  0  0  0  0  0  0  0
  153.4919  142.6839  162.2252 F   0  0  0  0  0  0  0  0  0  0  0  0
  153.0926  141.0590  160.5021 C   0  0  0  0  0  0  0  0  0  0  0  0
  152.4832  140.6475  159.3699 N   0  0  0  0  0  0  0  0  0  0  0  0
  150.5569  137.8948  154.7550 C   0  0  0  0  0  0  0  0  0  0  0  0
  149.2204  137.2152  155.1505 C   0  0  0  0  0  0  0  0  0  0  0  0
  149.4107  135.6902  155.0325 C   0  0  0  0  0  0  0  0  0  0  0  0
  148.8285  137.4981  156.6177 C   0  0  0  0  0  0  0  0  0  0  0  0
  148.1243  137.5839  154.2103 N   0  3  0  0  0  0  0  0  0  0  0  0
  146.9252  140.8118  154.4169 H   0  0  0  0  0  0  0  0  0  0  0  0
  147.7463  140.0244  155.7291 H   0  0  0  0  0  0  0  0  0  0  0  0
  146.2551  139.3430  155.1064 H   0  0  0  0  0  0  0  0  0  0  0  0
  146.9316  139.9744  152.1039 H   0  0  0  0  0  0  0  0  0  0  0  0
  146.1037  138.5431  152.7029 H   0  0  0  0  0  0  0  0  0  0  0  0
  147.5458  138.3745  151.7138 H   0  0  0  0  0  0  0  0  0  0  0  0
  149.6550  139.2125  152.4563 H   0  0  0  0  0  0  0  0  0  0  0  0
  149.2013  140.7027  153.2106 H   0  0  0  0  0  0  0  0  0  0  0  0
  151.3954  139.6688  153.9362 H   0  0  0  0  0  0  0  0  0  0  0  0
  149.5222  140.7709  155.7259 H   0  0  0  0  0  0  0  0  0  0  0  0
  150.0076  141.5882  157.4438 H   0  0  0  0  0  0  0  0  0  0  0  0
  150.5975  143.4036  158.7858 H   0  0  0  0  0  0  0  0  0  0  0  0
  151.7301  144.1552  160.8775 H   0  0  0  0  0  0  0  0  0  0  0  0
  153.7877  140.3657  160.9526 H   0  0  0  0  0  0  0  0  0  0  0  0
  150.9459  137.3981  153.8645 H   0  0  0  0  0  0  0  0  0  0  0  0
  151.3112  137.7304  155.5262 H   0  0  0  0  0  0  0  0  0  0  0  0
  150.2211  135.3384  155.6725 H   0  0  0  0  0  0  0  0  0  0  0  0
  149.6518  135.3937  154.0106 H   0  0  0  0  0  0  0  0  0  0  0  0
  148.5081  135.1501  155.3214 H   0  0  0  0  0  0  0  0  0  0  0  0
  149.5661  137.0794  157.3034 H   0  0  0  0  0  0  0  0  0  0  0  0
  147.8670  137.0462  156.8638 H   0  0  0  0  0  0  0  0  0  0  0  0
  148.7604  138.5537  156.8582 H   0  0  0  0  0  0  0  0  0  0  0  0
  147.2463  137.2500  154.5813 H   0  0  0  0  0  0  0  0  0  0  0  0
  148.3146  137.0662  153.3643 H   0  0  0  0  0  0  0  0  0  0  0  0
  1  2  1  0  0  0  0
  1 22  1  0  0  0  0
  1 23  1  0  0  0  0
  1 24  1  0  0  0  0
  2 21  1  0  0  0  0
  2  3  1  0  0  0  0
  2  4  1  0  0  0  0
  3 25  1  0  0  0  0
  3 26  1  0  0  0  0
  3 27  1  0  0  0  0
  4  5  1  0  0  0  0
  4 28  1  0  0  0  0
  4 29  1  0  0  0  0
  5  6  1  0  0  0  0
  5 17  1  0  0  0  0
  5 30  1  0  0  0  0
  6  7  1  0  0  0  0
  6 31  1  0  0  0  0
  7  8  2  0  0  0  0
  7  9  1  0  0  0  0
  9 10  1  0  0  0  0
  9 32  1  0  0  0  0
 10 16  1  0  0  0  0
 10 11  2  0  0  0  0
 11 12  1  0  0  0  0
 11 33  1  0  0  0  0
 12 13  2  0  0  0  0
 12 34  1  0  0  0  0
 13 14  1  0  0  0  0
 13 15  1  0  0  0  0
 15 16  2  0  0  0  0
 15 35  1  0  0  0  0
 17 18  1  0  0  0  0
 17 36  1  0  0  0  0
 17 37  1  0  0  0  0
 18 19  1  0  0  0  0
 18 20  1  0  0  0  0
 18 21  1  0  0  0  0
 19 38  1  0  0  0  0
 19 39  1  0  0  0  0
 19 40  1  0  0  0  0
 20 41  1  0  0  0  0
 20 42  1  0  0  0  0
 20 43  1  0  0  0  0
 21 44  1  0  0  0  0
 21 45  1  0  0  0  0
M  CHG  1  21   1
M  END
> <s_m_source_file>
AV-unprocessed.smi

> <i_m_source_file_index>
2765

> <i_lp_mmshare_version>
43012

> <i_f3d_flags>
0

> <s_epik_input>
W0NIM11DMShbQ0gzXSlbQ0gyXVtDSF0oW0NIMl1DKFtDSDNdKShbQ0gzXSlbTkhdMSlbTkhdQyg9TylbTkhdYzJbY0hdW2NIXWMoRilbY0hdbjI=

> <s_epik_cmdline>
J2VwaWtfcHl0aG9uJywgJy1waCcsICc3LjAnLCAnLXRuJywgJzgnLCAnLW1hJywgJzIwMCcsICctbWV0YWxfYmluZGluZycsICctaW1hZScsICc8aW5maWxlLm1hZT4nLCAnLW9tYWUnLCAnPG91dGZpbGUubWFlPic=

> <r_lp_tautomer_probability>
1

> <r_epik_Ionization_Penalty>
0.000124854

> <r_epik_Ionization_Penalty_Charging>
9.44458e-05

> <r_epik_Ionization_Penalty_Neutral>
3.0408e-05

> <r_epik_State_Penalty>
-0

> <r_epik_Charging_Adjusted_Penalty>
9.44458e-05

> <i_epik_Tot_Q>
1

> <i_epik_Tot_abs_Q>
1

> <r_epik_Metal_State_Penalty>
-0

> <b_epik_Metal_Only>
0

> <s_lp_Force_Field>
OPLS_2005

> <r_lp_Energy>
29.8768

> <b_lp_Chiralities_Consistent>
1

> <s_lp_Variant>
AV-unprocessed.smi:2765-1

> <Gold.Version>
5.8.1

> <Gold.Id.Protein>
6NUR|6NUR_protein|mol2

> <Gold.PLP.Fitness>
39.1447

> <Gold.PLP.PLP>
-30.5052

> <Gold.PLP.part.hbond>
-1.9871

> <Gold.PLP.part.metal>
0.0000

> <Gold.PLP.part.buried>
3.0109

> <Gold.PLP.part.nonpolar>
-31.0736

> <Gold.PLP.part.repulsive>
0.1390

> <Gold.PLP.ligand.clash>
0.0000

> <Gold.PLP.ligand.torsion>
0.1764

> <Gold.PLP.Chemscore.Hbond>
2.9913

> <Gold.PLP.Chemscore.CHOScore>
0.0000

> <Gold.PLP.Chemscore.Metal>
0.0000

> <Gold.Chemscore.Hbonds>
donor molecule, donor type, donor heavy atom, donor atom, acceptor molecule, acceptor atom, score
      L1  H    21    45       P1  7948  2.00
      P1  H  7997  8008       L1     8  0.94

> <Gold.PLP.Chemscore.Internal.Correction>
0.0186

> <Gold.Rescore>
     Score         DG    S(hbond)    S(metal)    S(lipo)     H(rot)  DE(clash)    DE(int)     intcor
     16.62     -19.51       2.00        0.00      84.79       1.00       1.56       1.32       ----

> <Gold.Chemscore.Fitness>
16.6249

> <Gold.Chemscore.DG>
-19.5110

> <Gold.Chemscore.ZeroCoef>
-5.4800

> <Gold.Chemscore.Hbond>
1.9971

> <Gold.Chemscore.Metal>
0.0000

> <Gold.Chemscore.Lipo>
84.7931

> <Gold.Chemscore.Internal_Hbond>
0.0000

> <Gold.Chemscore.DEClash>
1.5615

> <Gold.Chemscore.DEInternal>
1.3246

> <Gold.Chemscore.Rot>
1.0000

> <Gold.Chemscore.Internal.Correction>
   9.000000E+99

> <Gold.Chemscore.Hbonds>
donor molecule, donor type, donor heavy atom, donor atom, acceptor molecule, acceptor atom, score
      L1  H    21    45       P1  7948  1.00
      P1  H  7997  8008       L1     8  0.90

> <Gold.Chemscore.Hbond.Weighted>
-6.6702

> <Gold.Chemscore.Metal.Weighted>
-0.0000

> <Gold.Chemscore.Lipo.Weighted>
-9.9208

> <Gold.Chemscore.Internal_Hbond.Weighted>
0.0000

> <Gold.Chemscore.DEClash.Weighted>
1.5615

> <Gold.Chemscore.DEInternal.Weighted>
1.3246

> <Gold.Chemscore.Rot.Weighted>
2.5600

> <Gold.Chemscore.Internal.Correction.Weighted>
   9.000000E+99

> <Gold.Protein.RotatedTorsions>
[ 6907 6896 6895 6894 ] final   10.72 input  -60.11 | X-H torsion
[ 7974 7965 7964 7962 ] final  114.62 input  175.53 | X-H torsion
[ 8008 7997 7996 7995 ] final  -49.31 input   59.86 | X-H torsion
[ 10167 10162 10161 10158 ] final   45.94 input  -65.29 | X-H torsion
[ 10718 10713 10712 10709 ] final   59.07 input   66.30 | X-H torsion
[ 10763 10752 10751 10750 ] final -139.39 input  -60.55 | X-H torsion
[ 11005 11000 10999 10996 ] final   43.61 input  -57.11 | X-H torsion

> <Gold.Protein.ActiveResidues>
 VAL166  LYS551  ARG553  GLY616  TRP617  ASP618  TYR619  PRO620  LYS621  CYS622 
 ASP623  PHE694  ASN695  SER759  ASP760  ASP761  ALA762  ILE779  LEU786  VAL792 
 PHE793  MET794  SER795  GLU796  ALA797  LYS798  CYS799  TRP800  GLU811  SER814 

> <Gold.Protein.RotatedAtoms>
  151.7428  135.0850  160.0318 H   0  0  0  0  0  0  0  0  0  0  0  0  # atno 6907 bound_to 6896
  152.3468  133.6127  159.5924 H   0  0  0  0  0  0  0  0  0  0  0  0  # atno 6908 bound_to 6896
  150.7514  133.9553  159.3540 H   0  0  0  0  0  0  0  0  0  0  0  0  # atno 6909 bound_to 6896
  145.2021  139.2947  143.4313 H   0  0  0  0  0  0  0  0  0  0  0  0  # atno 7974 bound_to 7965
  154.4042  140.1300  156.4481 H   0  0  0  0  0  0  0  0  0  0  0  0  # atno 8008 bound_to 7997
  155.7393  140.3490  155.5076 H   0  0  0  0  0  0  0  0  0  0  0  0  # atno 8009 bound_to 7997
  155.9054  140.1026  157.1309 H   0  0  0  0  0  0  0  0  0  0  0  0  # atno 8010 bound_to 7997
  140.3190  144.2728  150.6186 H   0  0  0  0  0  0  0  0  0  0  0  0  # atno 10167 bound_to 10162
  157.5647  130.8862  149.9167 H   0  0  0  0  0  0  0  0  0  0  0  0  # atno 10718 bound_to 10713
  154.8610  135.3584  154.5538 H   0  0  0  0  0  0  0  0  0  0  0  0  # atno 10763 bound_to 10752
  153.6155  135.7008  153.5335 H   0  0  0  0  0  0  0  0  0  0  0  0  # atno 10764 bound_to 10752
  153.3173  135.4161  155.1347 H   0  0  0  0  0  0  0  0  0  0  0  0  # atno 10765 bound_to 10752
  140.1629  134.4318  155.8306 H   0  0  0  0  0  0  0  0  0  0  0  0  # atno 11005 bound_to 11000
  146.3415  140.2269  142.8592 LP  0  0  0  0  0  0  0  0  0  0  0  0  # atno 17320 bound_to 7965
  144.9937  140.8570  143.5323 LP  0  0  0  0  0  0  0  0  0  0  0  0  # atno 17321 bound_to 7965
  140.5500  143.2208  151.7943 LP  0  0  0  0  0  0  0  0  0  0  0  0  # atno 17342 bound_to 10162
  139.4878  144.4489  151.9678 LP  0  0  0  0  0  0  0  0  0  0  0  0  # atno 17343 bound_to 10162
  156.0696  130.3687  150.0804 LP  0  0  0  0  0  0  0  0  0  0  0  0  # atno 17370 bound_to 10713
  156.8964  130.9606  151.3582 LP  0  0  0  0  0  0  0  0  0  0  0  0  # atno 17371 bound_to 10713
  141.2211  133.6921  156.7626 LP  0  0  0  0  0  0  0  0  0  0  0  0  # atno 17394 bound_to 11000
  140.2468  134.8571  157.3628 LP  0  0  0  0  0  0  0  0  0  0  0  0  # atno 17395 bound_to 11000

$$$$
