AV-unprocessed.smi:2881|AV-procd|sdf|11057|dock8
  -GOLD-   2272015523D 1   1.00000     0.00000
 Structure written by MMmdl.
 40 42  0  0  0  0  0  0  0  0  1 V2000
  152.2654  145.0588  158.9180 C   0  0  0  0  0  0  0  0  0  0  0  0
  151.9759  143.8141  158.1501 C   0  0  0  0  0  0  0  0  0  0  0  0
  152.3718  142.5210  158.3425 C   0  0  0  0  0  0  0  0  0  0  0  0
  151.7596  141.8008  157.2743 C   0  0  0  0  0  0  0  0  0  0  0  0
  151.8420  140.3257  156.9854 C   0  0  0  0  0  0  0  0  0  0  0  0
  151.1230  140.0047  155.6746 C   0  0  0  0  0  0  0  0  0  0  0  0
  151.7686  139.6648  154.6831 O   0  0  0  0  0  0  0  0  0  0  0  0
  149.7864  140.1180  155.6838 N   0  0  0  0  0  0  0  0  0  0  0  0
  148.9115  139.8223  154.5525 C   0  0  2  0  0  0  0  0  0  0  0  0
  148.3679  141.0847  153.8363 C   0  0  2  0  0  0  0  0  0  0  0  0
  147.7300  142.0726  154.8365 C   0  0  0  0  0  0  0  0  0  0  0  0
  146.4516  141.3324  155.2714 C   0  0  0  0  0  0  0  0  0  0  0  0
  146.5119  140.0325  154.4450 C   0  0  1  0  0  0  0  0  0  0  0  0
  147.1297  140.5304  153.1432 C   0  0  0  0  0  0  0  0  0  0  0  0
  147.6137  139.1099  155.0169 C   0  0  1  0  0  0  0  0  0  0  0  0
  147.5001  137.6573  154.5158 C   0  0  0  0  0  0  0  0  0  0  0  0
  148.7351  136.9908  154.6733 O   0  0  0  0  0  0  0  0  0  0  0  0
  151.0477  142.5877  156.4786 N   0  0  0  0  0  0  0  0  0  0  0  0
  151.1862  143.8106  157.0236 N   0  0  0  0  0  0  0  0  0  0  0  0
  150.7415  144.6235  156.6213 H   0  0  0  0  0  0  0  0  0  0  0  0
  152.7347  144.8261  159.8742 H   0  0  0  0  0  0  0  0  0  0  0  0
  151.3488  145.6133  159.1196 H   0  0  0  0  0  0  0  0  0  0  0  0
  152.9402  145.7085  158.3608 H   0  0  0  0  0  0  0  0  0  0  0  0
  153.0021  142.1408  159.1329 H   0  0  0  0  0  0  0  0  0  0  0  0
  152.8795  139.9944  156.9191 H   0  0  0  0  0  0  0  0  0  0  0  0
  151.3866  139.7568  157.7969 H   0  0  0  0  0  0  0  0  0  0  0  0
  149.3401  140.3982  156.5453 H   0  0  0  0  0  0  0  0  0  0  0  0
  149.4490  139.1996  153.8344 H   0  0  0  0  0  0  0  0  0  0  0  0
  149.0920  141.5513  153.1676 H   0  0  0  0  0  0  0  0  0  0  0  0
  148.3784  142.3220  155.6764 H   0  0  0  0  0  0  0  0  0  0  0  0
  147.4738  143.0076  154.3368 H   0  0  0  0  0  0  0  0  0  0  0  0
  146.4241  141.1432  156.3450 H   0  0  0  0  0  0  0  0  0  0  0  0
  145.5668  141.9160  155.0139 H   0  0  0  0  0  0  0  0  0  0  0  0
  145.5411  139.5475  154.3379 H   0  0  0  0  0  0  0  0  0  0  0  0
  146.5320  141.2958  152.6450 H   0  0  0  0  0  0  0  0  0  0  0  0
  147.3520  139.7353  152.4302 H   0  0  0  0  0  0  0  0  0  0  0  0
  147.5348  139.0969  156.1059 H   0  0  0  0  0  0  0  0  0  0  0  0
  146.7449  137.1175  155.0879 H   0  0  0  0  0  0  0  0  0  0  0  0
  147.2004  137.6169  153.4685 H   0  0  0  0  0  0  0  0  0  0  0  0
  148.9863  136.6212  153.8405 H   0  0  0  0  0  0  0  0  0  0  0  0
  1  2  1  0  0  0  0
  1 21  1  0  0  0  0
  1 22  1  0  0  0  0
  1 23  1  0  0  0  0
  2 19  1  0  0  0  0
  2  3  2  0  0  0  0
  3  4  1  0  0  0  0
  3 24  1  0  0  0  0
  4  5  1  0  0  0  0
  4 18  2  0  0  0  0
  5  6  1  0  0  0  0
  5 25  1  0  0  0  0
  5 26  1  0  0  0  0
  6  7  2  0  0  0  0
  6  8  1  0  0  0  0
  8  9  1  0  0  0  0
  8 27  1  0  0  0  0
  9 15  1  0  0  0  0
  9 10  1  0  0  0  0
  9 28  1  0  0  0  0
 10 14  1  0  0  0  0
 10 11  1  0  0  0  0
 10 29  1  0  0  0  0
 11 12  1  0  0  0  0
 11 30  1  0  0  0  0
 11 31  1  0  0  0  0
 12 13  1  0  0  0  0
 12 32  1  0  0  0  0
 12 33  1  0  0  0  0
 13 14  1  0  0  0  0
 13 15  1  0  0  0  0
 13 34  1  0  0  0  0
 14 35  1  0  0  0  0
 14 36  1  0  0  0  0
 15 16  1  0  0  0  0
 15 37  1  0  0  0  0
 16 17  1  0  0  0  0
 16 38  1  0  0  0  0
 16 39  1  0  0  0  0
 17 40  1  0  0  0  0
 18 19  1  0  0  0  0
 19 20  1  0  0  0  0
M  END
> <s_m_source_file>
AV-unprocessed.smi

> <i_m_source_file_index>
2881

> <i_lp_mmshare_version>
43012

> <i_f3d_flags>
0

> <s_epik_input>
W0NIM11jMVtjSF1jKG5bbkhdMSlbQ0gyXUMoPU8pW05IXVtDQEhdKFtDQEBIXTIzKVtDQEhdKFtDSDJdW09IXSlbQ0BASF0oW0NIMl0zKVtDSDJdW0NIMl0y

> <s_epik_cmdline>
J2VwaWtfcHl0aG9uJywgJy1waCcsICc3LjAnLCAnLXRuJywgJzgnLCAnLW1hJywgJzIwMCcsICctbWV0YWxfYmluZGluZycsICctaW1hZScsICc8aW5maWxlLm1hZT4nLCAnLW9tYWUnLCAnPG91dGZpbGUubWFlPic=

> <r_lp_tautomer_probability>
0.5

> <r_epik_Ionization_Penalty>
9.4349e-05

> <r_epik_Ionization_Penalty_Charging>
0

> <r_epik_Ionization_Penalty_Neutral>
9.4349e-05

> <r_epik_State_Penalty>
0.41068

> <r_epik_Charging_Adjusted_Penalty>
0.41068

> <i_epik_Tot_Q>
0

> <i_epik_Tot_abs_Q>
0

> <r_epik_Metal_State_Penalty>
0.4107

> <b_epik_Metal_Only>
0

> <s_lp_Force_Field>
OPLS_2005

> <r_lp_Energy>
47.2373

> <b_lp_Chiralities_Consistent>
1

> <s_lp_Variant>
AV-unprocessed.smi:2881-3

> <Gold.Version>
5.8.1

> <Gold.Id.Protein>
6NUR|6NUR_protein|mol2

> <Gold.PLP.Fitness>
39.9188

> <Gold.PLP.PLP>
-33.0941

> <Gold.PLP.part.hbond>
-3.0000

> <Gold.PLP.part.metal>
0.0000

> <Gold.PLP.part.buried>
-3.3195

> <Gold.PLP.part.nonpolar>
-27.5763

> <Gold.PLP.part.repulsive>
0.5243

> <Gold.PLP.ligand.clash>
0.0000

> <Gold.PLP.ligand.torsion>
0.5115

> <Gold.PLP.Chemscore.Hbond>
2.6080

> <Gold.PLP.Chemscore.CHOScore>
0.0000

> <Gold.PLP.Chemscore.Metal>
0.0000

> <Gold.Chemscore.Hbonds>
donor molecule, donor type, donor heavy atom, donor atom, acceptor molecule, acceptor atom, score
      L1  H    17    40       P1  7948  1.00
      L1  H    19    20       P1  8028  0.56
      P1  H  7989  7998       L1     7  1.00

> <Gold.PLP.Chemscore.Internal.Correction>
0.0238

> <Gold.Rescore>
     Score         DG    S(hbond)    S(metal)    S(lipo)     H(rot)  DE(clash)    DE(int)     intcor
     15.65     -17.75       2.31        0.00      88.57       2.28       0.17       1.92       ----

> <Gold.Chemscore.Fitness>
15.6502

> <Gold.Chemscore.DG>
-17.7454

> <Gold.Chemscore.ZeroCoef>
-5.4800

> <Gold.Chemscore.Hbond>
2.3137

> <Gold.Chemscore.Metal>
0.0000

> <Gold.Chemscore.Lipo>
88.5713

> <Gold.Chemscore.Internal_Hbond>
0.0000

> <Gold.Chemscore.DEClash>
0.1740

> <Gold.Chemscore.DEInternal>
1.9212

> <Gold.Chemscore.Rot>
2.2755

> <Gold.Chemscore.Internal.Correction>
   9.000000E+99

> <Gold.Chemscore.Hbonds>
donor molecule, donor type, donor heavy atom, donor atom, acceptor molecule, acceptor atom, score
      L1  H    17    40       P1  7948  0.95
      L1  H    19    20       P1  8028  0.51
      P1  H  7989  7998       L1     7  0.72

> <Gold.Chemscore.Hbond.Weighted>
-7.7278

> <Gold.Chemscore.Metal.Weighted>
-0.0000

> <Gold.Chemscore.Lipo.Weighted>
-10.3628

> <Gold.Chemscore.Internal_Hbond.Weighted>
0.0000

> <Gold.Chemscore.DEClash.Weighted>
0.1740

> <Gold.Chemscore.DEInternal.Weighted>
1.9212

> <Gold.Chemscore.Rot.Weighted>
5.8252

> <Gold.Chemscore.Internal.Correction.Weighted>
   9.000000E+99

> <Gold.Protein.RotatedTorsions>
[ 6907 6896 6895 6894 ] final  -84.67 input  -60.11 | X-H torsion
[ 7974 7965 7964 7962 ] final  -76.09 input  175.53 | X-H torsion
[ 8008 7997 7996 7995 ] final  152.47 input   59.86 | X-H torsion
[ 10167 10162 10161 10158 ] final -117.43 input  -65.29 | X-H torsion
[ 10718 10713 10712 10709 ] final    3.35 input   66.30 | X-H torsion
[ 10763 10752 10751 10750 ] final  -22.14 input  -60.55 | X-H torsion
[ 11005 11000 10999 10996 ] final  106.47 input  -57.11 | X-H torsion

> <Gold.Protein.ActiveResidues>
 VAL166  LYS551  ARG553  GLY616  TRP617  ASP618  TYR619  PRO620  LYS621  CYS622 
 ASP623  PHE694  ASN695  SER759  ASP760  ASP761  ALA762  ILE779  LEU786  VAL792 
 PHE793  MET794  SER795  GLU796  ALA797  LYS798  CYS799  TRP800  GLU811  SER814 

> <Gold.Protein.RotatedAtoms>
  150.6875  134.3322  159.4831 H   0  0  0  0  0  0  0  0  0  0  0  0  # atno 6907 bound_to 6896
  152.1185  134.9220  160.0573 H   0  0  0  0  0  0  0  0  0  0  0  0  # atno 6908 bound_to 6896
  152.0435  133.3953  159.4384 H   0  0  0  0  0  0  0  0  0  0  0  0  # atno 6909 bound_to 6896
  145.6174  140.9371  143.1156 H   0  0  0  0  0  0  0  0  0  0  0  0  # atno 7974 bound_to 7965
  156.2627  140.2020  156.6338 H   0  0  0  0  0  0  0  0  0  0  0  0  # atno 8008 bound_to 7997
  154.6662  140.0555  157.0141 H   0  0  0  0  0  0  0  0  0  0  0  0  # atno 8009 bound_to 7997
  155.1203  140.3224  155.4502 H   0  0  0  0  0  0  0  0  0  0  0  0  # atno 8010 bound_to 7997
  140.0685  143.4900  152.1993 H   0  0  0  0  0  0  0  0  0  0  0  0  # atno 10167 bound_to 10162
  156.8765  130.5638  149.5655 H   0  0  0  0  0  0  0  0  0  0  0  0  # atno 10718 bound_to 10713
  153.6473  135.6982  153.5221 H   0  0  0  0  0  0  0  0  0  0  0  0  # atno 10763 bound_to 10752
  153.2735  135.4207  155.1010 H   0  0  0  0  0  0  0  0  0  0  0  0  # atno 10764 bound_to 10752
  154.8485  135.3584  154.6017 H   0  0  0  0  0  0  0  0  0  0  0  0  # atno 10765 bound_to 10752
  139.8814  134.9370  156.5671 H   0  0  0  0  0  0  0  0  0  0  0  0  # atno 11005 bound_to 11000
  144.7245  139.7921  143.7370 LP  0  0  0  0  0  0  0  0  0  0  0  0  # atno 17320 bound_to 7965
  146.1457  139.4526  143.0080 LP  0  0  0  0  0  0  0  0  0  0  0  0  # atno 17321 bound_to 7965
  139.5850  144.7527  151.3542 LP  0  0  0  0  0  0  0  0  0  0  0  0  # atno 17342 bound_to 10162
  140.7137  143.7322  150.7615 LP  0  0  0  0  0  0  0  0  0  0  0  0  # atno 17343 bound_to 10162
  156.0699  130.5734  150.9363 LP  0  0  0  0  0  0  0  0  0  0  0  0  # atno 17370 bound_to 10713
  157.6165  131.0933  150.8700 LP  0  0  0  0  0  0  0  0  0  0  0  0  # atno 17371 bound_to 10713
  140.8126  133.8417  155.8823 LP  0  0  0  0  0  0  0  0  0  0  0  0  # atno 17394 bound_to 11000
  140.9492  134.1801  157.4740 LP  0  0  0  0  0  0  0  0  0  0  0  0  # atno 17395 bound_to 11000

$$$$
