AV-unprocessed.smi:2149|AV-procd|sdf|8752|dock4
  -GOLD-   2272011523D 1   1.00000     0.00000
 Structure written by MMmdl.
 42 43  0  0  0  0  0  0  0  0  1 V2000
  155.2089  132.6379  161.6727 C   0  0  0  0  0  0  0  0  0  0  0  0
  156.3403  133.9465  161.0478 S   0  0  0  0  0  0  0  0  0  0  0  0
  157.6991  133.6436  161.5227 O   0  0  0  0  0  0  0  0  0  0  0  0
  156.0919  134.1160  159.6080 O   0  0  0  0  0  0  0  0  0  0  0  0
  155.8043  135.3926  161.8544 N   0  0  0  0  0  0  0  0  0  0  0  0
  155.0172  135.2965  163.1009 C   0  0  0  0  0  0  0  0  0  0  0  0
  153.5186  135.5353  162.8474 C   0  0  0  0  0  0  0  0  0  0  0  0
  153.2847  136.8575  162.1082 C   0  0  0  0  0  0  0  0  0  0  0  0
  154.0833  136.8660  160.7924 C   0  0  1  0  0  0  0  0  0  0  0  0
  153.8745  138.1804  160.0282 C   0  0  0  0  0  0  0  0  0  0  0  0
  153.5147  138.1637  158.8507 O   0  0  0  0  0  0  0  0  0  0  0  0
  154.1062  139.3133  160.7095 N   0  0  0  0  0  0  0  0  0  0  0  0
  153.9725  140.6593  160.1653 C   0  0  0  0  0  0  0  0  0  0  0  0
  152.9808  141.5024  160.9837 C   0  0  0  0  0  0  0  0  0  0  0  0
  152.4634  142.6968  160.2049 C   0  0  0  0  0  0  0  0  0  0  0  0
  153.3440  143.5003  159.4495 C   0  0  0  0  0  0  0  0  0  0  0  0
  152.8139  144.6023  158.7508 C   0  0  0  0  0  0  0  0  0  0  0  0
  151.4315  144.8574  158.8345 C   0  0  0  0  0  0  0  0  0  0  0  0
  150.6371  143.9959  159.6170 C   0  0  0  0  0  0  0  0  0  0  0  0
  151.1357  142.9375  160.2918 N   0  0  0  0  0  0  0  0  0  0  0  0
  155.5834  136.6308  161.0788 C   0  0  0  0  0  0  0  0  0  0  0  0
  155.4959  131.6822  161.2350 H   0  0  0  0  0  0  0  0  0  0  0  0
  154.1845  132.8643  161.3820 H   0  0  0  0  0  0  0  0  0  0  0  0
  155.2847  132.5672  162.7560 H   0  0  0  0  0  0  0  0  0  0  0  0
  155.1723  134.3285  163.5764 H   0  0  0  0  0  0  0  0  0  0  0  0
  155.3908  136.0451  163.8003 H   0  0  0  0  0  0  0  0  0  0  0  0
  153.0992  134.7126  162.2697 H   0  0  0  0  0  0  0  0  0  0  0  0
  152.9827  135.5439  163.7969 H   0  0  0  0  0  0  0  0  0  0  0  0
  152.2198  136.9863  161.9103 H   0  0  0  0  0  0  0  0  0  0  0  0
  153.5886  137.6891  162.7461 H   0  0  0  0  0  0  0  0  0  0  0  0
  153.7132  136.0527  160.1687 H   0  0  0  0  0  0  0  0  0  0  0  0
  154.3977  139.2381  161.6736 H   0  0  0  0  0  0  0  0  0  0  0  0
  154.9487  141.1460  160.1232 H   0  0  0  0  0  0  0  0  0  0  0  0
  153.6248  140.5744  159.1354 H   0  0  0  0  0  0  0  0  0  0  0  0
  152.1370  140.8863  161.2970 H   0  0  0  0  0  0  0  0  0  0  0  0
  153.4547  141.8596  161.8993 H   0  0  0  0  0  0  0  0  0  0  0  0
  154.4006  143.2803  159.4060 H   0  0  0  0  0  0  0  0  0  0  0  0
  153.4561  145.2402  158.1616 H   0  0  0  0  0  0  0  0  0  0  0  0
  150.9901  145.6930  158.3120 H   0  0  0  0  0  0  0  0  0  0  0  0
  149.5735  144.1615  159.7036 H   0  0  0  0  0  0  0  0  0  0  0  0
  155.9924  137.4654  161.6504 H   0  0  0  0  0  0  0  0  0  0  0  0
  156.1489  136.5942  160.1476 H   0  0  0  0  0  0  0  0  0  0  0  0
  1  2  1  0  0  0  0
  1 22  1  0  0  0  0
  1 23  1  0  0  0  0
  1 24  1  0  0  0  0
  2  3  2  0  0  0  0
  2  4  2  0  0  0  0
  2  5  1  0  0  0  0
  5 21  1  0  0  0  0
  5  6  1  0  0  0  0
  6  7  1  0  0  0  0
  6 25  1  0  0  0  0
  6 26  1  0  0  0  0
  7  8  1  0  0  0  0
  7 27  1  0  0  0  0
  7 28  1  0  0  0  0
  8  9  1  0  0  0  0
  8 29  1  0  0  0  0
  8 30  1  0  0  0  0
  9 10  1  0  0  0  0
  9 21  1  0  0  0  0
  9 31  1  0  0  0  0
 10 11  2  0  0  0  0
 10 12  1  0  0  0  0
 12 13  1  0  0  0  0
 12 32  1  0  0  0  0
 13 14  1  0  0  0  0
 13 33  1  0  0  0  0
 13 34  1  0  0  0  0
 14 15  1  0  0  0  0
 14 35  1  0  0  0  0
 14 36  1  0  0  0  0
 15 20  1  0  0  0  0
 15 16  2  0  0  0  0
 16 17  1  0  0  0  0
 16 37  1  0  0  0  0
 17 18  2  0  0  0  0
 17 38  1  0  0  0  0
 18 19  1  0  0  0  0
 18 39  1  0  0  0  0
 19 20  2  0  0  0  0
 19 40  1  0  0  0  0
 21 41  1  0  0  0  0
 21 42  1  0  0  0  0
M  END
> <s_m_source_file>
AV-unprocessed.smi

> <i_m_source_file_index>
2149

> <i_lp_mmshare_version>
43012

> <i_f3d_flags>
0

> <s_epik_input>
W0NIM11TKD1PKSg9TylOMVtDSDJdW0NIMl1bQ0gyXVtDQEhdKFtDSDJdMSlDKD1PKVtOSF1bQ0gyXVtDSDJdYzJbY0hdW2NIXVtjSF1bY0hdbjI=

> <s_epik_cmdline>
J2VwaWtfcHl0aG9uJywgJy1waCcsICc3LjAnLCAnLXRuJywgJzgnLCAnLW1hJywgJzIwMCcsICctbWV0YWxfYmluZGluZycsICctaW1hZScsICc8aW5maWxlLm1hZT4nLCAnLW9tYWUnLCAnPG91dGZpbGUubWFlPic=

> <r_epik_Ionization_Penalty>
0.0273806

> <r_epik_Ionization_Penalty_Charging>
0

> <r_epik_Ionization_Penalty_Neutral>
0.0273806

> <r_epik_State_Penalty>
0.0224071

> <r_epik_Charging_Adjusted_Penalty>
0.0224071

> <i_epik_Tot_Q>
0

> <i_epik_Tot_abs_Q>
0

> <r_epik_Metal_State_Penalty>
0.0214134

> <b_epik_Metal_Only>
0

> <s_lp_Force_Field>
OPLS_2005

> <r_lp_Energy>
-0.402048

> <b_lp_Chiralities_Consistent>
1

> <s_lp_Variant>
AV-unprocessed.smi:2149-1

> <Gold.Version>
5.8.1

> <Gold.Id.Protein>
6NUR|6NUR_protein|mol2

> <Gold.PLP.Fitness>
47.0610

> <Gold.PLP.PLP>
-45.1748

> <Gold.PLP.part.hbond>
-1.3863

> <Gold.PLP.part.metal>
0.0000

> <Gold.PLP.part.buried>
-5.9676

> <Gold.PLP.part.nonpolar>
-38.3994

> <Gold.PLP.part.repulsive>
0.1459

> <Gold.PLP.ligand.clash>
0.0000

> <Gold.PLP.ligand.torsion>
1.5901

> <Gold.PLP.Chemscore.Hbond>
0.9913

> <Gold.PLP.Chemscore.CHOScore>
0.0000

> <Gold.PLP.Chemscore.Metal>
0.0000

> <Gold.PLP.Chemscore.Internal.Correction>
2.0927

> <Gold.Rescore>
     Score         DG    S(hbond)    S(metal)    S(lipo)     H(rot)  DE(clash)    DE(int)     intcor
     17.48     -18.94       0.93        0.00     122.65       1.56       0.05       1.41       ----

> <Gold.Chemscore.Fitness>
17.4810

> <Gold.Chemscore.DG>
-18.9366

> <Gold.Chemscore.ZeroCoef>
-5.4800

> <Gold.Chemscore.Hbond>
0.9314

> <Gold.Chemscore.Metal>
0.0000

> <Gold.Chemscore.Lipo>
122.6524

> <Gold.Chemscore.Internal_Hbond>
0.0000

> <Gold.Chemscore.DEClash>
0.0501

> <Gold.Chemscore.DEInternal>
1.4055

> <Gold.Chemscore.Rot>
1.5643

> <Gold.Chemscore.Internal.Correction>
   9.000000E+99

> <Gold.Chemscore.Hbond.Weighted>
-3.1109

> <Gold.Chemscore.Metal.Weighted>
-0.0000

> <Gold.Chemscore.Lipo.Weighted>
-14.3503

> <Gold.Chemscore.Internal_Hbond.Weighted>
0.0000

> <Gold.Chemscore.DEClash.Weighted>
0.0501

> <Gold.Chemscore.DEInternal.Weighted>
1.4055

> <Gold.Chemscore.Rot.Weighted>
4.0046

> <Gold.Chemscore.Internal.Correction.Weighted>
   9.000000E+99

> <Gold.Protein.RotatedTorsions>
[ 6907 6896 6895 6894 ] final  -24.02 input  -60.11 | X-H torsion
[ 7974 7965 7964 7962 ] final  159.45 input  175.53 | X-H torsion
[ 8008 7997 7996 7995 ] final  178.41 input   59.86 | X-H torsion
[ 10167 10162 10161 10158 ] final   72.90 input  -65.29 | X-H torsion
[ 10718 10713 10712 10709 ] final  -87.50 input   66.30 | X-H torsion
[ 10763 10752 10751 10750 ] final   25.19 input  -60.55 | X-H torsion
[ 11005 11000 10999 10996 ] final   -2.88 input  -57.11 | X-H torsion

> <Gold.Protein.ActiveResidues>
 VAL166  LYS551  ARG553  GLY616  TRP617  ASP618  TYR619  PRO620  LYS621  CYS622 
 ASP623  PHE694  ASN695  SER759  ASP760  ASP761  ALA762  ILE779  LEU786  VAL792 
 PHE793  MET794  SER795  GLU796  ALA797  LYS798  CYS799  TRP800  GLU811  SER814 

> <Gold.Protein.RotatedAtoms>
  151.1956  135.0421  159.8850 H   0  0  0  0  0  0  0  0  0  0  0  0  # atno 6907 bound_to 6896
  152.5436  134.0907  159.8286 H   0  0  0  0  0  0  0  0  0  0  0  0  # atno 6908 bound_to 6896
  151.1041  133.5174  159.2640 H   0  0  0  0  0  0  0  0  0  0  0  0  # atno 6909 bound_to 6896
  144.7789  139.7619  143.6267 H   0  0  0  0  0  0  0  0  0  0  0  0  # atno 7974 bound_to 7965
  156.0550  140.1334  157.0007 H   0  0  0  0  0  0  0  0  0  0  0  0  # atno 8008 bound_to 7997
  154.4453  140.1003  156.6503 H   0  0  0  0  0  0  0  0  0  0  0  0  # atno 8009 bound_to 7997
  155.5465  140.3462  155.4461 H   0  0  0  0  0  0  0  0  0  0  0  0  # atno 8010 bound_to 7997
  140.0302  144.5471  150.7513 H   0  0  0  0  0  0  0  0  0  0  0  0  # atno 10167 bound_to 10162
  155.9985  130.4802  150.4877 H   0  0  0  0  0  0  0  0  0  0  0  0  # atno 10718 bound_to 10713
  153.0709  135.6588  154.0249 H   0  0  0  0  0  0  0  0  0  0  0  0  # atno 10763 bound_to 10752
  153.9895  135.2947  155.3414 H   0  0  0  0  0  0  0  0  0  0  0  0  # atno 10764 bound_to 10752
  154.7083  135.5216  153.8698 H   0  0  0  0  0  0  0  0  0  0  0  0  # atno 10765 bound_to 10752
  140.6632  133.9302  155.8449 H   0  0  0  0  0  0  0  0  0  0  0  0  # atno 11005 bound_to 11000
  146.1986  139.5267  142.9758 LP  0  0  0  0  0  0  0  0  0  0  0  0  # atno 17320 bound_to 7965
  145.6105  141.0340  143.1969 LP  0  0  0  0  0  0  0  0  0  0  0  0  # atno 17321 bound_to 7965
  140.7305  143.2684  151.3969 LP  0  0  0  0  0  0  0  0  0  0  0  0  # atno 17342 bound_to 10162
  139.6081  144.1155  152.2270 LP  0  0  0  0  0  0  0  0  0  0  0  0  # atno 17343 bound_to 10162
  157.2875  131.0619  151.2156 LP  0  0  0  0  0  0  0  0  0  0  0  0  # atno 17370 bound_to 10713
  157.3180  130.6923  149.6253 LP  0  0  0  0  0  0  0  0  0  0  0  0  # atno 17371 bound_to 10713
  141.0449  134.0568  157.3856 LP  0  0  0  0  0  0  0  0  0  0  0  0  # atno 17394 bound_to 11000
  139.9006  135.0163  156.7249 LP  0  0  0  0  0  0  0  0  0  0  0  0  # atno 17395 bound_to 11000

$$$$
