AV-unprocessed.smi:2779|AV-procd|sdf|10711|dock2
  -GOLD-   2272015143D 1   1.00000     0.00000
 Structure written by MMmdl.
 38 39  0  0  0  0  0  0  0  0  1 V2000
  154.2901  135.2747  159.7097 O   0  0  0  0  0  0  0  0  0  0  0  0
  155.2367  135.5126  158.9599 C   0  0  0  0  0  0  0  0  0  0  0  0
  156.6178  135.1568  159.2753 C   0  0  0  0  0  0  0  0  0  0  0  0
  157.6313  135.4206  158.4231 C   0  0  0  0  0  0  0  0  0  0  0  0
  157.3498  136.0770  157.1570 C   0  0  0  0  0  0  0  0  0  0  0  0
  158.4105  136.4096  156.1367 C   0  0  0  0  0  0  0  0  0  0  0  0
  158.4643  137.7226  155.9105 F   0  0  0  0  0  0  0  0  0  0  0  0
  159.6050  136.0055  156.5699 F   0  0  0  0  0  0  0  0  0  0  0  0
  158.1477  135.7919  154.9846 F   0  0  0  0  0  0  0  0  0  0  0  0
  156.1286  136.3989  156.8742 N   0  0  0  0  0  0  0  0  0  0  0  0
  155.0916  136.1276  157.7498 N   0  0  0  0  0  0  0  0  0  0  0  0
  153.7729  136.5477  157.2606 C   0  0  0  0  0  0  0  0  0  0  0  0
  153.6075  138.0826  157.2909 C   0  0  2  0  0  0  0  0  0  0  0  0
  154.7787  138.7143  156.8139 O   0  0  0  0  0  0  0  0  0  0  0  0
  153.3149  138.6328  158.6966 C   0  0  0  0  0  0  0  0  0  0  0  0
  153.7188  139.9905  158.7869 O   0  0  0  0  0  0  0  0  0  0  0  0
  153.4655  140.5563  160.0628 C   0  0  0  0  0  0  0  0  0  0  0  0
  152.8921  141.9575  159.9639 C   0  0  0  0  0  0  0  0  0  0  0  0
  152.8438  142.6235  158.7202 C   0  0  0  0  0  0  0  0  0  0  0  0
  152.2886  143.9148  158.6290 C   0  0  0  0  0  0  0  0  0  0  0  0
  151.7737  144.5436  159.7790 C   0  0  0  0  0  0  0  0  0  0  0  0
  151.8111  143.8791  161.0201 C   0  0  0  0  0  0  0  0  0  0  0  0
  152.3660  142.5876  161.1118 C   0  0  0  0  0  0  0  0  0  0  0  0
  152.7875  138.3859  156.6390 H   0  0  0  0  0  0  0  0  0  0  0  0
  156.8318  134.6686  160.2148 H   0  0  0  0  0  0  0  0  0  0  0  0
  158.6446  135.1471  158.6769 H   0  0  0  0  0  0  0  0  0  0  0  0
  153.6445  136.1856  156.2387 H   0  0  0  0  0  0  0  0  0  0  0  0
  152.9754  136.0670  157.8311 H   0  0  0  0  0  0  0  0  0  0  0  0
  155.5132  138.1411  156.9720 H   0  0  0  0  0  0  0  0  0  0  0  0
  152.2561  138.5236  158.9391 H   0  0  0  0  0  0  0  0  0  0  0  0
  153.8729  138.0506  159.4316 H   0  0  0  0  0  0  0  0  0  0  0  0
  152.7535  139.9374  160.6108 H   0  0  0  0  0  0  0  0  0  0  0  0
  154.3904  140.5808  160.6412 H   0  0  0  0  0  0  0  0  0  0  0  0
  153.2303  142.1463  157.8315 H   0  0  0  0  0  0  0  0  0  0  0  0
  152.2549  144.4215  157.6757 H   0  0  0  0  0  0  0  0  0  0  0  0
  151.3469  145.5334  159.7084 H   0  0  0  0  0  0  0  0  0  0  0  0
  151.4114  144.3589  161.9014 H   0  0  0  0  0  0  0  0  0  0  0  0
  152.3858  142.0825  162.0664 H   0  0  0  0  0  0  0  0  0  0  0  0
  1  2  2  0  0  0  0
  2 11  1  0  0  0  0
  2  3  1  0  0  0  0
  3  4  2  0  0  0  0
  3 25  1  0  0  0  0
  4  5  1  0  0  0  0
  4 26  1  0  0  0  0
  5  6  1  0  0  0  0
  5 10  2  0  0  0  0
  6  7  1  0  0  0  0
  6  8  1  0  0  0  0
  6  9  1  0  0  0  0
 10 11  1  0  0  0  0
 11 12  1  0  0  0  0
 12 13  1  0  0  0  0
 12 27  1  0  0  0  0
 12 28  1  0  0  0  0
 13 24  1  0  0  0  0
 13 14  1  0  0  0  0
 13 15  1  0  0  0  0
 14 29  1  0  0  0  0
 15 16  1  0  0  0  0
 15 30  1  0  0  0  0
 15 31  1  0  0  0  0
 16 17  1  0  0  0  0
 17 18  1  0  0  0  0
 17 32  1  0  0  0  0
 17 33  1  0  0  0  0
 18 23  1  0  0  0  0
 18 19  2  0  0  0  0
 19 20  1  0  0  0  0
 19 34  1  0  0  0  0
 20 21  2  0  0  0  0
 20 35  1  0  0  0  0
 21 22  1  0  0  0  0
 21 36  1  0  0  0  0
 22 23  2  0  0  0  0
 22 37  1  0  0  0  0
 23 38  1  0  0  0  0
M  END
> <s_m_source_file>
AV-unprocessed.smi

> <i_m_source_file_index>
2779

> <i_lp_mmshare_version>
43012

> <i_f3d_flags>
0

> <s_epik_input>
Tz1jMVtjSF1bY0hdYyhDKEYpKEYpRilubjFbQ0gyXVtDQEhdKFtPSF0pW0NIMl1PW0NIMl1jMltjSF1bY0hdW2NIXVtjSF1bY0hdMg==

> <s_epik_cmdline>
J2VwaWtfcHl0aG9uJywgJy1waCcsICc3LjAnLCAnLXRuJywgJzgnLCAnLW1hJywgJzIwMCcsICctbWV0YWxfYmluZGluZycsICctaW1hZScsICc8aW5maWxlLm1hZT4nLCAnLW9tYWUnLCAnPG91dGZpbGUubWFlPic=

> <r_lp_tautomer_probability>
1

> <r_epik_Ionization_Penalty>
6.7226e-08

> <r_epik_Ionization_Penalty_Charging>
6.11342e-09

> <r_epik_Ionization_Penalty_Neutral>
6.11126e-08

> <r_epik_State_Penalty>
-0

> <r_epik_Charging_Adjusted_Penalty>
6.11342e-09

> <i_epik_Tot_Q>
0

> <i_epik_Tot_abs_Q>
0

> <r_epik_Metal_State_Penalty>
-0

> <b_epik_Metal_Only>
0

> <s_lp_Force_Field>
OPLS_2005

> <r_lp_Energy>
33.7736

> <b_lp_Chiralities_Consistent>
1

> <s_lp_Variant>
AV-unprocessed.smi:2779-1

> <Gold.Version>
5.8.1

> <Gold.Id.Protein>
6NUR|6NUR_protein|mol2

> <Gold.PLP.Fitness>
46.0627

> <Gold.PLP.PLP>
-38.8282

> <Gold.PLP.part.hbond>
-1.5550

> <Gold.PLP.part.metal>
0.0000

> <Gold.PLP.part.buried>
-5.4723

> <Gold.PLP.part.nonpolar>
-31.4802

> <Gold.PLP.part.repulsive>
0.0000

> <Gold.PLP.ligand.clash>
0.0000

> <Gold.PLP.ligand.torsion>
0.9646

> <Gold.PLP.Chemscore.Hbond>
2.9913

> <Gold.PLP.Chemscore.CHOScore>
0.0000

> <Gold.PLP.Chemscore.Metal>
0.0000

> <Gold.Chemscore.Hbonds>
donor molecule, donor type, donor heavy atom, donor atom, acceptor molecule, acceptor atom, score
      P1  H  6896  6909       L1     1  1.00
      P1  H  7997  8008       L1    16  0.90

> <Gold.PLP.Chemscore.Internal.Correction>
0.1898

> <Gold.Rescore>
     Score         DG    S(hbond)    S(metal)    S(lipo)     H(rot)  DE(clash)    DE(int)     intcor
     17.35     -18.59       2.60        0.00      99.17       2.80       0.10       1.14       ----

> <Gold.Chemscore.Fitness>
17.3525

> <Gold.Chemscore.DG>
-18.5931

> <Gold.Chemscore.ZeroCoef>
-5.4800

> <Gold.Chemscore.Hbond>
2.5999

> <Gold.Chemscore.Metal>
0.0000

> <Gold.Chemscore.Lipo>
99.1697

> <Gold.Chemscore.Internal_Hbond>
0.0000

> <Gold.Chemscore.DEClash>
0.1030

> <Gold.Chemscore.DEInternal>
1.1375

> <Gold.Chemscore.Rot>
2.8022

> <Gold.Chemscore.Internal.Correction>
   9.000000E+99

> <Gold.Chemscore.Hbonds>
donor molecule, donor type, donor heavy atom, donor atom, acceptor molecule, acceptor atom, score
      P1  H  6896  6909       L1     1  0.99
      P1  H  7997  8008       L1    16  0.17

> <Gold.Chemscore.Hbond.Weighted>
-8.6838

> <Gold.Chemscore.Metal.Weighted>
-0.0000

> <Gold.Chemscore.Lipo.Weighted>
-11.6029

> <Gold.Chemscore.Internal_Hbond.Weighted>
0.0000

> <Gold.Chemscore.DEClash.Weighted>
0.1030

> <Gold.Chemscore.DEInternal.Weighted>
1.1375

> <Gold.Chemscore.Rot.Weighted>
7.1736

> <Gold.Chemscore.Internal.Correction.Weighted>
   9.000000E+99

> <Gold.Protein.RotatedTorsions>
[ 6907 6896 6895 6894 ] final -179.20 input  -60.11 | X-H torsion
[ 7974 7965 7964 7962 ] final   16.80 input  175.53 | X-H torsion
[ 8008 7997 7996 7995 ] final -101.40 input   59.86 | X-H torsion
[ 10167 10162 10161 10158 ] final   20.38 input  -65.29 | X-H torsion
[ 10718 10713 10712 10709 ] final   98.48 input   66.30 | X-H torsion
[ 10763 10752 10751 10750 ] final   68.84 input  -60.55 | X-H torsion
[ 11005 11000 10999 10996 ] final -153.12 input  -57.11 | X-H torsion

> <Gold.Protein.ActiveResidues>
 VAL166  LYS551  ARG553  GLY616  TRP617  ASP618  TYR619  PRO620  LYS621  CYS622 
 ASP623  PHE694  ASN695  SER759  ASP760  ASP761  ALA762  ILE779  LEU786  VAL792 
 PHE793  MET794  SER795  GLU796  ALA797  LYS798  CYS799  TRP800  GLU811  SER814 

> <Gold.Protein.RotatedAtoms>
  151.6496  133.3321  159.3148 H   0  0  0  0  0  0  0  0  0  0  0  0  # atno 6907 bound_to 6896
  150.7967  134.7035  159.6573 H   0  0  0  0  0  0  0  0  0  0  0  0  # atno 6908 bound_to 6896
  152.4055  134.6219  160.0104 H   0  0  0  0  0  0  0  0  0  0  0  0  # atno 6909 bound_to 6896
  146.2238  139.8696  142.8590 H   0  0  0  0  0  0  0  0  0  0  0  0  # atno 7974 bound_to 7965
  154.8420  140.0434  157.1548 H   0  0  0  0  0  0  0  0  0  0  0  0  # atno 8008 bound_to 7997
  154.9036  140.3003  155.5284 H   0  0  0  0  0  0  0  0  0  0  0  0  # atno 8009 bound_to 7997
  156.2992  140.2371  156.4067 H   0  0  0  0  0  0  0  0  0  0  0  0  # atno 8010 bound_to 7997
  140.5508  143.9512  150.6577 H   0  0  0  0  0  0  0  0  0  0  0  0  # atno 10167 bound_to 10162
  157.6894  131.0641  150.4803 H   0  0  0  0  0  0  0  0  0  0  0  0  # atno 10718 bound_to 10713
  153.0256  135.5232  154.7197 H   0  0  0  0  0  0  0  0  0  0  0  0  # atno 10763 bound_to 10752
  154.6256  135.2894  155.0279 H   0  0  0  0  0  0  0  0  0  0  0  0  # atno 10764 bound_to 10752
  154.1249  135.6602  153.4963 H   0  0  0  0  0  0  0  0  0  0  0  0  # atno 10765 bound_to 10752
  140.7115  134.3827  157.5197 H   0  0  0  0  0  0  0  0  0  0  0  0  # atno 11005 bound_to 11000
  145.2622  141.0081  143.3820 LP  0  0  0  0  0  0  0  0  0  0  0  0  # atno 17320 bound_to 7965
  144.9289  139.4322  143.6504 LP  0  0  0  0  0  0  0  0  0  0  0  0  # atno 17321 bound_to 7965
  140.2938  143.3306  152.1037 LP  0  0  0  0  0  0  0  0  0  0  0  0  # atno 17342 bound_to 10162
  139.5026  144.6739  151.6176 LP  0  0  0  0  0  0  0  0  0  0  0  0  # atno 17343 bound_to 10162
  156.5135  130.4145  149.6288 LP  0  0  0  0  0  0  0  0  0  0  0  0  # atno 17370 bound_to 10713
  156.3219  130.7285  151.2198 LP  0  0  0  0  0  0  0  0  0  0  0  0  # atno 17371 bound_to 10713
  139.8870  134.8893  156.2551 LP  0  0  0  0  0  0  0  0  0  0  0  0  # atno 17394 bound_to 11000
  141.0080  133.7112  156.1066 LP  0  0  0  0  0  0  0  0  0  0  0  0  # atno 17395 bound_to 11000

$$$$
