AV-unprocessed.smi:15|AV-procd|sdf|86|dock6
  -GOLD-   2262015223D 1   1.00000     0.00000
 Structure written by MMmdl.
 53 56  0  0  0  0  0  0  0  0  1 V2000
  152.2561  139.6550  155.2680 C   0  0  0  0  0  0  0  0  0  0  0  0
  151.8604  140.2219  156.6377 C   0  0  0  0  0  0  0  0  0  0  0  0
  150.9945  141.3965  156.5362 N   0  0  0  0  0  0  0  0  0  0  0  0
  150.9917  142.4049  157.5979 C   0  0  0  0  0  0  0  0  0  0  0  0
  152.2298  142.3275  158.5114 C   0  0  1  0  0  0  0  0  0  0  0  0
  152.2319  143.3688  159.6277 C   0  0  0  0  0  0  0  0  0  0  0  0
  153.1216  142.7458  160.6928 C   0  0  0  0  0  0  0  0  0  0  0  0
  153.1979  141.2685  160.2964 C   0  0  0  0  0  0  0  0  0  0  0  0
  152.2474  141.1171  159.2525 O   0  0  0  0  0  0  0  0  0  0  0  0
  149.7962  141.2284  155.9264 C   0  0  0  0  0  0  0  0  0  0  0  0
  149.8029  140.7450  154.6580 N   0  0  0  0  0  0  0  0  0  0  0  0
  148.6548  140.5788  153.9954 C   0  0  0  0  0  0  0  0  0  0  0  0
  147.4109  140.8366  154.4034 N   0  0  0  0  0  0  0  0  0  0  0  0
  147.3986  141.3323  155.6740 C   0  0  0  0  0  0  0  0  0  0  0  0
  148.5343  141.5565  156.5029 C   0  0  0  0  0  0  0  0  0  0  0  0
  148.1284  142.0887  157.7218 N   0  0  0  0  0  0  0  0  0  0  0  0
  146.8298  142.1663  157.6216 C   0  0  0  0  0  0  0  0  0  0  0  0
  146.3065  141.7285  156.4263 N   0  0  0  0  0  0  0  0  0  0  0  0
  144.9022  141.7103  156.0454 C   0  0  0  0  0  0  0  0  0  0  0  0
  144.3118  143.1229  155.7973 C   0  0  2  0  0  0  0  0  0  0  0  0
  144.8943  143.6344  154.6094 O   0  0  0  0  0  0  0  0  0  0  0  0
  144.5975  144.1131  156.9223 C   0  0  0  0  0  0  0  0  0  0  0  0
  143.4342  145.0872  156.8209 C   0  0  0  0  0  0  0  0  0  0  0  0
  142.3409  144.2324  156.5357 O   0  0  0  0  0  0  0  0  0  0  0  0
  142.7673  143.2095  155.6380 C   0  0  2  0  0  0  0  0  0  0  0  0
  141.9659  141.9416  155.9743 C   0  0  0  0  0  0  0  0  0  0  0  0
  152.8361  138.7396  155.3863 H   0  0  0  0  0  0  0  0  0  0  0  0
  152.8693  140.3554  154.7012 H   0  0  0  0  0  0  0  0  0  0  0  0
  151.3753  139.4150  154.6720 H   0  0  0  0  0  0  0  0  0  0  0  0
  151.3435  139.4391  157.1947 H   0  0  0  0  0  0  0  0  0  0  0  0
  152.7565  140.4689  157.2068 H   0  0  0  0  0  0  0  0  0  0  0  0
  150.9482  143.3905  157.1361 H   0  0  0  0  0  0  0  0  0  0  0  0
  150.0828  142.3255  158.1956 H   0  0  0  0  0  0  0  0  0  0  0  0
  153.1522  142.4143  157.9348 H   0  0  0  0  0  0  0  0  0  0  0  0
  152.5874  144.3436  159.2928 H   0  0  0  0  0  0  0  0  0  0  0  0
  151.2237  143.4963  160.0246 H   0  0  0  0  0  0  0  0  0  0  0  0
  154.1164  143.1928  160.6928 H   0  0  0  0  0  0  0  0  0  0  0  0
  152.6932  142.8787  161.6866 H   0  0  0  0  0  0  0  0  0  0  0  0
  154.1905  141.0232  159.9163 H   0  0  0  0  0  0  0  0  0  0  0  0
  152.9761  140.5982  161.1270 H   0  0  0  0  0  0  0  0  0  0  0  0
  148.7464  140.1872  152.9930 H   0  0  0  0  0  0  0  0  0  0  0  0
  146.2129  142.5469  158.4226 H   0  0  0  0  0  0  0  0  0  0  0  0
  144.8011  141.0936  155.1515 H   0  0  0  0  0  0  0  0  0  0  0  0
  144.3531  141.1991  156.8361 H   0  0  0  0  0  0  0  0  0  0  0  0
  144.3466  143.3900  153.8791 H   0  0  0  0  0  0  0  0  0  0  0  0
  144.5470  143.6083  157.8880 H   0  0  0  0  0  0  0  0  0  0  0  0
  145.5729  144.5964  156.8500 H   0  0  0  0  0  0  0  0  0  0  0  0
  143.2746  145.6534  157.7385 H   0  0  0  0  0  0  0  0  0  0  0  0
  143.5785  145.7898  155.9989 H   0  0  0  0  0  0  0  0  0  0  0  0
  142.5048  143.5230  154.6258 H   0  0  0  0  0  0  0  0  0  0  0  0
  142.2337  141.1136  155.3181 H   0  0  0  0  0  0  0  0  0  0  0  0
  140.8971  142.1195  155.8532 H   0  0  0  0  0  0  0  0  0  0  0  0
  142.1283  141.6275  157.0055 H   0  0  0  0  0  0  0  0  0  0  0  0
  1  2  1  0  0  0  0
  1 27  1  0  0  0  0
  1 28  1  0  0  0  0
  1 29  1  0  0  0  0
  2  3  1  0  0  0  0
  2 30  1  0  0  0  0
  2 31  1  0  0  0  0
  3  4  1  0  0  0  0
  3 10  1  0  0  0  0
  4  5  1  0  0  0  0
  4 32  1  0  0  0  0
  4 33  1  0  0  0  0
  5  9  1  0  0  0  0
  5  6  1  0  0  0  0
  5 34  1  0  0  0  0
  6  7  1  0  0  0  0
  6 35  1  0  0  0  0
  6 36  1  0  0  0  0
  7  8  1  0  0  0  0
  7 37  1  0  0  0  0
  7 38  1  0  0  0  0
  8  9  1  0  0  0  0
  8 39  1  0  0  0  0
  8 40  1  0  0  0  0
 10 15  1  0  0  0  0
 10 11  2  0  0  0  0
 11 12  1  0  0  0  0
 12 13  2  0  0  0  0
 12 41  1  0  0  0  0
 13 14  1  0  0  0  0
 14 18  1  0  0  0  0
 14 15  2  0  0  0  0
 15 16  1  0  0  0  0
 16 17  2  0  0  0  0
 17 18  1  0  0  0  0
 17 42  1  0  0  0  0
 18 19  1  0  0  0  0
 19 20  1  0  0  0  0
 19 43  1  0  0  0  0
 19 44  1  0  0  0  0
 20 25  1  0  0  0  0
 20 21  1  0  0  0  0
 20 22  1  0  0  0  0
 21 45  1  0  0  0  0
 22 23  1  0  0  0  0
 22 46  1  0  0  0  0
 22 47  1  0  0  0  0
 23 24  1  0  0  0  0
 23 48  1  0  0  0  0
 23 49  1  0  0  0  0
 24 25  1  0  0  0  0
 25 26  1  0  0  0  0
 25 50  1  0  0  0  0
 26 51  1  0  0  0  0
 26 52  1  0  0  0  0
 26 53  1  0  0  0  0
M  END
> <s_m_source_file>
AV-unprocessed.smi

> <i_m_source_file_index>
15

> <i_lp_mmshare_version>
43012

> <i_f3d_flags>
0

> <s_epik_input>
TzFbQ0gyXVtDSDJdW0NIMl1bQ0BIXTFbQ0gyXU4oW0NIMl1bQ0gzXSljKG5bY0hdbjIpYyhjMjMpbltjSF1uM1tDSDJdW0NAQF00KFtPSF0pW0NIMl1bQ0gyXU9bQ0BIXTRbQ0gzXQ==

> <s_epik_cmdline>
J2VwaWtfcHl0aG9uJywgJy1waCcsICc3LjAnLCAnLXRuJywgJzgnLCAnLW1hJywgJzIwMCcsICctbWV0YWxfYmluZGluZycsICctaW1hZScsICc8aW5maWxlLm1hZT4nLCAnLW9tYWUnLCAnPG91dGZpbGUubWFlPic=

> <r_lp_tautomer_probability>
1

> <r_epik_Ionization_Penalty>
0.00360814

> <r_epik_Ionization_Penalty_Charging>
0

> <r_epik_Ionization_Penalty_Neutral>
0.00360814

> <r_epik_State_Penalty>
0.00237482

> <r_epik_Charging_Adjusted_Penalty>
0.00237482

> <i_epik_Tot_Q>
0

> <i_epik_Tot_abs_Q>
0

> <r_epik_Metal_State_Penalty>
-0

> <b_epik_Metal_Only>
0

> <s_lp_Force_Field>
OPLS_2005

> <r_lp_Energy>
45.3604

> <b_lp_Chiralities_Consistent>
1

> <s_lp_Variant>
AV-unprocessed.smi:15-8

> <Gold.Version>
5.8.1

> <Gold.Id.Protein>
6NUR|6NUR_protein|mol2

> <Gold.PLP.Fitness>
43.5744

> <Gold.PLP.PLP>
-40.5273

> <Gold.PLP.part.hbond>
-1.0000

> <Gold.PLP.part.metal>
0.0000

> <Gold.PLP.part.buried>
-4.7090

> <Gold.PLP.part.nonpolar>
-35.7441

> <Gold.PLP.part.repulsive>
0.4397

> <Gold.PLP.ligand.clash>
0.0000

> <Gold.PLP.ligand.torsion>
1.2332

> <Gold.PLP.Chemscore.Hbond>
0.5255

> <Gold.PLP.Chemscore.CHOScore>
0.9885

> <Gold.PLP.Chemscore.Metal>
0.0000

> <Gold.Chemscore.Hbonds>
donor molecule, donor type, donor heavy atom, donor atom, acceptor molecule, acceptor atom, score
      P1  H  7989  7998       L1    11  0.50
      L1  C    12    41       P1  7957  1.00

> <Gold.PLP.Chemscore.Internal.Correction>
0.9716

> <Gold.Rescore>
     Score         DG    S(hbond)    S(metal)    S(lipo)     H(rot)  DE(clash)    DE(int)     intcor
      5.78     -11.39       0.50        0.00      89.70       2.44       0.33       5.29       ----

> <Gold.Chemscore.Fitness>
5.7782

> <Gold.Chemscore.DG>
-11.3945

> <Gold.Chemscore.ZeroCoef>
-5.4800

> <Gold.Chemscore.Hbond>
0.5013

> <Gold.Chemscore.Metal>
0.0000

> <Gold.Chemscore.Lipo>
89.6974

> <Gold.Chemscore.Internal_Hbond>
0.0000

> <Gold.Chemscore.DEClash>
0.3311

> <Gold.Chemscore.DEInternal>
5.2851

> <Gold.Chemscore.Rot>
2.4431

> <Gold.Chemscore.Internal.Correction>
   9.000000E+99

> <Gold.Chemscore.Hbonds>
donor molecule, donor type, donor heavy atom, donor atom, acceptor molecule, acceptor atom, score
      P1  H  7989  7998       L1    11  0.46

> <Gold.Chemscore.Hbond.Weighted>
-1.6743

> <Gold.Chemscore.Metal.Weighted>
-0.0000

> <Gold.Chemscore.Lipo.Weighted>
-10.4946

> <Gold.Chemscore.Internal_Hbond.Weighted>
0.0000

> <Gold.Chemscore.DEClash.Weighted>
0.3311

> <Gold.Chemscore.DEInternal.Weighted>
5.2851

> <Gold.Chemscore.Rot.Weighted>
6.2544

> <Gold.Chemscore.Internal.Correction.Weighted>
   9.000000E+99

> <Gold.Protein.RotatedTorsions>
[ 6907 6896 6895 6894 ] final   81.67 input  -60.11 | X-H torsion
[ 7974 7965 7964 7962 ] final -131.00 input  175.53 | X-H torsion
[ 8008 7997 7996 7995 ] final  -70.75 input   59.86 | X-H torsion
[ 10167 10162 10161 10158 ] final   66.98 input  -65.29 | X-H torsion
[ 10718 10713 10712 10709 ] final  -64.27 input   66.30 | X-H torsion
[ 10763 10752 10751 10750 ] final   85.73 input  -60.55 | X-H torsion
[ 11005 11000 10999 10996 ] final -133.47 input  -57.11 | X-H torsion

> <Gold.Protein.ActiveResidues>
 VAL166  LYS551  ARG553  GLY616  TRP617  ASP618  TYR619  PRO620  LYS621  CYS622 
 ASP623  PHE694  ASN695  SER759  ASP760  ASP761  ALA762  ILE779  LEU786  VAL792 
 PHE793  MET794  SER795  GLU796  ALA797  LYS798  CYS799  TRP800  GLU811  SER814 

> <Gold.Protein.RotatedAtoms>
  152.5276  134.3167  159.9133 H   0  0  0  0  0  0  0  0  0  0  0  0  # atno 6907 bound_to 6896
  151.3117  133.4071  159.2655 H   0  0  0  0  0  0  0  0  0  0  0  0  # atno 6908 bound_to 6896
  151.0033  134.9356  159.8023 H   0  0  0  0  0  0  0  0  0  0  0  0  # atno 6909 bound_to 6896
  144.9421  140.7250  143.4840 H   0  0  0  0  0  0  0  0  0  0  0  0  # atno 7974 bound_to 7965
  154.5036  140.0828  156.7848 H   0  0  0  0  0  0  0  0  0  0  0  0  # atno 8008 bound_to 7997
  155.3946  140.3434  155.4235 H   0  0  0  0  0  0  0  0  0  0  0  0  # atno 8009 bound_to 7997
  156.1487  140.1551  156.8792 H   0  0  0  0  0  0  0  0  0  0  0  0  # atno 8010 bound_to 7997
  140.0946  144.4958  150.7077 H   0  0  0  0  0  0  0  0  0  0  0  0  # atno 10167 bound_to 10162
  156.0739  130.4231  150.1397 H   0  0  0  0  0  0  0  0  0  0  0  0  # atno 10718 bound_to 10713
  153.1503  135.4606  154.9626 H   0  0  0  0  0  0  0  0  0  0  0  0  # atno 10763 bound_to 10752
  154.7819  135.3191  154.7973 H   0  0  0  0  0  0  0  0  0  0  0  0  # atno 10764 bound_to 10752
  153.8480  135.6924  153.4850 H   0  0  0  0  0  0  0  0  0  0  0  0  # atno 10765 bound_to 10752
  140.9077  134.1608  157.4413 H   0  0  0  0  0  0  0  0  0  0  0  0  # atno 11005 bound_to 11000
  145.2974  139.1862  143.4707 LP  0  0  0  0  0  0  0  0  0  0  0  0  # atno 17320 bound_to 7965
  146.3290  140.2960  142.8618 LP  0  0  0  0  0  0  0  0  0  0  0  0  # atno 17321 bound_to 7965
  140.7010  143.2435  151.4863 LP  0  0  0  0  0  0  0  0  0  0  0  0  # atno 17342 bound_to 10162
  139.5705  144.1939  152.1830 LP  0  0  0  0  0  0  0  0  0  0  0  0  # atno 17343 bound_to 10162
  156.9442  130.9754  151.3510 LP  0  0  0  0  0  0  0  0  0  0  0  0  # atno 17370 bound_to 10713
  157.5824  130.8386  149.8542 LP  0  0  0  0  0  0  0  0  0  0  0  0  # atno 17371 bound_to 10713
  139.8752  134.9923  156.5592 LP  0  0  0  0  0  0  0  0  0  0  0  0  # atno 17394 bound_to 11000
  140.8149  133.8399  155.8843 LP  0  0  0  0  0  0  0  0  0  0  0  0  # atno 17395 bound_to 11000

$$$$
