AV-unprocessed.smi:334|AV-procd|sdf|2366|dock2
  -GOLD-   2262022283D 1   1.00000     0.00000
 Structure written by MMmdl.
 44 46  0  0  0  0  0  0  0  0  3 V2000
  145.0748  135.0591  154.5410 C   0  0  0  0  0  0  0  0  0  0  0  0
  146.6100  135.1375  154.4941 C   0  0  2  0  0  0  0  0  0  0  0  0
  147.0266  136.3576  153.8123 N   0  0  0  0  0  0  0  0  0  0  0  0
  146.7626  137.6148  154.2051 C   0  0  0  0  0  0  0  0  0  0  0  0
  146.0407  137.8787  155.1657 O   0  0  0  0  0  0  0  0  0  0  0  0
  147.4239  138.7627  153.4231 C   0  0  0  0  0  0  0  0  0  0  0  0
  148.5659  139.3927  154.1122 N   0  0  0  0  0  0  0  0  0  0  0  0
  149.7390  138.6235  154.2433 C   0  0  0  0  0  0  0  0  0  0  0  0
  150.8346  139.0908  154.8732 C   0  0  0  0  0  0  0  0  0  0  0  0
  152.0255  138.2818  155.0108 N   0  3  0  0  0  0  0  0  0  0  0  0
  153.0266  138.7879  155.5073 O   0  0  0  0  0  0  0  0  0  0  0  0
  152.0001  137.1155  154.6293 O   0  5  0  0  0  0  0  0  0  0  0  0
  150.7774  140.4326  155.4196 C   0  0  0  0  0  0  0  0  0  0  0  0
  149.6569  141.1716  155.3021 C   0  0  0  0  0  0  0  0  0  0  0  0
  148.4624  140.6577  154.6247 C   0  0  0  0  0  0  0  0  0  0  0  0
  147.4286  141.3195  154.5331 O   0  0  0  0  0  0  0  0  0  0  0  0
  147.2322  133.9172  153.7756 C   0  0  2  0  0  0  0  0  0  0  0  0
  146.7181  132.5459  154.2671 C   0  0  0  0  0  0  0  0  0  0  0  0
  148.0188  131.7660  154.5365 C   0  0  2  0  0  0  0  0  0  0  0  0
  148.6775  132.3109  155.8176 C   0  0  0  0  0  0  0  0  0  0  0  0
  149.2252  133.6757  155.3628 C   0  0  0  0  0  0  0  0  0  0  0  0
  148.7698  133.7511  153.8913 C   0  0  1  0  0  0  0  0  0  0  0  0
  148.9463  132.3017  153.4518 C   0  0  0  0  0  0  0  0  0  0  0  0
  144.7412  134.1619  155.0623 H   0  0  0  0  0  0  0  0  0  0  0  0
  144.6471  135.0394  153.5381 H   0  0  0  0  0  0  0  0  0  0  0  0
  144.6515  135.9159  155.0662 H   0  0  0  0  0  0  0  0  0  0  0  0
  146.9784  135.1657  155.5209 H   0  0  0  0  0  0  0  0  0  0  0  0
  147.6215  136.2365  153.0057 H   0  0  0  0  0  0  0  0  0  0  0  0
  147.7342  138.3726  152.4530 H   0  0  0  0  0  0  0  0  0  0  0  0
  146.6636  139.5117  153.1946 H   0  0  0  0  0  0  0  0  0  0  0  0
  149.6771  137.6353  153.8104 H   0  0  0  0  0  0  0  0  0  0  0  0
  151.6326  140.8550  155.9266 H   0  0  0  0  0  0  0  0  0  0  0  0
  149.6361  142.1686  155.7173 H   0  0  0  0  0  0  0  0  0  0  0  0
  147.0007  134.0051  152.7122 H   0  0  0  0  0  0  0  0  0  0  0  0
  146.0973  132.6158  155.1613 H   0  0  0  0  0  0  0  0  0  0  0  0
  146.1245  132.0611  153.4911 H   0  0  0  0  0  0  0  0  0  0  0  0
  147.8873  130.6837  154.5392 H   0  0  0  0  0  0  0  0  0  0  0  0
  147.9682  132.4013  156.6409 H   0  0  0  0  0  0  0  0  0  0  0  0
  149.4901  131.6620  156.1461 H   0  0  0  0  0  0  0  0  0  0  0  0
  148.8615  134.5025  155.9719 H   0  0  0  0  0  0  0  0  0  0  0  0
  150.3142  133.6860  155.4234 H   0  0  0  0  0  0  0  0  0  0  0  0
  149.3344  134.4710  153.2979 H   0  0  0  0  0  0  0  0  0  0  0  0
  149.9728  131.9422  153.5427 H   0  0  0  0  0  0  0  0  0  0  0  0
  148.5875  132.1068  152.4396 H   0  0  0  0  0  0  0  0  0  0  0  0
  1  2  1  0  0  0  0
  1 24  1  0  0  0  0
  1 25  1  0  0  0  0
  1 26  1  0  0  0  0
  2  3  1  0  0  0  0
  2 17  1  0  0  0  0
  2 27  1  0  0  0  0
  3  4  1  0  0  0  0
  3 28  1  0  0  0  0
  4  5  2  0  0  0  0
  4  6  1  0  0  0  0
  6  7  1  0  0  0  0
  6 29  1  0  0  0  0
  6 30  1  0  0  0  0
  7 15  1  0  0  0  0
  7  8  1  0  0  0  0
  8  9  2  0  0  0  0
  8 31  1  0  0  0  0
  9 10  1  0  0  0  0
  9 13  1  0  0  0  0
 10 11  2  0  0  0  0
 10 12  1  0  0  0  0
 13 14  2  0  0  0  0
 13 32  1  0  0  0  0
 14 15  1  0  0  0  0
 14 33  1  0  0  0  0
 15 16  2  0  0  0  0
 17 22  1  0  0  0  0
 17 18  1  0  0  0  0
 17 34  1  0  0  0  0
 18 19  1  0  0  0  0
 18 35  1  0  0  0  0
 18 36  1  0  0  0  0
 19 23  1  0  0  0  0
 19 20  1  0  0  0  0
 19 37  1  0  0  0  0
 20 21  1  0  0  0  0
 20 38  1  0  0  0  0
 20 39  1  0  0  0  0
 21 22  1  0  0  0  0
 21 40  1  0  0  0  0
 21 41  1  0  0  0  0
 22 23  1  0  0  0  0
 22 42  1  0  0  0  0
 23 43  1  0  0  0  0
 23 44  1  0  0  0  0
M  CHG  1  10   1
M  CHG  1  12  -1
M  END
> <s_m_source_file>
AV-unprocessed.smi

> <i_m_source_file_index>
334

> <i_lp_mmshare_version>
43012

> <i_f3d_flags>
0

> <s_epik_input>
W0NIMl0xW0NIMl1bQ0BIXShbQ0gyXTIpW0NAQEhdKFtDSDJdW0NAQEhdMTIpW0NASF0oW0NIM10pW05IXUMoPU8pW0NIMl1uM1tjSF1jKFtOK10oPU8pW08tXSlbY0hdW2NIXWMzPU8=

> <s_epik_cmdline>
J2VwaWtfcHl0aG9uJywgJy1waCcsICc3LjAnLCAnLXRuJywgJzgnLCAnLW1hJywgJzIwMCcsICctbWV0YWxfYmluZGluZycsICctaW1hZScsICc8aW5maWxlLm1hZT4nLCAnLW9tYWUnLCAnPG91dGZpbGUubWFlPic=

> <r_lp_tautomer_probability>
1

> <r_epik_Ionization_Penalty>
2.17081e-08

> <r_epik_Ionization_Penalty_Charging>
8.1195e-11

> <r_epik_Ionization_Penalty_Neutral>
2.16269e-08

> <r_epik_State_Penalty>
-0

> <r_epik_Charging_Adjusted_Penalty>
8.1195e-11

> <i_epik_Tot_Q>
0

> <i_epik_Tot_abs_Q>
2

> <r_epik_Metal_State_Penalty>
-0

> <b_epik_Metal_Only>
0

> <s_lp_Force_Field>
OPLS_2005

> <r_lp_Energy>
61.6433

> <b_lp_Chiralities_Consistent>
1

> <s_lp_Variant>
AV-unprocessed.smi:334-5

> <Gold.Version>
5.8.1

> <Gold.Id.Protein>
6NUR|6NUR_protein|mol2

> <Gold.PLP.Fitness>
44.8555

> <Gold.PLP.PLP>
-33.9675

> <Gold.PLP.part.hbond>
-3.0000

> <Gold.PLP.part.metal>
0.0000

> <Gold.PLP.part.buried>
-1.8509

> <Gold.PLP.part.nonpolar>
-29.5584

> <Gold.PLP.part.repulsive>
0.2991

> <Gold.PLP.ligand.clash>
0.0000

> <Gold.PLP.ligand.torsion>
0.4144

> <Gold.PLP.Chemscore.Hbond>
2.8960

> <Gold.PLP.Chemscore.CHOScore>
1.0000

> <Gold.PLP.Chemscore.Metal>
0.0000

> <Gold.Chemscore.Hbonds>
donor molecule, donor type, donor heavy atom, donor atom, acceptor molecule, acceptor atom, score
      L1  H     3    28       P1  7948  1.00
      P1  H  7997  8010       L1    11  1.00
      P1  H 10752 10763       L1    12  0.93
      L1  C     8    31       P1  7948  1.00

> <Gold.PLP.Chemscore.Internal.Correction>
0.0288

> <Gold.Rescore>
     Score         DG    S(hbond)    S(metal)    S(lipo)     H(rot)  DE(clash)    DE(int)     intcor
     18.13     -18.66       2.87        0.00      69.01       1.75       0.07       0.46       ----

> <Gold.Chemscore.Fitness>
18.1327

> <Gold.Chemscore.DG>
-18.6572

> <Gold.Chemscore.ZeroCoef>
-5.4800

> <Gold.Chemscore.Hbond>
2.8671

> <Gold.Chemscore.Metal>
0.0000

> <Gold.Chemscore.Lipo>
69.0105

> <Gold.Chemscore.Internal_Hbond>
0.0000

> <Gold.Chemscore.DEClash>
0.0679

> <Gold.Chemscore.DEInternal>
0.4565

> <Gold.Chemscore.Rot>
1.7474

> <Gold.Chemscore.Internal.Correction>
   9.000000E+99

> <Gold.Chemscore.Hbonds>
donor molecule, donor type, donor heavy atom, donor atom, acceptor molecule, acceptor atom, score
      L1  H     3    28       P1  7948  1.00
      P1  H  7997  8010       L1    11  0.93
      P1  H 10752 10763       L1    12  0.91

> <Gold.Chemscore.Hbond.Weighted>
-9.5762

> <Gold.Chemscore.Metal.Weighted>
-0.0000

> <Gold.Chemscore.Lipo.Weighted>
-8.0742

> <Gold.Chemscore.Internal_Hbond.Weighted>
0.0000

> <Gold.Chemscore.DEClash.Weighted>
0.0679

> <Gold.Chemscore.DEInternal.Weighted>
0.4565

> <Gold.Chemscore.Rot.Weighted>
4.4733

> <Gold.Chemscore.Internal.Correction.Weighted>
   9.000000E+99

> <Gold.Protein.RotatedTorsions>
[ 6907 6896 6895 6894 ] final   28.54 input  -60.11 | X-H torsion
[ 7974 7965 7964 7962 ] final  -68.48 input  175.53 | X-H torsion
[ 8008 7997 7996 7995 ] final   98.97 input   59.86 | X-H torsion
[ 10167 10162 10161 10158 ] final   43.72 input  -65.29 | X-H torsion
[ 10718 10713 10712 10709 ] final  134.01 input   66.30 | X-H torsion
[ 10763 10752 10751 10750 ] final   40.86 input  -60.55 | X-H torsion
[ 11005 11000 10999 10996 ] final  172.22 input  -57.11 | X-H torsion

> <Gold.Protein.ActiveResidues>
 VAL166  LYS551  ARG553  GLY616  TRP617  ASP618  TYR619  PRO620  LYS621  CYS622 
 ASP623  PHE694  ASN695  SER759  ASP760  ASP761  ALA762  ILE779  LEU786  VAL792 
 PHE793  MET794  SER795  GLU796  ALA797  LYS798  CYS799  TRP800  GLU811  SER814 

> <Gold.Protein.RotatedAtoms>
  152.0184  134.9836  160.0569 H   0  0  0  0  0  0  0  0  0  0  0  0  # atno 6907 bound_to 6896
  152.1361  133.4431  159.4752 H   0  0  0  0  0  0  0  0  0  0  0  0  # atno 6908 bound_to 6896
  150.6860  134.2281  159.4466 H   0  0  0  0  0  0  0  0  0  0  0  0  # atno 6909 bound_to 6896
  145.7160  140.9059  143.0655 H   0  0  0  0  0  0  0  0  0  0  0  0  # atno 7974 bound_to 7965
  156.1058  140.3236  155.8004 H   0  0  0  0  0  0  0  0  0  0  0  0  # atno 8008 bound_to 7997
  155.4759  140.0550  157.2991 H   0  0  0  0  0  0  0  0  0  0  0  0  # atno 8009 bound_to 7997
  154.4726  140.2018  155.9971 H   0  0  0  0  0  0  0  0  0  0  0  0  # atno 8010 bound_to 7997
  140.3415  144.2464  150.6155 H   0  0  0  0  0  0  0  0  0  0  0  0  # atno 10167 bound_to 10162
  157.4716  131.1080  150.9796 H   0  0  0  0  0  0  0  0  0  0  0  0  # atno 10718 bound_to 10713
  152.9924  135.6179  154.2694 H   0  0  0  0  0  0  0  0  0  0  0  0  # atno 10763 bound_to 10752
  154.2427  135.2788  155.2849 H   0  0  0  0  0  0  0  0  0  0  0  0  # atno 10764 bound_to 10752
  154.5355  135.5776  153.6853 H   0  0  0  0  0  0  0  0  0  0  0  0  # atno 10765 bound_to 10752
  140.3274  134.7386  157.4109 H   0  0  0  0  0  0  0  0  0  0  0  0  # atno 11005 bound_to 11000
  144.6929  139.9138  143.7464 LP  0  0  0  0  0  0  0  0  0  0  0  0  # atno 17320 bound_to 7965
  146.0669  139.3660  143.0546 LP  0  0  0  0  0  0  0  0  0  0  0  0  # atno 17321 bound_to 7965
  140.5305  143.2244  151.8247 LP  0  0  0  0  0  0  0  0  0  0  0  0  # atno 17342 bound_to 10162
  139.4840  144.4727  151.9406 LP  0  0  0  0  0  0  0  0  0  0  0  0  # atno 17343 bound_to 10162
  157.0559  130.5806  149.5378 LP  0  0  0  0  0  0  0  0  0  0  0  0  # atno 17370 bound_to 10713
  156.0076  130.5164  150.7882 LP  0  0  0  0  0  0  0  0  0  0  0  0  # atno 17371 bound_to 10713
  140.0890  134.5627  155.8463 LP  0  0  0  0  0  0  0  0  0  0  0  0  # atno 17394 bound_to 11000
  141.2072  133.6662  156.6290 LP  0  0  0  0  0  0  0  0  0  0  0  0  # atno 17395 bound_to 11000

$$$$
