AV-unprocessed.smi:307|AV-procd|sdf|2284|dock7
  -GOLD-   2262022183D 1   1.00000     0.00000
 Structure written by MMmdl.
 38 39  0  0  0  0  0  0  0  0  1 V2000
  146.2271  139.0098  153.9667 O   0  0  0  0  0  0  0  0  0  0  0  0
  147.1057  138.3542  153.4115 C   0  0  0  0  0  0  0  0  0  0  0  0
  148.4250  138.4701  153.6615 N   0  0  0  0  0  0  0  0  0  0  0  0
  149.0923  139.3627  154.5434 C   0  0  0  0  0  0  0  0  0  0  0  0
  148.4411  140.1969  155.4834 C   0  0  0  0  0  0  0  0  0  0  0  0
  149.2190  141.0491  156.2906 C   0  0  0  0  0  0  0  0  0  0  0  0
  150.6186  141.0502  156.1309 C   0  0  0  0  0  0  0  0  0  0  0  0
  151.3731  141.8852  156.9286 O   0  0  0  0  0  0  0  0  0  0  0  0
  150.7055  142.9010  157.6729 C   0  0  0  0  0  0  0  0  0  0  0  0
  151.7415  143.7161  158.4554 C   0  0  0  0  0  0  0  0  0  0  0  0
  152.4121  144.5013  157.6130 F   0  0  0  0  0  0  0  0  0  0  0  0
  151.1358  144.4812  159.3630 F   0  0  0  0  0  0  0  0  0  0  0  0
  152.6062  142.9024  159.0611 F   0  0  0  0  0  0  0  0  0  0  0  0
  151.2482  140.2651  155.2224 N   0  0  0  0  0  0  0  0  0  0  0  0
  150.4968  139.4503  154.4521 C   0  0  0  0  0  0  0  0  0  0  0  0
  146.7984  137.4205  152.4924 N   0  0  0  0  0  0  0  0  0  0  0  0
  145.4769  137.0380  151.9891 C   0  0  0  0  0  0  0  0  0  0  0  0
  144.5654  136.5589  153.1335 C   0  0  0  0  0  0  0  0  0  0  0  0
  143.2432  136.0039  152.5797 C   0  0  0  0  0  0  0  0  0  0  0  0
  143.5039  134.9552  151.6530 O   0  0  0  0  0  0  0  0  0  0  0  0
  144.2437  135.3907  150.5175 C   0  0  0  0  0  0  0  0  0  0  0  0
  145.6230  135.9104  150.9560 C   0  0  0  0  0  0  0  0  0  0  0  0
  149.0208  137.8068  153.1882 H   0  0  0  0  0  0  0  0  0  0  0  0
  147.3685  140.2127  155.5947 H   0  0  0  0  0  0  0  0  0  0  0  0
  148.7484  141.6936  157.0185 H   0  0  0  0  0  0  0  0  0  0  0  0
  150.1525  143.5606  157.0019 H   0  0  0  0  0  0  0  0  0  0  0  0
  149.9908  142.4534  158.3658 H   0  0  0  0  0  0  0  0  0  0  0  0
  151.0385  138.8442  153.7407 H   0  0  0  0  0  0  0  0  0  0  0  0
  147.5763  136.9070  152.1036 H   0  0  0  0  0  0  0  0  0  0  0  0
  145.0113  137.8894  151.4893 H   0  0  0  0  0  0  0  0  0  0  0  0
  145.0694  135.7788  153.7059 H   0  0  0  0  0  0  0  0  0  0  0  0
  144.3610  137.3726  153.8299 H   0  0  0  0  0  0  0  0  0  0  0  0
  142.6326  135.6115  153.3931 H   0  0  0  0  0  0  0  0  0  0  0  0
  142.6626  136.7924  152.0984 H   0  0  0  0  0  0  0  0  0  0  0  0
  144.3605  134.5521  149.8309 H   0  0  0  0  0  0  0  0  0  0  0  0
  143.6885  136.1635  149.9837 H   0  0  0  0  0  0  0  0  0  0  0  0
  146.1822  136.2613  150.0880 H   0  0  0  0  0  0  0  0  0  0  0  0
  146.1952  135.0859  151.3838 H   0  0  0  0  0  0  0  0  0  0  0  0
  1  2  2  0  0  0  0
  2  3  1  0  0  0  0
  2 16  1  0  0  0  0
  3  4  1  0  0  0  0
  3 23  1  0  0  0  0
  4 15  1  0  0  0  0
  4  5  2  0  0  0  0
  5  6  1  0  0  0  0
  5 24  1  0  0  0  0
  6  7  2  0  0  0  0
  6 25  1  0  0  0  0
  7  8  1  0  0  0  0
  7 14  1  0  0  0  0
  8  9  1  0  0  0  0
  9 10  1  0  0  0  0
  9 26  1  0  0  0  0
  9 27  1  0  0  0  0
 10 11  1  0  0  0  0
 10 12  1  0  0  0  0
 10 13  1  0  0  0  0
 14 15  2  0  0  0  0
 15 28  1  0  0  0  0
 16 17  1  0  0  0  0
 16 29  1  0  0  0  0
 17 22  1  0  0  0  0
 17 18  1  0  0  0  0
 17 30  1  0  0  0  0
 18 19  1  0  0  0  0
 18 31  1  0  0  0  0
 18 32  1  0  0  0  0
 19 20  1  0  0  0  0
 19 33  1  0  0  0  0
 19 34  1  0  0  0  0
 20 21  1  0  0  0  0
 21 22  1  0  0  0  0
 21 35  1  0  0  0  0
 21 36  1  0  0  0  0
 22 37  1  0  0  0  0
 22 38  1  0  0  0  0
M  END
> <s_m_source_file>
AV-unprocessed.smi

> <i_m_source_file_index>
307

> <i_lp_mmshare_version>
43012

> <i_f3d_flags>
0

> <s_epik_input>
W0NIMl0xW0NIMl1PW0NIMl1bQ0gyXVtDSF0xW05IXUMoPU8pW05IXWMyW2NIXVtjSF1jKG5bY0hdMilPW0NIMl1DKEYpKEYpRg==

> <s_epik_cmdline>
J2VwaWtfcHl0aG9uJywgJy1waCcsICc3LjAnLCAnLXRuJywgJzgnLCAnLW1hJywgJzIwMCcsICctbWV0YWxfYmluZGluZycsICctaW1hZScsICc8aW5maWxlLm1hZT4nLCAnLW9tYWUnLCAnPG91dGZpbGUubWFlPic=

> <r_lp_tautomer_probability>
1

> <r_epik_Ionization_Penalty>
3.97058e-05

> <r_epik_Ionization_Penalty_Charging>
0

> <r_epik_Ionization_Penalty_Neutral>
3.97058e-05

> <r_epik_State_Penalty>
-0

> <r_epik_Charging_Adjusted_Penalty>
0

> <i_epik_Tot_Q>
0

> <i_epik_Tot_abs_Q>
0

> <r_epik_Metal_State_Penalty>
-0

> <b_epik_Metal_Only>
0

> <s_lp_Force_Field>
OPLS_2005

> <r_lp_Energy>
20.0098

> <b_lp_Chiralities_Consistent>
1

> <s_lp_Variant>
AV-unprocessed.smi:307-1

> <Gold.Version>
5.8.1

> <Gold.Id.Protein>
6NUR|6NUR_protein|mol2

> <Gold.PLP.Fitness>
45.1548

> <Gold.PLP.PLP>
-40.2326

> <Gold.PLP.part.hbond>
-3.4558

> <Gold.PLP.part.metal>
0.0000

> <Gold.PLP.part.buried>
-3.7103

> <Gold.PLP.part.nonpolar>
-34.1956

> <Gold.PLP.part.repulsive>
0.5074

> <Gold.PLP.ligand.clash>
0.0835

> <Gold.PLP.ligand.torsion>
0.3069

> <Gold.PLP.Chemscore.Hbond>
1.8564

> <Gold.PLP.Chemscore.CHOScore>
0.0000

> <Gold.PLP.Chemscore.Metal>
0.0000

> <Gold.Chemscore.Hbonds>
donor molecule, donor type, donor heavy atom, donor atom, acceptor molecule, acceptor atom, score
      L1  H     3    23       P1  7948  0.86
      L1  H    16    29       P1  7948  1.00

> <Gold.PLP.Chemscore.Internal.Correction>
0.0501

> <Gold.Rescore>
     Score         DG    S(hbond)    S(metal)    S(lipo)     H(rot)  DE(clash)    DE(int)     intcor
     13.60     -15.46       1.93        0.00      67.80       1.71       0.41       1.45       ----

> <Gold.Chemscore.Fitness>
13.6022

> <Gold.Chemscore.DG>
-15.4567

> <Gold.Chemscore.ZeroCoef>
-5.4800

> <Gold.Chemscore.Hbond>
1.9250

> <Gold.Chemscore.Metal>
0.0000

> <Gold.Chemscore.Lipo>
67.8018

> <Gold.Chemscore.Internal_Hbond>
0.0000

> <Gold.Chemscore.DEClash>
0.4089

> <Gold.Chemscore.DEInternal>
1.4455

> <Gold.Chemscore.Rot>
1.7132

> <Gold.Chemscore.Internal.Correction>
   9.000000E+99

> <Gold.Chemscore.Hbonds>
donor molecule, donor type, donor heavy atom, donor atom, acceptor molecule, acceptor atom, score
      L1  H     3    23       P1  7948  0.78
      L1  H    16    29       P1  7948  0.93

> <Gold.Chemscore.Hbond.Weighted>
-6.4296

> <Gold.Chemscore.Metal.Weighted>
-0.0000

> <Gold.Chemscore.Lipo.Weighted>
-7.9328

> <Gold.Chemscore.Internal_Hbond.Weighted>
0.0000

> <Gold.Chemscore.DEClash.Weighted>
0.4089

> <Gold.Chemscore.DEInternal.Weighted>
1.4455

> <Gold.Chemscore.Rot.Weighted>
4.3858

> <Gold.Chemscore.Internal.Correction.Weighted>
   9.000000E+99

> <Gold.Protein.RotatedTorsions>
[ 6907 6896 6895 6894 ] final   59.33 input  -60.11 | X-H torsion
[ 7974 7965 7964 7962 ] final   94.01 input  175.53 | X-H torsion
[ 8008 7997 7996 7995 ] final  176.84 input   59.86 | X-H torsion
[ 10167 10162 10161 10158 ] final  176.34 input  -65.29 | X-H torsion
[ 10718 10713 10712 10709 ] final -162.91 input   66.30 | X-H torsion
[ 10763 10752 10751 10750 ] final  143.00 input  -60.55 | X-H torsion
[ 11005 11000 10999 10996 ] final -139.32 input  -57.11 | X-H torsion

> <Gold.Protein.ActiveResidues>
 VAL166  LYS551  ARG553  GLY616  TRP617  ASP618  TYR619  PRO620  LYS621  CYS622 
 ASP623  PHE694  ASN695  SER759  ASP760  ASP761  ALA762  ILE779  LEU786  VAL792 
 PHE793  MET794  SER795  GLU796  ALA797  LYS798  CYS799  TRP800  GLU811  SER814 

> <Gold.Protein.RotatedAtoms>
  152.3905  134.6448  160.0108 H   0  0  0  0  0  0  0  0  0  0  0  0  # atno 6907 bound_to 6896
  151.6683  133.3309  159.3198 H   0  0  0  0  0  0  0  0  0  0  0  0  # atno 6908 bound_to 6896
  150.7822  134.6821  159.6494 H   0  0  0  0  0  0  0  0  0  0  0  0  # atno 6909 bound_to 6896
  145.4713  139.2282  143.2933 H   0  0  0  0  0  0  0  0  0  0  0  0  # atno 7974 bound_to 7965
  156.0722  140.1373  156.9815 H   0  0  0  0  0  0  0  0  0  0  0  0  # atno 8008 bound_to 7997
  154.4538  140.0969  156.6747 H   0  0  0  0  0  0  0  0  0  0  0  0  # atno 8009 bound_to 7997
  155.5210  140.3456  155.4409 H   0  0  0  0  0  0  0  0  0  0  0  0  # atno 8010 bound_to 7997
  139.5211  144.2926  152.0450 H   0  0  0  0  0  0  0  0  0  0  0  0  # atno 10167 bound_to 10162
  156.6172  130.8875  151.2949 H   0  0  0  0  0  0  0  0  0  0  0  0  # atno 10718 bound_to 10713
  153.9652  135.2956  155.3431 H   0  0  0  0  0  0  0  0  0  0  0  0  # atno 10763 bound_to 10752
  154.7353  135.5049  153.9034 H   0  0  0  0  0  0  0  0  0  0  0  0  # atno 10764 bound_to 10752
  153.0927  135.6712  153.9934 H   0  0  0  0  0  0  0  0  0  0  0  0  # atno 10765 bound_to 10752
  140.8531  134.2261  157.4749 H   0  0  0  0  0  0  0  0  0  0  0  0  # atno 11005 bound_to 11000
  146.2395  140.5492  142.8940 LP  0  0  0  0  0  0  0  0  0  0  0  0  # atno 17320 bound_to 7965
  144.7943  140.6093  143.6520 LP  0  0  0  0  0  0  0  0  0  0  0  0  # atno 17321 bound_to 7965
  140.2377  144.4302  150.6273 LP  0  0  0  0  0  0  0  0  0  0  0  0  # atno 17342 bound_to 10162
  140.6312  143.2188  151.6491 LP  0  0  0  0  0  0  0  0  0  0  0  0  # atno 17343 bound_to 10162
  157.7238  130.9594  150.1547 LP  0  0  0  0  0  0  0  0  0  0  0  0  # atno 17370 bound_to 10713
  156.2341  130.3685  149.8411 LP  0  0  0  0  0  0  0  0  0  0  0  0  # atno 17371 bound_to 10713
  139.8704  134.9693  156.4661 LP  0  0  0  0  0  0  0  0  0  0  0  0  # atno 17394 bound_to 11000
  140.8768  133.7947  155.9423 LP  0  0  0  0  0  0  0  0  0  0  0  0  # atno 17395 bound_to 11000

$$$$
