AV-unprocessed.smi:160|AV-procd|sdf|1346|dock4
  -GOLD-   2262019 43D 1   1.00000     0.00000
 Structure written by MMmdl.
 29 30  0  0  0  0  0  0  0  0  1 V2000
  155.1483  137.4902  158.3351 N   0  0  0  0  0  0  0  0  0  0  0  0
  154.5800  136.9628  157.2457 C   0  0  0  0  0  0  0  0  0  0  0  0
  154.8557  135.8352  156.8390 O   0  0  0  0  0  0  0  0  0  0  0  0
  153.5767  137.8291  156.5358 C   0  0  0  0  0  0  0  0  0  0  0  0
  152.9778  137.4155  155.3795 N   0  0  0  0  0  0  0  0  0  0  0  0
  152.2116  138.4747  155.1521 C   0  0  0  0  0  0  0  0  0  0  0  0
  152.3312  139.4434  156.0656 N   0  0  0  0  0  0  0  0  0  0  0  0
  151.6383  140.7662  156.1612 C   0  0  1  0  0  0  0  0  0  0  0  0
  150.7756  140.8673  155.0680 O   0  0  0  0  0  0  0  0  0  0  0  0
  149.4804  141.2848  155.4932 C   0  0  1  0  0  0  0  0  0  0  0  0
  148.3953  140.8075  154.5118 C   0  0  0  0  0  0  0  0  0  0  0  0
  148.6904  141.2542  153.2054 O   0  0  0  0  0  0  0  0  0  0  0  0
  149.3637  140.7430  156.9249 C   0  0  1  0  0  0  0  0  0  0  0  0
  148.9346  139.3918  156.9311 O   0  0  0  0  0  0  0  0  0  0  0  0
  150.7879  140.9116  157.4400 C   0  0  1  0  0  0  0  0  0  0  0  0
  151.1124  140.0353  158.5070 O   0  0  0  0  0  0  0  0  0  0  0  0
  153.2256  139.0302  156.9972 N   0  0  0  0  0  0  0  0  0  0  0  0
  152.4424  141.5003  156.0969 H   0  0  0  0  0  0  0  0  0  0  0  0
  149.4802  142.3752  155.5495 H   0  0  0  0  0  0  0  0  0  0  0  0
  148.6546  141.3221  157.5172 H   0  0  0  0  0  0  0  0  0  0  0  0
  150.9134  141.9375  157.7887 H   0  0  0  0  0  0  0  0  0  0  0  0
  155.8293  136.9583  158.8567 H   0  0  0  0  0  0  0  0  0  0  0  0
  154.8891  138.4212  158.6292 H   0  0  0  0  0  0  0  0  0  0  0  0
  151.5511  138.5470  154.3006 H   0  0  0  0  0  0  0  0  0  0  0  0
  148.2959  139.7215  154.5271 H   0  0  0  0  0  0  0  0  0  0  0  0
  147.4276  141.2277  154.7875 H   0  0  0  0  0  0  0  0  0  0  0  0
  149.0032  140.5190  152.7007 H   0  0  0  0  0  0  0  0  0  0  0  0
  149.6023  138.8718  157.3523 H   0  0  0  0  0  0  0  0  0  0  0  0
  150.6007  140.2788  159.2633 H   0  0  0  0  0  0  0  0  0  0  0  0
  1  2  1  0  0  0  0
  1 22  1  0  0  0  0
  1 23  1  0  0  0  0
  2  3  2  0  0  0  0
  2  4  1  0  0  0  0
  4 17  2  0  0  0  0
  4  5  1  0  0  0  0
  5  6  2  0  0  0  0
  6  7  1  0  0  0  0
  6 24  1  0  0  0  0
  7  8  1  0  0  0  0
  7 17  1  0  0  0  0
  8 18  1  0  0  0  0
  8 15  1  0  0  0  0
  8  9  1  0  0  0  0
  9 10  1  0  0  0  0
 10 19  1  0  0  0  0
 10 11  1  0  0  0  0
 10 13  1  0  0  0  0
 11 12  1  0  0  0  0
 11 25  1  0  0  0  0
 11 26  1  0  0  0  0
 12 27  1  0  0  0  0
 13 20  1  0  0  0  0
 13 14  1  0  0  0  0
 13 15  1  0  0  0  0
 14 28  1  0  0  0  0
 15 21  1  0  0  0  0
 15 16  1  0  0  0  0
 16 29  1  0  0  0  0
M  END
> <s_m_source_file>
AV-unprocessed.smi

> <i_m_source_file_index>
160

> <i_lp_mmshare_version>
43012

> <i_f3d_flags>
0

> <s_epik_input>
W05IMl1DKD1PKWMxbltjSF1uKG4xKVtDQEBIXTJPW0NASF0oW0NIMl1bT0hdKVtDQEBIXShbT0hdKVtDQEhdMltPSF0=

> <s_epik_cmdline>
J2VwaWtfcHl0aG9uJywgJy1waCcsICc3LjAnLCAnLXRuJywgJzgnLCAnLW1hJywgJzIwMCcsICctbWV0YWxfYmluZGluZycsICctaW1hZScsICc8aW5maWxlLm1hZT4nLCAnLW9tYWUnLCAnPG91dGZpbGUubWFlPic=

> <r_lp_tautomer_probability>
1

> <r_epik_Ionization_Penalty>
1.06932e-05

> <r_epik_Ionization_Penalty_Charging>
0

> <r_epik_Ionization_Penalty_Neutral>
1.06932e-05

> <r_epik_State_Penalty>
-0

> <r_epik_Charging_Adjusted_Penalty>
0

> <i_epik_Tot_Q>
0

> <i_epik_Tot_abs_Q>
0

> <r_epik_Metal_State_Penalty>
0.0142097

> <b_epik_Metal_Only>
0

> <s_epik_Chemistry_Notes>
This compound contains an acetal/aminal-like group ( X-CH(R)-Y where X, Y are N, S, or O) that may be acid/base labile, releasing an aldehyde.

> <s_lp_Force_Field>
OPLS_2005

> <r_lp_Energy>
47.6591

> <b_lp_Chiralities_Consistent>
1

> <s_lp_Variant>
AV-unprocessed.smi:160-4

> <Gold.Version>
5.8.1

> <Gold.Id.Protein>
6NUR|6NUR_protein|mol2

> <Gold.PLP.Fitness>
37.6215

> <Gold.PLP.PLP>
-22.8258

> <Gold.PLP.part.hbond>
-5.9133

> <Gold.PLP.part.metal>
0.0000

> <Gold.PLP.part.buried>
-2.5580

> <Gold.PLP.part.nonpolar>
-14.1518

> <Gold.PLP.part.repulsive>
0.1867

> <Gold.PLP.ligand.clash>
0.0000

> <Gold.PLP.ligand.torsion>
0.0211

> <Gold.PLP.Chemscore.Hbond>
4.9440

> <Gold.PLP.Chemscore.CHOScore>
0.0000

> <Gold.PLP.Chemscore.Metal>
0.0000

> <Gold.Chemscore.Hbonds>
donor molecule, donor type, donor heavy atom, donor atom, acceptor molecule, acceptor atom, score
      L1  H    12    27       P1  7957  0.86
      P1  H  7989  7998       L1     9  0.80
      P1  H  7997  8010       L1    17  0.90
      P1  H  8011  8017       L1    12  0.58
      P1  H 10752 10763       L1     3  1.00
      P1  H 10752 10765       L1     5  0.30

> <Gold.PLP.Chemscore.Internal.Correction>
0.0059

> <Gold.Rescore>
     Score         DG    S(hbond)    S(metal)    S(lipo)     H(rot)  DE(clash)    DE(int)     intcor
     10.22     -11.36       4.08        0.00      22.50       4.06       0.44       0.70       ----

> <Gold.Chemscore.Fitness>
10.2220

> <Gold.Chemscore.DG>
-11.3622

> <Gold.Chemscore.ZeroCoef>
-5.4800

> <Gold.Chemscore.Hbond>
4.0850

> <Gold.Chemscore.Metal>
0.0000

> <Gold.Chemscore.Lipo>
22.4955

> <Gold.Chemscore.Internal_Hbond>
0.0000

> <Gold.Chemscore.DEClash>
0.4359

> <Gold.Chemscore.DEInternal>
0.7043

> <Gold.Chemscore.Rot>
4.0600

> <Gold.Chemscore.Internal.Correction>
   9.000000E+99

> <Gold.Chemscore.Hbonds>
donor molecule, donor type, donor heavy atom, donor atom, acceptor molecule, acceptor atom, score
      L1  H    12    27       P1  7957  0.85
      P1  H  7989  7998       L1     9  0.68
      P1  H  7997  8010       L1    17  0.11
      P1  H  8011  8017       L1    12  0.04
      P1  H 10752 10763       L1     3  0.99
      P1  H 10752 10765       L1     5  0.31

> <Gold.Chemscore.Hbond.Weighted>
-13.6439

> <Gold.Chemscore.Metal.Weighted>
-0.0000

> <Gold.Chemscore.Lipo.Weighted>
-2.6320

> <Gold.Chemscore.Internal_Hbond.Weighted>
0.0000

> <Gold.Chemscore.DEClash.Weighted>
0.4359

> <Gold.Chemscore.DEInternal.Weighted>
0.7043

> <Gold.Chemscore.Rot.Weighted>
10.3936

> <Gold.Chemscore.Internal.Correction.Weighted>
   9.000000E+99

> <Gold.Protein.RotatedTorsions>
[ 6907 6896 6895 6894 ] final  122.17 input  -60.11 | X-H torsion
[ 7974 7965 7964 7962 ] final -105.83 input  175.53 | X-H torsion
[ 8008 7997 7996 7995 ] final   58.29 input   59.86 | X-H torsion
[ 10167 10162 10161 10158 ] final   72.69 input  -65.29 | X-H torsion
[ 10718 10713 10712 10709 ] final  111.88 input   66.30 | X-H torsion
[ 10763 10752 10751 10750 ] final  172.88 input  -60.55 | X-H torsion
[ 11005 11000 10999 10996 ] final -116.96 input  -57.11 | X-H torsion

> <Gold.Protein.ActiveResidues>
 VAL166  LYS551  ARG553  GLY616  TRP617  ASP618  TYR619  PRO620  LYS621  CYS622 
 ASP623  PHE694  ASN695  SER759  ASP760  ASP761  ALA762  ILE779  LEU786  VAL792 
 PHE793  MET794  SER795  GLU796  ALA797  LYS798  CYS799  TRP800  GLU811  SER814 

> <Gold.Protein.RotatedAtoms>
  152.4264  133.7202  159.6528 H   0  0  0  0  0  0  0  0  0  0  0  0  # atno 6907 bound_to 6896
  150.8141  133.8358  159.3174 H   0  0  0  0  0  0  0  0  0  0  0  0  # atno 6908 bound_to 6896
  151.6060  135.1046  160.0122 H   0  0  0  0  0  0  0  0  0  0  0  0  # atno 6909 bound_to 6896
  145.2255  140.9150  143.3235 H   0  0  0  0  0  0  0  0  0  0  0  0  # atno 7974 bound_to 7965
  155.5476  140.3485  155.4461 H   0  0  0  0  0  0  0  0  0  0  0  0  # atno 8008 bound_to 7997
  156.0607  140.1339  156.9971 H   0  0  0  0  0  0  0  0  0  0  0  0  # atno 8009 bound_to 7997
  154.4478  140.0986  156.6497 H   0  0  0  0  0  0  0  0  0  0  0  0  # atno 8010 bound_to 7997
  140.0325  144.5454  150.7496 H   0  0  0  0  0  0  0  0  0  0  0  0  # atno 10167 bound_to 10162
  157.6421  131.0958  150.6814 H   0  0  0  0  0  0  0  0  0  0  0  0  # atno 10718 bound_to 10713
  154.4322  135.2760  155.1904 H   0  0  0  0  0  0  0  0  0  0  0  0  # atno 10763 bound_to 10752
  154.3806  135.6088  153.5792 H   0  0  0  0  0  0  0  0  0  0  0  0  # atno 10764 bound_to 10752
  152.9837  135.5879  154.4635 H   0  0  0  0  0  0  0  0  0  0  0  0  # atno 10765 bound_to 10752
  141.0387  133.9869  157.3029 H   0  0  0  0  0  0  0  0  0  0  0  0  # atno 11005 bound_to 11000
  144.9725  139.3865  143.6302 LP  0  0  0  0  0  0  0  0  0  0  0  0  # atno 17320 bound_to 7965
  146.3366  139.8830  142.8821 LP  0  0  0  0  0  0  0  0  0  0  0  0  # atno 17321 bound_to 7965
  140.7296  143.2674  151.4000 LP  0  0  0  0  0  0  0  0  0  0  0  0  # atno 17342 bound_to 10162
  139.6066  144.1184  152.2256 LP  0  0  0  0  0  0  0  0  0  0  0  0  # atno 17343 bound_to 10162
  156.7136  130.4659  149.5541 LP  0  0  0  0  0  0  0  0  0  0  0  0  # atno 17370 bound_to 10713
  156.1713  130.6439  151.0840 LP  0  0  0  0  0  0  0  0  0  0  0  0  # atno 17371 bound_to 10713
  139.9260  135.0201  156.8234 LP  0  0  0  0  0  0  0  0  0  0  0  0  # atno 17394 bound_to 11000
  140.6274  133.9937  155.7646 LP  0  0  0  0  0  0  0  0  0  0  0  0  # atno 17395 bound_to 11000

$$$$
