AV-unprocessed.smi:162|AV-procd|sdf|1377|dock6
  -GOLD-   2262019103D 1   1.00000     0.00000
 Structure written by MMmdl.
 54 57  0  0  0  0  0  0  0  0  1 V2000
  145.5691  143.1581  154.1330 C   0  0  0  0  0  0  0  0  0  0  0  0
  146.7134  142.3232  154.1174 O   0  0  0  0  0  0  0  0  0  0  0  0
  146.4438  141.0252  154.6196 C   0  0  0  0  0  0  0  0  0  0  0  0
  147.6485  140.1153  154.3311 C   0  0  1  0  0  0  0  0  0  0  0  0
  148.9753  140.8596  154.1951 C   0  0  0  0  0  0  0  0  0  0  0  0
  149.9871  139.7309  154.3912 C   0  0  1  0  0  0  0  0  0  0  0  0
  151.2523  140.1790  154.8553 O   0  0  0  0  0  0  0  0  0  0  0  0
  151.1981  140.8124  156.1230 C   0  0  0  0  0  0  0  0  0  0  0  0
  149.3107  138.8376  155.4383 C   0  0  0  0  0  0  0  0  0  0  0  0
  147.8821  139.1389  155.3907 N   0  0  0  0  0  0  0  0  0  0  0  0
  147.0667  138.0627  155.3558 C   0  0  0  0  0  0  0  0  0  0  0  0
  147.0242  137.2845  156.4645 N   0  0  0  0  0  0  0  0  0  0  0  0
  146.2226  136.2155  156.4988 C   0  0  0  0  0  0  0  0  0  0  0  0
  145.3964  135.7600  155.5543 N   0  0  0  0  0  0  0  0  0  0  0  0
  145.4372  136.5440  154.4388 C   0  0  0  0  0  0  0  0  0  0  0  0
  146.2399  137.7039  154.2538 C   0  0  0  0  0  0  0  0  0  0  0  0
  146.0150  138.2415  152.9920 N   0  0  0  0  0  0  0  0  0  0  0  0
  145.1267  137.4454  152.4623 C   0  0  0  0  0  0  0  0  0  0  0  0
  144.7169  136.4049  153.2655 N   0  0  0  0  0  0  0  0  0  0  0  0
  143.7356  135.3826  152.9359 C   0  0  0  0  0  0  0  0  0  0  0  0
  144.3529  134.0933  152.3399 C   0  0  0  0  0  0  0  0  0  0  0  0
  144.7975  133.2915  153.4208 O   0  0  0  0  0  0  0  0  0  0  0  0
  143.2905  133.3013  151.5515 C   0  0  0  0  0  0  0  0  0  0  0  0
  143.8975  132.1008  150.8038 C   0  0  0  0  0  0  0  0  0  0  0  0
  144.9517  132.5383  149.9550 O   0  0  0  0  0  0  0  0  0  0  0  0
  146.0327  133.1188  150.6744 C   0  0  0  0  0  0  0  0  0  0  0  0
  145.5580  134.3804  151.4170 C   0  0  0  0  0  0  0  0  0  0  0  0
  147.4604  139.5832  153.3971 H   0  0  0  0  0  0  0  0  0  0  0  0
  150.0932  139.1634  153.4645 H   0  0  0  0  0  0  0  0  0  0  0  0
  145.8271  144.1410  153.7388 H   0  0  0  0  0  0  0  0  0  0  0  0
  145.1917  143.2907  155.1477 H   0  0  0  0  0  0  0  0  0  0  0  0
  144.7716  142.7456  153.5136 H   0  0  0  0  0  0  0  0  0  0  0  0
  146.2450  141.0648  155.6921 H   0  0  0  0  0  0  0  0  0  0  0  0
  145.5493  140.6302  154.1351 H   0  0  0  0  0  0  0  0  0  0  0  0
  149.0792  141.3669  153.2356 H   0  0  0  0  0  0  0  0  0  0  0  0
  149.0793  141.6012  154.9887 H   0  0  0  0  0  0  0  0  0  0  0  0
  152.1944  141.1571  156.3994 H   0  0  0  0  0  0  0  0  0  0  0  0
  150.8555  140.1277  156.8995 H   0  0  0  0  0  0  0  0  0  0  0  0
  150.5370  141.6797  156.1035 H   0  0  0  0  0  0  0  0  0  0  0  0
  149.5439  137.7843  155.2765 H   0  0  0  0  0  0  0  0  0  0  0  0
  149.6639  139.0961  156.4370 H   0  0  0  0  0  0  0  0  0  0  0  0
  146.2444  135.6450  157.4156 H   0  0  0  0  0  0  0  0  0  0  0  0
  144.7357  137.6007  151.4672 H   0  0  0  0  0  0  0  0  0  0  0  0
  143.1663  135.1511  153.8373 H   0  0  0  0  0  0  0  0  0  0  0  0
  143.0232  135.8142  152.2316 H   0  0  0  0  0  0  0  0  0  0  0  0
  144.1401  132.6361  153.5979 H   0  0  0  0  0  0  0  0  0  0  0  0
  142.4921  132.9650  152.2143 H   0  0  0  0  0  0  0  0  0  0  0  0
  142.8210  133.9593  150.8189 H   0  0  0  0  0  0  0  0  0  0  0  0
  144.2651  131.3465  151.5012 H   0  0  0  0  0  0  0  0  0  0  0  0
  143.1338  131.6189  150.1932 H   0  0  0  0  0  0  0  0  0  0  0  0
  146.4562  132.3903  151.3675 H   0  0  0  0  0  0  0  0  0  0  0  0
  146.8230  133.3782  149.9698 H   0  0  0  0  0  0  0  0  0  0  0  0
  145.2728  135.1300  150.6778 H   0  0  0  0  0  0  0  0  0  0  0  0
  146.3889  134.8066  151.9808 H   0  0  0  0  0  0  0  0  0  0  0  0
  1  2  1  0  0  0  0
  1 30  1  0  0  0  0
  1 31  1  0  0  0  0
  1 32  1  0  0  0  0
  2  3  1  0  0  0  0
  3  4  1  0  0  0  0
  3 33  1  0  0  0  0
  3 34  1  0  0  0  0
  4 28  1  0  0  0  0
  4 10  1  0  0  0  0
  4  5  1  0  0  0  0
  5  6  1  0  0  0  0
  5 35  1  0  0  0  0
  5 36  1  0  0  0  0
  6 29  1  0  0  0  0
  6  7  1  0  0  0  0
  6  9  1  0  0  0  0
  7  8  1  0  0  0  0
  8 37  1  0  0  0  0
  8 38  1  0  0  0  0
  8 39  1  0  0  0  0
  9 10  1  0  0  0  0
  9 40  1  0  0  0  0
  9 41  1  0  0  0  0
 10 11  1  0  0  0  0
 11 16  1  0  0  0  0
 11 12  2  0  0  0  0
 12 13  1  0  0  0  0
 13 14  2  0  0  0  0
 13 42  1  0  0  0  0
 14 15  1  0  0  0  0
 15 19  1  0  0  0  0
 15 16  2  0  0  0  0
 16 17  1  0  0  0  0
 17 18  2  0  0  0  0
 18 19  1  0  0  0  0
 18 43  1  0  0  0  0
 19 20  1  0  0  0  0
 20 21  1  0  0  0  0
 20 44  1  0  0  0  0
 20 45  1  0  0  0  0
 21 27  1  0  0  0  0
 21 22  1  0  0  0  0
 21 23  1  0  0  0  0
 22 46  1  0  0  0  0
 23 24  1  0  0  0  0
 23 47  1  0  0  0  0
 23 48  1  0  0  0  0
 24 25  1  0  0  0  0
 24 49  1  0  0  0  0
 24 50  1  0  0  0  0
 25 26  1  0  0  0  0
 26 27  1  0  0  0  0
 26 51  1  0  0  0  0
 26 52  1  0  0  0  0
 27 53  1  0  0  0  0
 27 54  1  0  0  0  0
M  END
> <s_m_source_file>
AV-unprocessed.smi

> <i_m_source_file_index>
162

> <i_lp_mmshare_version>
43012

> <i_f3d_flags>
0

> <s_epik_input>
W0NIM11PW0NIMl1bQ0BASF0xW0NIMl1bQ0BASF0oT1tDSDNdKVtDSDJdTjFjKG5bY0hdbjIpYyhjMjMpbltjSF1uM1tDSDJdQzQoW09IXSlbQ0gyXVtDSDJdT1tDSDJdW0NIMl00

> <s_epik_cmdline>
J2VwaWtfcHl0aG9uJywgJy1waCcsICc3LjAnLCAnLXRuJywgJzgnLCAnLW1hJywgJzIwMCcsICctbWV0YWxfYmluZGluZycsICctaW1hZScsICc8aW5maWxlLm1hZT4nLCAnLW9tYWUnLCAnPG91dGZpbGUubWFlPic=

> <r_lp_tautomer_probability>
1

> <r_epik_Ionization_Penalty>
0.00660334

> <r_epik_Ionization_Penalty_Charging>
0

> <r_epik_Ionization_Penalty_Neutral>
0.00660334

> <r_epik_State_Penalty>
0.00469459

> <r_epik_Charging_Adjusted_Penalty>
0.00469459

> <i_epik_Tot_Q>
0

> <i_epik_Tot_abs_Q>
0

> <r_epik_Metal_State_Penalty>
-0

> <b_epik_Metal_Only>
0

> <s_lp_Force_Field>
OPLS_2005

> <r_lp_Energy>
41.7702

> <b_lp_Chiralities_Consistent>
1

> <s_lp_Variant>
AV-unprocessed.smi:162-2

> <Gold.Version>
5.8.1

> <Gold.Id.Protein>
6NUR|6NUR_protein|mol2

> <Gold.PLP.Fitness>
39.7752

> <Gold.PLP.PLP>
-34.2122

> <Gold.PLP.part.hbond>
-2.0000

> <Gold.PLP.part.metal>
0.0000

> <Gold.PLP.part.buried>
-5.1410

> <Gold.PLP.part.nonpolar>
-27.9355

> <Gold.PLP.part.repulsive>
0.6709

> <Gold.PLP.ligand.clash>
0.0000

> <Gold.PLP.ligand.torsion>
1.4250

> <Gold.PLP.Chemscore.Hbond>
1.7500

> <Gold.PLP.Chemscore.CHOScore>
1.0000

> <Gold.PLP.Chemscore.Metal>
0.0000

> <Gold.Chemscore.Hbonds>
donor molecule, donor type, donor heavy atom, donor atom, acceptor molecule, acceptor atom, score
      L1  H    22    46       P1 10957  0.89
      P1  H  7989  7998       L1     7  0.75
      L1  C    18    43       P1 10171  1.00

> <Gold.PLP.Chemscore.Internal.Correction>
0.1630

> <Gold.Rescore>
     Score         DG    S(hbond)    S(metal)    S(lipo)     H(rot)  DE(clash)    DE(int)     intcor
      8.84     -11.72       1.37        0.00      76.92       2.86       0.07       2.80       ----

> <Gold.Chemscore.Fitness>
8.8447

> <Gold.Chemscore.DG>
-11.7167

> <Gold.Chemscore.ZeroCoef>
-5.4800

> <Gold.Chemscore.Hbond>
1.3681

> <Gold.Chemscore.Metal>
0.0000

> <Gold.Chemscore.Lipo>
76.9186

> <Gold.Chemscore.Internal_Hbond>
0.0000

> <Gold.Chemscore.DEClash>
0.0700

> <Gold.Chemscore.DEInternal>
2.8021

> <Gold.Chemscore.Rot>
2.8642

> <Gold.Chemscore.Internal.Correction>
   9.000000E+99

> <Gold.Chemscore.Hbonds>
donor molecule, donor type, donor heavy atom, donor atom, acceptor molecule, acceptor atom, score
      L1  H    22    46       P1 10957  0.42
      P1  H  7989  7998       L1     7  0.09

> <Gold.Chemscore.Hbond.Weighted>
-4.5696

> <Gold.Chemscore.Metal.Weighted>
-0.0000

> <Gold.Chemscore.Lipo.Weighted>
-8.9995

> <Gold.Chemscore.Internal_Hbond.Weighted>
0.0000

> <Gold.Chemscore.DEClash.Weighted>
0.0700

> <Gold.Chemscore.DEInternal.Weighted>
2.8021

> <Gold.Chemscore.Rot.Weighted>
7.3324

> <Gold.Chemscore.Internal.Correction.Weighted>
   9.000000E+99

> <Gold.Protein.RotatedTorsions>
[ 6907 6896 6895 6894 ] final  -57.18 input  -60.11 | X-H torsion
[ 7974 7965 7964 7962 ] final -110.09 input  175.53 | X-H torsion
[ 8008 7997 7996 7995 ] final  154.47 input   59.86 | X-H torsion
[ 10167 10162 10161 10158 ] final  145.25 input  -65.29 | X-H torsion
[ 10718 10713 10712 10709 ] final   34.32 input   66.30 | X-H torsion
[ 10763 10752 10751 10750 ] final   -4.00 input  -60.55 | X-H torsion
[ 11005 11000 10999 10996 ] final  -79.40 input  -57.11 | X-H torsion

> <Gold.Protein.ActiveResidues>
 VAL166  LYS551  ARG553  GLY616  TRP617  ASP618  TYR619  PRO620  LYS621  CYS622 
 ASP623  PHE694  ASN695  SER759  ASP760  ASP761  ALA762  ILE779  LEU786  VAL792 
 PHE793  MET794  SER795  GLU796  ALA797  LYS798  CYS799  TRP800  GLU811  SER814 

> <Gold.Protein.RotatedAtoms>
  150.8107  134.7260  159.6684 H   0  0  0  0  0  0  0  0  0  0  0  0  # atno 6907 bound_to 6896
  152.4227  134.5922  159.9987 H   0  0  0  0  0  0  0  0  0  0  0  0  # atno 6908 bound_to 6896
  151.6133  133.3308  159.3108 H   0  0  0  0  0  0  0  0  0  0  0  0  # atno 6909 bound_to 6896
  145.1725  140.8933  143.3527 H   0  0  0  0  0  0  0  0  0  0  0  0  # atno 7974 bound_to 7965
  156.2529  140.1965  156.6652 H   0  0  0  0  0  0  0  0  0  0  0  0  # atno 8008 bound_to 7997
  154.6435  140.0580  156.9898 H   0  0  0  0  0  0  0  0  0  0  0  0  # atno 8009 bound_to 7997
  155.1527  140.3253  155.4430 H   0  0  0  0  0  0  0  0  0  0  0  0  # atno 8010 bound_to 7997
  139.4930  144.5915  151.6671 H   0  0  0  0  0  0  0  0  0  0  0  0  # atno 10167 bound_to 10162
  157.3089  130.7389  149.6712 H   0  0  0  0  0  0  0  0  0  0  0  0  # atno 10718 bound_to 10713
  153.3790  135.6997  153.6580 H   0  0  0  0  0  0  0  0  0  0  0  0  # atno 10763 bound_to 10752
  153.5199  135.3614  155.2627 H   0  0  0  0  0  0  0  0  0  0  0  0  # atno 10764 bound_to 10752
  154.8690  135.4155  154.3083 H   0  0  0  0  0  0  0  0  0  0  0  0  # atno 10765 bound_to 10752
  141.1667  133.7104  156.8117 H   0  0  0  0  0  0  0  0  0  0  0  0  # atno 11005 bound_to 11000
  145.0218  139.3417  143.6068 LP  0  0  0  0  0  0  0  0  0  0  0  0  # atno 17320 bound_to 7965
  146.3466  139.9521  142.8727 LP  0  0  0  0  0  0  0  0  0  0  0  0  # atno 17321 bound_to 7965
  140.5543  144.0374  150.6140 LP  0  0  0  0  0  0  0  0  0  0  0  0  # atno 17342 bound_to 10162
  140.3438  143.3003  152.0560 LP  0  0  0  0  0  0  0  0  0  0  0  0  # atno 17343 bound_to 10162
  155.9676  130.4257  150.4667 LP  0  0  0  0  0  0  0  0  0  0  0  0  # atno 17370 bound_to 10713
  157.2661  131.0577  151.2289 LP  0  0  0  0  0  0  0  0  0  0  0  0  # atno 17371 bound_to 10713
  140.2183  134.8776  157.3349 LP  0  0  0  0  0  0  0  0  0  0  0  0  # atno 17394 bound_to 11000
  140.2015  134.4249  155.7660 LP  0  0  0  0  0  0  0  0  0  0  0  0  # atno 17395 bound_to 11000

$$$$
