AV-unprocessed.smi:153|AV-procd|sdf|1263|dock1
  -GOLD-   2262018513D 1   1.00000     0.00000
 Structure written by MMmdl.
 59 62  0  0  0  0  0  0  0  0  1 V2000
  148.8399  132.7075  152.9240 C   0  0  0  0  0  0  0  0  0  0  0  0
  148.2936  132.5636  154.3539 C   0  0  1  0  0  0  0  0  0  0  0  0
  147.1062  131.7769  154.3083 O   0  0  0  0  0  0  0  0  0  0  0  0
  146.9908  131.0587  155.5238 C   0  0  0  0  0  0  0  0  0  0  0  0
  148.4261  130.6300  155.7799 C   0  0  0  0  0  0  0  0  0  0  0  0
  149.2253  131.8742  155.3900 C   0  0  1  0  0  0  0  0  0  0  0  0
  150.4560  131.4525  154.8262 O   0  0  0  0  0  0  0  0  0  0  0  0
  149.5293  132.8224  156.5798 C   0  0  0  0  0  0  0  0  0  0  0  0
  150.0271  134.1336  156.1903 N   0  0  0  0  0  0  0  0  0  0  0  0
  150.6087  134.4724  154.9913 C   0  0  0  0  0  0  0  0  0  0  0  0
  150.9667  135.7216  154.8832 N   0  0  0  0  0  0  0  0  0  0  0  0
  150.6015  136.2978  156.0959 C   0  0  0  0  0  0  0  0  0  0  0  0
  150.6934  137.6103  156.6538 C   0  0  0  0  0  0  0  0  0  0  0  0
  151.2581  138.6807  156.0244 N   0  0  0  0  0  0  0  0  0  0  0  0
  150.9451  138.8994  154.6134 C   0  0  0  0  0  0  0  0  0  0  0  0
  151.6272  139.8540  156.8169 C   0  0  0  0  0  0  0  0  0  0  0  0
  150.6851  141.0598  156.6030 C   0  0  1  0  0  0  0  0  0  0  0  0
  149.3823  140.7771  157.0736 O   0  0  0  0  0  0  0  0  0  0  0  0
  151.1868  142.3580  157.2754 C   0  0  0  0  0  0  0  0  0  0  0  0
  151.4068  142.3101  158.7247 N   0  0  0  0  0  0  0  0  0  0  0  0
  151.4408  143.6336  159.3444 C   0  0  0  0  0  0  0  0  0  0  0  0
  151.7030  143.5544  160.8588 C   0  0  0  0  0  0  0  0  0  0  0  0
  152.9148  142.8477  161.1013 O   0  0  0  0  0  0  0  0  0  0  0  0
  152.9002  141.5334  160.5544 C   0  0  0  0  0  0  0  0  0  0  0  0
  152.6487  141.6109  159.0387 C   0  0  0  0  0  0  0  0  0  0  0  0
  150.1747  137.7834  157.9002 N   0  0  0  0  0  0  0  0  0  0  0  0
  149.6262  136.7625  158.5632 C   0  0  0  0  0  0  0  0  0  0  0  0
  149.4874  135.4958  158.1738 N   0  0  0  0  0  0  0  0  0  0  0  0
  149.9924  135.3080  156.9219 C   0  0  0  0  0  0  0  0  0  0  0  0
  149.7430  133.3183  152.9067 H   0  0  0  0  0  0  0  0  0  0  0  0
  148.1056  133.1875  152.2766 H   0  0  0  0  0  0  0  0  0  0  0  0
  149.0779  131.7365  152.4882 H   0  0  0  0  0  0  0  0  0  0  0  0
  148.0079  133.5530  154.7146 H   0  0  0  0  0  0  0  0  0  0  0  0
  146.6271  131.7163  156.3149 H   0  0  0  0  0  0  0  0  0  0  0  0
  146.3076  130.2146  155.4296 H   0  0  0  0  0  0  0  0  0  0  0  0
  148.5909  130.2805  156.7978 H   0  0  0  0  0  0  0  0  0  0  0  0
  148.6612  129.7989  155.1125 H   0  0  0  0  0  0  0  0  0  0  0  0
  150.9069  132.2130  154.4930 H   0  0  0  0  0  0  0  0  0  0  0  0
  148.6293  132.9685  157.1787 H   0  0  0  0  0  0  0  0  0  0  0  0
  150.2622  132.3663  157.2465 H   0  0  0  0  0  0  0  0  0  0  0  0
  150.7612  133.7591  154.1944 H   0  0  0  0  0  0  0  0  0  0  0  0
  151.1266  137.9955  154.0308 H   0  0  0  0  0  0  0  0  0  0  0  0
  151.5684  139.6895  154.1942 H   0  0  0  0  0  0  0  0  0  0  0  0
  149.9018  139.1910  154.4878 H   0  0  0  0  0  0  0  0  0  0  0  0
  151.7466  139.6219  157.8722 H   0  0  0  0  0  0  0  0  0  0  0  0
  152.6268  140.1431  156.4907 H   0  0  0  0  0  0  0  0  0  0  0  0
  150.5938  141.2639  155.5356 H   0  0  0  0  0  0  0  0  0  0  0  0
  149.0627  141.5353  157.5384 H   0  0  0  0  0  0  0  0  0  0  0  0
  152.1425  142.5932  156.8047 H   0  0  0  0  0  0  0  0  0  0  0  0
  150.5293  143.1908  157.0204 H   0  0  0  0  0  0  0  0  0  0  0  0
  152.2137  144.2435  158.8740 H   0  0  0  0  0  0  0  0  0  0  0  0
  150.4943  144.1496  159.1894 H   0  0  0  0  0  0  0  0  0  0  0  0
  151.7827  144.5553  161.2828 H   0  0  0  0  0  0  0  0  0  0  0  0
  150.8758  143.0562  161.3669 H   0  0  0  0  0  0  0  0  0  0  0  0
  153.8569  141.0517  160.7567 H   0  0  0  0  0  0  0  0  0  0  0  0
  152.1295  140.9358  161.0441 H   0  0  0  0  0  0  0  0  0  0  0  0
  152.6193  140.6006  158.6292 H   0  0  0  0  0  0  0  0  0  0  0  0
  153.4889  142.1166  158.5599 H   0  0  0  0  0  0  0  0  0  0  0  0
  149.2453  136.9944  159.5468 H   0  0  0  0  0  0  0  0  0  0  0  0
  1  2  1  0  0  0  0
  1 30  1  0  0  0  0
  1 31  1  0  0  0  0
  1 32  1  0  0  0  0
  2  6  1  0  0  0  0
  2  3  1  0  0  0  0
  2 33  1  0  0  0  0
  3  4  1  0  0  0  0
  4  5  1  0  0  0  0
  4 34  1  0  0  0  0
  4 35  1  0  0  0  0
  5  6  1  0  0  0  0
  5 36  1  0  0  0  0
  5 37  1  0  0  0  0
  6  7  1  0  0  0  0
  6  8  1  0  0  0  0
  7 38  1  0  0  0  0
  8  9  1  0  0  0  0
  8 39  1  0  0  0  0
  8 40  1  0  0  0  0
  9 29  1  0  0  0  0
  9 10  1  0  0  0  0
 10 11  2  0  0  0  0
 10 41  1  0  0  0  0
 11 12  1  0  0  0  0
 12 29  2  0  0  0  0
 12 13  1  0  0  0  0
 13 14  1  0  0  0  0
 13 26  2  0  0  0  0
 14 15  1  0  0  0  0
 14 16  1  0  0  0  0
 15 42  1  0  0  0  0
 15 43  1  0  0  0  0
 15 44  1  0  0  0  0
 16 17  1  0  0  0  0
 16 45  1  0  0  0  0
 16 46  1  0  0  0  0
 17 18  1  0  0  0  0
 17 19  1  0  0  0  0
 17 47  1  0  0  0  0
 18 48  1  0  0  0  0
 19 20  1  0  0  0  0
 19 49  1  0  0  0  0
 19 50  1  0  0  0  0
 20 25  1  0  0  0  0
 20 21  1  0  0  0  0
 21 22  1  0  0  0  0
 21 51  1  0  0  0  0
 21 52  1  0  0  0  0
 22 23  1  0  0  0  0
 22 53  1  0  0  0  0
 22 54  1  0  0  0  0
 23 24  1  0  0  0  0
 24 25  1  0  0  0  0
 24 55  1  0  0  0  0
 24 56  1  0  0  0  0
 25 57  1  0  0  0  0
 25 58  1  0  0  0  0
 26 27  1  0  0  0  0
 27 28  2  0  0  0  0
 27 59  1  0  0  0  0
 28 29  1  0  0  0  0
M  END
> <s_m_source_file>
AV-unprocessed.smi

> <i_m_source_file_index>
153

> <i_lp_mmshare_version>
43012

> <i_f3d_flags>
0

> <s_epik_input>
W0NIMl0xW0NIMl1PW0NAQEhdKFtDSDNdKVtDQEBdMShbT0hdKVtDSDJdbihbY0hdbjIpYyhjMjMpbltjSF1uYzNOKFtDSDNdKVtDSDJdW0NASF0oW09IXSlbQ0gyXU40W0NIMl1bQ0gyXU9bQ0gyXVtDSDJdNA==

> <s_epik_cmdline>
J2VwaWtfcHl0aG9uJywgJy1waCcsICc3LjAnLCAnLXRuJywgJzgnLCAnLW1hJywgJzIwMCcsICctbWV0YWxfYmluZGluZycsICctaW1hZScsICc8aW5maWxlLm1hZT4nLCAnLW9tYWUnLCAnPG91dGZpbGUubWFlPic=

> <r_lp_tautomer_probability>
1

> <r_epik_Ionization_Penalty>
0.424123

> <r_epik_Ionization_Penalty_Charging>
0

> <r_epik_Ionization_Penalty_Neutral>
0.424123

> <r_epik_State_Penalty>
0.421495

> <r_epik_Charging_Adjusted_Penalty>
0.421495

> <i_epik_Tot_Q>
0

> <i_epik_Tot_abs_Q>
0

> <r_epik_Metal_State_Penalty>
0.421223

> <b_epik_Metal_Only>
0

> <s_lp_Force_Field>
OPLS_2005

> <r_lp_Energy>
60.0656

> <b_lp_Chiralities_Consistent>
1

> <s_lp_Variant>
AV-unprocessed.smi:153-14

> <Gold.Version>
5.8.1

> <Gold.Id.Protein>
6NUR|6NUR_protein|mol2

> <Gold.PLP.Fitness>
43.8948

> <Gold.PLP.PLP>
-39.4707

> <Gold.PLP.part.hbond>
-2.0000

> <Gold.PLP.part.metal>
0.0000

> <Gold.PLP.part.buried>
-6.1080

> <Gold.PLP.part.nonpolar>
-32.3073

> <Gold.PLP.part.repulsive>
0.2568

> <Gold.PLP.ligand.clash>
0.0000

> <Gold.PLP.ligand.torsion>
1.1600

> <Gold.PLP.Chemscore.Hbond>
2.0000

> <Gold.PLP.Chemscore.CHOScore>
0.0000

> <Gold.PLP.Chemscore.Metal>
0.0000

> <Gold.Chemscore.Hbonds>
donor molecule, donor type, donor heavy atom, donor atom, acceptor molecule, acceptor atom, score
      P1  H  6896  6907       L1    28  1.00
      P1  H 10752 10765       L1    11  1.00

> <Gold.PLP.Chemscore.Internal.Correction>
0.7442

> <Gold.Rescore>
     Score         DG    S(hbond)    S(metal)    S(lipo)     H(rot)  DE(clash)    DE(int)     intcor
      7.87     -10.44       0.74        0.00      98.16       3.52       0.30       2.28       ----

> <Gold.Chemscore.Fitness>
7.8674

> <Gold.Chemscore.DG>
-10.4430

> <Gold.Chemscore.ZeroCoef>
-5.4800

> <Gold.Chemscore.Hbond>
0.7431

> <Gold.Chemscore.Metal>
0.0000

> <Gold.Chemscore.Lipo>
98.1594

> <Gold.Chemscore.Internal_Hbond>
0.0000

> <Gold.Chemscore.DEClash>
0.2961

> <Gold.Chemscore.DEInternal>
2.2795

> <Gold.Chemscore.Rot>
3.5170

> <Gold.Chemscore.Internal.Correction>
   9.000000E+99

> <Gold.Chemscore.Hbonds>
donor molecule, donor type, donor heavy atom, donor atom, acceptor molecule, acceptor atom, score
      P1  H  6896  6907       L1    28  0.17
      P1  H 10752 10765       L1    11  0.36

> <Gold.Chemscore.Hbond.Weighted>
-2.4819

> <Gold.Chemscore.Metal.Weighted>
-0.0000

> <Gold.Chemscore.Lipo.Weighted>
-11.4846

> <Gold.Chemscore.Internal_Hbond.Weighted>
0.0000

> <Gold.Chemscore.DEClash.Weighted>
0.2961

> <Gold.Chemscore.DEInternal.Weighted>
2.2795

> <Gold.Chemscore.Rot.Weighted>
9.0036

> <Gold.Chemscore.Internal.Correction.Weighted>
   9.000000E+99

> <Gold.Protein.RotatedTorsions>
[ 6907 6896 6895 6894 ] final  -71.12 input  -60.11 | X-H torsion
[ 7974 7965 7964 7962 ] final    4.52 input  175.53 | X-H torsion
[ 8008 7997 7996 7995 ] final   71.64 input   59.86 | X-H torsion
[ 10167 10162 10161 10158 ] final -150.84 input  -65.29 | X-H torsion
[ 10718 10713 10712 10709 ] final   34.93 input   66.30 | X-H torsion
[ 10763 10752 10751 10750 ] final  173.11 input  -60.55 | X-H torsion
[ 11005 11000 10999 10996 ] final -150.02 input  -57.11 | X-H torsion

> <Gold.Protein.ActiveResidues>
 VAL166  LYS551  ARG553  GLY616  TRP617  ASP618  TYR619  PRO620  LYS621  CYS622 
 ASP623  PHE694  ASN695  SER759  ASP760  ASP761  ALA762  ILE779  LEU786  VAL792 
 PHE793  MET794  SER795  GLU796  ALA797  LYS798  CYS799  TRP800  GLU811  SER814 

> <Gold.Protein.RotatedAtoms>
  150.7226  134.5355  159.5720 H   0  0  0  0  0  0  0  0  0  0  0  0  # atno 6907 bound_to 6896
  152.2878  134.7753  160.0393 H   0  0  0  0  0  0  0  0  0  0  0  0  # atno 6908 bound_to 6896
  151.8377  133.3383  159.3670 H   0  0  0  0  0  0  0  0  0  0  0  0  # atno 6909 bound_to 6896
  146.2443  140.0521  142.8374 H   0  0  0  0  0  0  0  0  0  0  0  0  # atno 7974 bound_to 7965
  155.7569  140.3487  155.5178 H   0  0  0  0  0  0  0  0  0  0  0  0  # atno 8008 bound_to 7997
  155.8951  140.1024  157.1412 H   0  0  0  0  0  0  0  0  0  0  0  0  # atno 8009 bound_to 7997
  154.4037  140.1297  156.4352 H   0  0  0  0  0  0  0  0  0  0  0  0  # atno 8010 bound_to 7997
  139.7319  143.8795  152.2537 H   0  0  0  0  0  0  0  0  0  0  0  0  # atno 10167 bound_to 10162
  157.3164  130.7426  149.6757 H   0  0  0  0  0  0  0  0  0  0  0  0  # atno 10718 bound_to 10713
  154.4355  135.2761  155.1883 H   0  0  0  0  0  0  0  0  0  0  0  0  # atno 10763 bound_to 10752
  154.3771  135.6096  153.5774 H   0  0  0  0  0  0  0  0  0  0  0  0  # atno 10764 bound_to 10752
  152.9838  135.5871  154.4674 H   0  0  0  0  0  0  0  0  0  0  0  0  # atno 10765 bound_to 10752
  140.7446  134.3475  157.5140 H   0  0  0  0  0  0  0  0  0  0  0  0  # atno 11005 bound_to 11000
  145.0975  140.9324  143.4732 LP  0  0  0  0  0  0  0  0  0  0  0  0  # atno 17320 bound_to 7965
  145.0707  139.3034  143.5833 LP  0  0  0  0  0  0  0  0  0  0  0  0  # atno 17321 bound_to 7965
  139.8721  144.7063  150.8976 LP  0  0  0  0  0  0  0  0  0  0  0  0  # atno 17342 bound_to 10162
  140.7772  143.3730  151.1614 LP  0  0  0  0  0  0  0  0  0  0  0  0  # atno 17343 bound_to 10162
  155.9682  130.4236  150.4569 LP  0  0  0  0  0  0  0  0  0  0  0  0  # atno 17370 bound_to 10713
  157.2577  131.0560  151.2340 LP  0  0  0  0  0  0  0  0  0  0  0  0  # atno 17371 bound_to 10713
  139.8799  134.9103  156.3011 LP  0  0  0  0  0  0  0  0  0  0  0  0  # atno 17394 bound_to 11000
  140.9805  133.7270  156.0666 LP  0  0  0  0  0  0  0  0  0  0  0  0  # atno 17395 bound_to 11000

$$$$
