AV-unprocessed.smi:3041|AV-procd|sdf|11598|dock7
  -GOLD-   2272016573D 1   1.00000     0.00000
 Structure written by MMmdl.
 38 39  0  0  0  0  0  0  0  0  1 V2000
  145.6492  130.0240  151.3122 C   0  0  0  0  0  0  0  0  0  0  0  0
  144.9689  131.2923  151.1631 N   0  0  0  0  0  0  0  0  0  0  0  0
  145.2904  132.5113  151.7193 C   0  0  0  0  0  0  0  0  0  0  0  0
  144.3606  133.4160  151.2897 C   0  0  0  0  0  0  0  0  0  0  0  0
  144.2664  134.8878  151.5931 C   0  0  0  0  0  0  0  0  0  0  0  0
  145.2608  135.7348  150.7776 C   0  0  0  0  0  0  0  0  0  0  0  0
  146.2162  136.4395  151.6293 N   0  0  0  0  0  0  0  0  0  0  0  0
  145.9028  137.3507  152.5619 C   0  0  0  0  0  0  0  0  0  0  0  0
  144.7522  137.6994  152.8267 O   0  0  0  0  0  0  0  0  0  0  0  0
  146.9965  137.8385  153.1630 N   0  0  0  0  0  0  0  0  0  0  0  0
  147.0036  138.8382  154.2260 C   0  0  0  0  0  0  0  0  0  0  0  0
  148.2263  139.7623  154.1025 C   0  0  1  0  0  0  0  0  0  0  0  0
  148.2889  140.8781  155.1276 C   0  0  0  0  0  0  0  0  0  0  0  0
  149.7612  141.2747  155.0713 C   0  0  0  0  0  0  0  0  0  0  0  0
  150.4728  140.0885  154.7294 O   0  0  0  0  0  0  0  0  0  0  0  0
  149.5612  139.0615  154.3511 C   0  0  0  0  0  0  0  0  0  0  0  0
  143.4978  132.6371  150.4668 C   0  0  0  0  0  0  0  0  0  0  0  0
  143.8633  131.3678  150.3944 N   0  0  0  0  0  0  0  0  0  0  0  0
  146.6198  130.1741  151.7860 H   0  0  0  0  0  0  0  0  0  0  0  0
  145.8011  129.5654  150.3344 H   0  0  0  0  0  0  0  0  0  0  0  0
  145.0502  129.3566  151.9323 H   0  0  0  0  0  0  0  0  0  0  0  0
  146.1490  132.6356  152.3625 H   0  0  0  0  0  0  0  0  0  0  0  0
  143.2568  135.2489  151.3954 H   0  0  0  0  0  0  0  0  0  0  0  0
  144.4359  135.0689  152.6552 H   0  0  0  0  0  0  0  0  0  0  0  0
  145.7784  135.1084  150.0490 H   0  0  0  0  0  0  0  0  0  0  0  0
  144.7139  136.4801  150.1998 H   0  0  0  0  0  0  0  0  0  0  0  0
  147.1920  136.2223  151.4894 H   0  0  0  0  0  0  0  0  0  0  0  0
  147.8953  137.4867  152.8673 H   0  0  0  0  0  0  0  0  0  0  0  0
  146.0814  139.4166  154.1596 H   0  0  0  0  0  0  0  0  0  0  0  0
  147.0060  138.3700  155.2117 H   0  0  0  0  0  0  0  0  0  0  0  0
  148.2489  140.2021  153.1037 H   0  0  0  0  0  0  0  0  0  0  0  0
  147.6185  141.7084  154.9035 H   0  0  0  0  0  0  0  0  0  0  0  0
  148.0431  140.4978  156.1204 H   0  0  0  0  0  0  0  0  0  0  0  0
  149.9262  142.0154  154.2879 H   0  0  0  0  0  0  0  0  0  0  0  0
  150.1145  141.6940  156.0134 H   0  0  0  0  0  0  0  0  0  0  0  0
  149.4794  138.3543  155.1777 H   0  0  0  0  0  0  0  0  0  0  0  0
  149.9157  138.5173  153.4756 H   0  0  0  0  0  0  0  0  0  0  0  0
  142.6238  132.9572  149.9191 H   0  0  0  0  0  0  0  0  0  0  0  0
  1  2  1  0  0  0  0
  1 19  1  0  0  0  0
  1 20  1  0  0  0  0
  1 21  1  0  0  0  0
  2 18  1  0  0  0  0
  2  3  1  0  0  0  0
  3  4  2  0  0  0  0
  3 22  1  0  0  0  0
  4  5  1  0  0  0  0
  4 17  1  0  0  0  0
  5  6  1  0  0  0  0
  5 23  1  0  0  0  0
  5 24  1  0  0  0  0
  6  7  1  0  0  0  0
  6 25  1  0  0  0  0
  6 26  1  0  0  0  0
  7  8  1  0  0  0  0
  7 27  1  0  0  0  0
  8  9  2  0  0  0  0
  8 10  1  0  0  0  0
 10 11  1  0  0  0  0
 10 28  1  0  0  0  0
 11 12  1  0  0  0  0
 11 29  1  0  0  0  0
 11 30  1  0  0  0  0
 12 16  1  0  0  0  0
 12 13  1  0  0  0  0
 12 31  1  0  0  0  0
 13 14  1  0  0  0  0
 13 32  1  0  0  0  0
 13 33  1  0  0  0  0
 14 15  1  0  0  0  0
 14 34  1  0  0  0  0
 14 35  1  0  0  0  0
 15 16  1  0  0  0  0
 16 36  1  0  0  0  0
 16 37  1  0  0  0  0
 17 18  2  0  0  0  0
 17 38  1  0  0  0  0
M  END
> <s_m_source_file>
AV-unprocessed.smi

> <i_m_source_file_index>
3041

> <i_lp_mmshare_version>
43012

> <i_f3d_flags>
0

> <s_epik_input>
W0NIM11uMVtjSF1jKFtjSF1uMSlbQ0gyXVtDSDJdW05IXUMoPU8pW05IXVtDSDJdW0NAQEhdMltDSDJdW0NIMl1PW0NIMl0y

> <s_epik_cmdline>
J2VwaWtfcHl0aG9uJywgJy1waCcsICc3LjAnLCAnLXRuJywgJzgnLCAnLW1hJywgJzIwMCcsICctbWV0YWxfYmluZGluZycsICctaW1hZScsICc8aW5maWxlLm1hZT4nLCAnLW9tYWUnLCAnPG91dGZpbGUubWFlPic=

> <r_lp_tautomer_probability>
1

> <r_epik_Ionization_Penalty>
0.000557811

> <r_epik_Ionization_Penalty_Charging>
0

> <r_epik_Ionization_Penalty_Neutral>
0.000557811

> <r_epik_State_Penalty>
-0

> <r_epik_Charging_Adjusted_Penalty>
0

> <i_epik_Tot_Q>
0

> <i_epik_Tot_abs_Q>
0

> <r_epik_Metal_State_Penalty>
-0

> <b_epik_Metal_Only>
0

> <s_lp_Force_Field>
OPLS_2005

> <r_lp_Energy>
14.3495

> <b_lp_Chiralities_Consistent>
1

> <s_lp_Variant>
AV-unprocessed.smi:3041-2

> <Gold.Version>
5.8.1

> <Gold.Id.Protein>
6NUR|6NUR_protein|mol2

> <Gold.PLP.Fitness>
44.1898

> <Gold.PLP.PLP>
-32.6688

> <Gold.PLP.part.hbond>
-4.0000

> <Gold.PLP.part.metal>
0.0000

> <Gold.PLP.part.buried>
-5.9128

> <Gold.PLP.part.nonpolar>
-25.5808

> <Gold.PLP.part.repulsive>
1.4646

> <Gold.PLP.ligand.clash>
0.0000

> <Gold.PLP.ligand.torsion>
0.8113

> <Gold.PLP.Chemscore.Hbond>
3.3773

> <Gold.PLP.Chemscore.CHOScore>
1.0000

> <Gold.PLP.Chemscore.Metal>
0.0000

> <Gold.Chemscore.Hbonds>
donor molecule, donor type, donor heavy atom, donor atom, acceptor molecule, acceptor atom, score
      L1  H     7    27       P1  7948  1.00
      L1  H    10    28       P1  7948  1.00
      P1  H  7989  7998       L1    15  0.85
      P1  H 10785 10796       L1    18  0.49
      L1  C    17    38       P1 10186  1.00

> <Gold.PLP.Chemscore.Internal.Correction>
0.0116

> <Gold.Rescore>
     Score         DG    S(hbond)    S(metal)    S(lipo)     H(rot)  DE(clash)    DE(int)     intcor
     18.34     -19.64       3.05        0.00      74.64       1.85       0.48       0.82       ----

> <Gold.Chemscore.Fitness>
18.3383

> <Gold.Chemscore.DG>
-19.6407

> <Gold.Chemscore.ZeroCoef>
-5.4800

> <Gold.Chemscore.Hbond>
3.0451

> <Gold.Chemscore.Metal>
0.0000

> <Gold.Chemscore.Lipo>
74.6447

> <Gold.Chemscore.Internal_Hbond>
0.0000

> <Gold.Chemscore.DEClash>
0.4777

> <Gold.Chemscore.DEInternal>
0.8247

> <Gold.Chemscore.Rot>
1.8528

> <Gold.Chemscore.Internal.Correction>
   9.000000E+99

> <Gold.Chemscore.Hbonds>
donor molecule, donor type, donor heavy atom, donor atom, acceptor molecule, acceptor atom, score
      L1  H     7    27       P1  7948  0.99
      L1  H    10    28       P1  7948  0.95
      P1  H  7989  7998       L1    15  0.14
      P1  H 10785 10796       L1    18  0.47

> <Gold.Chemscore.Hbond.Weighted>
-10.1706

> <Gold.Chemscore.Metal.Weighted>
-0.0000

> <Gold.Chemscore.Lipo.Weighted>
-8.7334

> <Gold.Chemscore.Internal_Hbond.Weighted>
0.0000

> <Gold.Chemscore.DEClash.Weighted>
0.4777

> <Gold.Chemscore.DEInternal.Weighted>
0.8247

> <Gold.Chemscore.Rot.Weighted>
4.7433

> <Gold.Chemscore.Internal.Correction.Weighted>
   9.000000E+99

> <Gold.Protein.RotatedTorsions>
[ 6907 6896 6895 6894 ] final  177.45 input  -60.11 | X-H torsion
[ 7974 7965 7964 7962 ] final   17.82 input  175.53 | X-H torsion
[ 8008 7997 7996 7995 ] final -169.80 input   59.86 | X-H torsion
[ 10167 10162 10161 10158 ] final -100.97 input  -65.29 | X-H torsion
[ 10718 10713 10712 10709 ] final  -97.36 input   66.30 | X-H torsion
[ 10763 10752 10751 10750 ] final   52.55 input  -60.55 | X-H torsion
[ 11005 11000 10999 10996 ] final   54.90 input  -57.11 | X-H torsion

> <Gold.Protein.ActiveResidues>
 VAL166  LYS551  ARG553  GLY616  TRP617  ASP618  TYR619  PRO620  LYS621  CYS622 
 ASP623  PHE694  ASN695  SER759  ASP760  ASP761  ALA762  ILE779  LEU786  VAL792 
 PHE793  MET794  SER795  GLU796  ALA797  LYS798  CYS799  TRP800  GLU811  SER814 

> <Gold.Protein.RotatedAtoms>
  151.7039  133.3311  159.3273 H   0  0  0  0  0  0  0  0  0  0  0  0  # atno 6907 bound_to 6896
  150.7724  134.6592  159.6339 H   0  0  0  0  0  0  0  0  0  0  0  0  # atno 6908 bound_to 6896
  152.3753  134.6675  160.0214 H   0  0  0  0  0  0  0  0  0  0  0  0  # atno 6909 bound_to 6896
  146.2206  139.8547  142.8616 H   0  0  0  0  0  0  0  0  0  0  0  0  # atno 7974 bound_to 7965
  155.9098  140.1055  157.1288 H   0  0  0  0  0  0  0  0  0  0  0  0  # atno 8008 bound_to 7997
  154.4038  140.1276  156.4607 H   0  0  0  0  0  0  0  0  0  0  0  0  # atno 8009 bound_to 7997
  155.7324  140.3468  155.5068 H   0  0  0  0  0  0  0  0  0  0  0  0  # atno 8010 bound_to 7997
  140.2462  143.3504  152.0756 H   0  0  0  0  0  0  0  0  0  0  0  0  # atno 10167 bound_to 10162
  156.0082  130.5191  150.6362 H   0  0  0  0  0  0  0  0  0  0  0  0  # atno 10718 bound_to 10713
  152.9789  135.5809  154.4597 H   0  0  0  0  0  0  0  0  0  0  0  0  # atno 10763 bound_to 10752
  154.4174  135.2771  155.1999 H   0  0  0  0  0  0  0  0  0  0  0  0  # atno 10764 bound_to 10752
  154.3763  135.6156  153.5821 H   0  0  0  0  0  0  0  0  0  0  0  0  # atno 10765 bound_to 10752
  140.0650  134.5550  155.9110 H   0  0  0  0  0  0  0  0  0  0  0  0  # atno 11005 bound_to 11000
  145.2765  141.0125  143.3742 LP  0  0  0  0  0  0  0  0  0  0  0  0  # atno 17320 bound_to 7965
  144.9183  139.4443  143.6554 LP  0  0  0  0  0  0  0  0  0  0  0  0  # atno 17321 bound_to 7965
  139.5061  144.6807  151.6016 LP  0  0  0  0  0  0  0  0  0  0  0  0  # atno 17342 bound_to 10162
  140.6075  143.9497  150.6429 LP  0  0  0  0  0  0  0  0  0  0  0  0  # atno 17343 bound_to 10162
  157.4151  131.0829  151.1184 LP  0  0  0  0  0  0  0  0  0  0  0  0  # atno 17370 bound_to 10713
  157.1803  130.6307  149.5670 LP  0  0  0  0  0  0  0  0  0  0  0  0  # atno 17371 bound_to 10713
  141.1989  133.6604  156.5815 LP  0  0  0  0  0  0  0  0  0  0  0  0  # atno 17394 bound_to 11000
  140.3713  134.7603  157.4600 LP  0  0  0  0  0  0  0  0  0  0  0  0  # atno 17395 bound_to 11000

$$$$
