AV-unprocessed.smi:2416|AV-procd|sdf|9546|dock5
  -GOLD-   2272013183D 1   1.00000     0.00000
 Structure written by MMmdl.
 40 41  0  0  0  0  0  0  0  0  1 V2000
  138.0136  141.5997  155.9160 C   0  0  0  0  0  0  0  0  0  0  0  0
  138.3453  140.3136  155.4060 O   0  0  0  0  0  0  0  0  0  0  0  0
  138.7488  140.2331  154.0316 C   0  0  1  0  0  0  0  0  0  0  0  0
  137.6566  140.8027  153.1179 C   0  0  0  0  0  0  0  0  0  0  0  0
  140.1992  140.7269  153.8713 C   0  0  0  0  0  0  0  0  0  0  0  0
  140.6456  139.3263  154.2852 C   0  0  2  0  0  0  0  0  0  0  0  0
  141.8227  138.8761  153.5494 N   0  0  0  0  0  0  0  0  0  0  0  0
  142.1382  137.5917  153.3338 C   0  0  0  0  0  0  0  0  0  0  0  0
  141.4556  136.6492  153.7359 O   0  0  0  0  0  0  0  0  0  0  0  0
  143.2801  137.4836  152.6322 N   0  0  0  0  0  0  0  0  0  0  0  0
  143.9270  136.3015  152.1833 C   0  0  0  0  0  0  0  0  0  0  0  0
  145.2643  136.4763  151.7601 C   0  0  0  0  0  0  0  0  0  0  0  0
  145.9948  135.3656  151.2943 C   0  0  0  0  0  0  0  0  0  0  0  0
  145.3659  134.1084  151.2627 C   0  0  0  0  0  0  0  0  0  0  0  0
  146.0276  133.0119  150.8232 F   0  0  0  0  0  0  0  0  0  0  0  0
  144.0312  134.0197  151.6994 C   0  0  0  0  0  0  0  0  0  0  0  0
  143.3303  135.0833  152.1471 N   0  0  0  0  0  0  0  0  0  0  0  0
  139.2892  138.7909  153.7566 C   0  0  0  0  0  0  0  0  0  0  0  0
  138.6534  137.6571  154.5690 C   0  0  0  0  0  0  0  0  0  0  0  0
  139.2531  138.3250  152.2886 C   0  0  0  0  0  0  0  0  0  0  0  0
  137.8676  141.5270  156.9937 H   0  0  0  0  0  0  0  0  0  0  0  0
  137.0825  141.9743  155.4912 H   0  0  0  0  0  0  0  0  0  0  0  0
  138.7991  142.3337  155.7392 H   0  0  0  0  0  0  0  0  0  0  0  0
  137.8905  140.6538  152.0644 H   0  0  0  0  0  0  0  0  0  0  0  0
  137.5347  141.8774  153.2499 H   0  0  0  0  0  0  0  0  0  0  0  0
  136.6938  140.3283  153.3089 H   0  0  0  0  0  0  0  0  0  0  0  0
  140.4478  140.9779  152.8386 H   0  0  0  0  0  0  0  0  0  0  0  0
  140.5187  141.5156  154.5513 H   0  0  0  0  0  0  0  0  0  0  0  0
  140.7430  139.2386  155.3698 H   0  0  0  0  0  0  0  0  0  0  0  0
  142.4370  139.5904  153.1870 H   0  0  0  0  0  0  0  0  0  0  0  0
  143.7385  138.3488  152.3880 H   0  0  0  0  0  0  0  0  0  0  0  0
  145.7308  137.4505  151.7914 H   0  0  0  0  0  0  0  0  0  0  0  0
  147.0182  135.4779  150.9679 H   0  0  0  0  0  0  0  0  0  0  0  0
  143.5123  133.0727  151.6894 H   0  0  0  0  0  0  0  0  0  0  0  0
  139.1284  136.6978  154.3613 H   0  0  0  0  0  0  0  0  0  0  0  0
  137.5910  137.5545  154.3459 H   0  0  0  0  0  0  0  0  0  0  0  0
  138.7450  137.8230  155.6426 H   0  0  0  0  0  0  0  0  0  0  0  0
  139.8041  137.3945  152.1474 H   0  0  0  0  0  0  0  0  0  0  0  0
  139.6908  139.0589  151.6120 H   0  0  0  0  0  0  0  0  0  0  0  0
  138.2314  138.1468  151.9516 H   0  0  0  0  0  0  0  0  0  0  0  0
  1  2  1  0  0  0  0
  1 21  1  0  0  0  0
  1 22  1  0  0  0  0
  1 23  1  0  0  0  0
  2  3  1  0  0  0  0
  3 18  1  0  0  0  0
  3  4  1  0  0  0  0
  3  5  1  0  0  0  0
  4 24  1  0  0  0  0
  4 25  1  0  0  0  0
  4 26  1  0  0  0  0
  5  6  1  0  0  0  0
  5 27  1  0  0  0  0
  5 28  1  0  0  0  0
  6  7  1  0  0  0  0
  6 18  1  0  0  0  0
  6 29  1  0  0  0  0
  7  8  1  0  0  0  0
  7 30  1  0  0  0  0
  8  9  2  0  0  0  0
  8 10  1  0  0  0  0
 10 11  1  0  0  0  0
 10 31  1  0  0  0  0
 11 17  1  0  0  0  0
 11 12  2  0  0  0  0
 12 13  1  0  0  0  0
 12 32  1  0  0  0  0
 13 14  2  0  0  0  0
 13 33  1  0  0  0  0
 14 15  1  0  0  0  0
 14 16  1  0  0  0  0
 16 17  2  0  0  0  0
 16 34  1  0  0  0  0
 18 19  1  0  0  0  0
 18 20  1  0  0  0  0
 19 35  1  0  0  0  0
 19 36  1  0  0  0  0
 19 37  1  0  0  0  0
 20 38  1  0  0  0  0
 20 39  1  0  0  0  0
 20 40  1  0  0  0  0
M  END
> <s_m_source_file>
AV-unprocessed.smi

> <i_m_source_file_index>
2416

> <i_lp_mmshare_version>
43012

> <i_f3d_flags>
0

> <s_epik_input>
W0NIM11PW0NAQF0xKFtDSDNdKVtDSDJdW0NASF0oQzEoW0NIM10pW0NIM10pW05IXUMoPU8pW05IXWMyW2NIXVtjSF1jKEYpW2NIXW4y

> <s_epik_cmdline>
J2VwaWtfcHl0aG9uJywgJy1waCcsICc3LjAnLCAnLXRuJywgJzgnLCAnLW1hJywgJzIwMCcsICctbWV0YWxfYmluZGluZycsICctaW1hZScsICc8aW5maWxlLm1hZT4nLCAnLW9tYWUnLCAnPG91dGZpbGUubWFlPic=

> <r_lp_tautomer_probability>
1

> <r_epik_Ionization_Penalty>
3.67756e-05

> <r_epik_Ionization_Penalty_Charging>
0

> <r_epik_Ionization_Penalty_Neutral>
3.67756e-05

> <r_epik_State_Penalty>
-0

> <r_epik_Charging_Adjusted_Penalty>
0

> <i_epik_Tot_Q>
0

> <i_epik_Tot_abs_Q>
0

> <r_epik_Metal_State_Penalty>
-0

> <b_epik_Metal_Only>
0

> <s_lp_Force_Field>
OPLS_2005

> <r_lp_Energy>
27.4539

> <b_lp_Chiralities_Consistent>
1

> <s_lp_Variant>
AV-unprocessed.smi:2416-3

> <Gold.Version>
5.8.1

> <Gold.Id.Protein>
6NUR|6NUR_protein|mol2

> <Gold.PLP.Fitness>
35.8548

> <Gold.PLP.PLP>
-30.7785

> <Gold.PLP.part.hbond>
-2.8820

> <Gold.PLP.part.metal>
0.0000

> <Gold.PLP.part.buried>
-1.3821

> <Gold.PLP.part.nonpolar>
-26.1754

> <Gold.PLP.part.repulsive>
0.3319

> <Gold.PLP.ligand.clash>
0.0000

> <Gold.PLP.ligand.torsion>
0.3265

> <Gold.PLP.Chemscore.Hbond>
1.7855

> <Gold.PLP.Chemscore.CHOScore>
0.0000

> <Gold.PLP.Chemscore.Metal>
0.0000

> <Gold.Chemscore.Hbonds>
donor molecule, donor type, donor heavy atom, donor atom, acceptor molecule, acceptor atom, score
      L1  H     7    30       P1 10175  1.00
      L1  H    10    31       P1 10175  0.79

> <Gold.PLP.Chemscore.Internal.Correction>
0.3729

> <Gold.Rescore>
     Score         DG    S(hbond)    S(metal)    S(lipo)     H(rot)  DE(clash)    DE(int)     intcor
     13.81     -16.08       1.80        0.00      66.89       1.27       0.73       1.54       ----

> <Gold.Chemscore.Fitness>
13.8108

> <Gold.Chemscore.DG>
-16.0775

> <Gold.Chemscore.ZeroCoef>
-5.4800

> <Gold.Chemscore.Hbond>
1.7997

> <Gold.Chemscore.Metal>
0.0000

> <Gold.Chemscore.Lipo>
66.8878

> <Gold.Chemscore.Internal_Hbond>
0.0000

> <Gold.Chemscore.DEClash>
0.7306

> <Gold.Chemscore.DEInternal>
1.5361

> <Gold.Chemscore.Rot>
1.2653

> <Gold.Chemscore.Internal.Correction>
   9.000000E+99

> <Gold.Chemscore.Hbonds>
donor molecule, donor type, donor heavy atom, donor atom, acceptor molecule, acceptor atom, score
      L1  H     7    30       P1 10175  0.97
      L1  H    10    31       P1 10175  0.75

> <Gold.Chemscore.Hbond.Weighted>
-6.0109

> <Gold.Chemscore.Metal.Weighted>
-0.0000

> <Gold.Chemscore.Lipo.Weighted>
-7.8259

> <Gold.Chemscore.Internal_Hbond.Weighted>
0.0000

> <Gold.Chemscore.DEClash.Weighted>
0.7306

> <Gold.Chemscore.DEInternal.Weighted>
1.5361

> <Gold.Chemscore.Rot.Weighted>
3.2392

> <Gold.Chemscore.Internal.Correction.Weighted>
   9.000000E+99

> <Gold.Protein.RotatedTorsions>
[ 6907 6896 6895 6894 ] final  -80.97 input  -60.11 | X-H torsion
[ 7974 7965 7964 7962 ] final -144.06 input  175.53 | X-H torsion
[ 8008 7997 7996 7995 ] final  -62.52 input   59.86 | X-H torsion
[ 10167 10162 10161 10158 ] final -141.76 input  -65.29 | X-H torsion
[ 10718 10713 10712 10709 ] final   73.91 input   66.30 | X-H torsion
[ 10763 10752 10751 10750 ] final  130.01 input  -60.55 | X-H torsion
[ 11005 11000 10999 10996 ] final  -33.88 input  -57.11 | X-H torsion

> <Gold.Protein.ActiveResidues>
 VAL166  LYS551  ARG553  GLY616  TRP617  ASP618  TYR619  PRO620  LYS621  CYS622 
 ASP623  PHE694  ASN695  SER759  ASP760  ASP761  ALA762  ILE779  LEU786  VAL792 
 PHE793  MET794  SER795  GLU796  ALA797  LYS798  CYS799  TRP800  GLU811  SER814 

> <Gold.Protein.RotatedAtoms>
  150.6920  134.3888  159.5066 H   0  0  0  0  0  0  0  0  0  0  0  0  # atno 6907 bound_to 6896
  152.1680  134.8855  160.0546 H   0  0  0  0  0  0  0  0  0  0  0  0  # atno 6908 bound_to 6896
  151.9892  133.3750  159.4174 H   0  0  0  0  0  0  0  0  0  0  0  0  # atno 6909 bound_to 6896
  144.8324  140.5757  143.5506 H   0  0  0  0  0  0  0  0  0  0  0  0  # atno 7974 bound_to 7965
  154.4504  140.0994  156.6600 H   0  0  0  0  0  0  0  0  0  0  0  0  # atno 8008 bound_to 7997
  155.5304  140.3481  155.4406 H   0  0  0  0  0  0  0  0  0  0  0  0  # atno 8009 bound_to 7997
  156.0668  140.1340  156.9865 H   0  0  0  0  0  0  0  0  0  0  0  0  # atno 8010 bound_to 7997
  139.8153  143.7646  152.2665 H   0  0  0  0  0  0  0  0  0  0  0  0  # atno 10167 bound_to 10162
  157.6569  130.9652  150.1136 H   0  0  0  0  0  0  0  0  0  0  0  0  # atno 10718 bound_to 10713
  153.7510  135.3210  155.3321 H   0  0  0  0  0  0  0  0  0  0  0  0  # atno 10763 bound_to 10752
  154.8263  135.4567  154.0932 H   0  0  0  0  0  0  0  0  0  0  0  0  # atno 10764 bound_to 10752
  153.2134  135.6939  153.8168 H   0  0  0  0  0  0  0  0  0  0  0  0  # atno 10765 bound_to 10752
  140.9671  133.7131  156.1462 H   0  0  0  0  0  0  0  0  0  0  0  0  # atno 11005 bound_to 11000
  145.4867  139.1491  143.3732 LP  0  0  0  0  0  0  0  0  0  0  0  0  # atno 17320 bound_to 7965
  146.2626  140.5004  142.8847 LP  0  0  0  0  0  0  0  0  0  0  0  0  # atno 17321 bound_to 7965
  139.7808  144.7445  151.0091 LP  0  0  0  0  0  0  0  0  0  0  0  0  # atno 17342 bound_to 10162
  140.7816  143.4544  151.0367 LP  0  0  0  0  0  0  0  0  0  0  0  0  # atno 17343 bound_to 10162
  156.2026  130.3661  149.8769 LP  0  0  0  0  0  0  0  0  0  0  0  0  # atno 17370 bound_to 10713
  156.6669  130.8804  151.3556 LP  0  0  0  0  0  0  0  0  0  0  0  0  # atno 17371 bound_to 10713
  140.7384  134.4178  157.5558 LP  0  0  0  0  0  0  0  0  0  0  0  0  # atno 17394 bound_to 11000
  139.8898  134.8820  156.2401 LP  0  0  0  0  0  0  0  0  0  0  0  0  # atno 17395 bound_to 11000

$$$$
