AV-unprocessed.smi:147|AV-procd|sdf|1201|dock7
  -GOLD-   2262018363D 1   1.00000     0.00000
 Structure written by MMmdl.
 55 57  0  0  0  0  0  0  0  0  1 V2000
  147.5846  135.1383  162.6575 C   0  0  0  0  0  0  0  0  0  0  0  0
  147.0635  134.9480  161.2235 C   0  0  0  0  0  0  0  0  0  0  0  0
  147.9277  133.9423  160.4457 C   0  0  0  0  0  0  0  0  0  0  0  0
  147.0004  136.2902  160.4834 C   0  0  0  0  0  0  0  0  0  0  0  0
  147.5497  137.2859  160.9565 O   0  0  0  0  0  0  0  0  0  0  0  0
  146.3305  136.3034  159.3207 N   0  0  0  0  0  0  0  0  0  0  0  0
  146.1710  137.4688  158.4604 C   0  0  0  0  0  0  0  0  0  0  0  0
  145.3732  137.1207  157.1902 C   0  0  0  0  0  0  0  0  0  0  0  0
  145.6086  138.0721  156.1034 N   0  0  0  0  0  0  0  0  0  0  0  0
  145.5796  139.4940  156.4251 C   0  0  0  0  0  0  0  0  0  0  0  0
  145.5088  137.6776  154.8007 C   0  0  0  0  0  0  0  0  0  0  0  0
  146.1172  138.4281  153.8421 N   0  0  0  0  0  0  0  0  0  0  0  0
  146.0552  138.0817  152.5545 C   0  0  0  0  0  0  0  0  0  0  0  0
  145.4374  137.0385  152.0029 N   0  0  0  0  0  0  0  0  0  0  0  0
  144.8093  136.2822  152.9470 C   0  0  0  0  0  0  0  0  0  0  0  0
  144.7974  136.5207  154.3533 C   0  0  0  0  0  0  0  0  0  0  0  0
  144.0565  135.5232  154.9806 N   0  0  0  0  0  0  0  0  0  0  0  0
  143.6671  134.7429  154.0109 C   0  0  0  0  0  0  0  0  0  0  0  0
  144.0489  135.1423  152.7518 N   0  0  0  0  0  0  0  0  0  0  0  0
  143.7884  134.4594  151.5185 C   0  0  0  0  0  0  0  0  0  0  0  0
  144.0691  132.9624  151.3707 C   0  0  0  0  0  0  0  0  0  0  0  0
  144.4242  133.1816  149.8829 C   0  0  0  0  0  0  0  0  0  0  0  0
  145.6486  132.4033  149.3748 C   0  0  0  0  0  0  0  0  0  0  0  0
  146.7548  132.5682  150.2380 O   0  0  0  0  0  0  0  0  0  0  0  0
  143.2569  132.9927  148.8934 C   0  0  0  0  0  0  0  0  0  0  0  0
  143.3467  133.8961  147.8103 O   0  0  0  0  0  0  0  0  0  0  0  0
  144.7002  134.6425  150.3025 C   0  0  0  0  0  0  0  0  0  0  0  0
  146.9738  135.8532  163.2102 H   0  0  0  0  0  0  0  0  0  0  0  0
  148.6132  135.5012  162.6668 H   0  0  0  0  0  0  0  0  0  0  0  0
  147.5627  134.1971  163.2072 H   0  0  0  0  0  0  0  0  0  0  0  0
  146.0523  134.5426  161.2868 H   0  0  0  0  0  0  0  0  0  0  0  0
  147.5576  133.8040  159.4289 H   0  0  0  0  0  0  0  0  0  0  0  0
  147.9199  132.9660  160.9308 H   0  0  0  0  0  0  0  0  0  0  0  0
  148.9660  134.2701  160.3807 H   0  0  0  0  0  0  0  0  0  0  0  0
  145.9089  135.4420  159.0049 H   0  0  0  0  0  0  0  0  0  0  0  0
  145.6522  138.2374  159.0337 H   0  0  0  0  0  0  0  0  0  0  0  0
  147.1482  137.8809  158.2039 H   0  0  0  0  0  0  0  0  0  0  0  0
  145.6611  136.1294  156.8384 H   0  0  0  0  0  0  0  0  0  0  0  0
  144.3082  137.0487  157.4144 H   0  0  0  0  0  0  0  0  0  0  0  0
  146.5390  139.9579  156.1959 H   0  0  0  0  0  0  0  0  0  0  0  0
  145.3824  139.6513  157.4858 H   0  0  0  0  0  0  0  0  0  0  0  0
  144.7964  140.0061  155.8651 H   0  0  0  0  0  0  0  0  0  0  0  0
  146.5723  138.7357  151.8680 H   0  0  0  0  0  0  0  0  0  0  0  0
  143.0787  133.8546  154.1897 H   0  0  0  0  0  0  0  0  0  0  0  0
  142.7516  134.6839  151.2627 H   0  0  0  0  0  0  0  0  0  0  0  0
  144.9220  132.6397  151.9707 H   0  0  0  0  0  0  0  0  0  0  0  0
  143.2039  132.3243  151.5530 H   0  0  0  0  0  0  0  0  0  0  0  0
  145.4310  131.3365  149.3150 H   0  0  0  0  0  0  0  0  0  0  0  0
  145.9332  132.7130  148.3690 H   0  0  0  0  0  0  0  0  0  0  0  0
  147.4915  132.1023  149.8729 H   0  0  0  0  0  0  0  0  0  0  0  0
  143.2477  131.9827  148.4835 H   0  0  0  0  0  0  0  0  0  0  0  0
  142.2924  133.1274  149.3832 H   0  0  0  0  0  0  0  0  0  0  0  0
  144.2562  133.9882  147.5708 H   0  0  0  0  0  0  0  0  0  0  0  0
  144.3598  135.3958  149.5914 H   0  0  0  0  0  0  0  0  0  0  0  0
  145.7419  134.8128  150.5821 H   0  0  0  0  0  0  0  0  0  0  0  0
  1  2  1  0  0  0  0
  1 28  1  0  0  0  0
  1 29  1  0  0  0  0
  1 30  1  0  0  0  0
  2  3  1  0  0  0  0
  2  4  1  0  0  0  0
  2 31  1  0  0  0  0
  3 32  1  0  0  0  0
  3 33  1  0  0  0  0
  3 34  1  0  0  0  0
  4  5  2  0  0  0  0
  4  6  1  0  0  0  0
  6  7  1  0  0  0  0
  6 35  1  0  0  0  0
  7  8  1  0  0  0  0
  7 36  1  0  0  0  0
  7 37  1  0  0  0  0
  8  9  1  0  0  0  0
  8 38  1  0  0  0  0
  8 39  1  0  0  0  0
  9 10  1  0  0  0  0
  9 11  1  0  0  0  0
 10 40  1  0  0  0  0
 10 41  1  0  0  0  0
 10 42  1  0  0  0  0
 11 16  1  0  0  0  0
 11 12  2  0  0  0  0
 12 13  1  0  0  0  0
 13 14  2  0  0  0  0
 13 43  1  0  0  0  0
 14 15  1  0  0  0  0
 15 19  1  0  0  0  0
 15 16  2  0  0  0  0
 16 17  1  0  0  0  0
 17 18  2  0  0  0  0
 18 19  1  0  0  0  0
 18 44  1  0  0  0  0
 19 20  1  0  0  0  0
 20 27  1  0  0  0  0
 20 21  1  0  0  0  0
 20 45  1  0  0  0  0
 21 22  1  0  0  0  0
 21 46  1  0  0  0  0
 21 47  1  0  0  0  0
 22 23  1  0  0  0  0
 22 25  1  0  0  0  0
 22 27  1  0  0  0  0
 23 24  1  0  0  0  0
 23 48  1  0  0  0  0
 23 49  1  0  0  0  0
 24 50  1  0  0  0  0
 25 26  1  0  0  0  0
 25 51  1  0  0  0  0
 25 52  1  0  0  0  0
 26 53  1  0  0  0  0
 27 54  1  0  0  0  0
 27 55  1  0  0  0  0
M  END
> <s_m_source_file>
AV-unprocessed.smi

> <i_m_source_file_index>
147

> <i_lp_mmshare_version>
43012

> <i_f3d_flags>
0

> <s_epik_input>
W0NIM11bQ0hdKFtDSDNdKUMoPU8pW05IXVtDSDJdW0NIMl1OKFtDSDNdKWMobltjSF1uMSljKGMxMiluW2NIXW4yW0NIXShbQ0gyXTMpW0NIMl1DMyhbQ0gyXVtPSF0pW0NIMl1bT0hd

> <s_epik_cmdline>
J2VwaWtfcHl0aG9uJywgJy1waCcsICc3LjAnLCAnLXRuJywgJzgnLCAnLW1hJywgJzIwMCcsICctbWV0YWxfYmluZGluZycsICctaW1hZScsICc8aW5maWxlLm1hZT4nLCAnLW9tYWUnLCAnPG91dGZpbGUubWFlPic=

> <r_lp_tautomer_probability>
1

> <r_epik_Ionization_Penalty>
0.00124047

> <r_epik_Ionization_Penalty_Charging>
0

> <r_epik_Ionization_Penalty_Neutral>
0.00124047

> <r_epik_State_Penalty>
0.000682986

> <r_epik_Charging_Adjusted_Penalty>
0.000682986

> <i_epik_Tot_Q>
0

> <i_epik_Tot_abs_Q>
0

> <r_epik_Metal_State_Penalty>
-0

> <b_epik_Metal_Only>
0

> <s_lp_Force_Field>
OPLS_2005

> <r_lp_Energy>
28.5646

> <b_lp_Chiralities_Consistent>
1

> <s_lp_Variant>
AV-unprocessed.smi:147-1

> <Gold.Version>
5.8.1

> <Gold.Id.Protein>
6NUR|6NUR_protein|mol2

> <Gold.PLP.Fitness>
52.4573

> <Gold.PLP.PLP>
-37.7994

> <Gold.PLP.part.hbond>
-6.9797

> <Gold.PLP.part.metal>
0.0000

> <Gold.PLP.part.buried>
-1.6807

> <Gold.PLP.part.nonpolar>
-29.5418

> <Gold.PLP.part.repulsive>
0.4801

> <Gold.PLP.ligand.clash>
0.0000

> <Gold.PLP.ligand.torsion>
1.8236

> <Gold.PLP.Chemscore.Hbond>
4.8400

> <Gold.PLP.Chemscore.CHOScore>
1.0000

> <Gold.PLP.Chemscore.Metal>
0.0000

> <Gold.Chemscore.Hbonds>
donor molecule, donor type, donor heavy atom, donor atom, acceptor molecule, acceptor atom, score
      L1  H    24    50       P1 10747  0.93
      L1  H    26    53       P1  7921  1.00
      P1  H  6931  6943       L1     5  0.82
      P1  H  6934  6947       L1     5  0.96
      P1  H 10192 10197       L1    26  1.00
      L1  C    18    44       P1 10957  1.00

> <Gold.PLP.Chemscore.Internal.Correction>
0.7850

> <Gold.Rescore>
     Score         DG    S(hbond)    S(metal)    S(lipo)     H(rot)  DE(clash)    DE(int)     intcor
     14.42     -19.37       4.73        0.00      74.31       4.15       1.44       3.50       ----

> <Gold.Chemscore.Fitness>
14.4250

> <Gold.Chemscore.DG>
-19.3714

> <Gold.Chemscore.ZeroCoef>
-5.4800

> <Gold.Chemscore.Hbond>
4.7345

> <Gold.Chemscore.Metal>
0.0000

> <Gold.Chemscore.Lipo>
74.3139

> <Gold.Chemscore.Internal_Hbond>
0.0000

> <Gold.Chemscore.DEClash>
1.4420

> <Gold.Chemscore.DEInternal>
3.5044

> <Gold.Chemscore.Rot>
4.1472

> <Gold.Chemscore.Internal.Correction>
   9.000000E+99

> <Gold.Chemscore.Hbonds>
donor molecule, donor type, donor heavy atom, donor atom, acceptor molecule, acceptor atom, score
      L1  H    24    50       P1 10747  0.88
      L1  H    26    53       P1  7921  0.93
      P1  H  6931  6943       L1     5  0.78
      P1  H  6934  6947       L1     5  0.92
      P1  H 10192 10197       L1    26  0.97

> <Gold.Chemscore.Hbond.Weighted>
-15.8134

> <Gold.Chemscore.Metal.Weighted>
-0.0000

> <Gold.Chemscore.Lipo.Weighted>
-8.6947

> <Gold.Chemscore.Internal_Hbond.Weighted>
0.0000

> <Gold.Chemscore.DEClash.Weighted>
1.4420

> <Gold.Chemscore.DEInternal.Weighted>
3.5044

> <Gold.Chemscore.Rot.Weighted>
10.6167

> <Gold.Chemscore.Internal.Correction.Weighted>
   9.000000E+99

> <Gold.Protein.RotatedTorsions>
[ 6907 6896 6895 6894 ] final  -18.55 input  -60.11 | X-H torsion
[ 7974 7965 7964 7962 ] final  135.85 input  175.53 | X-H torsion
[ 8008 7997 7996 7995 ] final    2.86 input   59.86 | X-H torsion
[ 10167 10162 10161 10158 ] final  168.07 input  -65.29 | X-H torsion
[ 10718 10713 10712 10709 ] final   15.66 input   66.30 | X-H torsion
[ 10763 10752 10751 10750 ] final -133.83 input  -60.55 | X-H torsion
[ 11005 11000 10999 10996 ] final -171.48 input  -57.11 | X-H torsion

> <Gold.Protein.ActiveResidues>
 VAL166  LYS551  ARG553  GLY616  TRP617  ASP618  TYR619  PRO620  LYS621  CYS622 
 ASP623  PHE694  ASN695  SER759  ASP760  ASP761  ALA762  ILE779  LEU786  VAL792 
 PHE793  MET794  SER795  GLU796  ALA797  LYS798  CYS799  TRP800  GLU811  SER814 

> <Gold.Protein.RotatedAtoms>
  151.2765  135.0701  159.9153 H   0  0  0  0  0  0  0  0  0  0  0  0  # atno 6907 bound_to 6896
  152.5341  134.0075  159.7933 H   0  0  0  0  0  0  0  0  0  0  0  0  # atno 6908 bound_to 6896
  151.0322  133.5730  159.2690 H   0  0  0  0  0  0  0  0  0  0  0  0  # atno 6909 bound_to 6896
  144.9623  139.4697  143.5473 H   0  0  0  0  0  0  0  0  0  0  0  0  # atno 7974 bound_to 7965
  154.6966  140.2664  155.6760 H   0  0  0  0  0  0  0  0  0  0  0  0  # atno 8008 bound_to 7997
  156.2751  140.2780  156.1486 H   0  0  0  0  0  0  0  0  0  0  0  0  # atno 8009 bound_to 7997
  155.0822  140.0372  157.2633 H   0  0  0  0  0  0  0  0  0  0  0  0  # atno 8010 bound_to 7997
  139.4959  144.3854  151.9576 H   0  0  0  0  0  0  0  0  0  0  0  0  # atno 10167 bound_to 10162
  157.0567  130.6292  149.5778 H   0  0  0  0  0  0  0  0  0  0  0  0  # atno 10718 bound_to 10713
  154.8727  135.3754  154.4636 H   0  0  0  0  0  0  0  0  0  0  0  0  # atno 10763 bound_to 10752
  153.5302  135.7028  153.5692 H   0  0  0  0  0  0  0  0  0  0  0  0  # atno 10764 bound_to 10752
  153.3900  135.3974  155.1882 H   0  0  0  0  0  0  0  0  0  0  0  0  # atno 10765 bound_to 10752
  140.5078  134.5831  157.5009 H   0  0  0  0  0  0  0  0  0  0  0  0  # atno 11005 bound_to 11000
  146.3357  139.8780  142.8829 LP  0  0  0  0  0  0  0  0  0  0  0  0  # atno 17320 bound_to 7965
  145.2682  141.0100  143.3787 LP  0  0  0  0  0  0  0  0  0  0  0  0  # atno 17321 bound_to 7965
  140.3291  144.3337  150.5991 LP  0  0  0  0  0  0  0  0  0  0  0  0  # atno 17342 bound_to 10162
  140.5660  143.2186  151.7683 LP  0  0  0  0  0  0  0  0  0  0  0  0  # atno 17343 bound_to 10162
  155.9991  130.5066  150.7594 LP  0  0  0  0  0  0  0  0  0  0  0  0  # atno 17370 bound_to 10713
  157.4987  131.0917  151.0340 LP  0  0  0  0  0  0  0  0  0  0  0  0  # atno 17371 bound_to 10713
  139.9676  134.7346  156.0106 LP  0  0  0  0  0  0  0  0  0  0  0  0  # atno 17394 bound_to 11000
  141.1402  133.6566  156.3707 LP  0  0  0  0  0  0  0  0  0  0  0  0  # atno 17395 bound_to 11000

$$$$
