AV-unprocessed.smi:2531|AV-procd|sdf|9964|dock10
  -GOLD-   2272014 03D 1   1.00000     0.00000
 Structure written by MMmdl.
 46 48  0  0  0  0  0  0  0  0  1 V2000
  150.0670  142.7772  158.8125 O   0  0  0  0  0  0  0  0  0  0  0  0
  151.1577  142.3485  158.4334 C   0  0  0  0  0  0  0  0  0  0  0  0
  152.4763  143.0503  158.8318 C   0  0  0  0  0  0  0  0  0  0  0  0
  152.6366  143.2550  160.3480 C   0  0  0  0  0  0  0  0  0  0  0  0
  151.9178  144.5715  160.6723 C   0  0  0  0  0  0  0  0  0  0  0  0
  151.8415  145.3548  159.3529 C   0  0  0  0  0  0  0  0  0  0  0  0
  152.5457  144.4901  158.2994 C   0  0  0  0  0  0  0  0  0  0  0  0
  151.2513  141.1649  157.6948 N   0  0  0  0  0  0  0  0  0  0  0  0
  152.3073  140.1908  157.9266 C   0  0  0  0  0  0  0  0  0  0  0  0
  151.2984  139.1498  157.4283 C   0  0  0  0  0  0  0  0  0  0  0  0
  151.2590  137.6336  158.4834 S   0  0  0  0  0  0  0  0  0  0  0  0
  151.1632  136.4582  157.6040 O   0  0  0  0  0  0  0  0  0  0  0  0
  152.3185  137.7016  159.5016 O   0  0  0  0  0  0  0  0  0  0  0  0
  149.7505  137.7934  159.3003 N   0  0  0  0  0  0  0  0  0  0  0  0
  148.5465  137.3507  158.6000 C   0  0  0  0  0  0  0  0  0  0  0  0
  148.2317  135.8905  158.9516 C   0  0  0  0  0  0  0  0  0  0  0  0
  147.8359  135.7235  160.4064 C   0  0  0  0  0  0  0  0  0  0  0  0
  147.5859  134.4424  160.9434 C   0  0  0  0  0  0  0  0  0  0  0  0
  147.2283  134.3429  162.3021 C   0  0  0  0  0  0  0  0  0  0  0  0
  147.1363  135.5213  163.0675 C   0  0  0  0  0  0  0  0  0  0  0  0
  147.4072  136.7524  162.4377 C   0  0  0  0  0  0  0  0  0  0  0  0
  147.7503  136.8591  161.1358 N   0  0  0  0  0  0  0  0  0  0  0  0
  150.1903  140.1697  157.7263 C   0  0  0  0  0  0  0  0  0  0  0  0
  153.3100  142.4570  158.4557 H   0  0  0  0  0  0  0  0  0  0  0  0
  152.2668  142.4222  160.9480 H   0  0  0  0  0  0  0  0  0  0  0  0
  153.6975  143.3574  160.5805 H   0  0  0  0  0  0  0  0  0  0  0  0
  150.9113  144.3711  161.0418 H   0  0  0  0  0  0  0  0  0  0  0  0
  152.4441  145.1289  161.4478 H   0  0  0  0  0  0  0  0  0  0  0  0
  150.7974  145.5050  159.0759 H   0  0  0  0  0  0  0  0  0  0  0  0
  152.3019  146.3399  159.4333 H   0  0  0  0  0  0  0  0  0  0  0  0
  153.5908  144.7915  158.2196 H   0  0  0  0  0  0  0  0  0  0  0  0
  152.1044  144.6152  157.3096 H   0  0  0  0  0  0  0  0  0  0  0  0
  153.1814  140.3190  157.2875 H   0  0  0  0  0  0  0  0  0  0  0  0
  152.5675  140.0704  158.9802 H   0  0  0  0  0  0  0  0  0  0  0  0
  151.4192  138.9080  156.3710 H   0  0  0  0  0  0  0  0  0  0  0  0
  149.8002  137.3799  160.2311 H   0  0  0  0  0  0  0  0  0  0  0  0
  147.7125  137.9974  158.8745 H   0  0  0  0  0  0  0  0  0  0  0  0
  148.7020  137.4577  157.5257 H   0  0  0  0  0  0  0  0  0  0  0  0
  147.4220  135.5191  158.3215 H   0  0  0  0  0  0  0  0  0  0  0  0
  149.0976  135.2611  158.7409 H   0  0  0  0  0  0  0  0  0  0  0  0
  147.6672  133.5560  160.3316 H   0  0  0  0  0  0  0  0  0  0  0  0
  147.0294  133.3801  162.7490 H   0  0  0  0  0  0  0  0  0  0  0  0
  146.8655  135.4829  164.1124 H   0  0  0  0  0  0  0  0  0  0  0  0
  147.3469  137.6760  162.9942 H   0  0  0  0  0  0  0  0  0  0  0  0
  149.7263  140.0665  158.7086 H   0  0  0  0  0  0  0  0  0  0  0  0
  149.4560  140.2852  156.9288 H   0  0  0  0  0  0  0  0  0  0  0  0
  1  2  2  0  0  0  0
  2  3  1  0  0  0  0
  2  8  1  0  0  0  0
  3  7  1  0  0  0  0
  3  4  1  0  0  0  0
  3 24  1  0  0  0  0
  4  5  1  0  0  0  0
  4 25  1  0  0  0  0
  4 26  1  0  0  0  0
  5  6  1  0  0  0  0
  5 27  1  0  0  0  0
  5 28  1  0  0  0  0
  6  7  1  0  0  0  0
  6 29  1  0  0  0  0
  6 30  1  0  0  0  0
  7 31  1  0  0  0  0
  7 32  1  0  0  0  0
  8 23  1  0  0  0  0
  8  9  1  0  0  0  0
  9 10  1  0  0  0  0
  9 33  1  0  0  0  0
  9 34  1  0  0  0  0
 10 11  1  0  0  0  0
 10 23  1  0  0  0  0
 10 35  1  0  0  0  0
 11 12  2  0  0  0  0
 11 13  2  0  0  0  0
 11 14  1  0  0  0  0
 14 15  1  0  0  0  0
 14 36  1  0  0  0  0
 15 16  1  0  0  0  0
 15 37  1  0  0  0  0
 15 38  1  0  0  0  0
 16 17  1  0  0  0  0
 16 39  1  0  0  0  0
 16 40  1  0  0  0  0
 17 22  1  0  0  0  0
 17 18  2  0  0  0  0
 18 19  1  0  0  0  0
 18 41  1  0  0  0  0
 19 20  2  0  0  0  0
 19 42  1  0  0  0  0
 20 21  1  0  0  0  0
 20 43  1  0  0  0  0
 21 22  2  0  0  0  0
 21 44  1  0  0  0  0
 23 45  1  0  0  0  0
 23 46  1  0  0  0  0
M  END
> <s_m_source_file>
AV-unprocessed.smi

> <i_m_source_file_index>
2531

> <i_lp_mmshare_version>
43012

> <i_f3d_flags>
0

> <s_epik_input>
W0NIMl0xW0NIMl1bQ0gyXVtDSDJdW0NIXTFDKD1PKU4yW0NIMl1bQ0hdKFtDSDJdMilTKD1PKSg9TylbTkhdW0NIMl1bQ0gyXWMzW2NIXVtjSF1bY0hdW2NIXW4z

> <s_epik_cmdline>
J2VwaWtfcHl0aG9uJywgJy1waCcsICc3LjAnLCAnLXRuJywgJzgnLCAnLW1hJywgJzIwMCcsICctbWV0YWxfYmluZGluZycsICctaW1hZScsICc8aW5maWxlLm1hZT4nLCAnLW9tYWUnLCAnPG91dGZpbGUubWFlPic=

> <r_epik_Ionization_Penalty>
0.0203172

> <r_epik_Ionization_Penalty_Charging>
0

> <r_epik_Ionization_Penalty_Neutral>
0.0203172

> <r_epik_State_Penalty>
0.0162494

> <r_epik_Charging_Adjusted_Penalty>
0.0162494

> <i_epik_Tot_Q>
0

> <i_epik_Tot_abs_Q>
0

> <r_epik_Metal_State_Penalty>
0.0444853

> <b_epik_Metal_Only>
0

> <s_lp_Force_Field>
OPLS_2005

> <r_lp_Energy>
30.9959

> <b_lp_Chiralities_Consistent>
1

> <s_lp_Variant>
AV-unprocessed.smi:2531-1

> <Gold.Version>
5.8.1

> <Gold.Id.Protein>
6NUR|6NUR_protein|mol2

> <Gold.PLP.Fitness>
55.0329

> <Gold.PLP.PLP>
-53.5445

> <Gold.PLP.part.hbond>
-3.8591

> <Gold.PLP.part.metal>
0.0000

> <Gold.PLP.part.buried>
-6.5746

> <Gold.PLP.part.nonpolar>
-43.8391

> <Gold.PLP.part.repulsive>
0.1001

> <Gold.PLP.ligand.clash>
0.0000

> <Gold.PLP.ligand.torsion>
1.5135

> <Gold.PLP.Chemscore.Hbond>
0.9449

> <Gold.PLP.Chemscore.CHOScore>
0.0000

> <Gold.PLP.Chemscore.Metal>
0.0000

> <Gold.Chemscore.Hbonds>
donor molecule, donor type, donor heavy atom, donor atom, acceptor molecule, acceptor atom, score
      P1  H  6931  6943       L1    22  0.05
      P1  H  6934  6947       L1    22  0.33

> <Gold.PLP.Chemscore.Internal.Correction>
1.6807

> <Gold.Rescore>
     Score         DG    S(hbond)    S(metal)    S(lipo)     H(rot)  DE(clash)    DE(int)     intcor
     14.02     -16.94       0.31        0.00     129.58       1.85       0.09       2.83       ----

> <Gold.Chemscore.Fitness>
14.0246

> <Gold.Chemscore.DG>
-16.9408

> <Gold.Chemscore.ZeroCoef>
-5.4800

> <Gold.Chemscore.Hbond>
0.3096

> <Gold.Chemscore.Metal>
0.0000

> <Gold.Chemscore.Lipo>
129.5827

> <Gold.Chemscore.Internal_Hbond>
0.0000

> <Gold.Chemscore.DEClash>
0.0888

> <Gold.Chemscore.DEInternal>
2.8275

> <Gold.Chemscore.Rot>
1.8494

> <Gold.Chemscore.Internal.Correction>
   9.000000E+99

> <Gold.Chemscore.Hbonds>
donor molecule, donor type, donor heavy atom, donor atom, acceptor molecule, acceptor atom, score
      P1  H  6934  6947       L1    22  0.05

> <Gold.Chemscore.Hbond.Weighted>
-1.0342

> <Gold.Chemscore.Metal.Weighted>
-0.0000

> <Gold.Chemscore.Lipo.Weighted>
-15.1612

> <Gold.Chemscore.Internal_Hbond.Weighted>
0.0000

> <Gold.Chemscore.DEClash.Weighted>
0.0888

> <Gold.Chemscore.DEInternal.Weighted>
2.8275

> <Gold.Chemscore.Rot.Weighted>
4.7346

> <Gold.Chemscore.Internal.Correction.Weighted>
   9.000000E+99

> <Gold.Protein.RotatedTorsions>
[ 6907 6896 6895 6894 ] final   64.69 input  -60.11 | X-H torsion
[ 7974 7965 7964 7962 ] final  -21.17 input  175.53 | X-H torsion
[ 8008 7997 7996 7995 ] final  172.88 input   59.86 | X-H torsion
[ 10167 10162 10161 10158 ] final  173.14 input  -65.29 | X-H torsion
[ 10718 10713 10712 10709 ] final   88.74 input   66.30 | X-H torsion
[ 10763 10752 10751 10750 ] final   99.59 input  -60.55 | X-H torsion
[ 11005 11000 10999 10996 ] final  121.26 input  -57.11 | X-H torsion

> <Gold.Protein.ActiveResidues>
 VAL166  LYS551  ARG553  GLY616  TRP617  ASP618  TYR619  PRO620  LYS621  CYS622 
 ASP623  PHE694  ASN695  SER759  ASP760  ASP761  ALA762  ILE779  LEU786  VAL792 
 PHE793  MET794  SER795  GLU796  ALA797  LYS798  CYS799  TRP800  GLU811  SER814 

> <Gold.Protein.RotatedAtoms>
  152.4351  134.5703  159.9918 H   0  0  0  0  0  0  0  0  0  0  0  0  # atno 6907 bound_to 6896
  151.5815  133.3371  159.3017 H   0  0  0  0  0  0  0  0  0  0  0  0  # atno 6908 bound_to 6896
  150.8248  134.7508  159.6868 H   0  0  0  0  0  0  0  0  0  0  0  0  # atno 6909 bound_to 6896
  146.1748  140.4304  142.8518 H   0  0  0  0  0  0  0  0  0  0  0  0  # atno 7974 bound_to 7965
  156.1130  140.1474  156.9311 H   0  0  0  0  0  0  0  0  0  0  0  0  # atno 8008 bound_to 7997
  154.4780  140.0888  156.7353 H   0  0  0  0  0  0  0  0  0  0  0  0  # atno 8009 bound_to 7997
  155.4562  140.3436  155.4309 H   0  0  0  0  0  0  0  0  0  0  0  0  # atno 8010 bound_to 7997
  139.5099  144.3294  152.0126 H   0  0  0  0  0  0  0  0  0  0  0  0  # atno 10167 bound_to 10162
  157.6951  131.0306  150.3320 H   0  0  0  0  0  0  0  0  0  0  0  0  # atno 10718 bound_to 10713
  153.3033  135.4108  155.1272 H   0  0  0  0  0  0  0  0  0  0  0  0  # atno 10763 bound_to 10752
  154.8555  135.3546  154.5822 H   0  0  0  0  0  0  0  0  0  0  0  0  # atno 10764 bound_to 10752
  153.6248  135.7063  153.5355 H   0  0  0  0  0  0  0  0  0  0  0  0  # atno 10765 bound_to 10752
  139.9218  134.9638  156.7931 H   0  0  0  0  0  0  0  0  0  0  0  0  # atno 11005 bound_to 11000
  144.8218  140.6563  143.6348 LP  0  0  0  0  0  0  0  0  0  0  0  0  # atno 17320 bound_to 7965
  145.4242  139.1559  143.4057 LP  0  0  0  0  0  0  0  0  0  0  0  0  # atno 17321 bound_to 7965
  140.2734  144.3939  150.6143 LP  0  0  0  0  0  0  0  0  0  0  0  0  # atno 17342 bound_to 10162
  140.6071  143.2168  151.6959 LP  0  0  0  0  0  0  0  0  0  0  0  0  # atno 17343 bound_to 10162
  156.3792  130.3877  149.7115 LP  0  0  0  0  0  0  0  0  0  0  0  0  # atno 17370 bound_to 10713
  156.4503  130.7903  151.2924 LP  0  0  0  0  0  0  0  0  0  0  0  0  # atno 17371 bound_to 10713
  140.6451  133.9783  155.7727 LP  0  0  0  0  0  0  0  0  0  0  0  0  # atno 17394 bound_to 11000
  141.0745  134.0155  157.3477 LP  0  0  0  0  0  0  0  0  0  0  0  0  # atno 17395 bound_to 11000

$$$$
