AV-unprocessed.smi:1633|AV-procd|sdf|6534|dock6
  -GOLD-   22720 7213D 1   1.00000     0.00000
 Structure written by MMmdl.
 52 54  0  0  0  0  0  0  0  0  3 V2000
  148.1812  132.2556  157.1360 C   0  0  0  0  0  0  0  0  0  0  0  0
  149.4675  132.9995  156.7703 C   0  0  0  0  0  0  0  0  0  0  0  0
  150.4668  132.8002  157.4604 O   0  0  0  0  0  0  0  0  0  0  0  0
  149.4673  133.8451  155.7119 N   0  0  0  0  0  0  0  0  0  0  0  0
  150.6415  134.6316  155.3233 C   0  0  0  0  0  0  0  0  0  0  0  0
  150.3437  136.1262  155.5401 C   0  0  0  0  0  0  0  0  0  0  0  0
  149.1167  136.5479  154.8130 N   0  3  0  0  0  0  0  0  0  0  0  0
  148.8319  137.9962  154.9842 C   0  0  0  0  0  0  0  0  0  0  0  0
  149.9560  138.8988  154.4357 C   0  0  2  0  0  0  0  0  0  0  0  0
  150.6123  138.2159  153.3855 O   0  0  0  0  0  0  0  0  0  0  0  0
  150.9775  139.2651  155.5308 C   0  0  0  0  0  0  0  0  0  0  0  0
  150.7737  140.6154  156.0766 N   0  0  0  0  0  0  0  0  0  0  0  0
  149.9991  141.6322  155.6086 C   0  0  0  0  0  0  0  0  0  0  0  0
  150.1365  142.6821  156.4647 N   0  3  0  0  0  0  0  0  0  0  0  0
  151.0099  142.3315  157.4961 C   0  0  0  0  0  0  0  0  0  0  0  0
  151.4597  143.0574  158.5925 C   0  0  0  0  0  0  0  0  0  0  0  0
  152.3595  142.4106  159.4690 C   0  0  0  0  0  0  0  0  0  0  0  0
  152.8759  143.1784  160.6741 C   0  0  0  0  0  0  0  0  0  0  0  0
  152.7753  141.0747  159.2331 C   0  0  0  0  0  0  0  0  0  0  0  0
  153.7420  140.3886  160.1833 C   0  0  0  0  0  0  0  0  0  0  0  0
  152.3048  140.3527  158.1128 C   0  0  0  0  0  0  0  0  0  0  0  0
  151.4211  141.0057  157.2561 C   0  0  0  0  0  0  0  0  0  0  0  0
  147.9496  135.6695  155.1039 C   0  0  0  0  0  0  0  0  0  0  0  0
  148.2994  134.1851  154.8931 C   0  0  0  0  0  0  0  0  0  0  0  0
  147.3834  132.9574  157.3807 H   0  0  0  0  0  0  0  0  0  0  0  0
  148.3407  131.6177  158.0062 H   0  0  0  0  0  0  0  0  0  0  0  0
  147.8551  131.6186  156.3133 H   0  0  0  0  0  0  0  0  0  0  0  0
  151.5418  134.3541  155.8734 H   0  0  0  0  0  0  0  0  0  0  0  0
  150.8658  134.4423  154.2725 H   0  0  0  0  0  0  0  0  0  0  0  0
  150.2195  136.3283  156.6056 H   0  0  0  0  0  0  0  0  0  0  0  0
  151.1945  136.7183  155.2007 H   0  0  0  0  0  0  0  0  0  0  0  0
  147.8807  138.2348  154.5061 H   0  0  0  0  0  0  0  0  0  0  0  0
  148.7018  138.2170  156.0450 H   0  0  0  0  0  0  0  0  0  0  0  0
  149.5408  139.8224  154.0334 H   0  0  0  0  0  0  0  0  0  0  0  0
  150.0260  137.5592  153.0410 H   0  0  0  0  0  0  0  0  0  0  0  0
  150.8887  138.5691  156.3658 H   0  0  0  0  0  0  0  0  0  0  0  0
  152.0016  139.1732  155.1680 H   0  0  0  0  0  0  0  0  0  0  0  0
  149.3841  141.6107  154.7203 H   0  0  0  0  0  0  0  0  0  0  0  0
  151.1378  144.0738  158.7672 H   0  0  0  0  0  0  0  0  0  0  0  0
  152.5652  142.6920  161.5991 H   0  0  0  0  0  0  0  0  0  0  0  0
  152.4950  144.2000  160.6900 H   0  0  0  0  0  0  0  0  0  0  0  0
  153.9647  143.2307  160.6586 H   0  0  0  0  0  0  0  0  0  0  0  0
  153.9168  139.3515  159.8955 H   0  0  0  0  0  0  0  0  0  0  0  0
  153.3471  140.3881  161.1996 H   0  0  0  0  0  0  0  0  0  0  0  0
  154.7042  140.9015  160.1847 H   0  0  0  0  0  0  0  0  0  0  0  0
  152.6270  139.3378  157.9337 H   0  0  0  0  0  0  0  0  0  0  0  0
  147.6244  135.8280  156.1336 H   0  0  0  0  0  0  0  0  0  0  0  0
  147.1084  135.9288  154.4625 H   0  0  0  0  0  0  0  0  0  0  0  0
  148.5396  134.0058  153.8439 H   0  0  0  0  0  0  0  0  0  0  0  0
  147.4239  133.5711  155.0992 H   0  0  0  0  0  0  0  0  0  0  0  0
  149.3295  136.4221  153.8331 H   0  0  0  0  0  0  0  0  0  0  0  0
  149.6655  143.5709  156.3526 H   0  0  0  0  0  0  0  0  0  0  0  0
  1  2  1  0  0  0  0
  1 25  1  0  0  0  0
  1 26  1  0  0  0  0
  1 27  1  0  0  0  0
  2  3  2  0  0  0  0
  2  4  1  0  0  0  0
  4 24  1  0  0  0  0
  4  5  1  0  0  0  0
  5  6  1  0  0  0  0
  5 28  1  0  0  0  0
  5 29  1  0  0  0  0
  6  7  1  0  0  0  0
  6 30  1  0  0  0  0
  6 31  1  0  0  0  0
  7  8  1  0  0  0  0
  7 23  1  0  0  0  0
  7 51  1  0  0  0  0
  8  9  1  0  0  0  0
  8 32  1  0  0  0  0
  8 33  1  0  0  0  0
  9 10  1  0  0  0  0
  9 11  1  0  0  0  0
  9 34  1  0  0  0  0
 10 35  1  0  0  0  0
 11 12  1  0  0  0  0
 11 36  1  0  0  0  0
 11 37  1  0  0  0  0
 12 22  1  0  0  0  0
 12 13  1  0  0  0  0
 13 14  2  0  0  0  0
 13 38  1  0  0  0  0
 14 15  1  0  0  0  0
 14 52  1  0  0  0  0
 15 22  2  0  0  0  0
 15 16  1  0  0  0  0
 16 17  2  0  0  0  0
 16 39  1  0  0  0  0
 17 18  1  0  0  0  0
 17 19  1  0  0  0  0
 18 40  1  0  0  0  0
 18 41  1  0  0  0  0
 18 42  1  0  0  0  0
 19 20  1  0  0  0  0
 19 21  2  0  0  0  0
 20 43  1  0  0  0  0
 20 44  1  0  0  0  0
 20 45  1  0  0  0  0
 21 22  1  0  0  0  0
 21 46  1  0  0  0  0
 23 24  1  0  0  0  0
 23 47  1  0  0  0  0
 23 48  1  0  0  0  0
 24 49  1  0  0  0  0
 24 50  1  0  0  0  0
M  CHG  1   7   1
M  CHG  1  14   1
M  END
> <s_m_source_file>
AV-unprocessed.smi

> <i_m_source_file_index>
1633

> <i_lp_mmshare_version>
43012

> <i_f3d_flags>
0

> <s_epik_input>
W0NIM11DKD1PKU4xW0NIMl1bQ0gyXU4oW0NIMl1bQ0gyXTEpW0NIMl1bQ0BIXShbT0hdKVtDSDJdbihbY0hdbjIpYyhjMjMpW2NIXWMoW0NIM10pYyhbY0hdMylbQ0gzXQ==

> <s_epik_cmdline>
J2VwaWtfcHl0aG9uJywgJy1waCcsICc3LjAnLCAnLXRuJywgJzgnLCAnLW1hJywgJzIwMCcsICctbWV0YWxfYmluZGluZycsICctaW1hZScsICc8aW5maWxlLm1hZT4nLCAnLW9tYWUnLCAnPG91dGZpbGUubWFlPic=

> <r_epik_Ionization_Penalty>
1.18448

> <r_epik_Ionization_Penalty_Charging>
1.18447

> <r_epik_Ionization_Penalty_Neutral>
4.53746e-06

> <r_epik_State_Penalty>
1.28566

> <r_epik_Charging_Adjusted_Penalty>
2.47013

> <i_epik_Tot_Q>
2

> <i_epik_Tot_abs_Q>
2

> <r_epik_Metal_State_Penalty>
5.30076

> <b_epik_Metal_Only>
0

> <s_lp_Force_Field>
OPLS_2005

> <r_lp_Energy>
52.9318

> <b_lp_Chiralities_Consistent>
1

> <s_lp_Variant>
AV-unprocessed.smi:1633-3

> <Gold.Version>
5.8.1

> <Gold.Id.Protein>
6NUR|6NUR_protein|mol2

> <Gold.PLP.Fitness>
56.9326

> <Gold.PLP.PLP>
-41.2694

> <Gold.PLP.part.hbond>
-5.9561

> <Gold.PLP.part.metal>
0.0000

> <Gold.PLP.part.buried>
-4.1830

> <Gold.PLP.part.nonpolar>
-33.4155

> <Gold.PLP.part.repulsive>
0.0742

> <Gold.PLP.ligand.clash>
0.0000

> <Gold.PLP.ligand.torsion>
1.1844

> <Gold.PLP.Chemscore.Hbond>
6.0000

> <Gold.PLP.Chemscore.CHOScore>
0.0000

> <Gold.PLP.Chemscore.Metal>
0.0000

> <Gold.Chemscore.Hbonds>
donor molecule, donor type, donor heavy atom, donor atom, acceptor molecule, acceptor atom, score
      L1  H     7    51       P1  7948  2.00
      L1  H    10    35       P1  7948  0.95
      L1  H    14    52       P1  8028  2.00
      P1  H  6896  6907       L1     3  1.00

> <Gold.PLP.Chemscore.Internal.Correction>
0.0318

> <Gold.Rescore>
     Score         DG    S(hbond)    S(metal)    S(lipo)     H(rot)  DE(clash)    DE(int)     intcor
     21.78     -23.02       3.39        0.00     101.64       2.22       0.09       1.15       ----

> <Gold.Chemscore.Fitness>
21.7843

> <Gold.Chemscore.DG>
-23.0175

> <Gold.Chemscore.ZeroCoef>
-5.4800

> <Gold.Chemscore.Hbond>
3.3901

> <Gold.Chemscore.Metal>
0.0000

> <Gold.Chemscore.Lipo>
101.6414

> <Gold.Chemscore.Internal_Hbond>
0.0000

> <Gold.Chemscore.DEClash>
0.0861

> <Gold.Chemscore.DEInternal>
1.1471

> <Gold.Chemscore.Rot>
2.2178

> <Gold.Chemscore.Internal.Correction>
   9.000000E+99

> <Gold.Chemscore.Hbonds>
donor molecule, donor type, donor heavy atom, donor atom, acceptor molecule, acceptor atom, score
      L1  H     7    51       P1  7948  0.87
      L1  H    10    35       P1  7948  0.20
      L1  H    14    52       P1  8028  0.95
      P1  H  6896  6907       L1     3  0.96

> <Gold.Chemscore.Hbond.Weighted>
-11.3230

> <Gold.Chemscore.Metal.Weighted>
-0.0000

> <Gold.Chemscore.Lipo.Weighted>
-11.8920

> <Gold.Chemscore.Internal_Hbond.Weighted>
0.0000

> <Gold.Chemscore.DEClash.Weighted>
0.0861

> <Gold.Chemscore.DEInternal.Weighted>
1.1471

> <Gold.Chemscore.Rot.Weighted>
5.6775

> <Gold.Chemscore.Internal.Correction.Weighted>
   9.000000E+99

> <Gold.Protein.RotatedTorsions>
[ 6907 6896 6895 6894 ] final -153.55 input  -60.11 | X-H torsion
[ 7974 7965 7964 7962 ] final -132.45 input  175.53 | X-H torsion
[ 8008 7997 7996 7995 ] final -115.50 input   59.86 | X-H torsion
[ 10167 10162 10161 10158 ] final    9.88 input  -65.29 | X-H torsion
[ 10718 10713 10712 10709 ] final  166.00 input   66.30 | X-H torsion
[ 10763 10752 10751 10750 ] final  -97.64 input  -60.55 | X-H torsion
[ 11005 11000 10999 10996 ] final  143.25 input  -57.11 | X-H torsion

> <Gold.Protein.ActiveResidues>
 VAL166  LYS551  ARG553  GLY616  TRP617  ASP618  TYR619  PRO620  LYS621  CYS622 
 ASP623  PHE694  ASN695  SER759  ASP760  ASP761  ALA762  ILE779  LEU786  VAL792 
 PHE793  MET794  SER795  GLU796  ALA797  LYS798  CYS799  TRP800  GLU811  SER814 

> <Gold.Protein.RotatedAtoms>
  151.2443  133.4383  159.2608 H   0  0  0  0  0  0  0  0  0  0  0  0  # atno 6907 bound_to 6896
  151.0676  134.9778  159.8302 H   0  0  0  0  0  0  0  0  0  0  0  0  # atno 6908 bound_to 6896
  152.5407  134.2390  159.8907 H   0  0  0  0  0  0  0  0  0  0  0  0  # atno 6909 bound_to 6896
  144.9284  140.7099  143.4921 H   0  0  0  0  0  0  0  0  0  0  0  0  # atno 7974 bound_to 7965
  155.0530  140.0393  157.2550 H   0  0  0  0  0  0  0  0  0  0  0  0  # atno 8008 bound_to 7997
  154.7122  140.2695  155.6595 H   0  0  0  0  0  0  0  0  0  0  0  0  # atno 8009 bound_to 7997
  156.2793  140.2719  156.1767 H   0  0  0  0  0  0  0  0  0  0  0  0  # atno 8010 bound_to 7997
  140.6228  143.8166  150.7196 H   0  0  0  0  0  0  0  0  0  0  0  0  # atno 10167 bound_to 10162
  157.0721  131.0369  151.2608 H   0  0  0  0  0  0  0  0  0  0  0  0  # atno 10718 bound_to 10713
  154.7345  135.5039  153.9019 H   0  0  0  0  0  0  0  0  0  0  0  0  # atno 10763 bound_to 10752
  153.0982  135.6678  153.9731 H   0  0  0  0  0  0  0  0  0  0  0  0  # atno 10764 bound_to 10752
  153.9524  135.3056  155.3417 H   0  0  0  0  0  0  0  0  0  0  0  0  # atno 10765 bound_to 10752
  140.0539  134.9241  157.1066 H   0  0  0  0  0  0  0  0  0  0  0  0  # atno 11005 bound_to 11000
  145.3182  139.1797  143.4602 LP  0  0  0  0  0  0  0  0  0  0  0  0  # atno 17320 bound_to 7965
  146.3236  140.3196  142.8632 LP  0  0  0  0  0  0  0  0  0  0  0  0  # atno 17321 bound_to 7965
  140.1760  143.4154  152.1967 LP  0  0  0  0  0  0  0  0  0  0  0  0  # atno 17342 bound_to 10162
  139.5454  144.7293  151.4601 LP  0  0  0  0  0  0  0  0  0  0  0  0  # atno 17343 bound_to 10162
  157.4870  130.7799  149.7469 LP  0  0  0  0  0  0  0  0  0  0  0  0  # atno 17370 bound_to 10713
  155.9947  130.3916  150.2846 LP  0  0  0  0  0  0  0  0  0  0  0  0  # atno 17371 bound_to 10713
  140.3874  134.2222  155.7168 LP  0  0  0  0  0  0  0  0  0  0  0  0  # atno 17394 bound_to 11000
  141.1943  133.8131  157.0762 LP  0  0  0  0  0  0  0  0  0  0  0  0  # atno 17395 bound_to 11000

$$$$
