AV-unprocessed.smi:139|AV-procd|sdf|1181|dock5
  -GOLD-   2262018333D 1   1.00000     0.00000
 Structure written by MMmdl.
 50 53  0  0  0  0  0  0  0  0  1 V2000
  150.0104  137.0246  156.8650 O   0  0  0  0  0  0  0  0  0  0  0  0
  149.9179  137.0353  155.6368 C   0  0  0  0  0  0  0  0  0  0  0  0
  150.8453  137.9132  154.7830 C   0  0  0  0  0  0  0  0  0  0  0  0
  150.5730  139.3603  154.9219 N   0  0  0  0  0  0  0  0  0  0  0  0
  149.5632  139.9476  154.1199 C   0  0  0  0  0  0  0  0  0  0  0  0
  148.9069  139.2748  153.3237 O   0  0  0  0  0  0  0  0  0  0  0  0
  149.3714  141.3821  154.3005 C   0  0  0  0  0  0  0  0  0  0  0  0
  148.4348  142.0238  153.5815 F   0  0  0  0  0  0  0  0  0  0  0  0
  150.1219  142.0797  155.1781 C   0  0  0  0  0  0  0  0  0  0  0  0
  151.1054  141.4930  155.9548 N   0  0  0  0  0  0  0  0  0  0  0  0
  151.9531  142.2931  156.9219 C   0  0  2  0  0  0  0  0  0  0  0  0
  151.7469  141.7960  158.3657 C   0  0  0  0  0  0  0  0  0  0  0  0
  151.4244  143.0724  159.1174 C   0  0  0  0  0  0  0  0  0  0  0  0
  150.7675  143.9169  158.0364 C   0  0  0  0  0  0  0  0  0  0  0  0
  151.5665  143.6377  156.8944 O   0  0  0  0  0  0  0  0  0  0  0  0
  151.3579  140.1096  155.8305 C   0  0  0  0  0  0  0  0  0  0  0  0
  152.2446  139.5711  156.4973 O   0  0  0  0  0  0  0  0  0  0  0  0
  149.0296  136.2961  154.9556 N   0  0  0  0  0  0  0  0  0  0  0  0
  148.0194  135.4123  155.5339 C   0  0  2  0  0  0  0  0  0  0  0  0
  148.6557  134.5241  156.6198 C   0  0  0  0  0  0  0  0  0  0  0  0
  149.3355  133.2860  156.0281 C   0  0  0  0  0  0  0  0  0  0  0  0
  148.3318  132.4243  155.2534 C   0  0  0  0  0  0  0  0  0  0  0  0
  147.4659  133.2258  154.2938 C   0  0  0  0  0  0  0  0  0  0  0  0
  146.7993  132.5484  153.2512 C   0  0  0  0  0  0  0  0  0  0  0  0
  145.9844  133.2555  152.3473 C   0  0  0  0  0  0  0  0  0  0  0  0
  145.8303  134.6472  152.4820 C   0  0  0  0  0  0  0  0  0  0  0  0
  146.4899  135.3296  153.5213 C   0  0  0  0  0  0  0  0  0  0  0  0
  147.3075  134.6288  154.4348 C   0  0  0  0  0  0  0  0  0  0  0  0
  151.8767  137.6716  155.0432 H   0  0  0  0  0  0  0  0  0  0  0  0
  150.7590  137.6098  153.7380 H   0  0  0  0  0  0  0  0  0  0  0  0
  149.9315  143.1388  155.2591 H   0  0  0  0  0  0  0  0  0  0  0  0
  152.9785  142.2024  156.5590 H   0  0  0  0  0  0  0  0  0  0  0  0
  150.9041  141.1043  158.4117 H   0  0  0  0  0  0  0  0  0  0  0  0
  152.6396  141.2927  158.7378 H   0  0  0  0  0  0  0  0  0  0  0  0
  150.7810  142.9094  159.9822 H   0  0  0  0  0  0  0  0  0  0  0  0
  152.3437  143.5505  159.4583 H   0  0  0  0  0  0  0  0  0  0  0  0
  149.7389  143.5965  157.8644 H   0  0  0  0  0  0  0  0  0  0  0  0
  150.7636  144.9806  158.2745 H   0  0  0  0  0  0  0  0  0  0  0  0
  149.0344  136.3709  153.9485 H   0  0  0  0  0  0  0  0  0  0  0  0
  147.2511  136.0149  156.0214 H   0  0  0  0  0  0  0  0  0  0  0  0
  149.3533  135.0980  157.2313 H   0  0  0  0  0  0  0  0  0  0  0  0
  147.8724  134.1852  157.2993 H   0  0  0  0  0  0  0  0  0  0  0  0
  150.1357  133.6042  155.3587 H   0  0  0  0  0  0  0  0  0  0  0  0
  149.8065  132.6952  156.8143 H   0  0  0  0  0  0  0  0  0  0  0  0
  148.8620  131.6444  154.7053 H   0  0  0  0  0  0  0  0  0  0  0  0
  147.6683  131.9170  155.9547 H   0  0  0  0  0  0  0  0  0  0  0  0
  146.9117  131.4797  153.1416 H   0  0  0  0  0  0  0  0  0  0  0  0
  145.4785  132.7297  151.5509 H   0  0  0  0  0  0  0  0  0  0  0  0
  145.2070  135.1923  151.7886 H   0  0  0  0  0  0  0  0  0  0  0  0
  146.3686  136.3990  153.6164 H   0  0  0  0  0  0  0  0  0  0  0  0
  1  2  2  0  0  0  0
  2  3  1  0  0  0  0
  2 18  1  0  0  0  0
  3  4  1  0  0  0  0
  3 29  1  0  0  0  0
  3 30  1  0  0  0  0
  4 16  1  0  0  0  0
  4  5  1  0  0  0  0
  5  6  2  0  0  0  0
  5  7  1  0  0  0  0
  7  8  1  0  0  0  0
  7  9  2  0  0  0  0
  9 10  1  0  0  0  0
  9 31  1  0  0  0  0
 10 11  1  0  0  0  0
 10 16  1  0  0  0  0
 11 15  1  0  0  0  0
 11 12  1  0  0  0  0
 11 32  1  0  0  0  0
 12 13  1  0  0  0  0
 12 33  1  0  0  0  0
 12 34  1  0  0  0  0
 13 14  1  0  0  0  0
 13 35  1  0  0  0  0
 13 36  1  0  0  0  0
 14 15  1  0  0  0  0
 14 37  1  0  0  0  0
 14 38  1  0  0  0  0
 16 17  2  0  0  0  0
 18 19  1  0  0  0  0
 18 39  1  0  0  0  0
 19 28  1  0  0  0  0
 19 20  1  0  0  0  0
 19 40  1  0  0  0  0
 20 21  1  0  0  0  0
 20 41  1  0  0  0  0
 20 42  1  0  0  0  0
 21 22  1  0  0  0  0
 21 43  1  0  0  0  0
 21 44  1  0  0  0  0
 22 23  1  0  0  0  0
 22 45  1  0  0  0  0
 22 46  1  0  0  0  0
 23 28  2  0  0  0  0
 23 24  1  0  0  0  0
 24 25  2  0  0  0  0
 24 47  1  0  0  0  0
 25 26  1  0  0  0  0
 25 48  1  0  0  0  0
 26 27  2  0  0  0  0
 26 49  1  0  0  0  0
 27 28  1  0  0  0  0
 27 50  1  0  0  0  0
M  END
> <s_m_source_file>
AV-unprocessed.smi

> <i_m_source_file_index>
139

> <i_lp_mmshare_version>
43012

> <i_f3d_flags>
0

> <s_epik_input>
W2NIXTFbY0hdW2NIXVtjSF1jKGMxMilbQ0BASF0oW0NIMl1bQ0gyXVtDSDJdMilbTkhdQyg9TylbQ0gyXW4zYyg9TyljKEYpW2NIXW4oYzM9TylbQ0BASF00W0NIMl1bQ0gyXVtDSDJdTzQ=

> <s_epik_cmdline>
J2VwaWtfcHl0aG9uJywgJy1waCcsICc3LjAnLCAnLXRuJywgJzgnLCAnLW1hJywgJzIwMCcsICctbWV0YWxfYmluZGluZycsICctaW1hZScsICc8aW5maWxlLm1hZT4nLCAnLW9tYWUnLCAnPG91dGZpbGUubWFlPic=

> <r_lp_tautomer_probability>
1

> <r_epik_Ionization_Penalty>
3.261e-08

> <r_epik_Ionization_Penalty_Charging>
3.6725e-09

> <r_epik_Ionization_Penalty_Neutral>
2.89375e-08

> <r_epik_State_Penalty>
-0

> <r_epik_Charging_Adjusted_Penalty>
3.6725e-09

> <i_epik_Tot_Q>
0

> <i_epik_Tot_abs_Q>
0

> <r_epik_Metal_State_Penalty>
-0

> <b_epik_Metal_Only>
0

> <s_epik_Chemistry_Notes>
This compound contains an acetal/aminal-like group ( X-CH(R)-Y where X, Y are N, S, or O) that may be acid/base labile, releasing an aldehyde.

> <s_lp_Force_Field>
OPLS_2005

> <r_lp_Energy>
30.3029

> <b_lp_Chiralities_Consistent>
1

> <s_lp_Variant>
AV-unprocessed.smi:139-1

> <Gold.Version>
5.8.1

> <Gold.Id.Protein>
6NUR|6NUR_protein|mol2

> <Gold.PLP.Fitness>
52.8441

> <Gold.PLP.PLP>
-44.8557

> <Gold.PLP.part.hbond>
-2.0000

> <Gold.PLP.part.metal>
0.0000

> <Gold.PLP.part.buried>
-4.7791

> <Gold.PLP.part.nonpolar>
-39.5611

> <Gold.PLP.part.repulsive>
2.2328

> <Gold.PLP.ligand.clash>
0.0000

> <Gold.PLP.ligand.torsion>
0.5212

> <Gold.PLP.Chemscore.Hbond>
2.0000

> <Gold.PLP.Chemscore.CHOScore>
1.0000

> <Gold.PLP.Chemscore.Metal>
0.0000

> <Gold.Chemscore.Hbonds>
donor molecule, donor type, donor heavy atom, donor atom, acceptor molecule, acceptor atom, score
      L1  H    18    39       P1  7948  0.89
      P1  H  7997  8010       L1    17  0.65
      L1  C     9    31       P1  8028  0.75

> <Gold.PLP.Chemscore.Internal.Correction>
0.0307

> <Gold.Rescore>
     Score         DG    S(hbond)    S(metal)    S(lipo)     H(rot)  DE(clash)    DE(int)     intcor
     14.90     -17.46       1.85        0.00      89.41       1.82       0.31       2.25       ----

> <Gold.Chemscore.Fitness>
14.8959

> <Gold.Chemscore.DG>
-17.4610

> <Gold.Chemscore.ZeroCoef>
-5.4800

> <Gold.Chemscore.Hbond>
1.8479

> <Gold.Chemscore.Metal>
0.0000

> <Gold.Chemscore.Lipo>
89.4129

> <Gold.Chemscore.Internal_Hbond>
0.0000

> <Gold.Chemscore.DEClash>
0.3135

> <Gold.Chemscore.DEInternal>
2.2516

> <Gold.Chemscore.Rot>
1.8174

> <Gold.Chemscore.Internal.Correction>
   9.000000E+99

> <Gold.Chemscore.Hbonds>
donor molecule, donor type, donor heavy atom, donor atom, acceptor molecule, acceptor atom, score
      L1  H    18    39       P1  7948  0.85
      P1  H  7997  8010       L1    17  0.64

> <Gold.Chemscore.Hbond.Weighted>
-6.1721

> <Gold.Chemscore.Metal.Weighted>
-0.0000

> <Gold.Chemscore.Lipo.Weighted>
-10.4613

> <Gold.Chemscore.Internal_Hbond.Weighted>
0.0000

> <Gold.Chemscore.DEClash.Weighted>
0.3135

> <Gold.Chemscore.DEInternal.Weighted>
2.2516

> <Gold.Chemscore.Rot.Weighted>
4.6524

> <Gold.Chemscore.Internal.Correction.Weighted>
   9.000000E+99

> <Gold.Protein.RotatedTorsions>
[ 6907 6896 6895 6894 ] final -158.44 input  -60.11 | X-H torsion
[ 7974 7965 7964 7962 ] final -107.05 input  175.53 | X-H torsion
[ 8008 7997 7996 7995 ] final   79.76 input   59.86 | X-H torsion
[ 10167 10162 10161 10158 ] final -129.92 input  -65.29 | X-H torsion
[ 10718 10713 10712 10709 ] final -158.71 input   66.30 | X-H torsion
[ 10763 10752 10751 10750 ] final   78.14 input  -60.55 | X-H torsion
[ 11005 11000 10999 10996 ] final  146.94 input  -57.11 | X-H torsion

> <Gold.Protein.ActiveResidues>
 VAL166  LYS551  ARG553  GLY616  TRP617  ASP618  TYR619  PRO620  LYS621  CYS622 
 ASP623  PHE694  ASN695  SER759  ASP760  ASP761  ALA762  ILE779  LEU786  VAL792 
 PHE793  MET794  SER795  GLU796  ALA797  LYS798  CYS799  TRP800  GLU811  SER814 

> <Gold.Protein.RotatedAtoms>
  151.3181  133.4051  159.2652 H   0  0  0  0  0  0  0  0  0  0  0  0  # atno 6907 bound_to 6896
  151.0057  134.9358  159.7989 H   0  0  0  0  0  0  0  0  0  0  0  0  # atno 6908 bound_to 6896
  152.5287  134.3146  159.9178 H   0  0  0  0  0  0  0  0  0  0  0  0  # atno 6909 bound_to 6896
  145.2102  140.9093  143.3319 H   0  0  0  0  0  0  0  0  0  0  0  0  # atno 7974 bound_to 7965
  155.8742  140.3447  155.5842 H   0  0  0  0  0  0  0  0  0  0  0  0  # atno 8008 bound_to 7997
  155.7793  140.0856  157.2086 H   0  0  0  0  0  0  0  0  0  0  0  0  # atno 8009 bound_to 7997
  154.4019  140.1503  156.3021 H   0  0  0  0  0  0  0  0  0  0  0  0  # atno 8010 bound_to 7997
  139.9347  143.6231  152.2520 H   0  0  0  0  0  0  0  0  0  0  0  0  # atno 10167 bound_to 10162
  156.5579  130.8634  151.2800 H   0  0  0  0  0  0  0  0  0  0  0  0  # atno 10718 bound_to 10713
  153.0851  135.4888  154.8581 H   0  0  0  0  0  0  0  0  0  0  0  0  # atno 10763 bound_to 10752
  154.7201  135.3037  154.9064 H   0  0  0  0  0  0  0  0  0  0  0  0  # atno 10764 bound_to 10752
  153.9731  135.6799  153.4801 H   0  0  0  0  0  0  0  0  0  0  0  0  # atno 10765 bound_to 10752
  140.0835  134.9083  157.1538 H   0  0  0  0  0  0  0  0  0  0  0  0  # atno 11005 bound_to 11000
  144.9863  139.3733  143.6237 LP  0  0  0  0  0  0  0  0  0  0  0  0  # atno 17320 bound_to 7965
  146.3399  139.9027  142.8792 LP  0  0  0  0  0  0  0  0  0  0  0  0  # atno 17321 bound_to 7965
  139.6753  144.7659  151.1707 LP  0  0  0  0  0  0  0  0  0  0  0  0  # atno 17342 bound_to 10162
  140.7628  143.5804  150.8901 LP  0  0  0  0  0  0  0  0  0  0  0  0  # atno 17343 bound_to 10162
  157.7374  130.9796  150.2193 LP  0  0  0  0  0  0  0  0  0  0  0  0  # atno 17370 bound_to 10713
  156.2825  130.3735  149.7921 LP  0  0  0  0  0  0  0  0  0  0  0  0  # atno 17371 bound_to 10713
  140.3454  134.2657  155.7206 LP  0  0  0  0  0  0  0  0  0  0  0  0  # atno 17394 bound_to 11000
  141.2054  133.7859  157.0232 LP  0  0  0  0  0  0  0  0  0  0  0  0  # atno 17395 bound_to 11000

$$$$
