AV-unprocessed.smi:1047|AV-procd|sdf|4583|dock9
  -GOLD-   22720 3 53D 1   1.00000     0.00000
 Structure written by MMmdl.
 58 60  0  0  0  0  0  0  0  0  4 V2000
  145.9777  131.9694  151.3736 C   0  0  0  0  0  0  0  0  0  0  0  0
  146.2330  132.8754  152.5867 C   0  0  0  0  0  0  0  0  0  0  0  0
  147.6479  132.8451  153.0359 N   0  3  2  0  0  0  0  0  0  0  0  0
  148.0315  131.5741  153.6982 C   0  0  0  0  0  0  0  0  0  0  0  0
  149.5111  131.6098  154.1119 C   0  0  0  0  0  0  0  0  0  0  0  0
  149.7399  132.7285  154.9592 O   0  0  0  0  0  0  0  0  0  0  0  0
  149.4775  133.9665  154.3089 C   0  0  2  0  0  0  0  0  0  0  0  0
  149.8553  135.0867  155.2929 C   0  0  0  0  0  0  0  0  0  0  0  0
  149.8727  136.4145  154.6443 N   0  3  0  0  0  0  0  0  0  0  0  0
  151.0361  137.2442  155.0182 C   0  0  0  0  0  0  0  0  0  0  0  0
  150.6475  138.7211  155.2093 C   0  0  2  0  0  0  0  0  0  0  0  0
  150.5361  139.3042  153.9272 O   0  0  0  0  0  0  0  0  0  0  0  0
  151.6729  139.5073  156.0534 C   0  0  0  0  0  0  0  0  0  0  0  0
  151.2077  140.8549  156.4159 N   0  0  0  0  0  0  0  0  0  0  0  0
  150.3358  141.6773  155.7702 C   0  0  0  0  0  0  0  0  0  0  0  0
  150.2197  142.8155  156.5083 N   0  3  0  0  0  0  0  0  0  0  0  0
  151.0281  142.7204  157.6429 C   0  0  0  0  0  0  0  0  0  0  0  0
  151.2426  143.6155  158.6842 C   0  0  0  0  0  0  0  0  0  0  0  0
  152.1392  143.2185  159.7017 C   0  0  0  0  0  0  0  0  0  0  0  0
  152.3967  144.1734  160.8550 C   0  0  0  0  0  0  0  0  0  0  0  0
  152.7885  141.9578  159.6510 C   0  0  0  0  0  0  0  0  0  0  0  0
  153.7540  141.5426  160.7482 C   0  0  0  0  0  0  0  0  0  0  0  0
  152.5561  141.0613  158.5836 C   0  0  0  0  0  0  0  0  0  0  0  0
  151.6671  141.4662  157.5900 C   0  0  0  0  0  0  0  0  0  0  0  0
  147.9886  134.0022  153.9000 C   0  0  0  0  0  0  0  0  0  0  0  0
  144.9550  132.0896  151.0153 H   0  0  0  0  0  0  0  0  0  0  0  0
  146.1103  130.9148  151.6147 H   0  0  0  0  0  0  0  0  0  0  0  0
  146.6465  132.2148  150.5479 H   0  0  0  0  0  0  0  0  0  0  0  0
  145.9727  133.8956  152.3015 H   0  0  0  0  0  0  0  0  0  0  0  0
  145.5715  132.6066  153.4117 H   0  0  0  0  0  0  0  0  0  0  0  0
  147.4036  131.4129  154.5760 H   0  0  0  0  0  0  0  0  0  0  0  0
  147.8688  130.7296  153.0294 H   0  0  0  0  0  0  0  0  0  0  0  0
  149.7720  130.6992  154.6515 H   0  0  0  0  0  0  0  0  0  0  0  0
  150.1614  131.6587  153.2370 H   0  0  0  0  0  0  0  0  0  0  0  0
  150.1126  134.0402  153.4238 H   0  0  0  0  0  0  0  0  0  0  0  0
  149.1682  135.0960  156.1402 H   0  0  0  0  0  0  0  0  0  0  0  0
  150.8506  134.8924  155.6951 H   0  0  0  0  0  0  0  0  0  0  0  0
  149.8832  136.2856  153.6425 H   0  0  0  0  0  0  0  0  0  0  0  0
  151.4932  136.8507  155.9275 H   0  0  0  0  0  0  0  0  0  0  0  0
  151.7816  137.1596  154.2258 H   0  0  0  0  0  0  0  0  0  0  0  0
  149.6644  138.7810  155.6784 H   0  0  0  0  0  0  0  0  0  0  0  0
  150.2994  138.6303  153.3078 H   0  0  0  0  0  0  0  0  0  0  0  0
  151.8718  138.9793  156.9867 H   0  0  0  0  0  0  0  0  0  0  0  0
  152.6318  139.5842  155.5405 H   0  0  0  0  0  0  0  0  0  0  0  0
  149.8247  141.4667  154.8416 H   0  0  0  0  0  0  0  0  0  0  0  0
  150.7456  144.5744  158.7154 H   0  0  0  0  0  0  0  0  0  0  0  0
  152.1051  143.7182  161.8017 H   0  0  0  0  0  0  0  0  0  0  0  0
  151.8300  145.0982  160.7419 H   0  0  0  0  0  0  0  0  0  0  0  0
  153.4537  144.4356  160.9068 H   0  0  0  0  0  0  0  0  0  0  0  0
  154.1544  140.5439  160.5710 H   0  0  0  0  0  0  0  0  0  0  0  0
  153.2533  141.5326  161.7166 H   0  0  0  0  0  0  0  0  0  0  0  0
  154.5953  142.2342  160.7997 H   0  0  0  0  0  0  0  0  0  0  0  0
  153.0561  140.1050  158.5467 H   0  0  0  0  0  0  0  0  0  0  0  0
  147.7732  134.9293  153.3672 H   0  0  0  0  0  0  0  0  0  0  0  0
  147.3534  133.9884  154.7873 H   0  0  0  0  0  0  0  0  0  0  0  0
  149.0320  136.9117  154.9009 H   0  0  0  0  0  0  0  0  0  0  0  0
  148.2162  132.9282  152.2048 H   0  0  0  0  0  0  0  0  0  0  0  0
  149.6293  143.5980  156.2556 H   0  0  0  0  0  0  0  0  0  0  0  0
  1  2  1  0  0  0  0
  1 26  1  0  0  0  0
  1 27  1  0  0  0  0
  1 28  1  0  0  0  0
  2  3  1  0  0  0  0
  2 29  1  0  0  0  0
  2 30  1  0  0  0  0
  3 25  1  0  0  0  0
  3  4  1  0  0  0  0
  3 57  1  0  0  0  0
  4  5  1  0  0  0  0
  4 31  1  0  0  0  0
  4 32  1  0  0  0  0
  5  6  1  0  0  0  0
  5 33  1  0  0  0  0
  5 34  1  0  0  0  0
  6  7  1  0  0  0  0
  7  8  1  0  0  0  0
  7 25  1  0  0  0  0
  7 35  1  0  0  0  0
  8  9  1  0  0  0  0
  8 36  1  0  0  0  0
  8 37  1  0  0  0  0
  9 10  1  0  0  0  0
  9 38  1  0  0  0  0
  9 56  1  0  0  0  0
 10 11  1  0  0  0  0
 10 39  1  0  0  0  0
 10 40  1  0  0  0  0
 11 12  1  0  0  0  0
 11 13  1  0  0  0  0
 11 41  1  0  0  0  0
 12 42  1  0  0  0  0
 13 14  1  0  0  0  0
 13 43  1  0  0  0  0
 13 44  1  0  0  0  0
 14 24  1  0  0  0  0
 14 15  1  0  0  0  0
 15 16  2  0  0  0  0
 15 45  1  0  0  0  0
 16 17  1  0  0  0  0
 16 58  1  0  0  0  0
 17 24  2  0  0  0  0
 17 18  1  0  0  0  0
 18 19  2  0  0  0  0
 18 46  1  0  0  0  0
 19 20  1  0  0  0  0
 19 21  1  0  0  0  0
 20 47  1  0  0  0  0
 20 48  1  0  0  0  0
 20 49  1  0  0  0  0
 21 22  1  0  0  0  0
 21 23  2  0  0  0  0
 22 50  1  0  0  0  0
 22 51  1  0  0  0  0
 22 52  1  0  0  0  0
 23 24  1  0  0  0  0
 23 53  1  0  0  0  0
 25 54  1  0  0  0  0
 25 55  1  0  0  0  0
M  CHG  1   3   1
M  CHG  1   9   1
M  CHG  1  16   1
M  END
> <s_m_source_file>
AV-unprocessed.smi

> <i_m_source_file_index>
1047

> <i_lp_mmshare_version>
43012

> <i_f3d_flags>
0

> <s_epik_input>
W0NIM11bQ0gyXU4xW0NIMl1bQ0gyXU9bQ0BIXShbQ0gyXTEpW0NIMl1bTkhdW0NIMl1bQ0BIXShbT0hdKVtDSDJdbihbY0hdbjIpYyhjMjMpW2NIXWMoW0NIM10pYyhbY0hdMylbQ0gzXQ==

> <s_epik_cmdline>
J2VwaWtfcHl0aG9uJywgJy1waCcsICc3LjAnLCAnLXRuJywgJzgnLCAnLW1hJywgJzIwMCcsICctbWV0YWxfYmluZGluZycsICctaW1hZScsICc8aW5maWxlLm1hZT4nLCAnLW9tYWUnLCAnPG91dGZpbGUubWFlPic=

> <r_epik_Ionization_Penalty>
1.6114

> <r_epik_Ionization_Penalty_Charging>
1.61139

> <r_epik_Ionization_Penalty_Neutral>
5.04732e-06

> <r_epik_State_Penalty>
1.63724

> <r_epik_Charging_Adjusted_Penalty>
3.24864

> <i_epik_Tot_Q>
3

> <i_epik_Tot_abs_Q>
3

> <r_epik_Metal_State_Penalty>
5.64594

> <b_epik_Metal_Only>
0

> <s_lp_Force_Field>
OPLS_2005

> <r_lp_Energy>
40.251

> <b_lp_Chiralities_Consistent>
1

> <s_lp_Variant>
AV-unprocessed.smi:1047-24

> <Gold.Version>
5.8.1

> <Gold.Id.Protein>
6NUR|6NUR_protein|mol2

> <Gold.PLP.Fitness>
64.2175

> <Gold.PLP.PLP>
-51.8593

> <Gold.PLP.part.hbond>
-3.9417

> <Gold.PLP.part.metal>
0.0000

> <Gold.PLP.part.buried>
-6.7249

> <Gold.PLP.part.nonpolar>
-42.7145

> <Gold.PLP.part.repulsive>
0.1148

> <Gold.PLP.ligand.clash>
0.0000

> <Gold.PLP.ligand.torsion>
1.3508

> <Gold.PLP.Chemscore.Hbond>
4.9825

> <Gold.PLP.Chemscore.CHOScore>
0.0000

> <Gold.PLP.Chemscore.Metal>
0.0000

> <Gold.Chemscore.Hbonds>
donor molecule, donor type, donor heavy atom, donor atom, acceptor molecule, acceptor atom, score
      L1  H     9    38       P1  7948  1.80
      L1  H    16    58       P1  8028  1.69
      P1  H  7989  7998       L1    12  1.00

> <Gold.PLP.Chemscore.Internal.Correction>
0.1123

> <Gold.Rescore>
     Score         DG    S(hbond)    S(metal)    S(lipo)     H(rot)  DE(clash)    DE(int)     intcor
     20.28     -21.93       2.57        0.00     128.31       2.78       0.21       1.44       ----

> <Gold.Chemscore.Fitness>
20.2801

> <Gold.Chemscore.DG>
-21.9310

> <Gold.Chemscore.ZeroCoef>
-5.4800

> <Gold.Chemscore.Hbond>
2.5651

> <Gold.Chemscore.Metal>
0.0000

> <Gold.Chemscore.Lipo>
128.3126

> <Gold.Chemscore.Internal_Hbond>
0.0000

> <Gold.Chemscore.DEClash>
0.2104

> <Gold.Chemscore.DEInternal>
1.4405

> <Gold.Chemscore.Rot>
2.7848

> <Gold.Chemscore.Internal.Correction>
   9.000000E+99

> <Gold.Chemscore.Hbonds>
donor molecule, donor type, donor heavy atom, donor atom, acceptor molecule, acceptor atom, score
      L1  H     9    38       P1  7948  0.17
      L1  H    16    58       P1  8028  0.82
      P1  H  7989  7998       L1    12  0.94

> <Gold.Chemscore.Hbond.Weighted>
-8.5675

> <Gold.Chemscore.Metal.Weighted>
-0.0000

> <Gold.Chemscore.Lipo.Weighted>
-15.0126

> <Gold.Chemscore.Internal_Hbond.Weighted>
0.0000

> <Gold.Chemscore.DEClash.Weighted>
0.2104

> <Gold.Chemscore.DEInternal.Weighted>
1.4405

> <Gold.Chemscore.Rot.Weighted>
7.1291

> <Gold.Chemscore.Internal.Correction.Weighted>
   9.000000E+99

> <Gold.Protein.RotatedTorsions>
[ 6907 6896 6895 6894 ] final -170.77 input  -60.11 | X-H torsion
[ 7974 7965 7964 7962 ] final -103.16 input  175.53 | X-H torsion
[ 8008 7997 7996 7995 ] final  140.75 input   59.86 | X-H torsion
[ 10167 10162 10161 10158 ] final    7.04 input  -65.29 | X-H torsion
[ 10718 10713 10712 10709 ] final   30.72 input   66.30 | X-H torsion
[ 10763 10752 10751 10750 ] final  105.03 input  -60.55 | X-H torsion
[ 11005 11000 10999 10996 ] final    8.81 input  -57.11 | X-H torsion

> <Gold.Protein.ActiveResidues>
 VAL166  LYS551  ARG553  GLY616  TRP617  ASP618  TYR619  PRO620  LYS621  CYS622 
 ASP623  PHE694  ASN695  SER759  ASP760  ASP761  ALA762  ILE779  LEU786  VAL792 
 PHE793  MET794  SER795  GLU796  ALA797  LYS798  CYS799  TRP800  GLU811  SER814 

> <Gold.Protein.RotatedAtoms>
  151.5131  133.3481  159.2888 H   0  0  0  0  0  0  0  0  0  0  0  0  # atno 6907 bound_to 6896
  150.8700  134.8074  159.7158 H   0  0  0  0  0  0  0  0  0  0  0  0  # atno 6908 bound_to 6896
  152.4691  134.5013  159.9777 H   0  0  0  0  0  0  0  0  0  0  0  0  # atno 6909 bound_to 6896
  145.2595  140.9264  143.3049 H   0  0  0  0  0  0  0  0  0  0  0  0  # atno 7974 bound_to 7965
  156.2975  140.2333  156.4452 H   0  0  0  0  0  0  0  0  0  0  0  0  # atno 8008 bound_to 7997
  154.8151  140.0441  157.1391 H   0  0  0  0  0  0  0  0  0  0  0  0  # atno 8009 bound_to 7997
  154.9379  140.3025  155.5139 H   0  0  0  0  0  0  0  0  0  0  0  0  # atno 8010 bound_to 7997
  140.6394  143.7810  150.7406 H   0  0  0  0  0  0  0  0  0  0  0  0  # atno 10167 bound_to 10162
  157.2633  130.7172  149.6465 H   0  0  0  0  0  0  0  0  0  0  0  0  # atno 10718 bound_to 10713
  153.3738  135.3923  155.1808 H   0  0  0  0  0  0  0  0  0  0  0  0  # atno 10763 bound_to 10752
  154.8698  135.3709  154.4943 H   0  0  0  0  0  0  0  0  0  0  0  0  # atno 10764 bound_to 10752
  153.5414  135.7084  153.5696 H   0  0  0  0  0  0  0  0  0  0  0  0  # atno 10765 bound_to 10752
  140.5327  134.0450  155.7878 H   0  0  0  0  0  0  0  0  0  0  0  0  # atno 11005 bound_to 11000
  144.9431  139.4166  143.6439 LP  0  0  0  0  0  0  0  0  0  0  0  0  # atno 17320 bound_to 7965
  146.3279  139.8401  142.8892 LP  0  0  0  0  0  0  0  0  0  0  0  0  # atno 17321 bound_to 7965
  140.1438  143.4417  152.2176 LP  0  0  0  0  0  0  0  0  0  0  0  0  # atno 17342 bound_to 10162
  139.5603  144.7401  151.4174 LP  0  0  0  0  0  0  0  0  0  0  0  0  # atno 17343 bound_to 10162
  155.9664  130.4390  150.5243 LP  0  0  0  0  0  0  0  0  0  0  0  0  # atno 17370 bound_to 10713
  157.3152  131.0671  151.1972 LP  0  0  0  0  0  0  0  0  0  0  0  0  # atno 17371 bound_to 10713
  141.1272  133.9363  157.2611 LP  0  0  0  0  0  0  0  0  0  0  0  0  # atno 17394 bound_to 11000
  139.9545  135.0168  156.9090 LP  0  0  0  0  0  0  0  0  0  0  0  0  # atno 17395 bound_to 11000

$$$$
