AV-unprocessed.smi:3076|AV-procd|sdf|11727|dock7
  -GOLD-   2272017123D 1   1.00000     0.00000
 Structure written by MMmdl.
 20 20  0  0  0  0  0  0  0  0  1 V2000
  148.2313  138.5529  153.0330 N   0  0  0  0  0  0  0  0  0  0  0  0
  148.9797  138.7662  154.2813 C   0  0  0  0  0  0  0  0  0  0  0  0
  149.3269  140.2453  154.5243 C   0  0  2  0  0  0  0  0  0  0  0  0
  149.8536  140.7823  153.3270 O   0  0  0  0  0  0  0  0  0  0  0  0
  150.3128  140.3896  155.6726 C   0  0  0  0  0  0  0  0  0  0  0  0
  150.0127  141.1789  156.8044 C   0  0  0  0  0  0  0  0  0  0  0  0
  150.9689  141.2866  157.8325 C   0  0  0  0  0  0  0  0  0  0  0  0
  152.1907  140.6007  157.6863 C   0  0  0  0  0  0  0  0  0  0  0  0
  152.4919  139.8451  156.6086 N   0  0  0  0  0  0  0  0  0  0  0  0
  151.5693  139.7472  155.6271 C   0  0  0  0  0  0  0  0  0  0  0  0
  148.5920  139.1548  152.2943 H   0  0  0  0  0  0  0  0  0  0  0  0
  148.3370  137.5909  152.7142 H   0  0  0  0  0  0  0  0  0  0  0  0
  148.3658  138.4126  155.1102 H   0  0  0  0  0  0  0  0  0  0  0  0
  149.8835  138.1560  154.2937 H   0  0  0  0  0  0  0  0  0  0  0  0
  148.4205  140.7999  154.7722 H   0  0  0  0  0  0  0  0  0  0  0  0
  149.8045  140.1208  152.6541 H   0  0  0  0  0  0  0  0  0  0  0  0
  149.0677  141.6960  156.8842 H   0  0  0  0  0  0  0  0  0  0  0  0
  150.7714  141.8824  158.7112 H   0  0  0  0  0  0  0  0  0  0  0  0
  152.9471  140.6623  158.4547 H   0  0  0  0  0  0  0  0  0  0  0  0
  151.8462  139.1383  154.7789 H   0  0  0  0  0  0  0  0  0  0  0  0
  1  2  1  0  0  0  0
  1 11  1  0  0  0  0
  1 12  1  0  0  0  0
  2  3  1  0  0  0  0
  2 13  1  0  0  0  0
  2 14  1  0  0  0  0
  3  4  1  0  0  0  0
  3  5  1  0  0  0  0
  3 15  1  0  0  0  0
  4 16  1  0  0  0  0
  5 10  1  0  0  0  0
  5  6  2  0  0  0  0
  6  7  1  0  0  0  0
  6 17  1  0  0  0  0
  7  8  2  0  0  0  0
  7 18  1  0  0  0  0
  8  9  1  0  0  0  0
  8 19  1  0  0  0  0
  9 10  2  0  0  0  0
 10 20  1  0  0  0  0
M  END
> <s_m_source_file>
AV-unprocessed.smi

> <i_m_source_file_index>
3076

> <i_lp_mmshare_version>
43012

> <i_f3d_flags>
0

> <s_epik_input>
W05IMl1bQ0gyXVtDQEhdKFtPSF0pYzFbY0hdW2NIXVtjSF1uW2NIXTE=

> <s_epik_cmdline>
J2VwaWtfcHl0aG9uJywgJy1waCcsICc3LjAnLCAnLXRuJywgJzgnLCAnLW1hJywgJzIwMCcsICctbWV0YWxfYmluZGluZycsICctaW1hZScsICc8aW5maWxlLm1hZT4nLCAnLW9tYWUnLCAnPG91dGZpbGUubWFlPic=

> <r_epik_Ionization_Penalty>
2.22627

> <r_epik_Ionization_Penalty_Charging>
0

> <r_epik_Ionization_Penalty_Neutral>
2.22627

> <r_epik_State_Penalty>
2.36938

> <r_epik_Charging_Adjusted_Penalty>
2.36938

> <i_epik_Tot_Q>
0

> <i_epik_Tot_abs_Q>
0

> <r_epik_Metal_State_Penalty>
2.36785

> <b_epik_Metal_Only>
0

> <s_lp_Force_Field>
OPLS_2005

> <r_lp_Energy>
11.5599

> <b_lp_Chiralities_Consistent>
1

> <s_lp_Variant>
AV-unprocessed.smi:3076-3

> <Gold.Version>
5.8.1

> <Gold.Id.Protein>
6NUR|6NUR_protein|mol2

> <Gold.PLP.Fitness>
35.8517

> <Gold.PLP.PLP>
-20.7857

> <Gold.PLP.part.hbond>
-4.9853

> <Gold.PLP.part.metal>
0.0000

> <Gold.PLP.part.buried>
-1.2918

> <Gold.PLP.part.nonpolar>
-13.3482

> <Gold.PLP.part.repulsive>
0.0000

> <Gold.PLP.ligand.clash>
0.0000

> <Gold.PLP.ligand.torsion>
0.0860

> <Gold.PLP.Chemscore.Hbond>
5.0784

> <Gold.PLP.Chemscore.CHOScore>
0.0000

> <Gold.PLP.Chemscore.Metal>
0.0000

> <Gold.Chemscore.Hbonds>
donor molecule, donor type, donor heavy atom, donor atom, acceptor molecule, acceptor atom, score
      L1  H     1    11       P1  7957  1.00
      L1  H     1    12       P1  7948  1.00
      L1  H     4    16       P1  7957  0.72
      P1  H  7989  7998       L1     4  0.26
      P1  H  7997  8009       L1     9  1.00
      P1  H  8011  8017       L1     4  1.00

> <Gold.PLP.Chemscore.Internal.Correction>
0.0028

> <Gold.Rescore>
     Score         DG    S(hbond)    S(metal)    S(lipo)     H(rot)  DE(clash)    DE(int)     intcor
     18.90     -19.06       3.97        0.00      43.08       1.85       0.10       0.06       ----

> <Gold.Chemscore.Fitness>
18.9010

> <Gold.Chemscore.DG>
-19.0647

> <Gold.Chemscore.ZeroCoef>
-5.4800

> <Gold.Chemscore.Hbond>
3.9729

> <Gold.Chemscore.Metal>
0.0000

> <Gold.Chemscore.Lipo>
43.0753

> <Gold.Chemscore.Internal_Hbond>
0.0000

> <Gold.Chemscore.DEClash>
0.1028

> <Gold.Chemscore.DEInternal>
0.0609

> <Gold.Chemscore.Rot>
1.8455

> <Gold.Chemscore.Internal.Correction>
   9.000000E+99

> <Gold.Chemscore.Hbonds>
donor molecule, donor type, donor heavy atom, donor atom, acceptor molecule, acceptor atom, score
      L1  H     1    11       P1  7957  1.00
      L1  H     1    12       P1  7948  0.99
      L1  H     4    16       P1  7957  0.68
      P1  H  7989  7998       L1     4  0.04
      P1  H  7997  8009       L1     9  0.45
      P1  H  8011  8017       L1     4  0.39

> <Gold.Chemscore.Hbond.Weighted>
-13.2694

> <Gold.Chemscore.Metal.Weighted>
-0.0000

> <Gold.Chemscore.Lipo.Weighted>
-5.0398

> <Gold.Chemscore.Internal_Hbond.Weighted>
0.0000

> <Gold.Chemscore.DEClash.Weighted>
0.1028

> <Gold.Chemscore.DEInternal.Weighted>
0.0609

> <Gold.Chemscore.Rot.Weighted>
4.7245

> <Gold.Chemscore.Internal.Correction.Weighted>
   9.000000E+99

> <Gold.Protein.RotatedTorsions>
[ 6907 6896 6895 6894 ] final   20.33 input  -60.11 | X-H torsion
[ 7974 7965 7964 7962 ] final  -28.61 input  175.53 | X-H torsion
[ 8008 7997 7996 7995 ] final -162.77 input   59.86 | X-H torsion
[ 10167 10162 10161 10158 ] final -160.14 input  -65.29 | X-H torsion
[ 10718 10713 10712 10709 ] final  165.48 input   66.30 | X-H torsion
[ 10763 10752 10751 10750 ] final   15.11 input  -60.55 | X-H torsion
[ 11005 11000 10999 10996 ] final  142.12 input  -57.11 | X-H torsion

> <Gold.Protein.ActiveResidues>
 VAL166  LYS551  ARG553  GLY616  TRP617  ASP618  TYR619  PRO620  LYS621  CYS622 
 ASP623  PHE694  ASN695  SER759  ASP760  ASP761  ALA762  ILE779  LEU786  VAL792 
 PHE793  MET794  SER795  GLU796  ALA797  LYS798  CYS799  TRP800  GLU811  SER814 

> <Gold.Protein.RotatedAtoms>
  151.8948  135.0402  160.0500 H   0  0  0  0  0  0  0  0  0  0  0  0  # atno 6907 bound_to 6896
  152.2407  133.5128  159.5276 H   0  0  0  0  0  0  0  0  0  0  0  0  # atno 6908 bound_to 6896
  150.7052  134.1010  159.4008 H   0  0  0  0  0  0  0  0  0  0  0  0  # atno 6909 bound_to 6896
  146.1276  140.5305  142.8708 H   0  0  0  0  0  0  0  0  0  0  0  0  # atno 7974 bound_to 7965
  155.8116  140.0906  157.1900 H   0  0  0  0  0  0  0  0  0  0  0  0  # atno 8008 bound_to 7997
  154.3980  140.1453  156.3453 H   0  0  0  0  0  0  0  0  0  0  0  0  # atno 8009 bound_to 7997
  155.8359  140.3441  155.5604 H   0  0  0  0  0  0  0  0  0  0  0  0  # atno 8010 bound_to 7997
  139.6562  143.9995  152.2195 H   0  0  0  0  0  0  0  0  0  0  0  0  # atno 10167 bound_to 10162
  157.0795  131.0388  151.2580 H   0  0  0  0  0  0  0  0  0  0  0  0  # atno 10718 bound_to 10713
  153.1557  135.6786  153.8816 H   0  0  0  0  0  0  0  0  0  0  0  0  # atno 10763 bound_to 10752
  153.8228  135.3128  155.3413 H   0  0  0  0  0  0  0  0  0  0  0  0  # atno 10764 bound_to 10752
  154.7895  135.4843  154.0109 H   0  0  0  0  0  0  0  0  0  0  0  0  # atno 10765 bound_to 10752
  140.0453  134.9284  157.0918 H   0  0  0  0  0  0  0  0  0  0  0  0  # atno 11005 bound_to 11000
  144.7658  140.5526  143.6704 LP  0  0  0  0  0  0  0  0  0  0  0  0  # atno 17320 bound_to 7965
  145.5332  139.1475  143.3488 LP  0  0  0  0  0  0  0  0  0  0  0  0  # atno 17321 bound_to 7965
  139.9722  144.6486  150.7978 LP  0  0  0  0  0  0  0  0  0  0  0  0  # atno 17342 bound_to 10162
  140.7560  143.3057  151.2968 LP  0  0  0  0  0  0  0  0  0  0  0  0  # atno 17343 bound_to 10162
  157.4812  130.7766  149.7415 LP  0  0  0  0  0  0  0  0  0  0  0  0  # atno 17370 bound_to 10713
  155.9927  130.3929  150.2929 LP  0  0  0  0  0  0  0  0  0  0  0  0  # atno 17371 bound_to 10713
  140.4004  134.2089  155.7163 LP  0  0  0  0  0  0  0  0  0  0  0  0  # atno 17394 bound_to 11000
  141.1903  133.8219  157.0921 LP  0  0  0  0  0  0  0  0  0  0  0  0  # atno 17395 bound_to 11000

$$$$
