AV-unprocessed.smi:1536|AV-procd|sdf|6186|dock9
  -GOLD-   22720 6353D 1   1.00000     0.00000
 Structure written by MMmdl.
 48 49  0  0  0  0  0  0  0  0  2 V2000
  151.5109  144.6134  159.5405 C   0  0  0  0  0  0  0  0  0  0  0  0
  151.0118  143.4144  158.7222 C   0  0  2  0  0  0  0  0  0  0  0  0
  151.6044  143.4078  157.3030 C   0  0  0  0  0  0  0  0  0  0  0  0
  151.0762  142.2162  156.4891 C   0  0  0  0  0  0  0  0  0  0  0  0
  149.5881  142.2398  156.4190 N   0  3  1  0  0  0  0  0  0  0  0  0
  148.9545  141.2772  155.4627 C   0  0  2  0  0  0  0  0  0  0  0  0
  149.9654  140.5959  154.4993 C   0  0  0  0  0  0  0  0  0  0  0  0
  150.6884  139.5123  155.1573 N   0  0  0  0  0  0  0  0  0  0  0  0
  152.0227  139.3684  155.1946 C   0  0  0  0  0  0  0  0  0  0  0  0
  152.8142  140.2099  154.7714 O   0  0  0  0  0  0  0  0  0  0  0  0
  152.5418  138.0451  155.7542 C   0  0  0  0  0  0  0  0  0  0  0  0
  153.0208  138.2320  157.1108 N   0  0  0  0  0  0  0  0  0  0  0  0
  152.6257  137.6867  158.2629 C   0  0  0  0  0  0  0  0  0  0  0  0
  153.3064  138.1705  159.2906 N   0  0  0  0  0  0  0  0  0  0  0  0
  154.1746  139.0717  158.6979 N   0  0  0  0  0  0  0  0  0  0  0  0
  154.0097  139.1131  157.4047 N   0  0  0  0  0  0  0  0  0  0  0  0
  147.7075  141.9066  154.7744 C   0  0  0  0  0  0  0  0  0  0  0  0
  146.5213  142.1739  155.7164 C   0  0  0  0  0  0  0  0  0  0  0  0
  147.2586  141.0930  153.5484 C   0  0  0  0  0  0  0  0  0  0  0  0
  148.9834  142.2045  157.7769 C   0  0  0  0  0  0  0  0  0  0  0  0
  149.4766  143.3847  158.6318 C   0  0  0  0  0  0  0  0  0  0  0  0
  151.2163  145.5580  159.0823 H   0  0  0  0  0  0  0  0  0  0  0  0
  152.5982  144.6079  159.6218 H   0  0  0  0  0  0  0  0  0  0  0  0
  151.1059  144.5940  160.5528 H   0  0  0  0  0  0  0  0  0  0  0  0
  151.3390  142.5066  159.2318 H   0  0  0  0  0  0  0  0  0  0  0  0
  151.3574  144.3387  156.7901 H   0  0  0  0  0  0  0  0  0  0  0  0
  152.6929  143.3624  157.3536 H   0  0  0  0  0  0  0  0  0  0  0  0
  151.5099  142.2481  155.4909 H   0  0  0  0  0  0  0  0  0  0  0  0
  151.4142  141.2875  156.9511 H   0  0  0  0  0  0  0  0  0  0  0  0
  148.5466  140.4590  156.0585 H   0  0  0  0  0  0  0  0  0  0  0  0
  149.4738  140.2300  153.5976 H   0  0  0  0  0  0  0  0  0  0  0  0
  150.7055  141.3249  154.1676 H   0  0  0  0  0  0  0  0  0  0  0  0
  150.1284  138.7651  155.5427 H   0  0  0  0  0  0  0  0  0  0  0  0
  151.7454  137.2999  155.7605 H   0  0  0  0  0  0  0  0  0  0  0  0
  153.3485  137.6563  155.1310 H   0  0  0  0  0  0  0  0  0  0  0  0
  151.8382  136.9527  158.3489 H   0  0  0  0  0  0  0  0  0  0  0  0
  148.0068  142.8764  154.3771 H   0  0  0  0  0  0  0  0  0  0  0  0
  146.0665  141.2467  156.0646 H   0  0  0  0  0  0  0  0  0  0  0  0
  145.7430  142.7399  155.2036 H   0  0  0  0  0  0  0  0  0  0  0  0
  146.8188  142.7550  156.5887 H   0  0  0  0  0  0  0  0  0  0  0  0
  146.8963  140.1040  153.8303 H   0  0  0  0  0  0  0  0  0  0  0  0
  148.0779  140.9596  152.8412 H   0  0  0  0  0  0  0  0  0  0  0  0
  146.4518  141.5995  153.0180 H   0  0  0  0  0  0  0  0  0  0  0  0
  147.8966  142.2613  157.7038 H   0  0  0  0  0  0  0  0  0  0  0  0
  149.2222  141.2558  158.2599 H   0  0  0  0  0  0  0  0  0  0  0  0
  149.0446  143.3191  159.6310 H   0  0  0  0  0  0  0  0  0  0  0  0
  149.1144  144.3193  158.2007 H   0  0  0  0  0  0  0  0  0  0  0  0
  149.3468  143.1510  156.0556 H   0  0  0  0  0  0  0  0  0  0  0  0
  1  2  1  0  0  0  0
  1 22  1  0  0  0  0
  1 23  1  0  0  0  0
  1 24  1  0  0  0  0
  2 21  1  0  0  0  0
  2  3  1  0  0  0  0
  2 25  1  0  0  0  0
  3  4  1  0  0  0  0
  3 26  1  0  0  0  0
  3 27  1  0  0  0  0
  4  5  1  0  0  0  0
  4 28  1  0  0  0  0
  4 29  1  0  0  0  0
  5  6  1  0  0  0  0
  5 20  1  0  0  0  0
  5 48  1  0  0  0  0
  6  7  1  0  0  0  0
  6 17  1  0  0  0  0
  6 30  1  0  0  0  0
  7  8  1  0  0  0  0
  7 31  1  0  0  0  0
  7 32  1  0  0  0  0
  8  9  1  0  0  0  0
  8 33  1  0  0  0  0
  9 10  2  0  0  0  0
  9 11  1  0  0  0  0
 11 12  1  0  0  0  0
 11 34  1  0  0  0  0
 11 35  1  0  0  0  0
 12 16  1  0  0  0  0
 12 13  1  0  0  0  0
 13 14  2  0  0  0  0
 13 36  1  0  0  0  0
 14 15  1  0  0  0  0
 15 16  2  0  0  0  0
 17 18  1  0  0  0  0
 17 19  1  0  0  0  0
 17 37  1  0  0  0  0
 18 38  1  0  0  0  0
 18 39  1  0  0  0  0
 18 40  1  0  0  0  0
 19 41  1  0  0  0  0
 19 42  1  0  0  0  0
 19 43  1  0  0  0  0
 20 21  1  0  0  0  0
 20 44  1  0  0  0  0
 20 45  1  0  0  0  0
 21 46  1  0  0  0  0
 21 47  1  0  0  0  0
M  CHG  1   5   1
M  END
> <s_m_source_file>
AV-unprocessed.smi

> <i_m_source_file_index>
1536

> <i_lp_mmshare_version>
43012

> <i_f3d_flags>
0

> <s_epik_input>
W0NIM11bQ0hdMVtDSDJdW0NIMl1OKFtDSDJdW0NIMl0xKVtDQEBIXShbQ0hdKFtDSDNdKVtDSDNdKVtDSDJdW05IXUMoPU8pW0NIMl1uMltjSF1ubm4y

> <s_epik_cmdline>
J2VwaWtfcHl0aG9uJywgJy1waCcsICc3LjAnLCAnLXRuJywgJzgnLCAnLW1hJywgJzIwMCcsICctbWV0YWxfYmluZGluZycsICctaW1hZScsICc8aW5maWxlLm1hZT4nLCAnLW9tYWUnLCAnPG91dGZpbGUubWFlPic=

> <r_lp_tautomer_probability>
1

> <r_epik_Ionization_Penalty>
0.00109671

> <r_epik_Ionization_Penalty_Charging>
0.00109273

> <r_epik_Ionization_Penalty_Neutral>
3.97951e-06

> <r_epik_State_Penalty>
0.000716588

> <r_epik_Charging_Adjusted_Penalty>
0.00180932

> <i_epik_Tot_Q>
1

> <i_epik_Tot_abs_Q>
1

> <r_epik_Metal_State_Penalty>
-0

> <b_epik_Metal_Only>
0

> <s_lp_Force_Field>
OPLS_2005

> <r_lp_Energy>
28.917

> <b_lp_Chiralities_Consistent>
1

> <s_lp_Variant>
AV-unprocessed.smi:1536-1

> <Gold.Version>
5.8.1

> <Gold.Id.Protein>
6NUR|6NUR_protein|mol2

> <Gold.PLP.Fitness>
43.3896

> <Gold.PLP.PLP>
-34.2422

> <Gold.PLP.part.hbond>
-4.0000

> <Gold.PLP.part.metal>
0.0000

> <Gold.PLP.part.buried>
-1.6782

> <Gold.PLP.part.nonpolar>
-26.9687

> <Gold.PLP.part.repulsive>
0.1389

> <Gold.PLP.ligand.clash>
0.0000

> <Gold.PLP.ligand.torsion>
1.8426

> <Gold.PLP.Chemscore.Hbond>
4.1046

> <Gold.PLP.Chemscore.CHOScore>
0.0000

> <Gold.PLP.Chemscore.Metal>
0.0000

> <Gold.Chemscore.Hbonds>
donor molecule, donor type, donor heavy atom, donor atom, acceptor molecule, acceptor atom, score
      L1  H     5    48       P1  8028  2.00
      P1  H  7989  7998       L1    10  0.26
      P1  H  7997  8009       L1    16  0.16
      P1  H  7997  8010       L1    10  1.00

> <Gold.PLP.Chemscore.Internal.Correction>
0.5189

> <Gold.Rescore>
     Score         DG    S(hbond)    S(metal)    S(lipo)     H(rot)  DE(clash)    DE(int)     intcor
     13.81     -16.31       2.36        0.00      85.97       2.77       0.46       2.04       ----

> <Gold.Chemscore.Fitness>
13.8110

> <Gold.Chemscore.DG>
-16.3135

> <Gold.Chemscore.ZeroCoef>
-5.4800

> <Gold.Chemscore.Hbond>
2.3557

> <Gold.Chemscore.Metal>
0.0000

> <Gold.Chemscore.Lipo>
85.9749

> <Gold.Chemscore.Internal_Hbond>
0.0000

> <Gold.Chemscore.DEClash>
0.4604

> <Gold.Chemscore.DEInternal>
2.0421

> <Gold.Chemscore.Rot>
2.7709

> <Gold.Chemscore.Internal.Correction>
   9.000000E+99

> <Gold.Chemscore.Hbonds>
donor molecule, donor type, donor heavy atom, donor atom, acceptor molecule, acceptor atom, score
      L1  H     5    48       P1  8028  1.00
      P1  H  7989  7998       L1    10  0.04
      P1  H  7997  8009       L1    16  0.01
      P1  H  7997  8010       L1    10  0.87

> <Gold.Chemscore.Hbond.Weighted>
-7.8679

> <Gold.Chemscore.Metal.Weighted>
-0.0000

> <Gold.Chemscore.Lipo.Weighted>
-10.0591

> <Gold.Chemscore.Internal_Hbond.Weighted>
0.0000

> <Gold.Chemscore.DEClash.Weighted>
0.4604

> <Gold.Chemscore.DEInternal.Weighted>
2.0421

> <Gold.Chemscore.Rot.Weighted>
7.0935

> <Gold.Chemscore.Internal.Correction.Weighted>
   9.000000E+99

> <Gold.Protein.RotatedTorsions>
[ 6907 6896 6895 6894 ] final  141.88 input  -60.11 | X-H torsion
[ 7974 7965 7964 7962 ] final  -61.07 input  175.53 | X-H torsion
[ 8008 7997 7996 7995 ] final  121.23 input   59.86 | X-H torsion
[ 10167 10162 10161 10158 ] final  113.20 input  -65.29 | X-H torsion
[ 10718 10713 10712 10709 ] final -171.19 input   66.30 | X-H torsion
[ 10763 10752 10751 10750 ] final   30.96 input  -60.55 | X-H torsion
[ 11005 11000 10999 10996 ] final -124.53 input  -57.11 | X-H torsion

> <Gold.Protein.ActiveResidues>
 VAL166  LYS551  ARG553  GLY616  TRP617  ASP618  TYR619  PRO620  LYS621  CYS622 
 ASP623  PHE694  ASN695  SER759  ASP760  ASP761  ALA762  ILE779  LEU786  VAL792 
 PHE793  MET794  SER795  GLU796  ALA797  LYS798  CYS799  TRP800  GLU811  SER814 

> <Gold.Protein.RotatedAtoms>
  152.2256  133.5017  159.5186 H   0  0  0  0  0  0  0  0  0  0  0  0  # atno 6907 bound_to 6896
  150.7024  134.1285  159.4070 H   0  0  0  0  0  0  0  0  0  0  0  0  # atno 6908 bound_to 6896
  151.9206  135.0300  160.0572 H   0  0  0  0  0  0  0  0  0  0  0  0  # atno 6909 bound_to 6896
  145.8078  140.8616  143.0197 H   0  0  0  0  0  0  0  0  0  0  0  0  # atno 7974 bound_to 7965
  156.2677  140.2813  156.1275 H   0  0  0  0  0  0  0  0  0  0  0  0  # atno 8008 bound_to 7997
  155.1090  140.0390  157.2736 H   0  0  0  0  0  0  0  0  0  0  0  0  # atno 8009 bound_to 7997
  154.6757  140.2597  155.6966 H   0  0  0  0  0  0  0  0  0  0  0  0  # atno 8010 bound_to 7997
  139.6479  144.7127  151.2106 H   0  0  0  0  0  0  0  0  0  0  0  0  # atno 10167 bound_to 10162
  156.7372  130.9328  151.3108 H   0  0  0  0  0  0  0  0  0  0  0  0  # atno 10718 bound_to 10713
  153.0342  135.6451  154.1125 H   0  0  0  0  0  0  0  0  0  0  0  0  # atno 10763 bound_to 10752
  154.0842  135.2871  155.3286 H   0  0  0  0  0  0  0  0  0  0  0  0  # atno 10764 bound_to 10752
  154.6509  135.5426  153.7964 H   0  0  0  0  0  0  0  0  0  0  0  0  # atno 10765 bound_to 10752
  140.9834  134.0641  157.3739 H   0  0  0  0  0  0  0  0  0  0  0  0  # atno 11005 bound_to 11000
  144.6761  140.0352  143.7482 LP  0  0  0  0  0  0  0  0  0  0  0  0  # atno 17320 bound_to 7965
  145.9809  139.2940  143.1042 LP  0  0  0  0  0  0  0  0  0  0  0  0  # atno 17321 bound_to 7965
  140.7523  143.6200  150.8523 LP  0  0  0  0  0  0  0  0  0  0  0  0  # atno 17342 bound_to 10162
  139.9845  143.5915  152.2932 LP  0  0  0  0  0  0  0  0  0  0  0  0  # atno 17343 bound_to 10162
  157.6834  130.9162  150.0324 LP  0  0  0  0  0  0  0  0  0  0  0  0  # atno 17370 bound_to 10713
  156.1489  130.3642  149.9468 LP  0  0  0  0  0  0  0  0  0  0  0  0  # atno 17371 bound_to 10713
  139.8960  135.0143  156.7029 LP  0  0  0  0  0  0  0  0  0  0  0  0  # atno 17394 bound_to 11000
  140.7152  133.9188  155.8110 LP  0  0  0  0  0  0  0  0  0  0  0  0  # atno 17395 bound_to 11000

$$$$
