AV-unprocessed.smi:2100|AV-procd|sdf|8574|dock2
  -GOLD-   2272011303D 1   1.00000     0.00000
 Structure written by MMmdl.
 41 42  0  0  0  0  0  0  0  0  1 V2000
  146.8207  138.7865  152.0440 C   0  0  0  0  0  0  0  0  0  0  0  0
  147.0855  139.6263  153.2982 C   0  0  1  0  0  0  0  0  0  0  0  0
  148.5733  139.6241  153.6934 C   0  0  0  0  0  0  0  0  0  0  0  0
  148.8226  140.5366  154.8231 N   0  0  0  0  0  0  0  0  0  0  0  0
  150.3789  140.4649  155.5775 S   0  0  0  0  0  0  0  0  0  0  0  0
  151.2934  139.7246  154.6948 O   0  0  0  0  0  0  0  0  0  0  0  0
  150.7288  141.8045  156.0748 O   0  0  0  0  0  0  0  0  0  0  0  0
  149.9918  139.4750  156.9383 N   0  0  0  0  0  0  0  0  0  0  0  0
  150.1469  140.0014  158.2960 C   0  0  0  0  0  0  0  0  0  0  0  0
  151.5809  140.4922  158.5517 C   0  0  0  0  0  0  0  0  0  0  0  0
  151.6474  141.9964  158.7364 C   0  0  0  0  0  0  0  0  0  0  0  0
  152.8306  142.6145  159.1940 C   0  0  0  0  0  0  0  0  0  0  0  0
  152.8390  144.0140  159.3513 C   0  0  0  0  0  0  0  0  0  0  0  0
  151.6694  144.7376  159.0488 C   0  0  0  0  0  0  0  0  0  0  0  0
  150.5386  144.0263  158.6009 C   0  0  0  0  0  0  0  0  0  0  0  0
  150.5203  142.6847  158.4460 N   0  0  0  0  0  0  0  0  0  0  0  0
  148.2478  141.8760  154.6216 C   0  0  0  0  0  0  0  0  0  0  0  0
  146.7739  141.7882  154.1847 C   0  0  1  0  0  0  0  0  0  0  0  0
  146.1931  143.1634  153.8371 C   0  0  0  0  0  0  0  0  0  0  0  0
  146.6671  140.9586  153.0362 O   0  0  0  0  0  0  0  0  0  0  0  0
  147.1212  137.7495  152.1951 H   0  0  0  0  0  0  0  0  0  0  0  0
  147.3712  139.1734  151.1861 H   0  0  0  0  0  0  0  0  0  0  0  0
  145.7607  138.7912  151.7891 H   0  0  0  0  0  0  0  0  0  0  0  0
  146.4902  139.2172  154.1167 H   0  0  0  0  0  0  0  0  0  0  0  0
  148.8829  138.6125  153.9544 H   0  0  0  0  0  0  0  0  0  0  0  0
  149.1891  139.9370  152.8490 H   0  0  0  0  0  0  0  0  0  0  0  0
  149.1263  138.9531  156.8048 H   0  0  0  0  0  0  0  0  0  0  0  0
  149.4256  140.8035  158.4569 H   0  0  0  0  0  0  0  0  0  0  0  0
  149.9005  139.2063  159.0002 H   0  0  0  0  0  0  0  0  0  0  0  0
  151.9920  140.0024  159.4353 H   0  0  0  0  0  0  0  0  0  0  0  0
  152.2315  140.2221  157.7194 H   0  0  0  0  0  0  0  0  0  0  0  0
  153.7117  142.0321  159.4198 H   0  0  0  0  0  0  0  0  0  0  0  0
  153.7260  144.5228  159.6986 H   0  0  0  0  0  0  0  0  0  0  0  0
  151.6395  145.8116  159.1581 H   0  0  0  0  0  0  0  0  0  0  0  0
  149.6242  144.5486  158.3613 H   0  0  0  0  0  0  0  0  0  0  0  0
  148.3252  142.4506  155.5449 H   0  0  0  0  0  0  0  0  0  0  0  0
  148.8381  142.3998  153.8684 H   0  0  0  0  0  0  0  0  0  0  0  0
  146.1788  141.3590  154.9928 H   0  0  0  0  0  0  0  0  0  0  0  0
  146.2351  143.8352  154.6947 H   0  0  0  0  0  0  0  0  0  0  0  0
  145.1498  143.0797  153.5318 H   0  0  0  0  0  0  0  0  0  0  0  0
  146.7434  143.6293  153.0191 H   0  0  0  0  0  0  0  0  0  0  0  0
  1  2  1  0  0  0  0
  1 21  1  0  0  0  0
  1 22  1  0  0  0  0
  1 23  1  0  0  0  0
  2 20  1  0  0  0  0
  2  3  1  0  0  0  0
  2 24  1  0  0  0  0
  3  4  1  0  0  0  0
  3 25  1  0  0  0  0
  3 26  1  0  0  0  0
  4  5  1  0  0  0  0
  4 17  1  0  0  0  0
  5  6  2  0  0  0  0
  5  7  2  0  0  0  0
  5  8  1  0  0  0  0
  8  9  1  0  0  0  0
  8 27  1  0  0  0  0
  9 10  1  0  0  0  0
  9 28  1  0  0  0  0
  9 29  1  0  0  0  0
 10 11  1  0  0  0  0
 10 30  1  0  0  0  0
 10 31  1  0  0  0  0
 11 16  1  0  0  0  0
 11 12  2  0  0  0  0
 12 13  1  0  0  0  0
 12 32  1  0  0  0  0
 13 14  2  0  0  0  0
 13 33  1  0  0  0  0
 14 15  1  0  0  0  0
 14 34  1  0  0  0  0
 15 16  2  0  0  0  0
 15 35  1  0  0  0  0
 17 18  1  0  0  0  0
 17 36  1  0  0  0  0
 17 37  1  0  0  0  0
 18 19  1  0  0  0  0
 18 20  1  0  0  0  0
 18 38  1  0  0  0  0
 19 39  1  0  0  0  0
 19 40  1  0  0  0  0
 19 41  1  0  0  0  0
M  END
> <s_m_source_file>
AV-unprocessed.smi

> <i_m_source_file_index>
2100

> <i_lp_mmshare_version>
43012

> <i_f3d_flags>
0

> <s_epik_input>
W0NIM11bQ0BASF0xW0NIMl1OKFtDSDJdW0NASF0oTzEpW0NIM10pUyg9TykoPU8pW05IXVtDSDJdW0NIMl1jMltjSF1bY0hdW2NIXVtjSF1uMg==

> <s_epik_cmdline>
J2VwaWtfcHl0aG9uJywgJy1waCcsICc3LjAnLCAnLXRuJywgJzgnLCAnLW1hJywgJzIwMCcsICctbWV0YWxfYmluZGluZycsICctaW1hZScsICc8aW5maWxlLm1hZT4nLCAnLW9tYWUnLCAnPG91dGZpbGUubWFlPic=

> <r_epik_Ionization_Penalty>
0.085378

> <r_epik_Ionization_Penalty_Charging>
0

> <r_epik_Ionization_Penalty_Neutral>
0.085378

> <r_epik_State_Penalty>
0.0441186

> <r_epik_Charging_Adjusted_Penalty>
0.0441186

> <i_epik_Tot_Q>
0

> <i_epik_Tot_abs_Q>
0

> <r_epik_Metal_State_Penalty>
0.24397

> <b_epik_Metal_Only>
0

> <s_lp_Force_Field>
OPLS_2005

> <r_lp_Energy>
5.36855

> <b_lp_Chiralities_Consistent>
1

> <s_lp_Variant>
AV-unprocessed.smi:2100-2

> <Gold.Version>
5.8.1

> <Gold.Id.Protein>
6NUR|6NUR_protein|mol2

> <Gold.PLP.Fitness>
43.9921

> <Gold.PLP.PLP>
-38.8769

> <Gold.PLP.part.hbond>
-1.0000

> <Gold.PLP.part.metal>
0.0000

> <Gold.PLP.part.buried>
-1.4796

> <Gold.PLP.part.nonpolar>
-37.2677

> <Gold.PLP.part.repulsive>
1.0408

> <Gold.PLP.ligand.clash>
0.0000

> <Gold.PLP.ligand.torsion>
0.9868

> <Gold.PLP.Chemscore.Hbond>
1.0000

> <Gold.PLP.Chemscore.CHOScore>
1.1111

> <Gold.PLP.Chemscore.Metal>
0.0000

> <Gold.Chemscore.Hbonds>
donor molecule, donor type, donor heavy atom, donor atom, acceptor molecule, acceptor atom, score
      P1  H  7989  7998       L1     6  1.00
      L1  C    15    35       P1  8028  0.10
      L1  C    15    35       P1  8029  1.00

> <Gold.PLP.Chemscore.Internal.Correction>
0.7555

> <Gold.Rescore>
     Score         DG    S(hbond)    S(metal)    S(lipo)     H(rot)  DE(clash)    DE(int)     intcor
     13.09     -16.46       0.92        0.00     104.83       1.71       0.85       2.52       ----

> <Gold.Chemscore.Fitness>
13.0909

> <Gold.Chemscore.DG>
-16.4585

> <Gold.Chemscore.ZeroCoef>
-5.4800

> <Gold.Chemscore.Hbond>
0.9225

> <Gold.Chemscore.Metal>
0.0000

> <Gold.Chemscore.Lipo>
104.8269

> <Gold.Chemscore.Internal_Hbond>
0.0000

> <Gold.Chemscore.DEClash>
0.8498

> <Gold.Chemscore.DEInternal>
2.5179

> <Gold.Chemscore.Rot>
1.7060

> <Gold.Chemscore.Internal.Correction>
   9.000000E+99

> <Gold.Chemscore.Hbonds>
donor molecule, donor type, donor heavy atom, donor atom, acceptor molecule, acceptor atom, score
      P1  H  7989  7998       L1     6  0.40

> <Gold.Chemscore.Hbond.Weighted>
-3.0812

> <Gold.Chemscore.Metal.Weighted>
-0.0000

> <Gold.Chemscore.Lipo.Weighted>
-12.2648

> <Gold.Chemscore.Internal_Hbond.Weighted>
0.0000

> <Gold.Chemscore.DEClash.Weighted>
0.8498

> <Gold.Chemscore.DEInternal.Weighted>
2.5179

> <Gold.Chemscore.Rot.Weighted>
4.3674

> <Gold.Chemscore.Internal.Correction.Weighted>
   9.000000E+99

> <Gold.Protein.RotatedTorsions>
[ 6907 6896 6895 6894 ] final  143.92 input  -60.11 | X-H torsion
[ 7974 7965 7964 7962 ] final   84.60 input  175.53 | X-H torsion
[ 8008 7997 7996 7995 ] final    0.69 input   59.86 | X-H torsion
[ 10167 10162 10161 10158 ] final  148.82 input  -65.29 | X-H torsion
[ 10718 10713 10712 10709 ] final  -83.95 input   66.30 | X-H torsion
[ 10763 10752 10751 10750 ] final   66.59 input  -60.55 | X-H torsion
[ 11005 11000 10999 10996 ] final   26.20 input  -57.11 | X-H torsion

> <Gold.Protein.ActiveResidues>
 VAL166  LYS551  ARG553  GLY616  TRP617  ASP618  TYR619  PRO620  LYS621  CYS622 
 ASP623  PHE694  ASN695  SER759  ASP760  ASP761  ALA762  ILE779  LEU786  VAL792 
 PHE793  MET794  SER795  GLU796  ALA797  LYS798  CYS799  TRP800  GLU811  SER814 

> <Gold.Protein.RotatedAtoms>
  152.2002  133.4835  159.5053 H   0  0  0  0  0  0  0  0  0  0  0  0  # atno 6907 bound_to 6896
  150.6968  134.1601  159.4182 H   0  0  0  0  0  0  0  0  0  0  0  0  # atno 6908 bound_to 6896
  151.9518  135.0165  160.0593 H   0  0  0  0  0  0  0  0  0  0  0  0  # atno 6909 bound_to 6896
  145.5965  139.2346  143.2270 H   0  0  0  0  0  0  0  0  0  0  0  0  # atno 7974 bound_to 7965
  154.6710  140.2612  155.7007 H   0  0  0  0  0  0  0  0  0  0  0  0  # atno 8008 bound_to 7997
  156.2659  140.2829  156.1142 H   0  0  0  0  0  0  0  0  0  0  0  0  # atno 8009 bound_to 7997
  155.1168  140.0376  157.2729 H   0  0  0  0  0  0  0  0  0  0  0  0  # atno 8010 bound_to 7997
  139.4869  144.5649  151.7162 H   0  0  0  0  0  0  0  0  0  0  0  0  # atno 10167 bound_to 10162
  156.0012  130.4682  150.4335 H   0  0  0  0  0  0  0  0  0  0  0  0  # atno 10718 bound_to 10713
  153.0147  135.5315  154.6847 H   0  0  0  0  0  0  0  0  0  0  0  0  # atno 10763 bound_to 10752
  154.5998  135.2867  155.0550 H   0  0  0  0  0  0  0  0  0  0  0  0  # atno 10764 bound_to 10752
  154.1611  135.6547  153.5038 H   0  0  0  0  0  0  0  0  0  0  0  0  # atno 10765 bound_to 10752
  140.3396  134.2347  155.7691 H   0  0  0  0  0  0  0  0  0  0  0  0  # atno 11005 bound_to 11000
  146.1608  140.6791  142.9278 LP  0  0  0  0  0  0  0  0  0  0  0  0  # atno 17320 bound_to 7965
  144.7328  140.4722  143.6925 LP  0  0  0  0  0  0  0  0  0  0  0  0  # atno 17321 bound_to 7965
  140.5226  144.0855  150.6027 LP  0  0  0  0  0  0  0  0  0  0  0  0  # atno 17342 bound_to 10162
  140.3818  143.2798  152.0161 LP  0  0  0  0  0  0  0  0  0  0  0  0  # atno 17343 bound_to 10162
  157.2382  131.0519  151.2452 LP  0  0  0  0  0  0  0  0  0  0  0  0  # atno 17370 bound_to 10713
  157.3646  130.7149  149.6524 LP  0  0  0  0  0  0  0  0  0  0  0  0  # atno 17371 bound_to 10713
  141.2042  133.7893  157.0300 LP  0  0  0  0  0  0  0  0  0  0  0  0  # atno 17394 bound_to 11000
  140.0792  134.9658  157.1596 LP  0  0  0  0  0  0  0  0  0  0  0  0  # atno 17395 bound_to 11000

$$$$
