AV-unprocessed.smi:1495|AV-procd|sdf|6054|dock10
  -GOLD-   22720 6173D 1   1.00000     0.00000
 Structure written by MMmdl.
 40 41  0  0  0  0  0  0  0  0  1 V2000
  147.7585  140.4091  153.8447 C   0  0  0  0  0  0  0  0  0  0  0  0
  149.1175  140.9412  154.3152 C   0  0  0  0  0  0  0  0  0  0  0  0
  150.0294  139.8410  154.8799 C   0  0  1  0  0  0  0  0  0  0  0  0
  150.0472  138.5904  153.9804 C   0  0  0  0  0  0  0  0  0  0  0  0
  150.9640  137.6052  154.5709 N   0  0  0  0  0  0  0  0  0  0  0  0
  150.6495  136.3496  154.9709 C   0  0  0  0  0  0  0  0  0  0  0  0
  151.3192  135.7108  155.7832 O   0  0  0  0  0  0  0  0  0  0  0  0
  149.5009  135.8820  154.4564 N   0  0  0  0  0  0  0  0  0  0  0  0
  148.9484  134.5452  154.6494 C   0  0  0  0  0  0  0  0  0  0  0  0
  149.3341  133.6086  153.4905 C   0  0  0  0  0  0  0  0  0  0  0  0
  148.5011  132.3597  153.4421 C   0  0  0  0  0  0  0  0  0  0  0  0
  148.5915  131.2762  154.2805 C   0  0  0  0  0  0  0  0  0  0  0  0
  147.4652  130.0213  153.8443 S   0  0  0  0  0  0  0  0  0  0  0  0
  146.8954  131.0349  152.5236 C   0  0  0  0  0  0  0  0  0  0  0  0
  145.8208  130.6217  151.5775 C   0  0  0  0  0  0  0  0  0  0  0  0
  147.5284  132.2081  152.4489 N   0  0  0  0  0  0  0  0  0  0  0  0
  152.3231  138.1453  154.6391 C   0  0  0  0  0  0  0  0  0  0  0  0
  152.2922  139.4156  155.5084 C   0  0  0  0  0  0  0  0  0  0  0  0
  151.3600  140.3509  154.9702 O   0  0  0  0  0  0  0  0  0  0  0  0
  147.1454  141.2152  153.4416 H   0  0  0  0  0  0  0  0  0  0  0  0
  147.2061  139.9508  154.6655 H   0  0  0  0  0  0  0  0  0  0  0  0
  147.8795  139.6601  153.0618 H   0  0  0  0  0  0  0  0  0  0  0  0
  149.6132  141.4233  153.4718 H   0  0  0  0  0  0  0  0  0  0  0  0
  148.9665  141.7171  155.0666 H   0  0  0  0  0  0  0  0  0  0  0  0
  149.6791  139.5658  155.8766 H   0  0  0  0  0  0  0  0  0  0  0  0
  149.0330  138.2167  153.8375 H   0  0  0  0  0  0  0  0  0  0  0  0
  150.4038  138.8512  152.9826 H   0  0  0  0  0  0  0  0  0  0  0  0
  148.9921  136.4891  153.8300 H   0  0  0  0  0  0  0  0  0  0  0  0
  149.2534  134.1114  155.6027 H   0  0  0  0  0  0  0  0  0  0  0  0
  147.8634  134.6441  154.6921 H   0  0  0  0  0  0  0  0  0  0  0  0
  149.2358  134.1516  152.5496 H   0  0  0  0  0  0  0  0  0  0  0  0
  150.3907  133.3514  153.5730 H   0  0  0  0  0  0  0  0  0  0  0  0
  149.2589  131.1365  155.1181 H   0  0  0  0  0  0  0  0  0  0  0  0
  145.1489  131.4575  151.3801 H   0  0  0  0  0  0  0  0  0  0  0  0
  145.2407  129.8005  151.9989 H   0  0  0  0  0  0  0  0  0  0  0  0
  146.2601  130.2931  150.6354 H   0  0  0  0  0  0  0  0  0  0  0  0
  153.0385  137.4373  155.0597 H   0  0  0  0  0  0  0  0  0  0  0  0
  152.6746  138.3792  153.6333 H   0  0  0  0  0  0  0  0  0  0  0  0
  152.0225  139.1744  156.5379 H   0  0  0  0  0  0  0  0  0  0  0  0
  153.2789  139.8779  155.5367 H   0  0  0  0  0  0  0  0  0  0  0  0
  1  2  1  0  0  0  0
  1 20  1  0  0  0  0
  1 21  1  0  0  0  0
  1 22  1  0  0  0  0
  2  3  1  0  0  0  0
  2 23  1  0  0  0  0
  2 24  1  0  0  0  0
  3 19  1  0  0  0  0
  3  4  1  0  0  0  0
  3 25  1  0  0  0  0
  4  5  1  0  0  0  0
  4 26  1  0  0  0  0
  4 27  1  0  0  0  0
  5  6  1  0  0  0  0
  5 17  1  0  0  0  0
  6  7  2  0  0  0  0
  6  8  1  0  0  0  0
  8  9  1  0  0  0  0
  8 28  1  0  0  0  0
  9 10  1  0  0  0  0
  9 29  1  0  0  0  0
  9 30  1  0  0  0  0
 10 11  1  0  0  0  0
 10 31  1  0  0  0  0
 10 32  1  0  0  0  0
 11 16  1  0  0  0  0
 11 12  2  0  0  0  0
 12 13  1  0  0  0  0
 12 33  1  0  0  0  0
 13 14  1  0  0  0  0
 14 15  1  0  0  0  0
 14 16  2  0  0  0  0
 15 34  1  0  0  0  0
 15 35  1  0  0  0  0
 15 36  1  0  0  0  0
 17 18  1  0  0  0  0
 17 37  1  0  0  0  0
 17 38  1  0  0  0  0
 18 19  1  0  0  0  0
 18 39  1  0  0  0  0
 18 40  1  0  0  0  0
M  END
> <s_m_source_file>
AV-unprocessed.smi

> <i_m_source_file_index>
1495

> <i_lp_mmshare_version>
43012

> <i_f3d_flags>
0

> <s_epik_input>
W0NIM11bQ0gyXVtDQEBIXTFbQ0gyXU4oW0NIMl1bQ0gyXU8xKUMoPU8pW05IXVtDSDJdW0NIMl1jMltjSF1zYyhuMilbQ0gzXQ==

> <s_epik_cmdline>
J2VwaWtfcHl0aG9uJywgJy1waCcsICc3LjAnLCAnLXRuJywgJzgnLCAnLW1hJywgJzIwMCcsICctbWV0YWxfYmluZGluZycsICctaW1hZScsICc8aW5maWxlLm1hZT4nLCAnLW9tYWUnLCAnPG91dGZpbGUubWFlPic=

> <r_epik_Ionization_Penalty>
0.00206013

> <r_epik_Ionization_Penalty_Charging>
0

> <r_epik_Ionization_Penalty_Neutral>
0.00206013

> <r_epik_State_Penalty>
0.00138662

> <r_epik_Charging_Adjusted_Penalty>
0.00138662

> <i_epik_Tot_Q>
0

> <i_epik_Tot_abs_Q>
0

> <r_epik_Metal_State_Penalty>
-0

> <b_epik_Metal_Only>
0

> <s_lp_Force_Field>
OPLS_2005

> <r_lp_Energy>
24.1464

> <b_lp_Chiralities_Consistent>
1

> <s_lp_Variant>
AV-unprocessed.smi:1495-2

> <Gold.Version>
5.8.1

> <Gold.Id.Protein>
6NUR|6NUR_protein|mol2

> <Gold.PLP.Fitness>
43.4986

> <Gold.PLP.PLP>
-37.6753

> <Gold.PLP.part.hbond>
-3.0000

> <Gold.PLP.part.metal>
0.0000

> <Gold.PLP.part.buried>
-2.3696

> <Gold.PLP.part.nonpolar>
-33.0708

> <Gold.PLP.part.repulsive>
0.5191

> <Gold.PLP.ligand.clash>
0.0000

> <Gold.PLP.ligand.torsion>
0.6901

> <Gold.PLP.Chemscore.Hbond>
2.3931

> <Gold.PLP.Chemscore.CHOScore>
0.0000

> <Gold.PLP.Chemscore.Metal>
0.0000

> <Gold.Chemscore.Hbonds>
donor molecule, donor type, donor heavy atom, donor atom, acceptor molecule, acceptor atom, score
      L1  H     8    28       P1  7948  0.45
      P1  H  7989  7998       L1    19  1.00
      P1  H 10752 10765       L1     7  1.00

> <Gold.PLP.Chemscore.Internal.Correction>
0.0241

> <Gold.Rescore>
     Score         DG    S(hbond)    S(metal)    S(lipo)     H(rot)  DE(clash)    DE(int)     intcor
     17.40     -18.58       1.94        0.00      87.57       1.42       0.55       0.63       ----

> <Gold.Chemscore.Fitness>
17.3962

> <Gold.Chemscore.DG>
-18.5825

> <Gold.Chemscore.ZeroCoef>
-5.4800

> <Gold.Chemscore.Hbond>
1.9447

> <Gold.Chemscore.Metal>
0.0000

> <Gold.Chemscore.Lipo>
87.5739

> <Gold.Chemscore.Internal_Hbond>
0.0000

> <Gold.Chemscore.DEClash>
0.5515

> <Gold.Chemscore.DEInternal>
0.6348

> <Gold.Chemscore.Rot>
1.4214

> <Gold.Chemscore.Internal.Correction>
   9.000000E+99

> <Gold.Chemscore.Hbonds>
donor molecule, donor type, donor heavy atom, donor atom, acceptor molecule, acceptor atom, score
      L1  H     8    28       P1  7948  0.43
      P1  H  7989  7998       L1    19  0.35
      P1  H 10752 10765       L1     7  0.64

> <Gold.Chemscore.Hbond.Weighted>
-6.4952

> <Gold.Chemscore.Metal.Weighted>
-0.0000

> <Gold.Chemscore.Lipo.Weighted>
-10.2461

> <Gold.Chemscore.Internal_Hbond.Weighted>
0.0000

> <Gold.Chemscore.DEClash.Weighted>
0.5515

> <Gold.Chemscore.DEInternal.Weighted>
0.6348

> <Gold.Chemscore.Rot.Weighted>
3.6388

> <Gold.Chemscore.Internal.Correction.Weighted>
   9.000000E+99

> <Gold.Protein.RotatedTorsions>
[ 6907 6896 6895 6894 ] final   13.13 input  -60.11 | X-H torsion
[ 7974 7965 7964 7962 ] final   33.28 input  175.53 | X-H torsion
[ 8008 7997 7996 7995 ] final  165.16 input   59.86 | X-H torsion
[ 10167 10162 10161 10158 ] final    0.97 input  -65.29 | X-H torsion
[ 10718 10713 10712 10709 ] final   93.03 input   66.30 | X-H torsion
[ 10763 10752 10751 10750 ] final -151.64 input  -60.55 | X-H torsion
[ 11005 11000 10999 10996 ] final  154.74 input  -57.11 | X-H torsion

> <Gold.Protein.ActiveResidues>
 VAL166  LYS551  ARG553  GLY616  TRP617  ASP618  TYR619  PRO620  LYS621  CYS622 
 ASP623  PHE694  ASN695  SER759  ASP760  ASP761  ALA762  ILE779  LEU786  VAL792 
 PHE793  MET794  SER795  GLU796  ALA797  LYS798  CYS799  TRP800  GLU811  SER814 

> <Gold.Protein.RotatedAtoms>
  151.7814  135.0760  160.0374 H   0  0  0  0  0  0  0  0  0  0  0  0  # atno 6907 bound_to 6896
  152.3220  133.5860  159.5759 H   0  0  0  0  0  0  0  0  0  0  0  0  # atno 6908 bound_to 6896
  150.7375  133.9913  159.3650 H   0  0  0  0  0  0  0  0  0  0  0  0  # atno 6909 bound_to 6896
  146.1431  139.6417  142.9149 H   0  0  0  0  0  0  0  0  0  0  0  0  # atno 7974 bound_to 7965
  156.1823  140.1677  156.8252 H   0  0  0  0  0  0  0  0  0  0  0  0  # atno 8008 bound_to 7997
  154.5373  140.0744  156.8483 H   0  0  0  0  0  0  0  0  0  0  0  0  # atno 8009 bound_to 7997
  155.3284  140.3377  155.4242 H   0  0  0  0  0  0  0  0  0  0  0  0  # atno 8010 bound_to 7997
  140.6704  143.7064  150.7911 H   0  0  0  0  0  0  0  0  0  0  0  0  # atno 10167 bound_to 10162
  157.6956  131.0464  150.3972 H   0  0  0  0  0  0  0  0  0  0  0  0  # atno 10718 bound_to 10713
  154.8045  135.3255  154.7466 H   0  0  0  0  0  0  0  0  0  0  0  0  # atno 10763 bound_to 10752
  153.8127  135.6894  153.4843 H   0  0  0  0  0  0  0  0  0  0  0  0  # atno 10764 bound_to 10752
  153.1782  135.4597  154.9937 H   0  0  0  0  0  0  0  0  0  0  0  0  # atno 10765 bound_to 10752
  140.1517  134.8670  157.2463 H   0  0  0  0  0  0  0  0  0  0  0  0  # atno 11005 bound_to 11000
  145.5000  141.0437  143.2545 LP  0  0  0  0  0  0  0  0  0  0  0  0  # atno 17320 bound_to 7965
  144.7815  139.6516  143.7152 LP  0  0  0  0  0  0  0  0  0  0  0  0  # atno 17321 bound_to 7965
  140.0748  143.5025  152.2561 LP  0  0  0  0  0  0  0  0  0  0  0  0  # atno 17342 bound_to 10162
  139.5970  144.7570  151.3262 LP  0  0  0  0  0  0  0  0  0  0  0  0  # atno 17343 bound_to 10162
  156.4369  130.3983  149.6723 LP  0  0  0  0  0  0  0  0  0  0  0  0  # atno 17370 bound_to 10713
  156.3920  130.7632  151.2633 LP  0  0  0  0  0  0  0  0  0  0  0  0  # atno 17371 bound_to 10713
  140.2596  134.3586  155.7411 LP  0  0  0  0  0  0  0  0  0  0  0  0  # atno 17394 bound_to 11000
  141.2200  133.7362  156.9060 LP  0  0  0  0  0  0  0  0  0  0  0  0  # atno 17395 bound_to 11000

$$$$
