AV-unprocessed.smi:1354|AV-procd|sdf|5534|dock1
  -GOLD-   22720 5123D 1   1.00000     0.00000
 Structure written by MMmdl.
 39 41  0  0  0  0  0  0  0  0  1 V2000
  151.4302  137.6102  153.8409 O   0  0  0  0  0  0  0  0  0  0  0  0
  152.4641  138.4791  154.2535 C   0  0  0  0  0  0  0  0  0  0  0  0
  152.0511  139.2844  155.4979 C   0  0  0  0  0  0  0  0  0  0  0  0
  150.8014  140.0948  155.2963 C   0  0  0  0  0  0  0  0  0  0  0  0
  150.0489  139.9433  154.2048 N   0  0  0  0  0  0  0  0  0  0  0  0
  149.0380  140.8630  154.3978 C   0  0  0  0  0  0  0  0  0  0  0  0
  147.9354  141.2000  153.5804 C   0  0  0  0  0  0  0  0  0  0  0  0
  147.0211  142.1928  153.9890 C   0  0  0  0  0  0  0  0  0  0  0  0
  147.1945  142.8592  155.2190 C   0  0  0  0  0  0  0  0  0  0  0  0
  148.2840  142.5350  156.0501 C   0  0  0  0  0  0  0  0  0  0  0  0
  149.1952  141.5439  155.6372 C   0  0  0  0  0  0  0  0  0  0  0  0
  150.3462  141.0003  156.2021 N   0  0  0  0  0  0  0  0  0  0  0  0
  150.9107  141.3681  157.4948 C   0  0  0  0  0  0  0  0  0  0  0  0
  152.2608  142.0851  157.3586 C   0  0  0  0  0  0  0  0  0  0  0  0
  152.4294  142.9589  158.4667 O   0  0  0  0  0  0  0  0  0  0  0  0
  152.9920  142.4610  159.6214 C   0  0  0  0  0  0  0  0  0  0  0  0
  153.4545  141.1282  159.7635 C   0  0  0  0  0  0  0  0  0  0  0  0
  154.0179  140.6945  160.9792 C   0  0  0  0  0  0  0  0  0  0  0  0
  154.1249  141.5827  162.0650 C   0  0  0  0  0  0  0  0  0  0  0  0
  153.6663  142.9064  161.9344 C   0  0  0  0  0  0  0  0  0  0  0  0
  153.1023  143.3428  160.7194 C   0  0  0  0  0  0  0  0  0  0  0  0
  152.5517  144.9747  160.5799 Cl  0  0  0  0  0  0  0  0  0  0  0  0
  150.8899  137.4089  154.5897 H   0  0  0  0  0  0  0  0  0  0  0  0
  153.3755  137.9091  154.4356 H   0  0  0  0  0  0  0  0  0  0  0  0
  152.6746  139.1605  153.4290 H   0  0  0  0  0  0  0  0  0  0  0  0
  151.8626  138.5927  156.3196 H   0  0  0  0  0  0  0  0  0  0  0  0
  152.8810  139.9095  155.8227 H   0  0  0  0  0  0  0  0  0  0  0  0
  147.7952  140.6962  152.6356 H   0  0  0  0  0  0  0  0  0  0  0  0
  146.1837  142.4452  153.3553 H   0  0  0  0  0  0  0  0  0  0  0  0
  146.4916  143.6204  155.5242 H   0  0  0  0  0  0  0  0  0  0  0  0
  148.4205  143.0480  156.9902 H   0  0  0  0  0  0  0  0  0  0  0  0
  150.2036  142.0243  158.0025 H   0  0  0  0  0  0  0  0  0  0  0  0
  150.9964  140.4832  158.1248 H   0  0  0  0  0  0  0  0  0  0  0  0
  153.0682  141.3524  157.3278 H   0  0  0  0  0  0  0  0  0  0  0  0
  152.2829  142.6428  156.4231 H   0  0  0  0  0  0  0  0  0  0  0  0
  153.3849  140.4179  158.9539 H   0  0  0  0  0  0  0  0  0  0  0  0
  154.3680  139.6775  161.0784 H   0  0  0  0  0  0  0  0  0  0  0  0
  154.5573  141.2492  162.9969 H   0  0  0  0  0  0  0  0  0  0  0  0
  153.7486  143.5883  162.7679 H   0  0  0  0  0  0  0  0  0  0  0  0
  1  2  1  0  0  0  0
  1 23  1  0  0  0  0
  2  3  1  0  0  0  0
  2 24  1  0  0  0  0
  2 25  1  0  0  0  0
  3  4  1  0  0  0  0
  3 26  1  0  0  0  0
  3 27  1  0  0  0  0
  4 12  1  0  0  0  0
  4  5  2  0  0  0  0
  5  6  1  0  0  0  0
  6 11  2  0  0  0  0
  6  7  1  0  0  0  0
  7  8  2  0  0  0  0
  7 28  1  0  0  0  0
  8  9  1  0  0  0  0
  8 29  1  0  0  0  0
  9 10  2  0  0  0  0
  9 30  1  0  0  0  0
 10 11  1  0  0  0  0
 10 31  1  0  0  0  0
 11 12  1  0  0  0  0
 12 13  1  0  0  0  0
 13 14  1  0  0  0  0
 13 32  1  0  0  0  0
 13 33  1  0  0  0  0
 14 15  1  0  0  0  0
 14 34  1  0  0  0  0
 14 35  1  0  0  0  0
 15 16  1  0  0  0  0
 16 21  1  0  0  0  0
 16 17  2  0  0  0  0
 17 18  1  0  0  0  0
 17 36  1  0  0  0  0
 18 19  2  0  0  0  0
 18 37  1  0  0  0  0
 19 20  1  0  0  0  0
 19 38  1  0  0  0  0
 20 21  2  0  0  0  0
 20 39  1  0  0  0  0
 21 22  1  0  0  0  0
M  END
> <s_m_source_file>
AV-unprocessed.smi

> <i_m_source_file_index>
1354

> <i_lp_mmshare_version>
43012

> <i_f3d_flags>
0

> <s_epik_input>
W2NIXTFbY0hdW2NIXVtjSF1jKGMxMiluKGMobjIpW0NIMl1bQ0gyXVtPSF0pW0NIMl1bQ0gyXU9jM1tjSF1bY0hdW2NIXVtjSF1jM0Ns

> <s_epik_cmdline>
J2VwaWtfcHl0aG9uJywgJy1waCcsICc3LjAnLCAnLXRuJywgJzgnLCAnLW1hJywgJzIwMCcsICctbWV0YWxfYmluZGluZycsICctaW1hZScsICc8aW5maWxlLm1hZT4nLCAnLW9tYWUnLCAnPG91dGZpbGUubWFlPic=

> <r_lp_tautomer_probability>
1

> <r_epik_Ionization_Penalty>
0.195126

> <r_epik_Ionization_Penalty_Charging>
0

> <r_epik_Ionization_Penalty_Neutral>
0.195126

> <r_epik_State_Penalty>
0.184862

> <r_epik_Charging_Adjusted_Penalty>
0.184862

> <i_epik_Tot_Q>
0

> <i_epik_Tot_abs_Q>
0

> <r_epik_Metal_State_Penalty>
0.000216911

> <b_epik_Metal_Only>
0

> <s_lp_Force_Field>
OPLS_2005

> <r_lp_Energy>
15.3671

> <b_lp_Chiralities_Consistent>
1

> <s_lp_Variant>
AV-unprocessed.smi:1354-1

> <Gold.Version>
5.8.1

> <Gold.Id.Protein>
6NUR|6NUR_protein|mol2

> <Gold.PLP.Fitness>
55.1655

> <Gold.PLP.PLP>
-53.1703

> <Gold.PLP.part.hbond>
-2.1695

> <Gold.PLP.part.metal>
0.0000

> <Gold.PLP.part.buried>
1.2866

> <Gold.PLP.part.nonpolar>
-51.7036

> <Gold.PLP.part.repulsive>
0.2194

> <Gold.PLP.ligand.clash>
0.0000

> <Gold.PLP.ligand.torsion>
0.4650

> <Gold.PLP.Chemscore.Hbond>
0.9406

> <Gold.PLP.Chemscore.CHOScore>
0.0000

> <Gold.PLP.Chemscore.Metal>
0.0000

> <Gold.PLP.Chemscore.Internal.Correction>
0.1035

> <Gold.Rescore>
     Score         DG    S(hbond)    S(metal)    S(lipo)     H(rot)  DE(clash)    DE(int)     intcor
     15.63     -18.99       0.78        0.00     143.76       2.31       1.84       1.52       ----

> <Gold.Chemscore.Fitness>
15.6269

> <Gold.Chemscore.DG>
-18.9920

> <Gold.Chemscore.ZeroCoef>
-5.4800

> <Gold.Chemscore.Hbond>
0.7799

> <Gold.Chemscore.Metal>
0.0000

> <Gold.Chemscore.Lipo>
143.7643

> <Gold.Chemscore.Internal_Hbond>
0.0000

> <Gold.Chemscore.DEClash>
1.8426

> <Gold.Chemscore.DEInternal>
1.5226

> <Gold.Chemscore.Rot>
2.3098

> <Gold.Chemscore.Internal.Correction>
   9.000000E+99

> <Gold.Chemscore.Hbond.Weighted>
-2.6047

> <Gold.Chemscore.Metal.Weighted>
-0.0000

> <Gold.Chemscore.Lipo.Weighted>
-16.8204

> <Gold.Chemscore.Internal_Hbond.Weighted>
0.0000

> <Gold.Chemscore.DEClash.Weighted>
1.8426

> <Gold.Chemscore.DEInternal.Weighted>
1.5226

> <Gold.Chemscore.Rot.Weighted>
5.9131

> <Gold.Chemscore.Internal.Correction.Weighted>
   9.000000E+99

> <Gold.Protein.RotatedTorsions>
[ 6907 6896 6895 6894 ] final   20.28 input  -60.11 | X-H torsion
[ 7974 7965 7964 7962 ] final  164.15 input  175.53 | X-H torsion
[ 8008 7997 7996 7995 ] final   18.80 input   59.86 | X-H torsion
[ 10167 10162 10161 10158 ] final -169.10 input  -65.29 | X-H torsion
[ 10718 10713 10712 10709 ] final -121.43 input   66.30 | X-H torsion
[ 10763 10752 10751 10750 ] final  146.66 input  -60.55 | X-H torsion
[ 11005 11000 10999 10996 ] final -102.34 input  -57.11 | X-H torsion

> <Gold.Protein.ActiveResidues>
 VAL166  LYS551  ARG553  GLY616  TRP617  ASP618  TYR619  PRO620  LYS621  CYS622 
 ASP623  PHE694  ASN695  SER759  ASP760  ASP761  ALA762  ILE779  LEU786  VAL792 
 PHE793  MET794  SER795  GLU796  ALA797  LYS798  CYS799  TRP800  GLU811  SER814 

> <Gold.Protein.RotatedAtoms>
  151.8940  135.0405  160.0500 H   0  0  0  0  0  0  0  0  0  0  0  0  # atno 6907 bound_to 6896
  152.2413  133.5133  159.5280 H   0  0  0  0  0  0  0  0  0  0  0  0  # atno 6908 bound_to 6896
  150.7054  134.1001  159.4005 H   0  0  0  0  0  0  0  0  0  0  0  0  # atno 6909 bound_to 6896
  144.7558  139.8285  143.6350 H   0  0  0  0  0  0  0  0  0  0  0  0  # atno 7974 bound_to 7965
  154.9113  140.3014  155.5265 H   0  0  0  0  0  0  0  0  0  0  0  0  # atno 8008 bound_to 7997
  156.3014  140.2388  156.4088 H   0  0  0  0  0  0  0  0  0  0  0  0  # atno 8009 bound_to 7997
  154.8423  140.0413  157.1538 H   0  0  0  0  0  0  0  0  0  0  0  0  # atno 8010 bound_to 7997
  139.5943  144.1145  152.1671 H   0  0  0  0  0  0  0  0  0  0  0  0  # atno 10167 bound_to 10162
  156.1336  130.6414  150.9661 H   0  0  0  0  0  0  0  0  0  0  0  0  # atno 10718 bound_to 10713
  154.0255  135.2902  155.3375 H   0  0  0  0  0  0  0  0  0  0  0  0  # atno 10763 bound_to 10752
  154.7020  135.5184  153.8544 H   0  0  0  0  0  0  0  0  0  0  0  0  # atno 10764 bound_to 10752
  153.0662  135.6632  154.0473 H   0  0  0  0  0  0  0  0  0  0  0  0  # atno 10765 bound_to 10752
  141.1193  133.8550  157.1347 H   0  0  0  0  0  0  0  0  0  0  0  0  # atno 11005 bound_to 11000
  146.1565  139.4665  143.0015 LP  0  0  0  0  0  0  0  0  0  0  0  0  # atno 17320 bound_to 7965
  145.6786  141.0197  143.1619 LP  0  0  0  0  0  0  0  0  0  0  0  0  # atno 17321 bound_to 7965
  140.0726  144.5766  150.7180 LP  0  0  0  0  0  0  0  0  0  0  0  0  # atno 17342 bound_to 10162
  140.7199  143.2579  151.4312 LP  0  0  0  0  0  0  0  0  0  0  0  0  # atno 17343 bound_to 10162
  157.6512  131.0896  150.8047 LP  0  0  0  0  0  0  0  0  0  0  0  0  # atno 17370 bound_to 10713
  156.8130  130.4958  149.5353 LP  0  0  0  0  0  0  0  0  0  0  0  0  # atno 17371 bound_to 10713
  140.0138  134.9976  157.0451 LP  0  0  0  0  0  0  0  0  0  0  0  0  # atno 17394 bound_to 11000
  140.4554  134.1539  155.7185 LP  0  0  0  0  0  0  0  0  0  0  0  0  # atno 17395 bound_to 11000

$$$$
