AV-unprocessed.smi:2784|AV-procd|sdf|10734|dock9
  -GOLD-   2272015173D 1   1.00000     0.00000
 Structure written by MMmdl.
 31 32  0  0  0  0  0  0  0  0  1 V2000
  152.2392  145.0253  158.7182 C   0  0  0  0  0  0  0  0  0  0  0  0
  152.9380  144.1023  159.5387 O   0  0  0  0  0  0  0  0  0  0  0  0
  152.2792  142.8506  159.6749 C   0  0  2  0  0  0  0  0  0  0  0  0
  153.1277  141.9192  160.5448 C   0  0  0  0  0  0  0  0  0  0  0  0
  152.7575  140.5181  160.0721 C   0  0  0  0  0  0  0  0  0  0  0  0
  152.6010  140.6708  158.5595 C   0  0  0  0  0  0  0  0  0  0  0  0
  152.1017  142.1112  158.3286 C   0  0  1  0  0  0  0  0  0  0  0  0
  150.6992  142.1215  157.9193 N   0  0  0  0  0  0  0  0  0  0  0  0
  150.2131  141.5910  156.7878 C   0  0  0  0  0  0  0  0  0  0  0  0
  150.9445  141.0207  155.9722 O   0  0  0  0  0  0  0  0  0  0  0  0
  148.8480  141.8190  156.7003 N   0  0  0  0  0  0  0  0  0  0  0  0
  148.2410  141.6400  155.5672 C   0  0  0  0  0  0  0  0  0  0  0  0
  148.6858  141.2590  154.3040 N   0  0  0  0  0  0  0  0  0  0  0  0
  147.6097  141.2386  153.4616 C   0  0  0  0  0  0  0  0  0  0  0  0
  146.5340  141.5913  154.1591 C   0  0  0  0  0  0  0  0  0  0  0  0
  146.8891  141.8433  155.4503 O   0  0  0  0  0  0  0  0  0  0  0  0
  152.7884  145.9658  158.6794 H   0  0  0  0  0  0  0  0  0  0  0  0
  151.2458  145.2340  159.1169 H   0  0  0  0  0  0  0  0  0  0  0  0
  152.1350  144.6583  157.6968 H   0  0  0  0  0  0  0  0  0  0  0  0
  151.3163  142.9847  160.1731 H   0  0  0  0  0  0  0  0  0  0  0  0
  154.1877  142.0943  160.3546 H   0  0  0  0  0  0  0  0  0  0  0  0
  152.9531  142.0665  161.6109 H   0  0  0  0  0  0  0  0  0  0  0  0
  153.5034  139.7709  160.3442 H   0  0  0  0  0  0  0  0  0  0  0  0
  151.8060  140.2192  160.5140 H   0  0  0  0  0  0  0  0  0  0  0  0
  153.5758  140.5506  158.0848 H   0  0  0  0  0  0  0  0  0  0  0  0
  151.9449  139.9083  158.1374 H   0  0  0  0  0  0  0  0  0  0  0  0
  152.7188  142.5833  157.5616 H   0  0  0  0  0  0  0  0  0  0  0  0
  150.0488  142.5811  158.5400 H   0  0  0  0  0  0  0  0  0  0  0  0
  149.6263  141.0292  154.0160 H   0  0  0  0  0  0  0  0  0  0  0  0
  147.7325  140.9664  152.4237 H   0  0  0  0  0  0  0  0  0  0  0  0
  145.4931  141.7053  153.8944 H   0  0  0  0  0  0  0  0  0  0  0  0
  1  2  1  0  0  0  0
  1 17  1  0  0  0  0
  1 18  1  0  0  0  0
  1 19  1  0  0  0  0
  2  3  1  0  0  0  0
  3  7  1  0  0  0  0
  3  4  1  0  0  0  0
  3 20  1  0  0  0  0
  4  5  1  0  0  0  0
  4 21  1  0  0  0  0
  4 22  1  0  0  0  0
  5  6  1  0  0  0  0
  5 23  1  0  0  0  0
  5 24  1  0  0  0  0
  6  7  1  0  0  0  0
  6 25  1  0  0  0  0
  6 26  1  0  0  0  0
  7  8  1  0  0  0  0
  7 27  1  0  0  0  0
  8 28  1  0  0  0  0
  8  9  1  0  0  0  0
  9 11  1  0  0  0  0
  9 10  2  0  0  0  0
 11 12  2  0  0  0  0
 12 16  1  0  0  0  0
 12 13  1  0  0  0  0
 13 29  1  0  0  0  0
 13 14  1  0  0  0  0
 14 30  1  0  0  0  0
 14 15  2  0  0  0  0
 15 31  1  0  0  0  0
 15 16  1  0  0  0  0
M  END
> <s_m_source_file>
AV-unprocessed.smi

> <i_m_source_file_index>
2784

> <i_lp_mmshare_version>
43012

> <i_f3d_flags>
0

> <s_epik_input>
W0NIM11PW0NAQEhdMVtDSDJdW0NIMl1bQ0gyXVtDQEhdMVtOSF1DKD1PKVtOSF1jMm5bY0hdW2NIXW8y

> <s_epik_cmdline>
J2VwaWtfcHl0aG9uJywgJy1waCcsICc3LjAnLCAnLXRuJywgJzgnLCAnLW1hJywgJzIwMCcsICctbWV0YWxfYmluZGluZycsICctaW1hZScsICc8aW5maWxlLm1hZT4nLCAnLW9tYWUnLCAnPG91dGZpbGUubWFlPic=

> <r_lp_tautomer_probability>
0.107061

> <r_epik_Ionization_Penalty>
1.29244

> <r_epik_Ionization_Penalty_Charging>
1.29208

> <r_epik_Ionization_Penalty_Neutral>
0.000359742

> <r_epik_State_Penalty>
2.59896

> <r_epik_Charging_Adjusted_Penalty>
3.89105

> <i_epik_Tot_Q>
0

> <i_epik_Tot_abs_Q>
0

> <r_epik_Metal_State_Penalty>
3.62496

> <b_epik_Metal_Only>
0

> <s_lp_Force_Field>
OPLS_2005

> <r_lp_Energy>
42.7812

> <b_lp_Chiralities_Consistent>
1

> <s_lp_Variant>
AV-unprocessed.smi:2784-9

> <Gold.Version>
5.8.1

> <Gold.Id.Protein>
6NUR|6NUR_protein|mol2

> <Gold.PLP.Fitness>
33.8608

> <Gold.PLP.PLP>
-27.9579

> <Gold.PLP.part.hbond>
-0.0516

> <Gold.PLP.part.metal>
0.0000

> <Gold.PLP.part.buried>
-5.0120

> <Gold.PLP.part.nonpolar>
-23.8981

> <Gold.PLP.part.repulsive>
0.4873

> <Gold.PLP.ligand.clash>
0.0000

> <Gold.PLP.ligand.torsion>
0.0518

> <Gold.PLP.Chemscore.Hbond>
0.0000

> <Gold.PLP.Chemscore.CHOScore>
2.0000

> <Gold.PLP.Chemscore.Metal>
0.0000

> <Gold.Chemscore.Hbonds>
donor molecule, donor type, donor heavy atom, donor atom, acceptor molecule, acceptor atom, score
      L1  C    14    30       P1  7957  1.00
      L1  C    15    31       P1 10175  0.76

> <Gold.PLP.Chemscore.Internal.Correction>
0.0066

> <Gold.Rescore>
     Score         DG    S(hbond)    S(metal)    S(lipo)     H(rot)  DE(clash)    DE(int)     intcor
     10.92     -11.05       0.01        0.00      76.37       1.32       0.01       0.12       ----

> <Gold.Chemscore.Fitness>
10.9225

> <Gold.Chemscore.DG>
-11.0499

> <Gold.Chemscore.ZeroCoef>
-5.4800

> <Gold.Chemscore.Hbond>
0.0068

> <Gold.Chemscore.Metal>
0.0000

> <Gold.Chemscore.Lipo>
76.3695

> <Gold.Chemscore.Internal_Hbond>
0.0000

> <Gold.Chemscore.DEClash>
0.0106

> <Gold.Chemscore.DEInternal>
0.1168

> <Gold.Chemscore.Rot>
1.3235

> <Gold.Chemscore.Internal.Correction>
   9.000000E+99

> <Gold.Chemscore.Hbond.Weighted>
-0.0228

> <Gold.Chemscore.Metal.Weighted>
-0.0000

> <Gold.Chemscore.Lipo.Weighted>
-8.9352

> <Gold.Chemscore.Internal_Hbond.Weighted>
0.0000

> <Gold.Chemscore.DEClash.Weighted>
0.0106

> <Gold.Chemscore.DEInternal.Weighted>
0.1168

> <Gold.Chemscore.Rot.Weighted>
3.3882

> <Gold.Chemscore.Internal.Correction.Weighted>
   9.000000E+99

> <Gold.Protein.RotatedTorsions>
[ 6907 6896 6895 6894 ] final    8.23 input  -60.11 | X-H torsion
[ 7974 7965 7964 7962 ] final  -88.99 input  175.53 | X-H torsion
[ 8008 7997 7996 7995 ] final   -1.02 input   59.86 | X-H torsion
[ 10167 10162 10161 10158 ] final   31.91 input  -65.29 | X-H torsion
[ 10718 10713 10712 10709 ] final -179.32 input   66.30 | X-H torsion
[ 10763 10752 10751 10750 ] final  157.58 input  -60.55 | X-H torsion
[ 11005 11000 10999 10996 ] final  164.82 input  -57.11 | X-H torsion

> <Gold.Protein.ActiveResidues>
 VAL166  LYS551  ARG553  GLY616  TRP617  ASP618  TYR619  PRO620  LYS621  CYS622 
 ASP623  PHE694  ASN695  SER759  ASP760  ASP761  ALA762  ILE779  LEU786  VAL792 
 PHE793  MET794  SER795  GLU796  ALA797  LYS798  CYS799  TRP800  GLU811  SER814 

> <Gold.Protein.RotatedAtoms>
  151.7026  135.0927  160.0253 H   0  0  0  0  0  0  0  0  0  0  0  0  # atno 6907 bound_to 6896
  152.3711  133.6416  159.6096 H   0  0  0  0  0  0  0  0  0  0  0  0  # atno 6908 bound_to 6896
  150.7674  133.9185  159.3432 H   0  0  0  0  0  0  0  0  0  0  0  0  # atno 6909 bound_to 6896
  145.4458  140.9560  143.2050 H   0  0  0  0  0  0  0  0  0  0  0  0  # atno 7974 bound_to 7965
  154.6515  140.2570  155.7209 H   0  0  0  0  0  0  0  0  0  0  0  0  # atno 8008 bound_to 7997
  156.2577  140.2867  156.0871 H   0  0  0  0  0  0  0  0  0  0  0  0  # atno 8009 bound_to 7997
  155.1444  140.0381  157.2796 H   0  0  0  0  0  0  0  0  0  0  0  0  # atno 8010 bound_to 7997
  140.4546  144.0997  150.6199 H   0  0  0  0  0  0  0  0  0  0  0  0  # atno 10167 bound_to 10162
  156.8573  130.9740  151.3087 H   0  0  0  0  0  0  0  0  0  0  0  0  # atno 10718 bound_to 10713
  154.2025  135.2789  155.2986 H   0  0  0  0  0  0  0  0  0  0  0  0  # atno 10763 bound_to 10752
  154.5843  135.5580  153.7219 H   0  0  0  0  0  0  0  0  0  0  0  0  # atno 10764 bound_to 10752
  153.0084  135.6352  154.2163 H   0  0  0  0  0  0  0  0  0  0  0  0  # atno 10765 bound_to 10752
  140.2499  134.7985  157.3491 H   0  0  0  0  0  0  0  0  0  0  0  0  # atno 11005 bound_to 11000
  144.8092  139.5993  143.7037 LP  0  0  0  0  0  0  0  0  0  0  0  0  # atno 17320 bound_to 7965
  146.2531  139.6243  142.9413 LP  0  0  0  0  0  0  0  0  0  0  0  0  # atno 17321 bound_to 7965
  140.4166  143.2631  151.9767 LP  0  0  0  0  0  0  0  0  0  0  0  0  # atno 17342 bound_to 10162
  139.4800  144.5868  151.7839 LP  0  0  0  0  0  0  0  0  0  0  0  0  # atno 17343 bound_to 10162
  157.6270  130.8699  149.9206 LP  0  0  0  0  0  0  0  0  0  0  0  0  # atno 17370 bound_to 10713
  156.0795  130.3675  150.0608 LP  0  0  0  0  0  0  0  0  0  0  0  0  # atno 17371 bound_to 10713
  140.1569  134.4778  155.7922 LP  0  0  0  0  0  0  0  0  0  0  0  0  # atno 17394 bound_to 11000
  141.2202  133.6885  156.7476 LP  0  0  0  0  0  0  0  0  0  0  0  0  # atno 17395 bound_to 11000

$$$$
