AV-unprocessed.smi:2962|AV-procd|sdf|11318|dock9
  -GOLD-   2272016223D 1   1.00000     0.00000
 Structure written by MMmdl.
 37 38  0  0  0  0  0  0  0  0  2 V2000
  152.5946  138.3108  155.4898 C   0  0  0  0  0  0  0  0  0  0  0  0
  153.3393  139.0325  156.4545 O   0  0  0  0  0  0  0  0  0  0  0  0
  152.7531  138.9798  157.7452 C   0  0  0  0  0  0  0  0  0  0  0  0
  151.2900  139.4365  157.6637 C   0  0  0  0  0  0  0  0  0  0  0  0
  151.1710  140.8726  157.3763 N   0  0  0  0  0  0  0  0  0  0  0  0
  150.5998  141.5199  156.3232 C   0  0  0  0  0  0  0  0  0  0  0  0
  149.7924  140.7754  154.9458 S   0  0  0  0  0  0  0  0  0  0  0  0
  148.1307  141.5064  154.9338 C   0  0  1  0  0  0  0  0  0  0  0  0
  147.2767  140.8775  153.8220 C   0  0  0  0  0  0  0  0  0  0  0  0
  147.4502  141.3738  156.3022 C   0  0  0  0  0  0  0  0  0  0  0  0
  147.3294  142.4846  157.0342 N   0  0  0  0  0  0  0  0  0  0  0  0
  147.0542  140.2817  156.7043 O   0  0  0  0  0  0  0  0  0  0  0  0
  150.7448  142.8572  156.5289 N   0  3  0  0  0  0  0  0  0  0  0  0
  151.4272  143.0708  157.7281 C   0  0  0  0  0  0  0  0  0  0  0  0
  151.8132  144.2489  158.3598 C   0  0  0  0  0  0  0  0  0  0  0  0
  152.5027  144.1145  159.5829 C   0  0  0  0  0  0  0  0  0  0  0  0
  152.7835  142.8468  160.1328 C   0  0  0  0  0  0  0  0  0  0  0  0
  152.3864  141.6588  159.4845 C   0  0  0  0  0  0  0  0  0  0  0  0
  151.7050  141.8003  158.2763 C   0  0  0  0  0  0  0  0  0  0  0  0
  153.0784  138.3927  154.5167 H   0  0  0  0  0  0  0  0  0  0  0  0
  151.5819  138.7051  155.3960 H   0  0  0  0  0  0  0  0  0  0  0  0
  152.5363  137.2527  155.7487 H   0  0  0  0  0  0  0  0  0  0  0  0
  152.8007  137.9629  158.1376 H   0  0  0  0  0  0  0  0  0  0  0  0
  153.3080  139.6203  158.4322 H   0  0  0  0  0  0  0  0  0  0  0  0
  150.7728  138.8938  156.8720 H   0  0  0  0  0  0  0  0  0  0  0  0
  150.7561  139.2151  158.5883 H   0  0  0  0  0  0  0  0  0  0  0  0
  148.2503  142.5669  154.7065 H   0  0  0  0  0  0  0  0  0  0  0  0
  146.2726  141.3031  153.8041 H   0  0  0  0  0  0  0  0  0  0  0  0
  147.1804  139.7986  153.9504 H   0  0  0  0  0  0  0  0  0  0  0  0
  147.7234  141.0536  152.8429 H   0  0  0  0  0  0  0  0  0  0  0  0
  146.9022  142.4467  157.9480 H   0  0  0  0  0  0  0  0  0  0  0  0
  147.6817  143.3598  156.6736 H   0  0  0  0  0  0  0  0  0  0  0  0
  151.6008  145.2215  157.9404 H   0  0  0  0  0  0  0  0  0  0  0  0
  152.8236  145.0016  160.1095 H   0  0  0  0  0  0  0  0  0  0  0  0
  153.3149  142.7841  161.0714 H   0  0  0  0  0  0  0  0  0  0  0  0
  152.6072  140.6921  159.9128 H   0  0  0  0  0  0  0  0  0  0  0  0
  150.4079  143.5672  155.8915 H   0  0  0  0  0  0  0  0  0  0  0  0
  1  2  1  0  0  0  0
  1 20  1  0  0  0  0
  1 21  1  0  0  0  0
  1 22  1  0  0  0  0
  2  3  1  0  0  0  0
  3  4  1  0  0  0  0
  3 23  1  0  0  0  0
  3 24  1  0  0  0  0
  4  5  1  0  0  0  0
  4 25  1  0  0  0  0
  4 26  1  0  0  0  0
  5 19  1  0  0  0  0
  5  6  1  0  0  0  0
  6  7  1  0  0  0  0
  6 13  2  0  0  0  0
  7  8  1  0  0  0  0
  8  9  1  0  0  0  0
  8 10  1  0  0  0  0
  8 27  1  0  0  0  0
  9 28  1  0  0  0  0
  9 29  1  0  0  0  0
  9 30  1  0  0  0  0
 10 11  1  0  0  0  0
 10 12  2  0  0  0  0
 11 31  1  0  0  0  0
 11 32  1  0  0  0  0
 13 14  1  0  0  0  0
 13 37  1  0  0  0  0
 14 19  2  0  0  0  0
 14 15  1  0  0  0  0
 15 16  2  0  0  0  0
 15 33  1  0  0  0  0
 16 17  1  0  0  0  0
 16 34  1  0  0  0  0
 17 18  2  0  0  0  0
 17 35  1  0  0  0  0
 18 19  1  0  0  0  0
 18 36  1  0  0  0  0
M  CHG  1  13   1
M  END
> <s_m_source_file>
AV-unprocessed.smi

> <i_m_source_file_index>
2962

> <i_lp_mmshare_version>
43012

> <i_f3d_flags>
0

> <s_epik_input>
W2NIXTFbY0hdW2NIXVtjSF1jKGMxMiluKFtDSDJdW0NIMl1PW0NIM10pYyhuMilTW0NASF0oW0NIM10pQyg9TylbTkgyXQ==

> <s_epik_cmdline>
J2VwaWtfcHl0aG9uJywgJy1waCcsICc3LjAnLCAnLXRuJywgJzgnLCAnLW1hJywgJzIwMCcsICctbWV0YWxfYmluZGluZycsICctaW1hZScsICc8aW5maWxlLm1hZT4nLCAnLW9tYWUnLCAnPG91dGZpbGUubWFlPic=

> <r_epik_Ionization_Penalty>
2.01771

> <r_epik_Ionization_Penalty_Charging>
2.01771

> <r_epik_Ionization_Penalty_Neutral>
3.318e-07

> <r_epik_State_Penalty>
2.14773

> <r_epik_Charging_Adjusted_Penalty>
4.16544

> <i_epik_Tot_Q>
1

> <i_epik_Tot_abs_Q>
1

> <r_epik_Metal_State_Penalty>
2.1675

> <b_epik_Metal_Only>
0

> <s_lp_Force_Field>
OPLS_2005

> <r_lp_Energy>
8.26224

> <b_lp_Chiralities_Consistent>
1

> <s_lp_Variant>
AV-unprocessed.smi:2962-4

> <Gold.Version>
5.8.1

> <Gold.Id.Protein>
6NUR|6NUR_protein|mol2

> <Gold.PLP.Fitness>
49.3504

> <Gold.PLP.PLP>
-41.2728

> <Gold.PLP.part.hbond>
-2.8593

> <Gold.PLP.part.metal>
0.0000

> <Gold.PLP.part.buried>
-3.5151

> <Gold.PLP.part.nonpolar>
-35.5160

> <Gold.PLP.part.repulsive>
0.0917

> <Gold.PLP.ligand.clash>
0.0000

> <Gold.PLP.ligand.torsion>
0.2707

> <Gold.PLP.Chemscore.Hbond>
2.8540

> <Gold.PLP.Chemscore.CHOScore>
0.0000

> <Gold.PLP.Chemscore.Metal>
0.0000

> <Gold.Chemscore.Hbonds>
donor molecule, donor type, donor heavy atom, donor atom, acceptor molecule, acceptor atom, score
      L1  H    11    32       P1  8028  0.38
      L1  H    13    37       P1  8028  1.60
      P1  H  7997  8009       L1     2  0.86

> <Gold.PLP.Chemscore.Internal.Correction>
0.0570

> <Gold.Rescore>
     Score         DG    S(hbond)    S(metal)    S(lipo)     H(rot)  DE(clash)    DE(int)     intcor
     16.55     -16.61       1.80        0.00      99.97       2.57       0.00       0.07       ----

> <Gold.Chemscore.Fitness>
16.5453

> <Gold.Chemscore.DG>
-16.6138

> <Gold.Chemscore.ZeroCoef>
-5.4800

> <Gold.Chemscore.Hbond>
1.8030

> <Gold.Chemscore.Metal>
0.0000

> <Gold.Chemscore.Lipo>
99.9723

> <Gold.Chemscore.Internal_Hbond>
0.0000

> <Gold.Chemscore.DEClash>
0.0000

> <Gold.Chemscore.DEInternal>
0.0685

> <Gold.Chemscore.Rot>
2.5723

> <Gold.Chemscore.Internal.Correction>
   9.000000E+99

> <Gold.Chemscore.Hbonds>
donor molecule, donor type, donor heavy atom, donor atom, acceptor molecule, acceptor atom, score
      L1  H    11    32       P1  8028  0.01
      L1  H    13    37       P1  8028  0.79
      P1  H  7997  8009       L1     2  0.70

> <Gold.Chemscore.Hbond.Weighted>
-6.0220

> <Gold.Chemscore.Metal.Weighted>
-0.0000

> <Gold.Chemscore.Lipo.Weighted>
-11.6968

> <Gold.Chemscore.Internal_Hbond.Weighted>
0.0000

> <Gold.Chemscore.DEClash.Weighted>
0.0000

> <Gold.Chemscore.DEInternal.Weighted>
0.0685

> <Gold.Chemscore.Rot.Weighted>
6.5850

> <Gold.Chemscore.Internal.Correction.Weighted>
   9.000000E+99

> <Gold.Protein.RotatedTorsions>
[ 6907 6896 6895 6894 ] final   -0.97 input  -60.11 | X-H torsion
[ 7974 7965 7964 7962 ] final   50.67 input  175.53 | X-H torsion
[ 8008 7997 7996 7995 ] final -161.46 input   59.86 | X-H torsion
[ 10167 10162 10161 10158 ] final  -71.94 input  -65.29 | X-H torsion
[ 10718 10713 10712 10709 ] final  -34.45 input   66.30 | X-H torsion
[ 10763 10752 10751 10750 ] final -128.13 input  -60.55 | X-H torsion
[ 11005 11000 10999 10996 ] final -129.34 input  -57.11 | X-H torsion

> <Gold.Protein.ActiveResidues>
 VAL166  LYS551  ARG553  GLY616  TRP617  ASP618  TYR619  PRO620  LYS621  CYS622 
 ASP623  PHE694  ASN695  SER759  ASP760  ASP761  ALA762  ILE779  LEU786  VAL792 
 PHE793  MET794  SER795  GLU796  ALA797  LYS798  CYS799  TRP800  GLU811  SER814 

> <Gold.Protein.RotatedAtoms>
  151.5536  135.1067  159.9955 H   0  0  0  0  0  0  0  0  0  0  0  0  # atno 6907 bound_to 6896
  152.4480  133.7569  159.6736 H   0  0  0  0  0  0  0  0  0  0  0  0  # atno 6908 bound_to 6896
  150.8400  133.7884  159.3088 H   0  0  0  0  0  0  0  0  0  0  0  0  # atno 6909 bound_to 6896
  145.9989  139.4418  143.0027 H   0  0  0  0  0  0  0  0  0  0  0  0  # atno 7974 bound_to 7965
  155.7926  140.0880  157.2001 H   0  0  0  0  0  0  0  0  0  0  0  0  # atno 8008 bound_to 7997
  154.3985  140.1487  156.3238 H   0  0  0  0  0  0  0  0  0  0  0  0  # atno 8009 bound_to 7997
  155.8544  140.3433  155.5717 H   0  0  0  0  0  0  0  0  0  0  0  0  # atno 8010 bound_to 7997
  140.5233  143.2329  151.7392 H   0  0  0  0  0  0  0  0  0  0  0  0  # atno 10167 bound_to 10162
  156.3504  130.4307  149.7709 H   0  0  0  0  0  0  0  0  0  0  0  0  # atno 10718 bound_to 10713
  154.8755  135.3939  154.3706 H   0  0  0  0  0  0  0  0  0  0  0  0  # atno 10763 bound_to 10752
  153.4466  135.7027  153.6140 H   0  0  0  0  0  0  0  0  0  0  0  0  # atno 10764 bound_to 10752
  153.4698  135.3793  155.2353 H   0  0  0  0  0  0  0  0  0  0  0  0  # atno 10765 bound_to 10752
  140.9440  134.1155  157.4125 H   0  0  0  0  0  0  0  0  0  0  0  0  # atno 11005 bound_to 11000
  145.7517  140.9970  143.1247 LP  0  0  0  0  0  0  0  0  0  0  0  0  # atno 17320 bound_to 7965
  144.6913  139.9223  143.7468 LP  0  0  0  0  0  0  0  0  0  0  0  0  # atno 17321 bound_to 7965
  139.4930  144.4223  151.9964 LP  0  0  0  0  0  0  0  0  0  0  0  0  # atno 17342 bound_to 10162
  140.3321  144.3304  150.5985 LP  0  0  0  0  0  0  0  0  0  0  0  0  # atno 17343 bound_to 10162
  156.4912  130.8086  151.3095 LP  0  0  0  0  0  0  0  0  0  0  0  0  # atno 17370 bound_to 10713
  157.7460  130.9974  150.2817 LP  0  0  0  0  0  0  0  0  0  0  0  0  # atno 17371 bound_to 10713
  139.8828  135.0045  156.6256 LP  0  0  0  0  0  0  0  0  0  0  0  0  # atno 17394 bound_to 11000
  140.7695  133.8750  155.8481 LP  0  0  0  0  0  0  0  0  0  0  0  0  # atno 17395 bound_to 11000

$$$$
