AV-unprocessed.smi:3253|AV-procd|sdf|12451|dock8
  -GOLD-   2272018343D 1   1.00000     0.00000
 Structure written by MMmdl.
 36 37  0  0  0  0  0  0  0  0  1 V2000
  150.8309  139.1940  156.1310 C   0  0  0  0  0  0  0  0  0  0  0  0
  150.2978  140.6360  156.1153 C   0  0  2  0  0  0  0  0  0  0  0  0
  149.9495  141.1388  154.6969 C   0  0  0  0  0  0  0  0  0  0  0  0
  148.5205  141.1767  154.4502 N   0  0  0  0  0  0  0  0  0  0  0  0
  147.8044  140.4155  153.5355 C   0  0  0  0  0  0  0  0  0  0  0  0
  146.4868  140.7958  153.6542 C   0  0  0  0  0  0  0  0  0  0  0  0
  146.3706  141.7873  154.6255 N   0  0  0  0  0  0  0  0  0  0  0  0
  147.6155  141.9623  155.0498 C   0  0  0  0  0  0  0  0  0  0  0  0
  151.2834  141.5171  156.7349 N   0  0  0  0  0  0  0  0  0  0  0  0
  151.0362  142.3775  157.7350 C   0  0  0  0  0  0  0  0  0  0  0  0
  149.9237  142.5206  158.2432 O   0  0  0  0  0  0  0  0  0  0  0  0
  152.2296  143.2044  158.2382 C   0  0  1  0  0  0  0  0  0  0  0  0
  151.9214  144.7155  158.2106 C   0  0  0  0  0  0  0  0  0  0  0  0
  151.8904  145.1126  159.6770 C   0  0  0  0  0  0  0  0  0  0  0  0
  151.5824  146.2412  160.0571 O   0  0  0  0  0  0  0  0  0  0  0  0
  152.2288  144.0836  160.4584 N   0  0  0  0  0  0  0  0  0  0  0  0
  152.3000  144.1071  161.9130 C   0  0  0  0  0  0  0  0  0  0  0  0
  152.5842  142.8911  159.7088 C   0  0  0  0  0  0  0  0  0  0  0  0
  150.0870  138.4877  155.7618 H   0  0  0  0  0  0  0  0  0  0  0  0
  151.0937  138.8846  157.1431 H   0  0  0  0  0  0  0  0  0  0  0  0
  151.7218  139.0942  155.5101 H   0  0  0  0  0  0  0  0  0  0  0  0
  149.3908  140.6529  156.7229 H   0  0  0  0  0  0  0  0  0  0  0  0
  150.3441  142.1435  154.5385 H   0  0  0  0  0  0  0  0  0  0  0  0
  150.4134  140.4998  153.9442 H   0  0  0  0  0  0  0  0  0  0  0  0
  148.2773  139.6848  152.8961 H   0  0  0  0  0  0  0  0  0  0  0  0
  145.6208  140.4362  153.1186 H   0  0  0  0  0  0  0  0  0  0  0  0
  147.8755  142.6768  155.8170 H   0  0  0  0  0  0  0  0  0  0  0  0
  152.2265  141.4664  156.3775 H   0  0  0  0  0  0  0  0  0  0  0  0
  153.0959  142.9975  157.6072 H   0  0  0  0  0  0  0  0  0  0  0  0
  152.7109  145.2689  157.7012 H   0  0  0  0  0  0  0  0  0  0  0  0
  150.9736  144.9620  157.7292 H   0  0  0  0  0  0  0  0  0  0  0  0
  153.0531  144.8219  162.2466 H   0  0  0  0  0  0  0  0  0  0  0  0
  152.5643  143.1264  162.3097 H   0  0  0  0  0  0  0  0  0  0  0  0
  151.3386  144.3960  162.3389 H   0  0  0  0  0  0  0  0  0  0  0  0
  152.0546  142.0212  160.1015 H   0  0  0  0  0  0  0  0  0  0  0  0
  153.6529  142.7016  159.8173 H   0  0  0  0  0  0  0  0  0  0  0  0
  1  2  1  0  0  0  0
  1 19  1  0  0  0  0
  1 20  1  0  0  0  0
  1 21  1  0  0  0  0
  2  3  1  0  0  0  0
  2  9  1  0  0  0  0
  2 22  1  0  0  0  0
  3  4  1  0  0  0  0
  3 23  1  0  0  0  0
  3 24  1  0  0  0  0
  4  8  1  0  0  0  0
  4  5  1  0  0  0  0
  5  6  2  0  0  0  0
  5 25  1  0  0  0  0
  6  7  1  0  0  0  0
  6 26  1  0  0  0  0
  7  8  2  0  0  0  0
  8 27  1  0  0  0  0
  9 10  1  0  0  0  0
  9 28  1  0  0  0  0
 10 11  2  0  0  0  0
 10 12  1  0  0  0  0
 12 18  1  0  0  0  0
 12 13  1  0  0  0  0
 12 29  1  0  0  0  0
 13 14  1  0  0  0  0
 13 30  1  0  0  0  0
 13 31  1  0  0  0  0
 14 15  2  0  0  0  0
 14 16  1  0  0  0  0
 16 17  1  0  0  0  0
 16 18  1  0  0  0  0
 17 32  1  0  0  0  0
 17 33  1  0  0  0  0
 17 34  1  0  0  0  0
 18 35  1  0  0  0  0
 18 36  1  0  0  0  0
M  END
> <s_m_source_file>
AV-unprocessed.smi

> <i_m_source_file_index>
3253

> <i_lp_mmshare_version>
43012

> <i_f3d_flags>
0

> <s_epik_input>
W2NIXTFuW2NIXVtjSF1uMVtDSDJdW0NAQEhdKFtDSDNdKVtOSF1DKD1PKVtDQEBIXTJbQ0gyXUMoPU8pTihbQ0gzXSlbQ0gyXTI=

> <s_epik_cmdline>
J2VwaWtfcHl0aG9uJywgJy1waCcsICc3LjAnLCAnLXRuJywgJzgnLCAnLW1hJywgJzIwMCcsICctbWV0YWxfYmluZGluZycsICctaW1hZScsICc8aW5maWxlLm1hZT4nLCAnLW9tYWUnLCAnPG91dGZpbGUubWFlPic=

> <r_lp_tautomer_probability>
1

> <r_epik_Ionization_Penalty>
0.628884

> <r_epik_Ionization_Penalty_Charging>
0.628884

> <r_epik_Ionization_Penalty_Neutral>
2.35084e-08

> <r_epik_State_Penalty>
0.64556

> <r_epik_Charging_Adjusted_Penalty>
1.27444

> <i_epik_Tot_Q>
0

> <i_epik_Tot_abs_Q>
0

> <r_epik_Metal_State_Penalty>
0.308736

> <b_epik_Metal_Only>
0

> <s_lp_Force_Field>
OPLS_2005

> <r_lp_Energy>
12.6609

> <b_lp_Chiralities_Consistent>
1

> <s_lp_Variant>
AV-unprocessed.smi:3253-7

> <Gold.Version>
5.8.1

> <Gold.Id.Protein>
6NUR|6NUR_protein|mol2

> <Gold.PLP.Fitness>
45.1601

> <Gold.PLP.PLP>
-37.8460

> <Gold.PLP.part.hbond>
-2.0000

> <Gold.PLP.part.metal>
0.0000

> <Gold.PLP.part.buried>
1.9636

> <Gold.PLP.part.nonpolar>
-37.4601

> <Gold.PLP.part.repulsive>
0.6146

> <Gold.PLP.ligand.clash>
0.0000

> <Gold.PLP.ligand.torsion>
0.8229

> <Gold.PLP.Chemscore.Hbond>
0.0000

> <Gold.PLP.Chemscore.CHOScore>
2.9762

> <Gold.PLP.Chemscore.Metal>
0.0000

> <Gold.Chemscore.Hbonds>
donor molecule, donor type, donor heavy atom, donor atom, acceptor molecule, acceptor atom, score
      L1  C     5    25       P1  7957  0.97
      L1  C     6    26       P1 10175  1.00
      L1  C     8    27       P1  8028  1.00

> <Gold.PLP.Chemscore.Internal.Correction>
0.0312

> <Gold.Rescore>
     Score         DG    S(hbond)    S(metal)    S(lipo)     H(rot)  DE(clash)    DE(int)     intcor
      8.65      -9.63       0.00        0.00      78.49       1.97       0.12       0.86       ----

> <Gold.Chemscore.Fitness>
8.6464

> <Gold.Chemscore.DG>
-9.6276

> <Gold.Chemscore.ZeroCoef>
-5.4800

> <Gold.Chemscore.Hbond>
0.0000

> <Gold.Chemscore.Metal>
0.0000

> <Gold.Chemscore.Lipo>
78.4854

> <Gold.Chemscore.Internal_Hbond>
0.0000

> <Gold.Chemscore.DEClash>
0.1169

> <Gold.Chemscore.DEInternal>
0.8644

> <Gold.Chemscore.Rot>
1.9669

> <Gold.Chemscore.Internal.Correction>
   9.000000E+99

> <Gold.Chemscore.Hbond.Weighted>
-0.0000

> <Gold.Chemscore.Metal.Weighted>
-0.0000

> <Gold.Chemscore.Lipo.Weighted>
-9.1828

> <Gold.Chemscore.Internal_Hbond.Weighted>
0.0000

> <Gold.Chemscore.DEClash.Weighted>
0.1169

> <Gold.Chemscore.DEInternal.Weighted>
0.8644

> <Gold.Chemscore.Rot.Weighted>
5.0352

> <Gold.Chemscore.Internal.Correction.Weighted>
   9.000000E+99

> <Gold.Protein.RotatedTorsions>
[ 6907 6896 6895 6894 ] final -171.95 input  -60.11 | X-H torsion
[ 7974 7965 7964 7962 ] final  173.72 input  175.53 | X-H torsion
[ 8008 7997 7996 7995 ] final  -46.62 input   59.86 | X-H torsion
[ 10167 10162 10161 10158 ] final  -37.69 input  -65.29 | X-H torsion
[ 10718 10713 10712 10709 ] final  143.86 input   66.30 | X-H torsion
[ 10763 10752 10751 10750 ] final  157.80 input  -60.55 | X-H torsion
[ 11005 11000 10999 10996 ] final   38.36 input  -57.11 | X-H torsion

> <Gold.Protein.ActiveResidues>
 VAL166  LYS551  ARG553  GLY616  TRP617  ASP618  TYR619  PRO620  LYS621  CYS622 
 ASP623  PHE694  ASN695  SER759  ASP760  ASP761  ALA762  ILE779  LEU786  VAL792 
 PHE793  MET794  SER795  GLU796  ALA797  LYS798  CYS799  TRP800  GLU811  SER814 

> <Gold.Protein.RotatedAtoms>
  151.5321  133.3447  159.2919 H   0  0  0  0  0  0  0  0  0  0  0  0  # atno 6907 bound_to 6896
  150.8587  134.7936  159.7077 H   0  0  0  0  0  0  0  0  0  0  0  0  # atno 6908 bound_to 6896
  152.4613  134.5186  159.9827 H   0  0  0  0  0  0  0  0  0  0  0  0  # atno 6909 bound_to 6896
  144.7237  139.9690  143.6436 H   0  0  0  0  0  0  0  0  0  0  0  0  # atno 7974 bound_to 7965
  154.4009  140.1367  156.4041 H   0  0  0  0  0  0  0  0  0  0  0  0  # atno 8008 bound_to 7997
  155.7796  140.3482  155.5270 H   0  0  0  0  0  0  0  0  0  0  0  0  # atno 8009 bound_to 7997
  155.8687  140.0968  157.1555 H   0  0  0  0  0  0  0  0  0  0  0  0  # atno 8010 bound_to 7997
  140.7112  143.3326  151.2535 H   0  0  0  0  0  0  0  0  0  0  0  0  # atno 10167 bound_to 10162
  157.3640  131.0969  151.0889 H   0  0  0  0  0  0  0  0  0  0  0  0  # atno 10718 bound_to 10713
  154.2060  135.2788  155.2975 H   0  0  0  0  0  0  0  0  0  0  0  0  # atno 10763 bound_to 10752
  154.5817  135.5587  153.7195 H   0  0  0  0  0  0  0  0  0  0  0  0  # atno 10764 bound_to 10752
  153.0076  135.6346  154.2198 H   0  0  0  0  0  0  0  0  0  0  0  0  # atno 10765 bound_to 10752
  140.2134  134.3728  155.8038 H   0  0  0  0  0  0  0  0  0  0  0  0  # atno 11005 bound_to 11000
  146.0578  139.3573  143.0600 LP  0  0  0  0  0  0  0  0  0  0  0  0  # atno 17320 bound_to 7965
  145.8132  140.9715  143.0937 LP  0  0  0  0  0  0  0  0  0  0  0  0  # atno 17321 bound_to 7965
  139.6812  143.9852  152.2809 LP  0  0  0  0  0  0  0  0  0  0  0  0  # atno 17342 bound_to 10162
  139.9482  144.6637  150.8198 LP  0  0  0  0  0  0  0  0  0  0  0  0  # atno 17343 bound_to 10162
  157.2018  130.6398  149.5741 LP  0  0  0  0  0  0  0  0  0  0  0  0  # atno 17370 bound_to 10713
  155.9743  130.4688  150.6374 LP  0  0  0  0  0  0  0  0  0  0  0  0  # atno 17371 bound_to 10713
  141.2225  133.7155  156.8455 LP  0  0  0  0  0  0  0  0  0  0  0  0  # atno 17394 bound_to 11000
  140.1927  134.8954  157.3078 LP  0  0  0  0  0  0  0  0  0  0  0  0  # atno 17395 bound_to 11000

$$$$
