AV-unprocessed.smi:1554|AV-procd|sdf|6255|dock9
  -GOLD-   22720 6443D 1   1.00000     0.00000
 Structure written by MMmdl.
 48 50  0  0  0  0  0  0  0  0  2 V2000
  152.8841  142.9023  161.8676 C   0  0  0  0  0  0  0  0  0  0  0  0
  152.4081  142.5254  160.4749 C   0  0  0  0  0  0  0  0  0  0  0  0
  152.5663  141.1878  160.0471 C   0  0  0  0  0  0  0  0  0  0  0  0
  152.1200  140.8738  158.7689 C   0  0  0  0  0  0  0  0  0  0  0  0
  152.1299  139.6656  158.0688 N   0  3  0  0  0  0  0  0  0  0  0  0
  151.5797  139.8498  156.8369 C   0  0  0  0  0  0  0  0  0  0  0  0
  151.2194  141.1581  156.7391 N   0  0  0  0  0  0  0  0  0  0  0  0
  150.5875  141.8751  155.6216 C   0  0  0  0  0  0  0  0  0  0  0  0
  149.4965  141.0460  154.9157 C   0  0  1  0  0  0  0  0  0  0  0  0
  150.0978  140.1715  153.9815 O   0  0  0  0  0  0  0  0  0  0  0  0
  148.6895  140.2022  155.9224 C   0  0  0  0  0  0  0  0  0  0  0  0
  147.6134  140.9088  156.6200 N   0  0  0  0  0  0  0  0  0  0  0  0
  148.1087  141.8846  157.5892 C   0  0  0  0  0  0  0  0  0  0  0  0
  146.9599  142.5908  158.3298 C   0  0  0  0  0  0  0  0  0  0  0  0
  146.1273  141.6220  158.9585 O   0  0  0  0  0  0  0  0  0  0  0  0
  145.5816  140.6783  158.0410 C   0  0  2  0  0  0  0  0  0  0  0  0
  144.7013  139.6980  158.8236 C   0  0  0  0  0  0  0  0  0  0  0  0
  146.7353  139.9674  157.3072 C   0  0  0  0  0  0  0  0  0  0  0  0
  151.5360  141.8364  157.9225 C   0  0  0  0  0  0  0  0  0  0  0  0
  151.3721  143.1584  158.3294 C   0  0  0  0  0  0  0  0  0  0  0  0
  151.8167  143.4977  159.6273 C   0  0  0  0  0  0  0  0  0  0  0  0
  151.6483  144.9323  160.0982 C   0  0  0  0  0  0  0  0  0  0  0  0
  153.3443  142.0541  162.3752 H   0  0  0  0  0  0  0  0  0  0  0  0
  152.0478  143.2426  162.4788 H   0  0  0  0  0  0  0  0  0  0  0  0
  153.6243  143.7009  161.8173 H   0  0  0  0  0  0  0  0  0  0  0  0
  153.0138  140.4416  160.6874 H   0  0  0  0  0  0  0  0  0  0  0  0
  151.4530  139.0944  156.0749 H   0  0  0  0  0  0  0  0  0  0  0  0
  150.1959  142.8278  155.9794 H   0  0  0  0  0  0  0  0  0  0  0  0
  151.3799  142.1197  154.9130 H   0  0  0  0  0  0  0  0  0  0  0  0
  148.8445  141.7314  154.3757 H   0  0  0  0  0  0  0  0  0  0  0  0
  149.6149  140.2278  153.1704 H   0  0  0  0  0  0  0  0  0  0  0  0
  148.2696  139.3505  155.3847 H   0  0  0  0  0  0  0  0  0  0  0  0
  149.3711  139.7766  156.6605 H   0  0  0  0  0  0  0  0  0  0  0  0
  148.7557  141.3901  158.3154 H   0  0  0  0  0  0  0  0  0  0  0  0
  148.7146  142.6421  157.0945 H   0  0  0  0  0  0  0  0  0  0  0  0
  147.3560  143.2657  159.0886 H   0  0  0  0  0  0  0  0  0  0  0  0
  146.3694  143.1956  157.6398 H   0  0  0  0  0  0  0  0  0  0  0  0
  144.9593  141.2073  157.3170 H   0  0  0  0  0  0  0  0  0  0  0  0
  144.2529  138.9572  158.1610 H   0  0  0  0  0  0  0  0  0  0  0  0
  143.8919  140.2223  159.3321 H   0  0  0  0  0  0  0  0  0  0  0  0
  145.2800  139.1653  159.5788 H   0  0  0  0  0  0  0  0  0  0  0  0
  146.3204  139.2597  156.5885 H   0  0  0  0  0  0  0  0  0  0  0  0
  147.3132  139.3803  158.0231 H   0  0  0  0  0  0  0  0  0  0  0  0
  150.9171  143.8977  157.6871 H   0  0  0  0  0  0  0  0  0  0  0  0
  151.1226  145.5361  159.3577 H   0  0  0  0  0  0  0  0  0  0  0  0
  152.6211  145.3918  160.2742 H   0  0  0  0  0  0  0  0  0  0  0  0
  151.0739  144.9692  161.0240 H   0  0  0  0  0  0  0  0  0  0  0  0
  152.4841  138.7791  158.4048 H   0  0  0  0  0  0  0  0  0  0  0  0
  1  2  1  0  0  0  0
  1 23  1  0  0  0  0
  1 24  1  0  0  0  0
  1 25  1  0  0  0  0
  2 21  1  0  0  0  0
  2  3  2  0  0  0  0
  3  4  1  0  0  0  0
  3 26  1  0  0  0  0
  4 19  2  0  0  0  0
  4  5  1  0  0  0  0
  5  6  2  0  0  0  0
  5 48  1  0  0  0  0
  6  7  1  0  0  0  0
  6 27  1  0  0  0  0
  7  8  1  0  0  0  0
  7 19  1  0  0  0  0
  8  9  1  0  0  0  0
  8 28  1  0  0  0  0
  8 29  1  0  0  0  0
  9 10  1  0  0  0  0
  9 11  1  0  0  0  0
  9 30  1  0  0  0  0
 10 31  1  0  0  0  0
 11 12  1  0  0  0  0
 11 32  1  0  0  0  0
 11 33  1  0  0  0  0
 12 18  1  0  0  0  0
 12 13  1  0  0  0  0
 13 14  1  0  0  0  0
 13 34  1  0  0  0  0
 13 35  1  0  0  0  0
 14 15  1  0  0  0  0
 14 36  1  0  0  0  0
 14 37  1  0  0  0  0
 15 16  1  0  0  0  0
 16 17  1  0  0  0  0
 16 18  1  0  0  0  0
 16 38  1  0  0  0  0
 17 39  1  0  0  0  0
 17 40  1  0  0  0  0
 17 41  1  0  0  0  0
 18 42  1  0  0  0  0
 18 43  1  0  0  0  0
 19 20  1  0  0  0  0
 20 21  2  0  0  0  0
 20 44  1  0  0  0  0
 21 22  1  0  0  0  0
 22 45  1  0  0  0  0
 22 46  1  0  0  0  0
 22 47  1  0  0  0  0
M  CHG  1   5   1
M  END
> <s_m_source_file>
AV-unprocessed.smi

> <i_m_source_file_index>
1554

> <i_lp_mmshare_version>
43012

> <i_f3d_flags>
0

> <s_epik_input>
W0NIM11jKFtjSF0xKWMoW0NIM10pW2NIXWMoYzEyKW4oW2NIXW4yKVtDSDJdW0NASF0oW09IXSlbQ0gyXU4zW0NIMl1bQ0gyXU9bQ0BASF0oW0NIM10pW0NIMl0z

> <s_epik_cmdline>
J2VwaWtfcHl0aG9uJywgJy1waCcsICc3LjAnLCAnLXRuJywgJzgnLCAnLW1hJywgJzIwMCcsICctbWV0YWxfYmluZGluZycsICctaW1hZScsICc8aW5maWxlLm1hZT4nLCAnLW9tYWUnLCAnPG91dGZpbGUubWFlPic=

> <r_epik_Ionization_Penalty>
1.42504

> <r_epik_Ionization_Penalty_Charging>
1.21068

> <r_epik_Ionization_Penalty_Neutral>
0.214359

> <r_epik_State_Penalty>
1.46962

> <r_epik_Charging_Adjusted_Penalty>
2.6803

> <i_epik_Tot_Q>
1

> <i_epik_Tot_abs_Q>
1

> <r_epik_Metal_State_Penalty>
5.48754

> <b_epik_Metal_Only>
0

> <s_lp_Force_Field>
OPLS_2005

> <r_lp_Energy>
34.6572

> <b_lp_Chiralities_Consistent>
1

> <s_lp_Variant>
AV-unprocessed.smi:1554-16

> <Gold.Version>
5.8.1

> <Gold.Id.Protein>
6NUR|6NUR_protein|mol2

> <Gold.PLP.Fitness>
46.7201

> <Gold.PLP.PLP>
-40.3062

> <Gold.PLP.part.hbond>
-3.0000

> <Gold.PLP.part.metal>
0.0000

> <Gold.PLP.part.buried>
-5.5853

> <Gold.PLP.part.nonpolar>
-31.2088

> <Gold.PLP.part.repulsive>
0.1374

> <Gold.PLP.ligand.clash>
0.0000

> <Gold.PLP.ligand.torsion>
0.8120

> <Gold.PLP.Chemscore.Hbond>
2.6720

> <Gold.PLP.Chemscore.CHOScore>
0.0000

> <Gold.PLP.Chemscore.Metal>
0.0000

> <Gold.Chemscore.Hbonds>
donor molecule, donor type, donor heavy atom, donor atom, acceptor molecule, acceptor atom, score
      L1  H    10    31       P1  7957  0.96
      P1  H  6934  6946       L1    15  0.77
      P1  H  7989  7998       L1    10  0.84

> <Gold.PLP.Chemscore.Internal.Correction>
0.0218

> <Gold.Rescore>
     Score         DG    S(hbond)    S(metal)    S(lipo)     H(rot)  DE(clash)    DE(int)     intcor
     17.12     -18.25       1.79        0.00     102.90       2.04       0.45       0.69       ----

> <Gold.Chemscore.Fitness>
17.1193

> <Gold.Chemscore.DG>
-18.2535

> <Gold.Chemscore.ZeroCoef>
-5.4800

> <Gold.Chemscore.Hbond>
1.7857

> <Gold.Chemscore.Metal>
0.0000

> <Gold.Chemscore.Lipo>
102.8951

> <Gold.Chemscore.Internal_Hbond>
0.0000

> <Gold.Chemscore.DEClash>
0.4490

> <Gold.Chemscore.DEInternal>
0.6852

> <Gold.Chemscore.Rot>
2.0427

> <Gold.Chemscore.Internal.Correction>
   9.000000E+99

> <Gold.Chemscore.Hbonds>
donor molecule, donor type, donor heavy atom, donor atom, acceptor molecule, acceptor atom, score
      L1  H    10    31       P1  7957  0.87
      P1  H  6934  6946       L1    15  0.60
      P1  H  7989  7998       L1    10  0.12

> <Gold.Chemscore.Hbond.Weighted>
-5.9642

> <Gold.Chemscore.Metal.Weighted>
-0.0000

> <Gold.Chemscore.Lipo.Weighted>
-12.0387

> <Gold.Chemscore.Internal_Hbond.Weighted>
0.0000

> <Gold.Chemscore.DEClash.Weighted>
0.4490

> <Gold.Chemscore.DEInternal.Weighted>
0.6852

> <Gold.Chemscore.Rot.Weighted>
5.2294

> <Gold.Chemscore.Internal.Correction.Weighted>
   9.000000E+99

> <Gold.Protein.RotatedTorsions>
[ 6907 6896 6895 6894 ] final  -86.69 input  -60.11 | X-H torsion
[ 7974 7965 7964 7962 ] final   73.98 input  175.53 | X-H torsion
[ 8008 7997 7996 7995 ] final  115.13 input   59.86 | X-H torsion
[ 10167 10162 10161 10158 ] final  -50.24 input  -65.29 | X-H torsion
[ 10718 10713 10712 10709 ] final -178.10 input   66.30 | X-H torsion
[ 10763 10752 10751 10750 ] final  132.90 input  -60.55 | X-H torsion
[ 11005 11000 10999 10996 ] final   86.28 input  -57.11 | X-H torsion

> <Gold.Protein.ActiveResidues>
 VAL166  LYS551  ARG553  GLY616  TRP617  ASP618  TYR619  PRO620  LYS621  CYS622 
 ASP623  PHE694  ASN695  SER759  ASP760  ASP761  ALA762  ILE779  LEU786  VAL792 
 PHE793  MET794  SER795  GLU796  ALA797  LYS798  CYS799  TRP800  GLU811  SER814 

> <Gold.Protein.RotatedAtoms>
  150.6866  134.3011  159.4706 H   0  0  0  0  0  0  0  0  0  0  0  0  # atno 6907 bound_to 6896
  152.0907  134.9406  160.0581 H   0  0  0  0  0  0  0  0  0  0  0  0  # atno 6908 bound_to 6896
  152.0723  133.4078  159.4502 H   0  0  0  0  0  0  0  0  0  0  0  0  # atno 6909 bound_to 6896
  145.7340  139.2695  143.1525 H   0  0  0  0  0  0  0  0  0  0  0  0  # atno 7974 bound_to 7965
  156.2363  140.2945  156.0321 H   0  0  0  0  0  0  0  0  0  0  0  0  # atno 8008 bound_to 7997
  155.2083  140.0412  157.2946 H   0  0  0  0  0  0  0  0  0  0  0  0  # atno 8009 bound_to 7997
  154.6084  140.2445  155.7708 H   0  0  0  0  0  0  0  0  0  0  0  0  # atno 8010 bound_to 7997
  140.6647  143.2665  151.4331 H   0  0  0  0  0  0  0  0  0  0  0  0  # atno 10167 bound_to 10162
  156.8393  130.9680  151.3101 H   0  0  0  0  0  0  0  0  0  0  0  0  # atno 10718 bound_to 10713
  153.7983  135.3145  155.3387 H   0  0  0  0  0  0  0  0  0  0  0  0  # atno 10763 bound_to 10752
  154.8099  135.4674  154.0492 H   0  0  0  0  0  0  0  0  0  0  0  0  # atno 10764 bound_to 10752
  153.1831  135.6897  153.8538 H   0  0  0  0  0  0  0  0  0  0  0  0  # atno 10765 bound_to 10752
  139.8949  134.8344  156.2698 H   0  0  0  0  0  0  0  0  0  0  0  0  # atno 11005 bound_to 11000
  146.0510  140.8069  142.9781 LP  0  0  0  0  0  0  0  0  0  0  0  0  # atno 17320 bound_to 7965
  144.6886  140.3053  143.7257 LP  0  0  0  0  0  0  0  0  0  0  0  0  # atno 17321 bound_to 7965
  139.5892  144.1537  152.2067 LP  0  0  0  0  0  0  0  0  0  0  0  0  # atno 17342 bound_to 10162
  140.0886  144.5640  150.7070 LP  0  0  0  0  0  0  0  0  0  0  0  0  # atno 17343 bound_to 10162
  157.6364  130.8770  149.9368 LP  0  0  0  0  0  0  0  0  0  0  0  0  # atno 17370 bound_to 10713
  156.0890  130.3665  150.0432 LP  0  0  0  0  0  0  0  0  0  0  0  0  # atno 17371 bound_to 10713
  141.0108  133.7097  156.1108 LP  0  0  0  0  0  0  0  0  0  0  0  0  # atno 17394 bound_to 11000
  140.7370  134.4192  157.5559 LP  0  0  0  0  0  0  0  0  0  0  0  0  # atno 17395 bound_to 11000

$$$$
