AV-unprocessed.smi:227|AV-procd|sdf|1735|dock3
  -GOLD-   2262020233D 1   1.00000     0.00000
 Structure written by MMmdl.
 54 58  0  0  0  0  0  0  0  0  1 V2000
  147.6710  138.2960  151.7694 O   0  0  0  0  0  0  0  0  0  0  0  0
  146.7583  138.8333  152.7033 C   0  0  0  0  0  0  0  0  0  0  0  0
  147.3918  138.9260  154.1117 C   0  0  2  0  0  0  0  0  0  0  0  0
  146.3337  139.1878  155.2188 C   0  0  0  0  0  0  0  0  0  0  0  0
  146.6862  138.6524  156.5266 N   0  0  0  0  0  0  0  0  0  0  0  0
  147.6085  139.1659  157.4091 C   0  0  0  0  0  0  0  0  0  0  0  0
  147.7450  138.4992  158.5211 N   0  0  0  0  0  0  0  0  0  0  0  0
  146.8609  137.4334  158.3998 C   0  0  0  0  0  0  0  0  0  0  0  0
  146.4981  136.3301  159.2295 C   0  0  0  0  0  0  0  0  0  0  0  0
  147.0128  136.0798  160.4663 N   0  0  0  0  0  0  0  0  0  0  0  0
  146.7359  136.9482  161.6015 C   0  0  2  0  0  0  0  0  0  0  0  0
  147.6641  136.3772  162.6875 C   0  0  0  0  0  0  0  0  0  0  0  0
  147.6317  134.8789  162.3552 C   0  0  0  0  0  0  0  0  0  0  0  0
  146.6514  134.8544  161.1681 C   0  0  1  0  0  0  0  0  0  0  0  0
  145.1945  135.1269  161.6258 C   0  0  1  0  0  0  0  0  0  0  0  0
  144.6484  134.2187  162.7429 C   0  0  0  0  0  0  0  0  0  0  0  0
  144.7230  132.8666  162.3439 O   0  0  0  0  0  0  0  0  0  0  0  0
  145.2753  136.6252  161.9765 C   0  0  0  0  0  0  0  0  0  0  0  0
  145.5860  135.4543  158.7302 N   0  0  0  0  0  0  0  0  0  0  0  0
  145.0483  135.6439  157.5230 C   0  0  0  0  0  0  0  0  0  0  0  0
  145.2800  136.6279  156.6542 N   0  0  0  0  0  0  0  0  0  0  0  0
  146.2003  137.5090  157.1386 C   0  0  0  0  0  0  0  0  0  0  0  0
  148.5461  139.9625  154.1375 C   0  0  1  0  0  0  0  0  0  0  0  0
  148.4127  141.0362  155.2047 C   0  0  0  0  0  0  0  0  0  0  0  0
  149.8323  141.5847  155.2889 C   0  0  0  0  0  0  0  0  0  0  0  0
  150.6846  140.4791  155.0157 O   0  0  0  0  0  0  0  0  0  0  0  0
  149.9198  139.3906  154.5075 C   0  0  0  0  0  0  0  0  0  0  0  0
  148.1932  137.6393  152.2057 H   0  0  0  0  0  0  0  0  0  0  0  0
  146.4793  139.8207  152.3371 H   0  0  0  0  0  0  0  0  0  0  0  0
  145.8485  138.2329  152.7127 H   0  0  0  0  0  0  0  0  0  0  0  0
  147.8345  137.9518  154.3252 H   0  0  0  0  0  0  0  0  0  0  0  0
  146.1604  140.2590  155.3258 H   0  0  0  0  0  0  0  0  0  0  0  0
  145.3692  138.7706  154.9294 H   0  0  0  0  0  0  0  0  0  0  0  0
  148.1816  140.0580  157.2068 H   0  0  0  0  0  0  0  0  0  0  0  0
  146.9200  138.0091  161.4439 H   0  0  0  0  0  0  0  0  0  0  0  0
  148.6762  136.7704  162.5844 H   0  0  0  0  0  0  0  0  0  0  0  0
  147.3157  136.5961  163.6976 H   0  0  0  0  0  0  0  0  0  0  0  0
  148.6197  134.5437  162.0367 H   0  0  0  0  0  0  0  0  0  0  0  0
  147.3305  134.2541  163.1948 H   0  0  0  0  0  0  0  0  0  0  0  0
  146.7497  133.9438  160.5760 H   0  0  0  0  0  0  0  0  0  0  0  0
  144.5471  135.0078  160.7549 H   0  0  0  0  0  0  0  0  0  0  0  0
  145.2341  134.3442  163.6537 H   0  0  0  0  0  0  0  0  0  0  0  0
  143.6115  134.4522  162.9834 H   0  0  0  0  0  0  0  0  0  0  0  0
  143.8569  132.4916  162.3914 H   0  0  0  0  0  0  0  0  0  0  0  0
  145.0593  136.8394  163.0239 H   0  0  0  0  0  0  0  0  0  0  0  0
  144.5760  137.1991  161.3671 H   0  0  0  0  0  0  0  0  0  0  0  0
  144.3297  134.9013  157.2092 H   0  0  0  0  0  0  0  0  0  0  0  0
  148.6334  140.4436  153.1624 H   0  0  0  0  0  0  0  0  0  0  0  0
  147.6850  141.8099  154.9627 H   0  0  0  0  0  0  0  0  0  0  0  0
  148.1281  140.5914  156.1594 H   0  0  0  0  0  0  0  0  0  0  0  0
  149.9926  142.3442  154.5226 H   0  0  0  0  0  0  0  0  0  0  0  0
  150.0519  142.0292  156.2598 H   0  0  0  0  0  0  0  0  0  0  0  0
  149.8277  138.6414  155.2952 H   0  0  0  0  0  0  0  0  0  0  0  0
  150.4232  138.9278  153.6583 H   0  0  0  0  0  0  0  0  0  0  0  0
  1  2  1  0  0  0  0
  1 28  1  0  0  0  0
  2  3  1  0  0  0  0
  2 29  1  0  0  0  0
  2 30  1  0  0  0  0
  3  4  1  0  0  0  0
  3 23  1  0  0  0  0
  3 31  1  0  0  0  0
  4  5  1  0  0  0  0
  4 32  1  0  0  0  0
  4 33  1  0  0  0  0
  5 22  1  0  0  0  0
  5  6  1  0  0  0  0
  6  7  2  0  0  0  0
  6 34  1  0  0  0  0
  7  8  1  0  0  0  0
  8 22  2  0  0  0  0
  8  9  1  0  0  0  0
  9 10  1  0  0  0  0
  9 19  2  0  0  0  0
 10 14  1  0  0  0  0
 10 11  1  0  0  0  0
 11 18  1  0  0  0  0
 11 12  1  0  0  0  0
 11 35  1  0  0  0  0
 12 13  1  0  0  0  0
 12 36  1  0  0  0  0
 12 37  1  0  0  0  0
 13 14  1  0  0  0  0
 13 38  1  0  0  0  0
 13 39  1  0  0  0  0
 14 15  1  0  0  0  0
 14 40  1  0  0  0  0
 15 16  1  0  0  0  0
 15 18  1  0  0  0  0
 15 41  1  0  0  0  0
 16 17  1  0  0  0  0
 16 42  1  0  0  0  0
 16 43  1  0  0  0  0
 17 44  1  0  0  0  0
 18 45  1  0  0  0  0
 18 46  1  0  0  0  0
 19 20  1  0  0  0  0
 20 21  2  0  0  0  0
 20 47  1  0  0  0  0
 21 22  1  0  0  0  0
 23 27  1  0  0  0  0
 23 24  1  0  0  0  0
 23 48  1  0  0  0  0
 24 25  1  0  0  0  0
 24 49  1  0  0  0  0
 24 50  1  0  0  0  0
 25 26  1  0  0  0  0
 25 51  1  0  0  0  0
 25 52  1  0  0  0  0
 26 27  1  0  0  0  0
 27 53  1  0  0  0  0
 27 54  1  0  0  0  0
M  END
> <s_m_source_file>
AV-unprocessed.smi

> <i_m_source_file_index>
227

> <i_lp_mmshare_version>
43012

> <i_f3d_flags>
0

> <s_epik_input>
W0NIMl0xT1tDSDJdW0NIMl1bQ0BIXTFbQ0BIXShbQ0gyXVtPSF0pW0NIMl1uKFtjSF1uMiljKGMyMyluW2NIXW5jM04oW0NASF00NSlbQ0BASF0oW0NIMl1bQ0gyXTQpW0NASF0oW0NIMl01KVtDSDJdW09IXQ==

> <s_epik_cmdline>
J2VwaWtfcHl0aG9uJywgJy1waCcsICc3LjAnLCAnLXRuJywgJzgnLCAnLW1hJywgJzIwMCcsICctbWV0YWxfYmluZGluZycsICctaW1hZScsICc8aW5maWxlLm1hZT4nLCAnLW9tYWUnLCAnPG91dGZpbGUubWFlPic=

> <r_lp_tautomer_probability>
1

> <r_epik_Ionization_Penalty>
0.0055791

> <r_epik_Ionization_Penalty_Charging>
0

> <r_epik_Ionization_Penalty_Neutral>
0.0055791

> <r_epik_State_Penalty>
0.00401299

> <r_epik_Charging_Adjusted_Penalty>
0.00401299

> <i_epik_Tot_Q>
0

> <i_epik_Tot_abs_Q>
0

> <r_epik_Metal_State_Penalty>
-0

> <b_epik_Metal_Only>
0

> <s_lp_Force_Field>
OPLS_2005

> <r_lp_Energy>
86.8427

> <b_lp_Chiralities_Consistent>
1

> <s_lp_Variant>
AV-unprocessed.smi:227-9

> <Gold.Version>
5.8.1

> <Gold.Id.Protein>
6NUR|6NUR_protein|mol2

> <Gold.PLP.Fitness>
43.1200

> <Gold.PLP.PLP>
-38.8227

> <Gold.PLP.part.hbond>
-5.2954

> <Gold.PLP.part.metal>
0.0000

> <Gold.PLP.part.buried>
-4.9149

> <Gold.PLP.part.nonpolar>
-27.9603

> <Gold.PLP.part.repulsive>
0.0591

> <Gold.PLP.ligand.clash>
0.0000

> <Gold.PLP.ligand.torsion>
2.1261

> <Gold.PLP.Chemscore.Hbond>
2.7520

> <Gold.PLP.Chemscore.CHOScore>
0.0000

> <Gold.PLP.Chemscore.Metal>
0.0000

> <Gold.Chemscore.Hbonds>
donor molecule, donor type, donor heavy atom, donor atom, acceptor molecule, acceptor atom, score
      L1  H     1    28       P1  7948  0.75
      P1  H  7954  7966       L1     1  0.90
      P1  H  7989  7998       L1    26  0.95

> <Gold.PLP.Chemscore.Internal.Correction>
0.2935

> <Gold.Rescore>
     Score         DG    S(hbond)    S(metal)    S(lipo)     H(rot)  DE(clash)    DE(int)     intcor
      7.68     -11.32       1.31        0.00      91.56       3.61       0.21       3.43       ----

> <Gold.Chemscore.Fitness>
7.6797

> <Gold.Chemscore.DG>
-11.3206

> <Gold.Chemscore.ZeroCoef>
-5.4800

> <Gold.Chemscore.Hbond>
1.3060

> <Gold.Chemscore.Metal>
0.0000

> <Gold.Chemscore.Lipo>
91.5607

> <Gold.Chemscore.Internal_Hbond>
0.0000

> <Gold.Chemscore.DEClash>
0.2102

> <Gold.Chemscore.DEInternal>
3.4306

> <Gold.Chemscore.Rot>
3.6071

> <Gold.Chemscore.Internal.Correction>
   9.000000E+99

> <Gold.Chemscore.Hbonds>
donor molecule, donor type, donor heavy atom, donor atom, acceptor molecule, acceptor atom, score
      L1  H     1    28       P1  7948  0.75
      P1  H  7954  7966       L1     1  0.17
      P1  H  7989  7998       L1    26  0.13

> <Gold.Chemscore.Hbond.Weighted>
-4.3621

> <Gold.Chemscore.Metal.Weighted>
-0.0000

> <Gold.Chemscore.Lipo.Weighted>
-10.7126

> <Gold.Chemscore.Internal_Hbond.Weighted>
0.0000

> <Gold.Chemscore.DEClash.Weighted>
0.2102

> <Gold.Chemscore.DEInternal.Weighted>
3.4306

> <Gold.Chemscore.Rot.Weighted>
9.2342

> <Gold.Chemscore.Internal.Correction.Weighted>
   9.000000E+99

> <Gold.Protein.RotatedTorsions>
[ 6907 6896 6895 6894 ] final  142.32 input  -60.11 | X-H torsion
[ 7974 7965 7964 7962 ] final   -6.44 input  175.53 | X-H torsion
[ 8008 7997 7996 7995 ] final -126.37 input   59.86 | X-H torsion
[ 10167 10162 10161 10158 ] final -177.29 input  -65.29 | X-H torsion
[ 10718 10713 10712 10709 ] final   64.34 input   66.30 | X-H torsion
[ 10763 10752 10751 10750 ] final   70.02 input  -60.55 | X-H torsion
[ 11005 11000 10999 10996 ] final -153.10 input  -57.11 | X-H torsion

> <Gold.Protein.ActiveResidues>
 VAL166  LYS551  ARG553  GLY616  TRP617  ASP618  TYR619  PRO620  LYS621  CYS622 
 ASP623  PHE694  ASN695  SER759  ASP760  ASP761  ALA762  ILE779  LEU786  VAL792 
 PHE793  MET794  SER795  GLU796  ALA797  LYS798  CYS799  TRP800  GLU811  SER814 

> <Gold.Protein.RotatedAtoms>
  152.2202  133.4977  159.5157 H   0  0  0  0  0  0  0  0  0  0  0  0  # atno 6907 bound_to 6896
  150.7011  134.1353  159.4094 H   0  0  0  0  0  0  0  0  0  0  0  0  # atno 6908 bound_to 6896
  151.9273  135.0272  160.0577 H   0  0  0  0  0  0  0  0  0  0  0  0  # atno 6909 bound_to 6896
  146.2331  140.2171  142.8336 H   0  0  0  0  0  0  0  0  0  0  0  0  # atno 7974 bound_to 7965
  155.2285  140.0424  157.2959 H   0  0  0  0  0  0  0  0  0  0  0  0  # atno 8008 bound_to 7997
  154.5903  140.2425  155.7900 H   0  0  0  0  0  0  0  0  0  0  0  0  # atno 8009 bound_to 7997
  156.2255  140.2956  156.0064 H   0  0  0  0  0  0  0  0  0  0  0  0  # atno 8010 bound_to 7997
  139.5487  144.2166  152.1037 H   0  0  0  0  0  0  0  0  0  0  0  0  # atno 10167 bound_to 10162
  157.6033  130.9155  149.9833 H   0  0  0  0  0  0  0  0  0  0  0  0  # atno 10718 bound_to 10713
  153.0319  135.5189  154.7378 H   0  0  0  0  0  0  0  0  0  0  0  0  # atno 10763 bound_to 10752
  154.6386  135.2909  155.0133 H   0  0  0  0  0  0  0  0  0  0  0  0  # atno 10764 bound_to 10752
  154.1059  135.6629  153.4929 H   0  0  0  0  0  0  0  0  0  0  0  0  # atno 10765 bound_to 10752
  140.7117  134.3825  157.5196 H   0  0  0  0  0  0  0  0  0  0  0  0  # atno 11005 bound_to 11000
  144.9661  140.8323  143.5484 LP  0  0  0  0  0  0  0  0  0  0  0  0  # atno 17320 bound_to 7965
  145.2147  139.2188  143.5124 LP  0  0  0  0  0  0  0  0  0  0  0  0  # atno 17321 bound_to 7965
  140.1657  144.4983  150.6607 LP  0  0  0  0  0  0  0  0  0  0  0  0  # atno 17342 bound_to 10162
  140.6744  143.2299  151.5545 LP  0  0  0  0  0  0  0  0  0  0  0  0  # atno 17343 bound_to 10162
  156.1112  130.3650  150.0046 LP  0  0  0  0  0  0  0  0  0  0  0  0  # atno 17370 bound_to 10713
  156.8144  130.9336  151.3643 LP  0  0  0  0  0  0  0  0  0  0  0  0  # atno 17371 bound_to 10713
  139.8870  134.8895  156.2554 LP  0  0  0  0  0  0  0  0  0  0  0  0  # atno 17394 bound_to 11000
  141.0078  133.7113  156.1063 LP  0  0  0  0  0  0  0  0  0  0  0  0  # atno 17395 bound_to 11000

$$$$
