AV-unprocessed.smi:2670|AV-procd|sdf|10345|dock6
  -GOLD-   2272014373D 1   1.00000     0.00000
 Structure written by MMmdl.
 40 41  0  0  0  0  0  0  0  0  2 V2000
  151.7520  144.2556  157.7928 C   0  0  0  0  0  0  0  0  0  0  0  0
  152.2140  143.4971  159.0017 C   0  0  0  0  0  0  0  0  0  0  0  0
  152.2917  143.9481  160.3488 C   0  0  0  0  0  0  0  0  0  0  0  0
  152.7748  142.8720  161.0386 C   0  0  0  0  0  0  0  0  0  0  0  0
  153.0732  142.7248  162.4956 C   0  0  0  0  0  0  0  0  0  0  0  0
  152.9571  141.8533  160.1173 N   0  0  0  0  0  0  0  0  0  0  0  0
  153.4601  140.5020  160.3206 C   0  0  0  0  0  0  0  0  0  0  0  0
  153.3255  139.6541  159.0538 C   0  0  0  0  0  0  0  0  0  0  0  0
  154.3390  139.3010  158.4535 O   0  0  0  0  0  0  0  0  0  0  0  0
  152.0627  139.3783  158.6790 N   0  0  0  0  0  0  0  0  0  0  0  0
  151.5003  138.6224  157.5469 C   0  0  0  0  0  0  0  0  0  0  0  0
  152.1256  137.2094  157.6623 C   0  0  0  0  0  0  0  0  0  0  0  0
  152.7154  136.7426  156.6621 O   0  0  0  0  0  0  0  0  0  0  0  0
  151.9649  136.5862  158.7363 O   0  5  0  0  0  0  0  0  0  0  0  0
  149.9405  138.5128  157.4906 C   0  0  0  0  0  0  0  0  0  0  0  0
  149.2279  139.8242  157.1021 C   0  0  0  0  0  0  0  0  0  0  0  0
  149.7805  140.3996  155.7942 C   0  0  0  0  0  0  0  0  0  0  0  0
  151.2957  140.6027  155.8962 C   0  0  0  0  0  0  0  0  0  0  0  0
  152.0106  139.2834  156.2332 C   0  0  0  0  0  0  0  0  0  0  0  0
  152.6183  142.2449  158.8692 N   0  0  0  0  0  0  0  0  0  0  0  0
  151.3665  145.2376  158.0672 H   0  0  0  0  0  0  0  0  0  0  0  0
  150.9566  143.7210  157.2729 H   0  0  0  0  0  0  0  0  0  0  0  0
  152.5703  144.4059  157.0884 H   0  0  0  0  0  0  0  0  0  0  0  0
  152.0320  144.9169  160.7490 H   0  0  0  0  0  0  0  0  0  0  0  0
  153.1278  143.6990  162.9818 H   0  0  0  0  0  0  0  0  0  0  0  0
  154.0249  142.2183  162.6565 H   0  0  0  0  0  0  0  0  0  0  0  0
  152.2930  142.1480  162.9926 H   0  0  0  0  0  0  0  0  0  0  0  0
  154.5110  140.5413  160.6119 H   0  0  0  0  0  0  0  0  0  0  0  0
  152.9191  140.0505  161.1534 H   0  0  0  0  0  0  0  0  0  0  0  0
  151.3531  139.7740  159.2781 H   0  0  0  0  0  0  0  0  0  0  0  0
  149.6699  137.7682  156.7400 H   0  0  0  0  0  0  0  0  0  0  0  0
  149.5299  138.1275  158.4239 H   0  0  0  0  0  0  0  0  0  0  0  0
  148.1576  139.6431  157.0019 H   0  0  0  0  0  0  0  0  0  0  0  0
  149.3350  140.5673  157.8909 H   0  0  0  0  0  0  0  0  0  0  0  0
  149.5528  139.7247  154.9682 H   0  0  0  0  0  0  0  0  0  0  0  0
  149.2906  141.3468  155.5674 H   0  0  0  0  0  0  0  0  0  0  0  0
  151.6789  140.9997  154.9558 H   0  0  0  0  0  0  0  0  0  0  0  0
  151.5172  141.3499  156.6592 H   0  0  0  0  0  0  0  0  0  0  0  0
  153.0845  139.4718  156.2870 H   0  0  0  0  0  0  0  0  0  0  0  0
  151.8698  138.5963  155.3967 H   0  0  0  0  0  0  0  0  0  0  0  0
  1  2  1  0  0  0  0
  1 21  1  0  0  0  0
  1 22  1  0  0  0  0
  1 23  1  0  0  0  0
  2 20  2  0  0  0  0
  2  3  1  0  0  0  0
  3  4  2  0  0  0  0
  3 24  1  0  0  0  0
  4  5  1  0  0  0  0
  4  6  1  0  0  0  0
  5 25  1  0  0  0  0
  5 26  1  0  0  0  0
  5 27  1  0  0  0  0
  6  7  1  0  0  0  0
  6 20  1  0  0  0  0
  7  8  1  0  0  0  0
  7 28  1  0  0  0  0
  7 29  1  0  0  0  0
  8  9  2  0  0  0  0
  8 10  1  0  0  0  0
 10 11  1  0  0  0  0
 10 30  1  0  0  0  0
 11 19  1  0  0  0  0
 11 12  1  0  0  0  0
 11 15  1  0  0  0  0
 12 13  2  0  0  0  0
 12 14  1  0  0  0  0
 15 16  1  0  0  0  0
 15 31  1  0  0  0  0
 15 32  1  0  0  0  0
 16 17  1  0  0  0  0
 16 33  1  0  0  0  0
 16 34  1  0  0  0  0
 17 18  1  0  0  0  0
 17 35  1  0  0  0  0
 17 36  1  0  0  0  0
 18 19  1  0  0  0  0
 18 37  1  0  0  0  0
 18 38  1  0  0  0  0
 19 39  1  0  0  0  0
 19 40  1  0  0  0  0
M  CHG  1  14  -1
M  END
> <s_m_source_file>
AV-unprocessed.smi

> <i_m_source_file_index>
2670

> <i_lp_mmshare_version>
43012

> <i_f3d_flags>
0

> <s_epik_input>
W0NIM11jMVtjSF1jKFtDSDNdKW4objEpW0NIMl1DKD1PKVtOSF1DMihDKD1PKVtPSF0pW0NIMl1bQ0gyXVtDSDJdW0NIMl1bQ0gyXTI=

> <s_epik_cmdline>
J2VwaWtfcHl0aG9uJywgJy1waCcsICc3LjAnLCAnLXRuJywgJzgnLCAnLW1hJywgJzIwMCcsICctbWV0YWxfYmluZGluZycsICctaW1hZScsICc8aW5maWxlLm1hZT4nLCAnLW9tYWUnLCAnPG91dGZpbGUubWFlPic=

> <r_lp_tautomer_probability>
1

> <r_epik_Ionization_Penalty>
0.000789686

> <r_epik_Ionization_Penalty_Charging>
0.000323848

> <r_epik_Ionization_Penalty_Neutral>
0.000465838

> <r_epik_State_Penalty>
-0

> <r_epik_Charging_Adjusted_Penalty>
0.000323848

> <i_epik_Tot_Q>
-1

> <i_epik_Tot_abs_Q>
1

> <r_epik_Metal_State_Penalty>
-0

> <b_epik_Metal_Only>
0

> <s_lp_Force_Field>
OPLS_2005

> <r_lp_Energy>
8.13654

> <b_lp_Chiralities_Consistent>
1

> <s_lp_Variant>
AV-unprocessed.smi:2670-1

> <Gold.Version>
5.8.1

> <Gold.Id.Protein>
6NUR|6NUR_protein|mol2

> <Gold.PLP.Fitness>
55.1017

> <Gold.PLP.PLP>
-42.1354

> <Gold.PLP.part.hbond>
-3.0000

> <Gold.PLP.part.metal>
0.0000

> <Gold.PLP.part.buried>
-4.8481

> <Gold.PLP.part.nonpolar>
-34.1802

> <Gold.PLP.part.repulsive>
0.0981

> <Gold.PLP.ligand.clash>
0.0000

> <Gold.PLP.ligand.torsion>
0.3533

> <Gold.PLP.Chemscore.Hbond>
4.5360

> <Gold.PLP.Chemscore.CHOScore>
0.0000

> <Gold.PLP.Chemscore.Metal>
0.0000

> <Gold.Chemscore.Hbonds>
donor molecule, donor type, donor heavy atom, donor atom, acceptor molecule, acceptor atom, score
      P1  H  6896  6908       L1    14  1.47
      P1  H  7997  8008       L1     9  1.00
      P1  H 10752 10764       L1    13  1.84

> <Gold.PLP.Chemscore.Internal.Correction>
0.0649

> <Gold.Rescore>
     Score         DG    S(hbond)    S(metal)    S(lipo)     H(rot)  DE(clash)    DE(int)     intcor
     19.87     -21.48       2.71        0.00     101.17       1.91       0.05       1.56       ----

> <Gold.Chemscore.Fitness>
19.8663

> <Gold.Chemscore.DG>
-21.4796

> <Gold.Chemscore.ZeroCoef>
-5.4800

> <Gold.Chemscore.Hbond>
2.7141

> <Gold.Chemscore.Metal>
0.0000

> <Gold.Chemscore.Lipo>
101.1699

> <Gold.Chemscore.Internal_Hbond>
0.0000

> <Gold.Chemscore.DEClash>
0.0504

> <Gold.Chemscore.DEInternal>
1.5629

> <Gold.Chemscore.Rot>
1.9149

> <Gold.Chemscore.Internal.Correction>
   9.000000E+99

> <Gold.Chemscore.Hbonds>
donor molecule, donor type, donor heavy atom, donor atom, acceptor molecule, acceptor atom, score
      P1  H  6896  6908       L1    14  0.74
      P1  H  7997  8008       L1     9  0.94
      P1  H 10752 10764       L1    13  0.83

> <Gold.Chemscore.Hbond.Weighted>
-9.0649

> <Gold.Chemscore.Metal.Weighted>
-0.0000

> <Gold.Chemscore.Lipo.Weighted>
-11.8369

> <Gold.Chemscore.Internal_Hbond.Weighted>
0.0000

> <Gold.Chemscore.DEClash.Weighted>
0.0504

> <Gold.Chemscore.DEInternal.Weighted>
1.5629

> <Gold.Chemscore.Rot.Weighted>
4.9023

> <Gold.Chemscore.Internal.Correction.Weighted>
   9.000000E+99

> <Gold.Protein.RotatedTorsions>
[ 6907 6896 6895 6894 ] final -114.86 input  -60.11 | X-H torsion
[ 7974 7965 7964 7962 ] final  -12.14 input  175.53 | X-H torsion
[ 8008 7997 7996 7995 ] final -124.09 input   59.86 | X-H torsion
[ 10167 10162 10161 10158 ] final   21.64 input  -65.29 | X-H torsion
[ 10718 10713 10712 10709 ] final -133.27 input   66.30 | X-H torsion
[ 10763 10752 10751 10750 ] final   -3.13 input  -60.55 | X-H torsion
[ 11005 11000 10999 10996 ] final  145.88 input  -57.11 | X-H torsion

> <Gold.Protein.ActiveResidues>
 VAL166  LYS551  ARG553  GLY616  TRP617  ASP618  TYR619  PRO620  LYS621  CYS622 
 ASP623  PHE694  ASN695  SER759  ASP760  ASP761  ALA762  ILE779  LEU786  VAL792 
 PHE793  MET794  SER795  GLU796  ALA797  LYS798  CYS799  TRP800  GLU811  SER814 

> <Gold.Protein.RotatedAtoms>
  150.7934  133.8740  159.3266 H   0  0  0  0  0  0  0  0  0  0  0  0  # atno 6907 bound_to 6896
  151.6572  135.0992  160.0182 H   0  0  0  0  0  0  0  0  0  0  0  0  # atno 6908 bound_to 6896
  152.4012  133.6781  159.6353 H   0  0  0  0  0  0  0  0  0  0  0  0  # atno 6909 bound_to 6896
  146.2163  140.3013  142.8375 H   0  0  0  0  0  0  0  0  0  0  0  0  # atno 7974 bound_to 7965
  155.1912  140.0413  157.2900 H   0  0  0  0  0  0  0  0  0  0  0  0  # atno 8008 bound_to 7997
  154.6137  140.2483  155.7608 H   0  0  0  0  0  0  0  0  0  0  0  0  # atno 8009 bound_to 7997
  156.2394  140.2909  156.0412 H   0  0  0  0  0  0  0  0  0  0  0  0  # atno 8010 bound_to 7997
  140.5411  143.9675  150.6520 H   0  0  0  0  0  0  0  0  0  0  0  0  # atno 10167 bound_to 10162
  156.2432  130.7108  151.0978 H   0  0  0  0  0  0  0  0  0  0  0  0  # atno 10718 bound_to 10713
  153.3672  135.6993  153.6666 H   0  0  0  0  0  0  0  0  0  0  0  0  # atno 10763 bound_to 10752
  153.5331  135.3588  155.2685 H   0  0  0  0  0  0  0  0  0  0  0  0  # atno 10764 bound_to 10752
  154.8676  135.4185  154.2942 H   0  0  0  0  0  0  0  0  0  0  0  0  # atno 10765 bound_to 10752
  140.0748  134.9131  157.1404 H   0  0  0  0  0  0  0  0  0  0  0  0  # atno 11005 bound_to 11000
  144.9055  140.7694  143.5840 LP  0  0  0  0  0  0  0  0  0  0  0  0  # atno 17320 bound_to 7965
  145.2941  139.1873  143.4724 LP  0  0  0  0  0  0  0  0  0  0  0  0  # atno 17321 bound_to 7965
  140.3076  143.3219  152.0911 LP  0  0  0  0  0  0  0  0  0  0  0  0  # atno 17342 bound_to 10162
  139.4989  144.6657  151.6362 LP  0  0  0  0  0  0  0  0  0  0  0  0  # atno 17343 bound_to 10162
  157.7184  131.0696  150.6236 LP  0  0  0  0  0  0  0  0  0  0  0  0  # atno 17370 bound_to 10713
  156.6311  130.4432  149.5786 LP  0  0  0  0  0  0  0  0  0  0  0  0  # atno 17371 bound_to 10713
  140.3574  134.2531  155.7191 LP  0  0  0  0  0  0  0  0  0  0  0  0  # atno 17394 bound_to 11000
  141.2025  133.7935  157.0386 LP  0  0  0  0  0  0  0  0  0  0  0  0  # atno 17395 bound_to 11000

$$$$
