AV-unprocessed.smi:914|AV-procd|sdf|4153|dock5
  -GOLD-   22720 2 53D 1   1.00000     0.00000
 Structure written by MMmdl.
 32 33  0  0  0  0  0  0  0  0  2 V2000
  150.4419  135.5802  154.4933 O   0  0  0  0  0  0  0  0  0  0  0  0
  150.6598  136.7523  154.7973 C   0  0  0  0  0  0  0  0  0  0  0  0
  151.9173  137.2822  154.8344 N   0  5  0  0  0  0  0  0  0  0  0  0
  152.1794  138.5848  155.1643 C   0  0  0  0  0  0  0  0  0  0  0  0
  153.3244  139.0362  155.1940 O   0  0  0  0  0  0  0  0  0  0  0  0
  151.1328  139.4094  155.4679 N   0  0  0  0  0  0  0  0  0  0  0  0
  151.3132  140.8216  155.8335 C   0  0  0  0  0  0  0  0  0  0  0  0
  150.9772  141.0749  157.3115 C   0  0  0  0  0  0  0  0  0  0  0  0
  152.1512  140.9522  158.0963 O   0  0  0  0  0  0  0  0  0  0  0  0
  151.9555  141.3308  159.4473 C   0  0  0  0  0  0  0  0  0  0  0  0
  152.3350  142.8079  159.6039 C   0  0  1  0  0  0  0  0  0  0  0  0
  152.2891  143.5953  158.2975 C   0  0  0  0  0  0  0  0  0  0  0  0
  152.1534  145.0139  158.8035 C   0  0  0  0  0  0  0  0  0  0  0  0
  151.2677  144.8414  160.0369 C   0  0  0  0  0  0  0  0  0  0  0  0
  151.3903  143.4771  160.4322 O   0  0  0  0  0  0  0  0  0  0  0  0
  149.8193  138.9111  155.4533 C   0  0  0  0  0  0  0  0  0  0  0  0
  149.5424  137.6316  155.1353 C   0  0  0  0  0  0  0  0  0  0  0  0
  147.9168  137.0466  155.1285 Cl  0  0  0  0  0  0  0  0  0  0  0  0
  152.3234  141.1712  155.6147 H   0  0  0  0  0  0  0  0  0  0  0  0
  150.6624  141.4347  155.2086 H   0  0  0  0  0  0  0  0  0  0  0  0
  150.5664  142.0792  157.4246 H   0  0  0  0  0  0  0  0  0  0  0  0
  150.2157  140.3726  157.6538 H   0  0  0  0  0  0  0  0  0  0  0  0
  150.9055  141.1864  159.7070 H   0  0  0  0  0  0  0  0  0  0  0  0
  152.5508  140.7120  160.1206 H   0  0  0  0  0  0  0  0  0  0  0  0
  153.3274  142.9047  160.0479 H   0  0  0  0  0  0  0  0  0  0  0  0
  153.1739  143.4452  157.6782 H   0  0  0  0  0  0  0  0  0  0  0  0
  151.4094  143.3204  157.7135 H   0  0  0  0  0  0  0  0  0  0  0  0
  153.1313  145.3979  159.0968 H   0  0  0  0  0  0  0  0  0  0  0  0
  151.7284  145.6938  158.0648 H   0  0  0  0  0  0  0  0  0  0  0  0
  151.5629  145.5115  160.8446 H   0  0  0  0  0  0  0  0  0  0  0  0
  150.2229  145.0406  159.7971 H   0  0  0  0  0  0  0  0  0  0  0  0
  149.0573  139.6288  155.7200 H   0  0  0  0  0  0  0  0  0  0  0  0
  1  2  2  0  0  0  0
  2 17  1  0  0  0  0
  2  3  1  0  0  0  0
  3  4  1  0  0  0  0
  4  5  2  0  0  0  0
  4  6  1  0  0  0  0
  6  7  1  0  0  0  0
  6 16  1  0  0  0  0
  7  8  1  0  0  0  0
  7 19  1  0  0  0  0
  7 20  1  0  0  0  0
  8  9  1  0  0  0  0
  8 21  1  0  0  0  0
  8 22  1  0  0  0  0
  9 10  1  0  0  0  0
 10 11  1  0  0  0  0
 10 23  1  0  0  0  0
 10 24  1  0  0  0  0
 11 15  1  0  0  0  0
 11 12  1  0  0  0  0
 11 25  1  0  0  0  0
 12 13  1  0  0  0  0
 12 26  1  0  0  0  0
 12 27  1  0  0  0  0
 13 14  1  0  0  0  0
 13 28  1  0  0  0  0
 13 29  1  0  0  0  0
 14 15  1  0  0  0  0
 14 30  1  0  0  0  0
 14 31  1  0  0  0  0
 16 17  2  0  0  0  0
 16 32  1  0  0  0  0
 17 18  1  0  0  0  0
M  CHG  1   3  -1
M  END
> <s_m_source_file>
AV-unprocessed.smi

> <i_m_source_file_index>
914

> <i_lp_mmshare_version>
43012

> <i_f3d_flags>
0

> <s_epik_input>
Tz1jMVtuSF1jKD1PKW4oW2NIXWMxQ2wpW0NIMl1bQ0gyXU9bQ0gyXVtDQEBIXTJbQ0gyXVtDSDJdW0NIMl1PMg==

> <s_epik_cmdline>
J2VwaWtfcHl0aG9uJywgJy1waCcsICc3LjAnLCAnLXRuJywgJzgnLCAnLW1hJywgJzIwMCcsICctbWV0YWxfYmluZGluZycsICctaW1hZScsICc8aW5maWxlLm1hZT4nLCAnLW9tYWUnLCAnPG91dGZpbGUubWFlPic=

> <r_epik_Ionization_Penalty>
1.76812

> <r_epik_Ionization_Penalty_Charging>
1.60097e-08

> <r_epik_Ionization_Penalty_Neutral>
1.76812

> <r_epik_State_Penalty>
1.87929

> <r_epik_Charging_Adjusted_Penalty>
1.87929

> <i_epik_Tot_Q>
-1

> <i_epik_Tot_abs_Q>
1

> <r_epik_Metal_State_Penalty>
0.0133872

> <b_epik_Metal_Only>
0

> <s_lp_Force_Field>
OPLS_2005

> <r_lp_Energy>
30.6138

> <b_lp_Chiralities_Consistent>
1

> <s_lp_Variant>
AV-unprocessed.smi:914-4

> <Gold.Version>
5.8.1

> <Gold.Id.Protein>
6NUR|6NUR_protein|mol2

> <Gold.PLP.Fitness>
43.4209

> <Gold.PLP.PLP>
-36.8751

> <Gold.PLP.part.hbond>
-2.3163

> <Gold.PLP.part.metal>
0.0000

> <Gold.PLP.part.buried>
-6.6462

> <Gold.PLP.part.nonpolar>
-29.1817

> <Gold.PLP.part.repulsive>
0.3975

> <Gold.PLP.ligand.clash>
0.0000

> <Gold.PLP.ligand.torsion>
1.0764

> <Gold.PLP.Chemscore.Hbond>
2.8880

> <Gold.PLP.Chemscore.CHOScore>
0.0000

> <Gold.PLP.Chemscore.Metal>
0.0000

> <Gold.Chemscore.Hbonds>
donor molecule, donor type, donor heavy atom, donor atom, acceptor molecule, acceptor atom, score
      P1  H  7997  8008       L1     5  1.00
      P1  H 10752 10764       L1     3  1.76

> <Gold.PLP.Chemscore.Internal.Correction>
0.0345

> <Gold.Rescore>
     Score         DG    S(hbond)    S(metal)    S(lipo)     H(rot)  DE(clash)    DE(int)     intcor
     12.71     -14.92       1.69        0.00      77.78       2.07       0.13       2.08       ----

> <Gold.Chemscore.Fitness>
12.7076

> <Gold.Chemscore.DG>
-14.9180

> <Gold.Chemscore.ZeroCoef>
-5.4800

> <Gold.Chemscore.Hbond>
1.6861

> <Gold.Chemscore.Metal>
0.0000

> <Gold.Chemscore.Lipo>
77.7777

> <Gold.Chemscore.Internal_Hbond>
0.0000

> <Gold.Chemscore.DEClash>
0.1265

> <Gold.Chemscore.DEInternal>
2.0840

> <Gold.Chemscore.Rot>
2.0678

> <Gold.Chemscore.Internal.Correction>
   9.000000E+99

> <Gold.Chemscore.Hbonds>
donor molecule, donor type, donor heavy atom, donor atom, acceptor molecule, acceptor atom, score
      P1  H  7997  8008       L1     5  0.98
      P1  H 10752 10764       L1     3  0.19

> <Gold.Chemscore.Hbond.Weighted>
-5.6316

> <Gold.Chemscore.Metal.Weighted>
-0.0000

> <Gold.Chemscore.Lipo.Weighted>
-9.1000

> <Gold.Chemscore.Internal_Hbond.Weighted>
0.0000

> <Gold.Chemscore.DEClash.Weighted>
0.1265

> <Gold.Chemscore.DEInternal.Weighted>
2.0840

> <Gold.Chemscore.Rot.Weighted>
5.2935

> <Gold.Chemscore.Internal.Correction.Weighted>
   9.000000E+99

> <Gold.Protein.RotatedTorsions>
[ 6907 6896 6895 6894 ] final  -53.17 input  -60.11 | X-H torsion
[ 7974 7965 7964 7962 ] final  -63.30 input  175.53 | X-H torsion
[ 8008 7997 7996 7995 ] final  -28.35 input   59.86 | X-H torsion
[ 10167 10162 10161 10158 ] final   90.45 input  -65.29 | X-H torsion
[ 10718 10713 10712 10709 ] final  -45.82 input   66.30 | X-H torsion
[ 10763 10752 10751 10750 ] final  -69.31 input  -60.55 | X-H torsion
[ 11005 11000 10999 10996 ] final  144.64 input  -57.11 | X-H torsion

> <Gold.Protein.ActiveResidues>
 VAL166  LYS551  ARG553  GLY616  TRP617  ASP618  TYR619  PRO620  LYS621  CYS622 
 ASP623  PHE694  ASN695  SER759  ASP760  ASP761  ALA762  ILE779  LEU786  VAL792 
 PHE793  MET794  SER795  GLU796  ALA797  LYS798  CYS799  TRP800  GLU811  SER814 

> <Gold.Protein.RotatedAtoms>
  150.8451  134.7757  159.6963 H   0  0  0  0  0  0  0  0  0  0  0  0  # atno 6907 bound_to 6896
  152.4530  134.5350  159.9832 H   0  0  0  0  0  0  0  0  0  0  0  0  # atno 6908 bound_to 6896
  151.5482  133.3384  159.2984 H   0  0  0  0  0  0  0  0  0  0  0  0  # atno 6909 bound_to 6896
  145.7807  140.8763  143.0332 H   0  0  0  0  0  0  0  0  0  0  0  0  # atno 7974 bound_to 7965
  154.4336  140.1848  156.1075 H   0  0  0  0  0  0  0  0  0  0  0  0  # atno 8008 bound_to 7997
  156.0244  140.3337  155.7047 H   0  0  0  0  0  0  0  0  0  0  0  0  # atno 8009 bound_to 7997
  155.5930  140.0633  157.2744 H   0  0  0  0  0  0  0  0  0  0  0  0  # atno 8010 bound_to 7997
  139.8472  144.6612  150.9213 H   0  0  0  0  0  0  0  0  0  0  0  0  # atno 10167 bound_to 10162
  156.2245  130.4168  149.8952 H   0  0  0  0  0  0  0  0  0  0  0  0  # atno 10718 bound_to 10713
  154.4016  135.6029  153.5900 H   0  0  0  0  0  0  0  0  0  0  0  0  # atno 10763 bound_to 10752
  152.9788  135.5908  154.4177 H   0  0  0  0  0  0  0  0  0  0  0  0  # atno 10764 bound_to 10752
  154.3976  135.2842  155.2094 H   0  0  0  0  0  0  0  0  0  0  0  0  # atno 10765 bound_to 10752
  140.0648  134.9184  157.1246 H   0  0  0  0  0  0  0  0  0  0  0  0  # atno 11005 bound_to 11000
  144.6797  139.9985  143.7484 LP  0  0  0  0  0  0  0  0  0  0  0  0  # atno 17320 bound_to 7965
  146.0077  139.3143  143.0889 LP  0  0  0  0  0  0  0  0  0  0  0  0  # atno 17321 bound_to 7965
  140.7792  143.3860  151.1393 LP  0  0  0  0  0  0  0  0  0  0  0  0  # atno 17342 bound_to 10162
  139.7501  143.8792  152.3074 LP  0  0  0  0  0  0  0  0  0  0  0  0  # atno 17343 bound_to 10162
  156.6587  130.8773  151.3543 LP  0  0  0  0  0  0  0  0  0  0  0  0  # atno 17370 bound_to 10713
  157.7103  130.9433  150.1068 LP  0  0  0  0  0  0  0  0  0  0  0  0  # atno 17371 bound_to 10713
  140.3715  134.2385  155.7177 LP  0  0  0  0  0  0  0  0  0  0  0  0  # atno 17394 bound_to 11000
  141.1988  133.8026  157.0565 LP  0  0  0  0  0  0  0  0  0  0  0  0  # atno 17395 bound_to 11000

$$$$
