AV-unprocessed.smi:1993|AV-procd|sdf|8071|dock9
  -GOLD-   2272010283D 1   1.00000     0.00000
 Structure written by MMmdl.
 50 51  0  0  0  0  0  0  0  0  1 V2000
  147.5465  133.4195  156.7359 C   0  0  0  0  0  0  0  0  0  0  0  0
  148.3356  133.9376  157.9332 C   0  0  0  0  0  0  0  0  0  0  0  0
  149.5471  133.7348  158.0092 O   0  0  0  0  0  0  0  0  0  0  0  0
  147.6360  134.6099  158.8608 N   0  0  0  0  0  0  0  0  0  0  0  0
  148.1920  135.2042  160.0776 C   0  0  1  0  0  0  0  0  0  0  0  0
  148.3880  136.7122  159.8333 C   0  0  0  0  0  0  0  0  0  0  0  0
  147.8155  137.5401  160.5443 O   0  0  0  0  0  0  0  0  0  0  0  0
  149.2141  137.0498  158.8318 N   0  0  0  0  0  0  0  0  0  0  0  0
  149.5689  138.4150  158.4646 C   0  0  0  0  0  0  0  0  0  0  0  0
  150.5978  138.4715  157.3430 C   0  0  0  0  0  0  0  0  0  0  0  0
  150.6074  137.4635  156.3559 C   0  0  0  0  0  0  0  0  0  0  0  0
  151.5571  137.5265  155.3200 C   0  0  0  0  0  0  0  0  0  0  0  0
  152.4645  138.6015  155.3116 C   0  0  0  0  0  0  0  0  0  0  0  0
  152.4669  139.5740  156.2469 N   0  0  0  0  0  0  0  0  0  0  0  0
  151.5539  139.5152  157.2468 C   0  0  0  0  0  0  0  0  0  0  0  0
  151.5693  140.5485  158.1977 N   0  0  0  0  0  0  0  0  0  0  0  0
  151.1243  141.8265  157.6600 C   0  0  0  0  0  0  0  0  0  0  0  0
  150.9950  142.8561  158.7951 C   0  0  0  0  0  0  0  0  0  0  0  0
  152.2349  142.9601  159.4900 O   0  0  0  0  0  0  0  0  0  0  0  0
  152.6307  141.7203  160.0708 C   0  0  0  0  0  0  0  0  0  0  0  0
  152.8031  140.6645  158.9652 C   0  0  0  0  0  0  0  0  0  0  0  0
  147.1926  134.9766  161.2507 C   0  0  0  0  0  0  0  0  0  0  0  0
  145.7669  135.4748  160.9359 C   0  0  0  0  0  0  0  0  0  0  0  0
  147.6779  135.6381  162.5558 C   0  0  0  0  0  0  0  0  0  0  0  0
  146.6019  132.9781  157.0556 H   0  0  0  0  0  0  0  0  0  0  0  0
  148.1136  132.6580  156.1996 H   0  0  0  0  0  0  0  0  0  0  0  0
  147.3313  134.2351  156.0453 H   0  0  0  0  0  0  0  0  0  0  0  0
  146.6457  134.7342  158.7091 H   0  0  0  0  0  0  0  0  0  0  0  0
  149.1479  134.7337  160.3187 H   0  0  0  0  0  0  0  0  0  0  0  0
  149.6365  136.3077  158.2932 H   0  0  0  0  0  0  0  0  0  0  0  0
  148.6639  138.9363  158.1517 H   0  0  0  0  0  0  0  0  0  0  0  0
  149.9358  138.9563  159.3382 H   0  0  0  0  0  0  0  0  0  0  0  0
  149.8941  136.6530  156.3883 H   0  0  0  0  0  0  0  0  0  0  0  0
  151.5880  136.7699  154.5503 H   0  0  0  0  0  0  0  0  0  0  0  0
  153.2075  138.6843  154.5321 H   0  0  0  0  0  0  0  0  0  0  0  0
  151.8381  142.1789  156.9142 H   0  0  0  0  0  0  0  0  0  0  0  0
  150.1661  141.7038  157.1568 H   0  0  0  0  0  0  0  0  0  0  0  0
  150.7308  143.8325  158.3891 H   0  0  0  0  0  0  0  0  0  0  0  0
  150.2006  142.5721  159.4872 H   0  0  0  0  0  0  0  0  0  0  0  0
  153.5693  141.8613  160.6066 H   0  0  0  0  0  0  0  0  0  0  0  0
  151.8898  141.3980  160.8042 H   0  0  0  0  0  0  0  0  0  0  0  0
  153.0582  139.6987  159.4030 H   0  0  0  0  0  0  0  0  0  0  0  0
  153.6249  140.9511  158.3076 H   0  0  0  0  0  0  0  0  0  0  0  0
  147.1236  133.9047  161.4447 H   0  0  0  0  0  0  0  0  0  0  0  0
  145.7639  136.5430  160.7194 H   0  0  0  0  0  0  0  0  0  0  0  0
  145.1000  135.3102  161.7824 H   0  0  0  0  0  0  0  0  0  0  0  0
  145.3253  134.9578  160.0837 H   0  0  0  0  0  0  0  0  0  0  0  0
  147.8070  136.7134  162.4283 H   0  0  0  0  0  0  0  0  0  0  0  0
  148.6288  135.2265  162.8940 H   0  0  0  0  0  0  0  0  0  0  0  0
  146.9619  135.4844  163.3638 H   0  0  0  0  0  0  0  0  0  0  0  0
  1  2  1  0  0  0  0
  1 25  1  0  0  0  0
  1 26  1  0  0  0  0
  1 27  1  0  0  0  0
  2  3  2  0  0  0  0
  2  4  1  0  0  0  0
  4  5  1  0  0  0  0
  4 28  1  0  0  0  0
  5  6  1  0  0  0  0
  5 22  1  0  0  0  0
  5 29  1  0  0  0  0
  6  7  2  0  0  0  0
  6  8  1  0  0  0  0
  8  9  1  0  0  0  0
  8 30  1  0  0  0  0
  9 10  1  0  0  0  0
  9 31  1  0  0  0  0
  9 32  1  0  0  0  0
 10 15  1  0  0  0  0
 10 11  2  0  0  0  0
 11 12  1  0  0  0  0
 11 33  1  0  0  0  0
 12 13  2  0  0  0  0
 12 34  1  0  0  0  0
 13 14  1  0  0  0  0
 13 35  1  0  0  0  0
 14 15  2  0  0  0  0
 15 16  1  0  0  0  0
 16 21  1  0  0  0  0
 16 17  1  0  0  0  0
 17 18  1  0  0  0  0
 17 36  1  0  0  0  0
 17 37  1  0  0  0  0
 18 19  1  0  0  0  0
 18 38  1  0  0  0  0
 18 39  1  0  0  0  0
 19 20  1  0  0  0  0
 20 21  1  0  0  0  0
 20 40  1  0  0  0  0
 20 41  1  0  0  0  0
 21 42  1  0  0  0  0
 21 43  1  0  0  0  0
 22 23  1  0  0  0  0
 22 24  1  0  0  0  0
 22 44  1  0  0  0  0
 23 45  1  0  0  0  0
 23 46  1  0  0  0  0
 23 47  1  0  0  0  0
 24 48  1  0  0  0  0
 24 49  1  0  0  0  0
 24 50  1  0  0  0  0
M  END
> <s_m_source_file>
AV-unprocessed.smi

> <i_m_source_file_index>
1993

> <i_lp_mmshare_version>
43012

> <i_f3d_flags>
0

> <s_epik_input>
W0NIM11DKD1PKVtOSF1bQ0BASF0oW0NIXShbQ0gzXSlbQ0gzXSlDKD1PKVtOSF1bQ0gyXWMxW2NIXVtjSF1bY0hdbmMxTjJbQ0gyXVtDSDJdT1tDSDJdW0NIMl0y

> <s_epik_cmdline>
J2VwaWtfcHl0aG9uJywgJy1waCcsICc3LjAnLCAnLXRuJywgJzgnLCAnLW1hJywgJzIwMCcsICctbWV0YWxfYmluZGluZycsICctaW1hZScsICc8aW5maWxlLm1hZT4nLCAnLW9tYWUnLCAnPG91dGZpbGUubWFlPic=

> <r_lp_tautomer_probability>
1

> <r_epik_Ionization_Penalty>
0.00485175

> <r_epik_Ionization_Penalty_Charging>
0

> <r_epik_Ionization_Penalty_Neutral>
0.00485175

> <r_epik_State_Penalty>
0.00351951

> <r_epik_Charging_Adjusted_Penalty>
0.00351951

> <i_epik_Tot_Q>
0

> <i_epik_Tot_abs_Q>
0

> <r_epik_Metal_State_Penalty>
-0

> <b_epik_Metal_Only>
0

> <s_lp_Force_Field>
OPLS_2005

> <r_lp_Energy>
18.9648

> <b_lp_Chiralities_Consistent>
1

> <s_lp_Variant>
AV-unprocessed.smi:1993-2

> <Gold.Version>
5.8.1

> <Gold.Id.Protein>
6NUR|6NUR_protein|mol2

> <Gold.PLP.Fitness>
41.9716

> <Gold.PLP.PLP>
-33.0885

> <Gold.PLP.part.hbond>
-4.0000

> <Gold.PLP.part.metal>
0.0000

> <Gold.PLP.part.buried>
-5.5717

> <Gold.PLP.part.nonpolar>
-24.0462

> <Gold.PLP.part.repulsive>
0.2246

> <Gold.PLP.ligand.clash>
0.0000

> <Gold.PLP.ligand.torsion>
0.7782

> <Gold.PLP.Chemscore.Hbond>
3.4240

> <Gold.PLP.Chemscore.CHOScore>
0.0000

> <Gold.PLP.Chemscore.Metal>
0.0000

> <Gold.Chemscore.Hbonds>
donor molecule, donor type, donor heavy atom, donor atom, acceptor molecule, acceptor atom, score
      P1  H  6896  6907       L1     3  1.00
      P1  H  6931  6943       L1     7  0.61
      P1  H  6934  6947       L1     7  0.78
      P1  H  7997  8010       L1    14  1.00

> <Gold.PLP.Chemscore.Internal.Correction>
0.1675

> <Gold.Rescore>
     Score         DG    S(hbond)    S(metal)    S(lipo)     H(rot)  DE(clash)    DE(int)     intcor
     18.31     -20.80       3.40        0.00      81.56       2.18       0.00       2.49       ----

> <Gold.Chemscore.Fitness>
18.3051

> <Gold.Chemscore.DG>
-20.8019

> <Gold.Chemscore.ZeroCoef>
-5.4800

> <Gold.Chemscore.Hbond>
3.4021

> <Gold.Chemscore.Metal>
0.0000

> <Gold.Chemscore.Lipo>
81.5643

> <Gold.Chemscore.Internal_Hbond>
0.0000

> <Gold.Chemscore.DEClash>
0.0048

> <Gold.Chemscore.DEInternal>
2.4919

> <Gold.Chemscore.Rot>
2.1813

> <Gold.Chemscore.Internal.Correction>
   9.000000E+99

> <Gold.Chemscore.Hbonds>
donor molecule, donor type, donor heavy atom, donor atom, acceptor molecule, acceptor atom, score
      P1  H  6896  6907       L1     3  0.98
      P1  H  6931  6943       L1     7  0.47
      P1  H  6934  6947       L1     7  0.77
      P1  H  7997  8010       L1    14  0.58

> <Gold.Chemscore.Hbond.Weighted>
-11.3630

> <Gold.Chemscore.Metal.Weighted>
-0.0000

> <Gold.Chemscore.Lipo.Weighted>
-9.5430

> <Gold.Chemscore.Internal_Hbond.Weighted>
0.0000

> <Gold.Chemscore.DEClash.Weighted>
0.0048

> <Gold.Chemscore.DEInternal.Weighted>
2.4919

> <Gold.Chemscore.Rot.Weighted>
5.5842

> <Gold.Chemscore.Internal.Correction.Weighted>
   9.000000E+99

> <Gold.Protein.RotatedTorsions>
[ 6907 6896 6895 6894 ] final -127.80 input  -60.11 | X-H torsion
[ 7974 7965 7964 7962 ] final   30.81 input  175.53 | X-H torsion
[ 8008 7997 7996 7995 ] final   64.35 input   59.86 | X-H torsion
[ 10167 10162 10161 10158 ] final   40.45 input  -65.29 | X-H torsion
[ 10718 10713 10712 10709 ] final  -71.41 input   66.30 | X-H torsion
[ 10763 10752 10751 10750 ] final  148.94 input  -60.55 | X-H torsion
[ 11005 11000 10999 10996 ] final -168.19 input  -57.11 | X-H torsion

> <Gold.Protein.ActiveResidues>
 VAL166  LYS551  ARG553  GLY616  TRP617  ASP618  TYR619  PRO620  LYS621  CYS622 
 ASP623  PHE694  ASN695  SER759  ASP760  ASP761  ALA762  ILE779  LEU786  VAL792 
 PHE793  MET794  SER795  GLU796  ALA797  LYS798  CYS799  TRP800  GLU811  SER814 

> <Gold.Protein.RotatedAtoms>
  150.9112  133.6996  159.2854 H   0  0  0  0  0  0  0  0  0  0  0  0  # atno 6907 bound_to 6896
  151.4482  135.1026  159.9699 H   0  0  0  0  0  0  0  0  0  0  0  0  # atno 6908 bound_to 6896
  152.4930  133.8504  159.7253 H   0  0  0  0  0  0  0  0  0  0  0  0  # atno 6909 bound_to 6896
  146.1589  139.6739  142.9047 H   0  0  0  0  0  0  0  0  0  0  0  0  # atno 7974 bound_to 7965
  155.6446  140.3497  155.4727 H   0  0  0  0  0  0  0  0  0  0  0  0  # atno 8008 bound_to 7997
  155.9898  140.1191  157.0672 H   0  0  0  0  0  0  0  0  0  0  0  0  # atno 8009 bound_to 7997
  154.4215  140.1122  156.5535 H   0  0  0  0  0  0  0  0  0  0  0  0  # atno 8010 bound_to 7997
  140.3741  144.2066  150.6132 H   0  0  0  0  0  0  0  0  0  0  0  0  # atno 10167 bound_to 10162
  156.0364  130.4351  150.2439 H   0  0  0  0  0  0  0  0  0  0  0  0  # atno 10718 bound_to 10713
  154.0629  135.2872  155.3321 H   0  0  0  0  0  0  0  0  0  0  0  0  # atno 10763 bound_to 10752
  154.6796  135.5268  153.8249 H   0  0  0  0  0  0  0  0  0  0  0  0  # atno 10764 bound_to 10752
  153.0515  135.6578  154.0817 H   0  0  0  0  0  0  0  0  0  0  0  0  # atno 10765 bound_to 10752
  140.5448  134.5487  157.5108 H   0  0  0  0  0  0  0  0  0  0  0  0  # atno 11005 bound_to 11000
  145.4639  141.0434  143.2736 LP  0  0  0  0  0  0  0  0  0  0  0  0  # atno 17320 bound_to 7965
  144.8000  139.6159  143.7076 LP  0  0  0  0  0  0  0  0  0  0  0  0  # atno 17321 bound_to 7965
  140.5004  143.2320  151.8687 LP  0  0  0  0  0  0  0  0  0  0  0  0  # atno 17342 bound_to 10162
  139.4801  144.5066  151.8989 LP  0  0  0  0  0  0  0  0  0  0  0  0  # atno 17343 bound_to 10162
  157.0538  131.0070  151.3245 LP  0  0  0  0  0  0  0  0  0  0  0  0  # atno 17370 bound_to 10713
  157.5121  130.7945  149.7716 LP  0  0  0  0  0  0  0  0  0  0  0  0  # atno 17371 bound_to 10713
  139.9485  134.7659  156.0504 LP  0  0  0  0  0  0  0  0  0  0  0  0  # atno 17394 bound_to 11000
  141.1206  133.6614  156.3205 LP  0  0  0  0  0  0  0  0  0  0  0  0  # atno 17395 bound_to 11000

$$$$
