AV-unprocessed.smi:1591|AV-procd|sdf|6399|dock8
  -GOLD-   22720 7 33D 1   1.00000     0.00000
 Structure written by MMmdl.
 51 54  0  0  0  0  0  0  0  0  2 V2000
  148.8075  132.3868  157.6616 C   0  0  0  0  0  0  0  0  0  0  0  0
  148.5265  133.1298  158.9768 C   0  0  0  0  0  0  0  0  0  0  0  0
  147.2370  133.9878  158.9483 C   0  0  2  0  0  0  0  0  0  0  0  0
  147.3830  135.0292  157.9285 N   0  0  0  0  0  0  0  0  0  0  0  0
  148.4747  135.7775  157.7052 C   0  0  0  0  0  0  0  0  0  0  0  0
  149.4866  135.7360  158.4044 O   0  0  0  0  0  0  0  0  0  0  0  0
  148.4110  136.7055  156.4893 C   0  0  0  0  0  0  0  0  0  0  0  0
  149.7533  137.1899  156.1336 N   0  0  0  0  0  0  0  0  0  0  0  0
  149.9403  138.5831  156.0873 C   0  0  0  0  0  0  0  0  0  0  0  0
  151.1192  139.1320  155.7389 C   0  0  0  0  0  0  0  0  0  0  0  0
  152.2219  138.2404  155.4028 C   0  0  0  0  0  0  0  0  0  0  0  0
  153.3056  138.7236  155.0811 O   0  0  0  0  0  0  0  0  0  0  0  0
  151.9918  136.8960  155.4629 N   0  5  0  0  0  0  0  0  0  0  0  0
  150.7860  136.3517  155.8166 C   0  0  0  0  0  0  0  0  0  0  0  0
  150.6008  135.1353  155.8586 O   0  0  0  0  0  0  0  0  0  0  0  0
  146.8176  134.6198  160.3203 C   0  0  0  0  0  0  0  0  0  0  0  0
  145.3852  135.2283  160.2738 C   0  0  0  0  0  0  0  0  0  0  0  0
  144.9990  135.8212  161.6468 C   0  0  1  0  0  0  0  0  0  0  0  0
  145.0222  134.7114  162.7176 C   0  0  0  0  0  0  0  0  0  0  0  0
  146.4447  134.1226  162.8043 C   0  0  2  0  0  0  0  0  0  0  0  0
  147.4464  135.2264  163.1940 C   0  0  0  0  0  0  0  0  0  0  0  0
  147.4154  136.3319  162.1213 C   0  0  2  0  0  0  0  0  0  0  0  0
  145.9970  136.9323  162.0332 C   0  0  0  0  0  0  0  0  0  0  0  0
  147.8089  135.7403  160.7508 C   0  0  0  0  0  0  0  0  0  0  0  0
  146.8360  133.5295  161.4360 C   0  0  0  0  0  0  0  0  0  0  0  0
  149.6823  131.7440  157.7618 H   0  0  0  0  0  0  0  0  0  0  0  0
  149.0021  133.0772  156.8406 H   0  0  0  0  0  0  0  0  0  0  0  0
  147.9637  131.7567  157.3787 H   0  0  0  0  0  0  0  0  0  0  0  0
  148.4595  132.3766  159.7598 H   0  0  0  0  0  0  0  0  0  0  0  0
  149.3903  133.7486  159.2195 H   0  0  0  0  0  0  0  0  0  0  0  0
  146.4325  133.3118  158.6533 H   0  0  0  0  0  0  0  0  0  0  0  0
  146.6042  135.1482  157.2974 H   0  0  0  0  0  0  0  0  0  0  0  0
  147.9633  136.1828  155.6422 H   0  0  0  0  0  0  0  0  0  0  0  0
  147.7315  137.5313  156.7050 H   0  0  0  0  0  0  0  0  0  0  0  0
  149.0709  139.1714  156.3425 H   0  0  0  0  0  0  0  0  0  0  0  0
  151.2442  140.2041  155.7054 H   0  0  0  0  0  0  0  0  0  0  0  0
  145.3243  136.0109  159.5175 H   0  0  0  0  0  0  0  0  0  0  0  0
  144.6523  134.4721  159.9902 H   0  0  0  0  0  0  0  0  0  0  0  0
  143.9952  136.2429  161.5869 H   0  0  0  0  0  0  0  0  0  0  0  0
  144.7190  135.1124  163.6855 H   0  0  0  0  0  0  0  0  0  0  0  0
  144.3038  133.9292  162.4683 H   0  0  0  0  0  0  0  0  0  0  0  0
  146.4639  133.3349  163.5582 H   0  0  0  0  0  0  0  0  0  0  0  0
  147.1949  135.6387  164.1720 H   0  0  0  0  0  0  0  0  0  0  0  0
  148.4515  134.8121  163.2821 H   0  0  0  0  0  0  0  0  0  0  0  0
  148.1228  137.1162  162.3923 H   0  0  0  0  0  0  0  0  0  0  0  0
  145.9713  137.7374  161.2979 H   0  0  0  0  0  0  0  0  0  0  0  0
  145.7154  137.3778  162.9882 H   0  0  0  0  0  0  0  0  0  0  0  0
  148.8266  135.3495  160.7922 H   0  0  0  0  0  0  0  0  0  0  0  0
  147.8204  136.5529  160.0254 H   0  0  0  0  0  0  0  0  0  0  0  0
  146.1436  132.7195  161.2062 H   0  0  0  0  0  0  0  0  0  0  0  0
  147.8243  133.0718  161.5000 H   0  0  0  0  0  0  0  0  0  0  0  0
  1  2  1  0  0  0  0
  1 26  1  0  0  0  0
  1 27  1  0  0  0  0
  1 28  1  0  0  0  0
  2  3  1  0  0  0  0
  2 29  1  0  0  0  0
  2 30  1  0  0  0  0
  3  4  1  0  0  0  0
  3 16  1  0  0  0  0
  3 31  1  0  0  0  0
  4  5  1  0  0  0  0
  4 32  1  0  0  0  0
  5  6  2  0  0  0  0
  5  7  1  0  0  0  0
  7  8  1  0  0  0  0
  7 33  1  0  0  0  0
  7 34  1  0  0  0  0
  8 14  1  0  0  0  0
  8  9  1  0  0  0  0
  9 10  2  0  0  0  0
  9 35  1  0  0  0  0
 10 11  1  0  0  0  0
 10 36  1  0  0  0  0
 11 12  2  0  0  0  0
 11 13  1  0  0  0  0
 13 14  1  0  0  0  0
 14 15  2  0  0  0  0
 16 24  1  0  0  0  0
 16 25  1  0  0  0  0
 16 17  1  0  0  0  0
 17 18  1  0  0  0  0
 17 37  1  0  0  0  0
 17 38  1  0  0  0  0
 18 23  1  0  0  0  0
 18 19  1  0  0  0  0
 18 39  1  0  0  0  0
 19 20  1  0  0  0  0
 19 40  1  0  0  0  0
 19 41  1  0  0  0  0
 20 21  1  0  0  0  0
 20 25  1  0  0  0  0
 20 42  1  0  0  0  0
 21 22  1  0  0  0  0
 21 43  1  0  0  0  0
 21 44  1  0  0  0  0
 22 23  1  0  0  0  0
 22 24  1  0  0  0  0
 22 45  1  0  0  0  0
 23 46  1  0  0  0  0
 23 47  1  0  0  0  0
 24 48  1  0  0  0  0
 24 49  1  0  0  0  0
 25 50  1  0  0  0  0
 25 51  1  0  0  0  0
M  CHG  1  13  -1
M  END
> <s_m_source_file>
AV-unprocessed.smi

> <i_m_source_file_index>
1591

> <i_lp_mmshare_version>
43012

> <i_f3d_flags>
0

> <s_epik_input>
W0NIMl0xW0NASF0oW0NIMl0yKVtDSDJdW0NASF0oW0NIMl0zKVtDSDJdW0NAQEhdMVtDSDJdQzIzW0NASF0oW0NIMl1bQ0gzXSlbTkhdQyg9TylbQ0gyXW40W2NIXVtjSF1jKD1PKVtuSF1jND1P

> <s_epik_cmdline>
J2VwaWtfcHl0aG9uJywgJy1waCcsICc3LjAnLCAnLXRuJywgJzgnLCAnLW1hJywgJzIwMCcsICctbWV0YWxfYmluZGluZycsICctaW1hZScsICc8aW5maWxlLm1hZT4nLCAnLW9tYWUnLCAnPG91dGZpbGUubWFlPic=

> <r_lp_tautomer_probability>
0.999537

> <r_epik_Ionization_Penalty>
3.13902

> <r_epik_Ionization_Penalty_Charging>
2.97334e-08

> <r_epik_Ionization_Penalty_Neutral>
3.13902

> <r_epik_State_Penalty>
3.13814

> <r_epik_Charging_Adjusted_Penalty>
3.13814

> <i_epik_Tot_Q>
-1

> <i_epik_Tot_abs_Q>
1

> <r_epik_Metal_State_Penalty>
0.465244

> <b_epik_Metal_Only>
1

> <s_lp_Force_Field>
OPLS_2005

> <r_lp_Energy>
48.864

> <b_lp_Chiralities_Consistent>
1

> <s_lp_Variant>
AV-unprocessed.smi:1591-3

> <Gold.Version>
5.8.1

> <Gold.Id.Protein>
6NUR|6NUR_protein|mol2

> <Gold.PLP.Fitness>
45.0039

> <Gold.PLP.PLP>
-34.3488

> <Gold.PLP.part.hbond>
-3.0000

> <Gold.PLP.part.metal>
0.0000

> <Gold.PLP.part.buried>
-5.2080

> <Gold.PLP.part.nonpolar>
-28.1565

> <Gold.PLP.part.repulsive>
0.1417

> <Gold.PLP.ligand.clash>
0.0000

> <Gold.PLP.ligand.torsion>
0.6087

> <Gold.PLP.Chemscore.Hbond>
3.9280

> <Gold.PLP.Chemscore.CHOScore>
0.0000

> <Gold.PLP.Chemscore.Metal>
0.0000

> <Gold.Chemscore.Hbonds>
donor molecule, donor type, donor heavy atom, donor atom, acceptor molecule, acceptor atom, score
      P1  H  6896  6909       L1     6  1.00
      P1  H  7997  8010       L1    12  0.99
      P1  H 10752 10764       L1    13  2.00

> <Gold.PLP.Chemscore.Internal.Correction>
0.0884

> <Gold.Rescore>
     Score         DG    S(hbond)    S(metal)    S(lipo)     H(rot)  DE(clash)    DE(int)     intcor
     15.45     -18.77       2.41        0.00      88.40       1.99       0.04       3.28       ----

> <Gold.Chemscore.Fitness>
15.4476

> <Gold.Chemscore.DG>
-18.7748

> <Gold.Chemscore.ZeroCoef>
-5.4800

> <Gold.Chemscore.Hbond>
2.4060

> <Gold.Chemscore.Metal>
0.0000

> <Gold.Chemscore.Lipo>
88.3958

> <Gold.Chemscore.Internal_Hbond>
0.0000

> <Gold.Chemscore.DEClash>
0.0429

> <Gold.Chemscore.DEInternal>
3.2843

> <Gold.Chemscore.Rot>
1.9858

> <Gold.Chemscore.Internal.Correction>
   9.000000E+99

> <Gold.Chemscore.Hbonds>
donor molecule, donor type, donor heavy atom, donor atom, acceptor molecule, acceptor atom, score
      P1  H  6896  6909       L1     6  0.94
      P1  H  7997  8010       L1    12  0.87
      P1  H 10752 10764       L1    13  0.58

> <Gold.Chemscore.Hbond.Weighted>
-8.0361

> <Gold.Chemscore.Metal.Weighted>
-0.0000

> <Gold.Chemscore.Lipo.Weighted>
-10.3423

> <Gold.Chemscore.Internal_Hbond.Weighted>
0.0000

> <Gold.Chemscore.DEClash.Weighted>
0.0429

> <Gold.Chemscore.DEInternal.Weighted>
3.2843

> <Gold.Chemscore.Rot.Weighted>
5.0836

> <Gold.Chemscore.Internal.Correction.Weighted>
   9.000000E+99

> <Gold.Protein.RotatedTorsions>
[ 6907 6896 6895 6894 ] final   46.86 input  -60.11 | X-H torsion
[ 7974 7965 7964 7962 ] final  -24.06 input  175.53 | X-H torsion
[ 8008 7997 7996 7995 ] final  110.97 input   59.86 | X-H torsion
[ 10167 10162 10161 10158 ] final -155.50 input  -65.29 | X-H torsion
[ 10718 10713 10712 10709 ] final  100.21 input   66.30 | X-H torsion
[ 10763 10752 10751 10750 ] final  -50.78 input  -60.55 | X-H torsion
[ 11005 11000 10999 10996 ] final -118.58 input  -57.11 | X-H torsion

> <Gold.Protein.ActiveResidues>
 VAL166  LYS551  ARG553  GLY616  TRP617  ASP618  TYR619  PRO620  LYS621  CYS622 
 ASP623  PHE694  ASN695  SER759  ASP760  ASP761  ALA762  ILE779  LEU786  VAL792 
 PHE793  MET794  SER795  GLU796  ALA797  LYS798  CYS799  TRP800  GLU811  SER814 

> <Gold.Protein.RotatedAtoms>
  152.2614  134.8030  160.0429 H   0  0  0  0  0  0  0  0  0  0  0  0  # atno 6907 bound_to 6896
  151.8675  133.3464  159.3732 H   0  0  0  0  0  0  0  0  0  0  0  0  # atno 6908 bound_to 6896
  150.7118  134.5072  159.5634 H   0  0  0  0  0  0  0  0  0  0  0  0  # atno 6909 bound_to 6896
  146.1578  140.4701  142.8584 H   0  0  0  0  0  0  0  0  0  0  0  0  # atno 7974 bound_to 7965
  156.2091  140.3028  155.9693 H   0  0  0  0  0  0  0  0  0  0  0  0  # atno 8008 bound_to 7997
  155.2768  140.0436  157.3029 H   0  0  0  0  0  0  0  0  0  0  0  0  # atno 8009 bound_to 7997
  154.5674  140.2338  155.8251 H   0  0  0  0  0  0  0  0  0  0  0  0  # atno 8010 bound_to 7997
  139.6926  143.9396  152.2392 H   0  0  0  0  0  0  0  0  0  0  0  0  # atno 10167 bound_to 10162
  157.6859  131.0692  150.5066 H   0  0  0  0  0  0  0  0  0  0  0  0  # atno 10718 bound_to 10713
  154.1159  135.6542  153.4894 H   0  0  0  0  0  0  0  0  0  0  0  0  # atno 10763 bound_to 10752
  153.0241  135.5259  154.7145 H   0  0  0  0  0  0  0  0  0  0  0  0  # atno 10764 bound_to 10752
  154.6339  135.2979  155.0154 H   0  0  0  0  0  0  0  0  0  0  0  0  # atno 10765 bound_to 10752
  141.0276  134.0030  157.3191 H   0  0  0  0  0  0  0  0  0  0  0  0  # atno 11005 bound_to 11000
  144.7986  140.6170  143.6493 LP  0  0  0  0  0  0  0  0  0  0  0  0  # atno 17320 bound_to 7965
  145.4665  139.1507  143.3837 LP  0  0  0  0  0  0  0  0  0  0  0  0  # atno 17321 bound_to 7965
  139.9216  144.6796  150.8456 LP  0  0  0  0  0  0  0  0  0  0  0  0  # atno 17342 bound_to 10162
  140.7687  143.3371  151.2286 LP  0  0  0  0  0  0  0  0  0  0  0  0  # atno 17343 bound_to 10162
  156.5385  130.4202  149.6166 LP  0  0  0  0  0  0  0  0  0  0  0  0  # atno 17370 bound_to 10713
  156.3006  130.7175  151.2045 LP  0  0  0  0  0  0  0  0  0  0  0  0  # atno 17371 bound_to 10713
  139.9186  135.0199  156.7978 LP  0  0  0  0  0  0  0  0  0  0  0  0  # atno 17394 bound_to 11000
  140.6464  133.9771  155.7733 LP  0  0  0  0  0  0  0  0  0  0  0  0  # atno 17395 bound_to 11000

$$$$
