AV-unprocessed.smi:1312|AV-procd|sdf|5449|dock9
  -GOLD-   22720 5 23D 1   1.00000     0.00000
 Structure written by MMmdl.
 50 51  0  0  0  0  0  0  0  0  2 V2000
  147.4498  140.4726  153.4313 C   0  0  0  0  0  0  0  0  0  0  0  0
  147.5242  139.4001  152.3329 C   0  0  0  0  0  0  0  0  0  0  0  0
  146.3100  138.4299  152.2807 C   0  0  1  0  0  0  0  0  0  0  0  0
  145.8534  138.2367  150.8048 C   0  0  0  0  0  0  0  0  0  0  0  0
  146.8873  137.7252  149.9119 N   0  0  0  0  0  0  0  0  0  0  0  0
  146.7856  137.6550  148.5744 C   0  0  0  0  0  0  0  0  0  0  0  0
  145.7830  138.0146  147.9585 O   0  0  0  0  0  0  0  0  0  0  0  0
  147.9754  137.0630  147.8126 C   0  0  0  0  0  0  0  0  0  0  0  0
  147.5669  135.8374  147.0302 C   0  0  0  0  0  0  0  0  0  0  0  0
  146.9343  134.6620  147.5329 C   0  0  0  0  0  0  0  0  0  0  0  0
  146.5244  134.3540  148.9450 C   0  0  0  0  0  0  0  0  0  0  0  0
  146.7057  133.7679  146.5860 N   0  0  0  0  0  0  0  0  0  0  0  0
  147.1758  134.3334  145.4566 N   0  0  0  0  0  0  0  0  0  0  0  0
  147.0808  133.6059  144.2058 C   0  0  0  0  0  0  0  0  0  0  0  0
  147.7059  135.5877  145.6902 C   0  0  0  0  0  0  0  0  0  0  0  0
  148.2857  136.4220  144.5929 C   0  0  0  0  0  0  0  0  0  0  0  0
  146.6173  137.1113  152.9289 N   0  3  0  0  0  0  0  0  0  0  0  0
  147.0225  137.1468  154.3527 C   0  0  0  0  0  0  0  0  0  0  0  0
  146.8479  135.7186  154.8531 C   0  0  0  0  0  0  0  0  0  0  0  0
  145.5854  135.2599  154.1359 C   0  0  0  0  0  0  0  0  0  0  0  0
  145.5547  136.0751  152.8361 C   0  0  0  0  0  0  0  0  0  0  0  0
  148.4012  140.9984  153.5158 H   0  0  0  0  0  0  0  0  0  0  0  0
  147.2327  140.0288  154.4032 H   0  0  0  0  0  0  0  0  0  0  0  0
  146.6913  141.2263  153.2241 H   0  0  0  0  0  0  0  0  0  0  0  0
  147.6613  139.8811  151.3637 H   0  0  0  0  0  0  0  0  0  0  0  0
  148.4425  138.8490  152.5305 H   0  0  0  0  0  0  0  0  0  0  0  0
  145.5056  138.8990  152.8492 H   0  0  0  0  0  0  0  0  0  0  0  0
  145.0084  137.5530  150.7365 H   0  0  0  0  0  0  0  0  0  0  0  0
  145.5000  139.1863  150.4019 H   0  0  0  0  0  0  0  0  0  0  0  0
  147.7517  137.4195  150.3355 H   0  0  0  0  0  0  0  0  0  0  0  0
  148.3870  137.8375  147.1657 H   0  0  0  0  0  0  0  0  0  0  0  0
  148.7649  136.8213  148.5254 H   0  0  0  0  0  0  0  0  0  0  0  0
  146.3202  135.2657  149.5064 H   0  0  0  0  0  0  0  0  0  0  0  0
  147.3108  133.8111  149.4691 H   0  0  0  0  0  0  0  0  0  0  0  0
  145.6211  133.7439  148.9743 H   0  0  0  0  0  0  0  0  0  0  0  0
  146.6581  134.2501  143.4348 H   0  0  0  0  0  0  0  0  0  0  0  0
  146.4424  132.7287  144.3180 H   0  0  0  0  0  0  0  0  0  0  0  0
  148.0748  133.2832  143.8954 H   0  0  0  0  0  0  0  0  0  0  0  0
  148.8241  137.2829  144.9876 H   0  0  0  0  0  0  0  0  0  0  0  0
  147.4994  136.7928  143.9352 H   0  0  0  0  0  0  0  0  0  0  0  0
  148.9856  135.8423  143.9907 H   0  0  0  0  0  0  0  0  0  0  0  0
  148.0483  137.4943  154.4802 H   0  0  0  0  0  0  0  0  0  0  0  0
  146.3583  137.8101  154.9096 H   0  0  0  0  0  0  0  0  0  0  0  0
  147.6967  135.1087  154.5407 H   0  0  0  0  0  0  0  0  0  0  0  0
  146.7669  135.6548  155.9387 H   0  0  0  0  0  0  0  0  0  0  0  0
  145.5783  134.1841  153.9566 H   0  0  0  0  0  0  0  0  0  0  0  0
  144.7102  135.5003  154.7411 H   0  0  0  0  0  0  0  0  0  0  0  0
  144.5671  136.5219  152.7154 H   0  0  0  0  0  0  0  0  0  0  0  0
  145.7424  135.4369  151.9720 H   0  0  0  0  0  0  0  0  0  0  0  0
  147.4170  136.7329  152.4418 H   0  0  0  0  0  0  0  0  0  0  0  0
  1  2  1  0  0  0  0
  1 22  1  0  0  0  0
  1 23  1  0  0  0  0
  1 24  1  0  0  0  0
  2  3  1  0  0  0  0
  2 25  1  0  0  0  0
  2 26  1  0  0  0  0
  3  4  1  0  0  0  0
  3 17  1  0  0  0  0
  3 27  1  0  0  0  0
  4  5  1  0  0  0  0
  4 28  1  0  0  0  0
  4 29  1  0  0  0  0
  5  6  1  0  0  0  0
  5 30  1  0  0  0  0
  6  7  2  0  0  0  0
  6  8  1  0  0  0  0
  8  9  1  0  0  0  0
  8 31  1  0  0  0  0
  8 32  1  0  0  0  0
  9 15  2  0  0  0  0
  9 10  1  0  0  0  0
 10 11  1  0  0  0  0
 10 12  2  0  0  0  0
 11 33  1  0  0  0  0
 11 34  1  0  0  0  0
 11 35  1  0  0  0  0
 12 13  1  0  0  0  0
 13 14  1  0  0  0  0
 13 15  1  0  0  0  0
 14 36  1  0  0  0  0
 14 37  1  0  0  0  0
 14 38  1  0  0  0  0
 15 16  1  0  0  0  0
 16 39  1  0  0  0  0
 16 40  1  0  0  0  0
 16 41  1  0  0  0  0
 17 21  1  0  0  0  0
 17 18  1  0  0  0  0
 17 50  1  0  0  0  0
 18 19  1  0  0  0  0
 18 42  1  0  0  0  0
 18 43  1  0  0  0  0
 19 20  1  0  0  0  0
 19 44  1  0  0  0  0
 19 45  1  0  0  0  0
 20 21  1  0  0  0  0
 20 46  1  0  0  0  0
 20 47  1  0  0  0  0
 21 48  1  0  0  0  0
 21 49  1  0  0  0  0
M  CHG  1  17   1
M  END
> <s_m_source_file>
AV-unprocessed.smi

> <i_m_source_file_index>
1312

> <i_lp_mmshare_version>
43012

> <i_f3d_flags>
0

> <s_epik_input>
W0NIMl0xW0NIMl1bQ0gyXVtDSDJdTjFbQ0BIXShbQ0gyXVtDSDNdKVtDSDJdW05IXUMoPU8pW0NIMl1jMmMoW0NIM10pbm4oW0NIM10pYzJbQ0gzXQ==

> <s_epik_cmdline>
J2VwaWtfcHl0aG9uJywgJy1waCcsICc3LjAnLCAnLXRuJywgJzgnLCAnLW1hJywgJzIwMCcsICctbWV0YWxfYmluZGluZycsICctaW1hZScsICc8aW5maWxlLm1hZT4nLCAnLW9tYWUnLCAnPG91dGZpbGUubWFlPic=

> <r_lp_tautomer_probability>
1

> <r_epik_Ionization_Penalty>
0.00585463

> <r_epik_Ionization_Penalty_Charging>
0.00366302

> <r_epik_Ionization_Penalty_Neutral>
0.00219161

> <r_epik_State_Penalty>
-0

> <r_epik_Charging_Adjusted_Penalty>
0.00366302

> <i_epik_Tot_Q>
1

> <i_epik_Tot_abs_Q>
1

> <r_epik_Metal_State_Penalty>
-0

> <b_epik_Metal_Only>
0

> <s_lp_Force_Field>
OPLS_2005

> <r_lp_Energy>
35.2401

> <b_lp_Chiralities_Consistent>
1

> <s_lp_Variant>
AV-unprocessed.smi:1312-2

> <Gold.Version>
5.8.1

> <Gold.Id.Protein>
6NUR|6NUR_protein|mol2

> <Gold.PLP.Fitness>
45.6740

> <Gold.PLP.PLP>
-38.0079

> <Gold.PLP.part.hbond>
-2.0000

> <Gold.PLP.part.metal>
0.0000

> <Gold.PLP.part.buried>
-5.0573

> <Gold.PLP.part.nonpolar>
-32.0838

> <Gold.PLP.part.repulsive>
0.9912

> <Gold.PLP.ligand.clash>
0.0000

> <Gold.PLP.ligand.torsion>
0.7015

> <Gold.PLP.Chemscore.Hbond>
2.9920

> <Gold.PLP.Chemscore.CHOScore>
0.0000

> <Gold.PLP.Chemscore.Metal>
0.0000

> <Gold.Chemscore.Hbonds>
donor molecule, donor type, donor heavy atom, donor atom, acceptor molecule, acceptor atom, score
      L1  H     5    30       P1  7948  0.57
      L1  H    17    50       P1  7948  2.00

> <Gold.PLP.Chemscore.Internal.Correction>
0.0931

> <Gold.Rescore>
     Score         DG    S(hbond)    S(metal)    S(lipo)     H(rot)  DE(clash)    DE(int)     intcor
     17.50     -18.33       1.95        0.00      91.70       1.72       0.01       0.81       ----

> <Gold.Chemscore.Fitness>
17.4993

> <Gold.Chemscore.DG>
-18.3283

> <Gold.Chemscore.ZeroCoef>
-5.4800

> <Gold.Chemscore.Hbond>
1.9540

> <Gold.Chemscore.Metal>
0.0000

> <Gold.Chemscore.Lipo>
91.6968

> <Gold.Chemscore.Internal_Hbond>
0.0000

> <Gold.Chemscore.DEClash>
0.0144

> <Gold.Chemscore.DEInternal>
0.8146

> <Gold.Chemscore.Rot>
1.7213

> <Gold.Chemscore.Internal.Correction>
   9.000000E+99

> <Gold.Chemscore.Hbonds>
donor molecule, donor type, donor heavy atom, donor atom, acceptor molecule, acceptor atom, score
      L1  H     5    30       P1  7948  0.30
      L1  H    17    50       P1  7948  1.00

> <Gold.Chemscore.Hbond.Weighted>
-6.5263

> <Gold.Chemscore.Metal.Weighted>
-0.0000

> <Gold.Chemscore.Lipo.Weighted>
-10.7285

> <Gold.Chemscore.Internal_Hbond.Weighted>
0.0000

> <Gold.Chemscore.DEClash.Weighted>
0.0144

> <Gold.Chemscore.DEInternal.Weighted>
0.8146

> <Gold.Chemscore.Rot.Weighted>
4.4065

> <Gold.Chemscore.Internal.Correction.Weighted>
   9.000000E+99

> <Gold.Protein.RotatedTorsions>
[ 6907 6896 6895 6894 ] final  -36.55 input  -60.11 | X-H torsion
[ 7974 7965 7964 7962 ] final    2.86 input  175.53 | X-H torsion
[ 8008 7997 7996 7995 ] final  103.85 input   59.86 | X-H torsion
[ 10167 10162 10161 10158 ] final -146.18 input  -65.29 | X-H torsion
[ 10718 10713 10712 10709 ] final   87.36 input   66.30 | X-H torsion
[ 10763 10752 10751 10750 ] final   60.94 input  -60.55 | X-H torsion
[ 11005 11000 10999 10996 ] final  158.04 input  -57.11 | X-H torsion

> <Gold.Protein.ActiveResidues>
 VAL166  LYS551  ARG553  GLY616  TRP617  ASP618  TYR619  PRO620  LYS621  CYS622 
 ASP623  PHE694  ASN695  SER759  ASP760  ASP761  ALA762  ILE779  LEU786  VAL792 
 PHE793  MET794  SER795  GLU796  ALA797  LYS798  CYS799  TRP800  GLU811  SER814 

> <Gold.Protein.RotatedAtoms>
  151.0258  134.9503  159.8084 H   0  0  0  0  0  0  0  0  0  0  0  0  # atno 6907 bound_to 6896
  152.5335  134.2844  159.9029 H   0  0  0  0  0  0  0  0  0  0  0  0  # atno 6908 bound_to 6896
  151.2852  133.4148  159.2663 H   0  0  0  0  0  0  0  0  0  0  0  0  # atno 6909 bound_to 6896
  146.2444  140.0772  142.8359 H   0  0  0  0  0  0  0  0  0  0  0  0  # atno 7974 bound_to 7965
  156.1521  140.3157  155.8665 H   0  0  0  0  0  0  0  0  0  0  0  0  # atno 8008 bound_to 7997
  155.3950  140.0496  157.3056 H   0  0  0  0  0  0  0  0  0  0  0  0  # atno 8009 bound_to 7997
  154.5068  140.2150  155.9247 H   0  0  0  0  0  0  0  0  0  0  0  0  # atno 8010 bound_to 7997
  139.7737  143.8201  152.2628 H   0  0  0  0  0  0  0  0  0  0  0  0  # atno 10167 bound_to 10162
  157.6939  131.0252  150.3112 H   0  0  0  0  0  0  0  0  0  0  0  0  # atno 10718 bound_to 10713
  152.9935  135.5518  154.5954 H   0  0  0  0  0  0  0  0  0  0  0  0  # atno 10763 bound_to 10752
  154.5307  135.2813  155.1185 H   0  0  0  0  0  0  0  0  0  0  0  0  # atno 10764 bound_to 10752
  154.2501  135.6400  153.5290 H   0  0  0  0  0  0  0  0  0  0  0  0  # atno 10765 bound_to 10752
  140.1827  134.8464  157.2822 H   0  0  0  0  0  0  0  0  0  0  0  0  # atno 11005 bound_to 11000
  145.0764  140.9191  143.4851 LP  0  0  0  0  0  0  0  0  0  0  0  0  # atno 17320 bound_to 7965
  145.0916  139.2886  143.5732 LP  0  0  0  0  0  0  0  0  0  0  0  0  # atno 17321 bound_to 7965
  139.8243  144.7282  150.9532 LP  0  0  0  0  0  0  0  0  0  0  0  0  # atno 17342 bound_to 10162
  140.7815  143.4129  151.0963 LP  0  0  0  0  0  0  0  0  0  0  0  0  # atno 17343 bound_to 10162
  156.3613  130.3847  149.7249 LP  0  0  0  0  0  0  0  0  0  0  0  0  # atno 17370 bound_to 10713
  156.4694  130.7989  151.3008 LP  0  0  0  0  0  0  0  0  0  0  0  0  # atno 17371 bound_to 10713
  140.2249  134.3979  155.7548 LP  0  0  0  0  0  0  0  0  0  0  0  0  # atno 17394 bound_to 11000
  141.2223  133.7185  156.8548 LP  0  0  0  0  0  0  0  0  0  0  0  0  # atno 17395 bound_to 11000

$$$$
