AV-unprocessed.smi:2217|AV-procd|sdf|8973|dock1
  -GOLD-   2272012183D 1   1.00000     0.00000
 Structure written by MMmdl.
 45 48  0  0  0  0  0  0  0  0  1 V2000
  143.4160  131.7851  149.9668 C   0  0  0  0  0  0  0  0  0  0  0  0
  144.2952  132.7823  150.6919 C   0  0  0  0  0  0  0  0  0  0  0  0
  145.6977  132.6642  150.6734 C   0  0  0  0  0  0  0  0  0  0  0  0
  146.4688  133.6174  151.3664 C   0  0  0  0  0  0  0  0  0  0  0  0
  145.8252  134.6638  152.0651 C   0  0  0  0  0  0  0  0  0  0  0  0
  146.7107  135.5680  152.7246 N   0  0  0  0  0  0  0  0  0  0  0  0
  146.5380  136.3564  153.8075 C   0  0  0  0  0  0  0  0  0  0  0  0
  145.4672  136.3823  154.4118 O   0  0  0  0  0  0  0  0  0  0  0  0
  147.5960  137.0969  154.1689 N   0  0  0  0  0  0  0  0  0  0  0  0
  147.6686  138.0023  155.3144 C   0  0  1  0  0  0  0  0  0  0  0  0
  149.0894  138.0843  155.9197 C   0  0  1  0  0  0  0  0  0  0  0  0
  150.1863  137.1093  155.5654 C   0  0  0  0  0  0  0  0  0  0  0  0
  150.9659  137.8535  154.4767 C   0  0  0  0  0  0  0  0  0  0  0  0
  150.0570  138.8334  153.9792 O   0  0  0  0  0  0  0  0  0  0  0  0
  149.3096  139.3360  155.0844 C   0  0  1  0  0  0  0  0  0  0  0  0
  147.7876  139.4811  154.8758 C   0  0  0  0  0  0  0  0  0  0  0  0
  147.1088  140.5199  155.7673 C   0  0  0  0  0  0  0  0  0  0  0  0
  147.0627  141.8353  154.9824 C   0  0  0  0  0  0  0  0  0  0  0  0
  147.2500  141.4495  153.5120 C   0  0  0  0  0  0  0  0  0  0  0  0
  147.2988  139.9207  153.4954 C   0  0  0  0  0  0  0  0  0  0  0  0
  144.4713  134.7669  152.0727 N   0  0  0  0  0  0  0  0  0  0  0  0
  143.7316  133.8545  151.4089 C   0  0  0  0  0  0  0  0  0  0  0  0
  143.9710  131.2724  149.1806 H   0  0  0  0  0  0  0  0  0  0  0  0
  142.5640  132.2871  149.5076 H   0  0  0  0  0  0  0  0  0  0  0  0
  143.0396  131.0378  150.6655 H   0  0  0  0  0  0  0  0  0  0  0  0
  146.1780  131.8580  150.1387 H   0  0  0  0  0  0  0  0  0  0  0  0
  147.5465  133.5402  151.3604 H   0  0  0  0  0  0  0  0  0  0  0  0
  147.6199  135.6482  152.2930 H   0  0  0  0  0  0  0  0  0  0  0  0
  148.4347  137.0112  153.6116 H   0  0  0  0  0  0  0  0  0  0  0  0
  146.8968  137.8424  156.0692 H   0  0  0  0  0  0  0  0  0  0  0  0
  149.0424  138.3263  156.9827 H   0  0  0  0  0  0  0  0  0  0  0  0
  150.8261  136.8811  156.4182 H   0  0  0  0  0  0  0  0  0  0  0  0
  149.7924  136.1634  155.1937 H   0  0  0  0  0  0  0  0  0  0  0  0
  151.8316  138.3603  154.9056 H   0  0  0  0  0  0  0  0  0  0  0  0
  151.3149  137.1930  153.6828 H   0  0  0  0  0  0  0  0  0  0  0  0
  149.8064  140.1484  155.6167 H   0  0  0  0  0  0  0  0  0  0  0  0
  146.0904  140.2024  155.9956 H   0  0  0  0  0  0  0  0  0  0  0  0
  147.6173  140.6469  156.7238 H   0  0  0  0  0  0  0  0  0  0  0  0
  146.1213  142.3600  155.1483 H   0  0  0  0  0  0  0  0  0  0  0  0
  147.8685  142.4988  155.2985 H   0  0  0  0  0  0  0  0  0  0  0  0
  146.4537  141.8373  152.8761 H   0  0  0  0  0  0  0  0  0  0  0  0
  148.1931  141.8545  153.1429 H   0  0  0  0  0  0  0  0  0  0  0  0
  147.9277  139.5526  152.6841 H   0  0  0  0  0  0  0  0  0  0  0  0
  146.2958  139.5307  153.3163 H   0  0  0  0  0  0  0  0  0  0  0  0
  142.6605  133.9871  151.4528 H   0  0  0  0  0  0  0  0  0  0  0  0
  1  2  1  0  0  0  0
  1 23  1  0  0  0  0
  1 24  1  0  0  0  0
  1 25  1  0  0  0  0
  2 22  1  0  0  0  0
  2  3  2  0  0  0  0
  3  4  1  0  0  0  0
  3 26  1  0  0  0  0
  4  5  2  0  0  0  0
  4 27  1  0  0  0  0
  5  6  1  0  0  0  0
  5 21  1  0  0  0  0
  6  7  1  0  0  0  0
  6 28  1  0  0  0  0
  7  8  2  0  0  0  0
  7  9  1  0  0  0  0
  9 10  1  0  0  0  0
  9 29  1  0  0  0  0
 10 16  1  0  0  0  0
 10 11  1  0  0  0  0
 10 30  1  0  0  0  0
 11 15  1  0  0  0  0
 11 12  1  0  0  0  0
 11 31  1  0  0  0  0
 12 13  1  0  0  0  0
 12 32  1  0  0  0  0
 12 33  1  0  0  0  0
 13 14  1  0  0  0  0
 13 34  1  0  0  0  0
 13 35  1  0  0  0  0
 14 15  1  0  0  0  0
 15 16  1  0  0  0  0
 15 36  1  0  0  0  0
 16 20  1  0  0  0  0
 16 17  1  0  0  0  0
 17 18  1  0  0  0  0
 17 37  1  0  0  0  0
 17 38  1  0  0  0  0
 18 19  1  0  0  0  0
 18 39  1  0  0  0  0
 18 40  1  0  0  0  0
 19 20  1  0  0  0  0
 19 41  1  0  0  0  0
 19 42  1  0  0  0  0
 20 43  1  0  0  0  0
 20 44  1  0  0  0  0
 21 22  2  0  0  0  0
 22 45  1  0  0  0  0
M  END
> <s_m_source_file>
AV-unprocessed.smi

> <i_m_source_file_index>
2217

> <i_lp_mmshare_version>
43012

> <i_f3d_flags>
0

> <s_epik_input>
W0NIM11jMVtjSF1bY0hdYyhuW2NIXTEpW05IXUMoPU8pW05IXVtDQEBIXTJbQ0BASF0oW0NIMl1bQ0gyXU8zKVtDQEhdM0MyNFtDSDJdW0NIMl1bQ0gyXVtDSDJdNA==

> <s_epik_cmdline>
J2VwaWtfcHl0aG9uJywgJy1waCcsICc3LjAnLCAnLXRuJywgJzgnLCAnLW1hJywgJzIwMCcsICctbWV0YWxfYmluZGluZycsICctaW1hZScsICc8aW5maWxlLm1hZT4nLCAnLW9tYWUnLCAnPG91dGZpbGUubWFlPic=

> <r_lp_tautomer_probability>
1

> <r_epik_Ionization_Penalty>
6.14796e-05

> <r_epik_Ionization_Penalty_Charging>
0

> <r_epik_Ionization_Penalty_Neutral>
6.14796e-05

> <r_epik_State_Penalty>
-0

> <r_epik_Charging_Adjusted_Penalty>
0

> <i_epik_Tot_Q>
0

> <i_epik_Tot_abs_Q>
0

> <r_epik_Metal_State_Penalty>
-0

> <b_epik_Metal_Only>
0

> <s_lp_Force_Field>
OPLS_2005

> <r_lp_Energy>
58.8424

> <b_lp_Chiralities_Consistent>
1

> <s_lp_Variant>
AV-unprocessed.smi:2217-6

> <Gold.Version>
5.8.1

> <Gold.Id.Protein>
6NUR|6NUR_protein|mol2

> <Gold.PLP.Fitness>
34.3154

> <Gold.PLP.PLP>
-26.9064

> <Gold.PLP.part.hbond>
-1.8054

> <Gold.PLP.part.metal>
0.0000

> <Gold.PLP.part.buried>
-2.0627

> <Gold.PLP.part.nonpolar>
-24.7892

> <Gold.PLP.part.repulsive>
0.6380

> <Gold.PLP.ligand.clash>
0.0000

> <Gold.PLP.ligand.torsion>
0.3600

> <Gold.PLP.Chemscore.Hbond>
1.6780

> <Gold.PLP.Chemscore.CHOScore>
0.9632

> <Gold.PLP.Chemscore.Metal>
0.0000

> <Gold.Chemscore.Hbonds>
donor molecule, donor type, donor heavy atom, donor atom, acceptor molecule, acceptor atom, score
      L1  H     6    28       P1  7948  0.91
      L1  H     9    29       P1  7948  0.77
      L1  C    22    45       P1 10186  0.93

> <Gold.PLP.Chemscore.Internal.Correction>
0.2053

> <Gold.Rescore>
     Score         DG    S(hbond)    S(metal)    S(lipo)     H(rot)  DE(clash)    DE(int)     intcor
     16.23     -17.83       1.63        0.00      80.85       1.00       0.28       1.32       ----

> <Gold.Chemscore.Fitness>
16.2303

> <Gold.Chemscore.DG>
-17.8258

> <Gold.Chemscore.ZeroCoef>
-5.4800

> <Gold.Chemscore.Hbond>
1.6306

> <Gold.Chemscore.Metal>
0.0000

> <Gold.Chemscore.Lipo>
80.8512

> <Gold.Chemscore.Internal_Hbond>
0.0000

> <Gold.Chemscore.DEClash>
0.2750

> <Gold.Chemscore.DEInternal>
1.3205

> <Gold.Chemscore.Rot>
1.0000

> <Gold.Chemscore.Internal.Correction>
   9.000000E+99

> <Gold.Chemscore.Hbonds>
donor molecule, donor type, donor heavy atom, donor atom, acceptor molecule, acceptor atom, score
      L1  H     6    28       P1  7948  0.88
      L1  H     9    29       P1  7948  0.74

> <Gold.Chemscore.Hbond.Weighted>
-5.4462

> <Gold.Chemscore.Metal.Weighted>
-0.0000

> <Gold.Chemscore.Lipo.Weighted>
-9.4596

> <Gold.Chemscore.Internal_Hbond.Weighted>
0.0000

> <Gold.Chemscore.DEClash.Weighted>
0.2750

> <Gold.Chemscore.DEInternal.Weighted>
1.3205

> <Gold.Chemscore.Rot.Weighted>
2.5600

> <Gold.Chemscore.Internal.Correction.Weighted>
   9.000000E+99

> <Gold.Protein.RotatedTorsions>
[ 6907 6896 6895 6894 ] final   45.41 input  -60.11 | X-H torsion
[ 7974 7965 7964 7962 ] final  -72.77 input  175.53 | X-H torsion
[ 8008 7997 7996 7995 ] final  133.48 input   59.86 | X-H torsion
[ 10167 10162 10161 10158 ] final  -19.88 input  -65.29 | X-H torsion
[ 10718 10713 10712 10709 ] final -160.16 input   66.30 | X-H torsion
[ 10763 10752 10751 10750 ] final -176.59 input  -60.55 | X-H torsion
[ 11005 11000 10999 10996 ] final   92.40 input  -57.11 | X-H torsion

> <Gold.Protein.ActiveResidues>
 VAL166  LYS551  ARG553  GLY616  TRP617  ASP618  TYR619  PRO620  LYS621  CYS622 
 ASP623  PHE694  ASN695  SER759  ASP760  ASP761  ALA762  ILE779  LEU786  VAL792 
 PHE793  MET794  SER795  GLU796  ALA797  LYS798  CYS799  TRP800  GLU811  SER814 

> <Gold.Protein.RotatedAtoms>
  152.2443  134.8197  160.0455 H   0  0  0  0  0  0  0  0  0  0  0  0  # atno 6907 bound_to 6896
  151.8901  133.3509  159.3803 H   0  0  0  0  0  0  0  0  0  0  0  0  # atno 6908 bound_to 6896
  150.7063  134.4859  159.5536 H   0  0  0  0  0  0  0  0  0  0  0  0  # atno 6909 bound_to 6896
  145.6608  140.9253  143.0935 H   0  0  0  0  0  0  0  0  0  0  0  0  # atno 7974 bound_to 7965
  156.2992  140.2520  156.3261 H   0  0  0  0  0  0  0  0  0  0  0  0  # atno 8008 bound_to 7997
  154.9189  140.0401  157.2006 H   0  0  0  0  0  0  0  0  0  0  0  0  # atno 8009 bound_to 7997
  154.8330  140.2879  155.5713 H   0  0  0  0  0  0  0  0  0  0  0  0  # atno 8010 bound_to 7997
  140.7272  143.4775  151.0162 H   0  0  0  0  0  0  0  0  0  0  0  0  # atno 10167 bound_to 10162
  156.5782  130.8718  151.2857 H   0  0  0  0  0  0  0  0  0  0  0  0  # atno 10718 bound_to 10713
  154.5705  135.2827  155.0832 H   0  0  0  0  0  0  0  0  0  0  0  0  # atno 10763 bound_to 10752
  154.2206  135.6392  153.5147 H   0  0  0  0  0  0  0  0  0  0  0  0  # atno 10764 bound_to 10752
  153.0056  135.5513  154.6327 H   0  0  0  0  0  0  0  0  0  0  0  0  # atno 10765 bound_to 10752
  139.8824  134.8730  156.3567 H   0  0  0  0  0  0  0  0  0  0  0  0  # atno 11005 bound_to 11000
  144.7089  139.8447  143.7421 LP  0  0  0  0  0  0  0  0  0  0  0  0  # atno 17320 bound_to 7965
  146.1126  139.4133  143.0278 LP  0  0  0  0  0  0  0  0  0  0  0  0  # atno 17321 bound_to 7965
  139.8472  143.7486  152.3179 LP  0  0  0  0  0  0  0  0  0  0  0  0  # atno 17342 bound_to 10162
  139.7655  144.7493  151.0300 LP  0  0  0  0  0  0  0  0  0  0  0  0  # atno 17343 bound_to 10162
  157.7332  130.9728  150.1969 LP  0  0  0  0  0  0  0  0  0  0  0  0  # atno 17370 bound_to 10713
  156.2655  130.3715  149.8086 LP  0  0  0  0  0  0  0  0  0  0  0  0  # atno 17371 bound_to 10713
  140.9557  133.7421  156.0333 LP  0  0  0  0  0  0  0  0  0  0  0  0  # atno 17394 bound_to 11000
  140.8051  134.3464  157.5428 LP  0  0  0  0  0  0  0  0  0  0  0  0  # atno 17395 bound_to 11000

$$$$
