AV-unprocessed.smi:2445|AV-procd|sdf|9634|dock6
  -GOLD-   2272013263D 1   1.00000     0.00000
 Structure written by MMmdl.
 40 41  0  0  0  0  0  0  0  0  1 V2000
  143.6912  132.4121  149.7448 C   0  0  0  0  0  0  0  0  0  0  0  0
  144.5293  132.8384  150.9019 C   0  0  0  0  0  0  0  0  0  0  0  0
  144.4342  134.0015  151.6249 C   0  0  0  0  0  0  0  0  0  0  0  0
  145.3717  134.1040  152.6548 N   0  0  0  0  0  0  0  0  0  0  0  0
  146.1748  133.0384  152.7238 C   0  0  0  0  0  0  0  0  0  0  0  0
  147.2677  132.8839  153.7345 C   0  0  1  0  0  0  0  0  0  0  0  0
  148.6362  132.6789  153.0619 C   0  0  0  0  0  0  0  0  0  0  0  0
  147.2377  134.0212  154.7788 C   0  0  0  0  0  0  0  0  0  0  0  0
  147.8760  135.2439  154.3017 N   0  0  0  0  0  0  0  0  0  0  0  0
  148.0308  136.3618  155.0236 C   0  0  0  0  0  0  0  0  0  0  0  0
  147.6344  136.4956  156.1815 O   0  0  0  0  0  0  0  0  0  0  0  0
  148.6799  137.3103  154.3354 N   0  0  0  0  0  0  0  0  0  0  0  0
  149.0366  138.6265  154.8556 C   0  0  2  0  0  0  0  0  0  0  0  0
  148.2345  139.7264  154.1915 C   0  0  0  0  0  0  0  0  0  0  0  0
  149.1317  140.9456  154.3848 C   0  0  0  0  0  0  0  0  0  0  0  0
  150.4658  140.4524  154.4632 O   0  0  0  0  0  0  0  0  0  0  0  0
  150.4679  139.0286  154.4803 C   0  0  1  0  0  0  0  0  0  0  0  0
  151.5478  138.5125  155.4388 C   0  0  0  0  0  0  0  0  0  0  0  0
  145.8151  131.8239  151.5014 S   0  0  0  0  0  0  0  0  0  0  0  0
  142.9405  133.1654  149.5041 H   0  0  0  0  0  0  0  0  0  0  0  0
  143.1729  131.4789  149.9660 H   0  0  0  0  0  0  0  0  0  0  0  0
  144.3069  132.2557  148.8589 H   0  0  0  0  0  0  0  0  0  0  0  0
  143.7313  134.8080  151.4763 H   0  0  0  0  0  0  0  0  0  0  0  0
  147.0504  131.9579  154.2686 H   0  0  0  0  0  0  0  0  0  0  0  0
  148.6072  131.8378  152.3686 H   0  0  0  0  0  0  0  0  0  0  0  0
  149.4163  132.4686  153.7937 H   0  0  0  0  0  0  0  0  0  0  0  0
  148.9371  133.5634  152.4998 H   0  0  0  0  0  0  0  0  0  0  0  0
  146.2063  134.2626  155.0372 H   0  0  0  0  0  0  0  0  0  0  0  0
  147.7183  133.6975  155.7038 H   0  0  0  0  0  0  0  0  0  0  0  0
  148.2363  135.2307  153.3588 H   0  0  0  0  0  0  0  0  0  0  0  0
  148.9645  137.1023  153.3895 H   0  0  0  0  0  0  0  0  0  0  0  0
  148.8926  138.6856  155.9365 H   0  0  0  0  0  0  0  0  0  0  0  0
  148.1171  139.5246  153.1254 H   0  0  0  0  0  0  0  0  0  0  0  0
  147.2423  139.8561  154.6243 H   0  0  0  0  0  0  0  0  0  0  0  0
  149.0226  141.6709  153.5782 H   0  0  0  0  0  0  0  0  0  0  0  0
  148.8948  141.4472  155.3238 H   0  0  0  0  0  0  0  0  0  0  0  0
  150.6893  138.6964  153.4643 H   0  0  0  0  0  0  0  0  0  0  0  0
  151.5805  137.4230  155.4460 H   0  0  0  0  0  0  0  0  0  0  0  0
  151.3638  138.8495  156.4591 H   0  0  0  0  0  0  0  0  0  0  0  0
  152.5337  138.8705  155.1418 H   0  0  0  0  0  0  0  0  0  0  0  0
  1  2  1  0  0  0  0
  1 20  1  0  0  0  0
  1 21  1  0  0  0  0
  1 22  1  0  0  0  0
  2 19  1  0  0  0  0
  2  3  2  0  0  0  0
  3  4  1  0  0  0  0
  3 23  1  0  0  0  0
  4  5  2  0  0  0  0
  5  6  1  0  0  0  0
  5 19  1  0  0  0  0
  6  7  1  0  0  0  0
  6  8  1  0  0  0  0
  6 24  1  0  0  0  0
  7 25  1  0  0  0  0
  7 26  1  0  0  0  0
  7 27  1  0  0  0  0
  8  9  1  0  0  0  0
  8 28  1  0  0  0  0
  8 29  1  0  0  0  0
  9 10  1  0  0  0  0
  9 30  1  0  0  0  0
 10 11  2  0  0  0  0
 10 12  1  0  0  0  0
 12 13  1  0  0  0  0
 12 31  1  0  0  0  0
 13 17  1  0  0  0  0
 13 14  1  0  0  0  0
 13 32  1  0  0  0  0
 14 15  1  0  0  0  0
 14 33  1  0  0  0  0
 14 34  1  0  0  0  0
 15 16  1  0  0  0  0
 15 35  1  0  0  0  0
 15 36  1  0  0  0  0
 16 17  1  0  0  0  0
 17 18  1  0  0  0  0
 17 37  1  0  0  0  0
 18 38  1  0  0  0  0
 18 39  1  0  0  0  0
 18 40  1  0  0  0  0
M  END
> <s_m_source_file>
AV-unprocessed.smi

> <i_m_source_file_index>
2445

> <i_lp_mmshare_version>
43012

> <i_f3d_flags>
0

> <s_epik_input>
W0NIM11jMVtjSF1uYyhzMSlbQ0BIXShbQ0gzXSlbQ0gyXVtOSF1DKD1PKVtOSF1bQ0BASF0yW0NIMl1bQ0gyXU9bQ0BIXTJbQ0gzXQ==

> <s_epik_cmdline>
J2VwaWtfcHl0aG9uJywgJy1waCcsICc3LjAnLCAnLXRuJywgJzgnLCAnLW1hJywgJzIwMCcsICctbWV0YWxfYmluZGluZycsICctaW1hZScsICc8aW5maWxlLm1hZT4nLCAnLW9tYWUnLCAnPG91dGZpbGUubWFlPic=

> <r_epik_Ionization_Penalty>
0.000649483

> <r_epik_Ionization_Penalty_Charging>
0

> <r_epik_Ionization_Penalty_Neutral>
0.000649483

> <r_epik_State_Penalty>
0.000379895

> <r_epik_Charging_Adjusted_Penalty>
0.000379895

> <i_epik_Tot_Q>
0

> <i_epik_Tot_abs_Q>
0

> <r_epik_Metal_State_Penalty>
-0

> <b_epik_Metal_Only>
0

> <s_lp_Force_Field>
OPLS_2005

> <r_lp_Energy>
5.33919

> <b_lp_Chiralities_Consistent>
1

> <s_lp_Variant>
AV-unprocessed.smi:2445-2

> <Gold.Version>
5.8.1

> <Gold.Id.Protein>
6NUR|6NUR_protein|mol2

> <Gold.PLP.Fitness>
40.0751

> <Gold.PLP.PLP>
-31.6897

> <Gold.PLP.part.hbond>
-2.8157

> <Gold.PLP.part.metal>
0.0000

> <Gold.PLP.part.buried>
-4.2026

> <Gold.PLP.part.nonpolar>
-25.4425

> <Gold.PLP.part.repulsive>
0.2254

> <Gold.PLP.ligand.clash>
0.0000

> <Gold.PLP.ligand.torsion>
0.3486

> <Gold.PLP.Chemscore.Hbond>
2.9840

> <Gold.PLP.Chemscore.CHOScore>
0.0000

> <Gold.PLP.Chemscore.Metal>
0.0000

> <Gold.Chemscore.Hbonds>
donor molecule, donor type, donor heavy atom, donor atom, acceptor molecule, acceptor atom, score
      L1  H     9    30       P1  7948  0.98
      L1  H    12    31       P1  7948  1.00
      P1  H  7989  7998       L1    16  1.00

> <Gold.PLP.Chemscore.Internal.Correction>
0.1305

> <Gold.Rescore>
     Score         DG    S(hbond)    S(metal)    S(lipo)     H(rot)  DE(clash)    DE(int)     intcor
     19.55     -20.07       2.60        0.00      83.90       1.53       0.05       0.47       ----

> <Gold.Chemscore.Fitness>
19.5457

> <Gold.Chemscore.DG>
-20.0685

> <Gold.Chemscore.ZeroCoef>
-5.4800

> <Gold.Chemscore.Hbond>
2.6033

> <Gold.Chemscore.Metal>
0.0000

> <Gold.Chemscore.Lipo>
83.9046

> <Gold.Chemscore.Internal_Hbond>
0.0000

> <Gold.Chemscore.DEClash>
0.0519

> <Gold.Chemscore.DEInternal>
0.4708

> <Gold.Chemscore.Rot>
1.5325

> <Gold.Chemscore.Internal.Correction>
   9.000000E+99

> <Gold.Chemscore.Hbonds>
donor molecule, donor type, donor heavy atom, donor atom, acceptor molecule, acceptor atom, score
      L1  H     9    30       P1  7948  0.92
      L1  H    12    31       P1  7948  0.99
      P1  H  7989  7998       L1    16  0.51

> <Gold.Chemscore.Hbond.Weighted>
-8.6950

> <Gold.Chemscore.Metal.Weighted>
-0.0000

> <Gold.Chemscore.Lipo.Weighted>
-9.8168

> <Gold.Chemscore.Internal_Hbond.Weighted>
0.0000

> <Gold.Chemscore.DEClash.Weighted>
0.0519

> <Gold.Chemscore.DEInternal.Weighted>
0.4708

> <Gold.Chemscore.Rot.Weighted>
3.9233

> <Gold.Chemscore.Internal.Correction.Weighted>
   9.000000E+99

> <Gold.Protein.RotatedTorsions>
[ 6907 6896 6895 6894 ] final  -11.33 input  -60.11 | X-H torsion
[ 7974 7965 7964 7962 ] final -170.35 input  175.53 | X-H torsion
[ 8008 7997 7996 7995 ] final -118.26 input   59.86 | X-H torsion
[ 10167 10162 10161 10158 ] final  167.15 input  -65.29 | X-H torsion
[ 10718 10713 10712 10709 ] final    8.41 input   66.30 | X-H torsion
[ 10763 10752 10751 10750 ] final  -72.23 input  -60.55 | X-H torsion
[ 11005 11000 10999 10996 ] final -149.01 input  -57.11 | X-H torsion

> <Gold.Protein.ActiveResidues>
 VAL166  LYS551  ARG553  GLY616  TRP617  ASP618  TYR619  PRO620  LYS621  CYS622 
 ASP623  PHE694  ASN695  SER759  ASP760  ASP761  ALA762  ILE779  LEU786  VAL792 
 PHE793  MET794  SER795  GLU796  ALA797  LYS798  CYS799  TRP800  GLU811  SER814 

> <Gold.Protein.RotatedAtoms>
  151.3879  135.0951  159.9516 H   0  0  0  0  0  0  0  0  0  0  0  0  # atno 6907 bound_to 6896
  152.5088  133.9008  159.7450 H   0  0  0  0  0  0  0  0  0  0  0  0  # atno 6908 bound_to 6896
  150.9456  133.6552  159.2811 H   0  0  0  0  0  0  0  0  0  0  0  0  # atno 6909 bound_to 6896
  144.7171  140.2085  143.6330 H   0  0  0  0  0  0  0  0  0  0  0  0  # atno 7974 bound_to 7965
  155.0969  140.0395  157.2685 H   0  0  0  0  0  0  0  0  0  0  0  0  # atno 8008 bound_to 7997
  154.6788  140.2628  155.6904 H   0  0  0  0  0  0  0  0  0  0  0  0  # atno 8009 bound_to 7997
  156.2687  140.2782  156.1325 H   0  0  0  0  0  0  0  0  0  0  0  0  # atno 8010 bound_to 7997
  139.4939  144.3952  151.9472 H   0  0  0  0  0  0  0  0  0  0  0  0  # atno 10167 bound_to 10162
  156.9513  130.5898  149.5657 H   0  0  0  0  0  0  0  0  0  0  0  0  # atno 10718 bound_to 10713
  154.4428  135.5936  153.6140 H   0  0  0  0  0  0  0  0  0  0  0  0  # atno 10763 bound_to 10752
  152.9807  135.6002  154.3701 H   0  0  0  0  0  0  0  0  0  0  0  0  # atno 10764 bound_to 10752
  154.3553  135.2841  155.2328 H   0  0  0  0  0  0  0  0  0  0  0  0  # atno 10765 bound_to 10752
  140.7553  134.3360  157.5116 H   0  0  0  0  0  0  0  0  0  0  0  0  # atno 11005 bound_to 11000
  145.8613  139.2224  143.1715 LP  0  0  0  0  0  0  0  0  0  0  0  0  # atno 17320 bound_to 7965
  146.0170  140.8383  142.9942 LP  0  0  0  0  0  0  0  0  0  0  0  0  # atno 17321 bound_to 7965
  140.3390  144.3226  150.5971 LP  0  0  0  0  0  0  0  0  0  0  0  0  # atno 17342 bound_to 10162
  140.5582  143.2196  151.7811 LP  0  0  0  0  0  0  0  0  0  0  0  0  # atno 17343 bound_to 10162
  156.0361  130.5449  150.8658 LP  0  0  0  0  0  0  0  0  0  0  0  0  # atno 17370 bound_to 10713
  157.5720  131.0946  150.9403 LP  0  0  0  0  0  0  0  0  0  0  0  0  # atno 17371 bound_to 10713
  139.8780  134.9168  156.3162 LP  0  0  0  0  0  0  0  0  0  0  0  0  # atno 17394 bound_to 11000
  140.9713  133.7325  156.0539 LP  0  0  0  0  0  0  0  0  0  0  0  0  # atno 17395 bound_to 11000

$$$$
