AV-unprocessed.smi:1045|AV-procd|sdf|4546|dock4
  -GOLD-   22720 2573D 1   1.00000     0.00000
 Structure written by MMmdl.
 43 44  0  0  0  0  0  0  0  0  2 V2000
  142.4588  137.2013  153.2345 C   0  0  0  0  0  0  0  0  0  0  0  0
  143.5252  136.8747  152.3604 O   0  0  0  0  0  0  0  0  0  0  0  0
  144.7908  137.2433  152.8839 C   0  0  0  0  0  0  0  0  0  0  0  0
  145.7639  137.5241  151.7277 C   0  0  2  0  0  0  0  0  0  0  0  0
  145.9142  136.3186  150.7881 C   0  0  0  0  0  0  0  0  0  0  0  0
  147.0745  137.8782  152.2695 N   0  0  0  0  0  0  0  0  0  0  0  0
  147.3050  138.7372  153.2732 C   0  0  0  0  0  0  0  0  0  0  0  0
  146.4169  139.3409  153.8742 O   0  0  0  0  0  0  0  0  0  0  0  0
  148.6194  138.8297  153.5406 N   0  0  0  0  0  0  0  0  0  0  0  0
  149.2712  139.6630  154.4904 C   0  0  0  0  0  0  0  0  0  0  0  0
  150.4757  139.1968  155.0603 C   0  0  0  0  0  0  0  0  0  0  0  0
  151.1669  139.9990  155.9917 C   0  0  0  0  0  0  0  0  0  0  0  0
  150.6469  141.2689  156.3342 C   0  0  0  0  0  0  0  0  0  0  0  0
  151.2553  142.1441  157.2451 N   0  0  0  0  0  0  0  0  0  0  0  0
  150.4845  142.4265  158.4446 C   0  0  0  0  0  0  0  0  0  0  0  0
  151.1271  143.6723  159.0596 C   0  0  0  0  0  0  0  0  0  0  0  0
  151.8694  144.3454  157.8990 C   0  0  0  0  0  0  0  0  0  0  0  0
  151.6199  143.4371  156.6917 C   0  0  0  0  0  0  0  0  0  0  0  0
  149.4964  141.6830  155.7608 N   0  3  0  0  0  0  0  0  0  0  0  0
  148.8024  140.9456  154.8668 C   0  0  0  0  0  0  0  0  0  0  0  0
  141.5116  136.9055  152.7833 H   0  0  0  0  0  0  0  0  0  0  0  0
  142.4186  138.2742  153.4269 H   0  0  0  0  0  0  0  0  0  0  0  0
  142.5553  136.6779  154.1867 H   0  0  0  0  0  0  0  0  0  0  0  0
  144.6779  138.1376  153.4995 H   0  0  0  0  0  0  0  0  0  0  0  0
  145.1806  136.4516  153.5261 H   0  0  0  0  0  0  0  0  0  0  0  0
  145.3622  138.3542  151.1441 H   0  0  0  0  0  0  0  0  0  0  0  0
  144.9564  136.0387  150.3486 H   0  0  0  0  0  0  0  0  0  0  0  0
  146.3038  135.4478  151.3164 H   0  0  0  0  0  0  0  0  0  0  0  0
  146.5960  136.5443  149.9675 H   0  0  0  0  0  0  0  0  0  0  0  0
  147.8705  137.4282  151.8415 H   0  0  0  0  0  0  0  0  0  0  0  0
  149.2215  138.2052  153.0243 H   0  0  0  0  0  0  0  0  0  0  0  0
  150.8695  138.2275  154.7916 H   0  0  0  0  0  0  0  0  0  0  0  0
  152.0839  139.6375  156.4338 H   0  0  0  0  0  0  0  0  0  0  0  0
  149.4419  142.6283  158.1963 H   0  0  0  0  0  0  0  0  0  0  0  0
  150.5087  141.5823  159.1344 H   0  0  0  0  0  0  0  0  0  0  0  0
  150.3822  144.3273  159.5126 H   0  0  0  0  0  0  0  0  0  0  0  0
  151.8364  143.3879  159.8378 H   0  0  0  0  0  0  0  0  0  0  0  0
  151.5180  145.3612  157.7148 H   0  0  0  0  0  0  0  0  0  0  0  0
  152.9360  144.3988  158.1212 H   0  0  0  0  0  0  0  0  0  0  0  0
  152.5050  143.3586  156.0599 H   0  0  0  0  0  0  0  0  0  0  0  0
  150.8063  143.8350  156.0839 H   0  0  0  0  0  0  0  0  0  0  0  0
  147.9123  141.4211  154.4834 H   0  0  0  0  0  0  0  0  0  0  0  0
  149.1336  142.6028  156.0130 H   0  0  0  0  0  0  0  0  0  0  0  0
  1  2  1  0  0  0  0
  1 21  1  0  0  0  0
  1 22  1  0  0  0  0
  1 23  1  0  0  0  0
  2  3  1  0  0  0  0
  3  4  1  0  0  0  0
  3 24  1  0  0  0  0
  3 25  1  0  0  0  0
  4  5  1  0  0  0  0
  4  6  1  0  0  0  0
  4 26  1  0  0  0  0
  5 27  1  0  0  0  0
  5 28  1  0  0  0  0
  5 29  1  0  0  0  0
  6  7  1  0  0  0  0
  6 30  1  0  0  0  0
  7  8  2  0  0  0  0
  7  9  1  0  0  0  0
  9 10  1  0  0  0  0
  9 31  1  0  0  0  0
 10 20  1  0  0  0  0
 10 11  2  0  0  0  0
 11 12  1  0  0  0  0
 11 32  1  0  0  0  0
 12 13  2  0  0  0  0
 12 33  1  0  0  0  0
 13 14  1  0  0  0  0
 13 19  1  0  0  0  0
 14 18  1  0  0  0  0
 14 15  1  0  0  0  0
 15 16  1  0  0  0  0
 15 34  1  0  0  0  0
 15 35  1  0  0  0  0
 16 17  1  0  0  0  0
 16 36  1  0  0  0  0
 16 37  1  0  0  0  0
 17 18  1  0  0  0  0
 17 38  1  0  0  0  0
 17 39  1  0  0  0  0
 18 40  1  0  0  0  0
 18 41  1  0  0  0  0
 19 20  2  0  0  0  0
 19 43  1  0  0  0  0
 20 42  1  0  0  0  0
M  CHG  1  19   1
M  END
> <s_m_source_file>
AV-unprocessed.smi

> <i_m_source_file_index>
1045

> <i_lp_mmshare_version>
43012

> <i_f3d_flags>
0

> <s_epik_input>
W0NIM11PW0NIMl1bQ0BIXShbQ0gzXSlbTkhdQyg9TylbTkhdYzFbY0hdW2NIXWMobltjSF0xKU4yW0NIMl1bQ0gyXVtDSDJdW0NIMl0y

> <s_epik_cmdline>
J2VwaWtfcHl0aG9uJywgJy1waCcsICc3LjAnLCAnLXRuJywgJzgnLCAnLW1hJywgJzIwMCcsICctbWV0YWxfYmluZGluZycsICctaW1hZScsICc8aW5maWxlLm1hZT4nLCAnLW9tYWUnLCAnPG91dGZpbGUubWFlPic=

> <r_lp_tautomer_probability>
0.999994

> <r_epik_Ionization_Penalty>
1.10308

> <r_epik_Ionization_Penalty_Charging>
1.10306

> <r_epik_Ionization_Penalty_Neutral>
1.99752e-05

> <r_epik_State_Penalty>
1.16038

> <r_epik_Charging_Adjusted_Penalty>
2.26344

> <i_epik_Tot_Q>
1

> <i_epik_Tot_abs_Q>
1

> <r_epik_Metal_State_Penalty>
1.24746

> <b_epik_Metal_Only>
0

> <s_lp_Force_Field>
OPLS_2005

> <r_lp_Energy>
40.1243

> <b_lp_Chiralities_Consistent>
1

> <s_lp_Variant>
AV-unprocessed.smi:1045-3

> <Gold.Version>
5.8.1

> <Gold.Id.Protein>
6NUR|6NUR_protein|mol2

> <Gold.PLP.Fitness>
42.9718

> <Gold.PLP.PLP>
-34.1021

> <Gold.PLP.part.hbond>
-3.7663

> <Gold.PLP.part.metal>
0.0000

> <Gold.PLP.part.buried>
-1.6990

> <Gold.PLP.part.nonpolar>
-30.7433

> <Gold.PLP.part.repulsive>
1.3146

> <Gold.PLP.ligand.clash>
0.0000

> <Gold.PLP.ligand.torsion>
0.5219

> <Gold.PLP.Chemscore.Hbond>
3.2933

> <Gold.PLP.Chemscore.CHOScore>
0.0000

> <Gold.PLP.Chemscore.Metal>
0.0000

> <Gold.Chemscore.Hbonds>
donor molecule, donor type, donor heavy atom, donor atom, acceptor molecule, acceptor atom, score
      L1  H     6    30       P1  7948  1.00
      L1  H     9    31       P1  7948  0.29
      L1  H    19    43       P1  8028  1.37

> <Gold.PLP.Chemscore.Internal.Correction>
0.0337

> <Gold.Rescore>
     Score         DG    S(hbond)    S(metal)    S(lipo)     H(rot)  DE(clash)    DE(int)     intcor
     14.44     -18.81       2.22        0.00      86.44       1.64       1.53       2.85       ----

> <Gold.Chemscore.Fitness>
14.4387

> <Gold.Chemscore.DG>
-18.8133

> <Gold.Chemscore.ZeroCoef>
-5.4800

> <Gold.Chemscore.Hbond>
2.2191

> <Gold.Chemscore.Metal>
0.0000

> <Gold.Chemscore.Lipo>
86.4424

> <Gold.Chemscore.Internal_Hbond>
0.0000

> <Gold.Chemscore.DEClash>
1.5293

> <Gold.Chemscore.DEInternal>
2.8454

> <Gold.Chemscore.Rot>
1.6376

> <Gold.Chemscore.Internal.Correction>
   9.000000E+99

> <Gold.Chemscore.Hbonds>
donor molecule, donor type, donor heavy atom, donor atom, acceptor molecule, acceptor atom, score
      L1  H     6    30       P1  7948  0.93
      L1  H     9    31       P1  7948  0.28
      L1  H    19    43       P1  8028  0.64

> <Gold.Chemscore.Hbond.Weighted>
-7.4119

> <Gold.Chemscore.Metal.Weighted>
-0.0000

> <Gold.Chemscore.Lipo.Weighted>
-10.1138

> <Gold.Chemscore.Internal_Hbond.Weighted>
0.0000

> <Gold.Chemscore.DEClash.Weighted>
1.5293

> <Gold.Chemscore.DEInternal.Weighted>
2.8454

> <Gold.Chemscore.Rot.Weighted>
4.1924

> <Gold.Chemscore.Internal.Correction.Weighted>
   9.000000E+99

> <Gold.Protein.RotatedTorsions>
[ 6907 6896 6895 6894 ] final  126.32 input  -60.11 | X-H torsion
[ 7974 7965 7964 7962 ] final  -25.66 input  175.53 | X-H torsion
[ 8008 7997 7996 7995 ] final  -28.58 input   59.86 | X-H torsion
[ 10167 10162 10161 10158 ] final  -24.73 input  -65.29 | X-H torsion
[ 10718 10713 10712 10709 ] final   50.39 input   66.30 | X-H torsion
[ 10763 10752 10751 10750 ] final  -97.82 input  -60.55 | X-H torsion
[ 11005 11000 10999 10996 ] final -129.66 input  -57.11 | X-H torsion

> <Gold.Protein.ActiveResidues>
 VAL166  LYS551  ARG553  GLY616  TRP617  ASP618  TYR619  PRO620  LYS621  CYS622 
 ASP623  PHE694  ASN695  SER759  ASP760  ASP761  ALA762  ILE779  LEU786  VAL792 
 PHE793  MET794  SER795  GLU796  ALA797  LYS798  CYS799  TRP800  GLU811  SER814 

> <Gold.Protein.RotatedAtoms>
  152.3914  133.6684  159.6240 H   0  0  0  0  0  0  0  0  0  0  0  0  # atno 6907 bound_to 6896
  150.7821  133.8948  159.3332 H   0  0  0  0  0  0  0  0  0  0  0  0  # atno 6908 bound_to 6896
  151.6734  135.0974  160.0253 H   0  0  0  0  0  0  0  0  0  0  0  0  # atno 6909 bound_to 6896
  146.1476  140.4916  142.8625 H   0  0  0  0  0  0  0  0  0  0  0  0  # atno 7974 bound_to 7965
  154.4326  140.1841  156.1112 H   0  0  0  0  0  0  0  0  0  0  0  0  # atno 8008 bound_to 7997
  156.0217  140.3340  155.7020 H   0  0  0  0  0  0  0  0  0  0  0  0  # atno 8009 bound_to 7997
  155.5967  140.0636  157.2735 H   0  0  0  0  0  0  0  0  0  0  0  0  # atno 8010 bound_to 7997
  140.7288  143.4327  151.0776 H   0  0  0  0  0  0  0  0  0  0  0  0  # atno 10167 bound_to 10162
  157.4880  130.8357  149.8169 H   0  0  0  0  0  0  0  0  0  0  0  0  # atno 10718 bound_to 10713
  154.7361  135.5032  153.9044 H   0  0  0  0  0  0  0  0  0  0  0  0  # atno 10763 bound_to 10752
  153.0997  135.6681  153.9705 H   0  0  0  0  0  0  0  0  0  0  0  0  # atno 10764 bound_to 10752
  153.9494  135.3059  155.3418 H   0  0  0  0  0  0  0  0  0  0  0  0  # atno 10765 bound_to 10752
  140.9413  134.1190  157.4148 H   0  0  0  0  0  0  0  0  0  0  0  0  # atno 11005 bound_to 11000
  144.7865  140.5947  143.6570 LP  0  0  0  0  0  0  0  0  0  0  0  0  # atno 17320 bound_to 7965
  145.4899  139.1489  143.3715 LP  0  0  0  0  0  0  0  0  0  0  0  0  # atno 17321 bound_to 7965
  139.7986  143.8116  152.3160 LP  0  0  0  0  0  0  0  0  0  0  0  0  # atno 17342 bound_to 10162
  139.8125  144.7330  150.9679 LP  0  0  0  0  0  0  0  0  0  0  0  0  # atno 17343 bound_to 10162
  156.0157  130.3814  150.2118 LP  0  0  0  0  0  0  0  0  0  0  0  0  # atno 17370 bound_to 10713
  157.0306  131.0006  151.3313 LP  0  0  0  0  0  0  0  0  0  0  0  0  # atno 17371 bound_to 10713
  139.8821  135.0037  156.6205 LP  0  0  0  0  0  0  0  0  0  0  0  0  # atno 17394 bound_to 11000
  140.7730  133.8722  155.8507 LP  0  0  0  0  0  0  0  0  0  0  0  0  # atno 17395 bound_to 11000

$$$$
