AV-unprocessed.smi:2801|AV-procd|sdf|10798|dock4
  -GOLD-   2272015233D 1   1.00000     0.00000
 Structure written by MMmdl.
 32 32  0  0  0  0  0  0  0  0  3 V2000
  151.8549  145.5698  159.8460 C   0  0  0  0  0  0  0  0  0  0  0  0
  151.4951  144.5450  158.7683 C   0  0  0  0  0  0  0  0  0  0  0  0
  151.5798  143.2433  159.3355 O   0  0  0  0  0  0  0  0  0  0  0  0
  152.2594  142.2727  158.5424 C   0  0  1  0  0  0  0  0  0  0  0  0
  152.8388  141.2076  159.4925 C   0  0  0  0  0  0  0  0  0  0  0  0
  153.7347  141.8080  160.5831 C   0  0  0  0  0  0  0  0  0  0  0  0
  151.2876  141.6444  157.5300 C   0  0  0  0  0  0  0  0  0  0  0  0
  150.1187  142.0281  157.4920 O   0  0  0  0  0  0  0  0  0  0  0  0
  151.8190  140.7129  156.7173 N   0  0  0  0  0  0  0  0  0  0  0  0
  151.2059  139.9523  155.6814 C   0  0  0  0  0  0  0  0  0  0  0  0
  149.8420  140.0806  155.3122 C   0  0  0  0  0  0  0  0  0  0  0  0
  149.3226  139.2699  154.2830 C   0  0  0  0  0  0  0  0  0  0  0  0
  150.1182  138.3735  153.6632 N   0  3  0  0  0  0  0  0  0  0  0  0
  151.4170  138.2054  153.9868 C   0  0  0  0  0  0  0  0  0  0  0  0
  151.9961  138.9874  155.0068 C   0  0  0  0  0  0  0  0  0  0  0  0
  153.3126  138.7976  155.3221 O   0  5  0  0  0  0  0  0  0  0  0  0
  151.8034  146.5847  159.4518 H   0  0  0  0  0  0  0  0  0  0  0  0
  152.8660  145.4060  160.2195 H   0  0  0  0  0  0  0  0  0  0  0  0
  151.1700  145.5037  160.6918 H   0  0  0  0  0  0  0  0  0  0  0  0
  150.4915  144.7480  158.3934 H   0  0  0  0  0  0  0  0  0  0  0  0
  152.1858  144.6337  157.9285 H   0  0  0  0  0  0  0  0  0  0  0  0
  153.0855  142.7488  158.0096 H   0  0  0  0  0  0  0  0  0  0  0  0
  152.0301  140.6449  159.9613 H   0  0  0  0  0  0  0  0  0  0  0  0
  153.4242  140.4849  158.9223 H   0  0  0  0  0  0  0  0  0  0  0  0
  154.1392  141.0266  161.2266 H   0  0  0  0  0  0  0  0  0  0  0  0
  153.1791  142.5025  161.2136 H   0  0  0  0  0  0  0  0  0  0  0  0
  154.5756  142.3487  160.1481 H   0  0  0  0  0  0  0  0  0  0  0  0
  152.8132  140.5612  156.8143 H   0  0  0  0  0  0  0  0  0  0  0  0
  149.1772  140.7734  155.8028 H   0  0  0  0  0  0  0  0  0  0  0  0
  148.2979  139.3076  153.9441 H   0  0  0  0  0  0  0  0  0  0  0  0
  151.9511  137.4528  153.4250 H   0  0  0  0  0  0  0  0  0  0  0  0
  149.7214  137.7954  152.9225 H   0  0  0  0  0  0  0  0  0  0  0  0
  1  2  1  0  0  0  0
  1 17  1  0  0  0  0
  1 18  1  0  0  0  0
  1 19  1  0  0  0  0
  2  3  1  0  0  0  0
  2 20  1  0  0  0  0
  2 21  1  0  0  0  0
  3  4  1  0  0  0  0
  4  5  1  0  0  0  0
  4  7  1  0  0  0  0
  4 22  1  0  0  0  0
  5  6  1  0  0  0  0
  5 23  1  0  0  0  0
  5 24  1  0  0  0  0
  6 25  1  0  0  0  0
  6 26  1  0  0  0  0
  6 27  1  0  0  0  0
  7  8  2  0  0  0  0
  7  9  1  0  0  0  0
  9 28  1  0  0  0  0
  9 10  1  0  0  0  0
 10 11  2  0  0  0  0
 10 15  1  0  0  0  0
 11 12  1  0  0  0  0
 11 29  1  0  0  0  0
 12 13  2  0  0  0  0
 12 30  1  0  0  0  0
 13 14  1  0  0  0  0
 13 32  1  0  0  0  0
 14 15  2  0  0  0  0
 14 31  1  0  0  0  0
 15 16  1  0  0  0  0
M  CHG  1  13   1
M  CHG  1  16  -1
M  END
> <s_m_source_file>
AV-unprocessed.smi

> <i_m_source_file_index>
2801

> <i_lp_mmshare_version>
43012

> <i_f3d_flags>
0

> <s_epik_input>
W0NIM11bQ0gyXU9bQ0BIXShbQ0gyXVtDSDNdKUMoPU8pW05IXWMxW2NIXVtjSF1uW2NIXWMxW09IXQ==

> <s_epik_cmdline>
J2VwaWtfcHl0aG9uJywgJy1waCcsICc3LjAnLCAnLXRuJywgJzgnLCAnLW1hJywgJzIwMCcsICctbWV0YWxfYmluZGluZycsICctaW1hZScsICc8aW5maWxlLm1hZT4nLCAnLW9tYWUnLCAnPG91dGZpbGUubWFlPic=

> <r_lp_tautomer_probability>
0.56342

> <r_epik_Ionization_Penalty>
0.0170685

> <r_epik_Ionization_Penalty_Charging>
0.0170685

> <r_epik_Ionization_Penalty_Neutral>
1.5328e-09

> <r_epik_State_Penalty>
0.331557

> <r_epik_Charging_Adjusted_Penalty>
0.348625

> <i_epik_Tot_Q>
0

> <i_epik_Tot_abs_Q>
2

> <r_epik_Metal_State_Penalty>
0.590147

> <b_epik_Metal_Only>
0

> <s_lp_Force_Field>
OPLS_2005

> <r_lp_Energy>
9.87866

> <b_lp_Chiralities_Consistent>
1

> <s_lp_Variant>
AV-unprocessed.smi:2801-2

> <Gold.Version>
5.8.1

> <Gold.Id.Protein>
6NUR|6NUR_protein|mol2

> <Gold.PLP.Fitness>
47.8885

> <Gold.PLP.PLP>
-37.0802

> <Gold.PLP.part.hbond>
-2.7900

> <Gold.PLP.part.metal>
0.0000

> <Gold.PLP.part.buried>
-5.3814

> <Gold.PLP.part.nonpolar>
-29.8206

> <Gold.PLP.part.repulsive>
0.3242

> <Gold.PLP.ligand.clash>
0.0000

> <Gold.PLP.ligand.torsion>
0.6282

> <Gold.PLP.Chemscore.Hbond>
4.0000

> <Gold.PLP.Chemscore.CHOScore>
0.0000

> <Gold.PLP.Chemscore.Metal>
0.0000

> <Gold.Chemscore.Hbonds>
donor molecule, donor type, donor heavy atom, donor atom, acceptor molecule, acceptor atom, score
      L1  H    13    32       P1  7948  2.00
      P1  H  7997  8009       L1    16  2.00

> <Gold.PLP.Chemscore.Internal.Correction>
0.0647

> <Gold.Rescore>
     Score         DG    S(hbond)    S(metal)    S(lipo)     H(rot)  DE(clash)    DE(int)     intcor
     16.32     -18.12       1.88        0.00      89.38       1.59       0.00       1.81       ----

> <Gold.Chemscore.Fitness>
16.3173

> <Gold.Chemscore.DG>
-18.1236

> <Gold.Chemscore.ZeroCoef>
-5.4800

> <Gold.Chemscore.Hbond>
1.8758

> <Gold.Chemscore.Metal>
0.0000

> <Gold.Chemscore.Lipo>
89.3789

> <Gold.Chemscore.Internal_Hbond>
0.0000

> <Gold.Chemscore.DEClash>
0.0000

> <Gold.Chemscore.DEInternal>
1.8063

> <Gold.Chemscore.Rot>
1.5933

> <Gold.Chemscore.Internal.Correction>
   9.000000E+99

> <Gold.Chemscore.Hbonds>
donor molecule, donor type, donor heavy atom, donor atom, acceptor molecule, acceptor atom, score
      L1  H    13    32       P1  7948  0.58
      P1  H  7997  8009       L1    16  0.95

> <Gold.Chemscore.Hbond.Weighted>
-6.2651

> <Gold.Chemscore.Metal.Weighted>
-0.0000

> <Gold.Chemscore.Lipo.Weighted>
-10.4573

> <Gold.Chemscore.Internal_Hbond.Weighted>
0.0000

> <Gold.Chemscore.DEClash.Weighted>
0.0000

> <Gold.Chemscore.DEInternal.Weighted>
1.8063

> <Gold.Chemscore.Rot.Weighted>
4.0789

> <Gold.Chemscore.Internal.Correction.Weighted>
   9.000000E+99

> <Gold.Protein.RotatedTorsions>
[ 6907 6896 6895 6894 ] final  120.61 input  -60.11 | X-H torsion
[ 7974 7965 7964 7962 ] final  145.00 input  175.53 | X-H torsion
[ 8008 7997 7996 7995 ] final -147.05 input   59.86 | X-H torsion
[ 10167 10162 10161 10158 ] final   14.24 input  -65.29 | X-H torsion
[ 10718 10713 10712 10709 ] final  -25.92 input   66.30 | X-H torsion
[ 10763 10752 10751 10750 ] final -171.64 input  -60.55 | X-H torsion
[ 11005 11000 10999 10996 ] final  101.74 input  -57.11 | X-H torsion

> <Gold.Protein.ActiveResidues>
 VAL166  LYS551  ARG553  GLY616  TRP617  ASP618  TYR619  PRO620  LYS621  CYS622 
 ASP623  PHE694  ASN695  SER759  ASP760  ASP761  ALA762  ILE779  LEU786  VAL792 
 PHE793  MET794  SER795  GLU796  ALA797  LYS798  CYS799  TRP800  GLU811  SER814 

> <Gold.Protein.RotatedAtoms>
  152.4385  133.7405  159.6637 H   0  0  0  0  0  0  0  0  0  0  0  0  # atno 6907 bound_to 6896
  150.8272  133.8141  159.3119 H   0  0  0  0  0  0  0  0  0  0  0  0  # atno 6908 bound_to 6896
  151.5805  135.1061  160.0068 H   0  0  0  0  0  0  0  0  0  0  0  0  # atno 6909 bound_to 6896
  144.8789  139.5730  143.5852 H   0  0  0  0  0  0  0  0  0  0  0  0  # atno 7974 bound_to 7965
  155.5693  140.0632  157.2810 H   0  0  0  0  0  0  0  0  0  0  0  0  # atno 8008 bound_to 7997
  154.4366  140.1872  156.0908 H   0  0  0  0  0  0  0  0  0  0  0  0  # atno 8009 bound_to 7997
  156.0388  140.3298  155.7225 H   0  0  0  0  0  0  0  0  0  0  0  0  # atno 8010 bound_to 7997
  140.5949  143.8722  150.6908 H   0  0  0  0  0  0  0  0  0  0  0  0  # atno 10167 bound_to 10162
  156.4580  130.4498  149.6947 H   0  0  0  0  0  0  0  0  0  0  0  0  # atno 10718 bound_to 10713
  154.6282  135.2883  155.0247 H   0  0  0  0  0  0  0  0  0  0  0  0  # atno 10763 bound_to 10752
  154.1418  135.6517  153.4947 H   0  0  0  0  0  0  0  0  0  0  0  0  # atno 10764 bound_to 10752
  153.0267  135.5334  154.7099 H   0  0  0  0  0  0  0  0  0  0  0  0  # atno 10765 bound_to 10752
  139.8774  134.9195  156.4952 H   0  0  0  0  0  0  0  0  0  0  0  0  # atno 11005 bound_to 11000
  146.2981  139.7341  142.9111 LP  0  0  0  0  0  0  0  0  0  0  0  0  # atno 17320 bound_to 7965
  145.3991  141.0383  143.3080 LP  0  0  0  0  0  0  0  0  0  0  0  0  # atno 17321 bound_to 7965
  140.2254  143.3776  152.1609 LP  0  0  0  0  0  0  0  0  0  0  0  0  # atno 17342 bound_to 10162
  139.5251  144.7092  151.5259 LP  0  0  0  0  0  0  0  0  0  0  0  0  # atno 17343 bound_to 10162
  156.3746  130.7548  151.2535 LP  0  0  0  0  0  0  0  0  0  0  0  0  # atno 17370 bound_to 10713
  157.7499  131.0313  150.4176 LP  0  0  0  0  0  0  0  0  0  0  0  0  # atno 17371 bound_to 10713
  140.8629  133.8046  155.9284 LP  0  0  0  0  0  0  0  0  0  0  0  0  # atno 17394 bound_to 11000
  140.9031  134.2354  157.5030 LP  0  0  0  0  0  0  0  0  0  0  0  0  # atno 17395 bound_to 11000

$$$$
