AV-unprocessed.smi:3116|AV-procd|sdf|11873|dock4
  -GOLD-   2272017253D 1   1.00000     0.00000
 Structure written by MMmdl.
 33 33  0  0  0  0  0  0  0  0  1 V2000
  145.6537  133.2971  150.3873 C   0  0  0  0  0  0  0  0  0  0  0  0
  145.6738  134.1227  151.6903 C   0  0  1  0  0  0  0  0  0  0  0  0
  147.0174  134.1395  152.2894 N   0  0  0  0  0  0  0  0  0  0  0  0
  147.5779  132.8094  152.5249 C   0  0  1  0  0  0  0  0  0  0  0  0
  148.9549  133.0180  153.1786 C   0  0  0  0  0  0  0  0  0  0  0  0
  146.5977  131.9918  153.4104 C   0  0  2  0  0  0  0  0  0  0  0  0
  147.0440  131.9050  154.8825 C   0  0  0  0  0  0  0  0  0  0  0  0
  146.3808  130.6506  152.8763 N   0  0  0  0  0  0  0  0  0  0  0  0
  145.8638  130.2984  151.6466 C   0  0  0  0  0  0  0  0  0  0  0  0
  145.8663  128.9348  151.5762 C   0  0  0  0  0  0  0  0  0  0  0  0
  146.4106  128.5333  152.8275 C   0  0  0  0  0  0  0  0  0  0  0  0
  146.7189  129.5601  153.6020 N   0  0  0  0  0  0  0  0  0  0  0  0
  145.1896  135.5619  151.4678 C   0  0  0  0  0  0  0  0  0  0  0  0
  145.1743  135.9985  150.2056 N   0  0  0  0  0  0  0  0  0  0  0  0
  144.8226  136.2687  152.4053 O   0  0  0  0  0  0  0  0  0  0  0  0
  144.6687  133.3212  149.9192 H   0  0  0  0  0  0  0  0  0  0  0  0
  145.8914  132.2500  150.5737 H   0  0  0  0  0  0  0  0  0  0  0  0
  146.3764  133.6733  149.6620 H   0  0  0  0  0  0  0  0  0  0  0  0
  144.9727  133.6730  152.3955 H   0  0  0  0  0  0  0  0  0  0  0  0
  147.6610  134.6942  151.7436 H   0  0  0  0  0  0  0  0  0  0  0  0
  147.7298  132.2763  151.5847 H   0  0  0  0  0  0  0  0  0  0  0  0
  149.4863  132.0745  153.3008 H   0  0  0  0  0  0  0  0  0  0  0  0
  148.8650  133.4810  154.1621 H   0  0  0  0  0  0  0  0  0  0  0  0
  149.5892  133.6597  152.5660 H   0  0  0  0  0  0  0  0  0  0  0  0
  145.6295  132.4953  153.3979 H   0  0  0  0  0  0  0  0  0  0  0  0
  147.0376  132.8831  155.3624 H   0  0  0  0  0  0  0  0  0  0  0  0
  148.0506  131.4957  154.9729 H   0  0  0  0  0  0  0  0  0  0  0  0
  146.3729  131.2652  155.4564 H   0  0  0  0  0  0  0  0  0  0  0  0
  145.5448  131.0401  150.9291 H   0  0  0  0  0  0  0  0  0  0  0  0
  145.5314  128.3183  150.7554 H   0  0  0  0  0  0  0  0  0  0  0  0
  146.5910  127.5332  153.1930 H   0  0  0  0  0  0  0  0  0  0  0  0
  144.8684  136.9401  150.0059 H   0  0  0  0  0  0  0  0  0  0  0  0
  145.4725  135.3877  149.4592 H   0  0  0  0  0  0  0  0  0  0  0  0
  1  2  1  0  0  0  0
  1 16  1  0  0  0  0
  1 17  1  0  0  0  0
  1 18  1  0  0  0  0
  2  3  1  0  0  0  0
  2 13  1  0  0  0  0
  2 19  1  0  0  0  0
  3  4  1  0  0  0  0
  3 20  1  0  0  0  0
  4  5  1  0  0  0  0
  4  6  1  0  0  0  0
  4 21  1  0  0  0  0
  5 22  1  0  0  0  0
  5 23  1  0  0  0  0
  5 24  1  0  0  0  0
  6  7  1  0  0  0  0
  6  8  1  0  0  0  0
  6 25  1  0  0  0  0
  7 26  1  0  0  0  0
  7 27  1  0  0  0  0
  7 28  1  0  0  0  0
  8 12  1  0  0  0  0
  8  9  1  0  0  0  0
  9 10  2  0  0  0  0
  9 29  1  0  0  0  0
 10 11  1  0  0  0  0
 10 30  1  0  0  0  0
 11 12  2  0  0  0  0
 11 31  1  0  0  0  0
 13 14  1  0  0  0  0
 13 15  2  0  0  0  0
 14 32  1  0  0  0  0
 14 33  1  0  0  0  0
M  END
> <s_m_source_file>
AV-unprocessed.smi

> <i_m_source_file_index>
3116

> <i_lp_mmshare_version>
43012

> <i_f3d_flags>
0

> <s_epik_input>
W05IMl1DKD1PKVtDQEhdKFtDSDNdKVtOSF1bQ0BIXShbQ0gzXSlbQ0BIXShbQ0gzXSluMVtjSF1bY0hdW2NIXW4x

> <s_epik_cmdline>
J2VwaWtfcHl0aG9uJywgJy1waCcsICc3LjAnLCAnLXRuJywgJzgnLCAnLW1hJywgJzIwMCcsICctbWV0YWxfYmluZGluZycsICctaW1hZScsICc8aW5maWxlLm1hZT4nLCAnLW9tYWUnLCAnPG91dGZpbGUubWFlPic=

> <r_lp_tautomer_probability>
1

> <r_epik_Ionization_Penalty>
0.865977

> <r_epik_Ionization_Penalty_Charging>
0

> <r_epik_Ionization_Penalty_Neutral>
0.865977

> <r_epik_State_Penalty>
0.901888

> <r_epik_Charging_Adjusted_Penalty>
0.901888

> <i_epik_Tot_Q>
0

> <i_epik_Tot_abs_Q>
0

> <r_epik_Metal_State_Penalty>
0.901181

> <b_epik_Metal_Only>
0

> <s_lp_Force_Field>
OPLS_2005

> <r_lp_Energy>
8.51746

> <b_lp_Chiralities_Consistent>
1

> <s_lp_Variant>
AV-unprocessed.smi:3116-12

> <Gold.Version>
5.8.1

> <Gold.Id.Protein>
6NUR|6NUR_protein|mol2

> <Gold.PLP.Fitness>
33.8898

> <Gold.PLP.PLP>
-28.3332

> <Gold.PLP.part.hbond>
-3.0000

> <Gold.PLP.part.metal>
0.0000

> <Gold.PLP.part.buried>
-4.6918

> <Gold.PLP.part.nonpolar>
-21.1907

> <Gold.PLP.part.repulsive>
0.4189

> <Gold.PLP.ligand.clash>
0.0153

> <Gold.PLP.ligand.torsion>
1.7531

> <Gold.PLP.Chemscore.Hbond>
2.9920

> <Gold.PLP.Chemscore.CHOScore>
0.0000

> <Gold.PLP.Chemscore.Metal>
0.0000

> <Gold.Chemscore.Hbonds>
donor molecule, donor type, donor heavy atom, donor atom, acceptor molecule, acceptor atom, score
      L1  H     3    20       P1  7948  0.90
      L1  H    14    32       P1 10171  1.00
      L1  H    14    33       P1  7921  1.00

> <Gold.PLP.Chemscore.Internal.Correction>
0.1021

> <Gold.Rescore>
     Score         DG    S(hbond)    S(metal)    S(lipo)     H(rot)  DE(clash)    DE(int)     intcor
     14.04     -15.90       2.90        0.00      58.50       2.38       0.16       1.70       ----

> <Gold.Chemscore.Fitness>
14.0361

> <Gold.Chemscore.DG>
-15.9004

> <Gold.Chemscore.ZeroCoef>
-5.4800

> <Gold.Chemscore.Hbond>
2.8975

> <Gold.Chemscore.Metal>
0.0000

> <Gold.Chemscore.Lipo>
58.5009

> <Gold.Chemscore.Internal_Hbond>
0.0000

> <Gold.Chemscore.DEClash>
0.1644

> <Gold.Chemscore.DEInternal>
1.7000

> <Gold.Chemscore.Rot>
2.3836

> <Gold.Chemscore.Internal.Correction>
   9.000000E+99

> <Gold.Chemscore.Hbonds>
donor molecule, donor type, donor heavy atom, donor atom, acceptor molecule, acceptor atom, score
      L1  H     3    20       P1  7948  0.34
      L1  H    14    32       P1 10171  1.00
      L1  H    14    33       P1  7921  0.94

> <Gold.Chemscore.Hbond.Weighted>
-9.6778

> <Gold.Chemscore.Metal.Weighted>
-0.0000

> <Gold.Chemscore.Lipo.Weighted>
-6.8446

> <Gold.Chemscore.Internal_Hbond.Weighted>
0.0000

> <Gold.Chemscore.DEClash.Weighted>
0.1644

> <Gold.Chemscore.DEInternal.Weighted>
1.7000

> <Gold.Chemscore.Rot.Weighted>
6.1020

> <Gold.Chemscore.Internal.Correction.Weighted>
   9.000000E+99

> <Gold.Protein.RotatedTorsions>
[ 6907 6896 6895 6894 ] final   58.57 input  -60.11 | X-H torsion
[ 7974 7965 7964 7962 ] final   10.93 input  175.53 | X-H torsion
[ 8008 7997 7996 7995 ] final  -85.45 input   59.86 | X-H torsion
[ 10167 10162 10161 10158 ] final -176.71 input  -65.29 | X-H torsion
[ 10718 10713 10712 10709 ] final  -13.21 input   66.30 | X-H torsion
[ 10763 10752 10751 10750 ] final  155.31 input  -60.55 | X-H torsion
[ 11005 11000 10999 10996 ] final -161.63 input  -57.11 | X-H torsion

> <Gold.Protein.ActiveResidues>
 VAL166  LYS551  ARG553  GLY616  TRP617  ASP618  TYR619  PRO620  LYS621  CYS622 
 ASP623  PHE694  ASN695  SER759  ASP760  ASP761  ALA762  ILE779  LEU786  VAL792 
 PHE793  MET794  SER795  GLU796  ALA797  LYS798  CYS799  TRP800  GLU811  SER814 

> <Gold.Protein.RotatedAtoms>
  152.3836  134.6552  160.0133 H   0  0  0  0  0  0  0  0  0  0  0  0  # atno 6907 bound_to 6896
  151.6807  133.3306  159.3227 H   0  0  0  0  0  0  0  0  0  0  0  0  # atno 6908 bound_to 6896
  150.7767  134.6719  159.6441 H   0  0  0  0  0  0  0  0  0  0  0  0  # atno 6909 bound_to 6896
  146.2380  139.9561  142.8464 H   0  0  0  0  0  0  0  0  0  0  0  0  # atno 7974 bound_to 7965
  154.6409  140.0591  156.9845 H   0  0  0  0  0  0  0  0  0  0  0  0  # atno 8008 bound_to 7997
  155.1518  140.3275  155.4411 H   0  0  0  0  0  0  0  0  0  0  0  0  # atno 8009 bound_to 7997
  156.2530  140.1946  156.6629 H   0  0  0  0  0  0  0  0  0  0  0  0  # atno 8010 bound_to 7997
  139.5516  144.2095  152.1087 H   0  0  0  0  0  0  0  0  0  0  0  0  # atno 10167 bound_to 10162
  156.6336  130.4908  149.6120 H   0  0  0  0  0  0  0  0  0  0  0  0  # atno 10718 bound_to 10713
  154.1664  135.2807  155.3094 H   0  0  0  0  0  0  0  0  0  0  0  0  # atno 10763 bound_to 10752
  154.6108  135.5499  153.7475 H   0  0  0  0  0  0  0  0  0  0  0  0  # atno 10764 bound_to 10752
  153.0177  135.6415  154.1805 H   0  0  0  0  0  0  0  0  0  0  0  0  # atno 10765 bound_to 10752
  140.6182  134.4778  157.5221 H   0  0  0  0  0  0  0  0  0  0  0  0  # atno 11005 bound_to 11000
  145.1815  140.9769  143.4263 LP  0  0  0  0  0  0  0  0  0  0  0  0  # atno 17320 bound_to 7965
  144.9938  139.3664  143.6201 LP  0  0  0  0  0  0  0  0  0  0  0  0  # atno 17321 bound_to 7965
  140.1591  144.5042  150.6643 LP  0  0  0  0  0  0  0  0  0  0  0  0  # atno 17342 bound_to 10162
  140.6780  143.2313  151.5458 LP  0  0  0  0  0  0  0  0  0  0  0  0  # atno 17343 bound_to 10162
  156.2215  130.6740  151.1373 LP  0  0  0  0  0  0  0  0  0  0  0  0  # atno 17370 bound_to 10713
  157.7192  131.0691  150.6203 LP  0  0  0  0  0  0  0  0  0  0  0  0  # atno 17371 bound_to 10713
  139.9164  134.8237  156.1352 LP  0  0  0  0  0  0  0  0  0  0  0  0  # atno 17394 bound_to 11000
  141.0761  133.6775  156.2239 LP  0  0  0  0  0  0  0  0  0  0  0  0  # atno 17395 bound_to 11000

$$$$
