AV-unprocessed.smi:33|AV-procd|sdf|212|dock10
  -GOLD-   2262015513D 1   1.00000     0.00000
 Structure written by MMmdl.
 67 72  0  0  0  0  0  0  0  0  1 V2000
  151.2598  143.4352  157.6684 O   0  0  0  0  0  0  0  0  0  0  0  0
  151.7277  142.4403  158.2259 C   0  0  0  0  0  0  0  0  0  0  0  0
  151.8292  141.2332  157.6362 O   0  0  0  0  0  0  0  0  0  0  0  0
  151.0690  140.9441  156.4746 C   0  0  0  0  0  0  0  0  0  0  0  0
  151.3653  139.5089  156.0233 C   0  0  1  0  0  0  0  0  0  0  0  0
  150.5852  138.5765  156.7560 O   0  0  0  0  0  0  0  0  0  0  0  0
  150.5322  137.3817  156.0410 C   0  0  1  0  0  0  0  0  0  0  0  0
  149.1747  136.7865  156.2251 N   0  0  0  0  0  0  0  0  0  0  0  0
  147.9714  137.2947  155.7889 C   0  0  0  0  0  0  0  0  0  0  0  0
  146.9185  136.5889  156.1023 N   0  0  0  0  0  0  0  0  0  0  0  0
  147.4370  135.5068  156.8021 C   0  0  0  0  0  0  0  0  0  0  0  0
  146.8621  134.3696  157.4311 C   0  0  0  0  0  0  0  0  0  0  0  0
  145.5282  134.1372  157.4537 N   0  0  0  0  0  0  0  0  0  0  0  0
  144.9353  133.7605  158.7450 C   0  0  0  0  0  0  0  0  0  0  0  0
  143.8975  133.0961  158.7673 O   0  0  0  0  0  0  0  0  0  0  0  0
  145.6119  134.1385  160.0321 C   0  0  0  0  0  0  0  0  0  0  0  0
  145.6274  133.2330  161.1157 C   0  0  0  0  0  0  0  0  0  0  0  0
  146.2478  133.5886  162.3291 C   0  0  0  0  0  0  0  0  0  0  0  0
  146.8400  134.8578  162.4730 C   0  0  0  0  0  0  0  0  0  0  0  0
  146.8032  135.7759  161.4063 C   0  0  0  0  0  0  0  0  0  0  0  0
  146.1832  135.4212  160.1928 C   0  0  0  0  0  0  0  0  0  0  0  0
  144.7976  134.2796  156.1851 C   0  0  0  0  0  0  0  0  0  0  0  0
  143.5913  134.5329  156.2047 O   0  0  0  0  0  0  0  0  0  0  0  0
  145.5190  134.1770  154.8708 C   0  0  0  0  0  0  0  0  0  0  0  0
  145.1649  135.0310  153.8032 C   0  0  0  0  0  0  0  0  0  0  0  0
  145.8248  134.9295  152.5631 C   0  0  0  0  0  0  0  0  0  0  0  0
  146.8299  133.9615  152.3766 C   0  0  0  0  0  0  0  0  0  0  0  0
  147.1689  133.0885  153.4277 C   0  0  0  0  0  0  0  0  0  0  0  0
  146.5099  133.1898  154.6682 C   0  0  0  0  0  0  0  0  0  0  0  0
  147.6962  133.4894  158.0432 N   0  0  0  0  0  0  0  0  0  0  0  0
  149.0134  133.7129  158.0422 C   0  0  0  0  0  0  0  0  0  0  0  0
  149.6866  134.7315  157.5029 N   0  0  0  0  0  0  0  0  0  0  0  0
  148.8524  135.6171  156.8841 C   0  0  0  0  0  0  0  0  0  0  0  0
  150.7850  137.7067  154.5579 C   0  0  2  0  0  0  0  0  0  0  0  0
  151.9459  137.0660  154.0687 O   0  0  0  0  0  0  0  0  0  0  0  0
  150.9895  139.2157  154.5700 C   0  0  1  0  0  0  0  0  0  0  0  0
  149.8472  139.8210  154.2399 F   0  0  0  0  0  0  0  0  0  0  0  0
  152.2383  142.4458  159.6274 C   0  0  0  0  0  0  0  0  0  0  0  0
  151.8394  143.4801  160.5060 C   0  0  0  0  0  0  0  0  0  0  0  0
  152.3022  143.5098  161.8360 C   0  0  0  0  0  0  0  0  0  0  0  0
  153.1710  142.5066  162.3032 C   0  0  0  0  0  0  0  0  0  0  0  0
  153.5770  141.4734  161.4386 C   0  0  0  0  0  0  0  0  0  0  0  0
  153.1141  141.4413  160.1086 C   0  0  0  0  0  0  0  0  0  0  0  0
  150.0021  141.0690  156.6660 H   0  0  0  0  0  0  0  0  0  0  0  0
  151.3490  141.6479  155.6896 H   0  0  0  0  0  0  0  0  0  0  0  0
  152.4213  139.2746  156.1700 H   0  0  0  0  0  0  0  0  0  0  0  0
  151.2246  136.6481  156.4573 H   0  0  0  0  0  0  0  0  0  0  0  0
  147.8976  138.2188  155.2343 H   0  0  0  0  0  0  0  0  0  0  0  0
  145.1763  132.2562  161.0166 H   0  0  0  0  0  0  0  0  0  0  0  0
  146.2683  132.8872  163.1501 H   0  0  0  0  0  0  0  0  0  0  0  0
  147.3161  135.1296  163.4035 H   0  0  0  0  0  0  0  0  0  0  0  0
  147.2490  136.7530  161.5189 H   0  0  0  0  0  0  0  0  0  0  0  0
  146.1557  136.1364  159.3830 H   0  0  0  0  0  0  0  0  0  0  0  0
  144.3945  135.7773  153.9346 H   0  0  0  0  0  0  0  0  0  0  0  0
  145.5583  135.5939  151.7544 H   0  0  0  0  0  0  0  0  0  0  0  0
  147.3356  133.8841  151.4253 H   0  0  0  0  0  0  0  0  0  0  0  0
  147.9334  132.3398  153.2823 H   0  0  0  0  0  0  0  0  0  0  0  0
  146.7753  132.5108  155.4660 H   0  0  0  0  0  0  0  0  0  0  0  0
  149.6141  132.9714  158.5478 H   0  0  0  0  0  0  0  0  0  0  0  0
  149.9343  137.4175  153.9382 H   0  0  0  0  0  0  0  0  0  0  0  0
  151.8787  137.0009  153.1282 H   0  0  0  0  0  0  0  0  0  0  0  0
  151.7415  139.5638  153.8607 H   0  0  0  0  0  0  0  0  0  0  0  0
  151.1721  144.2608  160.1702 H   0  0  0  0  0  0  0  0  0  0  0  0
  151.9891  144.3034  162.4982 H   0  0  0  0  0  0  0  0  0  0  0  0
  153.5257  142.5293  163.3232 H   0  0  0  0  0  0  0  0  0  0  0  0
  154.2443  140.7028  161.7956 H   0  0  0  0  0  0  0  0  0  0  0  0
  153.4449  140.6339  159.4718 H   0  0  0  0  0  0  0  0  0  0  0  0
  1  2  2  0  0  0  0
  2  3  1  0  0  0  0
  2 38  1  0  0  0  0
  3  4  1  0  0  0  0
  4  5  1  0  0  0  0
  4 44  1  0  0  0  0
  4 45  1  0  0  0  0
  5 36  1  0  0  0  0
  5  6  1  0  0  0  0
  5 46  1  0  0  0  0
  6  7  1  0  0  0  0
  7  8  1  0  0  0  0
  7 34  1  0  0  0  0
  7 47  1  0  0  0  0
  8 33  1  0  0  0  0
  8  9  1  0  0  0  0
  9 10  2  0  0  0  0
  9 48  1  0  0  0  0
 10 11  1  0  0  0  0
 11 33  2  0  0  0  0
 11 12  1  0  0  0  0
 12 13  1  0  0  0  0
 12 30  2  0  0  0  0
 13 14  1  0  0  0  0
 13 22  1  0  0  0  0
 14 15  2  0  0  0  0
 14 16  1  0  0  0  0
 16 21  1  0  0  0  0
 16 17  2  0  0  0  0
 17 18  1  0  0  0  0
 17 49  1  0  0  0  0
 18 19  2  0  0  0  0
 18 50  1  0  0  0  0
 19 20  1  0  0  0  0
 19 51  1  0  0  0  0
 20 21  2  0  0  0  0
 20 52  1  0  0  0  0
 21 53  1  0  0  0  0
 22 23  2  0  0  0  0
 22 24  1  0  0  0  0
 24 29  1  0  0  0  0
 24 25  2  0  0  0  0
 25 26  1  0  0  0  0
 25 54  1  0  0  0  0
 26 27  2  0  0  0  0
 26 55  1  0  0  0  0
 27 28  1  0  0  0  0
 27 56  1  0  0  0  0
 28 29  2  0  0  0  0
 28 57  1  0  0  0  0
 29 58  1  0  0  0  0
 30 31  1  0  0  0  0
 31 32  2  0  0  0  0
 31 59  1  0  0  0  0
 32 33  1  0  0  0  0
 34 35  1  0  0  0  0
 34 36  1  0  0  0  0
 34 60  1  0  0  0  0
 35 61  1  0  0  0  0
 36 37  1  0  0  0  0
 36 62  1  0  0  0  0
 38 43  1  0  0  0  0
 38 39  2  0  0  0  0
 39 40  1  0  0  0  0
 39 63  1  0  0  0  0
 40 41  2  0  0  0  0
 40 64  1  0  0  0  0
 41 42  1  0  0  0  0
 41 65  1  0  0  0  0
 42 43  2  0  0  0  0
 42 66  1  0  0  0  0
 43 67  1  0  0  0  0
M  END
> <s_m_source_file>
AV-unprocessed.smi

> <i_m_source_file_index>
33

> <i_lp_mmshare_version>
43012

> <i_f3d_flags>
0

> <s_epik_input>
W2NIXTFbY0hdW2NIXVtjSF1bY0hdYzFDKD1PKU9bQ0gyXVtDQEBIXTJPW0NASF0oW0NAQEhdKFtPSF0pW0NAQEhdMkYpbihbY0hdbjMpYyhjMzQpbltjSF1uYzROKEMoPU8pYzVbY0hdW2NIXVtjSF1bY0hdW2NIXTUpQyg9TyljNltjSF1bY0hdW2NIXVtjSF1bY0hdNg==

> <s_epik_cmdline>
J2VwaWtfcHl0aG9uJywgJy1waCcsICc3LjAnLCAnLXRuJywgJzgnLCAnLW1hJywgJzIwMCcsICctbWV0YWxfYmluZGluZycsICctaW1hZScsICc8aW5maWxlLm1hZT4nLCAnLW9tYWUnLCAnPG91dGZpbGUubWFlPic=

> <r_lp_tautomer_probability>
1

> <r_epik_Ionization_Penalty>
0.00067664

> <r_epik_Ionization_Penalty_Charging>
0

> <r_epik_Ionization_Penalty_Neutral>
0.00067664

> <r_epik_State_Penalty>
0.000428095

> <r_epik_Charging_Adjusted_Penalty>
0.000428095

> <i_epik_Tot_Q>
0

> <i_epik_Tot_abs_Q>
0

> <r_epik_Metal_State_Penalty>
-0

> <b_epik_Metal_Only>
0

> <s_epik_Chemistry_Notes>
This compound has an ester and may undergo hydrolysis at high or low pH. This compound contains an acetal/aminal-like group ( X-CH(R)-Y where X, Y are N, S, or O) that may be acid/base labile, releasing an aldehyde.

> <s_lp_Force_Field>
OPLS_2005

> <r_lp_Energy>
68.7921

> <b_lp_Chiralities_Consistent>
1

> <s_lp_Variant>
AV-unprocessed.smi:33-14

> <Gold.Version>
5.8.1

> <Gold.Id.Protein>
6NUR|6NUR_protein|mol2

> <Gold.PLP.Fitness>
62.9840

> <Gold.PLP.PLP>
-59.0534

> <Gold.PLP.part.hbond>
-3.5302

> <Gold.PLP.part.metal>
0.0000

> <Gold.PLP.part.buried>
-7.0768

> <Gold.PLP.part.nonpolar>
-49.2137

> <Gold.PLP.part.repulsive>
0.2221

> <Gold.PLP.ligand.clash>
0.0000

> <Gold.PLP.ligand.torsion>
3.1966

> <Gold.PLP.Chemscore.Hbond>
2.0627

> <Gold.PLP.Chemscore.CHOScore>
0.0000

> <Gold.PLP.Chemscore.Metal>
0.0000

> <Gold.Chemscore.Hbonds>
donor molecule, donor type, donor heavy atom, donor atom, acceptor molecule, acceptor atom, score
      L1  H    35    61       P1  7949  0.94
      P1  H 10752 10763       L1    35  0.91

> <Gold.PLP.Chemscore.Internal.Correction>
4.1355

> <Gold.Rescore>
     Score         DG    S(hbond)    S(metal)    S(lipo)     H(rot)  DE(clash)    DE(int)     intcor
     16.32     -21.46       1.71        0.00     142.94       2.52       0.26       4.89       ----

> <Gold.Chemscore.Fitness>
16.3152

> <Gold.Chemscore.DG>
-21.4623

> <Gold.Chemscore.ZeroCoef>
-5.4800

> <Gold.Chemscore.Hbond>
1.7132

> <Gold.Chemscore.Metal>
0.0000

> <Gold.Chemscore.Lipo>
142.9371

> <Gold.Chemscore.Internal_Hbond>
0.0000

> <Gold.Chemscore.DEClash>
0.2617

> <Gold.Chemscore.DEInternal>
4.8854

> <Gold.Chemscore.Rot>
2.5247

> <Gold.Chemscore.Internal.Correction>
   9.000000E+99

> <Gold.Chemscore.Hbonds>
donor molecule, donor type, donor heavy atom, donor atom, acceptor molecule, acceptor atom, score
      L1  H    35    61       P1  7949  0.85
      P1  H 10752 10763       L1    35  0.20

> <Gold.Chemscore.Hbond.Weighted>
-5.7220

> <Gold.Chemscore.Metal.Weighted>
-0.0000

> <Gold.Chemscore.Lipo.Weighted>
-16.7236

> <Gold.Chemscore.Internal_Hbond.Weighted>
0.0000

> <Gold.Chemscore.DEClash.Weighted>
0.2617

> <Gold.Chemscore.DEInternal.Weighted>
4.8854

> <Gold.Chemscore.Rot.Weighted>
6.4633

> <Gold.Chemscore.Internal.Correction.Weighted>
   9.000000E+99

> <Gold.Protein.RotatedTorsions>
[ 6907 6896 6895 6894 ] final -108.25 input  -60.11 | X-H torsion
[ 7974 7965 7964 7962 ] final   76.03 input  175.53 | X-H torsion
[ 8008 7997 7996 7995 ] final   65.08 input   59.86 | X-H torsion
[ 10167 10162 10161 10158 ] final   97.96 input  -65.29 | X-H torsion
[ 10718 10713 10712 10709 ] final  151.66 input   66.30 | X-H torsion
[ 10763 10752 10751 10750 ] final   48.00 input  -60.55 | X-H torsion
[ 11005 11000 10999 10996 ] final  -90.45 input  -57.11 | X-H torsion

> <Gold.Protein.ActiveResidues>
 VAL166  LYS551  ARG553  GLY616  TRP617  ASP618  TYR619  PRO620  LYS621  CYS622 
 ASP623  PHE694  ASN695  SER759  ASP760  ASP761  ALA762  ILE779  LEU786  VAL792 
 PHE793  MET794  SER795  GLU796  ALA797  LYS798  CYS799  TRP800  GLU811  SER814 

> <Gold.Protein.RotatedAtoms>
  150.7491  133.9706  159.3544 H   0  0  0  0  0  0  0  0  0  0  0  0  # atno 6907 bound_to 6896
  151.7639  135.0801  160.0359 H   0  0  0  0  0  0  0  0  0  0  0  0  # atno 6908 bound_to 6896
  152.3385  133.6002  159.5895 H   0  0  0  0  0  0  0  0  0  0  0  0  # atno 6909 bound_to 6896
  145.7080  139.2605  143.1667 H   0  0  0  0  0  0  0  0  0  0  0  0  # atno 7974 bound_to 7965
  155.6562  140.3497  155.4766 H   0  0  0  0  0  0  0  0  0  0  0  0  # atno 8008 bound_to 7997
  155.9807  140.1174  157.0752 H   0  0  0  0  0  0  0  0  0  0  0  0  # atno 8009 bound_to 7997
  154.4191  140.1139  156.5417 H   0  0  0  0  0  0  0  0  0  0  0  0  # atno 8010 bound_to 7997
  139.7752  144.6908  151.0099 H   0  0  0  0  0  0  0  0  0  0  0  0  # atno 10167 bound_to 10162
  157.2679  131.0811  151.1620 H   0  0  0  0  0  0  0  0  0  0  0  0  # atno 10718 bound_to 10713
  152.9795  135.5958  154.3854 H   0  0  0  0  0  0  0  0  0  0  0  0  # atno 10763 bound_to 10752
  154.3514  135.2767  155.2371 H   0  0  0  0  0  0  0  0  0  0  0  0  # atno 10764 bound_to 10752
  154.4409  135.6013  153.6184 H   0  0  0  0  0  0  0  0  0  0  0  0  # atno 10765 bound_to 10752
  141.1565  133.7693  156.9740 H   0  0  0  0  0  0  0  0  0  0  0  0  # atno 11005 bound_to 11000
  146.0738  140.7840  142.9675 LP  0  0  0  0  0  0  0  0  0  0  0  0  # atno 17320 bound_to 7965
  144.6950  140.3383  143.7203 LP  0  0  0  0  0  0  0  0  0  0  0  0  # atno 17321 bound_to 7965
  140.7816  143.4543  151.0367 LP  0  0  0  0  0  0  0  0  0  0  0  0  # atno 17342 bound_to 10162
  139.8226  143.7799  152.3177 LP  0  0  0  0  0  0  0  0  0  0  0  0  # atno 17343 bound_to 10162
  157.3104  130.6887  149.6212 LP  0  0  0  0  0  0  0  0  0  0  0  0  # atno 17370 bound_to 10713
  155.9663  130.4365  150.5137 LP  0  0  0  0  0  0  0  0  0  0  0  0  # atno 17371 bound_to 10713
  140.1110  134.9476  157.2066 LP  0  0  0  0  0  0  0  0  0  0  0  0  # atno 17394 bound_to 11000
  140.3193  134.2934  155.7249 LP  0  0  0  0  0  0  0  0  0  0  0  0  # atno 17395 bound_to 11000

$$$$
