AV-unprocessed.smi:213|AV-procd|sdf|1639|dock8
  -GOLD-   2262020 03D 1   1.00000     0.00000
 Structure written by MMmdl.
 59 62  0  0  0  0  0  0  0  0  2 V2000
  146.9656  135.8712  156.2257 C   0  0  0  0  0  0  0  0  0  0  0  0
  147.9793  135.6414  155.0930 C   0  0  2  0  0  0  0  0  0  0  0  0
  147.6421  134.3649  154.2850 C   0  0  0  0  0  0  0  0  0  0  0  0
  147.0497  134.6578  152.9550 N   0  3  0  0  0  0  0  0  0  0  0  0
  146.7433  133.4374  152.1742 C   0  0  0  0  0  0  0  0  0  0  0  0
  146.2260  133.8189  150.7770 C   0  0  0  0  0  0  0  0  0  0  0  0
  145.0832  134.6571  150.9015 O   0  0  0  0  0  0  0  0  0  0  0  0
  145.3819  135.8696  151.5829 C   0  0  0  0  0  0  0  0  0  0  0  0
  145.8679  135.5527  153.0068 C   0  0  0  0  0  0  0  0  0  0  0  0
  149.3607  135.6420  155.5984 N   0  0  0  0  0  0  0  0  0  0  0  0
  150.1415  134.4058  155.5649 C   0  0  0  0  0  0  0  0  0  0  0  0
  150.0510  136.8067  155.4746 C   0  0  0  0  0  0  0  0  0  0  0  0
  151.1574  136.8444  154.6836 N   0  0  0  0  0  0  0  0  0  0  0  0
  151.8257  137.9879  154.5084 C   0  0  0  0  0  0  0  0  0  0  0  0
  151.5619  139.1929  155.0154 N   0  0  0  0  0  0  0  0  0  0  0  0
  150.4616  139.1608  155.8203 C   0  0  0  0  0  0  0  0  0  0  0  0
  149.6563  138.0217  156.1038 C   0  0  0  0  0  0  0  0  0  0  0  0
  148.6268  138.3762  156.9682 N   0  0  0  0  0  0  0  0  0  0  0  0
  148.8121  139.6502  157.1823 C   0  0  0  0  0  0  0  0  0  0  0  0
  149.8909  140.2016  156.5305 N   0  0  0  0  0  0  0  0  0  0  0  0
  150.3302  141.5842  156.5952 C   0  0  0  0  0  0  0  0  0  0  0  0
  150.7543  141.9987  158.0181 C   0  0  1  0  0  0  0  0  0  0  0  0
  151.8934  141.2699  158.4353 O   0  0  0  0  0  0  0  0  0  0  0  0
  151.0068  143.5145  158.1494 C   0  0  1  0  0  0  0  0  0  0  0  0
  151.2723  144.0416  159.5630 C   0  0  0  0  0  0  0  0  0  0  0  0
  152.0421  145.3090  159.2669 C   0  0  0  0  0  0  0  0  0  0  0  0
  152.8942  144.8835  158.0740 C   0  0  0  0  0  0  0  0  0  0  0  0
  152.1083  143.9405  157.3503 O   0  0  0  0  0  0  0  0  0  0  0  0
  145.9585  135.9894  155.8254 H   0  0  0  0  0  0  0  0  0  0  0  0
  147.2024  136.7770  156.7850 H   0  0  0  0  0  0  0  0  0  0  0  0
  146.9386  135.0391  156.9292 H   0  0  0  0  0  0  0  0  0  0  0  0
  147.8504  136.4866  154.4204 H   0  0  0  0  0  0  0  0  0  0  0  0
  148.5587  133.7893  154.1480 H   0  0  0  0  0  0  0  0  0  0  0  0
  146.9644  133.7226  154.8493 H   0  0  0  0  0  0  0  0  0  0  0  0
  147.6399  132.8243  152.0760 H   0  0  0  0  0  0  0  0  0  0  0  0
  145.9992  132.8394  152.7028 H   0  0  0  0  0  0  0  0  0  0  0  0
  147.0017  134.3255  150.2001 H   0  0  0  0  0  0  0  0  0  0  0  0
  145.9492  132.9228  150.2214 H   0  0  0  0  0  0  0  0  0  0  0  0
  146.1340  136.4361  151.0315 H   0  0  0  0  0  0  0  0  0  0  0  0
  144.4837  136.4863  151.6197 H   0  0  0  0  0  0  0  0  0  0  0  0
  145.0696  135.0758  153.5773 H   0  0  0  0  0  0  0  0  0  0  0  0
  146.1128  136.4838  153.5168 H   0  0  0  0  0  0  0  0  0  0  0  0
  151.0230  134.4890  156.2022 H   0  0  0  0  0  0  0  0  0  0  0  0
  150.4716  134.1812  154.5501 H   0  0  0  0  0  0  0  0  0  0  0  0
  149.5602  133.5586  155.9263 H   0  0  0  0  0  0  0  0  0  0  0  0
  152.6917  137.9313  153.8652 H   0  0  0  0  0  0  0  0  0  0  0  0
  148.1649  140.2259  157.8284 H   0  0  0  0  0  0  0  0  0  0  0  0
  151.1528  141.7200  155.8919 H   0  0  0  0  0  0  0  0  0  0  0  0
  149.5146  142.2188  156.2462 H   0  0  0  0  0  0  0  0  0  0  0  0
  149.9507  141.7340  158.7065 H   0  0  0  0  0  0  0  0  0  0  0  0
  152.1679  141.6027  159.2763 H   0  0  0  0  0  0  0  0  0  0  0  0
  150.1353  144.0418  157.7580 H   0  0  0  0  0  0  0  0  0  0  0  0
  150.3579  144.2184  160.1296 H   0  0  0  0  0  0  0  0  0  0  0  0
  151.9012  143.3608  160.1375 H   0  0  0  0  0  0  0  0  0  0  0  0
  151.3561  146.1052  158.9756 H   0  0  0  0  0  0  0  0  0  0  0  0
  152.6356  145.6589  160.1119 H   0  0  0  0  0  0  0  0  0  0  0  0
  153.1857  145.7259  157.4469 H   0  0  0  0  0  0  0  0  0  0  0  0
  153.8024  144.3855  158.4158 H   0  0  0  0  0  0  0  0  0  0  0  0
  147.7632  135.1477  152.4332 H   0  0  0  0  0  0  0  0  0  0  0  0
  1  2  1  0  0  0  0
  1 29  1  0  0  0  0
  1 30  1  0  0  0  0
  1 31  1  0  0  0  0
  2  3  1  0  0  0  0
  2 10  1  0  0  0  0
  2 32  1  0  0  0  0
  3  4  1  0  0  0  0
  3 33  1  0  0  0  0
  3 34  1  0  0  0  0
  4  9  1  0  0  0  0
  4  5  1  0  0  0  0
  4 59  1  0  0  0  0
  5  6  1  0  0  0  0
  5 35  1  0  0  0  0
  5 36  1  0  0  0  0
  6  7  1  0  0  0  0
  6 37  1  0  0  0  0
  6 38  1  0  0  0  0
  7  8  1  0  0  0  0
  8  9  1  0  0  0  0
  8 39  1  0  0  0  0
  8 40  1  0  0  0  0
  9 41  1  0  0  0  0
  9 42  1  0  0  0  0
 10 11  1  0  0  0  0
 10 12  1  0  0  0  0
 11 43  1  0  0  0  0
 11 44  1  0  0  0  0
 11 45  1  0  0  0  0
 12 17  1  0  0  0  0
 12 13  2  0  0  0  0
 13 14  1  0  0  0  0
 14 15  2  0  0  0  0
 14 46  1  0  0  0  0
 15 16  1  0  0  0  0
 16 20  1  0  0  0  0
 16 17  2  0  0  0  0
 17 18  1  0  0  0  0
 18 19  2  0  0  0  0
 19 20  1  0  0  0  0
 19 47  1  0  0  0  0
 20 21  1  0  0  0  0
 21 22  1  0  0  0  0
 21 48  1  0  0  0  0
 21 49  1  0  0  0  0
 22 23  1  0  0  0  0
 22 24  1  0  0  0  0
 22 50  1  0  0  0  0
 23 51  1  0  0  0  0
 24 28  1  0  0  0  0
 24 25  1  0  0  0  0
 24 52  1  0  0  0  0
 25 26  1  0  0  0  0
 25 53  1  0  0  0  0
 25 54  1  0  0  0  0
 26 27  1  0  0  0  0
 26 55  1  0  0  0  0
 26 56  1  0  0  0  0
 27 28  1  0  0  0  0
 27 57  1  0  0  0  0
 27 58  1  0  0  0  0
M  CHG  1   4   1
M  END
> <s_m_source_file>
AV-unprocessed.smi

> <i_m_source_file_index>
213

> <i_lp_mmshare_version>
43012

> <i_f3d_flags>
0

> <s_epik_input>
W0NIMl0xW0NIMl1PW0NIMl1bQ0gyXU4xW0NIMl1bQ0BASF0oW0NIM10pTihbQ0gzXSljKG5bY0hdbjIpYyhjMjMpbltjSF1uM1tDSDJdW0NASF0oW09IXSlbQ0BASF00W0NIMl1bQ0gyXVtDSDJdTzQ=

> <s_epik_cmdline>
J2VwaWtfcHl0aG9uJywgJy1waCcsICc3LjAnLCAnLXRuJywgJzgnLCAnLW1hJywgJzIwMCcsICctbWV0YWxfYmluZGluZycsICctaW1hZScsICc8aW5maWxlLm1hZT4nLCAnLW9tYWUnLCAnPG91dGZpbGUubWFlPic=

> <r_lp_tautomer_probability>
1

> <r_epik_Ionization_Penalty>
0.399679

> <r_epik_Ionization_Penalty_Charging>
0.399433

> <r_epik_Ionization_Penalty_Neutral>
0.000246213

> <r_epik_State_Penalty>
0.286032

> <r_epik_Charging_Adjusted_Penalty>
0.685465

> <i_epik_Tot_Q>
1

> <i_epik_Tot_abs_Q>
1

> <r_epik_Metal_State_Penalty>
0.286072

> <b_epik_Metal_Only>
0

> <s_lp_Force_Field>
OPLS_2005

> <r_lp_Energy>
47.0923

> <b_lp_Chiralities_Consistent>
1

> <s_lp_Variant>
AV-unprocessed.smi:213-7

> <Gold.Version>
5.8.1

> <Gold.Id.Protein>
6NUR|6NUR_protein|mol2

> <Gold.PLP.Fitness>
51.1803

> <Gold.PLP.PLP>
-41.7575

> <Gold.PLP.part.hbond>
-3.0000

> <Gold.PLP.part.metal>
0.0000

> <Gold.PLP.part.buried>
-6.3348

> <Gold.PLP.part.nonpolar>
-31.3697

> <Gold.PLP.part.repulsive>
0.6636

> <Gold.PLP.ligand.clash>
0.0000

> <Gold.PLP.ligand.torsion>
1.9244

> <Gold.PLP.Chemscore.Hbond>
3.9913

> <Gold.PLP.Chemscore.CHOScore>
0.0000

> <Gold.PLP.Chemscore.Metal>
0.0000

> <Gold.Chemscore.Hbonds>
donor molecule, donor type, donor heavy atom, donor atom, acceptor molecule, acceptor atom, score
      L1  H     4    59       P1  7948  2.00
      P1  H  7989  7998       L1    15  0.44
      P1  H 10752 10763       L1    13  0.44

> <Gold.PLP.Chemscore.Internal.Correction>
1.2978

> <Gold.Rescore>
     Score         DG    S(hbond)    S(metal)    S(lipo)     H(rot)  DE(clash)    DE(int)     intcor
     13.87     -15.95       2.05        0.00      92.68       2.83       0.14       1.94       ----

> <Gold.Chemscore.Fitness>
13.8734

> <Gold.Chemscore.DG>
-15.9493

> <Gold.Chemscore.ZeroCoef>
-5.4800

> <Gold.Chemscore.Hbond>
2.0534

> <Gold.Chemscore.Metal>
0.0000

> <Gold.Chemscore.Lipo>
92.6828

> <Gold.Chemscore.Internal_Hbond>
0.0000

> <Gold.Chemscore.DEClash>
0.1366

> <Gold.Chemscore.DEInternal>
1.9392

> <Gold.Chemscore.Rot>
2.8254

> <Gold.Chemscore.Internal.Correction>
   9.000000E+99

> <Gold.Chemscore.Hbonds>
donor molecule, donor type, donor heavy atom, donor atom, acceptor molecule, acceptor atom, score
      L1  H     4    59       P1  7948  0.98
      P1  H  7989  7998       L1    15  0.36
      P1  H 10752 10763       L1    13  0.04

> <Gold.Chemscore.Hbond.Weighted>
-6.8583

> <Gold.Chemscore.Metal.Weighted>
-0.0000

> <Gold.Chemscore.Lipo.Weighted>
-10.8439

> <Gold.Chemscore.Internal_Hbond.Weighted>
0.0000

> <Gold.Chemscore.DEClash.Weighted>
0.1366

> <Gold.Chemscore.DEInternal.Weighted>
1.9392

> <Gold.Chemscore.Rot.Weighted>
7.2330

> <Gold.Chemscore.Internal.Correction.Weighted>
   9.000000E+99

> <Gold.Protein.RotatedTorsions>
[ 6907 6896 6895 6894 ] final -176.25 input  -60.11 | X-H torsion
[ 7974 7965 7964 7962 ] final  -21.40 input  175.53 | X-H torsion
[ 8008 7997 7996 7995 ] final  -18.37 input   59.86 | X-H torsion
[ 10167 10162 10161 10158 ] final  171.92 input  -65.29 | X-H torsion
[ 10718 10713 10712 10709 ] final   14.05 input   66.30 | X-H torsion
[ 10763 10752 10751 10750 ] final   48.96 input  -60.55 | X-H torsion
[ 11005 11000 10999 10996 ] final  -35.49 input  -57.11 | X-H torsion

> <Gold.Protein.ActiveResidues>
 VAL166  LYS551  ARG553  GLY616  TRP617  ASP618  TYR619  PRO620  LYS621  CYS622 
 ASP623  PHE694  ASN695  SER759  ASP760  ASP761  ALA762  ILE779  LEU786  VAL792 
 PHE793  MET794  SER795  GLU796  ALA797  LYS798  CYS799  TRP800  GLU811  SER814 

> <Gold.Protein.RotatedAtoms>
  151.6017  133.3356  159.3048 H   0  0  0  0  0  0  0  0  0  0  0  0  # atno 6907 bound_to 6896
  150.8204  134.7412  159.6779 H   0  0  0  0  0  0  0  0  0  0  0  0  # atno 6908 bound_to 6896
  152.4298  134.5805  159.9998 H   0  0  0  0  0  0  0  0  0  0  0  0  # atno 6909 bound_to 6896
  146.1735  140.4336  142.8523 H   0  0  0  0  0  0  0  0  0  0  0  0  # atno 7974 bound_to 7965
  154.4911  140.2117  155.9547 H   0  0  0  0  0  0  0  0  0  0  0  0  # atno 8008 bound_to 7997
  156.1306  140.3197  155.8312 H   0  0  0  0  0  0  0  0  0  0  0  0  # atno 8009 bound_to 7997
  155.4303  140.0503  157.3010 H   0  0  0  0  0  0  0  0  0  0  0  0  # atno 8010 bound_to 7997
  139.5061  144.3431  151.9998 H   0  0  0  0  0  0  0  0  0  0  0  0  # atno 10167 bound_to 10162
  157.0335  130.6202  149.5739 H   0  0  0  0  0  0  0  0  0  0  0  0  # atno 10718 bound_to 10713
  152.9789  135.5927  154.4011 H   0  0  0  0  0  0  0  0  0  0  0  0  # atno 10763 bound_to 10752
  154.3656  135.2767  155.2297 H   0  0  0  0  0  0  0  0  0  0  0  0  # atno 10764 bound_to 10752
  154.4275  135.6044  153.6103 H   0  0  0  0  0  0  0  0  0  0  0  0  # atno 10765 bound_to 10752
  140.9800  133.7061  156.1668 H   0  0  0  0  0  0  0  0  0  0  0  0  # atno 11005 bound_to 11000
  144.8199  140.6532  143.6360 LP  0  0  0  0  0  0  0  0  0  0  0  0  # atno 17320 bound_to 7965
  145.4276  139.1554  143.4039 LP  0  0  0  0  0  0  0  0  0  0  0  0  # atno 17321 bound_to 7965
  140.2869  144.3797  150.6101 LP  0  0  0  0  0  0  0  0  0  0  0  0  # atno 17342 bound_to 10162
  140.5976  143.2167  151.7134 LP  0  0  0  0  0  0  0  0  0  0  0  0  # atno 17343 bound_to 10162
  156.0061  130.5148  150.7835 LP  0  0  0  0  0  0  0  0  0  0  0  0  # atno 17370 bound_to 10713
  157.5159  131.0928  151.0140 LP  0  0  0  0  0  0  0  0  0  0  0  0  # atno 17371 bound_to 10713
  140.7200  134.4368  157.5575 LP  0  0  0  0  0  0  0  0  0  0  0  0  # atno 17394 bound_to 11000
  139.8946  134.8702  156.2168 LP  0  0  0  0  0  0  0  0  0  0  0  0  # atno 17395 bound_to 11000

$$$$
