AV-unprocessed.smi:1278|AV-procd|sdf|5347|dock2
  -GOLD-   22720 4483D 1   1.00000     0.00000
 Structure written by MMmdl.
 39 40  0  0  0  0  0  0  0  0  2 V2000
  146.1900  132.0935  151.2361 C   0  0  0  0  0  0  0  0  0  0  0  0
  147.0022  133.1056  152.0568 C   0  0  2  0  0  0  0  0  0  0  0  0
  147.6757  132.4356  153.2664 C   0  0  0  0  0  0  0  0  0  0  0  0
  148.4547  133.4734  154.0836 C   0  0  0  0  0  0  0  0  0  0  0  0
  147.5462  134.6424  154.4952 C   0  0  0  0  0  0  0  0  0  0  0  0
  146.9144  135.2746  153.3083 N   0  3  2  0  0  0  0  0  0  0  0  0
  146.1363  136.4858  153.6700 C   0  0  0  0  0  0  0  0  0  0  0  0
  145.7164  137.3074  152.4356 C   0  0  0  0  0  0  0  0  0  0  0  0
  144.4157  137.9383  152.6301 N   0  0  0  0  0  0  0  0  0  0  0  0
  143.2993  137.2888  152.9912 C   0  0  0  0  0  0  0  0  0  0  0  0
  143.2634  136.0757  153.2008 O   0  0  0  0  0  0  0  0  0  0  0  0
  142.2536  138.1281  153.0917 N   0  0  0  0  0  0  0  0  0  0  0  0
  140.9191  137.8232  153.4691 C   0  0  0  0  0  0  0  0  0  0  0  0
  139.9094  138.7010  153.4433 N   0  0  0  0  0  0  0  0  0  0  0  0
  138.7055  138.1279  153.8602 C   0  0  0  0  0  0  0  0  0  0  0  0
  138.8173  136.8029  154.2016 C   0  0  0  0  0  0  0  0  0  0  0  0
  140.4496  136.2196  154.0138 S   0  0  0  0  0  0  0  0  0  0  0  0
  146.1270  134.2883  152.5195 C   0  0  0  0  0  0  0  0  0  0  0  0
  145.3788  131.6643  151.8251 H   0  0  0  0  0  0  0  0  0  0  0  0
  146.8196  131.2733  150.8899 H   0  0  0  0  0  0  0  0  0  0  0  0
  145.7496  132.5636  150.3563 H   0  0  0  0  0  0  0  0  0  0  0  0
  147.7864  133.4994  151.4082 H   0  0  0  0  0  0  0  0  0  0  0  0
  146.9224  131.9624  153.8981 H   0  0  0  0  0  0  0  0  0  0  0  0
  148.3482  131.6430  152.9362 H   0  0  0  0  0  0  0  0  0  0  0  0
  148.8821  133.0042  154.9704 H   0  0  0  0  0  0  0  0  0  0  0  0
  149.2946  133.8492  153.4974 H   0  0  0  0  0  0  0  0  0  0  0  0
  146.7706  134.2961  155.1802 H   0  0  0  0  0  0  0  0  0  0  0  0
  148.1403  135.3807  155.0351 H   0  0  0  0  0  0  0  0  0  0  0  0
  145.2703  136.1955  154.2670 H   0  0  0  0  0  0  0  0  0  0  0  0
  146.7446  137.1292  154.3077 H   0  0  0  0  0  0  0  0  0  0  0  0
  146.4489  138.0923  152.2453 H   0  0  0  0  0  0  0  0  0  0  0  0
  145.6814  136.6928  151.5357 H   0  0  0  0  0  0  0  0  0  0  0  0
  144.3609  138.9347  152.4746 H   0  0  0  0  0  0  0  0  0  0  0  0
  142.4320  139.0988  152.8804 H   0  0  0  0  0  0  0  0  0  0  0  0
  137.8142  138.7373  153.8827 H   0  0  0  0  0  0  0  0  0  0  0  0
  138.0413  136.1380  154.5507 H   0  0  0  0  0  0  0  0  0  0  0  0
  145.6942  134.7707  151.6435 H   0  0  0  0  0  0  0  0  0  0  0  0
  145.2918  133.9265  153.1218 H   0  0  0  0  0  0  0  0  0  0  0  0
  147.6730  135.5863  152.7190 H   0  0  0  0  0  0  0  0  0  0  0  0
  1  2  1  0  0  0  0
  1 19  1  0  0  0  0
  1 20  1  0  0  0  0
  1 21  1  0  0  0  0
  2 18  1  0  0  0  0
  2  3  1  0  0  0  0
  2 22  1  0  0  0  0
  3  4  1  0  0  0  0
  3 23  1  0  0  0  0
  3 24  1  0  0  0  0
  4  5  1  0  0  0  0
  4 25  1  0  0  0  0
  4 26  1  0  0  0  0
  5  6  1  0  0  0  0
  5 27  1  0  0  0  0
  5 28  1  0  0  0  0
  6  7  1  0  0  0  0
  6 18  1  0  0  0  0
  6 39  1  0  0  0  0
  7  8  1  0  0  0  0
  7 29  1  0  0  0  0
  7 30  1  0  0  0  0
  8  9  1  0  0  0  0
  8 31  1  0  0  0  0
  8 32  1  0  0  0  0
  9 10  1  0  0  0  0
  9 33  1  0  0  0  0
 10 11  2  0  0  0  0
 10 12  1  0  0  0  0
 12 13  1  0  0  0  0
 12 34  1  0  0  0  0
 13 17  1  0  0  0  0
 13 14  2  0  0  0  0
 14 15  1  0  0  0  0
 15 16  2  0  0  0  0
 15 35  1  0  0  0  0
 16 17  1  0  0  0  0
 16 36  1  0  0  0  0
 18 37  1  0  0  0  0
 18 38  1  0  0  0  0
M  CHG  1   6   1
M  END
> <s_m_source_file>
AV-unprocessed.smi

> <i_m_source_file_index>
1278

> <i_lp_mmshare_version>
43012

> <i_f3d_flags>
0

> <s_epik_input>
W0NIM11bQ0BASF0xW0NIMl1bQ0gyXVtDSDJdTihbQ0gyXTEpW0NIMl1bQ0gyXVtOSF1DKD1PKVtOSF1jMm5bY0hdW2NIXXMy

> <s_epik_cmdline>
J2VwaWtfcHl0aG9uJywgJy1waCcsICc3LjAnLCAnLXRuJywgJzgnLCAnLW1hJywgJzIwMCcsICctbWV0YWxfYmluZGluZycsICctaW1hZScsICc8aW5maWxlLm1hZT4nLCAnLW9tYWUnLCAnPG91dGZpbGUubWFlPic=

> <r_lp_tautomer_probability>
0.999

> <r_epik_Ionization_Penalty>
0.00222194

> <r_epik_Ionization_Penalty_Charging>
0.00208169

> <r_epik_Ionization_Penalty_Neutral>
0.000140251

> <r_epik_State_Penalty>
0.00142585

> <r_epik_Charging_Adjusted_Penalty>
0.00350754

> <i_epik_Tot_Q>
1

> <i_epik_Tot_abs_Q>
1

> <r_epik_Metal_State_Penalty>
0.0570424

> <b_epik_Metal_Only>
0

> <s_lp_Force_Field>
OPLS_2005

> <r_lp_Energy>
14.0127

> <b_lp_Chiralities_Consistent>
1

> <s_lp_Variant>
AV-unprocessed.smi:1278-1

> <Gold.Version>
5.8.1

> <Gold.Id.Protein>
6NUR|6NUR_protein|mol2

> <Gold.PLP.Fitness>
44.5229

> <Gold.PLP.PLP>
-33.0641

> <Gold.PLP.part.hbond>
-4.0000

> <Gold.PLP.part.metal>
0.0000

> <Gold.PLP.part.buried>
-3.9440

> <Gold.PLP.part.nonpolar>
-26.0063

> <Gold.PLP.part.repulsive>
0.3754

> <Gold.PLP.ligand.clash>
0.0000

> <Gold.PLP.ligand.torsion>
0.2918

> <Gold.PLP.Chemscore.Hbond>
4.0000

> <Gold.PLP.Chemscore.CHOScore>
0.0000

> <Gold.PLP.Chemscore.Metal>
0.0000

> <Gold.Chemscore.Hbonds>
donor molecule, donor type, donor heavy atom, donor atom, acceptor molecule, acceptor atom, score
      L1  H     6    39       P1  7948  2.00
      L1  H     9    33       P1 10175  1.00
      L1  H    12    34       P1 10175  1.00

> <Gold.PLP.Chemscore.Internal.Correction>
0.0424

> <Gold.Rescore>
     Score         DG    S(hbond)    S(metal)    S(lipo)     H(rot)  DE(clash)    DE(int)     intcor
     16.38     -19.14       2.91        0.00      68.70       1.60       0.04       2.73       ----

> <Gold.Chemscore.Fitness>
16.3771

> <Gold.Chemscore.DG>
-19.1407

> <Gold.Chemscore.ZeroCoef>
-5.4800

> <Gold.Chemscore.Hbond>
2.9100

> <Gold.Chemscore.Metal>
0.0000

> <Gold.Chemscore.Lipo>
68.6956

> <Gold.Chemscore.Internal_Hbond>
0.0000

> <Gold.Chemscore.DEClash>
0.0367

> <Gold.Chemscore.DEInternal>
2.7269

> <Gold.Chemscore.Rot>
1.6001

> <Gold.Chemscore.Internal.Correction>
   9.000000E+99

> <Gold.Chemscore.Hbonds>
donor molecule, donor type, donor heavy atom, donor atom, acceptor molecule, acceptor atom, score
      L1  H     6    39       P1  7948  1.00
      L1  H     9    33       P1 10175  0.99
      L1  H    12    34       P1 10175  0.95

> <Gold.Chemscore.Hbond.Weighted>
-9.7195

> <Gold.Chemscore.Metal.Weighted>
-0.0000

> <Gold.Chemscore.Lipo.Weighted>
-8.0374

> <Gold.Chemscore.Internal_Hbond.Weighted>
0.0000

> <Gold.Chemscore.DEClash.Weighted>
0.0367

> <Gold.Chemscore.DEInternal.Weighted>
2.7269

> <Gold.Chemscore.Rot.Weighted>
4.0963

> <Gold.Chemscore.Internal.Correction.Weighted>
   9.000000E+99

> <Gold.Protein.RotatedTorsions>
[ 6907 6896 6895 6894 ] final  -81.94 input  -60.11 | X-H torsion
[ 7974 7965 7964 7962 ] final   68.74 input  175.53 | X-H torsion
[ 8008 7997 7996 7995 ] final  -11.16 input   59.86 | X-H torsion
[ 10167 10162 10161 10158 ] final    4.45 input  -65.29 | X-H torsion
[ 10718 10713 10712 10709 ] final -124.98 input   66.30 | X-H torsion
[ 10763 10752 10751 10750 ] final  -27.18 input  -60.55 | X-H torsion
[ 11005 11000 10999 10996 ] final  -30.22 input  -57.11 | X-H torsion

> <Gold.Protein.ActiveResidues>
 VAL166  LYS551  ARG553  GLY616  TRP617  ASP618  TYR619  PRO620  LYS621  CYS622 
 ASP623  PHE694  ASN695  SER759  ASP760  ASP761  ALA762  ILE779  LEU786  VAL792 
 PHE793  MET794  SER795  GLU796  ALA797  LYS798  CYS799  TRP800  GLU811  SER814 

> <Gold.Protein.RotatedAtoms>
  150.6904  134.3741  159.5004 H   0  0  0  0  0  0  0  0  0  0  0  0  # atno 6907 bound_to 6896
  152.1553  134.8953  160.0554 H   0  0  0  0  0  0  0  0  0  0  0  0  # atno 6908 bound_to 6896
  152.0035  133.3799  159.4228 H   0  0  0  0  0  0  0  0  0  0  0  0  # atno 6909 bound_to 6896
  145.7989  139.2972  143.1166 H   0  0  0  0  0  0  0  0  0  0  0  0  # atno 7974 bound_to 7965
  154.5490  140.2310  155.8516 H   0  0  0  0  0  0  0  0  0  0  0  0  # atno 8008 bound_to 7997
  156.1929  140.3072  155.9330 H   0  0  0  0  0  0  0  0  0  0  0  0  # atno 8009 bound_to 7997
  155.3108  140.0435  157.3025 H   0  0  0  0  0  0  0  0  0  0  0  0  # atno 8010 bound_to 7997
  140.6534  143.7489  150.7612 H   0  0  0  0  0  0  0  0  0  0  0  0  # atno 10167 bound_to 10162
  156.1635  130.6618  151.0082 H   0  0  0  0  0  0  0  0  0  0  0  0  # atno 10718 bound_to 10713
  153.7280  135.6940  153.4996 H   0  0  0  0  0  0  0  0  0  0  0  0  # atno 10763 bound_to 10752
  153.2156  135.4387  155.0429 H   0  0  0  0  0  0  0  0  0  0  0  0  # atno 10764 bound_to 10752
  154.8262  135.3448  154.6811 H   0  0  0  0  0  0  0  0  0  0  0  0  # atno 10765 bound_to 10752
  140.9364  133.7306  156.1011 H   0  0  0  0  0  0  0  0  0  0  0  0  # atno 11005 bound_to 11000
  145.9898  140.8612  143.0072 LP  0  0  0  0  0  0  0  0  0  0  0  0  # atno 17320 bound_to 7965
  144.6771  140.2200  143.7367 LP  0  0  0  0  0  0  0  0  0  0  0  0  # atno 17321 bound_to 7965
  140.1144  143.4670  152.2351 LP  0  0  0  0  0  0  0  0  0  0  0  0  # atno 17342 bound_to 10162
  139.5752  144.7484  151.3784 LP  0  0  0  0  0  0  0  0  0  0  0  0  # atno 17343 bound_to 10162
  157.6750  131.0852  150.7517 LP  0  0  0  0  0  0  0  0  0  0  0  0  # atno 17370 bound_to 10713
  156.7579  130.4789  149.5443 LP  0  0  0  0  0  0  0  0  0  0  0  0  # atno 17371 bound_to 10713
  140.7793  134.3743  157.5491 LP  0  0  0  0  0  0  0  0  0  0  0  0  # atno 17394 bound_to 11000
  139.8809  134.9071  156.2938 LP  0  0  0  0  0  0  0  0  0  0  0  0  # atno 17395 bound_to 11000

$$$$
