AV-unprocessed.smi:1239|AV-procd|sdf|5187|dock10
  -GOLD-   22720 4273D 1   1.00000     0.00000
 Structure written by MMmdl.
 47 48  0  0  0  0  0  0  0  0  1 V2000
  157.5664  140.4297  166.6175 C   0  0  0  0  0  0  0  0  0  0  0  0
  156.3708  141.0422  167.3820 C   0  0  2  0  0  0  0  0  0  0  0  0
  155.8245  142.2277  166.5469 C   0  0  0  0  0  0  0  0  0  0  0  0
  155.3617  141.7940  165.2303 N   0  0  0  0  0  0  0  0  0  0  0  0
  154.6878  142.5503  164.3529 C   0  0  0  0  0  0  0  0  0  0  0  0
  154.3838  143.7249  164.5589 O   0  0  0  0  0  0  0  0  0  0  0  0
  154.3793  141.8511  163.2469 N   0  0  0  0  0  0  0  0  0  0  0  0
  153.6854  142.2899  162.0862 C   0  0  0  0  0  0  0  0  0  0  0  0
  153.7779  141.5032  160.9225 C   0  0  0  0  0  0  0  0  0  0  0  0
  153.1149  141.9190  159.7522 C   0  0  0  0  0  0  0  0  0  0  0  0
  152.3738  143.1265  159.7687 C   0  0  0  0  0  0  0  0  0  0  0  0
  151.6858  143.5866  158.6224 N   0  0  0  0  0  0  0  0  0  0  0  0
  151.5101  145.0194  158.4072 C   0  0  0  0  0  0  0  0  0  0  0  0
  151.1365  142.6353  157.6647 C   0  0  0  0  0  0  0  0  0  0  0  0
  152.3001  143.8896  160.8864 N   0  0  0  0  0  0  0  0  0  0  0  0
  152.9365  143.4875  162.0065 C   0  0  0  0  0  0  0  0  0  0  0  0
  156.6804  141.3830  168.7883 N   0  0  0  0  0  0  0  0  0  0  0  0
  155.4947  141.8094  169.5379 C   0  0  0  0  0  0  0  0  0  0  0  0
  155.8106  142.1418  171.0066 C   0  0  0  0  0  0  0  0  0  0  0  0
  156.4099  141.0160  171.6341 O   0  0  0  0  0  0  0  0  0  0  0  0
  157.6043  140.6093  170.9796 C   0  0  0  0  0  0  0  0  0  0  0  0
  157.2990  140.2675  169.5110 C   0  0  0  0  0  0  0  0  0  0  0  0
  157.3348  140.3009  165.5598 H   0  0  0  0  0  0  0  0  0  0  0  0
  157.8301  139.4412  166.9920 H   0  0  0  0  0  0  0  0  0  0  0  0
  158.4517  141.0631  166.6845 H   0  0  0  0  0  0  0  0  0  0  0  0
  155.5855  140.2846  167.3874 H   0  0  0  0  0  0  0  0  0  0  0  0
  155.0194  142.7109  167.1029 H   0  0  0  0  0  0  0  0  0  0  0  0
  156.5745  143.0068  166.4168 H   0  0  0  0  0  0  0  0  0  0  0  0
  155.5587  140.8362  164.9793 H   0  0  0  0  0  0  0  0  0  0  0  0
  154.6276  140.8727  163.2579 H   0  0  0  0  0  0  0  0  0  0  0  0
  154.3476  140.5854  160.9228 H   0  0  0  0  0  0  0  0  0  0  0  0
  153.1879  141.3036  158.8684 H   0  0  0  0  0  0  0  0  0  0  0  0
  152.4776  145.5148  158.3191 H   0  0  0  0  0  0  0  0  0  0  0  0
  150.9656  145.4677  159.2387 H   0  0  0  0  0  0  0  0  0  0  0  0
  150.9487  145.2199  157.4948 H   0  0  0  0  0  0  0  0  0  0  0  0
  150.3968  141.9934  158.1437 H   0  0  0  0  0  0  0  0  0  0  0  0
  151.9268  142.0094  157.2496 H   0  0  0  0  0  0  0  0  0  0  0  0
  150.6470  143.1451  156.8349 H   0  0  0  0  0  0  0  0  0  0  0  0
  152.8476  144.1656  162.8403 H   0  0  0  0  0  0  0  0  0  0  0  0
  155.0579  142.7003  169.0898 H   0  0  0  0  0  0  0  0  0  0  0  0
  154.7324  141.0296  169.4997 H   0  0  0  0  0  0  0  0  0  0  0  0
  156.4768  143.0032  171.0732 H   0  0  0  0  0  0  0  0  0  0  0  0
  154.8967  142.4020  171.5407 H   0  0  0  0  0  0  0  0  0  0  0  0
  158.3526  141.4006  171.0444 H   0  0  0  0  0  0  0  0  0  0  0  0
  158.0129  139.7393  171.4937 H   0  0  0  0  0  0  0  0  0  0  0  0
  156.6465  139.3939  169.4719 H   0  0  0  0  0  0  0  0  0  0  0  0
  158.2381  139.9808  169.0403 H   0  0  0  0  0  0  0  0  0  0  0  0
  1  2  1  0  0  0  0
  1 23  1  0  0  0  0
  1 24  1  0  0  0  0
  1 25  1  0  0  0  0
  2  3  1  0  0  0  0
  2 17  1  0  0  0  0
  2 26  1  0  0  0  0
  3  4  1  0  0  0  0
  3 27  1  0  0  0  0
  3 28  1  0  0  0  0
  4  5  1  0  0  0  0
  4 29  1  0  0  0  0
  5  6  2  0  0  0  0
  5  7  1  0  0  0  0
  7  8  1  0  0  0  0
  7 30  1  0  0  0  0
  8 16  1  0  0  0  0
  8  9  2  0  0  0  0
  9 10  1  0  0  0  0
  9 31  1  0  0  0  0
 10 11  2  0  0  0  0
 10 32  1  0  0  0  0
 11 12  1  0  0  0  0
 11 15  1  0  0  0  0
 12 13  1  0  0  0  0
 12 14  1  0  0  0  0
 13 33  1  0  0  0  0
 13 34  1  0  0  0  0
 13 35  1  0  0  0  0
 14 36  1  0  0  0  0
 14 37  1  0  0  0  0
 14 38  1  0  0  0  0
 15 16  2  0  0  0  0
 16 39  1  0  0  0  0
 17 22  1  0  0  0  0
 17 18  1  0  0  0  0
 18 19  1  0  0  0  0
 18 40  1  0  0  0  0
 18 41  1  0  0  0  0
 19 20  1  0  0  0  0
 19 42  1  0  0  0  0
 19 43  1  0  0  0  0
 20 21  1  0  0  0  0
 21 22  1  0  0  0  0
 21 44  1  0  0  0  0
 21 45  1  0  0  0  0
 22 46  1  0  0  0  0
 22 47  1  0  0  0  0
M  END
> <s_m_source_file>
AV-unprocessed.smi

> <i_m_source_file_index>
1239

> <i_lp_mmshare_version>
43012

> <i_f3d_flags>
0

> <s_epik_input>
W0NIMl0xW0NIMl1PW0NIMl1bQ0gyXU4xW0NASF0oW0NIM10pW0NIMl1bTkhdQyg9TylbTkhdYzJbY0hdW2NIXWMoTihbQ0gzXSlbQ0gzXSluW2NIXTI=

> <s_epik_cmdline>
J2VwaWtfcHl0aG9uJywgJy1waCcsICc3LjAnLCAnLXRuJywgJzgnLCAnLW1hJywgJzIwMCcsICctbWV0YWxfYmluZGluZycsICctaW1hZScsICc8aW5maWxlLm1hZT4nLCAnLW9tYWUnLCAnPG91dGZpbGUubWFlPic=

> <r_lp_tautomer_probability>
1

> <r_epik_Ionization_Penalty>
0.87526

> <r_epik_Ionization_Penalty_Charging>
0

> <r_epik_Ionization_Penalty_Neutral>
0.87526

> <r_epik_State_Penalty>
0.859346

> <r_epik_Charging_Adjusted_Penalty>
0.859346

> <i_epik_Tot_Q>
0

> <i_epik_Tot_abs_Q>
0

> <r_epik_Metal_State_Penalty>
0.538105

> <b_epik_Metal_Only>
0

> <s_lp_Force_Field>
OPLS_2005

> <r_lp_Energy>
39.6376

> <b_lp_Chiralities_Consistent>
1

> <s_lp_Variant>
AV-unprocessed.smi:1239-3

> <Gold.Version>
5.8.1

> <Gold.Id.Protein>
6NUR|6NUR_protein|mol2

> <Gold.PLP.Fitness>
41.9830

> <Gold.PLP.PLP>
-43.0058

> <Gold.PLP.part.hbond>
-1.3984

> <Gold.PLP.part.metal>
0.0000

> <Gold.PLP.part.buried>
-6.7603

> <Gold.PLP.part.nonpolar>
-33.1986

> <Gold.PLP.part.repulsive>
0.3718

> <Gold.PLP.ligand.clash>
0.0000

> <Gold.PLP.ligand.torsion>
0.5367

> <Gold.PLP.Chemscore.Hbond>
0.0000

> <Gold.PLP.Chemscore.CHOScore>
0.0000

> <Gold.PLP.Chemscore.Metal>
0.0000

> <Gold.PLP.Chemscore.Internal.Correction>
0.0506

> <Gold.Rescore>
     Score         DG    S(hbond)    S(metal)    S(lipo)     H(rot)  DE(clash)    DE(int)     intcor
      9.96     -12.68       0.00        0.00      92.99       1.44       0.80       1.92       ----

> <Gold.Chemscore.Fitness>
9.9615

> <Gold.Chemscore.DG>
-12.6810

> <Gold.Chemscore.ZeroCoef>
-5.4800

> <Gold.Chemscore.Hbond>
0.0000

> <Gold.Chemscore.Metal>
0.0000

> <Gold.Chemscore.Lipo>
92.9882

> <Gold.Chemscore.Internal_Hbond>
0.0000

> <Gold.Chemscore.DEClash>
0.7971

> <Gold.Chemscore.DEInternal>
1.9224

> <Gold.Chemscore.Rot>
1.4370

> <Gold.Chemscore.Internal.Correction>
   9.000000E+99

> <Gold.Chemscore.Hbond.Weighted>
-0.0000

> <Gold.Chemscore.Metal.Weighted>
-0.0000

> <Gold.Chemscore.Lipo.Weighted>
-10.8796

> <Gold.Chemscore.Internal_Hbond.Weighted>
0.0000

> <Gold.Chemscore.DEClash.Weighted>
0.7971

> <Gold.Chemscore.DEInternal.Weighted>
1.9224

> <Gold.Chemscore.Rot.Weighted>
3.6786

> <Gold.Chemscore.Internal.Correction.Weighted>
   9.000000E+99

> <Gold.Protein.RotatedTorsions>
[ 6907 6896 6895 6894 ] final   21.44 input  -60.11 | X-H torsion
[ 7974 7965 7964 7962 ] final  151.75 input  175.53 | X-H torsion
[ 8008 7997 7996 7995 ] final -153.05 input   59.86 | X-H torsion
[ 10167 10162 10161 10158 ] final -134.57 input  -65.29 | X-H torsion
[ 10718 10713 10712 10709 ] final  -20.74 input   66.30 | X-H torsion
[ 10763 10752 10751 10750 ] final   59.01 input  -60.55 | X-H torsion
[ 11005 11000 10999 10996 ] final  -64.69 input  -57.11 | X-H torsion

> <Gold.Protein.ActiveResidues>
 VAL166  LYS551  ARG553  GLY616  TRP617  ASP618  TYR619  PRO620  LYS621  CYS622 
 ASP623  PHE694  ASN695  SER759  ASP760  ASP761  ALA762  ILE779  LEU786  VAL792 
 PHE793  MET794  SER795  GLU796  ALA797  LYS798  CYS799  TRP800  GLU811  SER814 

> <Gold.Protein.RotatedAtoms>
  151.9118  135.0336  160.0514 H   0  0  0  0  0  0  0  0  0  0  0  0  # atno 6907 bound_to 6896
  152.2273  133.5026  159.5204 H   0  0  0  0  0  0  0  0  0  0  0  0  # atno 6908 bound_to 6896
  150.7016  134.1179  159.4067 H   0  0  0  0  0  0  0  0  0  0  0  0  # atno 6909 bound_to 6896
  144.8270  139.6579  143.6075 H   0  0  0  0  0  0  0  0  0  0  0  0  # atno 7974 bound_to 7965
  155.6648  140.0726  157.2541 H   0  0  0  0  0  0  0  0  0  0  0  0  # atno 8008 bound_to 7997
  154.4135  140.1709  156.1866 H   0  0  0  0  0  0  0  0  0  0  0  0  # atno 8009 bound_to 7997
  155.9667  140.3365  155.6541 H   0  0  0  0  0  0  0  0  0  0  0  0  # atno 8010 bound_to 7997
  139.8867  143.6772  152.2619 H   0  0  0  0  0  0  0  0  0  0  0  0  # atno 10167 bound_to 10162
  156.5278  130.4648  149.6563 H   0  0  0  0  0  0  0  0  0  0  0  0  # atno 10718 bound_to 10713
  152.9884  135.5586  154.5644 H   0  0  0  0  0  0  0  0  0  0  0  0  # atno 10763 bound_to 10752
  154.5057  135.2799  155.1386 H   0  0  0  0  0  0  0  0  0  0  0  0  # atno 10764 bound_to 10752
  154.2799  135.6347  153.5396 H   0  0  0  0  0  0  0  0  0  0  0  0  # atno 10765 bound_to 10752
  141.1432  133.6669  156.5872 H   0  0  0  0  0  0  0  0  0  0  0  0  # atno 11005 bound_to 11000
  146.2575  139.6335  142.9385 LP  0  0  0  0  0  0  0  0  0  0  0  0  # atno 17320 bound_to 7965
  145.4978  141.0438  143.2557 LP  0  0  0  0  0  0  0  0  0  0  0  0  # atno 17321 bound_to 7965
  139.7146  144.7614  151.1055 LP  0  0  0  0  0  0  0  0  0  0  0  0  # atno 17342 bound_to 10162
  140.7734  143.5286  150.9451 LP  0  0  0  0  0  0  0  0  0  0  0  0  # atno 17343 bound_to 10162
  156.3089  130.7218  151.2106 LP  0  0  0  0  0  0  0  0  0  0  0  0  # atno 17370 bound_to 10713
  157.7427  131.0486  150.5007 LP  0  0  0  0  0  0  0  0  0  0  0  0  # atno 17371 bound_to 10713
  140.3792  134.7538  157.4650 LP  0  0  0  0  0  0  0  0  0  0  0  0  # atno 17394 bound_to 11000
  140.0651  134.5941  155.8704 LP  0  0  0  0  0  0  0  0  0  0  0  0  # atno 17395 bound_to 11000

$$$$
