AV-unprocessed.smi:200|AV-procd|sdf|1576|dock10
  -GOLD-   2262019453D 1   1.00000     0.00000
 Structure written by MMmdl.
 56 59  0  0  0  0  0  0  0  0  1 V2000
  155.0675  136.8595  157.9074 C   0  0  0  0  0  0  0  0  0  0  0  0
  154.5463  138.1733  158.0054 O   0  0  0  0  0  0  0  0  0  0  0  0
  154.2653  138.5481  159.3431 C   0  0  0  0  0  0  0  0  0  0  0  0
  153.8582  140.0303  159.3604 C   0  0  0  0  0  0  0  0  0  0  0  0
  152.4533  140.2503  159.0029 N   0  0  0  0  0  0  0  0  0  0  0  0
  152.0161  139.6589  157.8661 C   0  0  0  0  0  0  0  0  0  0  0  0
  152.4964  140.1462  156.6949 N   0  0  0  0  0  0  0  0  0  0  0  0
  152.1156  139.6012  155.5362 C   0  0  0  0  0  0  0  0  0  0  0  0
  151.2874  138.5758  155.3286 N   0  0  0  0  0  0  0  0  0  0  0  0
  150.8130  138.0731  156.5042 C   0  0  0  0  0  0  0  0  0  0  0  0
  151.1188  138.5539  157.8092 C   0  0  0  0  0  0  0  0  0  0  0  0
  150.4517  137.7911  158.7603 N   0  0  0  0  0  0  0  0  0  0  0  0
  149.7853  136.9162  158.0590 C   0  0  0  0  0  0  0  0  0  0  0  0
  149.9569  137.0024  156.6957 N   0  0  0  0  0  0  0  0  0  0  0  0
  149.3482  136.1439  155.6909 C   0  0  0  0  0  0  0  0  0  0  0  0
  149.8058  134.6710  155.7559 C   0  0  0  0  0  0  0  0  0  0  0  0
  149.6967  133.9988  154.3756 C   0  0  0  0  0  0  0  0  0  0  0  0
  148.4089  134.1686  153.8182 O   0  0  0  0  0  0  0  0  0  0  0  0
  151.1289  134.4158  156.4908 C   0  0  0  0  0  0  0  0  0  0  0  0
  150.5387  133.3877  157.3138 O   0  0  0  0  0  0  0  0  0  0  0  0
  149.2287  133.8381  156.9100 C   0  0  0  0  0  0  0  0  0  0  0  0
  151.8464  141.5689  159.2109 C   0  0  2  0  0  0  0  0  0  0  0  0
  151.8817  142.4934  157.9874 C   0  0  0  0  0  0  0  0  0  0  0  0
  151.6674  143.8771  158.5936 C   0  0  0  0  0  0  0  0  0  0  0  0
  152.4825  143.8470  159.8932 C   0  0  1  0  0  0  0  0  0  0  0  0
  152.0018  144.8567  160.9441 C   0  0  0  0  0  0  0  0  0  0  0  0
  152.4482  142.3830  160.3715 C   0  0  0  0  0  0  0  0  0  0  0  0
  155.2613  136.6198  156.8620 H   0  0  0  0  0  0  0  0  0  0  0  0
  154.3617  136.1244  158.2961 H   0  0  0  0  0  0  0  0  0  0  0  0
  156.0070  136.7665  158.4536 H   0  0  0  0  0  0  0  0  0  0  0  0
  153.4671  137.9188  159.7392 H   0  0  0  0  0  0  0  0  0  0  0  0
  155.1482  138.3957  159.9658 H   0  0  0  0  0  0  0  0  0  0  0  0
  154.0423  140.4274  160.3573 H   0  0  0  0  0  0  0  0  0  0  0  0
  154.5089  140.5968  158.6957 H   0  0  0  0  0  0  0  0  0  0  0  0
  152.5379  140.0485  154.6484 H   0  0  0  0  0  0  0  0  0  0  0  0
  149.1570  136.1686  158.5208 H   0  0  0  0  0  0  0  0  0  0  0  0
  148.2649  136.2100  155.7994 H   0  0  0  0  0  0  0  0  0  0  0  0
  149.5674  136.5704  154.7112 H   0  0  0  0  0  0  0  0  0  0  0  0
  150.4184  134.4317  153.6817 H   0  0  0  0  0  0  0  0  0  0  0  0
  149.9305  132.9351  154.4242 H   0  0  0  0  0  0  0  0  0  0  0  0
  148.4578  134.8309  153.1456 H   0  0  0  0  0  0  0  0  0  0  0  0
  151.9281  134.0361  155.8530 H   0  0  0  0  0  0  0  0  0  0  0  0
  151.4754  135.2619  157.0866 H   0  0  0  0  0  0  0  0  0  0  0  0
  148.7528  134.4271  157.6949 H   0  0  0  0  0  0  0  0  0  0  0  0
  148.5809  133.0211  156.5901 H   0  0  0  0  0  0  0  0  0  0  0  0
  150.7931  141.4264  159.4612 H   0  0  0  0  0  0  0  0  0  0  0  0
  152.8548  142.4651  157.4966 H   0  0  0  0  0  0  0  0  0  0  0  0
  151.1250  142.2374  157.2453 H   0  0  0  0  0  0  0  0  0  0  0  0
  151.9777  144.6795  157.9236 H   0  0  0  0  0  0  0  0  0  0  0  0
  150.6082  144.0180  158.8135 H   0  0  0  0  0  0  0  0  0  0  0  0
  153.5162  144.0845  159.6369 H   0  0  0  0  0  0  0  0  0  0  0  0
  150.9666  144.6685  161.2303 H   0  0  0  0  0  0  0  0  0  0  0  0
  152.0625  145.8760  160.5622 H   0  0  0  0  0  0  0  0  0  0  0  0
  152.6120  144.8029  161.8461 H   0  0  0  0  0  0  0  0  0  0  0  0
  151.8292  142.2630  161.2616 H   0  0  0  0  0  0  0  0  0  0  0  0
  153.4512  142.0587  160.6467 H   0  0  0  0  0  0  0  0  0  0  0  0
  1  2  1  0  0  0  0
  1 28  1  0  0  0  0
  1 29  1  0  0  0  0
  1 30  1  0  0  0  0
  2  3  1  0  0  0  0
  3  4  1  0  0  0  0
  3 31  1  0  0  0  0
  3 32  1  0  0  0  0
  4  5  1  0  0  0  0
  4 33  1  0  0  0  0
  4 34  1  0  0  0  0
  5  6  1  0  0  0  0
  5 22  1  0  0  0  0
  6 11  1  0  0  0  0
  6  7  2  0  0  0  0
  7  8  1  0  0  0  0
  8  9  2  0  0  0  0
  8 35  1  0  0  0  0
  9 10  1  0  0  0  0
 10 14  1  0  0  0  0
 10 11  2  0  0  0  0
 11 12  1  0  0  0  0
 12 13  2  0  0  0  0
 13 14  1  0  0  0  0
 13 36  1  0  0  0  0
 14 15  1  0  0  0  0
 15 16  1  0  0  0  0
 15 37  1  0  0  0  0
 15 38  1  0  0  0  0
 16 21  1  0  0  0  0
 16 17  1  0  0  0  0
 16 19  1  0  0  0  0
 17 18  1  0  0  0  0
 17 39  1  0  0  0  0
 17 40  1  0  0  0  0
 18 41  1  0  0  0  0
 19 20  1  0  0  0  0
 19 42  1  0  0  0  0
 19 43  1  0  0  0  0
 20 21  1  0  0  0  0
 21 44  1  0  0  0  0
 21 45  1  0  0  0  0
 22 27  1  0  0  0  0
 22 23  1  0  0  0  0
 22 46  1  0  0  0  0
 23 24  1  0  0  0  0
 23 47  1  0  0  0  0
 23 48  1  0  0  0  0
 24 25  1  0  0  0  0
 24 49  1  0  0  0  0
 24 50  1  0  0  0  0
 25 26  1  0  0  0  0
 25 27  1  0  0  0  0
 25 51  1  0  0  0  0
 26 52  1  0  0  0  0
 26 53  1  0  0  0  0
 26 54  1  0  0  0  0
 27 55  1  0  0  0  0
 27 56  1  0  0  0  0
M  END
> <s_m_source_file>
AV-unprocessed.smi

> <i_m_source_file_index>
200

> <i_lp_mmshare_version>
43012

> <i_f3d_flags>
0

> <s_epik_input>
W0NIM11bQ0BASF0oW0NIMl0xKVtDSDJdW0NIMl1bQ0BIXTFOKFtDSDJdW0NIMl1PW0NIM10pYyhuW2NIXW4yKWMoYzIzKW5bY0hdbjNbQ0gyXUM0KFtDSDJdW09IXSlbQ0gyXU9bQ0gyXTQ=

> <s_epik_cmdline>
J2VwaWtfcHl0aG9uJywgJy1waCcsICc3LjAnLCAnLXRuJywgJzgnLCAnLW1hJywgJzIwMCcsICctbWV0YWxfYmluZGluZycsICctaW1hZScsICc8aW5maWxlLm1hZT4nLCAnLW9tYWUnLCAnPG91dGZpbGUubWFlPic=

> <r_lp_tautomer_probability>
1

> <r_epik_Ionization_Penalty>
0.00363087

> <r_epik_Ionization_Penalty_Charging>
0

> <r_epik_Ionization_Penalty_Neutral>
0.00363087

> <r_epik_State_Penalty>
0.0024341

> <r_epik_Charging_Adjusted_Penalty>
0.0024341

> <i_epik_Tot_Q>
0

> <i_epik_Tot_abs_Q>
0

> <r_epik_Metal_State_Penalty>
-0

> <b_epik_Metal_Only>
0

> <s_lp_Force_Field>
OPLS_2005

> <r_lp_Energy>
49.2687

> <b_lp_Chiralities_Consistent>
1

> <s_lp_Variant>
AV-unprocessed.smi:200-1

> <Gold.Version>
5.8.1

> <Gold.Id.Protein>
6NUR|6NUR_protein|mol2

> <Gold.PLP.Fitness>
45.6269

> <Gold.PLP.PLP>
-38.9489

> <Gold.PLP.part.hbond>
-4.0000

> <Gold.PLP.part.metal>
0.0000

> <Gold.PLP.part.buried>
-4.1174

> <Gold.PLP.part.nonpolar>
-30.0158

> <Gold.PLP.part.repulsive>
0.0368

> <Gold.PLP.ligand.clash>
0.0281

> <Gold.PLP.ligand.torsion>
1.5393

> <Gold.PLP.Chemscore.Hbond>
2.8240

> <Gold.PLP.Chemscore.CHOScore>
0.0000

> <Gold.PLP.Chemscore.Metal>
0.0000

> <Gold.Chemscore.Hbonds>
donor molecule, donor type, donor heavy atom, donor atom, acceptor molecule, acceptor atom, score
      L1  H    18    41       P1  7948  1.00
      P1  H  6896  6908       L1    20  0.94
      P1  H  7997  8009       L1     2  0.84

> <Gold.PLP.Chemscore.Internal.Correction>
1.3126

> <Gold.Rescore>
     Score         DG    S(hbond)    S(metal)    S(lipo)     H(rot)  DE(clash)    DE(int)     intcor
     12.19     -18.25       2.66        0.00     104.88       3.28       1.80       4.25       ----

> <Gold.Chemscore.Fitness>
12.1921

> <Gold.Chemscore.DG>
-18.2468

> <Gold.Chemscore.ZeroCoef>
-5.4800

> <Gold.Chemscore.Hbond>
2.6596

> <Gold.Chemscore.Metal>
0.0000

> <Gold.Chemscore.Lipo>
104.8767

> <Gold.Chemscore.Internal_Hbond>
0.0000

> <Gold.Chemscore.DEClash>
1.8047

> <Gold.Chemscore.DEInternal>
4.2501

> <Gold.Chemscore.Rot>
3.2761

> <Gold.Chemscore.Internal.Correction>
   9.000000E+99

> <Gold.Chemscore.Hbonds>
donor molecule, donor type, donor heavy atom, donor atom, acceptor molecule, acceptor atom, score
      L1  H    18    41       P1  7948  0.65
      P1  H  6896  6908       L1    20  0.68
      P1  H  7997  8009       L1     2  0.18

> <Gold.Chemscore.Hbond.Weighted>
-8.8831

> <Gold.Chemscore.Metal.Weighted>
-0.0000

> <Gold.Chemscore.Lipo.Weighted>
-12.2706

> <Gold.Chemscore.Internal_Hbond.Weighted>
0.0000

> <Gold.Chemscore.DEClash.Weighted>
1.8047

> <Gold.Chemscore.DEInternal.Weighted>
4.2501

> <Gold.Chemscore.Rot.Weighted>
8.3868

> <Gold.Chemscore.Internal.Correction.Weighted>
   9.000000E+99

> <Gold.Protein.RotatedTorsions>
[ 6907 6896 6895 6894 ] final  104.56 input  -60.11 | X-H torsion
[ 7974 7965 7964 7962 ] final  -34.71 input  175.53 | X-H torsion
[ 8008 7997 7996 7995 ] final  129.91 input   59.86 | X-H torsion
[ 10167 10162 10161 10158 ] final -118.41 input  -65.29 | X-H torsion
[ 10718 10713 10712 10709 ] final -129.05 input   66.30 | X-H torsion
[ 10763 10752 10751 10750 ] final   -0.02 input  -60.55 | X-H torsion
[ 11005 11000 10999 10996 ] final   -0.59 input  -57.11 | X-H torsion

> <Gold.Protein.ActiveResidues>
 VAL166  LYS551  ARG553  GLY616  TRP617  ASP618  TYR619  PRO620  LYS621  CYS622 
 ASP623  PHE694  ASN695  SER759  ASP760  ASP761  ALA762  ILE779  LEU786  VAL792 
 PHE793  MET794  SER795  GLU796  ALA797  LYS798  CYS799  TRP800  GLU811  SER814 

> <Gold.Protein.RotatedAtoms>
  152.5260  133.9659  159.7738 H   0  0  0  0  0  0  0  0  0  0  0  0  # atno 6907 bound_to 6896
  150.9940  133.6113  159.2711 H   0  0  0  0  0  0  0  0  0  0  0  0  # atno 6908 bound_to 6896
  151.3246  135.0833  159.9371 H   0  0  0  0  0  0  0  0  0  0  0  0  # atno 6909 bound_to 6896
  146.0807  140.6072  142.8910 H   0  0  0  0  0  0  0  0  0  0  0  0  # atno 7974 bound_to 7965
  156.2945  140.2609  156.2676 H   0  0  0  0  0  0  0  0  0  0  0  0  # atno 8008 bound_to 7997
  154.9726  140.0391  157.2260 H   0  0  0  0  0  0  0  0  0  0  0  0  # atno 8009 bound_to 7997
  154.7844  140.2801  155.6043 H   0  0  0  0  0  0  0  0  0  0  0  0  # atno 8010 bound_to 7997
  140.0577  143.4998  152.2048 H   0  0  0  0  0  0  0  0  0  0  0  0  # atno 10167 bound_to 10162
  156.2010  130.6857  151.0538 H   0  0  0  0  0  0  0  0  0  0  0  0  # atno 10718 bound_to 10713
  153.3265  135.6972  153.6984 H   0  0  0  0  0  0  0  0  0  0  0  0  # atno 10763 bound_to 10752
  153.5804  135.3499  155.2873 H   0  0  0  0  0  0  0  0  0  0  0  0  # atno 10764 bound_to 10752
  154.8609  135.4293  154.2443 H   0  0  0  0  0  0  0  0  0  0  0  0  # atno 10765 bound_to 10752
  140.6379  133.9516  155.8310 H   0  0  0  0  0  0  0  0  0  0  0  0  # atno 11005 bound_to 11000
  144.7291  140.4617  143.6951 LP  0  0  0  0  0  0  0  0  0  0  0  0  # atno 17320 bound_to 7965
  145.6223  139.1526  143.3015 LP  0  0  0  0  0  0  0  0  0  0  0  0  # atno 17321 bound_to 7965
  139.5913  144.7551  151.3394 LP  0  0  0  0  0  0  0  0  0  0  0  0  # atno 17342 bound_to 10162
  140.7186  143.7197  150.7705 LP  0  0  0  0  0  0  0  0  0  0  0  0  # atno 17343 bound_to 10162
  157.6985  131.0785  150.6894 LP  0  0  0  0  0  0  0  0  0  0  0  0  # atno 17370 bound_to 10713
  156.6951  130.4606  149.5588 LP  0  0  0  0  0  0  0  0  0  0  0  0  # atno 17371 bound_to 10713
  141.0628  134.0321  157.3635 LP  0  0  0  0  0  0  0  0  0  0  0  0  # atno 17394 bound_to 11000
  139.9091  135.0186  156.7615 LP  0  0  0  0  0  0  0  0  0  0  0  0  # atno 17395 bound_to 11000

$$$$
