AV-unprocessed.smi:44|AV-procd|sdf|406|dock2
  -GOLD-   2262016263D 1   1.00000     0.00000
 Structure written by MMmdl.
 28 30  0  0  0  0  0  0  0  0  2 V2000
  153.5087  136.7555  156.4320 O   0  0  0  0  0  0  0  0  0  0  0  0
  152.7196  137.5147  155.8731 C   0  0  0  0  0  0  0  0  0  0  0  0
  152.0873  137.2633  154.6827 N   0  5  0  0  0  0  0  0  0  0  0  0
  151.2105  138.2089  154.1546 C   0  0  0  0  0  0  0  0  0  0  0  0
  150.8929  139.3546  154.6545 N   0  0  0  0  0  0  0  0  0  0  0  0
  151.5183  139.6331  155.8522 C   0  0  0  0  0  0  0  0  0  0  0  0
  152.4019  138.8228  156.5124 C   0  0  0  0  0  0  0  0  0  0  0  0
  152.8379  139.4113  157.6931 N   0  0  0  0  0  0  0  0  0  0  0  0
  152.1822  140.5720  157.6851 C   0  0  0  0  0  0  0  0  0  0  0  0
  151.3820  140.7840  156.6182 N   0  0  0  0  0  0  0  0  0  0  0  0
  150.5217  141.9719  156.3130 C   0  0  2  0  0  0  0  0  0  0  0  0
  149.3432  142.0154  157.2865 C   0  0  0  0  0  0  0  0  0  0  0  0
  148.3333  141.1519  156.5651 C   0  0  0  0  0  0  0  0  0  0  0  0
  148.5710  141.5622  155.1119 C   0  0  2  0  0  0  0  0  0  0  0  0
  148.1402  140.4922  154.0975 C   0  0  0  0  0  0  0  0  0  0  0  0
  148.3007  140.9786  152.7826 O   0  0  0  0  0  0  0  0  0  0  0  0
  149.9781  141.8040  155.0343 O   0  0  0  0  0  0  0  0  0  0  0  0
  151.1959  142.8267  156.3745 H   0  0  0  0  0  0  0  0  0  0  0  0
  148.0471  142.5021  154.9283 H   0  0  0  0  0  0  0  0  0  0  0  0
  150.7781  137.8768  153.2073 H   0  0  0  0  0  0  0  0  0  0  0  0
  152.2917  141.2880  158.4850 H   0  0  0  0  0  0  0  0  0  0  0  0
  149.6099  141.6550  158.2808 H   0  0  0  0  0  0  0  0  0  0  0  0
  148.9888  143.0440  157.3644 H   0  0  0  0  0  0  0  0  0  0  0  0
  148.5642  140.0959  156.7147 H   0  0  0  0  0  0  0  0  0  0  0  0
  147.3090  141.3274  156.8944 H   0  0  0  0  0  0  0  0  0  0  0  0
  148.6964  139.5647  154.2299 H   0  0  0  0  0  0  0  0  0  0  0  0
  147.0841  140.2560  154.2306 H   0  0  0  0  0  0  0  0  0  0  0  0
  148.5853  140.2664  152.2307 H   0  0  0  0  0  0  0  0  0  0  0  0
  1  2  2  0  0  0  0
  2  7  1  0  0  0  0
  2  3  1  0  0  0  0
  3  4  1  0  0  0  0
  4  5  2  0  0  0  0
  4 20  1  0  0  0  0
  5  6  1  0  0  0  0
  6 10  1  0  0  0  0
  6  7  2  0  0  0  0
  7  8  1  0  0  0  0
  8  9  2  0  0  0  0
  9 10  1  0  0  0  0
  9 21  1  0  0  0  0
 10 11  1  0  0  0  0
 11 18  1  0  0  0  0
 11 17  1  0  0  0  0
 11 12  1  0  0  0  0
 12 13  1  0  0  0  0
 12 22  1  0  0  0  0
 12 23  1  0  0  0  0
 13 14  1  0  0  0  0
 13 24  1  0  0  0  0
 13 25  1  0  0  0  0
 14 19  1  0  0  0  0
 14 15  1  0  0  0  0
 14 17  1  0  0  0  0
 15 16  1  0  0  0  0
 15 26  1  0  0  0  0
 15 27  1  0  0  0  0
 16 28  1  0  0  0  0
M  CHG  1   3  -1
M  END
> <s_m_source_file>
AV-unprocessed.smi

> <i_m_source_file_index>
44

> <i_lp_mmshare_version>
43012

> <i_f3d_flags>
0

> <s_epik_input>
bjFbY0hdW25IXWMoPU8pYyhjMTIpbltjSF1uMltDQEhdM1tDSDJdW0NIMl1bQ0BIXShPMylbQ0gyXVtPSF0=

> <s_epik_cmdline>
J2VwaWtfcHl0aG9uJywgJy1waCcsICc3LjAnLCAnLXRuJywgJzgnLCAnLW1hJywgJzIwMCcsICctbWV0YWxfYmluZGluZycsICctaW1hZScsICc8aW5maWxlLm1hZT4nLCAnLW9tYWUnLCAnPG91dGZpbGUubWFlPic=

> <r_lp_tautomer_probability>
0.85571

> <r_epik_Ionization_Penalty>
2.55863

> <r_epik_Ionization_Penalty_Charging>
1.36424e-10

> <r_epik_Ionization_Penalty_Neutral>
2.55863

> <r_epik_State_Penalty>
2.63326

> <r_epik_Charging_Adjusted_Penalty>
2.63326

> <i_epik_Tot_Q>
-1

> <i_epik_Tot_abs_Q>
1

> <r_epik_Metal_State_Penalty>
0.475154

> <b_epik_Metal_Only>
1

> <s_epik_Chemistry_Notes>
This compound contains an acetal/aminal-like group ( X-CH(R)-Y where X, Y are N, S, or O) that may be acid/base labile, releasing an aldehyde.

> <s_lp_Force_Field>
OPLS_2005

> <r_lp_Energy>
44.8592

> <b_lp_Chiralities_Consistent>
1

> <s_lp_Variant>
AV-unprocessed.smi:44-12

> <Gold.Version>
5.8.1

> <Gold.Id.Protein>
6NUR|6NUR_protein|mol2

> <Gold.PLP.Fitness>
41.8485

> <Gold.PLP.PLP>
-22.8304

> <Gold.PLP.part.hbond>
-6.1878

> <Gold.PLP.part.metal>
0.0000

> <Gold.PLP.part.buried>
2.9138

> <Gold.PLP.part.nonpolar>
-19.0300

> <Gold.PLP.part.repulsive>
0.3731

> <Gold.PLP.ligand.clash>
0.0000

> <Gold.PLP.ligand.torsion>
0.1547

> <Gold.PLP.Chemscore.Hbond>
5.4652

> <Gold.PLP.Chemscore.CHOScore>
0.9708

> <Gold.PLP.Chemscore.Metal>
0.0000

> <Gold.Chemscore.Hbonds>
donor molecule, donor type, donor heavy atom, donor atom, acceptor molecule, acceptor atom, score
      L1  H    16    28       P1  7957  0.67
      P1  H  7989  7998       L1     5  0.98
      P1  H  7997  8009       L1     8  0.95
      P1  H  8011  8017       L1    16  0.78
      P1  H 10752 10764       L1     3  1.57
      P1  H 10752 10765       L1     1  0.48
      L1  C     4    20       P1  7948  0.21
      L1  C     4    20       P1  7949  0.73

> <Gold.PLP.Chemscore.Internal.Correction>
0.0195

> <Gold.Rescore>
     Score         DG    S(hbond)    S(metal)    S(lipo)     H(rot)  DE(clash)    DE(int)     intcor
      6.39     -10.75       2.39        0.00      26.10       2.26       1.84       2.51       ----

> <Gold.Chemscore.Fitness>
6.3933

> <Gold.Chemscore.DG>
-10.7479

> <Gold.Chemscore.ZeroCoef>
-5.4800

> <Gold.Chemscore.Hbond>
2.3944

> <Gold.Chemscore.Metal>
0.0000

> <Gold.Chemscore.Lipo>
26.0962

> <Gold.Chemscore.Internal_Hbond>
0.0000

> <Gold.Chemscore.DEClash>
1.8418

> <Gold.Chemscore.DEInternal>
2.5128

> <Gold.Chemscore.Rot>
2.2588

> <Gold.Chemscore.Internal.Correction>
   9.000000E+99

> <Gold.Chemscore.Hbonds>
donor molecule, donor type, donor heavy atom, donor atom, acceptor molecule, acceptor atom, score
      L1  H    16    28       P1  7957  0.64
      P1  H  7989  7998       L1     5  0.20
      P1  H  7997  8009       L1     8  0.05
      P1  H  8011  8017       L1    16  0.18
      P1  H 10752 10764       L1     3  0.20
      P1  H 10752 10765       L1     1  0.42

> <Gold.Chemscore.Hbond.Weighted>
-7.9972

> <Gold.Chemscore.Metal.Weighted>
-0.0000

> <Gold.Chemscore.Lipo.Weighted>
-3.0533

> <Gold.Chemscore.Internal_Hbond.Weighted>
0.0000

> <Gold.Chemscore.DEClash.Weighted>
1.8418

> <Gold.Chemscore.DEInternal.Weighted>
2.5128

> <Gold.Chemscore.Rot.Weighted>
5.7825

> <Gold.Chemscore.Internal.Correction.Weighted>
   9.000000E+99

> <Gold.Protein.RotatedTorsions>
[ 6907 6896 6895 6894 ] final   83.03 input  -60.11 | X-H torsion
[ 7974 7965 7964 7962 ] final  137.29 input  175.53 | X-H torsion
[ 8008 7997 7996 7995 ] final  148.76 input   59.86 | X-H torsion
[ 10167 10162 10161 10158 ] final  -74.33 input  -65.29 | X-H torsion
[ 10718 10713 10712 10709 ] final   61.35 input   66.30 | X-H torsion
[ 10763 10752 10751 10750 ] final  -85.55 input  -60.55 | X-H torsion
[ 11005 11000 10999 10996 ] final -137.87 input  -57.11 | X-H torsion

> <Gold.Protein.ActiveResidues>
 VAL166  LYS551  ARG553  GLY616  TRP617  ASP618  TYR619  PRO620  LYS621  CYS622 
 ASP623  PHE694  ASN695  SER759  ASP760  ASP761  ALA762  ILE779  LEU786  VAL792 
 PHE793  MET794  SER795  GLU796  ALA797  LYS798  CYS799  TRP800  GLU811  SER814 

> <Gold.Protein.RotatedAtoms>
  152.5316  134.2958  159.9059 H   0  0  0  0  0  0  0  0  0  0  0  0  # atno 6907 bound_to 6896
  151.2909  133.4159  159.2640 H   0  0  0  0  0  0  0  0  0  0  0  0  # atno 6908 bound_to 6896
  151.0202  134.9479  159.8112 H   0  0  0  0  0  0  0  0  0  0  0  0  # atno 6909 bound_to 6896
  144.9482  139.4849  143.5538 H   0  0  0  0  0  0  0  0  0  0  0  0  # atno 7974 bound_to 7965
  156.2779  140.2120  156.5750 H   0  0  0  0  0  0  0  0  0  0  0  0  # atno 8008 bound_to 7997
  154.7104  140.0512  157.0568 H   0  0  0  0  0  0  0  0  0  0  0  0  # atno 8009 bound_to 7997
  155.0613  140.3167  155.4663 H   0  0  0  0  0  0  0  0  0  0  0  0  # atno 8010 bound_to 7997
  140.5035  143.2357  151.7712 H   0  0  0  0  0  0  0  0  0  0  0  0  # atno 10167 bound_to 10162
  157.5821  130.8990  149.9450 H   0  0  0  0  0  0  0  0  0  0  0  0  # atno 10718 bound_to 10713
  154.6124  135.5481  153.7487 H   0  0  0  0  0  0  0  0  0  0  0  0  # atno 10763 bound_to 10752
  153.0201  135.6393  154.1559 H   0  0  0  0  0  0  0  0  0  0  0  0  # atno 10764 bound_to 10752
  154.1496  135.2903  155.3119 H   0  0  0  0  0  0  0  0  0  0  0  0  # atno 10765 bound_to 10752
  140.8670  134.2098  157.4674 H   0  0  0  0  0  0  0  0  0  0  0  0  # atno 11005 bound_to 11000
  146.3311  139.8550  142.8866 LP  0  0  0  0  0  0  0  0  0  0  0  0  # atno 17320 bound_to 7965
  145.2884  141.0160  143.3677 LP  0  0  0  0  0  0  0  0  0  0  0  0  # atno 17321 bound_to 7965
  139.4878  144.4489  151.9678 LP  0  0  0  0  0  0  0  0  0  0  0  0  # atno 17342 bound_to 10162
  140.3578  144.3010  150.5938 LP  0  0  0  0  0  0  0  0  0  0  0  0  # atno 17343 bound_to 10162
  156.0868  130.3667  150.0472 LP  0  0  0  0  0  0  0  0  0  0  0  0  # atno 17370 bound_to 10713
  156.8610  130.9491  151.3618 LP  0  0  0  0  0  0  0  0  0  0  0  0  # atno 17371 bound_to 10713
  139.8710  134.9756  156.4891 LP  0  0  0  0  0  0  0  0  0  0  0  0  # atno 17394 bound_to 11000
  140.8617  133.8054  155.9272 LP  0  0  0  0  0  0  0  0  0  0  0  0  # atno 17395 bound_to 11000

$$$$
