AV-unprocessed.smi:2510|AV-procd|sdf|9871|dock7
  -GOLD-   2272013503D 1   1.00000     0.00000
 Structure written by MMmdl.
 48 49  0  0  0  0  0  0  0  0  1 V2000
  150.1953  137.6408  157.3520 C   0  0  0  0  0  0  0  0  0  0  0  0
  149.8294  138.9427  156.6253 C   0  0  0  0  0  0  0  0  0  0  0  0
  149.5902  138.8160  155.1044 C   0  0  0  0  0  0  0  0  0  0  0  0
  150.8889  138.2404  154.4588 C   0  0  0  0  0  0  0  0  0  0  0  0
  152.1960  138.9898  154.7713 C   0  0  0  0  0  0  0  0  0  0  0  0
  148.2587  138.0967  154.7405 C   0  0  2  0  0  0  0  0  0  0  0  0
  148.3923  136.6964  154.3539 N   0  0  0  0  0  0  0  0  0  0  0  0
  147.9237  135.6650  155.0717 C   0  0  0  0  0  0  0  0  0  0  0  0
  147.2667  135.8002  156.1037 O   0  0  0  0  0  0  0  0  0  0  0  0
  148.2685  134.2665  154.5600 C   0  0  0  0  0  0  0  0  0  0  0  0
  147.0630  133.6585  153.8937 C   0  0  0  0  0  0  0  0  0  0  0  0
  146.9198  133.2564  152.5319 C   0  0  0  0  0  0  0  0  0  0  0  0
  145.6502  132.7572  152.4574 C   0  0  0  0  0  0  0  0  0  0  0  0
  144.8873  132.1664  151.3211 C   0  0  0  0  0  0  0  0  0  0  0  0
  145.1111  132.8901  153.7161 N   0  0  0  0  0  0  0  0  0  0  0  0
  145.9627  133.4405  154.6008 N   0  0  0  0  0  0  0  0  0  0  0  0
  148.1138  139.0438  153.5447 C   0  0  1  0  0  0  0  0  0  0  0  0
  146.7258  139.4068  153.0324 C   0  0  0  0  0  0  0  0  0  0  0  0
  148.9351  140.0372  154.3911 C   0  0  1  0  0  0  0  0  0  0  0  0
  148.1253  140.7994  155.2822 O   0  0  0  0  0  0  0  0  0  0  0  0
  147.4614  141.8807  154.6500 C   0  0  0  0  0  0  0  0  0  0  0  0
  144.1768  132.6127  153.9824 H   0  0  0  0  0  0  0  0  0  0  0  0
  150.5184  137.8521  158.3713 H   0  0  0  0  0  0  0  0  0  0  0  0
  151.0088  137.1155  156.8513 H   0  0  0  0  0  0  0  0  0  0  0  0
  149.3418  136.9683  157.4248 H   0  0  0  0  0  0  0  0  0  0  0  0
  148.9602  139.3880  157.1105 H   0  0  0  0  0  0  0  0  0  0  0  0
  150.6354  139.6541  156.8082 H   0  0  0  0  0  0  0  0  0  0  0  0
  151.0167  137.1929  154.7344 H   0  0  0  0  0  0  0  0  0  0  0  0
  150.8130  138.2242  153.3726 H   0  0  0  0  0  0  0  0  0  0  0  0
  153.0534  138.4190  154.4145 H   0  0  0  0  0  0  0  0  0  0  0  0
  152.3399  139.1648  155.8353 H   0  0  0  0  0  0  0  0  0  0  0  0
  152.2296  139.9559  154.2681 H   0  0  0  0  0  0  0  0  0  0  0  0
  147.4690  138.2670  155.4769 H   0  0  0  0  0  0  0  0  0  0  0  0
  148.9184  136.4978  153.5154 H   0  0  0  0  0  0  0  0  0  0  0  0
  149.1082  134.3353  153.8668 H   0  0  0  0  0  0  0  0  0  0  0  0
  148.6013  133.6401  155.3885 H   0  0  0  0  0  0  0  0  0  0  0  0
  147.6452  133.3171  151.7344 H   0  0  0  0  0  0  0  0  0  0  0  0
  145.5534  131.9091  150.4972 H   0  0  0  0  0  0  0  0  0  0  0  0
  144.1437  132.8704  150.9472 H   0  0  0  0  0  0  0  0  0  0  0  0
  144.3694  131.2580  151.6300 H   0  0  0  0  0  0  0  0  0  0  0  0
  148.7345  138.6966  152.7160 H   0  0  0  0  0  0  0  0  0  0  0  0
  146.0743  139.7417  153.8399 H   0  0  0  0  0  0  0  0  0  0  0  0
  146.2462  138.5488  152.5614 H   0  0  0  0  0  0  0  0  0  0  0  0
  146.7741  140.2043  152.2912 H   0  0  0  0  0  0  0  0  0  0  0  0
  149.6253  140.6552  153.8177 H   0  0  0  0  0  0  0  0  0  0  0  0
  146.8296  142.3951  155.3739 H   0  0  0  0  0  0  0  0  0  0  0  0
  146.8272  141.5415  153.8311 H   0  0  0  0  0  0  0  0  0  0  0  0
  148.1790  142.6026  154.2586 H   0  0  0  0  0  0  0  0  0  0  0  0
  1  2  1  0  0  0  0
  1 23  1  0  0  0  0
  1 24  1  0  0  0  0
  1 25  1  0  0  0  0
  2  3  1  0  0  0  0
  2 26  1  0  0  0  0
  2 27  1  0  0  0  0
  3 19  1  0  0  0  0
  3  4  1  0  0  0  0
  3  6  1  0  0  0  0
  4  5  1  0  0  0  0
  4 28  1  0  0  0  0
  4 29  1  0  0  0  0
  5 30  1  0  0  0  0
  5 31  1  0  0  0  0
  5 32  1  0  0  0  0
  6  7  1  0  0  0  0
  6 17  1  0  0  0  0
  6 33  1  0  0  0  0
  7  8  1  0  0  0  0
  7 34  1  0  0  0  0
  8  9  2  0  0  0  0
  8 10  1  0  0  0  0
 10 11  1  0  0  0  0
 10 35  1  0  0  0  0
 10 36  1  0  0  0  0
 11 16  2  0  0  0  0
 11 12  1  0  0  0  0
 12 13  2  0  0  0  0
 12 37  1  0  0  0  0
 13 14  1  0  0  0  0
 13 15  1  0  0  0  0
 14 38  1  0  0  0  0
 14 39  1  0  0  0  0
 14 40  1  0  0  0  0
 15 22  1  0  0  0  0
 15 16  1  0  0  0  0
 17 18  1  0  0  0  0
 17 19  1  0  0  0  0
 17 41  1  0  0  0  0
 18 42  1  0  0  0  0
 18 43  1  0  0  0  0
 18 44  1  0  0  0  0
 19 20  1  0  0  0  0
 19 45  1  0  0  0  0
 20 21  1  0  0  0  0
 21 46  1  0  0  0  0
 21 47  1  0  0  0  0
 21 48  1  0  0  0  0
M  END
> <s_m_source_file>
AV-unprocessed.smi

> <i_m_source_file_index>
2510

> <i_lp_mmshare_version>
43012

> <i_f3d_flags>
0

> <s_epik_input>
W0NIM11PW0NAQEhdMVtDQEhdKFtDSDNdKVtDQEBIXShDMShbQ0gyXVtDSDNdKVtDSDJdW0NIM10pW05IXUMoPU8pW0NIMl1jMltjSF1jKFtDSDNdKVtuSF1uMg==

> <s_epik_cmdline>
J2VwaWtfcHl0aG9uJywgJy1waCcsICc3LjAnLCAnLXRuJywgJzgnLCAnLW1hJywgJzIwMCcsICctbWV0YWxfYmluZGluZycsICctaW1hZScsICc8aW5maWxlLm1hZT4nLCAnLW9tYWUnLCAnPG91dGZpbGUubWFlPic=

> <r_lp_tautomer_probability>
0.5

> <r_epik_Ionization_Penalty>
9.73156e-05

> <r_epik_Ionization_Penalty_Charging>
0

> <r_epik_Ionization_Penalty_Neutral>
9.73156e-05

> <r_epik_State_Penalty>
0.41068

> <r_epik_Charging_Adjusted_Penalty>
0.41068

> <i_epik_Tot_Q>
0

> <i_epik_Tot_abs_Q>
0

> <r_epik_Metal_State_Penalty>
0.410699

> <b_epik_Metal_Only>
0

> <s_lp_Force_Field>
OPLS_2005

> <r_lp_Energy>
28.8176

> <b_lp_Chiralities_Consistent>
1

> <s_lp_Variant>
AV-unprocessed.smi:2510-2

> <Gold.Version>
5.8.1

> <Gold.Id.Protein>
6NUR|6NUR_protein|mol2

> <Gold.PLP.Fitness>
32.3772

> <Gold.PLP.PLP>
-27.2453

> <Gold.PLP.part.hbond>
-2.0000

> <Gold.PLP.part.metal>
0.0000

> <Gold.PLP.part.buried>
-2.4635

> <Gold.PLP.part.nonpolar>
-24.7053

> <Gold.PLP.part.repulsive>
0.1922

> <Gold.PLP.ligand.clash>
0.0000

> <Gold.PLP.ligand.torsion>
0.7119

> <Gold.PLP.Chemscore.Hbond>
1.9600

> <Gold.PLP.Chemscore.CHOScore>
0.0000

> <Gold.PLP.Chemscore.Metal>
0.0000

> <Gold.Chemscore.Hbonds>
donor molecule, donor type, donor heavy atom, donor atom, acceptor molecule, acceptor atom, score
      L1  H     7    34       P1  7948  1.00
      L1  H    15    22       P1 10957  1.00

> <Gold.PLP.Chemscore.Internal.Correction>
0.6757

> <Gold.Rescore>
     Score         DG    S(hbond)    S(metal)    S(lipo)     H(rot)  DE(clash)    DE(int)     intcor
     15.29     -16.36       1.89        0.00      78.54       1.81       0.21       0.86       ----

> <Gold.Chemscore.Fitness>
15.2863

> <Gold.Chemscore.DG>
-16.3574

> <Gold.Chemscore.ZeroCoef>
-5.4800

> <Gold.Chemscore.Hbond>
1.8928

> <Gold.Chemscore.Metal>
0.0000

> <Gold.Chemscore.Lipo>
78.5421

> <Gold.Chemscore.Internal_Hbond>
0.0000

> <Gold.Chemscore.DEClash>
0.2135

> <Gold.Chemscore.DEInternal>
0.8575

> <Gold.Chemscore.Rot>
1.8102

> <Gold.Chemscore.Internal.Correction>
   9.000000E+99

> <Gold.Chemscore.Hbonds>
donor molecule, donor type, donor heavy atom, donor atom, acceptor molecule, acceptor atom, score
      L1  H     7    34       P1  7948  0.95
      L1  H    15    22       P1 10957  0.74

> <Gold.Chemscore.Hbond.Weighted>
-6.3220

> <Gold.Chemscore.Metal.Weighted>
-0.0000

> <Gold.Chemscore.Lipo.Weighted>
-9.1894

> <Gold.Chemscore.Internal_Hbond.Weighted>
0.0000

> <Gold.Chemscore.DEClash.Weighted>
0.2135

> <Gold.Chemscore.DEInternal.Weighted>
0.8575

> <Gold.Chemscore.Rot.Weighted>
4.6341

> <Gold.Chemscore.Internal.Correction.Weighted>
   9.000000E+99

> <Gold.Protein.RotatedTorsions>
[ 6907 6896 6895 6894 ] final   -0.63 input  -60.11 | X-H torsion
[ 7974 7965 7964 7962 ] final    9.71 input  175.53 | X-H torsion
[ 8008 7997 7996 7995 ] final   92.94 input   59.86 | X-H torsion
[ 10167 10162 10161 10158 ] final -105.70 input  -65.29 | X-H torsion
[ 10718 10713 10712 10709 ] final  -34.28 input   66.30 | X-H torsion
[ 10763 10752 10751 10750 ] final -106.06 input  -60.55 | X-H torsion
[ 11005 11000 10999 10996 ] final  115.91 input  -57.11 | X-H torsion

> <Gold.Protein.ActiveResidues>
 VAL166  LYS551  ARG553  GLY616  TRP617  ASP618  TYR619  PRO620  LYS621  CYS622 
 ASP623  PHE694  ASN695  SER759  ASP760  ASP761  ALA762  ILE779  LEU786  VAL792 
 PHE793  MET794  SER795  GLU796  ALA797  LYS798  CYS799  TRP800  GLU811  SER814 

> <Gold.Protein.RotatedAtoms>
  151.5591  135.1066  159.9968 H   0  0  0  0  0  0  0  0  0  0  0  0  # atno 6907 bound_to 6896
  152.4455  133.7524  159.6712 H   0  0  0  0  0  0  0  0  0  0  0  0  # atno 6908 bound_to 6896
  150.8370  133.7930  159.3100 H   0  0  0  0  0  0  0  0  0  0  0  0  # atno 6909 bound_to 6896
  146.2399  139.9743  142.8443 H   0  0  0  0  0  0  0  0  0  0  0  0  # atno 7974 bound_to 7965
  156.0411  140.3319  155.7245 H   0  0  0  0  0  0  0  0  0  0  0  0  # atno 8008 bound_to 7997
  155.5743  140.0631  157.2816 H   0  0  0  0  0  0  0  0  0  0  0  0  # atno 8009 bound_to 7997
  154.4393  140.1855  156.0899 H   0  0  0  0  0  0  0  0  0  0  0  0  # atno 8010 bound_to 7997
  140.1957  143.3857  152.1170 H   0  0  0  0  0  0  0  0  0  0  0  0  # atno 10167 bound_to 10162
  156.3525  130.4310  149.7692 H   0  0  0  0  0  0  0  0  0  0  0  0  # atno 10718 bound_to 10713
  154.7987  135.4726  154.0224 H   0  0  0  0  0  0  0  0  0  0  0  0  # atno 10763 bound_to 10752
  153.1746  135.6830  153.8568 H   0  0  0  0  0  0  0  0  0  0  0  0  # atno 10764 bound_to 10752
  153.8139  135.3213  155.3381 H   0  0  0  0  0  0  0  0  0  0  0  0  # atno 10765 bound_to 10752
  139.9025  134.9591  156.7118 H   0  0  0  0  0  0  0  0  0  0  0  0  # atno 11005 bound_to 11000
  145.1651  140.9693  143.4354 LP  0  0  0  0  0  0  0  0  0  0  0  0  # atno 17320 bound_to 7965
  145.0080  139.3536  143.6134 LP  0  0  0  0  0  0  0  0  0  0  0  0  # atno 17321 bound_to 7965
  139.5237  144.7075  151.5308 LP  0  0  0  0  0  0  0  0  0  0  0  0  # atno 17342 bound_to 10162
  140.6425  143.8860  150.6705 LP  0  0  0  0  0  0  0  0  0  0  0  0  # atno 17343 bound_to 10162
  156.4887  130.8075  151.3085 LP  0  0  0  0  0  0  0  0  0  0  0  0  # atno 17370 bound_to 10713
  157.7463  130.9982  150.2845 LP  0  0  0  0  0  0  0  0  0  0  0  0  # atno 17371 bound_to 10713
  140.7070  133.9257  155.8060 LP  0  0  0  0  0  0  0  0  0  0  0  0  # atno 17394 bound_to 11000
  141.0329  134.0730  157.3993 LP  0  0  0  0  0  0  0  0  0  0  0  0  # atno 17395 bound_to 11000

$$$$
