AV-unprocessed.smi:2432|AV-procd|sdf|9588|dock10
  -GOLD-   2272013223D 1   1.00000     0.00000
 Structure written by MMmdl.
 33 34  0  0  0  0  0  0  0  0  1 V2000
  146.1829  142.7050  154.6904 C   0  0  0  0  0  0  0  0  0  0  0  0
  147.5843  142.4077  154.9426 N   0  0  0  0  0  0  0  0  0  0  0  0
  148.1279  141.1848  154.8505 C   0  0  0  0  0  0  0  0  0  0  0  0
  147.4766  140.1861  154.5412 O   0  0  0  0  0  0  0  0  0  0  0  0
  149.6236  141.0759  155.1792 C   0  0  1  0  0  0  0  0  0  0  0  0
  149.9478  141.4968  156.6306 C   0  0  0  0  0  0  0  0  0  0  0  0
  151.3617  141.2908  156.9177 N   0  0  0  0  0  0  0  0  0  0  0  0
  151.8544  141.8716  158.0710 C   0  0  0  0  0  0  0  0  0  0  0  0
  152.5098  141.0821  158.9304 N   0  0  0  0  0  0  0  0  0  0  0  0
  152.9849  141.6632  160.0534 C   0  0  0  0  0  0  0  0  0  0  0  0
  152.8021  143.0364  160.3136 C   0  0  0  0  0  0  0  0  0  0  0  0
  152.0958  143.7663  159.3345 C   0  0  0  0  0  0  0  0  0  0  0  0
  151.8284  145.2483  159.4899 C   0  0  0  0  0  0  0  0  0  0  0  0
  151.6242  143.1798  158.2123 N   0  0  0  0  0  0  0  0  0  0  0  0
  151.7960  139.9301  156.6340 C   0  0  0  0  0  0  0  0  0  0  0  0
  151.4367  139.5493  155.1890 C   0  0  0  0  0  0  0  0  0  0  0  0
  150.0382  139.7230  154.9846 O   0  0  0  0  0  0  0  0  0  0  0  0
  145.9785  143.7515  154.9159 H   0  0  0  0  0  0  0  0  0  0  0  0
  145.5350  142.0892  155.3156 H   0  0  0  0  0  0  0  0  0  0  0  0
  145.9317  142.5249  153.6445 H   0  0  0  0  0  0  0  0  0  0  0  0
  148.1839  143.1782  155.2004 H   0  0  0  0  0  0  0  0  0  0  0  0
  150.1609  141.7198  154.4803 H   0  0  0  0  0  0  0  0  0  0  0  0
  149.7006  142.5486  156.7822 H   0  0  0  0  0  0  0  0  0  0  0  0
  149.3494  140.9201  157.3378 H   0  0  0  0  0  0  0  0  0  0  0  0
  153.5144  141.0289  160.7489 H   0  0  0  0  0  0  0  0  0  0  0  0
  153.1824  143.4978  161.2130 H   0  0  0  0  0  0  0  0  0  0  0  0
  152.2124  145.6204  160.4401 H   0  0  0  0  0  0  0  0  0  0  0  0
  150.7567  145.4463  159.4551 H   0  0  0  0  0  0  0  0  0  0  0  0
  152.3084  145.8066  158.6858 H   0  0  0  0  0  0  0  0  0  0  0  0
  152.8725  139.8466  156.7873 H   0  0  0  0  0  0  0  0  0  0  0  0
  151.3163  139.2441  157.3334 H   0  0  0  0  0  0  0  0  0  0  0  0
  151.9977  140.1548  154.4751 H   0  0  0  0  0  0  0  0  0  0  0  0
  151.6968  138.5081  154.9985 H   0  0  0  0  0  0  0  0  0  0  0  0
  1  2  1  0  0  0  0
  1 18  1  0  0  0  0
  1 19  1  0  0  0  0
  1 20  1  0  0  0  0
  2  3  1  0  0  0  0
  2 21  1  0  0  0  0
  3  4  2  0  0  0  0
  3  5  1  0  0  0  0
  5 17  1  0  0  0  0
  5  6  1  0  0  0  0
  5 22  1  0  0  0  0
  6  7  1  0  0  0  0
  6 23  1  0  0  0  0
  6 24  1  0  0  0  0
  7  8  1  0  0  0  0
  7 15  1  0  0  0  0
  8 14  1  0  0  0  0
  8  9  2  0  0  0  0
  9 10  1  0  0  0  0
 10 11  2  0  0  0  0
 10 25  1  0  0  0  0
 11 12  1  0  0  0  0
 11 26  1  0  0  0  0
 12 13  1  0  0  0  0
 12 14  2  0  0  0  0
 13 27  1  0  0  0  0
 13 28  1  0  0  0  0
 13 29  1  0  0  0  0
 15 16  1  0  0  0  0
 15 30  1  0  0  0  0
 15 31  1  0  0  0  0
 16 17  1  0  0  0  0
 16 32  1  0  0  0  0
 16 33  1  0  0  0  0
M  END
> <s_m_source_file>
AV-unprocessed.smi

> <i_m_source_file_index>
2432

> <i_lp_mmshare_version>
43012

> <i_f3d_flags>
0

> <s_epik_input>
W0NIM11bTkhdQyg9TylbQ0BASF0xW0NIMl1OKFtDSDJdW0NIMl1PMSljMm5bY0hdW2NIXWMobjIpW0NIM10=

> <s_epik_cmdline>
J2VwaWtfcHl0aG9uJywgJy1waCcsICc3LjAnLCAnLXRuJywgJzgnLCAnLW1hJywgJzIwMCcsICctbWV0YWxfYmluZGluZycsICctaW1hZScsICc8aW5maWxlLm1hZT4nLCAnLW9tYWUnLCAnPG91dGZpbGUubWFlPic=

> <r_lp_tautomer_probability>
1

> <r_epik_Ionization_Penalty>
3.16085e-05

> <r_epik_Ionization_Penalty_Charging>
0

> <r_epik_Ionization_Penalty_Neutral>
3.16085e-05

> <r_epik_State_Penalty>
-0

> <r_epik_Charging_Adjusted_Penalty>
0

> <i_epik_Tot_Q>
0

> <i_epik_Tot_abs_Q>
0

> <r_epik_Metal_State_Penalty>
-0

> <b_epik_Metal_Only>
0

> <s_lp_Force_Field>
OPLS_2005

> <r_lp_Energy>
12.5177

> <b_lp_Chiralities_Consistent>
1

> <s_lp_Variant>
AV-unprocessed.smi:2432-2

> <Gold.Version>
5.8.1

> <Gold.Id.Protein>
6NUR|6NUR_protein|mol2

> <Gold.PLP.Fitness>
40.5430

> <Gold.PLP.PLP>
-37.5693

> <Gold.PLP.part.hbond>
-1.0657

> <Gold.PLP.part.metal>
0.0000

> <Gold.PLP.part.buried>
-4.1287

> <Gold.PLP.part.nonpolar>
-32.3941

> <Gold.PLP.part.repulsive>
0.4835

> <Gold.PLP.ligand.clash>
0.0000

> <Gold.PLP.ligand.torsion>
0.1566

> <Gold.PLP.Chemscore.Hbond>
1.0000

> <Gold.PLP.Chemscore.CHOScore>
0.0000

> <Gold.PLP.Chemscore.Metal>
0.0000

> <Gold.Chemscore.Hbonds>
donor molecule, donor type, donor heavy atom, donor atom, acceptor molecule, acceptor atom, score
      L1  H     2    21       P1  8028  1.00

> <Gold.PLP.Chemscore.Internal.Correction>
0.2870

> <Gold.Rescore>
     Score         DG    S(hbond)    S(metal)    S(lipo)     H(rot)  DE(clash)    DE(int)     intcor
     14.80     -14.95       0.98        0.00      81.52       1.31       0.01       0.14       ----

> <Gold.Chemscore.Fitness>
14.8012

> <Gold.Chemscore.DG>
-14.9525

> <Gold.Chemscore.ZeroCoef>
-5.4800

> <Gold.Chemscore.Hbond>
0.9836

> <Gold.Chemscore.Metal>
0.0000

> <Gold.Chemscore.Lipo>
81.5223

> <Gold.Chemscore.Internal_Hbond>
0.0000

> <Gold.Chemscore.DEClash>
0.0073

> <Gold.Chemscore.DEInternal>
0.1439

> <Gold.Chemscore.Rot>
1.3089

> <Gold.Chemscore.Internal.Correction>
   9.000000E+99

> <Gold.Chemscore.Hbonds>
donor molecule, donor type, donor heavy atom, donor atom, acceptor molecule, acceptor atom, score
      L1  H     2    21       P1  8028  0.94

> <Gold.Chemscore.Hbond.Weighted>
-3.2852

> <Gold.Chemscore.Metal.Weighted>
-0.0000

> <Gold.Chemscore.Lipo.Weighted>
-9.5381

> <Gold.Chemscore.Internal_Hbond.Weighted>
0.0000

> <Gold.Chemscore.DEClash.Weighted>
0.0073

> <Gold.Chemscore.DEInternal.Weighted>
0.1439

> <Gold.Chemscore.Rot.Weighted>
3.3509

> <Gold.Chemscore.Internal.Correction.Weighted>
   9.000000E+99

> <Gold.Protein.RotatedTorsions>
[ 6907 6896 6895 6894 ] final  -11.56 input  -60.11 | X-H torsion
[ 7974 7965 7964 7962 ] final   40.57 input  175.53 | X-H torsion
[ 8008 7997 7996 7995 ] final   63.68 input   59.86 | X-H torsion
[ 10167 10162 10161 10158 ] final -127.18 input  -65.29 | X-H torsion
[ 10718 10713 10712 10709 ] final    6.66 input   66.30 | X-H torsion
[ 10763 10752 10751 10750 ] final  158.73 input  -60.55 | X-H torsion
[ 11005 11000 10999 10996 ] final -137.52 input  -57.11 | X-H torsion

> <Gold.Protein.ActiveResidues>
 VAL166  LYS551  ARG553  GLY616  TRP617  ASP618  TYR619  PRO620  LYS621  CYS622 
 ASP623  PHE694  ASN695  SER759  ASP760  ASP761  ALA762  ILE779  LEU786  VAL792 
 PHE793  MET794  SER795  GLU796  ALA797  LYS798  CYS799  TRP800  GLU811  SER814 

> <Gold.Protein.RotatedAtoms>
  151.3843  135.0945  159.9505 H   0  0  0  0  0  0  0  0  0  0  0  0  # atno 6907 bound_to 6896
  152.5099  133.9041  159.7466 H   0  0  0  0  0  0  0  0  0  0  0  0  # atno 6908 bound_to 6896
  150.9481  133.6524  159.2806 H   0  0  0  0  0  0  0  0  0  0  0  0  # atno 6909 bound_to 6896
  146.0894  139.5517  142.9485 H   0  0  0  0  0  0  0  0  0  0  0  0  # atno 7974 bound_to 7965
  155.6341  140.3496  155.4693 H   0  0  0  0  0  0  0  0  0  0  0  0  # atno 8008 bound_to 7997
  155.9979  140.1207  157.0599 H   0  0  0  0  0  0  0  0  0  0  0  0  # atno 8009 bound_to 7997
  154.4239  140.1106  156.5642 H   0  0  0  0  0  0  0  0  0  0  0  0  # atno 8010 bound_to 7997
  139.9636  143.5923  152.2437 H   0  0  0  0  0  0  0  0  0  0  0  0  # atno 10167 bound_to 10162
  156.9254  130.5806  149.5648 H   0  0  0  0  0  0  0  0  0  0  0  0  # atno 10718 bound_to 10713
  154.2207  135.2782  155.2925 H   0  0  0  0  0  0  0  0  0  0  0  0  # atno 10763 bound_to 10752
  154.5704  135.5620  153.7093 H   0  0  0  0  0  0  0  0  0  0  0  0  # atno 10764 bound_to 10752
  153.0042  135.6320  154.2347 H   0  0  0  0  0  0  0  0  0  0  0  0  # atno 10765 bound_to 10752
  140.8703  134.2059  157.4655 H   0  0  0  0  0  0  0  0  0  0  0  0  # atno 11005 bound_to 11000
  145.6068  141.0346  143.1988 LP  0  0  0  0  0  0  0  0  0  0  0  0  # atno 17320 bound_to 7965
  144.7349  139.7615  143.7333 LP  0  0  0  0  0  0  0  0  0  0  0  0  # atno 17321 bound_to 7965
  139.6535  144.7661  151.2101 LP  0  0  0  0  0  0  0  0  0  0  0  0  # atno 17342 bound_to 10162
  140.7545  143.6123  150.8594 LP  0  0  0  0  0  0  0  0  0  0  0  0  # atno 17343 bound_to 10162
  156.0471  130.5546  150.8906 LP  0  0  0  0  0  0  0  0  0  0  0  0  # atno 17370 bound_to 10713
  157.5881  131.0945  150.9164 LP  0  0  0  0  0  0  0  0  0  0  0  0  # atno 17371 bound_to 10713
  139.8712  134.9771  156.4946 LP  0  0  0  0  0  0  0  0  0  0  0  0  # atno 17394 bound_to 11000
  140.8581  133.8080  155.9237 LP  0  0  0  0  0  0  0  0  0  0  0  0  # atno 17395 bound_to 11000

$$$$
