AV-unprocessed.smi:2623|AV-procd|sdf|10230|dock3
  -GOLD-   2272014233D 1   1.00000     0.00000
 Structure written by MMmdl.
 40 42  0  0  0  0  0  0  0  0  1 V2000
  152.1128  137.0684  153.7417 O   0  0  0  0  0  0  0  0  0  0  0  0
  151.3678  137.3399  154.9119 C   0  0  0  0  0  0  0  0  0  0  0  0
  150.3107  138.3934  154.7340 C   0  0  0  0  0  0  0  0  0  0  0  0
  149.2412  138.2288  153.9515 N   0  0  0  0  0  0  0  0  0  0  0  0
  148.5615  139.4206  154.1056 C   0  0  0  0  0  0  0  0  0  0  0  0
  147.3467  139.8655  153.5360 C   0  0  0  0  0  0  0  0  0  0  0  0
  146.8378  141.1433  153.8477 C   0  0  0  0  0  0  0  0  0  0  0  0
  147.5348  141.9926  154.7312 C   0  0  0  0  0  0  0  0  0  0  0  0
  148.7467  141.5687  155.3098 C   0  0  0  0  0  0  0  0  0  0  0  0
  149.2505  140.2921  154.9955 C   0  0  0  0  0  0  0  0  0  0  0  0
  150.3857  139.5842  155.3802 N   0  0  0  0  0  0  0  0  0  0  0  0
  151.4231  140.0451  156.2941 C   0  0  0  0  0  0  0  0  0  0  0  0
  151.1060  139.7291  157.7706 C   0  0  1  0  0  0  0  0  0  0  0  0
  151.3045  138.3528  158.0267 O   0  0  0  0  0  0  0  0  0  0  0  0
  151.9800  140.5329  158.7442 C   0  0  0  0  0  0  0  0  0  0  0  0
  152.3262  141.7722  158.1401 O   0  0  0  0  0  0  0  0  0  0  0  0
  152.1524  142.9263  158.8735 C   0  0  0  0  0  0  0  0  0  0  0  0
  152.2312  142.8102  160.2768 C   0  0  0  0  0  0  0  0  0  0  0  0
  152.0697  143.9383  161.1042 C   0  0  0  0  0  0  0  0  0  0  0  0
  151.8268  145.2007  160.5326 C   0  0  0  0  0  0  0  0  0  0  0  0
  151.7442  145.3315  159.1340 C   0  0  0  0  0  0  0  0  0  0  0  0
  151.9051  144.2028  158.3067 C   0  0  0  0  0  0  0  0  0  0  0  0
  151.5159  136.8003  153.0603 H   0  0  0  0  0  0  0  0  0  0  0  0
  150.8959  136.4146  155.2431 H   0  0  0  0  0  0  0  0  0  0  0  0
  152.0614  137.6512  155.6924 H   0  0  0  0  0  0  0  0  0  0  0  0
  146.8059  139.2221  152.8579 H   0  0  0  0  0  0  0  0  0  0  0  0
  145.9087  141.4733  153.4063 H   0  0  0  0  0  0  0  0  0  0  0  0
  147.1387  142.9702  154.9639 H   0  0  0  0  0  0  0  0  0  0  0  0
  149.2827  142.2179  155.9858 H   0  0  0  0  0  0  0  0  0  0  0  0
  152.3685  139.5849  156.0044 H   0  0  0  0  0  0  0  0  0  0  0  0
  151.5609  141.1176  156.1554 H   0  0  0  0  0  0  0  0  0  0  0  0
  150.0585  139.9477  157.9781 H   0  0  0  0  0  0  0  0  0  0  0  0
  150.5212  138.0045  158.4240 H   0  0  0  0  0  0  0  0  0  0  0  0
  151.4223  140.7215  159.6635 H   0  0  0  0  0  0  0  0  0  0  0  0
  152.8760  139.9652  159.0015 H   0  0  0  0  0  0  0  0  0  0  0  0
  152.4179  141.8451  160.7244 H   0  0  0  0  0  0  0  0  0  0  0  0
  152.1333  143.8346  162.1774 H   0  0  0  0  0  0  0  0  0  0  0  0
  151.7042  146.0672  161.1655 H   0  0  0  0  0  0  0  0  0  0  0  0
  151.5579  146.3001  158.6938 H   0  0  0  0  0  0  0  0  0  0  0  0
  151.8361  144.3443  157.2390 H   0  0  0  0  0  0  0  0  0  0  0  0
  1  2  1  0  0  0  0
  1 23  1  0  0  0  0
  2  3  1  0  0  0  0
  2 24  1  0  0  0  0
  2 25  1  0  0  0  0
  3 11  1  0  0  0  0
  3  4  2  0  0  0  0
  4  5  1  0  0  0  0
  5 10  2  0  0  0  0
  5  6  1  0  0  0  0
  6  7  2  0  0  0  0
  6 26  1  0  0  0  0
  7  8  1  0  0  0  0
  7 27  1  0  0  0  0
  8  9  2  0  0  0  0
  8 28  1  0  0  0  0
  9 10  1  0  0  0  0
  9 29  1  0  0  0  0
 10 11  1  0  0  0  0
 11 12  1  0  0  0  0
 12 13  1  0  0  0  0
 12 30  1  0  0  0  0
 12 31  1  0  0  0  0
 13 14  1  0  0  0  0
 13 15  1  0  0  0  0
 13 32  1  0  0  0  0
 14 33  1  0  0  0  0
 15 16  1  0  0  0  0
 15 34  1  0  0  0  0
 15 35  1  0  0  0  0
 16 17  1  0  0  0  0
 17 22  1  0  0  0  0
 17 18  2  0  0  0  0
 18 19  1  0  0  0  0
 18 36  1  0  0  0  0
 19 20  2  0  0  0  0
 19 37  1  0  0  0  0
 20 21  1  0  0  0  0
 20 38  1  0  0  0  0
 21 22  2  0  0  0  0
 21 39  1  0  0  0  0
 22 40  1  0  0  0  0
M  END
> <s_m_source_file>
AV-unprocessed.smi

> <i_m_source_file_index>
2623

> <i_lp_mmshare_version>
43012

> <i_f3d_flags>
0

> <s_epik_input>
W2NIXTFbY0hdW2NIXVtjSF1jKGMxMiluKGMobjIpW0NIMl1bT0hdKVtDSDJdW0NASF0oW09IXSlbQ0gyXU9jM1tjSF1bY0hdW2NIXVtjSF1bY0hdMw==

> <s_epik_cmdline>
J2VwaWtfcHl0aG9uJywgJy1waCcsICc3LjAnLCAnLXRuJywgJzgnLCAnLW1hJywgJzIwMCcsICctbWV0YWxfYmluZGluZycsICctaW1hZScsICc8aW5maWxlLm1hZT4nLCAnLW9tYWUnLCAnPG91dGZpbGUubWFlPic=

> <r_lp_tautomer_probability>
1

> <r_epik_Ionization_Penalty>
0.0583159

> <r_epik_Ionization_Penalty_Charging>
0

> <r_epik_Ionization_Penalty_Neutral>
0.0583159

> <r_epik_State_Penalty>
0.0503525

> <r_epik_Charging_Adjusted_Penalty>
0.0503525

> <i_epik_Tot_Q>
0

> <i_epik_Tot_abs_Q>
0

> <r_epik_Metal_State_Penalty>
5.25517e-05

> <b_epik_Metal_Only>
0

> <s_lp_Force_Field>
OPLS_2005

> <r_lp_Energy>
15.201

> <b_lp_Chiralities_Consistent>
1

> <s_lp_Variant>
AV-unprocessed.smi:2623-2

> <Gold.Version>
5.8.1

> <Gold.Id.Protein>
6NUR|6NUR_protein|mol2

> <Gold.PLP.Fitness>
51.3314

> <Gold.PLP.PLP>
-48.3986

> <Gold.PLP.part.hbond>
-2.0000

> <Gold.PLP.part.metal>
0.0000

> <Gold.PLP.part.buried>
-2.2394

> <Gold.PLP.part.nonpolar>
-46.6955

> <Gold.PLP.part.repulsive>
1.9199

> <Gold.PLP.ligand.clash>
0.0000

> <Gold.PLP.ligand.torsion>
1.5942

> <Gold.PLP.Chemscore.Hbond>
2.0000

> <Gold.PLP.Chemscore.CHOScore>
0.0000

> <Gold.PLP.Chemscore.Metal>
0.0000

> <Gold.Chemscore.Hbonds>
donor molecule, donor type, donor heavy atom, donor atom, acceptor molecule, acceptor atom, score
      L1  H     1    23       P1  7949  1.00
      P1  H 10752 10763       L1     1  1.00

> <Gold.PLP.Chemscore.Internal.Correction>
0.1212

> <Gold.Rescore>
     Score         DG    S(hbond)    S(metal)    S(lipo)     H(rot)  DE(clash)    DE(int)     intcor
     15.54     -17.69       1.28        0.00     134.19       3.04       0.70       1.46       ----

> <Gold.Chemscore.Fitness>
15.5354

> <Gold.Chemscore.DG>
-17.6888

> <Gold.Chemscore.ZeroCoef>
-5.4800

> <Gold.Chemscore.Hbond>
1.2816

> <Gold.Chemscore.Metal>
0.0000

> <Gold.Chemscore.Lipo>
134.1852

> <Gold.Chemscore.Internal_Hbond>
0.0000

> <Gold.Chemscore.DEClash>
0.6974

> <Gold.Chemscore.DEInternal>
1.4560

> <Gold.Chemscore.Rot>
3.0358

> <Gold.Chemscore.Internal.Correction>
   9.000000E+99

> <Gold.Chemscore.Hbonds>
donor molecule, donor type, donor heavy atom, donor atom, acceptor molecule, acceptor atom, score
      L1  H     1    23       P1  7949  0.88
      P1  H 10752 10763       L1     1  0.26

> <Gold.Chemscore.Hbond.Weighted>
-4.2807

> <Gold.Chemscore.Metal.Weighted>
-0.0000

> <Gold.Chemscore.Lipo.Weighted>
-15.6997

> <Gold.Chemscore.Internal_Hbond.Weighted>
0.0000

> <Gold.Chemscore.DEClash.Weighted>
0.6974

> <Gold.Chemscore.DEInternal.Weighted>
1.4560

> <Gold.Chemscore.Rot.Weighted>
7.7716

> <Gold.Chemscore.Internal.Correction.Weighted>
   9.000000E+99

> <Gold.Protein.RotatedTorsions>
[ 6907 6896 6895 6894 ] final   24.53 input  -60.11 | X-H torsion
[ 7974 7965 7964 7962 ] final -130.85 input  175.53 | X-H torsion
[ 8008 7997 7996 7995 ] final  -76.15 input   59.86 | X-H torsion
[ 10167 10162 10161 10158 ] final -160.91 input  -65.29 | X-H torsion
[ 10718 10713 10712 10709 ] final -109.89 input   66.30 | X-H torsion
[ 10763 10752 10751 10750 ] final   27.51 input  -60.55 | X-H torsion
[ 11005 11000 10999 10996 ] final -110.17 input  -57.11 | X-H torsion

> <Gold.Protein.ActiveResidues>
 VAL166  LYS551  ARG553  GLY616  TRP617  ASP618  TYR619  PRO620  LYS621  CYS622 
 ASP623  PHE694  ASN695  SER759  ASP760  ASP761  ALA762  ILE779  LEU786  VAL792 
 PHE793  MET794  SER795  GLU796  ALA797  LYS798  CYS799  TRP800  GLU811  SER814 

> <Gold.Protein.RotatedAtoms>
  151.9589  135.0133  160.0546 H   0  0  0  0  0  0  0  0  0  0  0  0  # atno 6907 bound_to 6896
  152.1886  133.4752  159.5004 H   0  0  0  0  0  0  0  0  0  0  0  0  # atno 6908 bound_to 6896
  150.6931  134.1659  159.4236 H   0  0  0  0  0  0  0  0  0  0  0  0  # atno 6909 bound_to 6896
  144.9435  140.7265  143.4832 H   0  0  0  0  0  0  0  0  0  0  0  0  # atno 7974 bound_to 7965
  154.5479  140.0732  156.8620 H   0  0  0  0  0  0  0  0  0  0  0  0  # atno 8008 bound_to 7997
  155.3050  140.3386  155.4228 H   0  0  0  0  0  0  0  0  0  0  0  0  # atno 8009 bound_to 7997
  156.1935  140.1695  156.8031 H   0  0  0  0  0  0  0  0  0  0  0  0  # atno 8010 bound_to 7997
  139.6504  144.0094  152.2158 H   0  0  0  0  0  0  0  0  0  0  0  0  # atno 10167 bound_to 10162
  156.0561  130.5787  150.8162 H   0  0  0  0  0  0  0  0  0  0  0  0  # atno 10718 bound_to 10713
  153.0551  135.6535  154.0596 H   0  0  0  0  0  0  0  0  0  0  0  0  # atno 10763 bound_to 10752
  154.0276  135.2914  155.3374 H   0  0  0  0  0  0  0  0  0  0  0  0  # atno 10764 bound_to 10752
  154.6862  135.5300  153.8397 H   0  0  0  0  0  0  0  0  0  0  0  0  # atno 10765 bound_to 10752
  141.0807  133.9225  157.2295 H   0  0  0  0  0  0  0  0  0  0  0  0  # atno 11005 bound_to 11000
  145.2954  139.1869  143.4718 LP  0  0  0  0  0  0  0  0  0  0  0  0  # atno 17320 bound_to 7965
  146.3294  140.2938  142.8617 LP  0  0  0  0  0  0  0  0  0  0  0  0  # atno 17321 bound_to 7965
  139.9807  144.6430  150.7904 LP  0  0  0  0  0  0  0  0  0  0  0  0  # atno 17342 bound_to 10162
  140.7535  143.3009  151.3082 LP  0  0  0  0  0  0  0  0  0  0  0  0  # atno 17343 bound_to 10162
  157.5532  131.0944  150.9666 LP  0  0  0  0  0  0  0  0  0  0  0  0  # atno 17370 bound_to 10713
  156.9921  130.5567  149.5304 LP  0  0  0  0  0  0  0  0  0  0  0  0  # atno 17371 bound_to 10713
  139.9620  135.0151  156.9287 LP  0  0  0  0  0  0  0  0  0  0  0  0  # atno 17394 bound_to 11000
  140.5475  134.0659  155.7359 LP  0  0  0  0  0  0  0  0  0  0  0  0  # atno 17395 bound_to 11000

$$$$
