AV-unprocessed.smi:3136|AV-procd|sdf|11948|dock8
  -GOLD-   2272017343D 1   1.00000     0.00000
 Structure written by MMmdl.
 40 40  0  0  0  0  0  0  0  0  2 V2000
  149.5221  141.2210  154.9812 C   0  0  0  0  0  0  0  0  0  0  0  0
  148.3892  141.7102  154.0692 C   0  0  0  0  0  0  0  0  0  0  0  0
  147.9828  140.6816  153.1182 N   0  0  0  0  0  0  0  0  0  0  0  0
  147.0561  139.7390  153.3486 C   0  0  0  0  0  0  0  0  0  0  0  0
  146.4402  139.6439  154.4106 O   0  0  0  0  0  0  0  0  0  0  0  0
  146.7977  138.7598  152.1983 C   0  0  0  0  0  0  0  0  0  0  0  0
  145.7806  137.6576  152.5443 C   0  0  0  0  0  0  0  0  0  0  0  0
  146.4681  136.4291  152.9952 N   0  3  0  0  0  0  0  0  0  0  0  0
  145.6898  135.1764  152.8536 C   0  0  2  0  0  0  0  0  0  0  0  0
  146.2535  134.0898  153.7940 C   0  0  0  0  0  0  0  0  0  0  0  0
  145.6744  134.7345  151.3652 C   0  0  2  0  0  0  0  0  0  0  0  0
  144.8513  135.6857  150.4745 C   0  0  0  0  0  0  0  0  0  0  0  0
  145.2017  133.3656  151.1990 N   0  0  0  0  0  0  0  0  0  0  0  0
  144.0417  132.9295  150.5921 C   0  0  0  0  0  0  0  0  0  0  0  0
  144.0233  131.5668  150.6765 C   0  0  0  0  0  0  0  0  0  0  0  0
  145.2280  131.2541  151.3654 C   0  0  0  0  0  0  0  0  0  0  0  0
  145.9299  132.3312  151.6778 N   0  0  0  0  0  0  0  0  0  0  0  0
  149.8446  142.0138  155.6563 H   0  0  0  0  0  0  0  0  0  0  0  0
  150.3898  140.9076  154.3996 H   0  0  0  0  0  0  0  0  0  0  0  0
  149.2040  140.3762  155.5929 H   0  0  0  0  0  0  0  0  0  0  0  0
  147.5349  142.0358  154.6648 H   0  0  0  0  0  0  0  0  0  0  0  0
  148.7229  142.5810  153.5046 H   0  0  0  0  0  0  0  0  0  0  0  0
  148.4422  140.6885  152.2191 H   0  0  0  0  0  0  0  0  0  0  0  0
  146.4460  139.3269  151.3353 H   0  0  0  0  0  0  0  0  0  0  0  0
  147.7487  138.3079  151.9130 H   0  0  0  0  0  0  0  0  0  0  0  0
  145.1054  138.0084  153.3248 H   0  0  0  0  0  0  0  0  0  0  0  0
  145.1717  137.4225  151.6699 H   0  0  0  0  0  0  0  0  0  0  0  0
  147.3010  136.3324  152.4319 H   0  0  0  0  0  0  0  0  0  0  0  0
  144.6601  135.3819  153.1508 H   0  0  0  0  0  0  0  0  0  0  0  0
  145.6604  133.1759  153.7595 H   0  0  0  0  0  0  0  0  0  0  0  0
  146.2564  134.4143  154.8339 H   0  0  0  0  0  0  0  0  0  0  0  0
  147.2780  133.8294  153.5254 H   0  0  0  0  0  0  0  0  0  0  0  0
  146.7031  134.7525  151.0007 H   0  0  0  0  0  0  0  0  0  0  0  0
  145.2638  136.6947  150.4741 H   0  0  0  0  0  0  0  0  0  0  0  0
  143.8156  135.7522  150.8094 H   0  0  0  0  0  0  0  0  0  0  0  0
  144.8423  135.3412  149.4398 H   0  0  0  0  0  0  0  0  0  0  0  0
  143.3326  133.6164  150.1536 H   0  0  0  0  0  0  0  0  0  0  0  0
  143.2640  130.8950  150.3046 H   0  0  0  0  0  0  0  0  0  0  0  0
  145.6102  130.2835  151.6456 H   0  0  0  0  0  0  0  0  0  0  0  0
  146.7458  136.5341  153.9606 H   0  0  0  0  0  0  0  0  0  0  0  0
  1  2  1  0  0  0  0
  1 18  1  0  0  0  0
  1 19  1  0  0  0  0
  1 20  1  0  0  0  0
  2  3  1  0  0  0  0
  2 21  1  0  0  0  0
  2 22  1  0  0  0  0
  3  4  1  0  0  0  0
  3 23  1  0  0  0  0
  4  5  2  0  0  0  0
  4  6  1  0  0  0  0
  6  7  1  0  0  0  0
  6 24  1  0  0  0  0
  6 25  1  0  0  0  0
  7  8  1  0  0  0  0
  7 26  1  0  0  0  0
  7 27  1  0  0  0  0
  8  9  1  0  0  0  0
  8 28  1  0  0  0  0
  8 40  1  0  0  0  0
  9 10  1  0  0  0  0
  9 11  1  0  0  0  0
  9 29  1  0  0  0  0
 10 30  1  0  0  0  0
 10 31  1  0  0  0  0
 10 32  1  0  0  0  0
 11 12  1  0  0  0  0
 11 13  1  0  0  0  0
 11 33  1  0  0  0  0
 12 34  1  0  0  0  0
 12 35  1  0  0  0  0
 12 36  1  0  0  0  0
 13 17  1  0  0  0  0
 13 14  1  0  0  0  0
 14 15  2  0  0  0  0
 14 37  1  0  0  0  0
 15 16  1  0  0  0  0
 15 38  1  0  0  0  0
 16 17  2  0  0  0  0
 16 39  1  0  0  0  0
M  CHG  1   8   1
M  END
> <s_m_source_file>
AV-unprocessed.smi

> <i_m_source_file_index>
3136

> <i_lp_mmshare_version>
43012

> <i_f3d_flags>
0

> <s_epik_input>
W0NIM11bQ0gyXVtOSF1DKD1PKVtDSDJdW0NIMl1bTkhdW0NASF0oW0NIM10pW0NASF0oW0NIM10pbjFbY0hdW2NIXVtjSF1uMQ==

> <s_epik_cmdline>
J2VwaWtfcHl0aG9uJywgJy1waCcsICc3LjAnLCAnLXRuJywgJzgnLCAnLW1hJywgJzIwMCcsICctbWV0YWxfYmluZGluZycsICctaW1hZScsICc8aW5maWxlLm1hZT4nLCAnLW9tYWUnLCAnPG91dGZpbGUubWFlPic=

> <r_lp_tautomer_probability>
1

> <r_epik_Ionization_Penalty>
0.00463447

> <r_epik_Ionization_Penalty_Charging>
0.00462393

> <r_epik_Ionization_Penalty_Neutral>
1.05394e-05

> <r_epik_State_Penalty>
-0

> <r_epik_Charging_Adjusted_Penalty>
0.00462393

> <i_epik_Tot_Q>
1

> <i_epik_Tot_abs_Q>
1

> <r_epik_Metal_State_Penalty>
-0

> <b_epik_Metal_Only>
0

> <s_lp_Force_Field>
OPLS_2005

> <r_lp_Energy>
10.4266

> <b_lp_Chiralities_Consistent>
1

> <s_lp_Variant>
AV-unprocessed.smi:3136-1

> <Gold.Version>
5.8.1

> <Gold.Id.Protein>
6NUR|6NUR_protein|mol2

> <Gold.PLP.Fitness>
43.3761

> <Gold.PLP.PLP>
-33.3490

> <Gold.PLP.part.hbond>
-2.0000

> <Gold.PLP.part.metal>
0.0000

> <Gold.PLP.part.buried>
-2.9815

> <Gold.PLP.part.nonpolar>
-29.0516

> <Gold.PLP.part.repulsive>
0.3406

> <Gold.PLP.ligand.clash>
0.0000

> <Gold.PLP.ligand.torsion>
1.0737

> <Gold.PLP.Chemscore.Hbond>
3.0000

> <Gold.PLP.Chemscore.CHOScore>
0.9999

> <Gold.PLP.Chemscore.Metal>
0.0000

> <Gold.Chemscore.Hbonds>
donor molecule, donor type, donor heavy atom, donor atom, acceptor molecule, acceptor atom, score
      L1  H     3    23       P1  7957  1.00
      L1  H     8    28       P1  7948  2.00
      L1  C    14    37       P1 10186  0.99

> <Gold.PLP.Chemscore.Internal.Correction>
0.1749

> <Gold.Rescore>
     Score         DG    S(hbond)    S(metal)    S(lipo)     H(rot)  DE(clash)    DE(int)     intcor
     12.19     -14.89       1.98        0.00      74.47       2.32       0.23       2.47       ----

> <Gold.Chemscore.Fitness>
12.1931

> <Gold.Chemscore.DG>
-14.8884

> <Gold.Chemscore.ZeroCoef>
-5.4800

> <Gold.Chemscore.Hbond>
1.9833

> <Gold.Chemscore.Metal>
0.0000

> <Gold.Chemscore.Lipo>
74.4669

> <Gold.Chemscore.Internal_Hbond>
0.0000

> <Gold.Chemscore.DEClash>
0.2288

> <Gold.Chemscore.DEInternal>
2.4665

> <Gold.Chemscore.Rot>
2.3159

> <Gold.Chemscore.Internal.Correction>
   9.000000E+99

> <Gold.Chemscore.Hbonds>
donor molecule, donor type, donor heavy atom, donor atom, acceptor molecule, acceptor atom, score
      L1  H     3    23       P1  7957  0.95
      L1  H     8    28       P1  7948  1.00

> <Gold.Chemscore.Hbond.Weighted>
-6.6244

> <Gold.Chemscore.Metal.Weighted>
-0.0000

> <Gold.Chemscore.Lipo.Weighted>
-8.7126

> <Gold.Chemscore.Internal_Hbond.Weighted>
0.0000

> <Gold.Chemscore.DEClash.Weighted>
0.2288

> <Gold.Chemscore.DEInternal.Weighted>
2.4665

> <Gold.Chemscore.Rot.Weighted>
5.9286

> <Gold.Chemscore.Internal.Correction.Weighted>
   9.000000E+99

> <Gold.Protein.RotatedTorsions>
[ 6907 6896 6895 6894 ] final   48.75 input  -60.11 | X-H torsion
[ 7974 7965 7964 7962 ] final -115.13 input  175.53 | X-H torsion
[ 8008 7997 7996 7995 ] final   10.48 input   59.86 | X-H torsion
[ 10167 10162 10161 10158 ] final -115.57 input  -65.29 | X-H torsion
[ 10718 10713 10712 10709 ] final -113.39 input   66.30 | X-H torsion
[ 10763 10752 10751 10750 ] final  162.13 input  -60.55 | X-H torsion
[ 11005 11000 10999 10996 ] final  -99.14 input  -57.11 | X-H torsion

> <Gold.Protein.ActiveResidues>
 VAL166  LYS551  ARG553  GLY616  TRP617  ASP618  TYR619  PRO620  LYS621  CYS622 
 ASP623  PHE694  ASN695  SER759  ASP760  ASP761  ALA762  ILE779  LEU786  VAL792 
 PHE793  MET794  SER795  GLU796  ALA797  LYS798  CYS799  TRP800  GLU811  SER814 

> <Gold.Protein.RotatedAtoms>
  152.2831  134.7806  160.0392 H   0  0  0  0  0  0  0  0  0  0  0  0  # atno 6907 bound_to 6896
  151.8379  133.3413  159.3642 H   0  0  0  0  0  0  0  0  0  0  0  0  # atno 6908 bound_to 6896
  150.7198  134.5348  159.5762 H   0  0  0  0  0  0  0  0  0  0  0  0  # atno 6909 bound_to 6896
  145.1120  140.8617  143.3864 H   0  0  0  0  0  0  0  0  0  0  0  0  # atno 7974 bound_to 7965
  154.7939  140.2840  155.5971 H   0  0  0  0  0  0  0  0  0  0  0  0  # atno 8008 bound_to 7997
  156.2968  140.2599  156.2722 H   0  0  0  0  0  0  0  0  0  0  0  0  # atno 8009 bound_to 7997
  154.9637  140.0377  157.2191 H   0  0  0  0  0  0  0  0  0  0  0  0  # atno 8010 bound_to 7997
  140.0887  143.4720  152.1883 H   0  0  0  0  0  0  0  0  0  0  0  0  # atno 10167 bound_to 10162
  156.0763  130.5970  150.8635 H   0  0  0  0  0  0  0  0  0  0  0  0  # atno 10718 bound_to 10713
  154.2737  135.2765  155.2727 H   0  0  0  0  0  0  0  0  0  0  0  0  # atno 10763 bound_to 10752
  154.5279  135.5738  153.6738 H   0  0  0  0  0  0  0  0  0  0  0  0  # atno 10764 bound_to 10752
  152.9941  135.6220  154.2893 H   0  0  0  0  0  0  0  0  0  0  0  0  # atno 10765 bound_to 10752
  141.1319  133.8299  157.0932 H   0  0  0  0  0  0  0  0  0  0  0  0  # atno 11005 bound_to 11000
  145.0836  139.2941  143.5771 LP  0  0  0  0  0  0  0  0  0  0  0  0  # atno 17320 bound_to 7965
  146.3526  140.0351  142.8647 LP  0  0  0  0  0  0  0  0  0  0  0  0  # atno 17321 bound_to 7965
  139.5737  144.7476  151.3821 LP  0  0  0  0  0  0  0  0  0  0  0  0  # atno 17342 bound_to 10162
  140.7040  143.7560  150.7450 LP  0  0  0  0  0  0  0  0  0  0  0  0  # atno 17343 bound_to 10162
  157.5860  131.0945  150.9195 LP  0  0  0  0  0  0  0  0  0  0  0  0  # atno 17370 bound_to 10713
  156.9380  130.5374  149.5280 LP  0  0  0  0  0  0  0  0  0  0  0  0  # atno 17371 bound_to 10713
  140.0379  134.9869  157.0906 LP  0  0  0  0  0  0  0  0  0  0  0  0  # atno 17394 bound_to 11000
  140.4181  134.1909  155.7164 LP  0  0  0  0  0  0  0  0  0  0  0  0  # atno 17395 bound_to 11000

$$$$
