AV-unprocessed.smi:21|AV-procd|sdf|129|dock1
  -GOLD-   2262015313D 1   1.00000     0.00000
 Structure written by MMmdl.
 62 65  0  0  0  0  0  0  0  0  2 V2000
  145.1715  132.6364  150.8692 C   0  0  0  0  0  0  0  0  0  0  0  0
  146.4892  132.4474  151.3589 O   0  0  0  0  0  0  0  0  0  0  0  0
  146.6631  132.8874  152.6974 C   0  0  1  0  0  0  0  0  0  0  0  0
  148.1020  132.6732  153.1468 C   0  0  0  0  0  0  0  0  0  0  0  0
  148.2491  133.6664  154.3017 C   0  0  1  0  0  0  0  0  0  0  0  0
  149.7147  134.0628  154.5853 C   0  0  0  0  0  0  0  0  0  0  0  0
  150.0246  134.1765  156.0098 N   0  0  0  0  0  0  0  0  0  0  0  0
  150.8820  133.1523  156.5904 C   0  0  0  0  0  0  0  0  0  0  0  0
  150.2555  135.4060  156.5312 C   0  0  0  0  0  0  0  0  0  0  0  0
  149.9749  135.5768  157.8477 N   0  0  0  0  0  0  0  0  0  0  0  0
  150.1524  136.7688  158.4248 C   0  0  0  0  0  0  0  0  0  0  0  0
  150.5926  137.9033  157.8775 N   0  0  0  0  0  0  0  0  0  0  0  0
  150.8900  137.7333  156.5577 C   0  0  0  0  0  0  0  0  0  0  0  0
  150.7608  136.5283  155.8107 C   0  0  0  0  0  0  0  0  0  0  0  0
  151.1727  136.7437  154.4995 N   0  0  0  0  0  0  0  0  0  0  0  0
  151.5128  138.0030  154.4709 C   0  0  0  0  0  0  0  0  0  0  0  0
  151.3609  138.6752  155.6615 N   0  0  0  0  0  0  0  0  0  0  0  0
  151.6410  140.0765  155.9143 C   0  0  0  0  0  0  0  0  0  0  0  0
  150.4676  140.8249  156.5932 C   0  0  2  0  0  0  0  0  0  0  0  0
  149.2652  141.0607  155.6417 C   0  0  0  0  0  0  0  0  0  0  0  0
  149.5535  142.0347  154.6586 O   0  0  0  0  0  0  0  0  0  0  0  0
  150.9864  142.1255  157.2587 C   0  0  1  0  0  0  0  0  0  0  0  0
  149.9497  142.9466  158.0192 C   0  0  0  0  0  0  0  0  0  0  0  0
  150.7954  143.6388  159.0785 C   0  0  0  0  0  0  0  0  0  0  0  0
  151.7095  142.6236  159.4561 O   0  0  0  0  0  0  0  0  0  0  0  0
  152.1234  141.9384  158.2796 C   0  0  0  0  0  0  0  0  0  0  0  0
  147.4339  134.8387  153.9074 N   0  3  2  0  0  0  0  0  0  0  0  0
  146.8070  135.5467  155.0452 C   0  0  0  0  0  0  0  0  0  0  0  0
  146.4710  134.4005  152.8689 C   0  0  0  0  0  0  0  0  0  0  0  0
  146.0011  132.3446  153.3752 H   0  0  0  0  0  0  0  0  0  0  0  0
  147.7838  133.2230  155.1834 H   0  0  0  0  0  0  0  0  0  0  0  0
  145.1064  132.2630  149.8474 H   0  0  0  0  0  0  0  0  0  0  0  0
  144.8947  133.6911  150.8572 H   0  0  0  0  0  0  0  0  0  0  0  0
  144.4446  132.0905  151.4720 H   0  0  0  0  0  0  0  0  0  0  0  0
  148.3034  131.6437  153.4447 H   0  0  0  0  0  0  0  0  0  0  0  0
  148.7875  132.9294  152.3373 H   0  0  0  0  0  0  0  0  0  0  0  0
  150.3755  133.3142  154.1464 H   0  0  0  0  0  0  0  0  0  0  0  0
  149.9642  134.9995  154.0879 H   0  0  0  0  0  0  0  0  0  0  0  0
  150.6994  133.0521  157.6607 H   0  0  0  0  0  0  0  0  0  0  0  0
  151.9337  133.3998  156.4420 H   0  0  0  0  0  0  0  0  0  0  0  0
  150.6940  132.1818  156.1306 H   0  0  0  0  0  0  0  0  0  0  0  0
  149.9016  136.8226  159.4740 H   0  0  0  0  0  0  0  0  0  0  0  0
  151.8731  138.4825  153.5724 H   0  0  0  0  0  0  0  0  0  0  0  0
  152.5339  140.1270  156.5384 H   0  0  0  0  0  0  0  0  0  0  0  0
  151.8991  140.5537  154.9682 H   0  0  0  0  0  0  0  0  0  0  0  0
  150.1146  140.1983  157.4143 H   0  0  0  0  0  0  0  0  0  0  0  0
  148.9952  140.1473  155.1131 H   0  0  0  0  0  0  0  0  0  0  0  0
  148.3811  141.3696  156.1997 H   0  0  0  0  0  0  0  0  0  0  0  0
  149.2576  142.8745  154.9752 H   0  0  0  0  0  0  0  0  0  0  0  0
  151.3898  142.7650  156.4714 H   0  0  0  0  0  0  0  0  0  0  0  0
  149.4133  143.6502  157.3820 H   0  0  0  0  0  0  0  0  0  0  0  0
  149.2142  142.3104  158.5102 H   0  0  0  0  0  0  0  0  0  0  0  0
  151.3382  144.4861  158.6574 H   0  0  0  0  0  0  0  0  0  0  0  0
  150.2072  143.9894  159.9269 H   0  0  0  0  0  0  0  0  0  0  0  0
  152.3378  140.8949  158.5086 H   0  0  0  0  0  0  0  0  0  0  0  0
  153.0461  142.3854  157.9073 H   0  0  0  0  0  0  0  0  0  0  0  0
  146.1036  134.9004  155.5722 H   0  0  0  0  0  0  0  0  0  0  0  0
  146.2676  136.4272  154.6952 H   0  0  0  0  0  0  0  0  0  0  0  0
  147.5641  135.8790  155.7558 H   0  0  0  0  0  0  0  0  0  0  0  0
  146.7222  134.9233  151.9453 H   0  0  0  0  0  0  0  0  0  0  0  0
  145.4371  134.6478  153.1144 H   0  0  0  0  0  0  0  0  0  0  0  0
  148.0591  135.4902  153.4545 H   0  0  0  0  0  0  0  0  0  0  0  0
  1  2  1  0  0  0  0
  1 32  1  0  0  0  0
  1 33  1  0  0  0  0
  1 34  1  0  0  0  0
  2  3  1  0  0  0  0
  3 30  1  0  0  0  0
  3 29  1  0  0  0  0
  3  4  1  0  0  0  0
  4  5  1  0  0  0  0
  4 35  1  0  0  0  0
  4 36  1  0  0  0  0
  5 31  1  0  0  0  0
  5  6  1  0  0  0  0
  5 27  1  0  0  0  0
  6  7  1  0  0  0  0
  6 37  1  0  0  0  0
  6 38  1  0  0  0  0
  7  8  1  0  0  0  0
  7  9  1  0  0  0  0
  8 39  1  0  0  0  0
  8 40  1  0  0  0  0
  8 41  1  0  0  0  0
  9 14  1  0  0  0  0
  9 10  2  0  0  0  0
 10 11  1  0  0  0  0
 11 12  2  0  0  0  0
 11 42  1  0  0  0  0
 12 13  1  0  0  0  0
 13 17  1  0  0  0  0
 13 14  2  0  0  0  0
 14 15  1  0  0  0  0
 15 16  2  0  0  0  0
 16 17  1  0  0  0  0
 16 43  1  0  0  0  0
 17 18  1  0  0  0  0
 18 19  1  0  0  0  0
 18 44  1  0  0  0  0
 18 45  1  0  0  0  0
 19 20  1  0  0  0  0
 19 22  1  0  0  0  0
 19 46  1  0  0  0  0
 20 21  1  0  0  0  0
 20 47  1  0  0  0  0
 20 48  1  0  0  0  0
 21 49  1  0  0  0  0
 22 26  1  0  0  0  0
 22 23  1  0  0  0  0
 22 50  1  0  0  0  0
 23 24  1  0  0  0  0
 23 51  1  0  0  0  0
 23 52  1  0  0  0  0
 24 25  1  0  0  0  0
 24 53  1  0  0  0  0
 24 54  1  0  0  0  0
 25 26  1  0  0  0  0
 26 55  1  0  0  0  0
 26 56  1  0  0  0  0
 27 28  1  0  0  0  0
 27 29  1  0  0  0  0
 27 62  1  0  0  0  0
 28 57  1  0  0  0  0
 28 58  1  0  0  0  0
 28 59  1  0  0  0  0
 29 60  1  0  0  0  0
 29 61  1  0  0  0  0
M  CHG  1  27   1
M  END
> <s_m_source_file>
AV-unprocessed.smi

> <i_m_source_file_index>
21

> <i_lp_mmshare_version>
43012

> <i_f3d_flags>
0

> <s_epik_input>
W0NIM11PW0NASF0xW0NIMl1bQ0BIXShOKFtDSDNdKVtDSDJdMSlbQ0gyXU4oW0NIM10pYyhuW2NIXW4yKWMoYzIzKW5bY0hdbjNbQ0gyXVtDQEhdKFtDSDJdW09IXSlbQ0BASF00W0NIMl1bQ0gyXU9bQ0gyXTQ=

> <s_epik_cmdline>
J2VwaWtfcHl0aG9uJywgJy1waCcsICc3LjAnLCAnLXRuJywgJzgnLCAnLW1hJywgJzIwMCcsICctbWV0YWxfYmluZGluZycsICctaW1hZScsICc8aW5maWxlLm1hZT4nLCAnLW9tYWUnLCAnPG91dGZpbGUubWFlPic=

> <r_lp_tautomer_probability>
1

> <r_epik_Ionization_Penalty>
0.0157465

> <r_epik_Ionization_Penalty_Charging>
0.015354

> <r_epik_Ionization_Penalty_Neutral>
0.000392529

> <r_epik_State_Penalty>
0.0120612

> <r_epik_Charging_Adjusted_Penalty>
0.0274152

> <i_epik_Tot_Q>
1

> <i_epik_Tot_abs_Q>
1

> <r_epik_Metal_State_Penalty>
0.0121253

> <b_epik_Metal_Only>
0

> <s_lp_Force_Field>
OPLS_2005

> <r_lp_Energy>
59.3761

> <b_lp_Chiralities_Consistent>
1

> <s_lp_Variant>
AV-unprocessed.smi:21-9

> <Gold.Version>
5.8.1

> <Gold.Id.Protein>
6NUR|6NUR_protein|mol2

> <Gold.PLP.Fitness>
53.3215

> <Gold.PLP.PLP>
-41.9692

> <Gold.PLP.part.hbond>
-5.6934

> <Gold.PLP.part.metal>
0.0000

> <Gold.PLP.part.buried>
-5.4301

> <Gold.PLP.part.nonpolar>
-32.3231

> <Gold.PLP.part.repulsive>
0.9412

> <Gold.PLP.ligand.clash>
0.0000

> <Gold.PLP.ligand.torsion>
1.9125

> <Gold.PLP.Chemscore.Hbond>
4.5520

> <Gold.PLP.Chemscore.CHOScore>
0.0000

> <Gold.PLP.Chemscore.Metal>
0.0000

> <Gold.Chemscore.Hbonds>
donor molecule, donor type, donor heavy atom, donor atom, acceptor molecule, acceptor atom, score
      L1  H    21    49       P1  8028  1.00
      L1  H    27    62       P1  7948  2.00
      P1  H  6896  6908       L1    10  0.57
      P1  H  8011  8017       L1    21  0.05
      P1  H 10752 10763       L1    15  0.88

> <Gold.PLP.Chemscore.Internal.Correction>
1.5211

> <Gold.Rescore>
     Score         DG    S(hbond)    S(metal)    S(lipo)     H(rot)  DE(clash)    DE(int)     intcor
     12.91     -15.83       2.50        0.00      90.17       3.35       0.25       2.67       ----

> <Gold.Chemscore.Fitness>
12.9144

> <Gold.Chemscore.DG>
-15.8322

> <Gold.Chemscore.ZeroCoef>
-5.4800

> <Gold.Chemscore.Hbond>
2.5048

> <Gold.Chemscore.Metal>
0.0000

> <Gold.Chemscore.Lipo>
90.1700

> <Gold.Chemscore.Internal_Hbond>
0.0000

> <Gold.Chemscore.DEClash>
0.2469

> <Gold.Chemscore.DEInternal>
2.6709

> <Gold.Chemscore.Rot>
3.3452

> <Gold.Chemscore.Internal.Correction>
   9.000000E+99

> <Gold.Chemscore.Hbonds>
donor molecule, donor type, donor heavy atom, donor atom, acceptor molecule, acceptor atom, score
      L1  H    21    49       P1  8028  0.97
      L1  H    27    62       P1  7948  0.95
      P1  H  6896  6908       L1    10  0.10
      P1  H  8011  8017       L1    21  0.02
      P1  H 10752 10763       L1    15  0.26

> <Gold.Chemscore.Hbond.Weighted>
-8.3660

> <Gold.Chemscore.Metal.Weighted>
-0.0000

> <Gold.Chemscore.Lipo.Weighted>
-10.5499

> <Gold.Chemscore.Internal_Hbond.Weighted>
0.0000

> <Gold.Chemscore.DEClash.Weighted>
0.2469

> <Gold.Chemscore.DEInternal.Weighted>
2.6709

> <Gold.Chemscore.Rot.Weighted>
8.5636

> <Gold.Chemscore.Internal.Correction.Weighted>
   9.000000E+99

> <Gold.Protein.RotatedTorsions>
[ 6907 6896 6895 6894 ] final  156.91 input  -60.11 | X-H torsion
[ 7974 7965 7964 7962 ] final -174.52 input  175.53 | X-H torsion
[ 8008 7997 7996 7995 ] final   89.60 input   59.86 | X-H torsion
[ 10167 10162 10161 10158 ] final  107.41 input  -65.29 | X-H torsion
[ 10718 10713 10712 10709 ] final -124.06 input   66.30 | X-H torsion
[ 10763 10752 10751 10750 ] final   43.15 input  -60.55 | X-H torsion
[ 11005 11000 10999 10996 ] final  -39.25 input  -57.11 | X-H torsion

> <Gold.Protein.ActiveResidues>
 VAL166  LYS551  ARG553  GLY616  TRP617  ASP618  TYR619  PRO620  LYS621  CYS622 
 ASP623  PHE694  ASN695  SER759  ASP760  ASP761  ALA762  ILE779  LEU786  VAL792 
 PHE793  MET794  SER795  GLU796  ALA797  LYS798  CYS799  TRP800  GLU811  SER814 

> <Gold.Protein.RotatedAtoms>
  152.0228  133.3905  159.4265 H   0  0  0  0  0  0  0  0  0  0  0  0  # atno 6907 bound_to 6896
  150.6889  134.3607  159.4958 H   0  0  0  0  0  0  0  0  0  0  0  0  # atno 6908 bound_to 6896
  152.1383  134.9082  160.0606 H   0  0  0  0  0  0  0  0  0  0  0  0  # atno 6909 bound_to 6896
  144.7131  140.1459  143.6388 H   0  0  0  0  0  0  0  0  0  0  0  0  # atno 7974 bound_to 7965
  156.0020  140.3359  155.6854 H   0  0  0  0  0  0  0  0  0  0  0  0  # atno 8008 bound_to 7997
  155.6277  140.0682  157.2676 H   0  0  0  0  0  0  0  0  0  0  0  0  # atno 8009 bound_to 7997
  154.4252  140.1765  156.1427 H   0  0  0  0  0  0  0  0  0  0  0  0  # atno 8010 bound_to 7997
  139.6929  144.7105  151.1317 H   0  0  0  0  0  0  0  0  0  0  0  0  # atno 10167 bound_to 10162
  156.1555  130.6565  150.9976 H   0  0  0  0  0  0  0  0  0  0  0  0  # atno 10718 bound_to 10713
  152.9867  135.6110  154.3065 H   0  0  0  0  0  0  0  0  0  0  0  0  # atno 10763 bound_to 10752
  154.2783  135.2777  155.2710 H   0  0  0  0  0  0  0  0  0  0  0  0  # atno 10764 bound_to 10752
  154.5061  135.5853  153.6625 H   0  0  0  0  0  0  0  0  0  0  0  0  # atno 10765 bound_to 10752
  141.0088  133.6918  156.2162 H   0  0  0  0  0  0  0  0  0  0  0  0  # atno 11005 bound_to 11000
  145.9160  139.2516  143.1409 LP  0  0  0  0  0  0  0  0  0  0  0  0  # atno 17320 bound_to 7965
  145.9669  140.8791  143.0182 LP  0  0  0  0  0  0  0  0  0  0  0  0  # atno 17321 bound_to 7965
  140.7688  143.5533  150.9180 LP  0  0  0  0  0  0  0  0  0  0  0  0  # atno 17342 bound_to 10162
  139.9211  143.6604  152.3096 LP  0  0  0  0  0  0  0  0  0  0  0  0  # atno 17343 bound_to 10162
  157.6692  131.0865  150.7655 LP  0  0  0  0  0  0  0  0  0  0  0  0  # atno 17370 bound_to 10713
  156.7720  130.4832  149.5416 LP  0  0  0  0  0  0  0  0  0  0  0  0  # atno 17371 bound_to 10713
  140.6768  134.4809  157.5588 LP  0  0  0  0  0  0  0  0  0  0  0  0  # atno 17394 bound_to 11000
  139.9078  134.8410  156.1640 LP  0  0  0  0  0  0  0  0  0  0  0  0  # atno 17395 bound_to 11000

$$$$
