AV-unprocessed.smi:1723|AV-procd|sdf|6946|dock5
  -GOLD-   22720 8153D 1   1.00000     0.00000
 Structure written by MMmdl.
 38 38  0  0  0  0  0  0  0  0  1 V2000
  143.5345  145.5178  154.4905 C   0  0  0  0  0  0  0  0  0  0  0  0
  144.2634  144.3474  155.1596 C   0  0  0  0  0  0  0  0  0  0  0  0
  145.2940  143.6878  154.2323 C   0  0  0  0  0  0  0  0  0  0  0  0
  146.0238  142.5170  154.9002 C   0  0  0  0  0  0  0  0  0  0  0  0
  146.7080  141.7771  153.8956 O   0  0  0  0  0  0  0  0  0  0  0  0
  147.4326  140.6398  154.3574 C   0  0  1  0  0  0  0  0  0  0  0  0
  147.5395  139.6534  153.1852 C   0  0  0  0  0  0  0  0  0  0  0  0
  148.8227  141.0631  154.8589 C   0  0  0  0  0  0  0  0  0  0  0  0
  149.6197  141.5767  154.0738 O   0  0  0  0  0  0  0  0  0  0  0  0
  149.0648  140.8284  156.1637 N   0  0  0  0  0  0  0  0  0  0  0  0
  150.1950  141.1627  156.9271 C   0  0  0  0  0  0  0  0  0  0  0  0
  150.3600  142.3392  157.5860 C   0  0  0  0  0  0  0  0  0  0  0  0
  151.5464  142.6209  158.3763 C   0  0  0  0  0  0  0  0  0  0  0  0
  151.6909  143.9184  159.1565 C   0  0  0  0  0  0  0  0  0  0  0  0
  152.0519  143.6882  160.4195 F   0  0  0  0  0  0  0  0  0  0  0  0
  152.6223  144.6850  158.5916 F   0  0  0  0  0  0  0  0  0  0  0  0
  150.5444  144.5988  159.1667 F   0  0  0  0  0  0  0  0  0  0  0  0
  152.4665  141.6409  158.4474 C   0  0  0  0  0  0  0  0  0  0  0  0
  152.3045  140.4286  157.7725 N   0  0  0  0  0  0  0  0  0  0  0  0
  151.2267  140.1166  157.0183 C   0  0  0  0  0  0  0  0  0  0  0  0
  151.1530  139.0215  156.4622 O   0  0  0  0  0  0  0  0  0  0  0  0
  153.0443  139.7477  157.8673 H   0  0  0  0  0  0  0  0  0  0  0  0
  142.8095  145.9647  155.1712 H   0  0  0  0  0  0  0  0  0  0  0  0
  142.9970  145.1900  153.6003 H   0  0  0  0  0  0  0  0  0  0  0  0
  144.2348  146.2982  154.1917 H   0  0  0  0  0  0  0  0  0  0  0  0
  144.7596  144.7042  156.0629 H   0  0  0  0  0  0  0  0  0  0  0  0
  143.5321  143.6053  155.4815 H   0  0  0  0  0  0  0  0  0  0  0  0
  144.7983  143.3359  153.3268 H   0  0  0  0  0  0  0  0  0  0  0  0
  146.0260  144.4315  153.9147 H   0  0  0  0  0  0  0  0  0  0  0  0
  146.7184  142.9009  155.6482 H   0  0  0  0  0  0  0  0  0  0  0  0
  145.3085  141.8723  155.4134 H   0  0  0  0  0  0  0  0  0  0  0  0
  146.8755  140.1569  155.1628 H   0  0  0  0  0  0  0  0  0  0  0  0
  148.0989  138.7609  153.4679 H   0  0  0  0  0  0  0  0  0  0  0  0
  148.0370  140.1031  152.3249 H   0  0  0  0  0  0  0  0  0  0  0  0
  146.5497  139.3317  152.8605 H   0  0  0  0  0  0  0  0  0  0  0  0
  148.3541  140.3151  156.6653 H   0  0  0  0  0  0  0  0  0  0  0  0
  149.5976  143.1007  157.5565 H   0  0  0  0  0  0  0  0  0  0  0  0
  153.3794  141.7035  159.0211 H   0  0  0  0  0  0  0  0  0  0  0  0
  1  2  1  0  0  0  0
  1 23  1  0  0  0  0
  1 24  1  0  0  0  0
  1 25  1  0  0  0  0
  2  3  1  0  0  0  0
  2 26  1  0  0  0  0
  2 27  1  0  0  0  0
  3  4  1  0  0  0  0
  3 28  1  0  0  0  0
  3 29  1  0  0  0  0
  4  5  1  0  0  0  0
  4 30  1  0  0  0  0
  4 31  1  0  0  0  0
  5  6  1  0  0  0  0
  6  7  1  0  0  0  0
  6  8  1  0  0  0  0
  6 32  1  0  0  0  0
  7 33  1  0  0  0  0
  7 34  1  0  0  0  0
  7 35  1  0  0  0  0
  8  9  2  0  0  0  0
  8 10  1  0  0  0  0
 10 11  1  0  0  0  0
 10 36  1  0  0  0  0
 11 20  1  0  0  0  0
 11 12  2  0  0  0  0
 12 13  1  0  0  0  0
 12 37  1  0  0  0  0
 13 14  1  0  0  0  0
 13 18  2  0  0  0  0
 14 15  1  0  0  0  0
 14 16  1  0  0  0  0
 14 17  1  0  0  0  0
 18 19  1  0  0  0  0
 18 38  1  0  0  0  0
 19 22  1  0  0  0  0
 19 20  1  0  0  0  0
 20 21  2  0  0  0  0
M  END
> <s_m_source_file>
AV-unprocessed.smi

> <i_m_source_file_index>
1723

> <i_lp_mmshare_version>
43012

> <i_f3d_flags>
0

> <s_epik_input>
W0NIM11bQ0gyXVtDSDJdW0NIMl1PW0NASF0oW0NIM10pQyg9TylbTkhdYzFbY0hdYyhDKEYpKEYpRilbY0hdW25IXWMxPU8=

> <s_epik_cmdline>
J2VwaWtfcHl0aG9uJywgJy1waCcsICc3LjAnLCAnLXRuJywgJzgnLCAnLW1hJywgJzIwMCcsICctbWV0YWxfYmluZGluZycsICctaW1hZScsICc8aW5maWxlLm1hZT4nLCAnLW9tYWUnLCAnPG91dGZpbGUubWFlPic=

> <r_lp_tautomer_probability>
0.999

> <r_epik_Ionization_Penalty>
0.00763408

> <r_epik_Ionization_Penalty_Charging>
0.00763398

> <r_epik_Ionization_Penalty_Neutral>
9.29819e-08

> <r_epik_State_Penalty>
0.00571302

> <r_epik_Charging_Adjusted_Penalty>
0.013347

> <i_epik_Tot_Q>
0

> <i_epik_Tot_abs_Q>
0

> <r_epik_Metal_State_Penalty>
0.392814

> <b_epik_Metal_Only>
0

> <s_lp_Force_Field>
OPLS_2005

> <r_lp_Energy>
18.7704

> <b_lp_Chiralities_Consistent>
1

> <s_lp_Variant>
AV-unprocessed.smi:1723-2

> <Gold.Version>
5.8.1

> <Gold.Id.Protein>
6NUR|6NUR_protein|mol2

> <Gold.PLP.Fitness>
42.9175

> <Gold.PLP.PLP>
-42.8676

> <Gold.PLP.part.hbond>
-2.0000

> <Gold.PLP.part.metal>
0.0000

> <Gold.PLP.part.buried>
-5.4324

> <Gold.PLP.part.nonpolar>
-36.5384

> <Gold.PLP.part.repulsive>
0.4804

> <Gold.PLP.ligand.clash>
0.0000

> <Gold.PLP.ligand.torsion>
1.4728

> <Gold.PLP.Chemscore.Hbond>
0.9461

> <Gold.PLP.Chemscore.CHOScore>
0.0000

> <Gold.PLP.Chemscore.Metal>
0.0000

> <Gold.Chemscore.Hbonds>
donor molecule, donor type, donor heavy atom, donor atom, acceptor molecule, acceptor atom, score
      P1  H  7989  7998       L1     9  0.14
      P1  H  8011  8017       L1     9  0.61

> <Gold.PLP.Chemscore.Internal.Correction>
0.1573

> <Gold.Rescore>
     Score         DG    S(hbond)    S(metal)    S(lipo)     H(rot)  DE(clash)    DE(int)     intcor
     11.14     -12.59       0.90        0.00      78.88       1.99       0.22       1.23       ----

> <Gold.Chemscore.Fitness>
11.1440

> <Gold.Chemscore.DG>
-12.5924

> <Gold.Chemscore.ZeroCoef>
-5.4800

> <Gold.Chemscore.Hbond>
0.8950

> <Gold.Chemscore.Metal>
0.0000

> <Gold.Chemscore.Lipo>
78.8823

> <Gold.Chemscore.Internal_Hbond>
0.0000

> <Gold.Chemscore.DEClash>
0.2153

> <Gold.Chemscore.DEInternal>
1.2330

> <Gold.Chemscore.Rot>
1.9946

> <Gold.Chemscore.Internal.Correction>
   9.000000E+99

> <Gold.Chemscore.Hbonds>
donor molecule, donor type, donor heavy atom, donor atom, acceptor molecule, acceptor atom, score
      P1  H  7989  7998       L1     9  0.14
      P1  H  8011  8017       L1     9  0.60

> <Gold.Chemscore.Hbond.Weighted>
-2.9894

> <Gold.Chemscore.Metal.Weighted>
-0.0000

> <Gold.Chemscore.Lipo.Weighted>
-9.2292

> <Gold.Chemscore.Internal_Hbond.Weighted>
0.0000

> <Gold.Chemscore.DEClash.Weighted>
0.2153

> <Gold.Chemscore.DEInternal.Weighted>
1.2330

> <Gold.Chemscore.Rot.Weighted>
5.1062

> <Gold.Chemscore.Internal.Correction.Weighted>
   9.000000E+99

> <Gold.Protein.RotatedTorsions>
[ 6907 6896 6895 6894 ] final  -99.95 input  -60.11 | X-H torsion
[ 7974 7965 7964 7962 ] final  138.61 input  175.53 | X-H torsion
[ 8008 7997 7996 7995 ] final  177.68 input   59.86 | X-H torsion
[ 10167 10162 10161 10158 ] final  173.38 input  -65.29 | X-H torsion
[ 10718 10713 10712 10709 ] final  173.58 input   66.30 | X-H torsion
[ 10763 10752 10751 10750 ] final   61.73 input  -60.55 | X-H torsion
[ 11005 11000 10999 10996 ] final    0.91 input  -57.11 | X-H torsion

> <Gold.Protein.ActiveResidues>
 VAL166  LYS551  ARG553  GLY616  TRP617  ASP618  TYR619  PRO620  LYS621  CYS622 
 ASP623  PHE694  ASN695  SER759  ASP760  ASP761  ALA762  ILE779  LEU786  VAL792 
 PHE793  MET794  SER795  GLU796  ALA797  LYS798  CYS799  TRP800  GLU811  SER814 

> <Gold.Protein.RotatedAtoms>
  150.7098  134.0962  159.3949 H   0  0  0  0  0  0  0  0  0  0  0  0  # atno 6907 bound_to 6896
  151.8948  135.0400  160.0510 H   0  0  0  0  0  0  0  0  0  0  0  0  # atno 6908 bound_to 6896
  152.2462  133.5141  159.5335 H   0  0  0  0  0  0  0  0  0  0  0  0  # atno 6909 bound_to 6896
  144.9356  139.4993  143.5597 H   0  0  0  0  0  0  0  0  0  0  0  0  # atno 7974 bound_to 7965
  156.0630  140.1352  156.9918 H   0  0  0  0  0  0  0  0  0  0  0  0  # atno 8008 bound_to 7997
  154.4492  140.0987  156.6617 H   0  0  0  0  0  0  0  0  0  0  0  0  # atno 8009 bound_to 7997
  155.5347  140.3459  155.4436 H   0  0  0  0  0  0  0  0  0  0  0  0  # atno 8010 bound_to 7997
  139.5106  144.3267  152.0151 H   0  0  0  0  0  0  0  0  0  0  0  0  # atno 10167 bound_to 10162
  156.9622  131.0064  151.2925 H   0  0  0  0  0  0  0  0  0  0  0  0  # atno 10718 bound_to 10713
  152.9960  135.5490  154.6081 H   0  0  0  0  0  0  0  0  0  0  0  0  # atno 10763 bound_to 10752
  154.5407  135.2819  155.1100 H   0  0  0  0  0  0  0  0  0  0  0  0  # atno 10764 bound_to 10752
  154.2378  135.6422  153.5249 H   0  0  0  0  0  0  0  0  0  0  0  0  # atno 10765 bound_to 10752
  140.6213  133.9659  155.8226 H   0  0  0  0  0  0  0  0  0  0  0  0  # atno 11005 bound_to 11000
  146.3265  139.8338  142.8903 LP  0  0  0  0  0  0  0  0  0  0  0  0  # atno 17320 bound_to 7965
  145.3072  141.0210  143.3575 LP  0  0  0  0  0  0  0  0  0  0  0  0  # atno 17321 bound_to 7965
  140.2707  144.3967  150.6152 LP  0  0  0  0  0  0  0  0  0  0  0  0  # atno 17342 bound_to 10162
  140.6090  143.2168  151.6924 LP  0  0  0  0  0  0  0  0  0  0  0  0  # atno 17343 bound_to 10162
  157.5650  130.8271  149.8315 LP  0  0  0  0  0  0  0  0  0  0  0  0  # atno 17370 bound_to 10713
  156.0317  130.3762  150.1669 LP  0  0  0  0  0  0  0  0  0  0  0  0  # atno 17371 bound_to 10713
  141.0740  134.0162  157.3484 LP  0  0  0  0  0  0  0  0  0  0  0  0  # atno 17394 bound_to 11000
  139.9152  135.0196  156.7853 LP  0  0  0  0  0  0  0  0  0  0  0  0  # atno 17395 bound_to 11000

$$$$
