AV-unprocessed.smi:1769|AV-procd|sdf|7154|dock3
  -GOLD-   22720 8393D 1   1.00000     0.00000
 Structure written by MMmdl.
 42 43  0  0  0  0  0  0  0  0  2 V2000
  151.1039  137.6203  154.5869 C   0  0  0  0  0  0  0  0  0  0  0  0
  150.9408  139.1330  154.7518 C   0  0  0  0  0  0  0  0  0  0  0  0
  151.9535  139.8325  154.7143 O   0  0  0  0  0  0  0  0  0  0  0  0
  149.7019  139.6497  154.9342 N   0  0  0  0  0  0  0  0  0  0  0  0
  149.3809  141.0797  155.0297 C   0  0  0  0  0  0  0  0  0  0  0  0
  148.6342  141.5055  153.7524 C   0  0  0  0  0  0  0  0  0  0  0  0
  147.3811  140.6368  153.5276 C   0  0  0  0  0  0  0  0  0  0  0  0
  147.7116  139.1278  153.6044 C   0  0  2  0  0  0  0  0  0  0  0  0
  146.4461  138.2663  153.5224 C   0  0  0  0  0  0  0  0  0  0  0  0
  145.4587  138.5476  154.2027 O   0  0  0  0  0  0  0  0  0  0  0  0
  146.5020  137.1974  152.7112 N   0  0  0  0  0  0  0  0  0  0  0  0
  145.4528  136.1925  152.5572 C   0  0  0  0  0  0  0  0  0  0  0  0
  146.0253  134.7690  152.4024 C   0  0  0  0  0  0  0  0  0  0  0  0
  145.2328  133.8939  151.4459 C   0  0  0  0  0  0  0  0  0  0  0  0
  145.6258  132.5602  151.1929 C   0  0  0  0  0  0  0  0  0  0  0  0
  144.8469  131.7607  150.3311 C   0  0  0  0  0  0  0  0  0  0  0  0
  143.6943  132.3140  149.7371 C   0  0  0  0  0  0  0  0  0  0  0  0
  143.3528  133.5951  149.9977 N   0  3  0  0  0  0  0  0  0  0  0  0
  144.0713  134.3929  150.8178 C   0  0  0  0  0  0  0  0  0  0  0  0
  148.4890  138.8244  154.9048 C   0  0  0  0  0  0  0  0  0  0  0  0
  150.7136  137.0909  155.4565 H   0  0  0  0  0  0  0  0  0  0  0  0
  152.1568  137.3559  154.4821 H   0  0  0  0  0  0  0  0  0  0  0  0
  150.5826  137.2714  153.6952 H   0  0  0  0  0  0  0  0  0  0  0  0
  148.7483  141.2462  155.9029 H   0  0  0  0  0  0  0  0  0  0  0  0
  150.2531  141.7145  155.1789 H   0  0  0  0  0  0  0  0  0  0  0  0
  148.3521  142.5567  153.8154 H   0  0  0  0  0  0  0  0  0  0  0  0
  149.3014  141.4151  152.8942 H   0  0  0  0  0  0  0  0  0  0  0  0
  146.6383  140.8944  154.2844 H   0  0  0  0  0  0  0  0  0  0  0  0
  146.9330  140.8779  152.5628 H   0  0  0  0  0  0  0  0  0  0  0  0
  148.3538  138.8780  152.7573 H   0  0  0  0  0  0  0  0  0  0  0  0
  147.3526  137.0487  152.1869 H   0  0  0  0  0  0  0  0  0  0  0  0
  144.7609  136.2290  153.4002 H   0  0  0  0  0  0  0  0  0  0  0  0
  144.8657  136.4470  151.6745 H   0  0  0  0  0  0  0  0  0  0  0  0
  147.0558  134.8267  152.0503 H   0  0  0  0  0  0  0  0  0  0  0  0
  146.0672  134.2833  153.3781 H   0  0  0  0  0  0  0  0  0  0  0  0
  146.5047  132.1468  151.6660 H   0  0  0  0  0  0  0  0  0  0  0  0
  145.1271  130.7361  150.1340 H   0  0  0  0  0  0  0  0  0  0  0  0
  143.0391  131.7749  149.0687 H   0  0  0  0  0  0  0  0  0  0  0  0
  143.6903  135.3941  150.9562 H   0  0  0  0  0  0  0  0  0  0  0  0
  148.7100  137.7583  154.9744 H   0  0  0  0  0  0  0  0  0  0  0  0
  147.8799  139.0550  155.7808 H   0  0  0  0  0  0  0  0  0  0  0  0
  142.5136  133.9756  149.5597 H   0  0  0  0  0  0  0  0  0  0  0  0
  1  2  1  0  0  0  0
  1 21  1  0  0  0  0
  1 22  1  0  0  0  0
  1 23  1  0  0  0  0
  2  3  2  0  0  0  0
  2  4  1  0  0  0  0
  4 20  1  0  0  0  0
  4  5  1  0  0  0  0
  5  6  1  0  0  0  0
  5 24  1  0  0  0  0
  5 25  1  0  0  0  0
  6  7  1  0  0  0  0
  6 26  1  0  0  0  0
  6 27  1  0  0  0  0
  7  8  1  0  0  0  0
  7 28  1  0  0  0  0
  7 29  1  0  0  0  0
  8  9  1  0  0  0  0
  8 20  1  0  0  0  0
  8 30  1  0  0  0  0
  9 10  2  0  0  0  0
  9 11  1  0  0  0  0
 11 12  1  0  0  0  0
 11 31  1  0  0  0  0
 12 13  1  0  0  0  0
 12 32  1  0  0  0  0
 12 33  1  0  0  0  0
 13 14  1  0  0  0  0
 13 34  1  0  0  0  0
 13 35  1  0  0  0  0
 14 19  1  0  0  0  0
 14 15  2  0  0  0  0
 15 16  1  0  0  0  0
 15 36  1  0  0  0  0
 16 17  2  0  0  0  0
 16 37  1  0  0  0  0
 17 18  1  0  0  0  0
 17 38  1  0  0  0  0
 18 19  2  0  0  0  0
 18 42  1  0  0  0  0
 19 39  1  0  0  0  0
 20 40  1  0  0  0  0
 20 41  1  0  0  0  0
M  CHG  1  18   1
M  END
> <s_m_source_file>
AV-unprocessed.smi

> <i_m_source_file_index>
1769

> <i_lp_mmshare_version>
43012

> <i_f3d_flags>
0

> <s_epik_input>
W0NIM11DKD1PKU4xW0NIMl1bQ0gyXVtDSDJdW0NASF0oW0NIMl0xKUMoPU8pW05IXVtDSDJdW0NIMl1jMltjSF1bY0hdW2NIXW5bY0hdMg==

> <s_epik_cmdline>
J2VwaWtfcHl0aG9uJywgJy1waCcsICc3LjAnLCAnLXRuJywgJzgnLCAnLW1hJywgJzIwMCcsICctbWV0YWxfYmluZGluZycsICctaW1hZScsICc8aW5maWxlLm1hZT4nLCAnLW9tYWUnLCAnPG91dGZpbGUubWFlPic=

> <r_epik_Ionization_Penalty>
2.25127

> <r_epik_Ionization_Penalty_Charging>
2.25127

> <r_epik_Ionization_Penalty_Neutral>
1.02261e-06

> <r_epik_State_Penalty>
2.39841

> <r_epik_Charging_Adjusted_Penalty>
4.64968

> <i_epik_Tot_Q>
1

> <i_epik_Tot_abs_Q>
1

> <r_epik_Metal_State_Penalty>
2.41159

> <b_epik_Metal_Only>
0

> <s_lp_Force_Field>
OPLS_2005

> <r_lp_Energy>
29.6354

> <b_lp_Chiralities_Consistent>
1

> <s_lp_Variant>
AV-unprocessed.smi:1769-4

> <Gold.Version>
5.8.1

> <Gold.Id.Protein>
6NUR|6NUR_protein|mol2

> <Gold.PLP.Fitness>
48.1395

> <Gold.PLP.PLP>
-38.0389

> <Gold.PLP.part.hbond>
-2.8195

> <Gold.PLP.part.metal>
0.0000

> <Gold.PLP.part.buried>
-1.8952

> <Gold.PLP.part.nonpolar>
-33.6356

> <Gold.PLP.part.repulsive>
0.2839

> <Gold.PLP.ligand.clash>
0.0000

> <Gold.PLP.ligand.torsion>
0.8077

> <Gold.PLP.Chemscore.Hbond>
3.8960

> <Gold.PLP.Chemscore.CHOScore>
0.0000

> <Gold.PLP.Chemscore.Metal>
0.0000

> <Gold.Chemscore.Hbonds>
donor molecule, donor type, donor heavy atom, donor atom, acceptor molecule, acceptor atom, score
      L1  H    11    31       P1  7948  1.00
      L1  H    18    42       P1 10186  2.00
      P1  H  7989  7998       L1     3  0.91

> <Gold.PLP.Chemscore.Internal.Correction>
0.0280

> <Gold.Rescore>
     Score         DG    S(hbond)    S(metal)    S(lipo)     H(rot)  DE(clash)    DE(int)     intcor
     19.98     -20.72       2.80        0.00      85.48       1.61       0.04       0.70       ----

> <Gold.Chemscore.Fitness>
19.9835

> <Gold.Chemscore.DG>
-20.7207

> <Gold.Chemscore.ZeroCoef>
-5.4800

> <Gold.Chemscore.Hbond>
2.8026

> <Gold.Chemscore.Metal>
0.0000

> <Gold.Chemscore.Lipo>
85.4835

> <Gold.Chemscore.Internal_Hbond>
0.0000

> <Gold.Chemscore.DEClash>
0.0353

> <Gold.Chemscore.DEInternal>
0.7019

> <Gold.Chemscore.Rot>
1.6100

> <Gold.Chemscore.Internal.Correction>
   9.000000E+99

> <Gold.Chemscore.Hbonds>
donor molecule, donor type, donor heavy atom, donor atom, acceptor molecule, acceptor atom, score
      L1  H    11    31       P1  7948  0.98
      L1  H    18    42       P1 10186  0.94
      P1  H  7989  7998       L1     3  0.40

> <Gold.Chemscore.Hbond.Weighted>
-9.3608

> <Gold.Chemscore.Metal.Weighted>
-0.0000

> <Gold.Chemscore.Lipo.Weighted>
-10.0016

> <Gold.Chemscore.Internal_Hbond.Weighted>
0.0000

> <Gold.Chemscore.DEClash.Weighted>
0.0353

> <Gold.Chemscore.DEInternal.Weighted>
0.7019

> <Gold.Chemscore.Rot.Weighted>
4.1216

> <Gold.Chemscore.Internal.Correction.Weighted>
   9.000000E+99

> <Gold.Protein.RotatedTorsions>
[ 6907 6896 6895 6894 ] final   79.51 input  -60.11 | X-H torsion
[ 7974 7965 7964 7962 ] final -160.84 input  175.53 | X-H torsion
[ 8008 7997 7996 7995 ] final   44.68 input   59.86 | X-H torsion
[ 10167 10162 10161 10158 ] final   85.41 input  -65.29 | X-H torsion
[ 10718 10713 10712 10709 ] final  177.92 input   66.30 | X-H torsion
[ 10763 10752 10751 10750 ] final  154.85 input  -60.55 | X-H torsion
[ 11005 11000 10999 10996 ] final  115.07 input  -57.11 | X-H torsion

> <Gold.Protein.ActiveResidues>
 VAL166  LYS551  ARG553  GLY616  TRP617  ASP618  TYR619  PRO620  LYS621  CYS622 
 ASP623  PHE694  ASN695  SER759  ASP760  ASP761  ALA762  ILE779  LEU786  VAL792 
 PHE793  MET794  SER795  GLU796  ALA797  LYS798  CYS799  TRP800  GLU811  SER814 

> <Gold.Protein.RotatedAtoms>
  152.5201  134.3500  159.9247 H   0  0  0  0  0  0  0  0  0  0  0  0  # atno 6907 bound_to 6896
  151.3451  133.3941  159.2682 H   0  0  0  0  0  0  0  0  0  0  0  0  # atno 6908 bound_to 6896
  150.9772  134.9152  159.7881 H   0  0  0  0  0  0  0  0  0  0  0  0  # atno 6909 bound_to 6896
  144.7412  140.3484  143.6120 H   0  0  0  0  0  0  0  0  0  0  0  0  # atno 7974 bound_to 7965
  155.3234  140.3398  155.4241 H   0  0  0  0  0  0  0  0  0  0  0  0  # atno 8008 bound_to 7997
  156.1898  140.1693  156.8152 H   0  0  0  0  0  0  0  0  0  0  0  0  # atno 8009 bound_to 7997
  154.5428  140.0721  156.8522 H   0  0  0  0  0  0  0  0  0  0  0  0  # atno 8010 bound_to 7997
  139.8980  144.6346  150.8667 H   0  0  0  0  0  0  0  0  0  0  0  0  # atno 10167 bound_to 10162
  156.8983  130.9870  151.3039 H   0  0  0  0  0  0  0  0  0  0  0  0  # atno 10718 bound_to 10713
  154.1590  135.2811  155.3114 H   0  0  0  0  0  0  0  0  0  0  0  0  # atno 10763 bound_to 10752
  154.6161  135.5483  153.7528 H   0  0  0  0  0  0  0  0  0  0  0  0  # atno 10764 bound_to 10752
  153.0198  135.6427  154.1732 H   0  0  0  0  0  0  0  0  0  0  0  0  # atno 10765 bound_to 10752
  139.8999  134.9578  156.6989 H   0  0  0  0  0  0  0  0  0  0  0  0  # atno 11005 bound_to 11000
  145.7301  139.1734  143.2435 LP  0  0  0  0  0  0  0  0  0  0  0  0  # atno 17320 bound_to 7965
  146.1212  140.7306  142.9456 LP  0  0  0  0  0  0  0  0  0  0  0  0  # atno 17321 bound_to 7965
  140.7713  143.3459  151.2113 LP  0  0  0  0  0  0  0  0  0  0  0  0  # atno 17342 bound_to 10162
  139.7051  143.9469  152.2923 LP  0  0  0  0  0  0  0  0  0  0  0  0  # atno 17343 bound_to 10162
  157.6042  130.8535  149.8849 LP  0  0  0  0  0  0  0  0  0  0  0  0  # atno 17370 bound_to 10713
  156.0595  130.3702  150.1015 LP  0  0  0  0  0  0  0  0  0  0  0  0  # atno 17371 bound_to 10713
  140.7166  133.9177  155.8119 LP  0  0  0  0  0  0  0  0  0  0  0  0  # atno 17394 bound_to 11000
  141.0259  134.0823  157.4068 LP  0  0  0  0  0  0  0  0  0  0  0  0  # atno 17395 bound_to 11000

$$$$
