AV-unprocessed.smi:1326|AV-procd|sdf|5476|dock10
  -GOLD-   22720 5 43D 1   1.00000     0.00000
 Structure written by MMmdl.
 38 38  0  0  0  0  0  0  0  0  2 V2000
  148.6104  140.9022  154.2764 C   0  0  0  0  0  0  0  0  0  0  0  0
  149.6580  140.2841  155.1774 C   0  0  0  0  0  0  0  0  0  0  0  0
  149.3234  139.8887  156.3464 N   0  0  0  0  0  0  0  0  0  0  0  0
  150.2924  139.3125  157.1857 C   0  0  0  0  0  0  0  0  0  0  0  0
  149.8065  138.8677  158.5541 C   0  0  0  0  0  0  0  0  0  0  0  0
  151.5848  139.1675  156.7751 C   0  0  0  0  0  0  0  0  0  0  0  0
  152.6756  138.5446  157.6466 C   0  0  0  0  0  0  0  0  0  0  0  0
  153.1078  139.3645  158.8641 C   0  0  0  0  0  0  0  0  0  0  0  0
  154.0305  138.9691  159.5767 O   0  0  0  0  0  0  0  0  0  0  0  0
  152.4486  140.5136  159.0792 N   0  0  0  0  0  0  0  0  0  0  0  0
  152.7329  141.4607  160.1499 C   0  0  0  0  0  0  0  0  0  0  0  0
  153.3668  142.7495  159.5951 C   0  0  0  0  0  0  0  0  0  0  0  0
  152.3459  143.8244  159.1701 C   0  0  0  0  0  0  0  0  0  0  0  0
  152.8582  144.6996  158.0137 C   0  0  0  0  0  0  0  0  0  0  0  0
  151.9528  144.7010  160.3690 C   0  0  0  0  0  0  0  0  0  0  0  0
  151.9309  139.6442  155.4238 C   0  0  0  0  0  0  0  0  0  0  0  0
  153.0872  139.5563  155.0123 O   0  0  0  0  0  0  0  0  0  0  0  0
  150.9340  140.1879  154.6695 N   0  5  0  0  0  0  0  0  0  0  0  0
  147.6112  140.7896  154.6996 H   0  0  0  0  0  0  0  0  0  0  0  0
  148.6203  140.4233  153.2966 H   0  0  0  0  0  0  0  0  0  0  0  0
  148.8088  141.9660  154.1436 H   0  0  0  0  0  0  0  0  0  0  0  0
  150.3969  139.3346  159.3427 H   0  0  0  0  0  0  0  0  0  0  0  0
  149.8875  137.7851  158.6539 H   0  0  0  0  0  0  0  0  0  0  0  0
  148.7627  139.1415  158.7116 H   0  0  0  0  0  0  0  0  0  0  0  0
  152.3289  137.5715  157.9948 H   0  0  0  0  0  0  0  0  0  0  0  0
  153.5614  138.3200  157.0515 H   0  0  0  0  0  0  0  0  0  0  0  0
  151.7040  140.7560  158.4405 H   0  0  0  0  0  0  0  0  0  0  0  0
  151.7896  141.6817  160.6483 H   0  0  0  0  0  0  0  0  0  0  0  0
  153.3817  141.0032  160.8986 H   0  0  0  0  0  0  0  0  0  0  0  0
  154.0169  143.1708  160.3635 H   0  0  0  0  0  0  0  0  0  0  0  0
  154.0163  142.5061  158.7529 H   0  0  0  0  0  0  0  0  0  0  0  0
  151.4419  143.3168  158.8312 H   0  0  0  0  0  0  0  0  0  0  0  0
  153.7926  145.1961  158.2765 H   0  0  0  0  0  0  0  0  0  0  0  0
  152.1336  145.4731  157.7577 H   0  0  0  0  0  0  0  0  0  0  0  0
  153.0325  144.1140  157.1116 H   0  0  0  0  0  0  0  0  0  0  0  0
  152.8152  145.2364  160.7680 H   0  0  0  0  0  0  0  0  0  0  0  0
  151.5318  144.1003  161.1757 H   0  0  0  0  0  0  0  0  0  0  0  0
  151.2032  145.4408  160.0874 H   0  0  0  0  0  0  0  0  0  0  0  0
  1  2  1  0  0  0  0
  1 19  1  0  0  0  0
  1 20  1  0  0  0  0
  1 21  1  0  0  0  0
  2 18  1  0  0  0  0
  2  3  2  0  0  0  0
  3  4  1  0  0  0  0
  4  5  1  0  0  0  0
  4  6  2  0  0  0  0
  5 22  1  0  0  0  0
  5 23  1  0  0  0  0
  5 24  1  0  0  0  0
  6  7  1  0  0  0  0
  6 16  1  0  0  0  0
  7  8  1  0  0  0  0
  7 25  1  0  0  0  0
  7 26  1  0  0  0  0
  8  9  2  0  0  0  0
  8 10  1  0  0  0  0
 10 11  1  0  0  0  0
 10 27  1  0  0  0  0
 11 12  1  0  0  0  0
 11 28  1  0  0  0  0
 11 29  1  0  0  0  0
 12 13  1  0  0  0  0
 12 30  1  0  0  0  0
 12 31  1  0  0  0  0
 13 14  1  0  0  0  0
 13 15  1  0  0  0  0
 13 32  1  0  0  0  0
 14 33  1  0  0  0  0
 14 34  1  0  0  0  0
 14 35  1  0  0  0  0
 15 36  1  0  0  0  0
 15 37  1  0  0  0  0
 15 38  1  0  0  0  0
 16 17  2  0  0  0  0
 16 18  1  0  0  0  0
M  CHG  1  18  -1
M  END
> <s_m_source_file>
AV-unprocessed.smi

> <i_m_source_file_index>
1326

> <i_lp_mmshare_version>
43012

> <i_f3d_flags>
0

> <s_epik_input>
W0NIM11jMW5jKFtDSDNdKWMoYyg9TylbbkhdMSlbQ0gyXUMoPU8pW05IXVtDSDJdW0NIMl1bQ0hdKFtDSDNdKVtDSDNd

> <s_epik_cmdline>
J2VwaWtfcHl0aG9uJywgJy1waCcsICc3LjAnLCAnLXRuJywgJzgnLCAnLW1hJywgJzIwMCcsICctbWV0YWxfYmluZGluZycsICctaW1hZScsICc8aW5maWxlLm1hZT4nLCAnLW9tYWUnLCAnPG91dGZpbGUubWFlPic=

> <r_lp_tautomer_probability>
0.839158

> <r_epik_Ionization_Penalty>
6.68288

> <r_epik_Ionization_Penalty_Charging>
7.3825e-08

> <r_epik_Ionization_Penalty_Neutral>
6.68288

> <r_epik_State_Penalty>
4.52336

> <r_epik_Charging_Adjusted_Penalty>
4.52336

> <i_epik_Tot_Q>
-1

> <i_epik_Tot_abs_Q>
1

> <r_epik_Metal_State_Penalty>
0.854958

> <b_epik_Metal_Only>
1

> <s_lp_Force_Field>
OPLS_2005

> <r_lp_Energy>
8.11969

> <b_lp_Chiralities_Consistent>
1

> <s_lp_Variant>
AV-unprocessed.smi:1326-3

> <Gold.Version>
5.8.1

> <Gold.Id.Protein>
6NUR|6NUR_protein|mol2

> <Gold.PLP.Fitness>
41.8300

> <Gold.PLP.PLP>
-37.1259

> <Gold.PLP.part.hbond>
-2.9143

> <Gold.PLP.part.metal>
0.0000

> <Gold.PLP.part.buried>
-4.3689

> <Gold.PLP.part.nonpolar>
-30.3870

> <Gold.PLP.part.repulsive>
0.2179

> <Gold.PLP.ligand.clash>
0.0000

> <Gold.PLP.ligand.torsion>
0.6601

> <Gold.PLP.Chemscore.Hbond>
2.0000

> <Gold.PLP.Chemscore.CHOScore>
0.0000

> <Gold.PLP.Chemscore.Metal>
0.0000

> <Gold.Chemscore.Hbonds>
donor molecule, donor type, donor heavy atom, donor atom, acceptor molecule, acceptor atom, score
      P1  H  7989  7998       L1    18  0.99
      P1  H  7997  8010       L1    17  1.00

> <Gold.PLP.Chemscore.Internal.Correction>
0.0244

> <Gold.Rescore>
     Score         DG    S(hbond)    S(metal)    S(lipo)     H(rot)  DE(clash)    DE(int)     intcor
     16.48     -17.12       1.91        0.00      85.00       1.83       0.01       0.64       ----

> <Gold.Chemscore.Fitness>
16.4797

> <Gold.Chemscore.DG>
-17.1222

> <Gold.Chemscore.ZeroCoef>
-5.4800

> <Gold.Chemscore.Hbond>
1.9108

> <Gold.Chemscore.Metal>
0.0000

> <Gold.Chemscore.Lipo>
85.0025

> <Gold.Chemscore.Internal_Hbond>
0.0000

> <Gold.Chemscore.DEClash>
0.0057

> <Gold.Chemscore.DEInternal>
0.6368

> <Gold.Chemscore.Rot>
1.8302

> <Gold.Chemscore.Internal.Correction>
   9.000000E+99

> <Gold.Chemscore.Hbonds>
donor molecule, donor type, donor heavy atom, donor atom, acceptor molecule, acceptor atom, score
      P1  H  7989  7998       L1    18  0.51
      P1  H  7997  8010       L1    17  0.99

> <Gold.Chemscore.Hbond.Weighted>
-6.3822

> <Gold.Chemscore.Metal.Weighted>
-0.0000

> <Gold.Chemscore.Lipo.Weighted>
-9.9453

> <Gold.Chemscore.Internal_Hbond.Weighted>
0.0000

> <Gold.Chemscore.DEClash.Weighted>
0.0057

> <Gold.Chemscore.DEInternal.Weighted>
0.6368

> <Gold.Chemscore.Rot.Weighted>
4.6854

> <Gold.Chemscore.Internal.Correction.Weighted>
   9.000000E+99

> <Gold.Protein.RotatedTorsions>
[ 6907 6896 6895 6894 ] final   61.32 input  -60.11 | X-H torsion
[ 7974 7965 7964 7962 ] final  -69.13 input  175.53 | X-H torsion
[ 8008 7997 7996 7995 ] final  101.87 input   59.86 | X-H torsion
[ 10167 10162 10161 10158 ] final -126.39 input  -65.29 | X-H torsion
[ 10718 10713 10712 10709 ] final  -17.26 input   66.30 | X-H torsion
[ 10763 10752 10751 10750 ] final  108.50 input  -60.55 | X-H torsion
[ 11005 11000 10999 10996 ] final  -54.16 input  -57.11 | X-H torsion

> <Gold.Protein.ActiveResidues>
 VAL166  LYS551  ARG553  GLY616  TRP617  ASP618  TYR619  PRO620  LYS621  CYS622 
 ASP623  PHE694  ASN695  SER759  ASP760  ASP761  ALA762  ILE779  LEU786  VAL792 
 PHE793  MET794  SER795  GLU796  ALA797  LYS798  CYS799  TRP800  GLU811  SER814 

> <Gold.Protein.RotatedAtoms>
  152.4078  134.6176  160.0042 H   0  0  0  0  0  0  0  0  0  0  0  0  # atno 6907 bound_to 6896
  151.6362  133.3323  159.3128 H   0  0  0  0  0  0  0  0  0  0  0  0  # atno 6908 bound_to 6896
  150.7972  134.7081  159.6633 H   0  0  0  0  0  0  0  0  0  0  0  0  # atno 6909 bound_to 6896
  145.7077  140.9091  143.0697 H   0  0  0  0  0  0  0  0  0  0  0  0  # atno 7974 bound_to 7965
  156.1340  140.3190  155.8393 H   0  0  0  0  0  0  0  0  0  0  0  0  # atno 8008 bound_to 7997
  155.4278  140.0516  157.3038 H   0  0  0  0  0  0  0  0  0  0  0  0  # atno 8009 bound_to 7997
  154.4922  140.2097  155.9536 H   0  0  0  0  0  0  0  0  0  0  0  0  # atno 8010 bound_to 7997
  139.9720  143.5835  152.2409 H   0  0  0  0  0  0  0  0  0  0  0  0  # atno 10167 bound_to 10162
  156.5760  130.4762  149.6341 H   0  0  0  0  0  0  0  0  0  0  0  0  # atno 10718 bound_to 10713
  153.4216  135.3810  155.2114 H   0  0  0  0  0  0  0  0  0  0  0  0  # atno 10763 bound_to 10752
  154.8745  135.3818  154.4377 H   0  0  0  0  0  0  0  0  0  0  0  0  # atno 10764 bound_to 10752
  153.4898  135.7088  153.5953 H   0  0  0  0  0  0  0  0  0  0  0  0  # atno 10765 bound_to 10752
  141.1012  133.6618  156.4280 H   0  0  0  0  0  0  0  0  0  0  0  0  # atno 11005 bound_to 11000
  144.6951  139.9032  143.7459 LP  0  0  0  0  0  0  0  0  0  0  0  0  # atno 17320 bound_to 7965
  146.0741  139.3729  143.0505 LP  0  0  0  0  0  0  0  0  0  0  0  0  # atno 17321 bound_to 7965
  139.6474  144.7659  151.2216 LP  0  0  0  0  0  0  0  0  0  0  0  0  # atno 17342 bound_to 10162
  140.7519  143.6217  150.8507 LP  0  0  0  0  0  0  0  0  0  0  0  0  # atno 17343 bound_to 10162
  156.2673  130.6997  151.1783 LP  0  0  0  0  0  0  0  0  0  0  0  0  # atno 17370 bound_to 10713
  157.7337  131.0588  150.5561 LP  0  0  0  0  0  0  0  0  0  0  0  0  # atno 17371 bound_to 10713
  140.5017  134.6480  157.5251 LP  0  0  0  0  0  0  0  0  0  0  0  0  # atno 17394 bound_to 11000
  139.9865  134.7054  155.9766 LP  0  0  0  0  0  0  0  0  0  0  0  0  # atno 17395 bound_to 11000

$$$$
