AV-unprocessed.smi:1831|AV-procd|sdf|7457|dock7
  -GOLD-   22720 9143D 1   1.00000     0.00000
 Structure written by MMmdl.
 41 42  0  0  0  0  0  0  0  0  2 V2000
  150.8640  141.6996  156.4998 C   0  0  0  0  0  0  0  0  0  0  0  0
  150.4659  140.4921  155.7221 C   0  0  0  0  0  0  0  0  0  0  0  0
  150.0461  140.5524  154.4521 N   0  0  0  0  0  0  0  0  0  0  0  0
  149.7331  139.3008  153.9385 N   0  0  0  0  0  0  0  0  0  0  0  0
  149.9299  138.3301  154.8350 C   0  0  0  0  0  0  0  0  0  0  0  0
  149.6517  136.9959  154.4458 N   0  0  0  0  0  0  0  0  0  0  0  0
  149.8249  135.8743  155.1633 C   0  0  0  0  0  0  0  0  0  0  0  0
  150.2643  135.8244  156.3120 O   0  0  0  0  0  0  0  0  0  0  0  0
  149.4513  134.7897  154.4687 N   0  0  0  0  0  0  0  0  0  0  0  0
  149.5410  133.4106  154.9393 C   0  0  0  0  0  0  0  0  0  0  0  0
  149.2571  132.3883  153.8210 C   0  0  1  0  0  0  0  0  0  0  0  0
  149.2937  130.9374  154.2955 C   0  0  0  0  0  0  0  0  0  0  0  0
  148.4315  130.1718  153.2834 C   0  0  0  0  0  0  0  0  0  0  0  0
  147.6547  131.1795  152.5177 N   0  3  1  0  0  0  0  0  0  0  0  0
  146.2330  130.8193  152.2527 C   0  0  0  0  0  0  0  0  0  0  0  0
  146.1136  129.3753  151.7297 C   0  0  0  0  0  0  0  0  0  0  0  0
  145.5770  131.7857  151.2474 C   0  0  0  0  0  0  0  0  0  0  0  0
  147.8665  132.4793  153.1908 C   0  0  0  0  0  0  0  0  0  0  0  0
  150.5182  138.8726  156.4067 S   0  0  0  0  0  0  0  0  0  0  0  0
  150.5457  142.6088  155.9886 H   0  0  0  0  0  0  0  0  0  0  0  0
  151.9474  141.7249  156.6177 H   0  0  0  0  0  0  0  0  0  0  0  0
  150.4040  141.6766  157.4878 H   0  0  0  0  0  0  0  0  0  0  0  0
  149.2866  136.8848  153.5113 H   0  0  0  0  0  0  0  0  0  0  0  0
  149.1027  134.9259  153.5308 H   0  0  0  0  0  0  0  0  0  0  0  0
  150.5520  133.2599  155.3184 H   0  0  0  0  0  0  0  0  0  0  0  0
  148.8730  133.2509  155.7875 H   0  0  0  0  0  0  0  0  0  0  0  0
  150.0017  132.5060  153.0314 H   0  0  0  0  0  0  0  0  0  0  0  0
  150.3088  130.5449  154.3627 H   0  0  0  0  0  0  0  0  0  0  0  0
  148.8436  130.8573  155.2862 H   0  0  0  0  0  0  0  0  0  0  0  0
  149.0506  129.6029  152.5892 H   0  0  0  0  0  0  0  0  0  0  0  0
  147.7867  129.4659  153.8086 H   0  0  0  0  0  0  0  0  0  0  0  0
  145.6846  130.8899  153.1934 H   0  0  0  0  0  0  0  0  0  0  0  0
  145.0736  129.1208  151.5225 H   0  0  0  0  0  0  0  0  0  0  0  0
  146.4794  128.6440  152.4502 H   0  0  0  0  0  0  0  0  0  0  0  0
  146.6758  129.2414  150.8049 H   0  0  0  0  0  0  0  0  0  0  0  0
  144.5529  131.4827  151.0273 H   0  0  0  0  0  0  0  0  0  0  0  0
  146.1233  131.8091  150.3039 H   0  0  0  0  0  0  0  0  0  0  0  0
  145.5263  132.8046  151.6314 H   0  0  0  0  0  0  0  0  0  0  0  0
  147.1131  132.6141  153.9691 H   0  0  0  0  0  0  0  0  0  0  0  0
  147.7865  133.3108  152.4899 H   0  0  0  0  0  0  0  0  0  0  0  0
  148.1112  131.2580  151.6202 H   0  0  0  0  0  0  0  0  0  0  0  0
  1  2  1  0  0  0  0
  1 20  1  0  0  0  0
  1 21  1  0  0  0  0
  1 22  1  0  0  0  0
  2 19  1  0  0  0  0
  2  3  2  0  0  0  0
  3  4  1  0  0  0  0
  4  5  2  0  0  0  0
  5  6  1  0  0  0  0
  5 19  1  0  0  0  0
  6  7  1  0  0  0  0
  6 23  1  0  0  0  0
  7  8  2  0  0  0  0
  7  9  1  0  0  0  0
  9 10  1  0  0  0  0
  9 24  1  0  0  0  0
 10 11  1  0  0  0  0
 10 25  1  0  0  0  0
 10 26  1  0  0  0  0
 11 18  1  0  0  0  0
 11 12  1  0  0  0  0
 11 27  1  0  0  0  0
 12 13  1  0  0  0  0
 12 28  1  0  0  0  0
 12 29  1  0  0  0  0
 13 14  1  0  0  0  0
 13 30  1  0  0  0  0
 13 31  1  0  0  0  0
 14 15  1  0  0  0  0
 14 18  1  0  0  0  0
 14 41  1  0  0  0  0
 15 16  1  0  0  0  0
 15 17  1  0  0  0  0
 15 32  1  0  0  0  0
 16 33  1  0  0  0  0
 16 34  1  0  0  0  0
 16 35  1  0  0  0  0
 17 36  1  0  0  0  0
 17 37  1  0  0  0  0
 17 38  1  0  0  0  0
 18 39  1  0  0  0  0
 18 40  1  0  0  0  0
M  CHG  1  14   1
M  END
> <s_m_source_file>
AV-unprocessed.smi

> <i_m_source_file_index>
1831

> <i_lp_mmshare_version>
43012

> <i_f3d_flags>
0

> <s_epik_input>
W0NIM11jMW5uYyhzMSlbTkhdQyg9TylbTkhdW0NIMl1bQ0BASF0yW0NIMl1bQ0gyXU4oW0NIMl0yKVtDSF0oW0NIM10pW0NIM10=

> <s_epik_cmdline>
J2VwaWtfcHl0aG9uJywgJy1waCcsICc3LjAnLCAnLXRuJywgJzgnLCAnLW1hJywgJzIwMCcsICctbWV0YWxfYmluZGluZycsICctaW1hZScsICc8aW5maWxlLm1hZT4nLCAnLW9tYWUnLCAnPG91dGZpbGUubWFlPic=

> <r_lp_tautomer_probability>
1

> <r_epik_Ionization_Penalty>
0.00080807

> <r_epik_Ionization_Penalty_Charging>
0.000218981

> <r_epik_Ionization_Penalty_Neutral>
0.00058909

> <r_epik_State_Penalty>
-0

> <r_epik_Charging_Adjusted_Penalty>
0.000218981

> <i_epik_Tot_Q>
1

> <i_epik_Tot_abs_Q>
1

> <r_epik_Metal_State_Penalty>
0.236062

> <b_epik_Metal_Only>
0

> <s_lp_Force_Field>
OPLS_2005

> <r_lp_Energy>
27.4223

> <b_lp_Chiralities_Consistent>
1

> <s_lp_Variant>
AV-unprocessed.smi:1831-2

> <Gold.Version>
5.8.1

> <Gold.Id.Protein>
6NUR|6NUR_protein|mol2

> <Gold.PLP.Fitness>
43.9538

> <Gold.PLP.PLP>
-33.2914

> <Gold.PLP.part.hbond>
-4.0710

> <Gold.PLP.part.metal>
0.0000

> <Gold.PLP.part.buried>
-5.3675

> <Gold.PLP.part.nonpolar>
-26.1814

> <Gold.PLP.part.repulsive>
2.1259

> <Gold.PLP.ligand.clash>
0.0000

> <Gold.PLP.ligand.torsion>
0.1370

> <Gold.PLP.Chemscore.Hbond>
3.6382

> <Gold.PLP.Chemscore.CHOScore>
0.0000

> <Gold.PLP.Chemscore.Metal>
0.0000

> <Gold.Chemscore.Hbonds>
donor molecule, donor type, donor heavy atom, donor atom, acceptor molecule, acceptor atom, score
      L1  H     6    23       P1  7948  1.00
      L1  H     9    24       P1  7948  0.77
      L1  H    14    41       P1 10747  1.00
      P1  H  7989  7998       L1     3  0.81

> <Gold.PLP.Chemscore.Internal.Correction>
0.0219

> <Gold.Rescore>
     Score         DG    S(hbond)    S(metal)    S(lipo)     H(rot)  DE(clash)    DE(int)     intcor
     16.54     -17.39       2.28        0.00      70.27       1.54       0.02       0.83       ----

> <Gold.Chemscore.Fitness>
16.5405

> <Gold.Chemscore.DG>
-17.3909

> <Gold.Chemscore.ZeroCoef>
-5.4800

> <Gold.Chemscore.Hbond>
2.2847

> <Gold.Chemscore.Metal>
0.0000

> <Gold.Chemscore.Lipo>
70.2679

> <Gold.Chemscore.Internal_Hbond>
0.0000

> <Gold.Chemscore.DEClash>
0.0231

> <Gold.Chemscore.DEInternal>
0.8272

> <Gold.Chemscore.Rot>
1.5396

> <Gold.Chemscore.Internal.Correction>
   9.000000E+99

> <Gold.Chemscore.Hbonds>
donor molecule, donor type, donor heavy atom, donor atom, acceptor molecule, acceptor atom, score
      L1  H     6    23       P1  7948  0.97
      L1  H     9    24       P1  7948  0.16
      L1  H    14    41       P1 10747  0.99
      P1  H  7989  7998       L1     3  0.08

> <Gold.Chemscore.Hbond.Weighted>
-7.6308

> <Gold.Chemscore.Metal.Weighted>
-0.0000

> <Gold.Chemscore.Lipo.Weighted>
-8.2213

> <Gold.Chemscore.Internal_Hbond.Weighted>
0.0000

> <Gold.Chemscore.DEClash.Weighted>
0.0231

> <Gold.Chemscore.DEInternal.Weighted>
0.8272

> <Gold.Chemscore.Rot.Weighted>
3.9413

> <Gold.Chemscore.Internal.Correction.Weighted>
   9.000000E+99

> <Gold.Protein.RotatedTorsions>
[ 6907 6896 6895 6894 ] final   38.11 input  -60.11 | X-H torsion
[ 7974 7965 7964 7962 ] final   -2.38 input  175.53 | X-H torsion
[ 8008 7997 7996 7995 ] final  -88.34 input   59.86 | X-H torsion
[ 10167 10162 10161 10158 ] final  -25.74 input  -65.29 | X-H torsion
[ 10718 10713 10712 10709 ] final -151.26 input   66.30 | X-H torsion
[ 10763 10752 10751 10750 ] final   -9.93 input  -60.55 | X-H torsion
[ 11005 11000 10999 10996 ] final -167.85 input  -57.11 | X-H torsion

> <Gold.Protein.ActiveResidues>
 VAL166  LYS551  ARG553  GLY616  TRP617  ASP618  TYR619  PRO620  LYS621  CYS622 
 ASP623  PHE694  ASN695  SER759  ASP760  ASP761  ALA762  ILE779  LEU786  VAL792 
 PHE793  MET794  SER795  GLU796  ALA797  LYS798  CYS799  TRP800  GLU811  SER814 

> <Gold.Protein.RotatedAtoms>
  152.1521  134.8980  160.0547 H   0  0  0  0  0  0  0  0  0  0  0  0  # atno 6907 bound_to 6896
  152.0008  133.3820  159.4189 H   0  0  0  0  0  0  0  0  0  0  0  0  # atno 6908 bound_to 6896
  150.6877  134.3758  159.5056 H   0  0  0  0  0  0  0  0  0  0  0  0  # atno 6909 bound_to 6896
  146.2405  140.1562  142.8333 H   0  0  0  0  0  0  0  0  0  0  0  0  # atno 7974 bound_to 7965
  154.6737  140.0555  157.0193 H   0  0  0  0  0  0  0  0  0  0  0  0  # atno 8008 bound_to 7997
  155.1052  140.3233  155.4518 H   0  0  0  0  0  0  0  0  0  0  0  0  # atno 8009 bound_to 7997
  156.2667  140.2024  156.6177 H   0  0  0  0  0  0  0  0  0  0  0  0  # atno 8010 bound_to 7997
  140.7285  143.4238  151.0908 H   0  0  0  0  0  0  0  0  0  0  0  0  # atno 10167 bound_to 10162
  156.4569  130.8195  151.2426 H   0  0  0  0  0  0  0  0  0  0  0  0  # atno 10718 bound_to 10713
  153.4619  135.7016  153.6045 H   0  0  0  0  0  0  0  0  0  0  0  0  # atno 10763 bound_to 10752
  153.4336  135.3797  155.2185 H   0  0  0  0  0  0  0  0  0  0  0  0  # atno 10764 bound_to 10752
  154.8727  135.3957  154.4046 H   0  0  0  0  0  0  0  0  0  0  0  0  # atno 10765 bound_to 10752
  140.5486  134.5451  157.5117 H   0  0  0  0  0  0  0  0  0  0  0  0  # atno 11005 bound_to 11000
  145.0127  140.8727  143.5214 LP  0  0  0  0  0  0  0  0  0  0  0  0  # atno 17320 bound_to 7965
  145.1598  139.2465  143.5397 LP  0  0  0  0  0  0  0  0  0  0  0  0  # atno 17321 bound_to 7965
  139.7887  143.8249  152.3148 LP  0  0  0  0  0  0  0  0  0  0  0  0  # atno 17342 bound_to 10162
  139.8226  144.7289  150.9553 LP  0  0  0  0  0  0  0  0  0  0  0  0  # atno 17343 bound_to 10162
  157.7500  131.0120  150.3366 LP  0  0  0  0  0  0  0  0  0  0  0  0  # atno 17370 bound_to 10713
  156.3757  130.3871  149.7141 LP  0  0  0  0  0  0  0  0  0  0  0  0  # atno 17371 bound_to 10713
  139.9467  134.7690  156.0546 LP  0  0  0  0  0  0  0  0  0  0  0  0  # atno 17394 bound_to 11000
  141.1185  133.6620  156.3154 LP  0  0  0  0  0  0  0  0  0  0  0  0  # atno 17395 bound_to 11000

$$$$
