AV-unprocessed.smi:1022|AV-procd|sdf|4460|dock7
  -GOLD-   22720 2433D 1   1.00000     0.00000
 Structure written by MMmdl.
 32 33  0  0  0  0  0  0  0  0  2 V2000
  151.2674  145.0672  160.2737 C   0  0  0  0  0  0  0  0  0  0  0  0
  151.1205  143.6692  160.4505 O   0  0  0  0  0  0  0  0  0  0  0  0
  152.3201  143.0488  160.8840 C   0  0  0  0  0  0  0  0  0  0  0  0
  152.3297  141.5744  160.4401 C   0  0  2  0  0  0  0  0  0  0  0  0
  153.5651  140.8256  160.9619 C   0  0  0  0  0  0  0  0  0  0  0  0
  152.2986  141.4842  158.9821 N   0  0  0  0  0  0  0  0  0  0  0  0
  151.3365  140.9106  158.2445 C   0  0  0  0  0  0  0  0  0  0  0  0
  150.3687  140.3823  158.7969 O   0  0  0  0  0  0  0  0  0  0  0  0
  151.5516  140.9917  156.9116 N   0  5  0  0  0  0  0  0  0  0  0  0
  150.5129  140.9500  156.0607 C   0  0  0  0  0  0  0  0  0  0  0  0
  150.6329  140.5122  154.7994 N   0  0  0  0  0  0  0  0  0  0  0  0
  149.4400  140.5558  154.0922 N   0  0  0  0  0  0  0  0  0  0  0  0
  148.4346  141.0343  154.8292 C   0  0  0  0  0  0  0  0  0  0  0  0
  147.0488  141.1785  154.2945 C   0  0  0  0  0  0  0  0  0  0  0  0
  146.4025  142.5361  154.1258 C   0  0  0  0  0  0  0  0  0  0  0  0
  145.9113  141.5971  155.1976 C   0  0  0  0  0  0  0  0  0  0  0  0
  148.8815  141.4810  156.4679 S   0  0  0  0  0  0  0  0  0  0  0  0
  150.3214  145.4961  159.9438 H   0  0  0  0  0  0  0  0  0  0  0  0
  152.0209  145.2922  159.5178 H   0  0  0  0  0  0  0  0  0  0  0  0
  151.5507  145.5549  161.2072 H   0  0  0  0  0  0  0  0  0  0  0  0
  153.1714  143.5785  160.4529 H   0  0  0  0  0  0  0  0  0  0  0  0
  152.4111  143.1182  161.9695 H   0  0  0  0  0  0  0  0  0  0  0  0
  151.4429  141.0797  160.8403 H   0  0  0  0  0  0  0  0  0  0  0  0
  153.5996  140.8337  162.0516 H   0  0  0  0  0  0  0  0  0  0  0  0
  154.4877  141.2783  160.5969 H   0  0  0  0  0  0  0  0  0  0  0  0
  153.5555  139.7831  160.6428 H   0  0  0  0  0  0  0  0  0  0  0  0
  153.0716  141.9015  158.4850 H   0  0  0  0  0  0  0  0  0  0  0  0
  146.8485  140.4224  153.5380 H   0  0  0  0  0  0  0  0  0  0  0  0
  146.9557  143.4147  154.4512 H   0  0  0  0  0  0  0  0  0  0  0  0
  145.7650  142.6832  153.2563 H   0  0  0  0  0  0  0  0  0  0  0  0
  144.9466  141.1180  155.0442 H   0  0  0  0  0  0  0  0  0  0  0  0
  146.1510  141.8449  156.2298 H   0  0  0  0  0  0  0  0  0  0  0  0
  1  2  1  0  0  0  0
  1 18  1  0  0  0  0
  1 19  1  0  0  0  0
  1 20  1  0  0  0  0
  2  3  1  0  0  0  0
  3  4  1  0  0  0  0
  3 21  1  0  0  0  0
  3 22  1  0  0  0  0
  4  5  1  0  0  0  0
  4  6  1  0  0  0  0
  4 23  1  0  0  0  0
  5 24  1  0  0  0  0
  5 25  1  0  0  0  0
  5 26  1  0  0  0  0
  6  7  1  0  0  0  0
  6 27  1  0  0  0  0
  7  8  2  0  0  0  0
  7  9  1  0  0  0  0
  9 10  1  0  0  0  0
 10 17  1  0  0  0  0
 10 11  2  0  0  0  0
 11 12  1  0  0  0  0
 12 13  2  0  0  0  0
 13 14  1  0  0  0  0
 13 17  1  0  0  0  0
 14 16  1  0  0  0  0
 14 15  1  0  0  0  0
 14 28  1  0  0  0  0
 15 16  1  0  0  0  0
 15 29  1  0  0  0  0
 15 30  1  0  0  0  0
 16 31  1  0  0  0  0
 16 32  1  0  0  0  0
M  CHG  1   9  -1
M  END
> <s_m_source_file>
AV-unprocessed.smi

> <i_m_source_file_index>
1022

> <i_lp_mmshare_version>
43012

> <i_f3d_flags>
0

> <s_epik_input>
W0NIM11PW0NIMl1bQ0BIXShbQ0gzXSlbTkhdQyg9TylbTkhdYzFubmMoczEpW0NIXTJbQ0gyXVtDSDJdMg==

> <s_epik_cmdline>
J2VwaWtfcHl0aG9uJywgJy1waCcsICc3LjAnLCAnLXRuJywgJzgnLCAnLW1hJywgJzIwMCcsICctbWV0YWxfYmluZGluZycsICctaW1hZScsICc8aW5maWxlLm1hZT4nLCAnLW9tYWUnLCAnPG91dGZpbGUubWFlPic=

> <r_lp_tautomer_probability>
1

> <r_epik_Ionization_Penalty>
3.79487

> <r_epik_Ionization_Penalty_Charging>
3.64217

> <r_epik_Ionization_Penalty_Neutral>
0.152695

> <r_epik_State_Penalty>
3.6409

> <r_epik_Charging_Adjusted_Penalty>
7.28307

> <i_epik_Tot_Q>
-1

> <i_epik_Tot_abs_Q>
1

> <r_epik_Metal_State_Penalty>
0.534129

> <b_epik_Metal_Only>
1

> <s_lp_Force_Field>
OPLS_2005

> <r_lp_Energy>
-0.766609

> <b_lp_Chiralities_Consistent>
1

> <s_lp_Variant>
AV-unprocessed.smi:1022-3

> <Gold.Version>
5.8.1

> <Gold.Id.Protein>
6NUR|6NUR_protein|mol2

> <Gold.PLP.Fitness>
35.8050

> <Gold.PLP.PLP>
-33.6564

> <Gold.PLP.part.hbond>
-2.0000

> <Gold.PLP.part.metal>
0.0000

> <Gold.PLP.part.buried>
-4.2902

> <Gold.PLP.part.nonpolar>
-28.8026

> <Gold.PLP.part.repulsive>
1.5984

> <Gold.PLP.ligand.clash>
0.0000

> <Gold.PLP.ligand.torsion>
0.5156

> <Gold.PLP.Chemscore.Hbond>
1.0000

> <Gold.PLP.Chemscore.CHOScore>
0.0000

> <Gold.PLP.Chemscore.Metal>
0.0000

> <Gold.Chemscore.Hbonds>
donor molecule, donor type, donor heavy atom, donor atom, acceptor molecule, acceptor atom, score
      P1  H  7989  7998       L1    11  0.80

> <Gold.PLP.Chemscore.Internal.Correction>
0.1797

> <Gold.Rescore>
     Score         DG    S(hbond)    S(metal)    S(lipo)     H(rot)  DE(clash)    DE(int)     intcor
     10.68     -11.60       0.75        0.00      67.98       1.69       0.19       0.73       ----

> <Gold.Chemscore.Fitness>
10.6818

> <Gold.Chemscore.DG>
-11.6016

> <Gold.Chemscore.ZeroCoef>
-5.4800

> <Gold.Chemscore.Hbond>
0.7483

> <Gold.Chemscore.Metal>
0.0000

> <Gold.Chemscore.Lipo>
67.9819

> <Gold.Chemscore.Internal_Hbond>
0.0000

> <Gold.Chemscore.DEClash>
0.1911

> <Gold.Chemscore.DEInternal>
0.7288

> <Gold.Chemscore.Rot>
1.6921

> <Gold.Chemscore.Internal.Correction>
   9.000000E+99

> <Gold.Chemscore.Hbonds>
donor molecule, donor type, donor heavy atom, donor atom, acceptor molecule, acceptor atom, score
      P1  H  7989  7998       L1    11  0.11

> <Gold.Chemscore.Hbond.Weighted>
-2.4994

> <Gold.Chemscore.Metal.Weighted>
-0.0000

> <Gold.Chemscore.Lipo.Weighted>
-7.9539

> <Gold.Chemscore.Internal_Hbond.Weighted>
0.0000

> <Gold.Chemscore.DEClash.Weighted>
0.1911

> <Gold.Chemscore.DEInternal.Weighted>
0.7288

> <Gold.Chemscore.Rot.Weighted>
4.3317

> <Gold.Chemscore.Internal.Correction.Weighted>
   9.000000E+99

> <Gold.Protein.RotatedTorsions>
[ 6907 6896 6895 6894 ] final   75.11 input  -60.11 | X-H torsion
[ 7974 7965 7964 7962 ] final -145.82 input  175.53 | X-H torsion
[ 8008 7997 7996 7995 ] final -149.06 input   59.86 | X-H torsion
[ 10167 10162 10161 10158 ] final -140.76 input  -65.29 | X-H torsion
[ 10718 10713 10712 10709 ] final -175.06 input   66.30 | X-H torsion
[ 10763 10752 10751 10750 ] final  106.54 input  -60.55 | X-H torsion
[ 11005 11000 10999 10996 ] final   44.35 input  -57.11 | X-H torsion

> <Gold.Protein.ActiveResidues>
 VAL166  LYS551  ARG553  GLY616  TRP617  ASP618  TYR619  PRO620  LYS621  CYS622 
 ASP623  PHE694  ASN695  SER759  ASP760  ASP761  ALA762  ILE779  LEU786  VAL792 
 PHE793  MET794  SER795  GLU796  ALA797  LYS798  CYS799  TRP800  GLU811  SER814 

> <Gold.Protein.RotatedAtoms>
  152.5010  134.4170  159.9467 H   0  0  0  0  0  0  0  0  0  0  0  0  # atno 6907 bound_to 6896
  151.4141  133.3712  159.2755 H   0  0  0  0  0  0  0  0  0  0  0  0  # atno 6908 bound_to 6896
  150.9270  134.8709  159.7586 H   0  0  0  0  0  0  0  0  0  0  0  0  # atno 6909 bound_to 6896
  144.8201  140.5534  143.5584 H   0  0  0  0  0  0  0  0  0  0  0  0  # atno 7974 bound_to 7965
  155.6016  140.0662  157.2731 H   0  0  0  0  0  0  0  0  0  0  0  0  # atno 8008 bound_to 7997
  154.4277  140.1817  156.1226 H   0  0  0  0  0  0  0  0  0  0  0  0  # atno 8009 bound_to 7997
  156.0155  140.3322  155.6988 H   0  0  0  0  0  0  0  0  0  0  0  0  # atno 8010 bound_to 7997
  139.8250  143.7522  152.2666 H   0  0  0  0  0  0  0  0  0  0  0  0  # atno 10167 bound_to 10162
  156.7943  130.9529  151.3120 H   0  0  0  0  0  0  0  0  0  0  0  0  # atno 10718 bound_to 10713
  153.3944  135.3873  155.1945 H   0  0  0  0  0  0  0  0  0  0  0  0  # atno 10763 bound_to 10752
  154.8723  135.3756  154.4697 H   0  0  0  0  0  0  0  0  0  0  0  0  # atno 10764 bound_to 10752
  153.5187  135.7087  153.5804 H   0  0  0  0  0  0  0  0  0  0  0  0  # atno 10765 bound_to 10752
  140.1560  134.4402  155.8349 H   0  0  0  0  0  0  0  0  0  0  0  0  # atno 11005 bound_to 11000
  145.5125  139.1479  143.3597 LP  0  0  0  0  0  0  0  0  0  0  0  0  # atno 17320 bound_to 7965
  146.2506  140.5265  142.8895 LP  0  0  0  0  0  0  0  0  0  0  0  0  # atno 17321 bound_to 7965
  139.7712  144.7476  151.0221 LP  0  0  0  0  0  0  0  0  0  0  0  0  # atno 17342 bound_to 10162
  140.7811  143.4643  151.0235 LP  0  0  0  0  0  0  0  0  0  0  0  0  # atno 17343 bound_to 10162
  157.6585  130.8945  149.9780 LP  0  0  0  0  0  0  0  0  0  0  0  0  # atno 17370 bound_to 10713
  156.1140  130.3648  150.0000 LP  0  0  0  0  0  0  0  0  0  0  0  0  # atno 17371 bound_to 10713
  141.2204  133.6892  156.7507 LP  0  0  0  0  0  0  0  0  0  0  0  0  # atno 17394 bound_to 11000
  140.2547  134.8513  157.3701 LP  0  0  0  0  0  0  0  0  0  0  0  0  # atno 17395 bound_to 11000

$$$$
