AV-unprocessed.smi:3227|AV-procd|sdf|12317|dock8
  -GOLD-   2272018163D 1   1.00000     0.00000
 Structure written by MMmdl.
 37 38  0  0  0  0  0  0  0  0  1 V2000
  148.0284  139.7294  155.2676 C   0  0  0  0  0  0  0  0  0  0  0  0
  149.3334  140.2551  155.6433 N   0  0  0  0  0  0  0  0  0  0  0  0
  149.6970  141.5439  155.0673 C   0  0  0  0  0  0  0  0  0  0  0  0
  150.3410  139.2698  155.6566 C   0  0  0  0  0  0  0  0  0  0  0  0
  151.3295  139.3843  154.7357 N   0  0  0  0  0  0  0  0  0  0  0  0
  152.3017  138.4506  154.7026 C   0  0  0  0  0  0  0  0  0  0  0  0
  152.3481  137.3576  155.5852 C   0  0  0  0  0  0  0  0  0  0  0  0
  151.3288  137.2315  156.5458 C   0  0  0  0  0  0  0  0  0  0  0  0
  150.2912  138.1946  156.5852 C   0  0  0  0  0  0  0  0  0  0  0  0
  149.2533  138.1568  157.5599 N   0  0  0  0  0  0  0  0  0  0  0  0
  148.9854  137.1920  158.4584 C   0  0  0  0  0  0  0  0  0  0  0  0
  149.6145  136.1395  158.5637 O   0  0  0  0  0  0  0  0  0  0  0  0
  147.7890  137.4444  159.3734 C   0  0  0  0  0  0  0  0  0  0  0  0
  148.2001  137.2564  160.7172 O   0  0  0  0  0  0  0  0  0  0  0  0
  147.1074  137.0561  161.5966 C   0  0  0  0  0  0  0  0  0  0  0  0
  147.2789  135.7292  162.3045 C   0  0  0  0  0  0  0  0  0  0  0  0
  147.0732  134.4257  161.5665 C   0  0  0  0  0  0  0  0  0  0  0  0
  146.0743  134.8662  162.6056 C   0  0  0  0  0  0  0  0  0  0  0  0
  147.7171  138.9202  155.9282 H   0  0  0  0  0  0  0  0  0  0  0  0
  148.0508  139.3477  154.2462 H   0  0  0  0  0  0  0  0  0  0  0  0
  147.2723  140.5128  155.3212 H   0  0  0  0  0  0  0  0  0  0  0  0
  150.6827  141.8607  155.4104 H   0  0  0  0  0  0  0  0  0  0  0  0
  148.9778  142.3063  155.3672 H   0  0  0  0  0  0  0  0  0  0  0  0
  149.7071  141.4948  153.9780 H   0  0  0  0  0  0  0  0  0  0  0  0
  153.0689  138.5827  153.9540 H   0  0  0  0  0  0  0  0  0  0  0  0
  153.1513  136.6378  155.5327 H   0  0  0  0  0  0  0  0  0  0  0  0
  151.3716  136.4117  157.2463 H   0  0  0  0  0  0  0  0  0  0  0  0
  148.5887  138.9158  157.5130 H   0  0  0  0  0  0  0  0  0  0  0  0
  147.4358  138.4654  159.2209 H   0  0  0  0  0  0  0  0  0  0  0  0
  146.9677  136.7678  159.1294 H   0  0  0  0  0  0  0  0  0  0  0  0
  147.0710  137.8517  162.3423 H   0  0  0  0  0  0  0  0  0  0  0  0
  146.1641  137.0652  161.0481 H   0  0  0  0  0  0  0  0  0  0  0  0
  148.0551  135.7352  163.0675 H   0  0  0  0  0  0  0  0  0  0  0  0
  146.7676  134.4757  160.5232 H   0  0  0  0  0  0  0  0  0  0  0  0
  147.7315  133.5973  161.8199 H   0  0  0  0  0  0  0  0  0  0  0  0
  146.0646  134.3308  163.5530 H   0  0  0  0  0  0  0  0  0  0  0  0
  145.1030  135.2080  162.2533 H   0  0  0  0  0  0  0  0  0  0  0  0
  1  2  1  0  0  0  0
  1 19  1  0  0  0  0
  1 20  1  0  0  0  0
  1 21  1  0  0  0  0
  2  3  1  0  0  0  0
  2  4  1  0  0  0  0
  3 22  1  0  0  0  0
  3 23  1  0  0  0  0
  3 24  1  0  0  0  0
  4  9  1  0  0  0  0
  4  5  2  0  0  0  0
  5  6  1  0  0  0  0
  6  7  2  0  0  0  0
  6 25  1  0  0  0  0
  7  8  1  0  0  0  0
  7 26  1  0  0  0  0
  8  9  2  0  0  0  0
  8 27  1  0  0  0  0
  9 10  1  0  0  0  0
 10 11  1  0  0  0  0
 10 28  1  0  0  0  0
 11 12  2  0  0  0  0
 11 13  1  0  0  0  0
 13 14  1  0  0  0  0
 13 29  1  0  0  0  0
 13 30  1  0  0  0  0
 14 15  1  0  0  0  0
 15 16  1  0  0  0  0
 15 31  1  0  0  0  0
 15 32  1  0  0  0  0
 16 18  1  0  0  0  0
 16 17  1  0  0  0  0
 16 33  1  0  0  0  0
 17 18  1  0  0  0  0
 17 34  1  0  0  0  0
 17 35  1  0  0  0  0
 18 36  1  0  0  0  0
 18 37  1  0  0  0  0
M  END
> <s_m_source_file>
AV-unprocessed.smi

> <i_m_source_file_index>
3227

> <i_lp_mmshare_version>
43012

> <i_f3d_flags>
0

> <s_epik_input>
W0NIM11OKFtDSDNdKWMxbltjSF1bY0hdW2NIXWMxW05IXUMoPU8pW0NIMl1PW0NIMl1bQ0hdMltDSDJdW0NIMl0y

> <s_epik_cmdline>
J2VwaWtfcHl0aG9uJywgJy1waCcsICc3LjAnLCAnLXRuJywgJzgnLCAnLW1hJywgJzIwMCcsICctbWV0YWxfYmluZGluZycsICctaW1hZScsICc8aW5maWxlLm1hZT4nLCAnLW9tYWUnLCAnPG91dGZpbGUubWFlPic=

> <r_lp_tautomer_probability>
1

> <r_epik_Ionization_Penalty>
0.25353

> <r_epik_Ionization_Penalty_Charging>
0

> <r_epik_Ionization_Penalty_Neutral>
0.25353

> <r_epik_State_Penalty>
0.244789

> <r_epik_Charging_Adjusted_Penalty>
0.244789

> <i_epik_Tot_Q>
0

> <i_epik_Tot_abs_Q>
0

> <r_epik_Metal_State_Penalty>
0.170372

> <b_epik_Metal_Only>
0

> <s_lp_Force_Field>
OPLS_2005

> <r_lp_Energy>
22.5303

> <b_lp_Chiralities_Consistent>
1

> <s_lp_Variant>
AV-unprocessed.smi:3227-1

> <Gold.Version>
5.8.1

> <Gold.Id.Protein>
6NUR|6NUR_protein|mol2

> <Gold.PLP.Fitness>
37.5409

> <Gold.PLP.PLP>
-30.2496

> <Gold.PLP.part.hbond>
-4.0000

> <Gold.PLP.part.metal>
0.0000

> <Gold.PLP.part.buried>
-5.0565

> <Gold.PLP.part.nonpolar>
-22.0737

> <Gold.PLP.part.repulsive>
0.1533

> <Gold.PLP.ligand.clash>
0.0000

> <Gold.PLP.ligand.torsion>
1.1804

> <Gold.PLP.Chemscore.Hbond>
2.9288

> <Gold.PLP.Chemscore.CHOScore>
0.0000

> <Gold.PLP.Chemscore.Metal>
0.0000

> <Gold.Chemscore.Hbonds>
donor molecule, donor type, donor heavy atom, donor atom, acceptor molecule, acceptor atom, score
      P1  H  6896  6909       L1    12  0.84
      P1  H  6931  6943       L1    14  0.49
      P1  H  7989  7998       L1     5  1.00

> <Gold.PLP.Chemscore.Internal.Correction>
0.8657

> <Gold.Rescore>
     Score         DG    S(hbond)    S(metal)    S(lipo)     H(rot)  DE(clash)    DE(int)     intcor
     14.22     -16.82       2.29        0.00      68.18       1.68       0.00       2.60       ----

> <Gold.Chemscore.Fitness>
14.2199

> <Gold.Chemscore.DG>
-16.8214

> <Gold.Chemscore.ZeroCoef>
-5.4800

> <Gold.Chemscore.Hbond>
2.2927

> <Gold.Chemscore.Metal>
0.0000

> <Gold.Chemscore.Lipo>
68.1812

> <Gold.Chemscore.Internal_Hbond>
0.0000

> <Gold.Chemscore.DEClash>
0.0009

> <Gold.Chemscore.DEInternal>
2.6005

> <Gold.Chemscore.Rot>
1.6771

> <Gold.Chemscore.Internal.Correction>
   9.000000E+99

> <Gold.Chemscore.Hbonds>
donor molecule, donor type, donor heavy atom, donor atom, acceptor molecule, acceptor atom, score
      P1  H  6896  6909       L1    12  0.82
      P1  H  6931  6943       L1    14  0.03
      P1  H  7989  7998       L1     5  0.84

> <Gold.Chemscore.Hbond.Weighted>
-7.6576

> <Gold.Chemscore.Metal.Weighted>
-0.0000

> <Gold.Chemscore.Lipo.Weighted>
-7.9772

> <Gold.Chemscore.Internal_Hbond.Weighted>
0.0000

> <Gold.Chemscore.DEClash.Weighted>
0.0009

> <Gold.Chemscore.DEInternal.Weighted>
2.6005

> <Gold.Chemscore.Rot.Weighted>
4.2935

> <Gold.Chemscore.Internal.Correction.Weighted>
   9.000000E+99

> <Gold.Protein.RotatedTorsions>
[ 6907 6896 6895 6894 ] final   58.87 input  -60.11 | X-H torsion
[ 7974 7965 7964 7962 ] final -170.20 input  175.53 | X-H torsion
[ 8008 7997 7996 7995 ] final  -11.18 input   59.86 | X-H torsion
[ 10167 10162 10161 10158 ] final -141.58 input  -65.29 | X-H torsion
[ 10718 10713 10712 10709 ] final -105.70 input   66.30 | X-H torsion
[ 10763 10752 10751 10750 ] final  151.62 input  -60.55 | X-H torsion
[ 11005 11000 10999 10996 ] final   14.76 input  -57.11 | X-H torsion

> <Gold.Protein.ActiveResidues>
 VAL166  LYS551  ARG553  GLY616  TRP617  ASP618  TYR619  PRO620  LYS621  CYS622 
 ASP623  PHE694  ASN695  SER759  ASP760  ASP761  ALA762  ILE779  LEU786  VAL792 
 PHE793  MET794  SER795  GLU796  ALA797  LYS798  CYS799  TRP800  GLU811  SER814 

> <Gold.Protein.RotatedAtoms>
  152.3863  134.6512  160.0124 H   0  0  0  0  0  0  0  0  0  0  0  0  # atno 6907 bound_to 6896
  151.6759  133.3307  159.3216 H   0  0  0  0  0  0  0  0  0  0  0  0  # atno 6908 bound_to 6896
  150.7788  134.6758  159.6461 H   0  0  0  0  0  0  0  0  0  0  0  0  # atno 6909 bound_to 6896
  144.7173  140.2107  143.6328 H   0  0  0  0  0  0  0  0  0  0  0  0  # atno 7974 bound_to 7965
  154.5487  140.2309  155.8520 H   0  0  0  0  0  0  0  0  0  0  0  0  # atno 8008 bound_to 7997
  156.1927  140.3073  155.9326 H   0  0  0  0  0  0  0  0  0  0  0  0  # atno 8009 bound_to 7997
  155.3113  140.0436  157.3025 H   0  0  0  0  0  0  0  0  0  0  0  0  # atno 8010 bound_to 7997
  139.8170  143.7625  152.2665 H   0  0  0  0  0  0  0  0  0  0  0  0  # atno 10167 bound_to 10162
  156.0357  130.5576  150.7576 H   0  0  0  0  0  0  0  0  0  0  0  0  # atno 10718 bound_to 10713
  154.1068  135.2842  155.3239 H   0  0  0  0  0  0  0  0  0  0  0  0  # atno 10763 bound_to 10752
  154.6518  135.5366  153.7914 H   0  0  0  0  0  0  0  0  0  0  0  0  # atno 10764 bound_to 10752
  153.0359  135.6512  154.1228 H   0  0  0  0  0  0  0  0  0  0  0  0  # atno 10765 bound_to 10752
  140.4659  134.1080  155.7724 H   0  0  0  0  0  0  0  0  0  0  0  0  # atno 11005 bound_to 11000
  145.8594  139.2215  143.1726 LP  0  0  0  0  0  0  0  0  0  0  0  0  # atno 17320 bound_to 7965
  146.0188  140.8368  142.9934 LP  0  0  0  0  0  0  0  0  0  0  0  0  # atno 17321 bound_to 7965
  139.7791  144.7450  151.0114 LP  0  0  0  0  0  0  0  0  0  0  0  0  # atno 17342 bound_to 10162
  140.7815  143.4561  151.0343 LP  0  0  0  0  0  0  0  0  0  0  0  0  # atno 17343 bound_to 10162
  157.5104  131.0925  151.0205 LP  0  0  0  0  0  0  0  0  0  0  0  0  # atno 17370 bound_to 10713
  157.0562  130.5807  149.5378 LP  0  0  0  0  0  0  0  0  0  0  0  0  # atno 17371 bound_to 10713
  141.1600  133.8811  157.1875 LP  0  0  0  0  0  0  0  0  0  0  0  0  # atno 17394 bound_to 11000
  139.9916  135.0062  156.9987 LP  0  0  0  0  0  0  0  0  0  0  0  0  # atno 17395 bound_to 11000

$$$$
