AV-unprocessed.smi:2526|AV-procd|sdf|9934|dock5
  -GOLD-   2272013573D 1   1.00000     0.00000
 Structure written by MMmdl.
 29 30  0  0  0  0  0  0  0  0  2 V2000
  151.8724  145.5881  159.5572 C   0  0  0  0  0  0  0  0  0  0  0  0
  151.8383  144.1798  159.2260 N   0  0  0  0  0  0  0  0  0  0  0  0
  151.1788  143.5564  158.1893 C   0  0  0  0  0  0  0  0  0  0  0  0
  151.4433  142.2168  158.2773 C   0  0  0  0  0  0  0  0  0  0  0  0
  150.9639  141.0869  157.3975 C   0  0  2  0  0  0  0  0  0  0  0  0
  152.0972  140.3000  156.9037 N   0  0  0  0  0  0  0  0  0  0  0  0
  152.1982  139.6927  155.7077 C   0  0  0  0  0  0  0  0  0  0  0  0
  153.1716  139.0007  155.4214 O   0  0  0  0  0  0  0  0  0  0  0  0
  151.0886  139.9011  154.6655 C   0  0  0  0  0  0  0  0  0  0  0  0
  149.7893  140.4786  155.2510 C   0  0  0  0  0  0  0  0  0  0  0  0
  150.0892  141.6143  156.2362 C   0  0  1  0  0  0  0  0  0  0  0  0
  148.8455  142.2355  156.7274 N   0  3  0  0  0  0  0  0  0  0  0  0
  152.2912  142.1278  159.4192 C   0  0  0  0  0  0  0  0  0  0  0  0
  152.5224  143.3000  159.9849 N   0  0  0  0  0  0  0  0  0  0  0  0
  151.0540  146.1085  159.0586 H   0  0  0  0  0  0  0  0  0  0  0  0
  152.8196  146.0184  159.2305 H   0  0  0  0  0  0  0  0  0  0  0  0
  151.7709  145.7217  160.6349 H   0  0  0  0  0  0  0  0  0  0  0  0
  150.5799  144.1119  157.4820 H   0  0  0  0  0  0  0  0  0  0  0  0
  150.3633  140.3938  157.9889 H   0  0  0  0  0  0  0  0  0  0  0  0
  152.8587  140.1606  157.5527 H   0  0  0  0  0  0  0  0  0  0  0  0
  151.4774  140.5821  153.9077 H   0  0  0  0  0  0  0  0  0  0  0  0
  150.8834  138.9574  154.1586 H   0  0  0  0  0  0  0  0  0  0  0  0
  149.1565  140.8397  154.4394 H   0  0  0  0  0  0  0  0  0  0  0  0
  149.2282  139.6876  155.7514 H   0  0  0  0  0  0  0  0  0  0  0  0
  150.6392  142.3913  155.7023 H   0  0  0  0  0  0  0  0  0  0  0  0
  148.7745  142.1069  157.7267 H   0  0  0  0  0  0  0  0  0  0  0  0
  148.0520  141.8042  156.2752 H   0  0  0  0  0  0  0  0  0  0  0  0
  152.7410  141.2472  159.8537 H   0  0  0  0  0  0  0  0  0  0  0  0
  148.8576  143.2228  156.5143 H   0  0  0  0  0  0  0  0  0  0  0  0
  1  2  1  0  0  0  0
  1 15  1  0  0  0  0
  1 16  1  0  0  0  0
  1 17  1  0  0  0  0
  2 14  1  0  0  0  0
  2  3  1  0  0  0  0
  3  4  2  0  0  0  0
  3 18  1  0  0  0  0
  4  5  1  0  0  0  0
  4 13  1  0  0  0  0
  5 11  1  0  0  0  0
  5  6  1  0  0  0  0
  5 19  1  0  0  0  0
  6  7  1  0  0  0  0
  6 20  1  0  0  0  0
  7  8  2  0  0  0  0
  7  9  1  0  0  0  0
  9 10  1  0  0  0  0
  9 21  1  0  0  0  0
  9 22  1  0  0  0  0
 10 11  1  0  0  0  0
 10 23  1  0  0  0  0
 10 24  1  0  0  0  0
 11 12  1  0  0  0  0
 11 25  1  0  0  0  0
 12 26  1  0  0  0  0
 12 27  1  0  0  0  0
 12 29  1  0  0  0  0
 13 14  2  0  0  0  0
 13 28  1  0  0  0  0
M  CHG  1  12   1
M  END
> <s_m_source_file>
AV-unprocessed.smi

> <i_m_source_file_index>
2526

> <i_lp_mmshare_version>
43012

> <i_f3d_flags>
0

> <s_epik_input>
W0NIM11uMVtjSF1jKFtjSF1uMSlbQ0BASF0yW05IXUMoPU8pW0NIMl1bQ0gyXVtDQEhdMltOSDJd

> <s_epik_cmdline>
J2VwaWtfcHl0aG9uJywgJy1waCcsICc3LjAnLCAnLXRuJywgJzgnLCAnLW1hJywgJzIwMCcsICctbWV0YWxfYmluZGluZycsICctaW1hZScsICc8aW5maWxlLm1hZT4nLCAnLW9tYWUnLCAnPG91dGZpbGUubWFlPic=

> <r_lp_tautomer_probability>
1

> <r_epik_Ionization_Penalty>
0.00878543

> <r_epik_Ionization_Penalty_Charging>
0.00874185

> <r_epik_Ionization_Penalty_Neutral>
4.35793e-05

> <r_epik_State_Penalty>
0.00660351

> <r_epik_Charging_Adjusted_Penalty>
0.0153454

> <i_epik_Tot_Q>
1

> <i_epik_Tot_abs_Q>
1

> <r_epik_Metal_State_Penalty>
0.00660727

> <b_epik_Metal_Only>
0

> <s_lp_Force_Field>
OPLS_2005

> <r_lp_Energy>
10.7235

> <b_lp_Chiralities_Consistent>
1

> <s_lp_Variant>
AV-unprocessed.smi:2526-1

> <Gold.Version>
5.8.1

> <Gold.Id.Protein>
6NUR|6NUR_protein|mol2

> <Gold.PLP.Fitness>
41.5850

> <Gold.PLP.PLP>
-30.0995

> <Gold.PLP.part.hbond>
-2.0000

> <Gold.PLP.part.metal>
0.0000

> <Gold.PLP.part.buried>
-1.7548

> <Gold.PLP.part.nonpolar>
-26.9134

> <Gold.PLP.part.repulsive>
0.1210

> <Gold.PLP.ligand.clash>
0.0000

> <Gold.PLP.ligand.torsion>
0.0430

> <Gold.PLP.Chemscore.Hbond>
2.8500

> <Gold.PLP.Chemscore.CHOScore>
1.0000

> <Gold.PLP.Chemscore.Metal>
0.0000

> <Gold.Chemscore.Hbonds>
donor molecule, donor type, donor heavy atom, donor atom, acceptor molecule, acceptor atom, score
      L1  H    12    29       P1  8028  2.00
      P1  H  7997  8008       L1     8  0.85
      L1  C     3    18       P1  8028  0.99

> <Gold.PLP.Chemscore.Internal.Correction>
0.0215

> <Gold.Rescore>
     Score         DG    S(hbond)    S(metal)    S(lipo)     H(rot)  DE(clash)    DE(int)     intcor
     14.15     -14.25       1.04        0.00      67.03       1.00       0.07       0.03       ----

> <Gold.Chemscore.Fitness>
14.1484

> <Gold.Chemscore.DG>
-14.2452

> <Gold.Chemscore.ZeroCoef>
-5.4800

> <Gold.Chemscore.Hbond>
1.0429

> <Gold.Chemscore.Metal>
0.0000

> <Gold.Chemscore.Lipo>
67.0262

> <Gold.Chemscore.Internal_Hbond>
0.0000

> <Gold.Chemscore.DEClash>
0.0710

> <Gold.Chemscore.DEInternal>
0.0258

> <Gold.Chemscore.Rot>
1.0000

> <Gold.Chemscore.Internal.Correction>
   9.000000E+99

> <Gold.Chemscore.Hbonds>
donor molecule, donor type, donor heavy atom, donor atom, acceptor molecule, acceptor atom, score
      L1  H    12    29       P1  8028  0.94
      P1  H  7997  8008       L1     8  0.15

> <Gold.Chemscore.Hbond.Weighted>
-3.4832

> <Gold.Chemscore.Metal.Weighted>
-0.0000

> <Gold.Chemscore.Lipo.Weighted>
-7.8421

> <Gold.Chemscore.Internal_Hbond.Weighted>
0.0000

> <Gold.Chemscore.DEClash.Weighted>
0.0710

> <Gold.Chemscore.DEInternal.Weighted>
0.0258

> <Gold.Chemscore.Rot.Weighted>
2.5600

> <Gold.Chemscore.Internal.Correction.Weighted>
   9.000000E+99

> <Gold.Protein.RotatedTorsions>
[ 6907 6896 6895 6894 ] final  156.40 input  -60.11 | X-H torsion
[ 7974 7965 7964 7962 ] final  -60.35 input  175.53 | X-H torsion
[ 8008 7997 7996 7995 ] final  -21.06 input   59.86 | X-H torsion
[ 10167 10162 10161 10158 ] final   -2.91 input  -65.29 | X-H torsion
[ 10718 10713 10712 10709 ] final   40.18 input   66.30 | X-H torsion
[ 10763 10752 10751 10750 ] final  -46.69 input  -60.55 | X-H torsion
[ 11005 11000 10999 10996 ] final    2.48 input  -57.11 | X-H torsion

> <Gold.Protein.ActiveResidues>
 VAL166  LYS551  ARG553  GLY616  TRP617  ASP618  TYR619  PRO620  LYS621  CYS622 
 ASP623  PHE694  ASN695  SER759  ASP760  ASP761  ALA762  ILE779  LEU786  VAL792 
 PHE793  MET794  SER795  GLU796  ALA797  LYS798  CYS799  TRP800  GLU811  SER814 

> <Gold.Protein.RotatedAtoms>
  152.0302  133.3934  159.4293 H   0  0  0  0  0  0  0  0  0  0  0  0  # atno 6907 bound_to 6896
  150.6883  134.3530  159.4926 H   0  0  0  0  0  0  0  0  0  0  0  0  # atno 6908 bound_to 6896
  152.1315  134.9131  160.0609 H   0  0  0  0  0  0  0  0  0  0  0  0  # atno 6909 bound_to 6896
  145.8166  140.8566  143.0154 H   0  0  0  0  0  0  0  0  0  0  0  0  # atno 7974 bound_to 7965
  154.4730  140.2045  155.9948 H   0  0  0  0  0  0  0  0  0  0  0  0  # atno 8008 bound_to 7997
  156.1042  140.3239  155.7953 H   0  0  0  0  0  0  0  0  0  0  0  0  # atno 8009 bound_to 7997
  155.4746  140.0534  157.2966 H   0  0  0  0  0  0  0  0  0  0  0  0  # atno 8010 bound_to 7997
  140.6869  143.6602  150.8273 H   0  0  0  0  0  0  0  0  0  0  0  0  # atno 10167 bound_to 10162
  157.3792  130.7744  149.7179 H   0  0  0  0  0  0  0  0  0  0  0  0  # atno 10718 bound_to 10713
  154.0491  135.6633  153.4798 H   0  0  0  0  0  0  0  0  0  0  0  0  # atno 10763 bound_to 10752
  153.0471  135.5108  154.7768 H   0  0  0  0  0  0  0  0  0  0  0  0  # atno 10764 bound_to 10752
  154.6769  135.3038  154.9633 H   0  0  0  0  0  0  0  0  0  0  0  0  # atno 10765 bound_to 10752
  140.6038  133.9811  155.8144 H   0  0  0  0  0  0  0  0  0  0  0  0  # atno 11005 bound_to 11000
  144.6752  140.0473  143.7479 LP  0  0  0  0  0  0  0  0  0  0  0  0  # atno 17320 bound_to 7965
  145.9720  139.2877  143.1093 LP  0  0  0  0  0  0  0  0  0  0  0  0  # atno 17321 bound_to 7965
  140.0310  143.5443  152.2760 LP  0  0  0  0  0  0  0  0  0  0  0  0  # atno 17342 bound_to 10162
  139.6236  144.7633  151.2686 LP  0  0  0  0  0  0  0  0  0  0  0  0  # atno 17343 bound_to 10162
  155.9772  130.4066  150.3729 LP  0  0  0  0  0  0  0  0  0  0  0  0  # atno 17370 bound_to 10713
  157.1830  131.0397  151.2739 LP  0  0  0  0  0  0  0  0  0  0  0  0  # atno 17371 bound_to 10713
  141.0854  133.9998  157.3321 LP  0  0  0  0  0  0  0  0  0  0  0  0  # atno 17394 bound_to 11000
  139.9221  135.0201  156.8102 LP  0  0  0  0  0  0  0  0  0  0  0  0  # atno 17395 bound_to 11000

$$$$
