AV-unprocessed.smi:2597|AV-procd|sdf|10176|dock3
  -GOLD-   2272014193D 1   1.00000     0.00000
 Structure written by MMmdl.
 30 31  0  0  0  0  0  0  0  0  1 V2000
  149.9067  144.0782  158.2252 N   0  0  0  0  0  0  0  0  0  0  0  0
  151.2402  143.5507  158.4582 C   0  0  1  0  0  0  0  0  0  0  0  0
  151.7502  144.0974  159.8054 C   0  0  0  0  0  0  0  0  0  0  0  0
  153.1249  143.5140  160.1647 C   0  0  0  0  0  0  0  0  0  0  0  0
  153.0855  141.9790  160.1816 C   0  0  0  0  0  0  0  0  0  0  0  0
  152.5960  141.4252  158.8349 C   0  0  0  0  0  0  0  0  0  0  0  0
  151.2157  142.0004  158.4519 C   0  0  2  0  0  0  0  0  0  0  0  0
  150.7680  141.4561  157.1756 N   0  0  0  0  0  0  0  0  0  0  0  0
  149.5287  141.5857  156.5835 C   0  0  0  0  0  0  0  0  0  0  0  0
  149.6513  140.8745  155.4234 C   0  0  0  0  0  0  0  0  0  0  0  0
  148.6408  140.6389  154.3425 C   0  0  0  0  0  0  0  0  0  0  0  0
  149.1893  141.1602  153.1512 O   0  0  0  0  0  0  0  0  0  0  0  0
  150.9403  140.3477  155.3573 N   0  0  0  0  0  0  0  0  0  0  0  0
  151.5990  140.6983  156.4166 N   0  0  0  0  0  0  0  0  0  0  0  0
  151.8922  143.9116  157.6619 H   0  0  0  0  0  0  0  0  0  0  0  0
  150.5014  141.6689  159.2080 H   0  0  0  0  0  0  0  0  0  0  0  0
  149.7274  144.1112  157.2314 H   0  0  0  0  0  0  0  0  0  0  0  0
  149.2210  143.4492  158.6176 H   0  0  0  0  0  0  0  0  0  0  0  0
  151.8133  145.1857  159.7690 H   0  0  0  0  0  0  0  0  0  0  0  0
  151.0413  143.8554  160.5991 H   0  0  0  0  0  0  0  0  0  0  0  0
  153.8677  143.8543  159.4421 H   0  0  0  0  0  0  0  0  0  0  0  0
  153.4451  143.8886  161.1374 H   0  0  0  0  0  0  0  0  0  0  0  0
  154.0765  141.5844  160.4075 H   0  0  0  0  0  0  0  0  0  0  0  0
  152.4261  141.6373  160.9805 H   0  0  0  0  0  0  0  0  0  0  0  0
  153.3293  141.6650  158.0636 H   0  0  0  0  0  0  0  0  0  0  0  0
  152.5451  140.3370  158.8840 H   0  0  0  0  0  0  0  0  0  0  0  0
  148.7099  142.1402  157.0169 H   0  0  0  0  0  0  0  0  0  0  0  0
  148.4371  139.5753  154.2175 H   0  0  0  0  0  0  0  0  0  0  0  0
  147.6951  141.1373  154.5576 H   0  0  0  0  0  0  0  0  0  0  0  0
  149.0418  140.5374  152.4561 H   0  0  0  0  0  0  0  0  0  0  0  0
  1  2  1  0  0  0  0
  1 17  1  0  0  0  0
  1 18  1  0  0  0  0
  2 15  1  0  0  0  0
  2  7  1  0  0  0  0
  2  3  1  0  0  0  0
  3  4  1  0  0  0  0
  3 19  1  0  0  0  0
  3 20  1  0  0  0  0
  4  5  1  0  0  0  0
  4 21  1  0  0  0  0
  4 22  1  0  0  0  0
  5  6  1  0  0  0  0
  5 23  1  0  0  0  0
  5 24  1  0  0  0  0
  6  7  1  0  0  0  0
  6 25  1  0  0  0  0
  6 26  1  0  0  0  0
  7 16  1  0  0  0  0
  7  8  1  0  0  0  0
  8 14  1  0  0  0  0
  8  9  1  0  0  0  0
  9 10  2  0  0  0  0
  9 27  1  0  0  0  0
 10 11  1  0  0  0  0
 10 13  1  0  0  0  0
 11 12  1  0  0  0  0
 11 28  1  0  0  0  0
 11 29  1  0  0  0  0
 12 30  1  0  0  0  0
 13 14  2  0  0  0  0
M  END
> <s_m_source_file>
AV-unprocessed.smi

> <i_m_source_file_index>
2597

> <i_lp_mmshare_version>
43012

> <i_f3d_flags>
0

> <s_epik_input>
W05IMl1bQ0BIXTFbQ0gyXVtDSDJdW0NIMl1bQ0gyXVtDQEhdMW4yW2NIXWMobm4yKVtDSDJdW09IXQ==

> <s_epik_cmdline>
J2VwaWtfcHl0aG9uJywgJy1waCcsICc3LjAnLCAnLXRuJywgJzgnLCAnLW1hJywgJzIwMCcsICctbWV0YWxfYmluZGluZycsICctaW1hZScsICc8aW5maWxlLm1hZT4nLCAnLW9tYWUnLCAnPG91dGZpbGUubWFlPic=

> <r_lp_tautomer_probability>
1

> <r_epik_Ionization_Penalty>
2.21303

> <r_epik_Ionization_Penalty_Charging>
0

> <r_epik_Ionization_Penalty_Neutral>
2.21303

> <r_epik_State_Penalty>
2.3573

> <r_epik_Charging_Adjusted_Penalty>
2.3573

> <i_epik_Tot_Q>
0

> <i_epik_Tot_abs_Q>
0

> <r_epik_Metal_State_Penalty>
2.35724

> <b_epik_Metal_Only>
0

> <s_lp_Force_Field>
OPLS_2005

> <r_lp_Energy>
13.5857

> <b_lp_Chiralities_Consistent>
1

> <s_lp_Variant>
AV-unprocessed.smi:2597-7

> <Gold.Version>
5.8.1

> <Gold.Id.Protein>
6NUR|6NUR_protein|mol2

> <Gold.PLP.Fitness>
42.8135

> <Gold.PLP.PLP>
-31.0304

> <Gold.PLP.part.hbond>
-5.2421

> <Gold.PLP.part.metal>
0.0000

> <Gold.PLP.part.buried>
-3.0724

> <Gold.PLP.part.nonpolar>
-22.3468

> <Gold.PLP.part.repulsive>
0.0420

> <Gold.PLP.ligand.clash>
0.0000

> <Gold.PLP.ligand.torsion>
0.0879

> <Gold.PLP.Chemscore.Hbond>
3.7739

> <Gold.PLP.Chemscore.CHOScore>
0.2044

> <Gold.PLP.Chemscore.Metal>
0.0000

> <Gold.Chemscore.Hbonds>
donor molecule, donor type, donor heavy atom, donor atom, acceptor molecule, acceptor atom, score
      L1  H     1    17       P1  8028  1.00
      L1  H    12    30       P1  7957  0.77
      P1  H  7989  7998       L1    13  0.96
      P1  H  8011  8017       L1    12  1.00
      L1  C     9    27       P1  8028  0.02

> <Gold.PLP.Chemscore.Internal.Correction>
0.0239

> <Gold.Rescore>
     Score         DG    S(hbond)    S(metal)    S(lipo)     H(rot)  DE(clash)    DE(int)     intcor
     18.69     -19.29       2.70        0.00      80.80       1.82       0.14       0.46       ----

> <Gold.Chemscore.Fitness>
18.6856

> <Gold.Chemscore.DG>
-19.2883

> <Gold.Chemscore.ZeroCoef>
-5.4800

> <Gold.Chemscore.Hbond>
2.7004

> <Gold.Chemscore.Metal>
0.0000

> <Gold.Chemscore.Lipo>
80.8012

> <Gold.Chemscore.Internal_Hbond>
0.0000

> <Gold.Chemscore.DEClash>
0.1393

> <Gold.Chemscore.DEInternal>
0.4633

> <Gold.Chemscore.Rot>
1.8222

> <Gold.Chemscore.Internal.Correction>
   9.000000E+99

> <Gold.Chemscore.Hbonds>
donor molecule, donor type, donor heavy atom, donor atom, acceptor molecule, acceptor atom, score
      L1  H     1    17       P1  8028  0.54
      L1  H    12    30       P1  7957  0.72
      P1  H  7989  7998       L1    13  0.43
      P1  H  8011  8017       L1    12  0.29

> <Gold.Chemscore.Hbond.Weighted>
-9.0194

> <Gold.Chemscore.Metal.Weighted>
-0.0000

> <Gold.Chemscore.Lipo.Weighted>
-9.4537

> <Gold.Chemscore.Internal_Hbond.Weighted>
0.0000

> <Gold.Chemscore.DEClash.Weighted>
0.1393

> <Gold.Chemscore.DEInternal.Weighted>
0.4633

> <Gold.Chemscore.Rot.Weighted>
4.6649

> <Gold.Chemscore.Internal.Correction.Weighted>
   9.000000E+99

> <Gold.Protein.RotatedTorsions>
[ 6907 6896 6895 6894 ] final -118.76 input  -60.11 | X-H torsion
[ 7974 7965 7964 7962 ] final   80.10 input  175.53 | X-H torsion
[ 8008 7997 7996 7995 ] final -176.16 input   59.86 | X-H torsion
[ 10167 10162 10161 10158 ] final  -62.85 input  -65.29 | X-H torsion
[ 10718 10713 10712 10709 ] final  -42.21 input   66.30 | X-H torsion
[ 10763 10752 10751 10750 ] final  -30.05 input  -60.55 | X-H torsion
[ 11005 11000 10999 10996 ] final  144.63 input  -57.11 | X-H torsion

> <Gold.Protein.ActiveResidues>
 VAL166  LYS551  ARG553  GLY616  TRP617  ASP618  TYR619  PRO620  LYS621  CYS622 
 ASP623  PHE694  ASN695  SER759  ASP760  ASP761  ALA762  ILE779  LEU786  VAL792 
 PHE793  MET794  SER795  GLU796  ALA797  LYS798  CYS799  TRP800  GLU811  SER814 

> <Gold.Protein.RotatedAtoms>
  150.8247  133.8192  159.3123 H   0  0  0  0  0  0  0  0  0  0  0  0  # atno 6907 bound_to 6896
  151.5940  135.1050  160.0055 H   0  0  0  0  0  0  0  0  0  0  0  0  # atno 6908 bound_to 6896
  152.4333  133.7275  159.6625 H   0  0  0  0  0  0  0  0  0  0  0  0  # atno 6909 bound_to 6896
  145.6556  139.2458  143.1952 H   0  0  0  0  0  0  0  0  0  0  0  0  # atno 7974 bound_to 7965
  155.9914  140.1202  157.0634 H   0  0  0  0  0  0  0  0  0  0  0  0  # atno 8008 bound_to 7997
  154.4213  140.1125  156.5640 H   0  0  0  0  0  0  0  0  0  0  0  0  # atno 8009 bound_to 7997
  155.6337  140.3473  155.4693 H   0  0  0  0  0  0  0  0  0  0  0  0  # atno 8010 bound_to 7997
  140.5911  143.2342  151.6138 H   0  0  0  0  0  0  0  0  0  0  0  0  # atno 10167 bound_to 10162
  156.2621  130.4198  149.8531 H   0  0  0  0  0  0  0  0  0  0  0  0  # atno 10718 bound_to 10713
  153.7747  135.6909  153.4900 H   0  0  0  0  0  0  0  0  0  0  0  0  # atno 10763 bound_to 10752
  153.1851  135.4492  155.0077 H   0  0  0  0  0  0  0  0  0  0  0  0  # atno 10764 bound_to 10752
  154.8104  135.3375  154.7254 H   0  0  0  0  0  0  0  0  0  0  0  0  # atno 10765 bound_to 10752
  140.0647  134.9185  157.1244 H   0  0  0  0  0  0  0  0  0  0  0  0  # atno 11005 bound_to 11000
  146.1168  140.7360  142.9477 LP  0  0  0  0  0  0  0  0  0  0  0  0  # atno 17320 bound_to 7965
  144.7107  140.4027  143.7083 LP  0  0  0  0  0  0  0  0  0  0  0  0  # atno 17321 bound_to 7965
  139.5228  144.3152  152.0958 LP  0  0  0  0  0  0  0  0  0  0  0  0  # atno 17342 bound_to 10162
  140.2317  144.4362  150.6297 LP  0  0  0  0  0  0  0  0  0  0  0  0  # atno 17343 bound_to 10162
  156.6043  130.8560  151.3439 LP  0  0  0  0  0  0  0  0  0  0  0  0  # atno 17370 bound_to 10713
  157.7254  130.9615  150.1613 LP  0  0  0  0  0  0  0  0  0  0  0  0  # atno 17371 bound_to 10713
  140.3717  134.2383  155.7177 LP  0  0  0  0  0  0  0  0  0  0  0  0  # atno 17394 bound_to 11000
  141.1988  133.8027  157.0567 LP  0  0  0  0  0  0  0  0  0  0  0  0  # atno 17395 bound_to 11000

$$$$
