AV-unprocessed.smi:3258|AV-procd|sdf|12471|dock10
  -GOLD-   2272018373D 1   1.00000     0.00000
 Structure written by MMmdl.
 38 39  0  0  0  0  0  0  0  0  1 V2000
  147.4299  138.2410  155.7093 C   0  0  0  0  0  0  0  0  0  0  0  0
  147.4892  138.9903  154.3685 C   0  0  1  0  0  0  0  0  0  0  0  0
  148.7452  139.8853  154.2278 C   0  0  0  0  0  0  0  0  0  0  0  0
  149.9928  139.1953  154.5148 N   0  0  0  0  0  0  0  0  0  0  0  0
  150.2752  137.8499  154.4030 C   0  0  0  0  0  0  0  0  0  0  0  0
  151.5734  137.6732  154.7877 C   0  0  0  0  0  0  0  0  0  0  0  0
  152.0068  138.9853  155.1274 C   0  0  0  0  0  0  0  0  0  0  0  0
  151.0587  139.8933  154.9648 N   0  0  0  0  0  0  0  0  0  0  0  0
  147.3905  138.0267  153.2740 N   0  0  0  0  0  0  0  0  0  0  0  0
  146.2588  137.4531  152.8428 C   0  0  0  0  0  0  0  0  0  0  0  0
  145.1538  137.6354  153.3545 O   0  0  0  0  0  0  0  0  0  0  0  0
  146.4749  136.6777  151.7713 N   0  0  0  0  0  0  0  0  0  0  0  0
  145.4422  135.9775  151.0151 C   0  0  0  0  0  0  0  0  0  0  0  0
  145.4719  134.4616  151.2860 C   0  0  1  0  0  0  0  0  0  0  0  0
  144.2820  133.7139  150.7204 C   0  0  0  0  0  0  0  0  0  0  0  0
  144.7829  132.2725  150.7238 C   0  0  0  0  0  0  0  0  0  0  0  0
  146.1941  132.3483  150.5402 O   0  0  0  0  0  0  0  0  0  0  0  0
  146.6269  133.7022  150.6301 C   0  0  0  0  0  0  0  0  0  0  0  0
  147.5002  138.9343  156.5477 H   0  0  0  0  0  0  0  0  0  0  0  0
  148.2401  137.5176  155.8059 H   0  0  0  0  0  0  0  0  0  0  0  0
  146.4901  137.6973  155.8110 H   0  0  0  0  0  0  0  0  0  0  0  0
  146.6126  139.6388  154.3213 H   0  0  0  0  0  0  0  0  0  0  0  0
  148.8062  140.3161  153.2272 H   0  0  0  0  0  0  0  0  0  0  0  0
  148.6659  140.7313  154.9113 H   0  0  0  0  0  0  0  0  0  0  0  0
  149.5377  137.1391  154.0602 H   0  0  0  0  0  0  0  0  0  0  0  0
  152.1285  136.7478  154.8233 H   0  0  0  0  0  0  0  0  0  0  0  0
  152.9749  139.3026  155.4857 H   0  0  0  0  0  0  0  0  0  0  0  0
  148.2453  137.8140  152.7809 H   0  0  0  0  0  0  0  0  0  0  0  0
  147.4213  136.5961  151.4292 H   0  0  0  0  0  0  0  0  0  0  0  0
  144.4766  136.3820  151.3191 H   0  0  0  0  0  0  0  0  0  0  0  0
  145.5346  136.1804  149.9466 H   0  0  0  0  0  0  0  0  0  0  0  0
  145.5072  134.2873  152.3629 H   0  0  0  0  0  0  0  0  0  0  0  0
  143.3720  133.8477  151.3059 H   0  0  0  0  0  0  0  0  0  0  0  0
  144.0808  134.0360  149.6976 H   0  0  0  0  0  0  0  0  0  0  0  0
  144.5845  131.8030  151.6880 H   0  0  0  0  0  0  0  0  0  0  0  0
  144.3115  131.6671  149.9493 H   0  0  0  0  0  0  0  0  0  0  0  0
  146.8081  134.0723  149.6199 H   0  0  0  0  0  0  0  0  0  0  0  0
  147.5576  133.7852  151.1922 H   0  0  0  0  0  0  0  0  0  0  0  0
  1  2  1  0  0  0  0
  1 19  1  0  0  0  0
  1 20  1  0  0  0  0
  1 21  1  0  0  0  0
  2  3  1  0  0  0  0
  2  9  1  0  0  0  0
  2 22  1  0  0  0  0
  3  4  1  0  0  0  0
  3 23  1  0  0  0  0
  3 24  1  0  0  0  0
  4  8  1  0  0  0  0
  4  5  1  0  0  0  0
  5  6  2  0  0  0  0
  5 25  1  0  0  0  0
  6  7  1  0  0  0  0
  6 26  1  0  0  0  0
  7  8  2  0  0  0  0
  7 27  1  0  0  0  0
  9 10  1  0  0  0  0
  9 28  1  0  0  0  0
 10 11  2  0  0  0  0
 10 12  1  0  0  0  0
 12 13  1  0  0  0  0
 12 29  1  0  0  0  0
 13 14  1  0  0  0  0
 13 30  1  0  0  0  0
 13 31  1  0  0  0  0
 14 18  1  0  0  0  0
 14 15  1  0  0  0  0
 14 32  1  0  0  0  0
 15 16  1  0  0  0  0
 15 33  1  0  0  0  0
 15 34  1  0  0  0  0
 16 17  1  0  0  0  0
 16 35  1  0  0  0  0
 16 36  1  0  0  0  0
 17 18  1  0  0  0  0
 18 37  1  0  0  0  0
 18 38  1  0  0  0  0
M  END
> <s_m_source_file>
AV-unprocessed.smi

> <i_m_source_file_index>
3258

> <i_lp_mmshare_version>
43012

> <i_f3d_flags>
0

> <s_epik_input>
bjFbY0hdW2NIXVtjSF1uMVtDSDJdW0NAQEhdKFtDSDNdKVtOSF1DKD1PKVtOSF1bQ0gyXVtDQEBIXTJbQ0gyXVtDSDJdT1tDSDJdMg==

> <s_epik_cmdline>
J2VwaWtfcHl0aG9uJywgJy1waCcsICc3LjAnLCAnLXRuJywgJzgnLCAnLW1hJywgJzIwMCcsICctbWV0YWxfYmluZGluZycsICctaW1hZScsICc8aW5maWxlLm1hZT4nLCAnLW9tYWUnLCAnPG91dGZpbGUubWFlPic=

> <r_lp_tautomer_probability>
1

> <r_epik_Ionization_Penalty>
6.85079e-05

> <r_epik_Ionization_Penalty_Charging>
0

> <r_epik_Ionization_Penalty_Neutral>
6.85079e-05

> <r_epik_State_Penalty>
-0

> <r_epik_Charging_Adjusted_Penalty>
0

> <i_epik_Tot_Q>
0

> <i_epik_Tot_abs_Q>
0

> <r_epik_Metal_State_Penalty>
-0

> <b_epik_Metal_Only>
0

> <s_lp_Force_Field>
OPLS_2005

> <r_lp_Energy>
16.3591

> <b_lp_Chiralities_Consistent>
1

> <s_lp_Variant>
AV-unprocessed.smi:3258-4

> <Gold.Version>
5.8.1

> <Gold.Id.Protein>
6NUR|6NUR_protein|mol2

> <Gold.PLP.Fitness>
41.8459

> <Gold.PLP.PLP>
-32.3212

> <Gold.PLP.part.hbond>
-3.0000

> <Gold.PLP.part.metal>
0.0000

> <Gold.PLP.part.buried>
-4.1772

> <Gold.PLP.part.nonpolar>
-25.4448

> <Gold.PLP.part.repulsive>
0.4932

> <Gold.PLP.ligand.clash>
0.0000

> <Gold.PLP.ligand.torsion>
0.8741

> <Gold.PLP.Chemscore.Hbond>
2.7440

> <Gold.PLP.Chemscore.CHOScore>
1.0000

> <Gold.PLP.Chemscore.Metal>
0.0000

> <Gold.Chemscore.Hbonds>
donor molecule, donor type, donor heavy atom, donor atom, acceptor molecule, acceptor atom, score
      L1  H     9    28       P1  7948  0.72
      L1  H    12    29       P1  7948  0.91
      P1  H  7989  7998       L1     8  1.00
      L1  C     5    25       P1  7948  1.00

> <Gold.PLP.Chemscore.Internal.Correction>
0.0410

> <Gold.Rescore>
     Score         DG    S(hbond)    S(metal)    S(lipo)     H(rot)  DE(clash)    DE(int)     intcor
     15.57     -17.07       2.65        0.00      64.51       1.87       0.93       0.57       ----

> <Gold.Chemscore.Fitness>
15.5720

> <Gold.Chemscore.DG>
-17.0746

> <Gold.Chemscore.ZeroCoef>
-5.4800

> <Gold.Chemscore.Hbond>
2.6466

> <Gold.Chemscore.Metal>
0.0000

> <Gold.Chemscore.Lipo>
64.5136

> <Gold.Chemscore.Internal_Hbond>
0.0000

> <Gold.Chemscore.DEClash>
0.9297

> <Gold.Chemscore.DEInternal>
0.5730

> <Gold.Chemscore.Rot>
1.8724

> <Gold.Chemscore.Internal.Correction>
   9.000000E+99

> <Gold.Chemscore.Hbonds>
donor molecule, donor type, donor heavy atom, donor atom, acceptor molecule, acceptor atom, score
      L1  H     9    28       P1  7948  0.71
      L1  H    12    29       P1  7948  0.88
      P1  H  7989  7998       L1     8  0.20

> <Gold.Chemscore.Hbond.Weighted>
-8.8398

> <Gold.Chemscore.Metal.Weighted>
-0.0000

> <Gold.Chemscore.Lipo.Weighted>
-7.5481

> <Gold.Chemscore.Internal_Hbond.Weighted>
0.0000

> <Gold.Chemscore.DEClash.Weighted>
0.9297

> <Gold.Chemscore.DEInternal.Weighted>
0.5730

> <Gold.Chemscore.Rot.Weighted>
4.7933

> <Gold.Chemscore.Internal.Correction.Weighted>
   9.000000E+99

> <Gold.Protein.RotatedTorsions>
[ 6907 6896 6895 6894 ] final   37.13 input  -60.11 | X-H torsion
[ 7974 7965 7964 7962 ] final   -6.23 input  175.53 | X-H torsion
[ 8008 7997 7996 7995 ] final -120.76 input   59.86 | X-H torsion
[ 10167 10162 10161 10158 ] final  162.80 input  -65.29 | X-H torsion
[ 10718 10713 10712 10709 ] final  174.15 input   66.30 | X-H torsion
[ 10763 10752 10751 10750 ] final   82.60 input  -60.55 | X-H torsion
[ 11005 11000 10999 10996 ] final -160.15 input  -57.11 | X-H torsion

> <Gold.Protein.ActiveResidues>
 VAL166  LYS551  ARG553  GLY616  TRP617  ASP618  TYR619  PRO620  LYS621  CYS622 
 ASP623  PHE694  ASN695  SER759  ASP760  ASP761  ALA762  ILE779  LEU786  VAL792 
 PHE793  MET794  SER795  GLU796  ALA797  LYS798  CYS799  TRP800  GLU811  SER814 

> <Gold.Protein.RotatedAtoms>
  152.1391  134.9077  160.0554 H   0  0  0  0  0  0  0  0  0  0  0  0  # atno 6907 bound_to 6896
  152.0152  133.3872  159.4244 H   0  0  0  0  0  0  0  0  0  0  0  0  # atno 6908 bound_to 6896
  150.6863  134.3609  159.4993 H   0  0  0  0  0  0  0  0  0  0  0  0  # atno 6909 bound_to 6896
  146.2335  140.2140  142.8336 H   0  0  0  0  0  0  0  0  0  0  0  0  # atno 7974 bound_to 7965
  155.1370  140.0401  157.2789 H   0  0  0  0  0  0  0  0  0  0  0  0  # atno 8008 bound_to 7997
  154.6501  140.2567  155.7197 H   0  0  0  0  0  0  0  0  0  0  0  0  # atno 8009 bound_to 7997
  156.2573  140.2838  156.0931 H   0  0  0  0  0  0  0  0  0  0  0  0  # atno 8010 bound_to 7997
  139.4865  144.4401  151.8962 H   0  0  0  0  0  0  0  0  0  0  0  0  # atno 10167 bound_to 10162
  156.9538  131.0039  151.2943 H   0  0  0  0  0  0  0  0  0  0  0  0  # atno 10718 bound_to 10713
  153.1217  135.4722  154.9206 H   0  0  0  0  0  0  0  0  0  0  0  0  # atno 10763 bound_to 10752
  154.7581  135.3124  154.8432 H   0  0  0  0  0  0  0  0  0  0  0  0  # atno 10764 bound_to 10752
  153.8995  135.6876  153.4810 H   0  0  0  0  0  0  0  0  0  0  0  0  # atno 10765 bound_to 10752
  140.6346  134.4615  157.5231 H   0  0  0  0  0  0  0  0  0  0  0  0  # atno 11005 bound_to 11000
  144.9684  140.8345  143.5470 LP  0  0  0  0  0  0  0  0  0  0  0  0  # atno 17320 bound_to 7965
  145.2119  139.2201  143.5139 LP  0  0  0  0  0  0  0  0  0  0  0  0  # atno 17321 bound_to 7965
  140.3853  144.2685  150.5904 LP  0  0  0  0  0  0  0  0  0  0  0  0  # atno 17342 bound_to 10162
  140.5196  143.2269  151.8409 LP  0  0  0  0  0  0  0  0  0  0  0  0  # atno 17343 bound_to 10162
  157.5704  130.8307  149.8384 LP  0  0  0  0  0  0  0  0  0  0  0  0  # atno 17370 bound_to 10713
  156.0351  130.3753  150.1581 LP  0  0  0  0  0  0  0  0  0  0  0  0  # atno 17371 bound_to 10713
  139.9103  134.8360  156.1554 LP  0  0  0  0  0  0  0  0  0  0  0  0  # atno 17394 bound_to 11000
  141.0650  133.6823  156.2028 LP  0  0  0  0  0  0  0  0  0  0  0  0  # atno 17395 bound_to 11000

$$$$
