AV-unprocessed.smi:1047|AV-procd|sdf|4579|dock3
  -GOLD-   22720 3 43D 1   1.00000     0.00000
 Structure written by MMmdl.
 56 58  0  0  0  0  0  0  0  0  2 V2000
  146.5656  144.4326  161.6047 C   0  0  0  0  0  0  0  0  0  0  0  0
  146.9647  145.3271  160.4224 C   0  0  0  0  0  0  0  0  0  0  0  0
  146.4699  144.8085  159.1227 N   0  3  2  0  0  0  0  0  0  0  0  0
  145.0300  145.0768  158.8858 C   0  0  0  0  0  0  0  0  0  0  0  0
  144.5994  144.5300  157.5149 C   0  0  0  0  0  0  0  0  0  0  0  0
  144.8991  143.1420  157.4397 O   0  0  0  0  0  0  0  0  0  0  0  0
  146.2954  142.8863  157.5545 C   0  0  2  0  0  0  0  0  0  0  0  0
  146.5263  141.3799  157.3624 C   0  0  0  0  0  0  0  0  0  0  0  0
  147.8695  141.1178  156.8561 N   0  0  0  0  0  0  0  0  0  0  0  0
  147.9303  140.9870  155.4030 C   0  0  0  0  0  0  0  0  0  0  0  0
  149.3903  140.9095  154.9154 C   0  0  1  0  0  0  0  0  0  0  0  0
  149.4125  141.1863  153.5306 O   0  0  0  0  0  0  0  0  0  0  0  0
  150.3280  141.9243  155.5982 C   0  0  0  0  0  0  0  0  0  0  0  0
  150.9361  141.4023  156.8086 N   0  0  0  0  0  0  0  0  0  0  0  0
  151.2884  140.1251  157.0503 C   0  0  0  0  0  0  0  0  0  0  0  0
  151.8352  139.8574  158.2325 N   0  0  0  0  0  0  0  0  0  0  0  0
  151.8451  141.1087  158.8249 C   0  0  0  0  0  0  0  0  0  0  0  0
  152.3018  141.5164  160.0972 C   0  0  0  0  0  0  0  0  0  0  0  0
  152.2125  142.8678  160.5005 C   0  0  0  0  0  0  0  0  0  0  0  0
  152.7160  143.2624  161.8779 C   0  0  0  0  0  0  0  0  0  0  0  0
  151.6602  143.8358  159.6238 C   0  0  0  0  0  0  0  0  0  0  0  0
  151.5569  145.2941  160.0341 C   0  0  0  0  0  0  0  0  0  0  0  0
  151.1969  143.4451  158.3501 C   0  0  0  0  0  0  0  0  0  0  0  0
  151.2913  142.0975  157.9599 C   0  0  0  0  0  0  0  0  0  0  0  0
  146.7629  143.3663  158.9422 C   0  0  0  0  0  0  0  0  0  0  0  0
  146.8640  144.8906  162.5479 H   0  0  0  0  0  0  0  0  0  0  0  0
  147.0422  143.4539  161.5573 H   0  0  0  0  0  0  0  0  0  0  0  0
  145.4862  144.2820  161.6392 H   0  0  0  0  0  0  0  0  0  0  0  0
  146.5394  146.3167  160.5949 H   0  0  0  0  0  0  0  0  0  0  0  0
  148.0474  145.4580  160.3867 H   0  0  0  0  0  0  0  0  0  0  0  0
  144.4361  144.6109  159.6737 H   0  0  0  0  0  0  0  0  0  0  0  0
  144.8294  146.1471  158.9234 H   0  0  0  0  0  0  0  0  0  0  0  0
  143.5269  144.6673  157.3760 H   0  0  0  0  0  0  0  0  0  0  0  0
  145.0961  145.0674  156.7053 H   0  0  0  0  0  0  0  0  0  0  0  0
  146.8387  143.4350  156.7824 H   0  0  0  0  0  0  0  0  0  0  0  0
  146.3984  140.8706  158.3184 H   0  0  0  0  0  0  0  0  0  0  0  0
  145.7746  140.9698  156.6866 H   0  0  0  0  0  0  0  0  0  0  0  0
  148.4970  141.8570  157.1574 H   0  0  0  0  0  0  0  0  0  0  0  0
  147.3695  140.1132  155.0680 H   0  0  0  0  0  0  0  0  0  0  0  0
  147.4423  141.8538  154.9574 H   0  0  0  0  0  0  0  0  0  0  0  0
  149.7824  139.9038  155.0750 H   0  0  0  0  0  0  0  0  0  0  0  0
  149.6236  140.3879  153.0710 H   0  0  0  0  0  0  0  0  0  0  0  0
  151.1291  142.2152  154.9168 H   0  0  0  0  0  0  0  0  0  0  0  0
  149.7855  142.8375  155.8454 H   0  0  0  0  0  0  0  0  0  0  0  0
  151.1311  139.3474  156.3170 H   0  0  0  0  0  0  0  0  0  0  0  0
  152.7235  140.7789  160.7642 H   0  0  0  0  0  0  0  0  0  0  0  0
  153.5550  143.9533  161.7929 H   0  0  0  0  0  0  0  0  0  0  0  0
  153.0525  142.3931  162.4435 H   0  0  0  0  0  0  0  0  0  0  0  0
  151.9251  143.7465  162.4510 H   0  0  0  0  0  0  0  0  0  0  0  0
  151.1635  145.9083  159.2235 H   0  0  0  0  0  0  0  0  0  0  0  0
  152.5377  145.6865  160.3035 H   0  0  0  0  0  0  0  0  0  0  0  0
  150.8917  145.4031  160.8909 H   0  0  0  0  0  0  0  0  0  0  0  0
  150.7720  144.1728  157.6747 H   0  0  0  0  0  0  0  0  0  0  0  0
  147.8353  143.1958  159.0456 H   0  0  0  0  0  0  0  0  0  0  0  0
  146.2688  142.7919  159.7279 H   0  0  0  0  0  0  0  0  0  0  0  0
  146.9848  145.2946  158.4022 H   0  0  0  0  0  0  0  0  0  0  0  0
  1  2  1  0  0  0  0
  1 26  1  0  0  0  0
  1 27  1  0  0  0  0
  1 28  1  0  0  0  0
  2  3  1  0  0  0  0
  2 29  1  0  0  0  0
  2 30  1  0  0  0  0
  3 25  1  0  0  0  0
  3  4  1  0  0  0  0
  3 56  1  0  0  0  0
  4  5  1  0  0  0  0
  4 31  1  0  0  0  0
  4 32  1  0  0  0  0
  5  6  1  0  0  0  0
  5 33  1  0  0  0  0
  5 34  1  0  0  0  0
  6  7  1  0  0  0  0
  7  8  1  0  0  0  0
  7 25  1  0  0  0  0
  7 35  1  0  0  0  0
  8  9  1  0  0  0  0
  8 36  1  0  0  0  0
  8 37  1  0  0  0  0
  9 10  1  0  0  0  0
  9 38  1  0  0  0  0
 10 11  1  0  0  0  0
 10 39  1  0  0  0  0
 10 40  1  0  0  0  0
 11 12  1  0  0  0  0
 11 13  1  0  0  0  0
 11 41  1  0  0  0  0
 12 42  1  0  0  0  0
 13 14  1  0  0  0  0
 13 43  1  0  0  0  0
 13 44  1  0  0  0  0
 14 24  1  0  0  0  0
 14 15  1  0  0  0  0
 15 16  2  0  0  0  0
 15 45  1  0  0  0  0
 16 17  1  0  0  0  0
 17 24  2  0  0  0  0
 17 18  1  0  0  0  0
 18 19  2  0  0  0  0
 18 46  1  0  0  0  0
 19 20  1  0  0  0  0
 19 21  1  0  0  0  0
 20 47  1  0  0  0  0
 20 48  1  0  0  0  0
 20 49  1  0  0  0  0
 21 22  1  0  0  0  0
 21 23  2  0  0  0  0
 22 50  1  0  0  0  0
 22 51  1  0  0  0  0
 22 52  1  0  0  0  0
 23 24  1  0  0  0  0
 23 53  1  0  0  0  0
 25 54  1  0  0  0  0
 25 55  1  0  0  0  0
M  CHG  1   3   1
M  END
> <s_m_source_file>
AV-unprocessed.smi

> <i_m_source_file_index>
1047

> <i_lp_mmshare_version>
43012

> <i_f3d_flags>
0

> <s_epik_input>
W0NIM11bQ0gyXU4xW0NIMl1bQ0gyXU9bQ0BIXShbQ0gyXTEpW0NIMl1bTkhdW0NIMl1bQ0BIXShbT0hdKVtDSDJdbihbY0hdbjIpYyhjMjMpW2NIXWMoW0NIM10pYyhbY0hdMylbQ0gzXQ==

> <s_epik_cmdline>
J2VwaWtfcHl0aG9uJywgJy1waCcsICc3LjAnLCAnLXRuJywgJzgnLCAnLW1hJywgJzIwMCcsICctbWV0YWxfYmluZGluZycsICctaW1hZScsICc8aW5maWxlLm1hZT4nLCAnLW9tYWUnLCAnPG91dGZpbGUubWFlPic=

> <r_epik_Ionization_Penalty>
1.19246

> <r_epik_Ionization_Penalty_Charging>
0.210041

> <r_epik_Ionization_Penalty_Neutral>
0.982415

> <r_epik_State_Penalty>
1.57595

> <r_epik_Charging_Adjusted_Penalty>
1.78599

> <i_epik_Tot_Q>
1

> <i_epik_Tot_abs_Q>
1

> <r_epik_Metal_State_Penalty>
1.46172

> <b_epik_Metal_Only>
0

> <s_lp_Force_Field>
OPLS_2005

> <r_lp_Energy>
30.8486

> <b_lp_Chiralities_Consistent>
1

> <s_lp_Variant>
AV-unprocessed.smi:1047-20

> <Gold.Version>
5.8.1

> <Gold.Id.Protein>
6NUR|6NUR_protein|mol2

> <Gold.PLP.Fitness>
58.2991

> <Gold.PLP.PLP>
-50.3249

> <Gold.PLP.part.hbond>
-4.0000

> <Gold.PLP.part.metal>
0.0000

> <Gold.PLP.part.buried>
-6.8982

> <Gold.PLP.part.nonpolar>
-38.9193

> <Gold.PLP.part.repulsive>
0.0914

> <Gold.PLP.ligand.clash>
0.0000

> <Gold.PLP.ligand.torsion>
1.5425

> <Gold.PLP.Chemscore.Hbond>
3.5760

> <Gold.PLP.Chemscore.CHOScore>
0.0000

> <Gold.PLP.Chemscore.Metal>
0.0000

> <Gold.Chemscore.Hbonds>
donor molecule, donor type, donor heavy atom, donor atom, acceptor molecule, acceptor atom, score
      L1  H     3    56       P1  8029  2.00
      L1  H    12    42       P1  7957  0.58
      P1  H  8011  8017       L1    12  1.00

> <Gold.PLP.Chemscore.Internal.Correction>
0.3312

> <Gold.Rescore>
     Score         DG    S(hbond)    S(metal)    S(lipo)     H(rot)  DE(clash)    DE(int)     intcor
     17.94     -19.77       2.09        0.00     119.75       2.62       0.03       1.80       ----

> <Gold.Chemscore.Fitness>
17.9439

> <Gold.Chemscore.DG>
-19.7729

> <Gold.Chemscore.ZeroCoef>
-5.4800

> <Gold.Chemscore.Hbond>
2.0934

> <Gold.Chemscore.Metal>
0.0000

> <Gold.Chemscore.Lipo>
119.7475

> <Gold.Chemscore.Internal_Hbond>
0.0000

> <Gold.Chemscore.DEClash>
0.0333

> <Gold.Chemscore.DEInternal>
1.7957

> <Gold.Chemscore.Rot>
2.6209

> <Gold.Chemscore.Internal.Correction>
   9.000000E+99

> <Gold.Chemscore.Hbonds>
donor molecule, donor type, donor heavy atom, donor atom, acceptor molecule, acceptor atom, score
      L1  H     3    56       P1  8029  0.96
      L1  H    12    42       P1  7957  0.58
      P1  H  8011  8017       L1    12  0.33

> <Gold.Chemscore.Hbond.Weighted>
-6.9920

> <Gold.Chemscore.Metal.Weighted>
-0.0000

> <Gold.Chemscore.Lipo.Weighted>
-14.0105

> <Gold.Chemscore.Internal_Hbond.Weighted>
0.0000

> <Gold.Chemscore.DEClash.Weighted>
0.0333

> <Gold.Chemscore.DEInternal.Weighted>
1.7957

> <Gold.Chemscore.Rot.Weighted>
6.7096

> <Gold.Chemscore.Internal.Correction.Weighted>
   9.000000E+99

> <Gold.Protein.RotatedTorsions>
[ 6907 6896 6895 6894 ] final  -25.58 input  -60.11 | X-H torsion
[ 7974 7965 7964 7962 ] final  -90.41 input  175.53 | X-H torsion
[ 8008 7997 7996 7995 ] final  -15.84 input   59.86 | X-H torsion
[ 10167 10162 10161 10158 ] final  -29.58 input  -65.29 | X-H torsion
[ 10718 10713 10712 10709 ] final  134.93 input   66.30 | X-H torsion
[ 10763 10752 10751 10750 ] final  -52.47 input  -60.55 | X-H torsion
[ 11005 11000 10999 10996 ] final   52.84 input  -57.11 | X-H torsion

> <Gold.Protein.ActiveResidues>
 VAL166  LYS551  ARG553  GLY616  TRP617  ASP618  TYR619  PRO620  LYS621  CYS622 
 ASP623  PHE694  ASN695  SER759  ASP760  ASP761  ALA762  ILE779  LEU786  VAL792 
 PHE793  MET794  SER795  GLU796  ALA797  LYS798  CYS799  TRP800  GLU811  SER814 

> <Gold.Protein.RotatedAtoms>
  151.1731  135.0327  159.8759 H   0  0  0  0  0  0  0  0  0  0  0  0  # atno 6907 bound_to 6896
  152.5448  134.1148  159.8384 H   0  0  0  0  0  0  0  0  0  0  0  0  # atno 6908 bound_to 6896
  151.1256  133.5026  159.2633 H   0  0  0  0  0  0  0  0  0  0  0  0  # atno 6909 bound_to 6896
  145.4269  140.9554  143.2150 H   0  0  0  0  0  0  0  0  0  0  0  0  # atno 7974 bound_to 7965
  154.5099  140.2185  155.9177 H   0  0  0  0  0  0  0  0  0  0  0  0  # atno 8008 bound_to 7997
  156.1539  140.3156  155.8660 H   0  0  0  0  0  0  0  0  0  0  0  0  # atno 8009 bound_to 7997
  155.3885  140.0477  157.3032 H   0  0  0  0  0  0  0  0  0  0  0  0  # atno 8010 bound_to 7997
  140.7259  143.3917  151.1418 H   0  0  0  0  0  0  0  0  0  0  0  0  # atno 10167 bound_to 10162
  157.4623  131.1074  150.9905 H   0  0  0  0  0  0  0  0  0  0  0  0  # atno 10718 bound_to 10713
  154.1433  135.6501  153.4947 H   0  0  0  0  0  0  0  0  0  0  0  0  # atno 10763 bound_to 10752
  153.0159  135.5320  154.6883 H   0  0  0  0  0  0  0  0  0  0  0  0  # atno 10764 bound_to 10752
  154.6150  135.2958  155.0361 H   0  0  0  0  0  0  0  0  0  0  0  0  # atno 10765 bound_to 10752
  140.0816  134.5331  155.8941 H   0  0  0  0  0  0  0  0  0  0  0  0  # atno 11005 bound_to 11000
  144.8208  139.5794  143.6987 LP  0  0  0  0  0  0  0  0  0  0  0  0  # atno 17320 bound_to 7965
  146.2627  139.6449  142.9350 LP  0  0  0  0  0  0  0  0  0  0  0  0  # atno 17321 bound_to 7965
  139.7523  143.8759  152.3080 LP  0  0  0  0  0  0  0  0  0  0  0  0  # atno 17342 bound_to 10162
  139.8617  144.7114  150.9092 LP  0  0  0  0  0  0  0  0  0  0  0  0  # atno 17343 bound_to 10162
  157.0698  130.5859  149.5400 LP  0  0  0  0  0  0  0  0  0  0  0  0  # atno 17370 bound_to 10713
  156.0034  130.5117  150.7745 LP  0  0  0  0  0  0  0  0  0  0  0  0  # atno 17371 bound_to 10713
  141.2048  133.6642  156.6146 LP  0  0  0  0  0  0  0  0  0  0  0  0  # atno 17394 bound_to 11000
  140.3479  134.7793  157.4446 LP  0  0  0  0  0  0  0  0  0  0  0  0  # atno 17395 bound_to 11000

$$$$
