AV-unprocessed.smi:50|AV-procd|sdf|494|dock7
  -GOLD-   2262016363D 1   1.00000     0.00000
 Structure written by MMmdl.
 43 44  0  0  0  0  0  0  0  0  1 V2000
  152.0609  143.1442  159.0631 C   0  0  0  0  0  0  0  0  0  0  0  0
  151.2243  142.6716  157.8560 C   0  0  0  0  0  0  0  0  0  0  0  0
  149.7331  142.7044  158.2420 C   0  0  0  0  0  0  0  0  0  0  0  0
  151.6420  141.2773  157.3015 C   0  0  1  0  0  0  0  0  0  0  0  0
  151.3613  140.2308  158.2844 N   0  0  0  0  0  0  0  0  0  0  0  0
  150.9732  140.9480  155.9549 C   0  0  0  0  0  0  0  0  0  0  0  0
  151.1845  139.9207  155.3073 O   0  0  0  0  0  0  0  0  0  0  0  0
  150.1159  141.9202  155.6027 O   0  0  0  0  0  0  0  0  0  0  0  0
  149.1176  141.6570  154.6308 C   0  0  0  0  0  0  0  0  0  0  0  0
  148.0725  140.7004  155.2124 C   0  0  0  0  0  0  0  0  0  0  0  0
  147.3187  140.1219  154.1531 O   0  0  0  0  0  0  0  0  0  0  0  0
  146.4826  139.0706  154.5179 C   0  0  0  0  0  0  0  0  0  0  0  0
  146.1610  138.2895  153.3346 N   0  0  0  0  0  0  0  0  0  0  0  0
  146.5385  138.5259  152.0367 C   0  0  0  0  0  0  0  0  0  0  0  0
  146.1056  137.6363  151.1877 N   0  0  0  0  0  0  0  0  0  0  0  0
  145.3846  136.7405  151.9720 C   0  0  0  0  0  0  0  0  0  0  0  0
  144.6754  135.5500  151.5990 C   0  0  0  0  0  0  0  0  0  0  0  0
  144.5574  135.0527  150.4813 O   0  0  0  0  0  0  0  0  0  0  0  0
  144.0631  134.9342  152.6980 N   0  0  0  0  0  0  0  0  0  0  0  0
  144.1364  135.4135  154.0037 C   0  0  0  0  0  0  0  0  0  0  0  0
  143.4893  134.7099  154.9420 N   0  0  0  0  0  0  0  0  0  0  0  0
  144.7971  136.5052  154.3470 N   0  0  0  0  0  0  0  0  0  0  0  0
  145.4058  137.1363  153.2954 C   0  0  0  0  0  0  0  0  0  0  0  0
  152.7199  141.2892  157.1449 H   0  0  0  0  0  0  0  0  0  0  0  0
  143.5388  134.0911  152.5151 H   0  0  0  0  0  0  0  0  0  0  0  0
  152.0433  142.4083  159.8665 H   0  0  0  0  0  0  0  0  0  0  0  0
  151.6758  144.0814  159.4661 H   0  0  0  0  0  0  0  0  0  0  0  0
  153.1020  143.3248  158.7954 H   0  0  0  0  0  0  0  0  0  0  0  0
  151.3681  143.4065  157.0623 H   0  0  0  0  0  0  0  0  0  0  0  0
  149.5126  141.9863  159.0307 H   0  0  0  0  0  0  0  0  0  0  0  0
  149.0871  142.4749  157.3949 H   0  0  0  0  0  0  0  0  0  0  0  0
  149.4423  143.6907  158.6045 H   0  0  0  0  0  0  0  0  0  0  0  0
  150.3843  140.2117  158.5387 H   0  0  0  0  0  0  0  0  0  0  0  0
  151.5881  139.3140  157.9265 H   0  0  0  0  0  0  0  0  0  0  0  0
  148.6474  142.5800  154.2880 H   0  0  0  0  0  0  0  0  0  0  0  0
  149.5940  141.1917  153.7668 H   0  0  0  0  0  0  0  0  0  0  0  0
  148.5808  139.8827  155.7234 H   0  0  0  0  0  0  0  0  0  0  0  0
  147.4641  141.2026  155.9664 H   0  0  0  0  0  0  0  0  0  0  0  0
  147.0289  138.4238  155.2050 H   0  0  0  0  0  0  0  0  0  0  0  0
  145.5779  139.4151  155.0221 H   0  0  0  0  0  0  0  0  0  0  0  0
  147.1421  139.3719  151.7422 H   0  0  0  0  0  0  0  0  0  0  0  0
  142.9819  133.8763  154.6818 H   0  0  0  0  0  0  0  0  0  0  0  0
  143.5058  135.0097  155.9061 H   0  0  0  0  0  0  0  0  0  0  0  0
  1  2  1  0  0  0  0
  1 26  1  0  0  0  0
  1 27  1  0  0  0  0
  1 28  1  0  0  0  0
  2  3  1  0  0  0  0
  2  4  1  0  0  0  0
  2 29  1  0  0  0  0
  3 30  1  0  0  0  0
  3 31  1  0  0  0  0
  3 32  1  0  0  0  0
  4 24  1  0  0  0  0
  4  5  1  0  0  0  0
  4  6  1  0  0  0  0
  5 33  1  0  0  0  0
  5 34  1  0  0  0  0
  6  7  2  0  0  0  0
  6  8  1  0  0  0  0
  8  9  1  0  0  0  0
  9 10  1  0  0  0  0
  9 35  1  0  0  0  0
  9 36  1  0  0  0  0
 10 11  1  0  0  0  0
 10 37  1  0  0  0  0
 10 38  1  0  0  0  0
 11 12  1  0  0  0  0
 12 13  1  0  0  0  0
 12 39  1  0  0  0  0
 12 40  1  0  0  0  0
 13 23  1  0  0  0  0
 13 14  1  0  0  0  0
 14 15  2  0  0  0  0
 14 41  1  0  0  0  0
 15 16  1  0  0  0  0
 16 23  2  0  0  0  0
 16 17  1  0  0  0  0
 17 18  2  0  0  0  0
 17 19  1  0  0  0  0
 19 25  1  0  0  0  0
 19 20  1  0  0  0  0
 20 21  1  0  0  0  0
 20 22  2  0  0  0  0
 21 42  1  0  0  0  0
 21 43  1  0  0  0  0
 22 23  1  0  0  0  0
M  END
> <s_m_source_file>
AV-unprocessed.smi

> <i_m_source_file_index>
50

> <i_lp_mmshare_version>
43012

> <i_f3d_flags>
0

> <s_epik_input>
W0NIM11bQ0hdKFtDSDNdKVtDQEhdKFtOSDJdKUMoPU8pT1tDSDJdW0NIMl1PW0NIMl1uKFtjSF1uMSljKGMxMiluYyhbTkgyXSlbbkhdYzI9Tw==

> <s_epik_cmdline>
J2VwaWtfcHl0aG9uJywgJy1waCcsICc3LjAnLCAnLXRuJywgJzgnLCAnLW1hJywgJzIwMCcsICctbWV0YWxfYmluZGluZycsICctaW1hZScsICc8aW5maWxlLm1hZT4nLCAnLW9tYWUnLCAnPG91dGZpbGUubWFlPic=

> <r_lp_tautomer_probability>
0.99994

> <r_epik_Ionization_Penalty>
0.704142

> <r_epik_Ionization_Penalty_Charging>
0.00148332

> <r_epik_Ionization_Penalty_Neutral>
0.702658

> <r_epik_State_Penalty>
0.725442

> <r_epik_Charging_Adjusted_Penalty>
0.726926

> <i_epik_Tot_Q>
0

> <i_epik_Tot_abs_Q>
0

> <r_epik_Metal_State_Penalty>
1.04557

> <b_epik_Metal_Only>
0

> <s_epik_Chemistry_Notes>
This compound has an ester and may undergo hydrolysis at high or low pH. This compound contains an acetal/aminal-like group ( X-CH(R)-Y where X, Y are N, S, or O) that may be acid/base labile, releasing an aldehyde.

> <s_lp_Force_Field>
OPLS_2005

> <r_lp_Energy>
2.75991

> <b_lp_Chiralities_Consistent>
1

> <s_lp_Variant>
AV-unprocessed.smi:50-4

> <Gold.Version>
5.8.1

> <Gold.Id.Protein>
6NUR|6NUR_protein|mol2

> <Gold.PLP.Fitness>
37.5516

> <Gold.PLP.PLP>
-28.2563

> <Gold.PLP.part.hbond>
-2.6353

> <Gold.PLP.part.metal>
0.0000

> <Gold.PLP.part.buried>
-5.1117

> <Gold.PLP.part.nonpolar>
-24.6834

> <Gold.PLP.part.repulsive>
5.2362

> <Gold.PLP.ligand.clash>
0.0000

> <Gold.PLP.ligand.torsion>
0.5341

> <Gold.PLP.Chemscore.Hbond>
2.4119

> <Gold.PLP.Chemscore.CHOScore>
1.0000

> <Gold.PLP.Chemscore.Metal>
0.0000

> <Gold.Chemscore.Hbonds>
donor molecule, donor type, donor heavy atom, donor atom, acceptor molecule, acceptor atom, score
      L1  H    21    42       P1 10957  0.75
      P1  H  7989  7998       L1     7  0.69
      L1  C    14    41       P1  7957  0.87

> <Gold.PLP.Chemscore.Internal.Correction>
0.1276

> <Gold.Rescore>
     Score         DG    S(hbond)    S(metal)    S(lipo)     H(rot)  DE(clash)    DE(int)     intcor
     -0.22      -2.79       1.00        0.00      52.31       4.75       1.04       1.97       ----

> <Gold.Chemscore.Fitness>
-0.2181

> <Gold.Chemscore.DG>
-2.7888

> <Gold.Chemscore.ZeroCoef>
-5.4800

> <Gold.Chemscore.Hbond>
1.0027

> <Gold.Chemscore.Metal>
0.0000

> <Gold.Chemscore.Lipo>
52.3084

> <Gold.Chemscore.Internal_Hbond>
0.0000

> <Gold.Chemscore.DEClash>
1.0383

> <Gold.Chemscore.DEInternal>
1.9686

> <Gold.Chemscore.Rot>
4.7501

> <Gold.Chemscore.Internal.Correction>
   9.000000E+99

> <Gold.Chemscore.Hbonds>
donor molecule, donor type, donor heavy atom, donor atom, acceptor molecule, acceptor atom, score
      L1  H    21    42       P1 10957  0.70
      P1  H  7989  7998       L1     7  0.10

> <Gold.Chemscore.Hbond.Weighted>
-3.3490

> <Gold.Chemscore.Metal.Weighted>
-0.0000

> <Gold.Chemscore.Lipo.Weighted>
-6.1201

> <Gold.Chemscore.Internal_Hbond.Weighted>
0.0000

> <Gold.Chemscore.DEClash.Weighted>
1.0383

> <Gold.Chemscore.DEInternal.Weighted>
1.9686

> <Gold.Chemscore.Rot.Weighted>
12.1603

> <Gold.Chemscore.Internal.Correction.Weighted>
   9.000000E+99

> <Gold.Protein.RotatedTorsions>
[ 6907 6896 6895 6894 ] final  -59.14 input  -60.11 | X-H torsion
[ 7974 7965 7964 7962 ] final   62.69 input  175.53 | X-H torsion
[ 8008 7997 7996 7995 ] final  170.21 input   59.86 | X-H torsion
[ 10167 10162 10161 10158 ] final  167.43 input  -65.29 | X-H torsion
[ 10718 10713 10712 10709 ] final   90.13 input   66.30 | X-H torsion
[ 10763 10752 10751 10750 ] final -165.03 input  -60.55 | X-H torsion
[ 11005 11000 10999 10996 ] final    2.63 input  -57.11 | X-H torsion

> <Gold.Protein.ActiveResidues>
 VAL166  LYS551  ARG553  GLY616  TRP617  ASP618  TYR619  PRO620  LYS621  CYS622 
 ASP623  PHE694  ASN695  SER759  ASP760  ASP761  ALA762  ILE779  LEU786  VAL792 
 PHE793  MET794  SER795  GLU796  ALA797  LYS798  CYS799  TRP800  GLU811  SER814 

> <Gold.Protein.RotatedAtoms>
  150.7953  134.7008  159.6548 H   0  0  0  0  0  0  0  0  0  0  0  0  # atno 6907 bound_to 6896
  152.4064  134.6196  160.0057 H   0  0  0  0  0  0  0  0  0  0  0  0  # atno 6908 bound_to 6896
  151.6452  133.3287  159.3175 H   0  0  0  0  0  0  0  0  0  0  0  0  # atno 6909 bound_to 6896
  145.8705  139.3374  143.0765 H   0  0  0  0  0  0  0  0  0  0  0  0  # atno 7974 bound_to 7965
  156.1386  140.1544  156.8956 H   0  0  0  0  0  0  0  0  0  0  0  0  # atno 8008 bound_to 7997
  154.4968  140.0836  156.7753 H   0  0  0  0  0  0  0  0  0  0  0  0  # atno 8009 bound_to 7997
  155.4121  140.3419  155.4267 H   0  0  0  0  0  0  0  0  0  0  0  0  # atno 8010 bound_to 7997
  139.4945  144.3922  151.9504 H   0  0  0  0  0  0  0  0  0  0  0  0  # atno 10167 bound_to 10162
  157.6958  131.0359  150.3531 H   0  0  0  0  0  0  0  0  0  0  0  0  # atno 10718 bound_to 10713
  154.6971  135.2981  154.9395 H   0  0  0  0  0  0  0  0  0  0  0  0  # atno 10763 bound_to 10752
  154.0339  135.6666  153.4787 H   0  0  0  0  0  0  0  0  0  0  0  0  # atno 10764 bound_to 10752
  153.0654  135.5091  154.8095 H   0  0  0  0  0  0  0  0  0  0  0  0  # atno 10765 bound_to 10752
  140.6021  133.9826  155.8137 H   0  0  0  0  0  0  0  0  0  0  0  0  # atno 11005 bound_to 11000
  145.9142  140.9159  143.0438 LP  0  0  0  0  0  0  0  0  0  0  0  0  # atno 17320 bound_to 7965
  144.6726  140.1202  143.7450 LP  0  0  0  0  0  0  0  0  0  0  0  0  # atno 17321 bound_to 7965
  140.3360  144.3260  150.5977 LP  0  0  0  0  0  0  0  0  0  0  0  0  # atno 17342 bound_to 10162
  140.5605  143.2193  151.7773 LP  0  0  0  0  0  0  0  0  0  0  0  0  # atno 17343 bound_to 10162
  156.3977  130.3910  149.6983 LP  0  0  0  0  0  0  0  0  0  0  0  0  # atno 17370 bound_to 10713
  156.4311  130.7815  151.2835 LP  0  0  0  0  0  0  0  0  0  0  0  0  # atno 17371 bound_to 10713
  141.0865  133.9982  157.3305 LP  0  0  0  0  0  0  0  0  0  0  0  0  # atno 17394 bound_to 11000
  139.9228  135.0201  156.8126 LP  0  0  0  0  0  0  0  0  0  0  0  0  # atno 17395 bound_to 11000

$$$$
