AV-unprocessed.smi:2749|AV-procd|sdf|10585|dock7
  -GOLD-   2272015 33D 1   1.00000     0.00000
 Structure written by MMmdl.
 32 34  0  0  0  0  0  0  0  0  1 V2000
  150.6647  140.7576  156.8654 O   0  0  0  0  0  0  0  0  0  0  0  0
  150.2284  141.8731  156.5863 C   0  0  0  0  0  0  0  0  0  0  0  0
  150.4470  142.9267  157.4027 N   0  0  0  0  0  0  0  0  0  0  0  0
  151.1470  143.0381  158.6407 C   0  0  0  0  0  0  0  0  0  0  0  0
  150.9876  144.2830  159.2919 C   0  0  0  0  0  0  0  0  0  0  0  0
  151.6274  144.5114  160.5259 C   0  0  0  0  0  0  0  0  0  0  0  0
  152.4117  143.4846  161.0801 C   0  0  0  0  0  0  0  0  0  0  0  0
  153.0458  143.6565  162.2641 F   0  0  0  0  0  0  0  0  0  0  0  0
  152.5196  142.2738  160.3725 C   0  0  0  0  0  0  0  0  0  0  0  0
  151.9068  142.0554  159.1895 N   0  0  0  0  0  0  0  0  0  0  0  0
  149.5147  142.1199  155.4761 N   0  0  0  0  0  0  0  0  0  0  0  0
  149.1535  141.1486  154.4477 C   0  0  2  0  0  0  0  0  0  0  0  0
  147.8677  141.5457  153.7150 C   0  0  0  0  0  0  0  0  0  0  0  0
  146.9586  140.3422  153.9985 C   0  0  1  0  0  0  0  0  0  0  0  0
  147.4201  139.0802  153.2547 C   0  0  0  0  0  0  0  0  0  0  0  0
  148.6721  138.6912  154.0415 C   0  0  0  0  0  0  0  0  0  0  0  0
  148.7418  139.8118  155.0872 C   0  0  2  0  0  0  0  0  0  0  0  0
  147.3593  140.0275  155.3197 O   0  0  0  0  0  0  0  0  0  0  0  0
  150.0244  143.7877  157.0877 H   0  0  0  0  0  0  0  0  0  0  0  0
  150.3803  145.0615  158.8527 H   0  0  0  0  0  0  0  0  0  0  0  0
  151.5169  145.4565  161.0367 H   0  0  0  0  0  0  0  0  0  0  0  0
  153.1112  141.4594  160.7643 H   0  0  0  0  0  0  0  0  0  0  0  0
  149.1961  143.0677  155.3302 H   0  0  0  0  0  0  0  0  0  0  0  0
  149.9736  140.9938  153.7444 H   0  0  0  0  0  0  0  0  0  0  0  0
  147.4322  142.4556  154.1311 H   0  0  0  0  0  0  0  0  0  0  0  0
  148.0236  141.7054  152.6476 H   0  0  0  0  0  0  0  0  0  0  0  0
  145.8949  140.5561  153.8902 H   0  0  0  0  0  0  0  0  0  0  0  0
  146.6682  138.2931  153.3200 H   0  0  0  0  0  0  0  0  0  0  0  0
  147.6240  139.2719  152.2007 H   0  0  0  0  0  0  0  0  0  0  0  0
  148.5349  137.7219  154.5221 H   0  0  0  0  0  0  0  0  0  0  0  0
  149.5671  138.6408  153.4205 H   0  0  0  0  0  0  0  0  0  0  0  0
  149.3127  139.5430  155.9770 H   0  0  0  0  0  0  0  0  0  0  0  0
  1  2  2  0  0  0  0
  2  3  1  0  0  0  0
  2 11  1  0  0  0  0
  3  4  1  0  0  0  0
  3 19  1  0  0  0  0
  4 10  1  0  0  0  0
  4  5  2  0  0  0  0
  5  6  1  0  0  0  0
  5 20  1  0  0  0  0
  6  7  2  0  0  0  0
  6 21  1  0  0  0  0
  7  8  1  0  0  0  0
  7  9  1  0  0  0  0
  9 10  2  0  0  0  0
  9 22  1  0  0  0  0
 11 12  1  0  0  0  0
 11 23  1  0  0  0  0
 12 17  1  0  0  0  0
 12 13  1  0  0  0  0
 12 24  1  0  0  0  0
 13 14  1  0  0  0  0
 13 25  1  0  0  0  0
 13 26  1  0  0  0  0
 14 18  1  0  0  0  0
 14 15  1  0  0  0  0
 14 27  1  0  0  0  0
 15 16  1  0  0  0  0
 15 28  1  0  0  0  0
 15 29  1  0  0  0  0
 16 17  1  0  0  0  0
 16 30  1  0  0  0  0
 16 31  1  0  0  0  0
 17 18  1  0  0  0  0
 17 32  1  0  0  0  0
M  END
> <s_m_source_file>
AV-unprocessed.smi

> <i_m_source_file_index>
2749

> <i_lp_mmshare_version>
43012

> <i_f3d_flags>
0

> <s_epik_input>
W0NIMl0xW0NIMl1bQ0BIXShPMilbQ0BASF0oW0NIMl1bQ0BASF0xMilbTkhdQyg9TylbTkhdYzNbY0hdW2NIXWMoRilbY0hdbjM=

> <s_epik_cmdline>
J2VwaWtfcHl0aG9uJywgJy1waCcsICc3LjAnLCAnLXRuJywgJzgnLCAnLW1hJywgJzIwMCcsICctbWV0YWxfYmluZGluZycsICctaW1hZScsICc8aW5maWxlLm1hZT4nLCAnLW9tYWUnLCAnPG91dGZpbGUubWFlPic=

> <r_lp_tautomer_probability>
1

> <r_epik_Ionization_Penalty>
3.37159e-05

> <r_epik_Ionization_Penalty_Charging>
0

> <r_epik_Ionization_Penalty_Neutral>
3.37159e-05

> <r_epik_State_Penalty>
-0

> <r_epik_Charging_Adjusted_Penalty>
0

> <i_epik_Tot_Q>
0

> <i_epik_Tot_abs_Q>
0

> <r_epik_Metal_State_Penalty>
-0

> <b_epik_Metal_Only>
0

> <s_lp_Force_Field>
OPLS_2005

> <r_lp_Energy>
42.1362

> <b_lp_Chiralities_Consistent>
1

> <s_lp_Variant>
AV-unprocessed.smi:2749-1

> <Gold.Version>
5.8.1

> <Gold.Id.Protein>
6NUR|6NUR_protein|mol2

> <Gold.PLP.Fitness>
41.0265

> <Gold.PLP.PLP>
-35.7763

> <Gold.PLP.part.hbond>
-2.0000

> <Gold.PLP.part.metal>
0.0000

> <Gold.PLP.part.buried>
-4.8751

> <Gold.PLP.part.nonpolar>
-28.5679

> <Gold.PLP.part.repulsive>
0.2398

> <Gold.PLP.ligand.clash>
0.0000

> <Gold.PLP.ligand.torsion>
0.3299

> <Gold.PLP.Chemscore.Hbond>
1.9600

> <Gold.PLP.Chemscore.CHOScore>
0.0000

> <Gold.PLP.Chemscore.Metal>
0.0000

> <Gold.Chemscore.Hbonds>
donor molecule, donor type, donor heavy atom, donor atom, acceptor molecule, acceptor atom, score
      L1  H     3    19       P1  8028  0.95
      L1  H    11    23       P1  8028  1.00

> <Gold.PLP.Chemscore.Internal.Correction>
0.0299

> <Gold.Rescore>
     Score         DG    S(hbond)    S(metal)    S(lipo)     H(rot)  DE(clash)    DE(int)     intcor
     15.46     -19.23       1.93        0.00      84.43       1.00       0.85       2.93       ----

> <Gold.Chemscore.Fitness>
15.4563

> <Gold.Chemscore.DG>
-19.2341

> <Gold.Chemscore.ZeroCoef>
-5.4800

> <Gold.Chemscore.Hbond>
1.9270

> <Gold.Chemscore.Metal>
0.0000

> <Gold.Chemscore.Lipo>
84.4274

> <Gold.Chemscore.Internal_Hbond>
0.0000

> <Gold.Chemscore.DEClash>
0.8503

> <Gold.Chemscore.DEInternal>
2.9275

> <Gold.Chemscore.Rot>
1.0000

> <Gold.Chemscore.Internal.Correction>
   9.000000E+99

> <Gold.Chemscore.Hbonds>
donor molecule, donor type, donor heavy atom, donor atom, acceptor molecule, acceptor atom, score
      L1  H     3    19       P1  8028  0.82
      L1  H    11    23       P1  8028  1.00

> <Gold.Chemscore.Hbond.Weighted>
-6.4361

> <Gold.Chemscore.Metal.Weighted>
-0.0000

> <Gold.Chemscore.Lipo.Weighted>
-9.8780

> <Gold.Chemscore.Internal_Hbond.Weighted>
0.0000

> <Gold.Chemscore.DEClash.Weighted>
0.8503

> <Gold.Chemscore.DEInternal.Weighted>
2.9275

> <Gold.Chemscore.Rot.Weighted>
2.5600

> <Gold.Chemscore.Internal.Correction.Weighted>
   9.000000E+99

> <Gold.Protein.RotatedTorsions>
[ 6907 6896 6895 6894 ] final -175.43 input  -60.11 | X-H torsion
[ 7974 7965 7964 7962 ] final  -99.77 input  175.53 | X-H torsion
[ 8008 7997 7996 7995 ] final -128.91 input   59.86 | X-H torsion
[ 10167 10162 10161 10158 ] final -131.11 input  -65.29 | X-H torsion
[ 10718 10713 10712 10709 ] final  130.14 input   66.30 | X-H torsion
[ 10763 10752 10751 10750 ] final -175.86 input  -60.55 | X-H torsion
[ 11005 11000 10999 10996 ] final   69.16 input  -57.11 | X-H torsion

> <Gold.Protein.ActiveResidues>
 VAL166  LYS551  ARG553  GLY616  TRP617  ASP618  TYR619  PRO620  LYS621  CYS622 
 ASP623  PHE694  ASN695  SER759  ASP760  ASP761  ALA762  ILE779  LEU786  VAL792 
 PHE793  MET794  SER795  GLU796  ALA797  LYS798  CYS799  TRP800  GLU811  SER814 

> <Gold.Protein.RotatedAtoms>
  151.5884  133.3369  159.3022 H   0  0  0  0  0  0  0  0  0  0  0  0  # atno 6907 bound_to 6896
  150.8274  134.7514  159.6836 H   0  0  0  0  0  0  0  0  0  0  0  0  # atno 6908 bound_to 6896
  152.4362  134.5689  159.9967 H   0  0  0  0  0  0  0  0  0  0  0  0  # atno 6909 bound_to 6896
  145.3033  140.9382  143.2811 H   0  0  0  0  0  0  0  0  0  0  0  0  # atno 7974 bound_to 7965
  155.2706  140.0440  157.3006 H   0  0  0  0  0  0  0  0  0  0  0  0  # atno 8008 bound_to 7997
  154.5656  140.2359  155.8238 H   0  0  0  0  0  0  0  0  0  0  0  0  # atno 8009 bound_to 7997
  156.2082  140.3006  155.9681 H   0  0  0  0  0  0  0  0  0  0  0  0  # atno 8010 bound_to 7997
  139.9223  143.6368  152.2550 H   0  0  0  0  0  0  0  0  0  0  0  0  # atno 10167 bound_to 10162
  157.5090  131.1096  150.9320 H   0  0  0  0  0  0  0  0  0  0  0  0  # atno 10718 bound_to 10713
  154.5793  135.2835  155.0749 H   0  0  0  0  0  0  0  0  0  0  0  0  # atno 10763 bound_to 10752
  154.2091  135.6411  153.5113 H   0  0  0  0  0  0  0  0  0  0  0  0  # atno 10764 bound_to 10752
  153.0083  135.5487  154.6442 H   0  0  0  0  0  0  0  0  0  0  0  0  # atno 10765 bound_to 10752
  139.9670  134.6965  156.0526 H   0  0  0  0  0  0  0  0  0  0  0  0  # atno 11005 bound_to 11000
  144.9076  139.4570  143.6602 LP  0  0  0  0  0  0  0  0  0  0  0  0  # atno 17320 bound_to 7965
  146.3144  139.7865  142.8995 LP  0  0  0  0  0  0  0  0  0  0  0  0  # atno 17321 bound_to 7965
  139.6851  144.7652  151.1538 LP  0  0  0  0  0  0  0  0  0  0  0  0  # atno 17342 bound_to 10162
  140.7659  143.5669  150.9038 LP  0  0  0  0  0  0  0  0  0  0  0  0  # atno 17343 bound_to 10162
  156.9967  130.5584  149.5308 LP  0  0  0  0  0  0  0  0  0  0  0  0  # atno 17370 bound_to 10713
  156.0276  130.5369  150.8450 LP  0  0  0  0  0  0  0  0  0  0  0  0  # atno 17371 bound_to 10713
  141.1349  133.6577  156.3567 LP  0  0  0  0  0  0  0  0  0  0  0  0  # atno 17394 bound_to 11000
  140.5376  134.6152  157.5370 LP  0  0  0  0  0  0  0  0  0  0  0  0  # atno 17395 bound_to 11000

$$$$
