AV-unprocessed.smi:2035|AV-procd|sdf|8271|dock3
  -GOLD-   2272010543D 1   1.00000     0.00000
 Structure written by MMmdl.
 35 36  0  0  0  0  0  0  0  0  2 V2000
  149.9473  140.5239  157.0004 O   0  0  0  0  0  0  0  0  0  0  0  0
  149.7311  141.6293  156.5038 C   0  0  0  0  0  0  0  0  0  0  0  0
  150.2936  142.7821  156.9059 N   0  0  0  0  0  0  0  0  0  0  0  0
  151.2350  142.9814  157.9514 C   0  0  0  0  0  0  0  0  0  0  0  0
  151.3668  144.2857  158.4771 C   0  0  0  0  0  0  0  0  0  0  0  0
  152.2814  144.5244  159.5231 C   0  0  0  0  0  0  0  0  0  0  0  0
  153.0140  143.5053  160.0215 N   0  3  0  0  0  0  0  0  0  0  0  0
  152.9099  142.2391  159.5638 C   0  0  0  0  0  0  0  0  0  0  0  0
  152.0125  141.9398  158.5183 C   0  0  0  0  0  0  0  0  0  0  0  0
  148.9106  141.8263  155.4619 N   0  0  0  0  0  0  0  0  0  0  0  0
  148.1519  140.7876  154.7649 C   0  0  2  0  0  0  0  0  0  0  0  0
  147.1010  140.1524  155.7122 C   0  0  0  0  0  0  0  0  0  0  0  0
  146.6538  138.7171  155.3653 C   0  0  0  0  0  0  0  0  0  0  0  0
  146.1435  138.5109  153.9247 C   0  0  0  0  0  0  0  0  0  0  0  0
  147.0981  138.9333  152.7823 C   0  0  0  0  0  0  0  0  0  0  0  0
  148.5130  138.9499  153.1519 N   0  0  0  0  0  0  0  0  0  0  0  0
  149.0747  139.7902  154.0381 C   0  0  0  0  0  0  0  0  0  0  0  0
  150.2803  139.7556  154.2812 O   0  0  0  0  0  0  0  0  0  0  0  0
  150.0847  143.5959  156.3461 H   0  0  0  0  0  0  0  0  0  0  0  0
  150.7799  145.1009  158.0786 H   0  0  0  0  0  0  0  0  0  0  0  0
  152.4469  145.4925  159.9731 H   0  0  0  0  0  0  0  0  0  0  0  0
  153.5391  141.5065  160.0479 H   0  0  0  0  0  0  0  0  0  0  0  0
  151.9293  140.9183  158.1791 H   0  0  0  0  0  0  0  0  0  0  0  0
  148.7892  142.7690  155.1209 H   0  0  0  0  0  0  0  0  0  0  0  0
  147.6070  141.2972  153.9691 H   0  0  0  0  0  0  0  0  0  0  0  0
  147.4966  140.1333  156.7288 H   0  0  0  0  0  0  0  0  0  0  0  0
  146.2249  140.8008  155.7519 H   0  0  0  0  0  0  0  0  0  0  0  0
  147.4746  138.0254  155.5590 H   0  0  0  0  0  0  0  0  0  0  0  0
  145.8671  138.4209  156.0596 H   0  0  0  0  0  0  0  0  0  0  0  0
  145.9152  137.4511  153.8067 H   0  0  0  0  0  0  0  0  0  0  0  0
  145.1919  139.0280  153.7978 H   0  0  0  0  0  0  0  0  0  0  0  0
  146.9718  138.2584  151.9355 H   0  0  0  0  0  0  0  0  0  0  0  0
  146.8173  139.9177  152.4064 H   0  0  0  0  0  0  0  0  0  0  0  0
  149.1141  138.2850  152.6864 H   0  0  0  0  0  0  0  0  0  0  0  0
  153.6698  143.6987  160.7791 H   0  0  0  0  0  0  0  0  0  0  0  0
  1  2  2  0  0  0  0
  2  3  1  0  0  0  0
  2 10  1  0  0  0  0
  3  4  1  0  0  0  0
  3 19  1  0  0  0  0
  4  9  1  0  0  0  0
  4  5  2  0  0  0  0
  5  6  1  0  0  0  0
  5 20  1  0  0  0  0
  6  7  2  0  0  0  0
  6 21  1  0  0  0  0
  7  8  1  0  0  0  0
  7 35  1  0  0  0  0
  8  9  2  0  0  0  0
  8 22  1  0  0  0  0
  9 23  1  0  0  0  0
 10 11  1  0  0  0  0
 10 24  1  0  0  0  0
 11 17  1  0  0  0  0
 11 12  1  0  0  0  0
 11 25  1  0  0  0  0
 12 13  1  0  0  0  0
 12 26  1  0  0  0  0
 12 27  1  0  0  0  0
 13 14  1  0  0  0  0
 13 28  1  0  0  0  0
 13 29  1  0  0  0  0
 14 15  1  0  0  0  0
 14 30  1  0  0  0  0
 14 31  1  0  0  0  0
 15 16  1  0  0  0  0
 15 32  1  0  0  0  0
 15 33  1  0  0  0  0
 16 17  1  0  0  0  0
 16 34  1  0  0  0  0
 17 18  2  0  0  0  0
M  CHG  1   7   1
M  END
> <s_m_source_file>
AV-unprocessed.smi

> <i_m_source_file_index>
2035

> <i_lp_mmshare_version>
43012

> <i_f3d_flags>
0

> <s_epik_input>
W2NIXTFbY0hdbltjSF1bY0hdYzFbTkhdQyg9TylbTkhdW0NAQEhdMltDSDJdW0NIMl1bQ0gyXVtDSDJdW05IXUMyPU8=

> <s_epik_cmdline>
J2VwaWtfcHl0aG9uJywgJy1waCcsICc3LjAnLCAnLXRuJywgJzgnLCAnLW1hJywgJzIwMCcsICctbWV0YWxfYmluZGluZycsICctaW1hZScsICc8aW5maWxlLm1hZT4nLCAnLW9tYWUnLCAnPG91dGZpbGUubWFlPic=

> <r_epik_Ionization_Penalty>
1.10339

> <r_epik_Ionization_Penalty_Charging>
1.10337

> <r_epik_Ionization_Penalty_Neutral>
1.85869e-05

> <r_epik_State_Penalty>
1.16071

> <r_epik_Charging_Adjusted_Penalty>
2.26408

> <i_epik_Tot_Q>
1

> <i_epik_Tot_abs_Q>
1

> <r_epik_Metal_State_Penalty>
1.24751

> <b_epik_Metal_Only>
0

> <s_lp_Force_Field>
OPLS_2005

> <r_lp_Energy>
25.3939

> <b_lp_Chiralities_Consistent>
1

> <s_lp_Variant>
AV-unprocessed.smi:2035-3

> <Gold.Version>
5.8.1

> <Gold.Id.Protein>
6NUR|6NUR_protein|mol2

> <Gold.PLP.Fitness>
41.6664

> <Gold.PLP.PLP>
-31.6548

> <Gold.PLP.part.hbond>
-4.9644

> <Gold.PLP.part.metal>
0.0000

> <Gold.PLP.part.buried>
-4.2258

> <Gold.PLP.part.nonpolar>
-23.9823

> <Gold.PLP.part.repulsive>
0.4218

> <Gold.PLP.ligand.clash>
0.0000

> <Gold.PLP.ligand.torsion>
0.1039

> <Gold.PLP.Chemscore.Hbond>
3.3890

> <Gold.PLP.Chemscore.CHOScore>
0.0000

> <Gold.PLP.Chemscore.Metal>
0.0000

> <Gold.Chemscore.Hbonds>
donor molecule, donor type, donor heavy atom, donor atom, acceptor molecule, acceptor atom, score
      L1  H     3    19       P1  8028  1.00
      L1  H    10    24       P1  8028  0.90
      L1  H    16    34       P1  7948  0.48
      P1  H  7989  7998       L1    18  1.00

> <Gold.PLP.Chemscore.Internal.Correction>
0.0523

> <Gold.Rescore>
     Score         DG    S(hbond)    S(metal)    S(lipo)     H(rot)  DE(clash)    DE(int)     intcor
     18.72     -22.87       3.38        0.00      74.01       1.00       0.13       4.03       ----

> <Gold.Chemscore.Fitness>
18.7163

> <Gold.Chemscore.DG>
-22.8707

> <Gold.Chemscore.ZeroCoef>
-5.4800

> <Gold.Chemscore.Hbond>
3.3806

> <Gold.Chemscore.Metal>
0.0000

> <Gold.Chemscore.Lipo>
74.0133

> <Gold.Chemscore.Internal_Hbond>
0.0000

> <Gold.Chemscore.DEClash>
0.1288

> <Gold.Chemscore.DEInternal>
4.0257

> <Gold.Chemscore.Rot>
1.0000

> <Gold.Chemscore.Internal.Correction>
   9.000000E+99

> <Gold.Chemscore.Hbonds>
donor molecule, donor type, donor heavy atom, donor atom, acceptor molecule, acceptor atom, score
      L1  H     3    19       P1  8028  0.94
      L1  H    10    24       P1  8028  0.84
      L1  H    16    34       P1  7948  0.47
      P1  H  7989  7998       L1    18  0.99

> <Gold.Chemscore.Hbond.Weighted>
-11.2911

> <Gold.Chemscore.Metal.Weighted>
-0.0000

> <Gold.Chemscore.Lipo.Weighted>
-8.6596

> <Gold.Chemscore.Internal_Hbond.Weighted>
0.0000

> <Gold.Chemscore.DEClash.Weighted>
0.1288

> <Gold.Chemscore.DEInternal.Weighted>
4.0257

> <Gold.Chemscore.Rot.Weighted>
2.5600

> <Gold.Chemscore.Internal.Correction.Weighted>
   9.000000E+99

> <Gold.Protein.RotatedTorsions>
[ 6907 6896 6895 6894 ] final   66.87 input  -60.11 | X-H torsion
[ 7974 7965 7964 7962 ] final   26.64 input  175.53 | X-H torsion
[ 8008 7997 7996 7995 ] final   85.97 input   59.86 | X-H torsion
[ 10167 10162 10161 10158 ] final -124.67 input  -65.29 | X-H torsion
[ 10718 10713 10712 10709 ] final  -56.54 input   66.30 | X-H torsion
[ 10763 10752 10751 10750 ] final   88.42 input  -60.55 | X-H torsion
[ 11005 11000 10999 10996 ] final  113.76 input  -57.11 | X-H torsion

> <Gold.Protein.ActiveResidues>
 VAL166  LYS551  ARG553  GLY616  TRP617  ASP618  TYR619  PRO620  LYS621  CYS622 
 ASP623  PHE694  ASN695  SER759  ASP760  ASP761  ALA762  ILE779  LEU786  VAL792 
 PHE793  MET794  SER795  GLU796  ALA797  LYS798  CYS799  TRP800  GLU811  SER814 

> <Gold.Protein.RotatedAtoms>
  152.4512  134.5390  159.9833 H   0  0  0  0  0  0  0  0  0  0  0  0  # atno 6907 bound_to 6896
  151.5462  133.3419  159.2952 H   0  0  0  0  0  0  0  0  0  0  0  0  # atno 6908 bound_to 6896
  150.8441  134.7775  159.7019 H   0  0  0  0  0  0  0  0  0  0  0  0  # atno 6909 bound_to 6896
  146.1827  139.7300  142.8889 H   0  0  0  0  0  0  0  0  0  0  0  0  # atno 7974 bound_to 7965
  155.9569  140.3396  155.6456 H   0  0  0  0  0  0  0  0  0  0  0  0  # atno 8008 bound_to 7997
  155.6849  140.0742  157.2489 H   0  0  0  0  0  0  0  0  0  0  0  0  # atno 8009 bound_to 7997
  154.4134  140.1668  156.2010 H   0  0  0  0  0  0  0  0  0  0  0  0  # atno 8010 bound_to 7997
  139.9903  143.5648  152.2344 H   0  0  0  0  0  0  0  0  0  0  0  0  # atno 10167 bound_to 10162
  156.1280  130.4161  150.0319 H   0  0  0  0  0  0  0  0  0  0  0  0  # atno 10718 bound_to 10713
  153.1767  135.4507  154.9974 H   0  0  0  0  0  0  0  0  0  0  0  0  # atno 10763 bound_to 10752
  154.8002  135.3253  154.7570 H   0  0  0  0  0  0  0  0  0  0  0  0  # atno 10764 bound_to 10752
  153.8039  135.6960  153.4906 H   0  0  0  0  0  0  0  0  0  0  0  0  # atno 10765 bound_to 10752
  139.8961  134.9555  156.6787 H   0  0  0  0  0  0  0  0  0  0  0  0  # atno 11005 bound_to 11000
  145.4030  141.0387  143.3060 LP  0  0  0  0  0  0  0  0  0  0  0  0  # atno 17320 bound_to 7965
  144.8342  139.5577  143.6930 LP  0  0  0  0  0  0  0  0  0  0  0  0  # atno 17321 bound_to 7965
  139.6345  144.7648  151.2467 LP  0  0  0  0  0  0  0  0  0  0  0  0  # atno 17342 bound_to 10162
  140.7457  143.6422  150.8324 LP  0  0  0  0  0  0  0  0  0  0  0  0  # atno 17343 bound_to 10162
  156.8239  130.9368  151.3640 LP  0  0  0  0  0  0  0  0  0  0  0  0  # atno 17370 bound_to 10713
  157.6460  130.8845  149.9540 LP  0  0  0  0  0  0  0  0  0  0  0  0  # atno 17371 bound_to 10713
  140.7316  133.9054  155.8215 LP  0  0  0  0  0  0  0  0  0  0  0  0  # atno 17394 bound_to 11000
  141.0149  134.0970  157.4183 LP  0  0  0  0  0  0  0  0  0  0  0  0  # atno 17395 bound_to 11000

$$$$
