AV-unprocessed.smi:1697|AV-procd|sdf|6804|dock9
  -GOLD-   22720 7573D 1   1.00000     0.00000
 Structure written by MMmdl.
 54 56  0  0  0  0  0  0  0  0  2 V2000
  153.4265  132.2964  165.3119 C   0  0  0  0  0  0  0  0  0  0  0  0
  154.6663  132.2431  164.4085 C   0  0  0  0  0  0  0  0  0  0  0  0
  154.7982  133.4111  163.6074 O   0  0  0  0  0  0  0  0  0  0  0  0
  154.9322  134.6310  164.3261 C   0  0  2  0  0  0  0  0  0  0  0  0
  153.9968  135.6723  163.6960 C   0  0  0  0  0  0  0  0  0  0  0  0
  154.1963  137.0547  164.3403 C   0  0  0  0  0  0  0  0  0  0  0  0
  155.6114  137.4960  164.2363 N   0  3  1  0  0  0  0  0  0  0  0  0
  155.8101  138.8843  164.7264 C   0  0  0  0  0  0  0  0  0  0  0  0
  155.5249  139.9358  163.6366 C   0  0  1  0  0  0  0  0  0  0  0  0
  156.1719  141.1445  163.9869 O   0  0  0  0  0  0  0  0  0  0  0  0
  156.0163  139.4794  162.2497 C   0  0  0  0  0  0  0  0  0  0  0  0
  155.1184  139.8919  161.1863 N   0  0  0  0  0  0  0  0  0  0  0  0
  154.9528  139.3094  159.9830 C   0  0  0  0  0  0  0  0  0  0  0  0
  154.0728  139.8644  159.1545 N   0  0  0  0  0  0  0  0  0  0  0  0
  153.6117  140.9298  159.9088 C   0  0  0  0  0  0  0  0  0  0  0  0
  152.6572  141.9249  159.6049 C   0  0  0  0  0  0  0  0  0  0  0  0
  152.3385  142.9338  160.5420 C   0  0  0  0  0  0  0  0  0  0  0  0
  151.3082  143.9863  160.1722 C   0  0  0  0  0  0  0  0  0  0  0  0
  152.9779  142.9562  161.8077 C   0  0  0  0  0  0  0  0  0  0  0  0
  152.6517  144.0305  162.8300 C   0  0  0  0  0  0  0  0  0  0  0  0
  153.9332  141.9691  162.1279 C   0  0  0  0  0  0  0  0  0  0  0  0
  154.2434  140.9724  161.1859 C   0  0  0  0  0  0  0  0  0  0  0  0
  156.5378  136.5138  164.8618 C   0  0  0  0  0  0  0  0  0  0  0  0
  156.3837  135.1243  164.2231 C   0  0  0  0  0  0  0  0  0  0  0  0
  153.3981  131.4339  165.9780 H   0  0  0  0  0  0  0  0  0  0  0  0
  152.5038  132.2906  164.7321 H   0  0  0  0  0  0  0  0  0  0  0  0
  153.4313  133.1941  165.9306 H   0  0  0  0  0  0  0  0  0  0  0  0
  155.5564  132.1738  165.0341 H   0  0  0  0  0  0  0  0  0  0  0  0
  154.6580  131.3488  163.7838 H   0  0  0  0  0  0  0  0  0  0  0  0
  154.6607  134.5108  165.3769 H   0  0  0  0  0  0  0  0  0  0  0  0
  154.1871  135.7394  162.6238 H   0  0  0  0  0  0  0  0  0  0  0  0
  152.9592  135.3553  163.8067 H   0  0  0  0  0  0  0  0  0  0  0  0
  153.5478  137.7760  163.8416 H   0  0  0  0  0  0  0  0  0  0  0  0
  153.8973  137.0295  165.3896 H   0  0  0  0  0  0  0  0  0  0  0  0
  155.1540  139.0798  165.5764 H   0  0  0  0  0  0  0  0  0  0  0  0
  156.8292  138.9870  165.1025 H   0  0  0  0  0  0  0  0  0  0  0  0
  154.4553  140.1334  163.5753 H   0  0  0  0  0  0  0  0  0  0  0  0
  155.5172  141.7779  164.2396 H   0  0  0  0  0  0  0  0  0  0  0  0
  157.0131  139.8723  162.0438 H   0  0  0  0  0  0  0  0  0  0  0  0
  156.0963  138.3921  162.2181 H   0  0  0  0  0  0  0  0  0  0  0  0
  155.5135  138.4316  159.6963 H   0  0  0  0  0  0  0  0  0  0  0  0
  152.1706  141.9081  158.6408 H   0  0  0  0  0  0  0  0  0  0  0  0
  151.7580  144.9793  160.1799 H   0  0  0  0  0  0  0  0  0  0  0  0
  150.4786  143.9754  160.8793 H   0  0  0  0  0  0  0  0  0  0  0  0
  150.8997  143.8117  159.1765 H   0  0  0  0  0  0  0  0  0  0  0  0
  153.2356  143.9024  163.7417 H   0  0  0  0  0  0  0  0  0  0  0  0
  151.5965  143.9928  163.1009 H   0  0  0  0  0  0  0  0  0  0  0  0
  152.8713  145.0197  162.4282 H   0  0  0  0  0  0  0  0  0  0  0  0
  154.4275  141.9741  163.0879 H   0  0  0  0  0  0  0  0  0  0  0  0
  157.5716  136.8381  164.7507 H   0  0  0  0  0  0  0  0  0  0  0  0
  156.3407  136.4561  165.9334 H   0  0  0  0  0  0  0  0  0  0  0  0
  157.0592  134.4187  164.7064 H   0  0  0  0  0  0  0  0  0  0  0  0
  156.6849  135.1699  163.1756 H   0  0  0  0  0  0  0  0  0  0  0  0
  155.8256  137.5154  163.2488 H   0  0  0  0  0  0  0  0  0  0  0  0
  1  2  1  0  0  0  0
  1 25  1  0  0  0  0
  1 26  1  0  0  0  0
  1 27  1  0  0  0  0
  2  3  1  0  0  0  0
  2 28  1  0  0  0  0
  2 29  1  0  0  0  0
  3  4  1  0  0  0  0
  4 24  1  0  0  0  0
  4  5  1  0  0  0  0
  4 30  1  0  0  0  0
  5  6  1  0  0  0  0
  5 31  1  0  0  0  0
  5 32  1  0  0  0  0
  6  7  1  0  0  0  0
  6 33  1  0  0  0  0
  6 34  1  0  0  0  0
  7  8  1  0  0  0  0
  7 23  1  0  0  0  0
  7 54  1  0  0  0  0
  8  9  1  0  0  0  0
  8 35  1  0  0  0  0
  8 36  1  0  0  0  0
  9 10  1  0  0  0  0
  9 11  1  0  0  0  0
  9 37  1  0  0  0  0
 10 38  1  0  0  0  0
 11 12  1  0  0  0  0
 11 39  1  0  0  0  0
 11 40  1  0  0  0  0
 12 22  1  0  0  0  0
 12 13  1  0  0  0  0
 13 14  2  0  0  0  0
 13 41  1  0  0  0  0
 14 15  1  0  0  0  0
 15 22  2  0  0  0  0
 15 16  1  0  0  0  0
 16 17  2  0  0  0  0
 16 42  1  0  0  0  0
 17 18  1  0  0  0  0
 17 19  1  0  0  0  0
 18 43  1  0  0  0  0
 18 44  1  0  0  0  0
 18 45  1  0  0  0  0
 19 20  1  0  0  0  0
 19 21  2  0  0  0  0
 20 46  1  0  0  0  0
 20 47  1  0  0  0  0
 20 48  1  0  0  0  0
 21 22  1  0  0  0  0
 21 49  1  0  0  0  0
 23 24  1  0  0  0  0
 23 50  1  0  0  0  0
 23 51  1  0  0  0  0
 24 52  1  0  0  0  0
 24 53  1  0  0  0  0
M  CHG  1   7   1
M  END
> <s_m_source_file>
AV-unprocessed.smi

> <i_m_source_file_index>
1697

> <i_lp_mmshare_version>
43012

> <i_f3d_flags>
0

> <s_epik_input>
W0NIM11bQ0gyXU9bQ0hdMVtDSDJdW0NIMl1OKFtDSDJdW0NIMl0xKVtDSDJdW0NASF0oW09IXSlbQ0gyXW4oW2NIXW4yKWMoYzIzKVtjSF1jKFtDSDNdKWMoW2NIXTMpW0NIM10=

> <s_epik_cmdline>
J2VwaWtfcHl0aG9uJywgJy1waCcsICc3LjAnLCAnLXRuJywgJzgnLCAnLW1hJywgJzIwMCcsICctbWV0YWxfYmluZGluZycsICctaW1hZScsICc8aW5maWxlLm1hZT4nLCAnLW9tYWUnLCAnPG91dGZpbGUubWFlPic=

> <r_epik_Ionization_Penalty>
0.112476

> <r_epik_Ionization_Penalty_Charging>
0.0244612

> <r_epik_Ionization_Penalty_Neutral>
0.0880147

> <r_epik_State_Penalty>
0.0961447

> <r_epik_Charging_Adjusted_Penalty>
0.120606

> <i_epik_Tot_Q>
1

> <i_epik_Tot_abs_Q>
1

> <r_epik_Metal_State_Penalty>
0.0206204

> <b_epik_Metal_Only>
0

> <s_lp_Force_Field>
OPLS_2005

> <r_lp_Energy>
24.3812

> <b_lp_Chiralities_Consistent>
1

> <s_lp_Variant>
AV-unprocessed.smi:1697-2

> <Gold.Version>
5.8.1

> <Gold.Id.Protein>
6NUR|6NUR_protein|mol2

> <Gold.PLP.Fitness>
47.0499

> <Gold.PLP.PLP>
-48.3603

> <Gold.PLP.part.hbond>
-2.0000

> <Gold.PLP.part.metal>
0.0000

> <Gold.PLP.part.buried>
-2.1240

> <Gold.PLP.part.nonpolar>
-43.5402

> <Gold.PLP.part.repulsive>
0.0315

> <Gold.PLP.ligand.clash>
0.3100

> <Gold.PLP.ligand.torsion>
2.0891

> <Gold.PLP.Chemscore.Hbond>
1.0000

> <Gold.PLP.Chemscore.CHOScore>
0.0000

> <Gold.PLP.Chemscore.Metal>
0.0000

> <Gold.Chemscore.Hbonds>
donor molecule, donor type, donor heavy atom, donor atom, acceptor molecule, acceptor atom, score
      P1  H  7997  8010       L1    14  0.88

> <Gold.PLP.Chemscore.Internal.Correction>
0.1778

> <Gold.Rescore>
     Score         DG    S(hbond)    S(metal)    S(lipo)     H(rot)  DE(clash)    DE(int)     intcor
     16.55     -20.54       0.92        0.00     152.21       2.27       0.63       3.37       ----

> <Gold.Chemscore.Fitness>
16.5494

> <Gold.Chemscore.DG>
-20.5414

> <Gold.Chemscore.ZeroCoef>
-5.4800

> <Gold.Chemscore.Hbond>
0.9181

> <Gold.Chemscore.Metal>
0.0000

> <Gold.Chemscore.Lipo>
152.2102

> <Gold.Chemscore.Internal_Hbond>
0.0000

> <Gold.Chemscore.DEClash>
0.6266

> <Gold.Chemscore.DEInternal>
3.3654

> <Gold.Chemscore.Rot>
2.2710

> <Gold.Chemscore.Internal.Correction>
   9.000000E+99

> <Gold.Chemscore.Hbonds>
donor molecule, donor type, donor heavy atom, donor atom, acceptor molecule, acceptor atom, score
      P1  H  7997  8010       L1    14  0.46

> <Gold.Chemscore.Hbond.Weighted>
-3.0665

> <Gold.Chemscore.Metal.Weighted>
-0.0000

> <Gold.Chemscore.Lipo.Weighted>
-17.8086

> <Gold.Chemscore.Internal_Hbond.Weighted>
0.0000

> <Gold.Chemscore.DEClash.Weighted>
0.6266

> <Gold.Chemscore.DEInternal.Weighted>
3.3654

> <Gold.Chemscore.Rot.Weighted>
5.8137

> <Gold.Chemscore.Internal.Correction.Weighted>
   9.000000E+99

> <Gold.Protein.RotatedTorsions>
[ 6907 6896 6895 6894 ] final   53.97 input  -60.11 | X-H torsion
[ 7974 7965 7964 7962 ] final  -96.75 input  175.53 | X-H torsion
[ 8008 7997 7996 7995 ] final    3.77 input   59.86 | X-H torsion
[ 10167 10162 10161 10158 ] final  -22.06 input  -65.29 | X-H torsion
[ 10718 10713 10712 10709 ] final  -80.82 input   66.30 | X-H torsion
[ 10763 10752 10751 10750 ] final  152.21 input  -60.55 | X-H torsion
[ 11005 11000 10999 10996 ] final  -92.49 input  -57.11 | X-H torsion

> <Gold.Protein.ActiveResidues>
 VAL166  LYS551  ARG553  GLY616  TRP617  ASP618  TYR619  PRO620  LYS621  CYS622 
 ASP623  PHE694  ASN695  SER759  ASP760  ASP761  ALA762  ILE779  LEU786  VAL792 
 PHE793  MET794  SER795  GLU796  ALA797  LYS798  CYS799  TRP800  GLU811  SER814 

> <Gold.Protein.RotatedAtoms>
  152.3392  134.7158  160.0268 H   0  0  0  0  0  0  0  0  0  0  0  0  # atno 6907 bound_to 6896
  151.7549  133.3324  159.3409 H   0  0  0  0  0  0  0  0  0  0  0  0  # atno 6908 bound_to 6896
  150.7469  134.6091  159.6121 H   0  0  0  0  0  0  0  0  0  0  0  0  # atno 6909 bound_to 6896
  145.3428  140.9463  143.2598 H   0  0  0  0  0  0  0  0  0  0  0  0  # atno 7974 bound_to 7965
  154.7077  140.2686  155.6659 H   0  0  0  0  0  0  0  0  0  0  0  0  # atno 8008 bound_to 7997
  156.2785  140.2759  156.1633 H   0  0  0  0  0  0  0  0  0  0  0  0  # atno 8009 bound_to 7997
  155.0677  140.0372  157.2588 H   0  0  0  0  0  0  0  0  0  0  0  0  # atno 8010 bound_to 7997
  140.7284  143.4570  151.0434 H   0  0  0  0  0  0  0  0  0  0  0  0  # atno 10167 bound_to 10162
  156.0062  130.4585  150.3858 H   0  0  0  0  0  0  0  0  0  0  0  0  # atno 10718 bound_to 10713
  154.1164  135.2835  155.3219 H   0  0  0  0  0  0  0  0  0  0  0  0  # atno 10763 bound_to 10752
  154.6454  135.5388  153.7841 H   0  0  0  0  0  0  0  0  0  0  0  0  # atno 10764 bound_to 10752
  153.0328  135.6496  154.1320 H   0  0  0  0  0  0  0  0  0  0  0  0  # atno 10765 bound_to 10752
  141.1520  133.7825  157.0028 H   0  0  0  0  0  0  0  0  0  0  0  0  # atno 11005 bound_to 11000
  144.8777  139.4947  143.6737 LP  0  0  0  0  0  0  0  0  0  0  0  0  # atno 17320 bound_to 7965
  146.3000  139.7398  142.9098 LP  0  0  0  0  0  0  0  0  0  0  0  0  # atno 17321 bound_to 7965
  139.8251  143.7767  152.3178 LP  0  0  0  0  0  0  0  0  0  0  0  0  # atno 17342 bound_to 10162
  139.7863  144.7426  151.0017 LP  0  0  0  0  0  0  0  0  0  0  0  0  # atno 17343 bound_to 10162
  157.1935  131.0421  151.2687 LP  0  0  0  0  0  0  0  0  0  0  0  0  # atno 17370 bound_to 10713
  157.4039  130.7348  149.6788 LP  0  0  0  0  0  0  0  0  0  0  0  0  # atno 17371 bound_to 10713
  140.0929  134.9582  157.1804 LP  0  0  0  0  0  0  0  0  0  0  0  0  # atno 17394 bound_to 11000
  140.3422  134.2692  155.7210 LP  0  0  0  0  0  0  0  0  0  0  0  0  # atno 17395 bound_to 11000

$$$$
