AV-unprocessed.smi:2256|AV-procd|sdf|9127|dock8
  -GOLD-   2272012333D 1   1.00000     0.00000
 Structure written by MMmdl.
 42 44  0  0  0  0  0  0  0  0  1 V2000
  146.0705  137.6515  153.4926 C   0  0  0  0  0  0  0  0  0  0  0  0
  147.1932  138.5068  154.0528 C   0  0  0  0  0  0  0  0  0  0  0  0
  147.9308  137.9308  155.0913 N   0  0  0  0  0  0  0  0  0  0  0  0
  148.9096  138.5844  155.6265 C   0  0  0  0  0  0  0  0  0  0  0  0
  149.2627  139.8718  155.1906 N   0  0  0  0  0  0  0  0  0  0  0  0
  150.3965  140.5059  155.8833 C   0  0  0  0  0  0  0  0  0  0  0  0
  149.9464  141.6892  156.7694 C   0  0  1  0  0  0  0  0  0  0  0  0
  149.3391  141.2143  157.9540 O   0  0  0  0  0  0  0  0  0  0  0  0
  151.1052  142.6139  157.1784 C   0  0  0  0  0  0  0  0  0  0  0  0
  151.9059  141.9760  158.1662 O   0  0  0  0  0  0  0  0  0  0  0  0
  152.1340  142.6345  159.3559 C   0  0  0  0  0  0  0  0  0  0  0  0
  151.5704  143.8962  159.6808 C   0  0  0  0  0  0  0  0  0  0  0  0
  151.8460  144.5129  160.9160 C   0  0  0  0  0  0  0  0  0  0  0  0
  152.6878  143.8795  161.8451 C   0  0  0  0  0  0  0  0  0  0  0  0
  153.2461  142.6307  161.5251 C   0  0  0  0  0  0  0  0  0  0  0  0
  154.0893  141.7851  162.2190 N   0  0  0  0  0  0  0  0  0  0  0  0
  154.3654  140.6517  161.4749 C   0  0  0  0  0  0  0  0  0  0  0  0
  153.7049  140.7358  160.2770 C   0  0  0  0  0  0  0  0  0  0  0  0
  152.9859  141.9817  160.2819 C   0  0  0  0  0  0  0  0  0  0  0  0
  148.5839  140.5145  154.1966 C   0  0  0  0  0  0  0  0  0  0  0  0
  148.8846  141.6555  153.8405 O   0  0  0  0  0  0  0  0  0  0  0  0
  147.4785  139.7548  153.5908 C   0  0  0  0  0  0  0  0  0  0  0  0
  146.7115  140.4326  152.4621 C   0  0  0  0  0  0  0  0  0  0  0  0
  154.4669  141.9455  163.1420 H   0  0  0  0  0  0  0  0  0  0  0  0
  146.2374  137.4458  152.4351 H   0  0  0  0  0  0  0  0  0  0  0  0
  145.1123  138.1598  153.6027 H   0  0  0  0  0  0  0  0  0  0  0  0
  146.0014  136.6953  154.0124 H   0  0  0  0  0  0  0  0  0  0  0  0
  149.5129  138.1831  156.4428 H   0  0  0  0  0  0  0  0  0  0  0  0
  150.9748  139.7866  156.4673 H   0  0  0  0  0  0  0  0  0  0  0  0
  151.1022  140.8658  155.1320 H   0  0  0  0  0  0  0  0  0  0  0  0
  149.2066  142.2948  156.2445 H   0  0  0  0  0  0  0  0  0  0  0  0
  149.7971  141.5849  158.6932 H   0  0  0  0  0  0  0  0  0  0  0  0
  151.7183  142.8133  156.2980 H   0  0  0  0  0  0  0  0  0  0  0  0
  150.7209  143.5699  157.5386 H   0  0  0  0  0  0  0  0  0  0  0  0
  150.9187  144.4163  158.9953 H   0  0  0  0  0  0  0  0  0  0  0  0
  151.4100  145.4732  161.1492 H   0  0  0  0  0  0  0  0  0  0  0  0
  152.9027  144.3474  162.7945 H   0  0  0  0  0  0  0  0  0  0  0  0
  155.0110  139.8760  161.8599 H   0  0  0  0  0  0  0  0  0  0  0  0
  153.7144  140.0124  159.4753 H   0  0  0  0  0  0  0  0  0  0  0  0
  146.2580  141.3577  152.8187 H   0  0  0  0  0  0  0  0  0  0  0  0
  145.9150  139.8141  152.0520 H   0  0  0  0  0  0  0  0  0  0  0  0
  147.3877  140.6804  151.6435 H   0  0  0  0  0  0  0  0  0  0  0  0
  1  2  1  0  0  0  0
  1 25  1  0  0  0  0
  1 26  1  0  0  0  0
  1 27  1  0  0  0  0
  2 22  2  0  0  0  0
  2  3  1  0  0  0  0
  3  4  2  0  0  0  0
  4  5  1  0  0  0  0
  4 28  1  0  0  0  0
  5  6  1  0  0  0  0
  5 20  1  0  0  0  0
  6  7  1  0  0  0  0
  6 29  1  0  0  0  0
  6 30  1  0  0  0  0
  7  8  1  0  0  0  0
  7  9  1  0  0  0  0
  7 31  1  0  0  0  0
  8 32  1  0  0  0  0
  9 10  1  0  0  0  0
  9 33  1  0  0  0  0
  9 34  1  0  0  0  0
 10 11  1  0  0  0  0
 11 19  1  0  0  0  0
 11 12  2  0  0  0  0
 12 13  1  0  0  0  0
 12 35  1  0  0  0  0
 13 14  2  0  0  0  0
 13 36  1  0  0  0  0
 14 15  1  0  0  0  0
 14 37  1  0  0  0  0
 15 19  2  0  0  0  0
 15 16  1  0  0  0  0
 16 24  1  0  0  0  0
 16 17  1  0  0  0  0
 17 18  2  0  0  0  0
 17 38  1  0  0  0  0
 18 19  1  0  0  0  0
 18 39  1  0  0  0  0
 20 21  2  0  0  0  0
 20 22  1  0  0  0  0
 22 23  1  0  0  0  0
 23 40  1  0  0  0  0
 23 41  1  0  0  0  0
 23 42  1  0  0  0  0
M  END
> <s_m_source_file>
AV-unprocessed.smi

> <i_m_source_file_index>
2256

> <i_lp_mmshare_version>
43012

> <i_f3d_flags>
0

> <s_epik_input>
W0NIM11jMW5bY0hdbihjKD1PKWMxW0NIM10pW0NIMl1bQ0BIXShbT0hdKVtDSDJdT2MoW2NIXVtjSF1bY0hdMiljKGMyMylbY0hdW2NIXVtuSF0z

> <s_epik_cmdline>
J2VwaWtfcHl0aG9uJywgJy1waCcsICc3LjAnLCAnLXRuJywgJzgnLCAnLW1hJywgJzIwMCcsICctbWV0YWxfYmluZGluZycsICctaW1hZScsICc8aW5maWxlLm1hZT4nLCAnLW9tYWUnLCAnPG91dGZpbGUubWFlPic=

> <r_lp_tautomer_probability>
1

> <r_epik_Ionization_Penalty>
4.18314e-05

> <r_epik_Ionization_Penalty_Charging>
1.04093e-07

> <r_epik_Ionization_Penalty_Neutral>
4.17273e-05

> <r_epik_State_Penalty>
-0

> <r_epik_Charging_Adjusted_Penalty>
1.04093e-07

> <i_epik_Tot_Q>
0

> <i_epik_Tot_abs_Q>
0

> <r_epik_Metal_State_Penalty>
-0

> <b_epik_Metal_Only>
0

> <s_lp_Force_Field>
OPLS_2005

> <r_lp_Energy>
26.3199

> <b_lp_Chiralities_Consistent>
1

> <s_lp_Variant>
AV-unprocessed.smi:2256-2

> <Gold.Version>
5.8.1

> <Gold.Id.Protein>
6NUR|6NUR_protein|mol2

> <Gold.PLP.Fitness>
45.5269

> <Gold.PLP.PLP>
-44.9571

> <Gold.PLP.part.hbond>
-2.2557

> <Gold.PLP.part.metal>
0.0000

> <Gold.PLP.part.buried>
-2.6309

> <Gold.PLP.part.nonpolar>
-40.4162

> <Gold.PLP.part.repulsive>
0.3080

> <Gold.PLP.ligand.clash>
0.0000

> <Gold.PLP.ligand.torsion>
0.6665

> <Gold.PLP.Chemscore.Hbond>
0.6240

> <Gold.PLP.Chemscore.CHOScore>
0.0000

> <Gold.PLP.Chemscore.Metal>
0.0000

> <Gold.Chemscore.Hbonds>
donor molecule, donor type, donor heavy atom, donor atom, acceptor molecule, acceptor atom, score
      P1  H  8011  8017       L1    21  0.64

> <Gold.PLP.Chemscore.Internal.Correction>
0.0309

> <Gold.Rescore>
     Score         DG    S(hbond)    S(metal)    S(lipo)     H(rot)  DE(clash)    DE(int)     intcor
     15.40     -16.44       0.77        0.00     128.21       2.58       0.38       0.66       ----

> <Gold.Chemscore.Fitness>
15.3985

> <Gold.Chemscore.DG>
-16.4414

> <Gold.Chemscore.ZeroCoef>
-5.4800

> <Gold.Chemscore.Hbond>
0.7685

> <Gold.Chemscore.Metal>
0.0000

> <Gold.Chemscore.Lipo>
128.2115

> <Gold.Chemscore.Internal_Hbond>
0.0000

> <Gold.Chemscore.DEClash>
0.3799

> <Gold.Chemscore.DEInternal>
0.6631

> <Gold.Chemscore.Rot>
2.5804

> <Gold.Chemscore.Internal.Correction>
   9.000000E+99

> <Gold.Chemscore.Hbonds>
donor molecule, donor type, donor heavy atom, donor atom, acceptor molecule, acceptor atom, score
      P1  H  8011  8017       L1    21  0.64

> <Gold.Chemscore.Hbond.Weighted>
-2.5666

> <Gold.Chemscore.Metal.Weighted>
-0.0000

> <Gold.Chemscore.Lipo.Weighted>
-15.0007

> <Gold.Chemscore.Internal_Hbond.Weighted>
0.0000

> <Gold.Chemscore.DEClash.Weighted>
0.3799

> <Gold.Chemscore.DEInternal.Weighted>
0.6631

> <Gold.Chemscore.Rot.Weighted>
6.6059

> <Gold.Chemscore.Internal.Correction.Weighted>
   9.000000E+99

> <Gold.Protein.RotatedTorsions>
[ 6907 6896 6895 6894 ] final -166.21 input  -60.11 | X-H torsion
[ 7974 7965 7964 7962 ] final   82.34 input  175.53 | X-H torsion
[ 8008 7997 7996 7995 ] final -160.70 input   59.86 | X-H torsion
[ 10167 10162 10161 10158 ] final   24.36 input  -65.29 | X-H torsion
[ 10718 10713 10712 10709 ] final  -83.68 input   66.30 | X-H torsion
[ 10763 10752 10751 10750 ] final  169.47 input  -60.55 | X-H torsion
[ 11005 11000 10999 10996 ] final   -2.72 input  -57.11 | X-H torsion

> <Gold.Protein.ActiveResidues>
 VAL166  LYS551  ARG553  GLY616  TRP617  ASP618  TYR619  PRO620  LYS621  CYS622 
 ASP623  PHE694  ASN695  SER759  ASP760  ASP761  ALA762  ILE779  LEU786  VAL792 
 PHE793  MET794  SER795  GLU796  ALA797  LYS798  CYS799  TRP800  GLU811  SER814 

> <Gold.Protein.RotatedAtoms>
  151.4399  133.3646  159.2780 H   0  0  0  0  0  0  0  0  0  0  0  0  # atno 6907 bound_to 6896
  150.9165  134.8584  159.7471 H   0  0  0  0  0  0  0  0  0  0  0  0  # atno 6908 bound_to 6896
  152.4959  134.4334  159.9571 H   0  0  0  0  0  0  0  0  0  0  0  0  # atno 6909 bound_to 6896
  145.6263  139.2396  143.2110 H   0  0  0  0  0  0  0  0  0  0  0  0  # atno 7974 bound_to 7965
  155.7813  140.0865  157.2058 H   0  0  0  0  0  0  0  0  0  0  0  0  # atno 8008 bound_to 7997
  154.3990  140.1507  156.3113 H   0  0  0  0  0  0  0  0  0  0  0  0  # atno 8009 bound_to 7997
  155.8651  140.3428  155.5785 H   0  0  0  0  0  0  0  0  0  0  0  0  # atno 8010 bound_to 7997
  140.5195  144.0027  150.6410 H   0  0  0  0  0  0  0  0  0  0  0  0  # atno 10167 bound_to 10162
  156.0015  130.4673  150.4294 H   0  0  0  0  0  0  0  0  0  0  0  0  # atno 10718 bound_to 10713
  154.3837  135.2753  155.2196 H   0  0  0  0  0  0  0  0  0  0  0  0  # atno 10763 bound_to 10752
  154.4292  135.5981  153.6061 H   0  0  0  0  0  0  0  0  0  0  0  0  # atno 10764 bound_to 10752
  152.9834  135.5991  154.4083 H   0  0  0  0  0  0  0  0  0  0  0  0  # atno 10765 bound_to 10752
  140.6614  133.9316  155.8439 H   0  0  0  0  0  0  0  0  0  0  0  0  # atno 11005 bound_to 11000
  146.1391  140.7082  142.9375 LP  0  0  0  0  0  0  0  0  0  0  0  0  # atno 17320 bound_to 7965
  144.7211  140.4375  143.7007 LP  0  0  0  0  0  0  0  0  0  0  0  0  # atno 17321 bound_to 7965
  140.3372  143.3042  152.0626 LP  0  0  0  0  0  0  0  0  0  0  0  0  # atno 17342 bound_to 10162
  139.4919  144.6468  151.6761 LP  0  0  0  0  0  0  0  0  0  0  0  0  # atno 17343 bound_to 10162
  157.2344  131.0511  151.2473 LP  0  0  0  0  0  0  0  0  0  0  0  0  # atno 17370 bound_to 10713
  157.3680  130.7166  149.6546 LP  0  0  0  0  0  0  0  0  0  0  0  0  # atno 17371 bound_to 10713
  141.0462  134.0551  157.3841 LP  0  0  0  0  0  0  0  0  0  0  0  0  # atno 17394 bound_to 11000
  139.9011  135.0165  156.7274 LP  0  0  0  0  0  0  0  0  0  0  0  0  # atno 17395 bound_to 11000

$$$$
