AV-unprocessed.smi:1445|AV-procd|sdf|5887|dock4
  -GOLD-   22720 5563D 1   1.00000     0.00000
 Structure written by MMmdl.
 46 47  0  0  0  0  0  0  0  0  2 V2000
  150.6850  145.0866  159.6051 C   0  0  0  0  0  0  0  0  0  0  0  0
  150.6558  144.2087  158.4847 O   0  0  0  0  0  0  0  0  0  0  0  0
  151.3919  143.0404  158.5426 C   0  0  0  0  0  0  0  0  0  0  0  0
  152.2285  142.8581  159.5951 N   0  0  0  0  0  0  0  0  0  0  0  0
  152.9431  141.7164  159.6583 C   0  0  0  0  0  0  0  0  0  0  0  0
  152.8597  140.7018  158.6878 C   0  0  0  0  0  0  0  0  0  0  0  0
  151.9932  140.8880  157.5951 C   0  0  0  0  0  0  0  0  0  0  0  0
  151.2441  142.0875  157.5068 C   0  0  0  0  0  0  0  0  0  0  0  0
  150.3273  142.3821  156.4579 N   0  0  0  0  0  0  0  0  0  0  0  0
  150.0781  141.6989  155.3274 C   0  0  0  0  0  0  0  0  0  0  0  0
  150.6383  140.6605  154.9777 O   0  0  0  0  0  0  0  0  0  0  0  0
  149.1314  142.3034  154.5952 N   0  0  0  0  0  0  0  0  0  0  0  0
  148.6158  141.8050  153.3253 C   0  0  0  0  0  0  0  0  0  0  0  0
  147.0754  141.8435  153.2796 C   0  0  0  0  0  0  0  0  0  0  0  0
  146.4875  140.5230  152.9419 N   0  3  1  0  0  0  0  0  0  0  0  0
  147.1268  139.9107  151.7488 C   0  0  0  0  0  0  0  0  0  0  0  0
  146.3930  138.6285  151.3251 C   0  0  0  0  0  0  0  0  0  0  0  0
  146.3182  137.6256  152.4853 C   0  0  0  0  0  0  0  0  0  0  0  0
  145.7190  138.2734  153.7474 C   0  0  2  0  0  0  0  0  0  0  0  0
  144.1980  138.4851  153.6461 C   0  0  0  0  0  0  0  0  0  0  0  0
  146.4663  139.5784  154.0924 C   0  0  0  0  0  0  0  0  0  0  0  0
  150.0541  145.9517  159.4025 H   0  0  0  0  0  0  0  0  0  0  0  0
  151.6944  145.4521  159.7991 H   0  0  0  0  0  0  0  0  0  0  0  0
  150.3011  144.6012  160.5036 H   0  0  0  0  0  0  0  0  0  0  0  0
  153.5967  141.6059  160.5108 H   0  0  0  0  0  0  0  0  0  0  0  0
  153.4442  139.7986  158.7816 H   0  0  0  0  0  0  0  0  0  0  0  0
  151.9166  140.1019  156.8613 H   0  0  0  0  0  0  0  0  0  0  0  0
  149.8234  143.2500  156.5678 H   0  0  0  0  0  0  0  0  0  0  0  0
  148.7249  143.1562  154.9520 H   0  0  0  0  0  0  0  0  0  0  0  0
  149.0573  142.3847  152.5143 H   0  0  0  0  0  0  0  0  0  0  0  0
  148.9648  140.7799  153.1978 H   0  0  0  0  0  0  0  0  0  0  0  0
  146.7197  142.1566  154.2624 H   0  0  0  0  0  0  0  0  0  0  0  0
  146.7171  142.5920  152.5713 H   0  0  0  0  0  0  0  0  0  0  0  0
  147.1153  140.6171  150.9179 H   0  0  0  0  0  0  0  0  0  0  0  0
  148.1740  139.6934  151.9661 H   0  0  0  0  0  0  0  0  0  0  0  0
  145.3886  138.8766  150.9809 H   0  0  0  0  0  0  0  0  0  0  0  0
  146.9023  138.1733  150.4752 H   0  0  0  0  0  0  0  0  0  0  0  0
  145.7407  136.7481  152.1923 H   0  0  0  0  0  0  0  0  0  0  0  0
  147.3238  137.2671  152.7101 H   0  0  0  0  0  0  0  0  0  0  0  0
  145.8767  137.5785  154.5734 H   0  0  0  0  0  0  0  0  0  0  0  0
  143.9351  139.1867  152.8545 H   0  0  0  0  0  0  0  0  0  0  0  0
  143.7959  138.8785  154.5802 H   0  0  0  0  0  0  0  0  0  0  0  0
  143.6847  137.5454  153.4405 H   0  0  0  0  0  0  0  0  0  0  0  0
  147.4933  139.3488  154.3809 H   0  0  0  0  0  0  0  0  0  0  0  0
  145.9994  140.0380  154.9626 H   0  0  0  0  0  0  0  0  0  0  0  0
  145.5262  140.6969  152.6853 H   0  0  0  0  0  0  0  0  0  0  0  0
  1  2  1  0  0  0  0
  1 22  1  0  0  0  0
  1 23  1  0  0  0  0
  1 24  1  0  0  0  0
  2  3  1  0  0  0  0
  3  8  1  0  0  0  0
  3  4  2  0  0  0  0
  4  5  1  0  0  0  0
  5  6  2  0  0  0  0
  5 25  1  0  0  0  0
  6  7  1  0  0  0  0
  6 26  1  0  0  0  0
  7  8  2  0  0  0  0
  7 27  1  0  0  0  0
  8  9  1  0  0  0  0
  9 10  1  0  0  0  0
  9 28  1  0  0  0  0
 10 11  2  0  0  0  0
 10 12  1  0  0  0  0
 12 13  1  0  0  0  0
 12 29  1  0  0  0  0
 13 14  1  0  0  0  0
 13 30  1  0  0  0  0
 13 31  1  0  0  0  0
 14 15  1  0  0  0  0
 14 32  1  0  0  0  0
 14 33  1  0  0  0  0
 15 21  1  0  0  0  0
 15 16  1  0  0  0  0
 15 46  1  0  0  0  0
 16 17  1  0  0  0  0
 16 34  1  0  0  0  0
 16 35  1  0  0  0  0
 17 18  1  0  0  0  0
 17 36  1  0  0  0  0
 17 37  1  0  0  0  0
 18 19  1  0  0  0  0
 18 38  1  0  0  0  0
 18 39  1  0  0  0  0
 19 20  1  0  0  0  0
 19 21  1  0  0  0  0
 19 40  1  0  0  0  0
 20 41  1  0  0  0  0
 20 42  1  0  0  0  0
 20 43  1  0  0  0  0
 21 44  1  0  0  0  0
 21 45  1  0  0  0  0
M  CHG  1  15   1
M  END
> <s_m_source_file>
AV-unprocessed.smi

> <i_m_source_file_index>
1445

> <i_lp_mmshare_version>
43012

> <i_f3d_flags>
0

> <s_epik_input>
W0NIM11PYzFuW2NIXVtjSF1bY0hdYzFbTkhdQyg9TylbTkhdW0NIMl1bQ0gyXU4yW0NIMl1bQ0gyXVtDSDJdW0NAQEhdKFtDSDNdKVtDSDJdMg==

> <s_epik_cmdline>
J2VwaWtfcHl0aG9uJywgJy1waCcsICc3LjAnLCAnLXRuJywgJzgnLCAnLW1hJywgJzIwMCcsICctbWV0YWxfYmluZGluZycsICctaW1hZScsICc8aW5maWxlLm1hZT4nLCAnLW9tYWUnLCAnPG91dGZpbGUubWFlPic=

> <r_lp_tautomer_probability>
1

> <r_epik_Ionization_Penalty>
0.00179544

> <r_epik_Ionization_Penalty_Charging>
0.00171832

> <r_epik_Ionization_Penalty_Neutral>
7.71118e-05

> <r_epik_State_Penalty>
0.0011618

> <r_epik_Charging_Adjusted_Penalty>
0.00288012

> <i_epik_Tot_Q>
1

> <i_epik_Tot_abs_Q>
1

> <r_epik_Metal_State_Penalty>
-0

> <b_epik_Metal_Only>
0

> <s_lp_Force_Field>
OPLS_2005

> <r_lp_Energy>
21.8859

> <b_lp_Chiralities_Consistent>
1

> <s_lp_Variant>
AV-unprocessed.smi:1445-3

> <Gold.Version>
5.8.1

> <Gold.Id.Protein>
6NUR|6NUR_protein|mol2

> <Gold.PLP.Fitness>
47.7137

> <Gold.PLP.PLP>
-35.5557

> <Gold.PLP.part.hbond>
-3.8626

> <Gold.PLP.part.metal>
0.0000

> <Gold.PLP.part.buried>
-3.2014

> <Gold.PLP.part.nonpolar>
-28.0413

> <Gold.PLP.part.repulsive>
0.4792

> <Gold.PLP.ligand.clash>
0.0000

> <Gold.PLP.ligand.torsion>
0.6131

> <Gold.PLP.Chemscore.Hbond>
4.4461

> <Gold.PLP.Chemscore.CHOScore>
0.0000

> <Gold.PLP.Chemscore.Metal>
0.0000

> <Gold.Chemscore.Hbonds>
donor molecule, donor type, donor heavy atom, donor atom, acceptor molecule, acceptor atom, score
      L1  H     9    28       P1  8028  0.93
      L1  H    12    29       P1  8028  1.00
      L1  H    15    46       P1 10175  2.00
      P1  H  7989  7998       L1    11  0.93

> <Gold.PLP.Chemscore.Internal.Correction>
0.0457

> <Gold.Rescore>
     Score         DG    S(hbond)    S(metal)    S(lipo)     H(rot)  DE(clash)    DE(int)     intcor
     18.53     -21.01       2.93        0.00      86.64       1.71       0.69       1.79       ----

> <Gold.Chemscore.Fitness>
18.5299

> <Gold.Chemscore.DG>
-21.0141

> <Gold.Chemscore.ZeroCoef>
-5.4800

> <Gold.Chemscore.Hbond>
2.9273

> <Gold.Chemscore.Metal>
0.0000

> <Gold.Chemscore.Lipo>
86.6367

> <Gold.Chemscore.Internal_Hbond>
0.0000

> <Gold.Chemscore.DEClash>
0.6896

> <Gold.Chemscore.DEInternal>
1.7946

> <Gold.Chemscore.Rot>
1.7107

> <Gold.Chemscore.Internal.Correction>
   9.000000E+99

> <Gold.Chemscore.Hbonds>
donor molecule, donor type, donor heavy atom, donor atom, acceptor molecule, acceptor atom, score
      L1  H     9    28       P1  8028  0.90
      L1  H    12    29       P1  8028  0.96
      L1  H    15    46       P1 10175  0.40
      P1  H  7989  7998       L1    11  0.74

> <Gold.Chemscore.Hbond.Weighted>
-9.7771

> <Gold.Chemscore.Metal.Weighted>
-0.0000

> <Gold.Chemscore.Lipo.Weighted>
-10.1365

> <Gold.Chemscore.Internal_Hbond.Weighted>
0.0000

> <Gold.Chemscore.DEClash.Weighted>
0.6896

> <Gold.Chemscore.DEInternal.Weighted>
1.7946

> <Gold.Chemscore.Rot.Weighted>
4.3794

> <Gold.Chemscore.Internal.Correction.Weighted>
   9.000000E+99

> <Gold.Protein.RotatedTorsions>
[ 6907 6896 6895 6894 ] final   39.81 input  -60.11 | X-H torsion
[ 7974 7965 7964 7962 ] final  -24.19 input  175.53 | X-H torsion
[ 8008 7997 7996 7995 ] final -123.21 input   59.86 | X-H torsion
[ 10167 10162 10161 10158 ] final   57.56 input  -65.29 | X-H torsion
[ 10718 10713 10712 10709 ] final -167.05 input   66.30 | X-H torsion
[ 10763 10752 10751 10750 ] final -138.56 input  -60.55 | X-H torsion
[ 11005 11000 10999 10996 ] final   -2.12 input  -57.11 | X-H torsion

> <Gold.Protein.ActiveResidues>
 VAL166  LYS551  ARG553  GLY616  TRP617  ASP618  TYR619  PRO620  LYS621  CYS622 
 ASP623  PHE694  ASN695  SER759  ASP760  ASP761  ALA762  ILE779  LEU786  VAL792 
 PHE793  MET794  SER795  GLU796  ALA797  LYS798  CYS799  TRP800  GLU811  SER814 

> <Gold.Protein.RotatedAtoms>
  152.1744  134.8807  160.0531 H   0  0  0  0  0  0  0  0  0  0  0  0  # atno 6907 bound_to 6896
  151.9754  133.3735  159.4095 H   0  0  0  0  0  0  0  0  0  0  0  0  # atno 6908 bound_to 6896
  150.6907  134.4018  159.5166 H   0  0  0  0  0  0  0  0  0  0  0  0  # atno 6909 bound_to 6896
  146.1570  140.4718  142.8587 H   0  0  0  0  0  0  0  0  0  0  0  0  # atno 7974 bound_to 7965
  155.1768  140.0409  157.2874 H   0  0  0  0  0  0  0  0  0  0  0  0  # atno 8008 bound_to 7997
  154.6231  140.2505  155.7497 H   0  0  0  0  0  0  0  0  0  0  0  0  # atno 8009 bound_to 7997
  156.2444  140.2891  156.0548 H   0  0  0  0  0  0  0  0  0  0  0  0  # atno 8010 bound_to 7997
  140.1967  144.4030  150.6547 H   0  0  0  0  0  0  0  0  0  0  0  0  # atno 10167 bound_to 10162
  156.6768  130.9106  151.3051 H   0  0  0  0  0  0  0  0  0  0  0  0  # atno 10718 bound_to 10713
  154.8633  135.3608  154.5404 H   0  0  0  0  0  0  0  0  0  0  0  0  # atno 10763 bound_to 10752
  153.6026  135.7012  153.5383 H   0  0  0  0  0  0  0  0  0  0  0  0  # atno 10764 bound_to 10752
  153.3278  135.4133  155.1431 H   0  0  0  0  0  0  0  0  0  0  0  0  # atno 10765 bound_to 10752
  140.6549  133.9372  155.8401 H   0  0  0  0  0  0  0  0  0  0  0  0  # atno 11005 bound_to 11000
  144.7976  140.6153  143.6499 LP  0  0  0  0  0  0  0  0  0  0  0  0  # atno 17320 bound_to 7965
  145.4683  139.1506  143.3828 LP  0  0  0  0  0  0  0  0  0  0  0  0  # atno 17321 bound_to 7965
  140.6418  143.2205  151.6272 LP  0  0  0  0  0  0  0  0  0  0  0  0  # atno 17342 bound_to 10162
  139.5234  144.3135  152.0972 LP  0  0  0  0  0  0  0  0  0  0  0  0  # atno 17343 bound_to 10162
  157.7058  130.9383  150.0926 LP  0  0  0  0  0  0  0  0  0  0  0  0  # atno 17370 bound_to 10713
  156.1897  130.3654  149.8926 LP  0  0  0  0  0  0  0  0  0  0  0  0  # atno 17371 bound_to 10713
  141.0509  134.0486  157.3784 LP  0  0  0  0  0  0  0  0  0  0  0  0  # atno 17394 bound_to 11000
  139.9033  135.0172  156.7370 LP  0  0  0  0  0  0  0  0  0  0  0  0  # atno 17395 bound_to 11000

$$$$
