AV-unprocessed.smi:1555|AV-procd|sdf|6264|dock10
  -GOLD-   22720 6453D 1   1.00000     0.00000
 Structure written by MMmdl.
 42 43  0  0  0  0  0  0  0  0  2 V2000
  153.5385  139.2891  159.9347 C   0  0  0  0  0  0  0  0  0  0  0  0
  152.9123  140.3968  159.0722 C   0  0  2  0  0  0  0  0  0  0  0  0
  152.4424  141.6139  159.8985 C   0  0  0  0  0  0  0  0  0  0  0  0
  152.1398  142.7834  159.0686 N   0  0  0  0  0  0  0  0  0  0  0  0
  152.7832  143.9944  159.0792 C   0  0  0  0  0  0  0  0  0  0  0  0
  152.1639  144.7739  158.1363 C   0  0  0  0  0  0  0  0  0  0  0  0
  151.1723  144.0049  157.5880 N   0  3  0  0  0  0  0  0  0  0  0  0
  151.1615  142.7936  158.1538 C   0  0  0  0  0  0  0  0  0  0  0  0
  151.7954  139.8401  158.3147 N   0  0  0  0  0  0  0  0  0  0  0  0
  151.8178  139.5210  157.0088 C   0  0  0  0  0  0  0  0  0  0  0  0
  152.8267  139.6726  156.3181 O   0  0  0  0  0  0  0  0  0  0  0  0
  150.6540  139.0161  156.5265 N   0  0  0  0  0  0  0  0  0  0  0  0
  149.3213  139.1560  157.1375 C   0  0  0  0  0  0  0  0  0  0  0  0
  148.4989  140.1586  156.3080 C   0  0  0  0  0  0  0  0  0  0  0  0
  148.3953  139.7128  154.8304 C   0  0  0  0  0  0  0  0  0  0  0  0
  147.6727  140.7527  153.9548 C   0  0  0  0  0  0  0  0  0  0  0  0
  147.4657  140.2523  152.6504 O   0  0  0  0  0  0  0  0  0  0  0  0
  149.7947  139.3833  154.2651 C   0  0  0  0  0  0  0  0  0  0  0  0
  150.5612  138.4187  155.1888 C   0  0  0  0  0  0  0  0  0  0  0  0
  154.4339  139.6395  160.4485 H   0  0  0  0  0  0  0  0  0  0  0  0
  153.8316  138.4347  159.3236 H   0  0  0  0  0  0  0  0  0  0  0  0
  152.8383  138.9321  160.6907 H   0  0  0  0  0  0  0  0  0  0  0  0
  153.6746  140.7275  158.3639 H   0  0  0  0  0  0  0  0  0  0  0  0
  151.5373  141.3765  160.4593 H   0  0  0  0  0  0  0  0  0  0  0  0
  153.2009  141.8962  160.6308 H   0  0  0  0  0  0  0  0  0  0  0  0
  153.6112  144.2054  159.7409 H   0  0  0  0  0  0  0  0  0  0  0  0
  152.3504  145.7906  157.8222 H   0  0  0  0  0  0  0  0  0  0  0  0
  150.4918  141.9853  157.9196 H   0  0  0  0  0  0  0  0  0  0  0  0
  150.9353  139.6836  158.8200 H   0  0  0  0  0  0  0  0  0  0  0  0
  148.8263  138.1837  157.1404 H   0  0  0  0  0  0  0  0  0  0  0  0
  149.3416  139.4690  158.1811 H   0  0  0  0  0  0  0  0  0  0  0  0
  147.5036  140.2603  156.7417 H   0  0  0  0  0  0  0  0  0  0  0  0
  148.9634  141.1439  156.3668 H   0  0  0  0  0  0  0  0  0  0  0  0
  147.8137  138.7898  154.8026 H   0  0  0  0  0  0  0  0  0  0  0  0
  146.7138  141.0321  154.3926 H   0  0  0  0  0  0  0  0  0  0  0  0
  148.2685  141.6627  153.8775 H   0  0  0  0  0  0  0  0  0  0  0  0
  148.3066  140.0539  152.2671 H   0  0  0  0  0  0  0  0  0  0  0  0
  149.7020  138.9449  153.2710 H   0  0  0  0  0  0  0  0  0  0  0  0
  150.3712  140.3017  154.1449 H   0  0  0  0  0  0  0  0  0  0  0  0
  151.5377  138.1907  154.7588 H   0  0  0  0  0  0  0  0  0  0  0  0
  150.0381  137.4634  155.2532 H   0  0  0  0  0  0  0  0  0  0  0  0
  150.5389  144.3064  156.8581 H   0  0  0  0  0  0  0  0  0  0  0  0
  1  2  1  0  0  0  0
  1 20  1  0  0  0  0
  1 21  1  0  0  0  0
  1 22  1  0  0  0  0
  2  3  1  0  0  0  0
  2  9  1  0  0  0  0
  2 23  1  0  0  0  0
  3  4  1  0  0  0  0
  3 24  1  0  0  0  0
  3 25  1  0  0  0  0
  4  8  1  0  0  0  0
  4  5  1  0  0  0  0
  5  6  2  0  0  0  0
  5 26  1  0  0  0  0
  6  7  1  0  0  0  0
  6 27  1  0  0  0  0
  7  8  2  0  0  0  0
  7 42  1  0  0  0  0
  8 28  1  0  0  0  0
  9 10  1  0  0  0  0
  9 29  1  0  0  0  0
 10 11  2  0  0  0  0
 10 12  1  0  0  0  0
 12 19  1  0  0  0  0
 12 13  1  0  0  0  0
 13 14  1  0  0  0  0
 13 30  1  0  0  0  0
 13 31  1  0  0  0  0
 14 15  1  0  0  0  0
 14 32  1  0  0  0  0
 14 33  1  0  0  0  0
 15 16  1  0  0  0  0
 15 18  1  0  0  0  0
 15 34  1  0  0  0  0
 16 17  1  0  0  0  0
 16 35  1  0  0  0  0
 16 36  1  0  0  0  0
 17 37  1  0  0  0  0
 18 19  1  0  0  0  0
 18 38  1  0  0  0  0
 18 39  1  0  0  0  0
 19 40  1  0  0  0  0
 19 41  1  0  0  0  0
M  CHG  1   7   1
M  END
> <s_m_source_file>
AV-unprocessed.smi

> <i_m_source_file_index>
1555

> <i_lp_mmshare_version>
43012

> <i_f3d_flags>
0

> <s_epik_input>
W2NIXTFuW2NIXVtjSF1uMVtDSDJdW0NAQEhdKFtDSDNdKVtOSF1DKD1PKU4yW0NIMl1bQ0gyXVtDSF0oW0NIMl1bT0hdKVtDSDJdW0NIMl0y

> <s_epik_cmdline>
J2VwaWtfcHl0aG9uJywgJy1waCcsICc3LjAnLCAnLXRuJywgJzgnLCAnLW1hJywgJzIwMCcsICctbWV0YWxfYmluZGluZycsICctaW1hZScsICc8aW5maWxlLm1hZT4nLCAnLW9tYWUnLCAnPG91dGZpbGUubWFlPic=

> <r_lp_tautomer_probability>
1

> <r_epik_Ionization_Penalty>
0.253261

> <r_epik_Ionization_Penalty_Charging>
0

> <r_epik_Ionization_Penalty_Neutral>
0.253261

> <r_epik_State_Penalty>
0.244619

> <r_epik_Charging_Adjusted_Penalty>
0.244619

> <i_epik_Tot_Q>
1

> <i_epik_Tot_abs_Q>
1

> <r_epik_Metal_State_Penalty>
0.535039

> <b_epik_Metal_Only>
0

> <s_lp_Force_Field>
OPLS_2005

> <r_lp_Energy>
34.4969

> <b_lp_Chiralities_Consistent>
1

> <s_lp_Variant>
AV-unprocessed.smi:1555-1

> <Gold.Version>
5.8.1

> <Gold.Id.Protein>
6NUR|6NUR_protein|mol2

> <Gold.PLP.Fitness>
45.6657

> <Gold.PLP.PLP>
-34.3494

> <Gold.PLP.part.hbond>
-2.8802

> <Gold.PLP.part.metal>
0.0000

> <Gold.PLP.part.buried>
-5.7753

> <Gold.PLP.part.nonpolar>
-26.9990

> <Gold.PLP.part.repulsive>
0.1131

> <Gold.PLP.ligand.clash>
0.0000

> <Gold.PLP.ligand.torsion>
0.3783

> <Gold.PLP.Chemscore.Hbond>
4.0000

> <Gold.PLP.Chemscore.CHOScore>
0.0000

> <Gold.PLP.Chemscore.Metal>
0.0000

> <Gold.Chemscore.Hbonds>
donor molecule, donor type, donor heavy atom, donor atom, acceptor molecule, acceptor atom, score
      L1  H     7    42       P1  8028  1.89
      L1  H    17    37       P1  7957  1.00
      P1  H  7997  8010       L1    11  1.00

> <Gold.PLP.Chemscore.Internal.Correction>
0.0729

> <Gold.Rescore>
     Score         DG    S(hbond)    S(metal)    S(lipo)     H(rot)  DE(clash)    DE(int)     intcor
     17.39     -17.94       2.97        0.00      77.90       2.56       0.13       0.41       ----

> <Gold.Chemscore.Fitness>
17.3913

> <Gold.Chemscore.DG>
-17.9387

> <Gold.Chemscore.ZeroCoef>
-5.4800

> <Gold.Chemscore.Hbond>
2.9657

> <Gold.Chemscore.Metal>
0.0000

> <Gold.Chemscore.Lipo>
77.9016

> <Gold.Chemscore.Internal_Hbond>
0.0000

> <Gold.Chemscore.DEClash>
0.1334

> <Gold.Chemscore.DEInternal>
0.4141

> <Gold.Chemscore.Rot>
2.5630

> <Gold.Chemscore.Internal.Correction>
   9.000000E+99

> <Gold.Chemscore.Hbonds>
donor molecule, donor type, donor heavy atom, donor atom, acceptor molecule, acceptor atom, score
      L1  H     7    42       P1  8028  0.87
      L1  H    17    37       P1  7957  0.99
      P1  H  7997  8010       L1    11  0.98

> <Gold.Chemscore.Hbond.Weighted>
-9.9054

> <Gold.Chemscore.Metal.Weighted>
-0.0000

> <Gold.Chemscore.Lipo.Weighted>
-9.1145

> <Gold.Chemscore.Internal_Hbond.Weighted>
0.0000

> <Gold.Chemscore.DEClash.Weighted>
0.1334

> <Gold.Chemscore.DEInternal.Weighted>
0.4141

> <Gold.Chemscore.Rot.Weighted>
6.5612

> <Gold.Chemscore.Internal.Correction.Weighted>
   9.000000E+99

> <Gold.Protein.RotatedTorsions>
[ 6907 6896 6895 6894 ] final  -65.45 input  -60.11 | X-H torsion
[ 7974 7965 7964 7962 ] final  -25.64 input  175.53 | X-H torsion
[ 8008 7997 7996 7995 ] final   67.00 input   59.86 | X-H torsion
[ 10167 10162 10161 10158 ] final  126.79 input  -65.29 | X-H torsion
[ 10718 10713 10712 10709 ] final  -97.54 input   66.30 | X-H torsion
[ 10763 10752 10751 10750 ] final  167.97 input  -60.55 | X-H torsion
[ 11005 11000 10999 10996 ] final    6.61 input  -57.11 | X-H torsion

> <Gold.Protein.ActiveResidues>
 VAL166  LYS551  ARG553  GLY616  TRP617  ASP618  TYR619  PRO620  LYS621  CYS622 
 ASP623  PHE694  ASN695  SER759  ASP760  ASP761  ALA762  ILE779  LEU786  VAL792 
 PHE793  MET794  SER795  GLU796  ALA797  LYS798  CYS799  TRP800  GLU811  SER814 

> <Gold.Protein.RotatedAtoms>
  150.7523  134.6158  159.6109 H   0  0  0  0  0  0  0  0  0  0  0  0  # atno 6907 bound_to 6896
  152.3479  134.7043  160.0254 H   0  0  0  0  0  0  0  0  0  0  0  0  # atno 6908 bound_to 6896
  151.7473  133.3289  159.3418 H   0  0  0  0  0  0  0  0  0  0  0  0  # atno 6909 bound_to 6896
  146.1478  140.4913  142.8624 H   0  0  0  0  0  0  0  0  0  0  0  0  # atno 7974 bound_to 7965
  155.6862  140.3496  155.4875 H   0  0  0  0  0  0  0  0  0  0  0  0  # atno 8008 bound_to 7997
  155.9564  140.1129  157.0956 H   0  0  0  0  0  0  0  0  0  0  0  0  # atno 8009 bound_to 7997
  154.4133  140.1184  156.5107 H   0  0  0  0  0  0  0  0  0  0  0  0  # atno 8010 bound_to 7997
  139.5612  144.6883  151.4037 H   0  0  0  0  0  0  0  0  0  0  0  0  # atno 10167 bound_to 10162
  156.0086  130.5199  150.6390 H   0  0  0  0  0  0  0  0  0  0  0  0  # atno 10718 bound_to 10713
  154.3617  135.2753  155.2316 H   0  0  0  0  0  0  0  0  0  0  0  0  # atno 10763 bound_to 10752
  154.4501  135.5933  153.6190 H   0  0  0  0  0  0  0  0  0  0  0  0  # atno 10764 bound_to 10752
  152.9843  135.6040  154.3838 H   0  0  0  0  0  0  0  0  0  0  0  0  # atno 10765 bound_to 10752
  140.5576  134.0223  155.7959 H   0  0  0  0  0  0  0  0  0  0  0  0  # atno 11005 bound_to 11000
  144.7867  140.5950  143.6569 LP  0  0  0  0  0  0  0  0  0  0  0  0  # atno 17320 bound_to 7965
  145.4896  139.1489  143.3717 LP  0  0  0  0  0  0  0  0  0  0  0  0  # atno 17321 bound_to 7965
  140.6892  143.7902  150.7230 LP  0  0  0  0  0  0  0  0  0  0  0  0  # atno 17342 bound_to 10162
  140.1379  143.4468  152.2213 LP  0  0  0  0  0  0  0  0  0  0  0  0  # atno 17343 bound_to 10162
  157.4173  131.0832  151.1164 LP  0  0  0  0  0  0  0  0  0  0  0  0  # atno 17370 bound_to 10713
  157.1777  130.6295  149.5661 LP  0  0  0  0  0  0  0  0  0  0  0  0  # atno 17371 bound_to 10713
  141.1134  133.9579  157.2868 LP  0  0  0  0  0  0  0  0  0  0  0  0  # atno 17394 bound_to 11000
  139.9424  135.0189  156.8748 LP  0  0  0  0  0  0  0  0  0  0  0  0  # atno 17395 bound_to 11000

$$$$
