AV-unprocessed.smi:1139|AV-procd|sdf|4869|dock1
  -GOLD-   22720 3443D 1   1.00000     0.00000
 Structure written by MMmdl.
 43 44  0  0  0  0  0  0  0  0  2 V2000
  148.8543  136.7998  158.9447 C   0  0  0  0  0  0  0  0  0  0  0  0
  148.1520  136.3243  160.1842 C   0  0  0  0  0  0  0  0  0  0  0  0
  147.8708  137.1874  161.1459 N   0  0  0  0  0  0  0  0  0  0  0  0
  147.2252  136.4519  162.1445 O   0  0  0  0  0  0  0  0  0  0  0  0
  147.1422  135.1589  161.7397 C   0  0  0  0  0  0  0  0  0  0  0  0
  146.4786  134.2055  162.6751 C   0  0  0  0  0  0  0  0  0  0  0  0
  147.7107  135.0080  160.5045 C   0  0  0  0  0  0  0  0  0  0  0  0
  147.8409  133.7559  159.6770 C   0  0  0  0  0  0  0  0  0  0  0  0
  147.1197  133.9443  158.3421 C   0  0  0  0  0  0  0  0  0  0  0  0
  145.9308  134.2622  158.3243 O   0  0  0  0  0  0  0  0  0  0  0  0
  147.8486  133.7448  157.2327 N   0  0  0  0  0  0  0  0  0  0  0  0
  147.3485  133.8226  155.8623 C   0  0  0  0  0  0  0  0  0  0  0  0
  148.3292  134.5359  154.8954 C   0  0  2  0  0  0  0  0  0  0  0  0
  148.5641  136.0062  155.3103 C   0  0  0  0  0  0  0  0  0  0  0  0
  147.8431  134.4537  153.4855 N   0  3  0  0  0  0  0  0  0  0  0  0
  147.9149  133.1111  152.8681 C   0  0  0  0  0  0  0  0  0  0  0  0
  146.9720  133.1456  151.6637 C   0  0  0  0  0  0  0  0  0  0  0  0
  146.0083  134.3035  151.9322 C   0  0  0  0  0  0  0  0  0  0  0  0
  146.4504  134.9041  153.2690 C   0  0  0  0  0  0  0  0  0  0  0  0
  149.6158  136.0875  158.6274 H   0  0  0  0  0  0  0  0  0  0  0  0
  149.3492  137.7585  159.1046 H   0  0  0  0  0  0  0  0  0  0  0  0
  148.1499  136.9225  158.1221 H   0  0  0  0  0  0  0  0  0  0  0  0
  146.9527  133.2250  162.6310 H   0  0  0  0  0  0  0  0  0  0  0  0
  145.4265  134.0837  162.4182 H   0  0  0  0  0  0  0  0  0  0  0  0
  146.5372  134.5606  163.7042 H   0  0  0  0  0  0  0  0  0  0  0  0
  148.8869  133.5206  159.4770 H   0  0  0  0  0  0  0  0  0  0  0  0
  147.4329  132.8895  160.1996 H   0  0  0  0  0  0  0  0  0  0  0  0
  148.8186  133.4888  157.3490 H   0  0  0  0  0  0  0  0  0  0  0  0
  147.1854  132.7915  155.5504 H   0  0  0  0  0  0  0  0  0  0  0  0
  146.3697  134.3048  155.8309 H   0  0  0  0  0  0  0  0  0  0  0  0
  149.2889  134.0187  154.9459 H   0  0  0  0  0  0  0  0  0  0  0  0
  148.9533  136.0823  156.3250 H   0  0  0  0  0  0  0  0  0  0  0  0
  147.6385  136.5814  155.2670 H   0  0  0  0  0  0  0  0  0  0  0  0
  149.2963  136.5024  154.6743 H   0  0  0  0  0  0  0  0  0  0  0  0
  148.9315  132.8494  152.5730 H   0  0  0  0  0  0  0  0  0  0  0  0
  147.5661  132.3631  153.5821 H   0  0  0  0  0  0  0  0  0  0  0  0
  147.5345  133.3376  150.7491 H   0  0  0  0  0  0  0  0  0  0  0  0
  146.4508  132.1962  151.5351 H   0  0  0  0  0  0  0  0  0  0  0  0
  146.0898  135.0450  151.1362 H   0  0  0  0  0  0  0  0  0  0  0  0
  144.9695  133.9733  151.9678 H   0  0  0  0  0  0  0  0  0  0  0  0
  145.8151  134.5188  154.0683 H   0  0  0  0  0  0  0  0  0  0  0  0
  146.3681  135.9914  153.2659 H   0  0  0  0  0  0  0  0  0  0  0  0
  148.4290  135.0573  152.9260 H   0  0  0  0  0  0  0  0  0  0  0  0
  1  2  1  0  0  0  0
  1 20  1  0  0  0  0
  1 21  1  0  0  0  0
  1 22  1  0  0  0  0
  2  7  1  0  0  0  0
  2  3  2  0  0  0  0
  3  4  1  0  0  0  0
  4  5  1  0  0  0  0
  5  6  1  0  0  0  0
  5  7  2  0  0  0  0
  6 23  1  0  0  0  0
  6 24  1  0  0  0  0
  6 25  1  0  0  0  0
  7  8  1  0  0  0  0
  8  9  1  0  0  0  0
  8 26  1  0  0  0  0
  8 27  1  0  0  0  0
  9 10  2  0  0  0  0
  9 11  1  0  0  0  0
 11 12  1  0  0  0  0
 11 28  1  0  0  0  0
 12 13  1  0  0  0  0
 12 29  1  0  0  0  0
 12 30  1  0  0  0  0
 13 14  1  0  0  0  0
 13 15  1  0  0  0  0
 13 31  1  0  0  0  0
 14 32  1  0  0  0  0
 14 33  1  0  0  0  0
 14 34  1  0  0  0  0
 15 19  1  0  0  0  0
 15 16  1  0  0  0  0
 15 43  1  0  0  0  0
 16 17  1  0  0  0  0
 16 35  1  0  0  0  0
 16 36  1  0  0  0  0
 17 18  1  0  0  0  0
 17 37  1  0  0  0  0
 17 38  1  0  0  0  0
 18 19  1  0  0  0  0
 18 39  1  0  0  0  0
 18 40  1  0  0  0  0
 19 41  1  0  0  0  0
 19 42  1  0  0  0  0
M  CHG  1  15   1
M  END
> <s_m_source_file>
AV-unprocessed.smi

> <i_m_source_file_index>
1139

> <i_lp_mmshare_version>
43012

> <i_f3d_flags>
0

> <s_epik_input>
W0NIM11jMW5vYyhbQ0gzXSljMVtDSDJdQyg9TylbTkhdW0NIMl1bQ0BIXShbQ0gzXSlOMltDSDJdW0NIMl1bQ0gyXVtDSDJdMg==

> <s_epik_cmdline>
J2VwaWtfcHl0aG9uJywgJy1waCcsICc3LjAnLCAnLXRuJywgJzgnLCAnLW1hJywgJzIwMCcsICctbWV0YWxfYmluZGluZycsICctaW1hZScsICc8aW5maWxlLm1hZT4nLCAnLW9tYWUnLCAnPG91dGZpbGUubWFlPic=

> <r_epik_Ionization_Penalty>
0.0050436

> <r_epik_Ionization_Penalty_Charging>
0.0050435

> <r_epik_Ionization_Penalty_Neutral>
9.69799e-08

> <r_epik_State_Penalty>
0.00366867

> <r_epik_Charging_Adjusted_Penalty>
0.00871217

> <i_epik_Tot_Q>
1

> <i_epik_Tot_abs_Q>
1

> <r_epik_Metal_State_Penalty>
-0

> <b_epik_Metal_Only>
0

> <s_lp_Force_Field>
OPLS_2005

> <r_lp_Energy>
25.3713

> <b_lp_Chiralities_Consistent>
1

> <s_lp_Variant>
AV-unprocessed.smi:1139-1

> <Gold.Version>
5.8.1

> <Gold.Id.Protein>
6NUR|6NUR_protein|mol2

> <Gold.PLP.Fitness>
37.4040

> <Gold.PLP.PLP>
-26.5695

> <Gold.PLP.part.hbond>
-3.0000

> <Gold.PLP.part.metal>
0.0000

> <Gold.PLP.part.buried>
-1.9243

> <Gold.PLP.part.nonpolar>
-21.6964

> <Gold.PLP.part.repulsive>
0.0279

> <Gold.PLP.ligand.clash>
0.0000

> <Gold.PLP.ligand.torsion>
0.2957

> <Gold.PLP.Chemscore.Hbond>
3.7760

> <Gold.PLP.Chemscore.CHOScore>
0.0000

> <Gold.PLP.Chemscore.Metal>
0.0000

> <Gold.Chemscore.Hbonds>
donor molecule, donor type, donor heavy atom, donor atom, acceptor molecule, acceptor atom, score
      L1  H    15    43       P1  7948  2.00
      P1  H  6931  6943       L1     3  0.98
      P1  H  6934  6947       L1     3  0.78

> <Gold.PLP.Chemscore.Internal.Correction>
0.0979

> <Gold.Rescore>
     Score         DG    S(hbond)    S(metal)    S(lipo)     H(rot)  DE(clash)    DE(int)     intcor
     15.49     -15.99       2.35        0.00      60.45       1.72       0.15       0.36       ----

> <Gold.Chemscore.Fitness>
15.4882

> <Gold.Chemscore.DG>
-15.9932

> <Gold.Chemscore.ZeroCoef>
-5.4800

> <Gold.Chemscore.Hbond>
2.3480

> <Gold.Chemscore.Metal>
0.0000

> <Gold.Chemscore.Lipo>
60.4511

> <Gold.Chemscore.Internal_Hbond>
0.0000

> <Gold.Chemscore.DEClash>
0.1461

> <Gold.Chemscore.DEInternal>
0.3589

> <Gold.Chemscore.Rot>
1.7195

> <Gold.Chemscore.Internal.Correction>
   9.000000E+99

> <Gold.Chemscore.Hbonds>
donor molecule, donor type, donor heavy atom, donor atom, acceptor molecule, acceptor atom, score
      L1  H    15    43       P1  7948  0.74
      P1  H  6931  6943       L1     3  0.65
      P1  H  6934  6947       L1     3  0.67

> <Gold.Chemscore.Hbond.Weighted>
-7.8422

> <Gold.Chemscore.Metal.Weighted>
-0.0000

> <Gold.Chemscore.Lipo.Weighted>
-7.0728

> <Gold.Chemscore.Internal_Hbond.Weighted>
0.0000

> <Gold.Chemscore.DEClash.Weighted>
0.1461

> <Gold.Chemscore.DEInternal.Weighted>
0.3589

> <Gold.Chemscore.Rot.Weighted>
4.4018

> <Gold.Chemscore.Internal.Correction.Weighted>
   9.000000E+99

> <Gold.Protein.RotatedTorsions>
[ 6907 6896 6895 6894 ] final -138.54 input  -60.11 | X-H torsion
[ 7974 7965 7964 7962 ] final  -78.39 input  175.53 | X-H torsion
[ 8008 7997 7996 7995 ] final  -72.01 input   59.86 | X-H torsion
[ 10167 10162 10161 10158 ] final   47.54 input  -65.29 | X-H torsion
[ 10718 10713 10712 10709 ] final   49.75 input   66.30 | X-H torsion
[ 10763 10752 10751 10750 ] final    6.00 input  -60.55 | X-H torsion
[ 11005 11000 10999 10996 ] final -113.64 input  -57.11 | X-H torsion

> <Gold.Protein.ActiveResidues>
 VAL166  LYS551  ARG553  GLY616  TRP617  ASP618  TYR619  PRO620  LYS621  CYS622 
 ASP623  PHE694  ASN695  SER759  ASP760  ASP761  ALA762  ILE779  LEU786  VAL792 
 PHE793  MET794  SER795  GLU796  ALA797  LYS798  CYS799  TRP800  GLU811  SER814 

> <Gold.Protein.RotatedAtoms>
  151.0364  133.5745  159.2655 H   0  0  0  0  0  0  0  0  0  0  0  0  # atno 6907 bound_to 6896
  151.2808  135.0712  159.9178 H   0  0  0  0  0  0  0  0  0  0  0  0  # atno 6908 bound_to 6896
  152.5355  134.0078  159.7978 H   0  0  0  0  0  0  0  0  0  0  0  0  # atno 6909 bound_to 6896
  145.5871  140.9437  143.1312 H   0  0  0  0  0  0  0  0  0  0  0  0  # atno 7974 bound_to 7965
  154.5132  140.0805  156.8031 H   0  0  0  0  0  0  0  0  0  0  0  0  # atno 8008 bound_to 7997
  155.3738  140.3424  155.4226 H   0  0  0  0  0  0  0  0  0  0  0  0  # atno 8009 bound_to 7997
  156.1597  140.1584  156.8619 H   0  0  0  0  0  0  0  0  0  0  0  0  # atno 8010 bound_to 7997
  140.3025  144.2917  150.6216 H   0  0  0  0  0  0  0  0  0  0  0  0  # atno 10167 bound_to 10162
  157.4817  130.8319  149.8100 H   0  0  0  0  0  0  0  0  0  0  0  0  # atno 10718 bound_to 10713
  153.2528  135.6915  153.7661 H   0  0  0  0  0  0  0  0  0  0  0  0  # atno 10763 bound_to 10752
  153.6749  135.3338  155.3164 H   0  0  0  0  0  0  0  0  0  0  0  0  # atno 10764 bound_to 10752
  154.8401  135.4508  154.1491 H   0  0  0  0  0  0  0  0  0  0  0  0  # atno 10765 bound_to 10752
  141.0601  133.9549  157.2682 H   0  0  0  0  0  0  0  0  0  0  0  0  # atno 11005 bound_to 11000
  144.7368  139.7563  143.7326 LP  0  0  0  0  0  0  0  0  0  0  0  0  # atno 17320 bound_to 7965
  146.1674  139.4811  142.9949 LP  0  0  0  0  0  0  0  0  0  0  0  0  # atno 17321 bound_to 7965
  140.5638  143.2188  151.7718 LP  0  0  0  0  0  0  0  0  0  0  0  0  # atno 17342 bound_to 10162
  139.4912  144.4311  151.9871 LP  0  0  0  0  0  0  0  0  0  0  0  0  # atno 17343 bound_to 10162
  156.0125  130.3827  150.2218 LP  0  0  0  0  0  0  0  0  0  0  0  0  # atno 17370 bound_to 10713
  157.0404  131.0033  151.3285 LP  0  0  0  0  0  0  0  0  0  0  0  0  # atno 17371 bound_to 10713
  139.9425  135.0189  156.8752 LP  0  0  0  0  0  0  0  0  0  0  0  0  # atno 17394 bound_to 11000
  140.5885  134.0284  155.7490 LP  0  0  0  0  0  0  0  0  0  0  0  0  # atno 17395 bound_to 11000

$$$$
