AV-unprocessed.smi:2782|AV-procd|sdf|10721|dock10
  -GOLD-   2272015163D 1   1.00000     0.00000
 Structure written by MMmdl.
 38 39  0  0  0  0  0  0  0  0  1 V2000
  151.2133  145.2739  159.2205 C   0  0  0  0  0  0  0  0  0  0  0  0
  151.5285  143.7970  159.1002 C   0  0  0  0  0  0  0  0  0  0  0  0
  152.3094  143.1535  160.0803 C   0  0  0  0  0  0  0  0  0  0  0  0
  152.5954  141.7817  159.9599 C   0  0  0  0  0  0  0  0  0  0  0  0
  152.1029  141.0489  158.8625 C   0  0  0  0  0  0  0  0  0  0  0  0
  152.4676  139.3648  158.7401 Cl  0  0  0  0  0  0  0  0  0  0  0  0
  151.3194  141.6797  157.8707 C   0  0  0  0  0  0  0  0  0  0  0  0
  150.8716  140.8983  156.8263 O   0  0  0  0  0  0  0  0  0  0  0  0
  150.2613  141.5358  155.7108 C   0  0  0  0  0  0  0  0  0  0  0  0
  149.7285  140.4765  154.7310 C   0  0  2  0  0  0  0  0  0  0  0  0
  149.3757  141.1337  153.5301 O   0  0  0  0  0  0  0  0  0  0  0  0
  148.5216  139.6898  155.2873 C   0  0  0  0  0  0  0  0  0  0  0  0
  147.4559  140.5783  155.7652 N   0  0  0  0  0  0  0  0  0  0  0  0
  146.8535  141.3231  154.7655 N   0  0  0  0  0  0  0  0  0  0  0  0
  145.8969  142.1500  155.0346 C   0  0  0  0  0  0  0  0  0  0  0  0
  145.2995  142.9171  153.8922 C   0  0  0  0  0  0  0  0  0  0  0  0
  145.4482  142.3011  156.4057 C   0  0  0  0  0  0  0  0  0  0  0  0
  146.0356  141.5711  157.3781 C   0  0  0  0  0  0  0  0  0  0  0  0
  147.1150  140.6301  157.0865 C   0  0  0  0  0  0  0  0  0  0  0  0
  147.6635  139.9436  157.9483 O   0  0  0  0  0  0  0  0  0  0  0  0
  151.0382  143.0637  158.0003 C   0  0  0  0  0  0  0  0  0  0  0  0
  151.5792  145.6844  160.1621 H   0  0  0  0  0  0  0  0  0  0  0  0
  150.1359  145.4362  159.1754 H   0  0  0  0  0  0  0  0  0  0  0  0
  151.6787  145.8260  158.4038 H   0  0  0  0  0  0  0  0  0  0  0  0
  152.6912  143.7070  160.9258 H   0  0  0  0  0  0  0  0  0  0  0  0
  153.1940  141.2903  160.7127 H   0  0  0  0  0  0  0  0  0  0  0  0
  149.4563  142.2015  156.0269 H   0  0  0  0  0  0  0  0  0  0  0  0
  151.0098  142.1414  155.1971 H   0  0  0  0  0  0  0  0  0  0  0  0
  150.5488  139.7965  154.4986 H   0  0  0  0  0  0  0  0  0  0  0  0
  149.3586  140.4946  152.8343 H   0  0  0  0  0  0  0  0  0  0  0  0
  148.1153  139.0429  154.5074 H   0  0  0  0  0  0  0  0  0  0  0  0
  148.8422  139.0080  156.0777 H   0  0  0  0  0  0  0  0  0  0  0  0
  144.4404  143.5041  154.2178 H   0  0  0  0  0  0  0  0  0  0  0  0
  144.9628  142.2432  153.1037 H   0  0  0  0  0  0  0  0  0  0  0  0
  146.0301  143.6030  153.4627 H   0  0  0  0  0  0  0  0  0  0  0  0
  144.6517  142.9925  156.6379 H   0  0  0  0  0  0  0  0  0  0  0  0
  145.7006  141.6839  158.3987 H   0  0  0  0  0  0  0  0  0  0  0  0
  150.4450  143.5868  157.2658 H   0  0  0  0  0  0  0  0  0  0  0  0
  1  2  1  0  0  0  0
  1 22  1  0  0  0  0
  1 23  1  0  0  0  0
  1 24  1  0  0  0  0
  2 21  1  0  0  0  0
  2  3  2  0  0  0  0
  3  4  1  0  0  0  0
  3 25  1  0  0  0  0
  4  5  2  0  0  0  0
  4 26  1  0  0  0  0
  5  6  1  0  0  0  0
  5  7  1  0  0  0  0
  7  8  1  0  0  0  0
  7 21  2  0  0  0  0
  8  9  1  0  0  0  0
  9 10  1  0  0  0  0
  9 27  1  0  0  0  0
  9 28  1  0  0  0  0
 10 11  1  0  0  0  0
 10 12  1  0  0  0  0
 10 29  1  0  0  0  0
 11 30  1  0  0  0  0
 12 13  1  0  0  0  0
 12 31  1  0  0  0  0
 12 32  1  0  0  0  0
 13 19  1  0  0  0  0
 13 14  1  0  0  0  0
 14 15  2  0  0  0  0
 15 16  1  0  0  0  0
 15 17  1  0  0  0  0
 16 33  1  0  0  0  0
 16 34  1  0  0  0  0
 16 35  1  0  0  0  0
 17 18  2  0  0  0  0
 17 36  1  0  0  0  0
 18 19  1  0  0  0  0
 18 37  1  0  0  0  0
 19 20  2  0  0  0  0
 21 38  1  0  0  0  0
M  END
> <s_m_source_file>
AV-unprocessed.smi

> <i_m_source_file_index>
2782

> <i_lp_mmshare_version>
43012

> <i_f3d_flags>
0

> <s_epik_input>
W0NIM11jMVtjSF1bY0hdYyhDbCljKFtjSF0xKU9bQ0gyXVtDQEhdKFtPSF0pW0NIMl1uMm5jKFtDSDNdKVtjSF1bY0hdYzI9Tw==

> <s_epik_cmdline>
J2VwaWtfcHl0aG9uJywgJy1waCcsICc3LjAnLCAnLXRuJywgJzgnLCAnLW1hJywgJzIwMCcsICctbWV0YWxfYmluZGluZycsICctaW1hZScsICc8aW5maWxlLm1hZT4nLCAnLW9tYWUnLCAnPG91dGZpbGUubWFlPic=

> <r_lp_tautomer_probability>
1

> <r_epik_Ionization_Penalty>
2.96353e-07

> <r_epik_Ionization_Penalty_Charging>
1.79179e-07

> <r_epik_Ionization_Penalty_Neutral>
1.17174e-07

> <r_epik_State_Penalty>
-0

> <r_epik_Charging_Adjusted_Penalty>
1.79179e-07

> <i_epik_Tot_Q>
0

> <i_epik_Tot_abs_Q>
0

> <r_epik_Metal_State_Penalty>
-0

> <b_epik_Metal_Only>
0

> <s_lp_Force_Field>
OPLS_2005

> <r_lp_Energy>
32.0669

> <b_lp_Chiralities_Consistent>
1

> <s_lp_Variant>
AV-unprocessed.smi:2782-1

> <Gold.Version>
5.8.1

> <Gold.Id.Protein>
6NUR|6NUR_protein|mol2

> <Gold.PLP.Fitness>
50.2070

> <Gold.PLP.PLP>
-45.6438

> <Gold.PLP.part.hbond>
-4.0000

> <Gold.PLP.part.metal>
0.0000

> <Gold.PLP.part.buried>
-5.8807

> <Gold.PLP.part.nonpolar>
-34.8682

> <Gold.PLP.part.repulsive>
0.1483

> <Gold.PLP.ligand.clash>
0.0000

> <Gold.PLP.ligand.torsion>
0.2138

> <Gold.PLP.Chemscore.Hbond>
1.6480

> <Gold.PLP.Chemscore.CHOScore>
0.0000

> <Gold.PLP.Chemscore.Metal>
0.0000

> <Gold.Chemscore.Hbonds>
donor molecule, donor type, donor heavy atom, donor atom, acceptor molecule, acceptor atom, score
      L1  H    11    30       P1  7957  1.00
      P1  H  8011  8017       L1    11  0.50

> <Gold.PLP.Chemscore.Internal.Correction>
0.0468

> <Gold.Rescore>
     Score         DG    S(hbond)    S(metal)    S(lipo)     H(rot)  DE(clash)    DE(int)     intcor
     14.67     -16.44       0.98        0.00     114.33       2.22       0.07       1.71       ----

> <Gold.Chemscore.Fitness>
14.6663

> <Gold.Chemscore.DG>
-16.4447

> <Gold.Chemscore.ZeroCoef>
-5.4800

> <Gold.Chemscore.Hbond>
0.9793

> <Gold.Chemscore.Metal>
0.0000

> <Gold.Chemscore.Lipo>
114.3319

> <Gold.Chemscore.Internal_Hbond>
0.0000

> <Gold.Chemscore.DEClash>
0.0724

> <Gold.Chemscore.DEInternal>
1.7060

> <Gold.Chemscore.Rot>
2.2199

> <Gold.Chemscore.Internal.Correction>
   9.000000E+99

> <Gold.Chemscore.Hbonds>
donor molecule, donor type, donor heavy atom, donor atom, acceptor molecule, acceptor atom, score
      L1  H    11    30       P1  7957  0.95
      P1  H  8011  8017       L1    11  0.02

> <Gold.Chemscore.Hbond.Weighted>
-3.2708

> <Gold.Chemscore.Metal.Weighted>
-0.0000

> <Gold.Chemscore.Lipo.Weighted>
-13.3768

> <Gold.Chemscore.Internal_Hbond.Weighted>
0.0000

> <Gold.Chemscore.DEClash.Weighted>
0.0724

> <Gold.Chemscore.DEInternal.Weighted>
1.7060

> <Gold.Chemscore.Rot.Weighted>
5.6829

> <Gold.Chemscore.Internal.Correction.Weighted>
   9.000000E+99

> <Gold.Protein.RotatedTorsions>
[ 6907 6896 6895 6894 ] final    1.13 input  -60.11 | X-H torsion
[ 7974 7965 7964 7962 ] final  -34.72 input  175.53 | X-H torsion
[ 8008 7997 7996 7995 ] final  -12.77 input   59.86 | X-H torsion
[ 10167 10162 10161 10158 ] final  -29.10 input  -65.29 | X-H torsion
[ 10718 10713 10712 10709 ] final  139.85 input   66.30 | X-H torsion
[ 10763 10752 10751 10750 ] final  156.39 input  -60.55 | X-H torsion
[ 11005 11000 10999 10996 ] final   78.36 input  -57.11 | X-H torsion

> <Gold.Protein.ActiveResidues>
 VAL166  LYS551  ARG553  GLY616  TRP617  ASP618  TYR619  PRO620  LYS621  CYS622 
 ASP623  PHE694  ASN695  SER759  ASP760  ASP761  ALA762  ILE779  LEU786  VAL792 
 PHE793  MET794  SER795  GLU796  ALA797  LYS798  CYS799  TRP800  GLU811  SER814 

> <Gold.Protein.RotatedAtoms>
  151.5876  135.1055  160.0031 H   0  0  0  0  0  0  0  0  0  0  0  0  # atno 6907 bound_to 6896
  152.4323  133.7294  159.6589 H   0  0  0  0  0  0  0  0  0  0  0  0  # atno 6908 bound_to 6896
  150.8216  133.8172  159.3159 H   0  0  0  0  0  0  0  0  0  0  0  0  # atno 6909 bound_to 6896
  146.0806  140.6073  142.8910 H   0  0  0  0  0  0  0  0  0  0  0  0  # atno 7974 bound_to 7965
  154.5349  140.2267  155.8740 H   0  0  0  0  0  0  0  0  0  0  0  0  # atno 8008 bound_to 7997
  156.1801  140.3102  155.9096 H   0  0  0  0  0  0  0  0  0  0  0  0  # atno 8009 bound_to 7997
  155.3375  140.0448  157.3035 H   0  0  0  0  0  0  0  0  0  0  0  0  # atno 8010 bound_to 7997
  140.7264  143.3956  151.1354 H   0  0  0  0  0  0  0  0  0  0  0  0  # atno 10167 bound_to 10162
  157.4098  131.1026  151.0466 H   0  0  0  0  0  0  0  0  0  0  0  0  # atno 10718 bound_to 10713
  154.1836  135.2798  155.3044 H   0  0  0  0  0  0  0  0  0  0  0  0  # atno 10763 bound_to 10752
  154.5983  135.5538  153.7351 H   0  0  0  0  0  0  0  0  0  0  0  0  # atno 10764 bound_to 10752
  153.0131  135.6385  154.1975 H   0  0  0  0  0  0  0  0  0  0  0  0  # atno 10765 bound_to 10752
  139.9216  134.7757  156.1640 H   0  0  0  0  0  0  0  0  0  0  0  0  # atno 11005 bound_to 11000
  144.7291  140.4616  143.6951 LP  0  0  0  0  0  0  0  0  0  0  0  0  # atno 17320 bound_to 7965
  145.6225  139.1526  143.3015 LP  0  0  0  0  0  0  0  0  0  0  0  0  # atno 17321 bound_to 7965
  139.7568  143.8696  152.3090 LP  0  0  0  0  0  0  0  0  0  0  0  0  # atno 17342 bound_to 10162
  139.8568  144.7137  150.9147 LP  0  0  0  0  0  0  0  0  0  0  0  0  # atno 17343 bound_to 10162
  157.1435  130.6153  149.5562 LP  0  0  0  0  0  0  0  0  0  0  0  0  # atno 17370 bound_to 10713
  155.9847  130.4873  150.6996 LP  0  0  0  0  0  0  0  0  0  0  0  0  # atno 17371 bound_to 10713
  141.0740  133.6783  156.2199 LP  0  0  0  0  0  0  0  0  0  0  0  0  # atno 17394 bound_to 11000
  140.6459  134.5118  157.5573 LP  0  0  0  0  0  0  0  0  0  0  0  0  # atno 17395 bound_to 11000

$$$$
