AV-unprocessed.smi:527|AV-procd|sdf|2825|dock9
  -GOLD-   2262023313D 1   1.00000     0.00000
 Structure written by MMmdl.
 43 44  0  0  0  0  0  0  0  0  2 V2000
  153.3036  141.6867  161.1135 C   0  0  0  0  0  0  0  0  0  0  0  0
  152.7953  142.9040  160.3188 C   0  0  2  0  0  0  0  0  0  0  0  0
  152.4016  144.0286  161.2973 C   0  0  0  0  0  0  0  0  0  0  0  0
  151.9203  145.2830  160.5606 C   0  0  0  0  0  0  0  0  0  0  0  0
  150.7367  144.9507  159.6478 C   0  0  0  0  0  0  0  0  0  0  0  0
  151.0950  143.8371  158.6448 C   0  0  2  0  0  0  0  0  0  0  0  0
  149.9182  143.5241  157.8352 N   0  0  0  0  0  0  0  0  0  0  0  0
  148.7908  142.9536  158.2855 C   0  0  0  0  0  0  0  0  0  0  0  0
  148.6195  142.6230  159.4608 O   0  0  0  0  0  0  0  0  0  0  0  0
  147.8982  142.8007  157.2884 N   0  0  0  0  0  0  0  0  0  0  0  0
  146.7445  142.1032  157.3160 C   0  0  0  0  0  0  0  0  0  0  0  0
  146.3199  141.4772  158.2907 O   0  0  0  0  0  0  0  0  0  0  0  0
  145.9474  142.1303  156.0054 C   0  0  0  0  0  0  0  0  0  0  0  0
  146.6051  141.3999  154.9142 N   0  0  0  0  0  0  0  0  0  0  0  0
  146.1158  140.3210  154.2224 C   0  0  0  0  0  0  0  0  0  0  0  0
  147.0756  139.9762  153.3060 C   0  0  0  0  0  0  0  0  0  0  0  0
  148.1098  140.8569  153.4775 N   0  3  0  0  0  0  0  0  0  0  0  0
  147.8225  141.7215  154.4562 C   0  0  0  0  0  0  0  0  0  0  0  0
  151.6209  142.5613  159.3579 C   0  0  1  0  0  0  0  0  0  0  0  0
  152.0120  141.4753  158.3314 C   0  0  0  0  0  0  0  0  0  0  0  0
  152.4968  141.2130  161.6733 H   0  0  0  0  0  0  0  0  0  0  0  0
  154.0728  141.9808  161.8284 H   0  0  0  0  0  0  0  0  0  0  0  0
  153.7522  140.9347  160.4653 H   0  0  0  0  0  0  0  0  0  0  0  0
  153.6279  143.2703  159.7164 H   0  0  0  0  0  0  0  0  0  0  0  0
  151.6159  143.6775  161.9680 H   0  0  0  0  0  0  0  0  0  0  0  0
  153.2513  144.2884  161.9297 H   0  0  0  0  0  0  0  0  0  0  0  0
  151.6307  146.0493  161.2803 H   0  0  0  0  0  0  0  0  0  0  0  0
  152.7364  145.7022  159.9707 H   0  0  0  0  0  0  0  0  0  0  0  0
  149.8862  144.6420  160.2573 H   0  0  0  0  0  0  0  0  0  0  0  0
  150.4253  145.8510  159.1164 H   0  0  0  0  0  0  0  0  0  0  0  0
  151.8896  144.2042  157.9919 H   0  0  0  0  0  0  0  0  0  0  0  0
  149.9684  143.7702  156.8577 H   0  0  0  0  0  0  0  0  0  0  0  0
  148.1190  143.2640  156.4193 H   0  0  0  0  0  0  0  0  0  0  0  0
  144.9648  141.6843  156.1646 H   0  0  0  0  0  0  0  0  0  0  0  0
  145.7917  143.1617  155.6851 H   0  0  0  0  0  0  0  0  0  0  0  0
  145.1478  139.8884  154.4299 H   0  0  0  0  0  0  0  0  0  0  0  0
  147.1001  139.1899  152.5658 H   0  0  0  0  0  0  0  0  0  0  0  0
  148.4516  142.5198  154.8082 H   0  0  0  0  0  0  0  0  0  0  0  0
  150.8063  142.1599  159.9632 H   0  0  0  0  0  0  0  0  0  0  0  0
  152.8608  141.7931  157.7254 H   0  0  0  0  0  0  0  0  0  0  0  0
  151.1923  141.2419  157.6521 H   0  0  0  0  0  0  0  0  0  0  0  0
  152.2790  140.5368  158.8153 H   0  0  0  0  0  0  0  0  0  0  0  0
  148.9698  140.8552  152.9431 H   0  0  0  0  0  0  0  0  0  0  0  0
  1  2  1  0  0  0  0
  1 21  1  0  0  0  0
  1 22  1  0  0  0  0
  1 23  1  0  0  0  0
  2 19  1  0  0  0  0
  2  3  1  0  0  0  0
  2 24  1  0  0  0  0
  3  4  1  0  0  0  0
  3 25  1  0  0  0  0
  3 26  1  0  0  0  0
  4  5  1  0  0  0  0
  4 27  1  0  0  0  0
  4 28  1  0  0  0  0
  5  6  1  0  0  0  0
  5 29  1  0  0  0  0
  5 30  1  0  0  0  0
  6  7  1  0  0  0  0
  6 19  1  0  0  0  0
  6 31  1  0  0  0  0
  7  8  1  0  0  0  0
  7 32  1  0  0  0  0
  8  9  2  0  0  0  0
  8 10  1  0  0  0  0
 10 11  1  0  0  0  0
 10 33  1  0  0  0  0
 11 12  2  0  0  0  0
 11 13  1  0  0  0  0
 13 14  1  0  0  0  0
 13 34  1  0  0  0  0
 13 35  1  0  0  0  0
 14 18  1  0  0  0  0
 14 15  1  0  0  0  0
 15 16  2  0  0  0  0
 15 36  1  0  0  0  0
 16 17  1  0  0  0  0
 16 37  1  0  0  0  0
 17 18  2  0  0  0  0
 17 43  1  0  0  0  0
 18 38  1  0  0  0  0
 19 20  1  0  0  0  0
 19 39  1  0  0  0  0
 20 40  1  0  0  0  0
 20 41  1  0  0  0  0
 20 42  1  0  0  0  0
M  CHG  1  17   1
M  END
> <s_m_source_file>
AV-unprocessed.smi

> <i_m_source_file_index>
527

> <i_lp_mmshare_version>
43012

> <i_f3d_flags>
0

> <s_epik_input>
W0NIM11bQ0BASF0xW0NIMl1bQ0gyXVtDSDJdW0NASF0oW0NASF0xW0NIM10pW05IXUMoPU8pW05IXUMoPU8pW0NIMl1uMltjSF1bY0hdbltjSF0y

> <s_epik_cmdline>
J2VwaWtfcHl0aG9uJywgJy1waCcsICc3LjAnLCAnLXRuJywgJzgnLCAnLW1hJywgJzIwMCcsICctbWV0YWxfYmluZGluZycsICctaW1hZScsICc8aW5maWxlLm1hZT4nLCAnLW9tYWUnLCAnPG91dGZpbGUubWFlPic=

> <r_lp_tautomer_probability>
1

> <r_epik_Ionization_Penalty>
0.816441

> <r_epik_Ionization_Penalty_Charging>
0

> <r_epik_Ionization_Penalty_Neutral>
0.816441

> <r_epik_State_Penalty>
0.849034

> <r_epik_Charging_Adjusted_Penalty>
0.849034

> <i_epik_Tot_Q>
1

> <i_epik_Tot_abs_Q>
1

> <r_epik_Metal_State_Penalty>
0.984327

> <b_epik_Metal_Only>
0

> <s_lp_Force_Field>
OPLS_2005

> <r_lp_Energy>
16.8338

> <b_lp_Chiralities_Consistent>
1

> <s_lp_Variant>
AV-unprocessed.smi:527-11

> <Gold.Version>
5.8.1

> <Gold.Id.Protein>
6NUR|6NUR_protein|mol2

> <Gold.PLP.Fitness>
49.8502

> <Gold.PLP.PLP>
-37.7714

> <Gold.PLP.part.hbond>
-5.8405

> <Gold.PLP.part.metal>
0.0000

> <Gold.PLP.part.buried>
-0.8379

> <Gold.PLP.part.nonpolar>
-31.7487

> <Gold.PLP.part.repulsive>
0.2906

> <Gold.PLP.ligand.clash>
0.0000

> <Gold.PLP.ligand.torsion>
0.1261

> <Gold.PLP.Chemscore.Hbond>
2.5600

> <Gold.PLP.Chemscore.CHOScore>
1.5446

> <Gold.PLP.Chemscore.Metal>
0.0000

> <Gold.Chemscore.Hbonds>
donor molecule, donor type, donor heavy atom, donor atom, acceptor molecule, acceptor atom, score
      L1  H     7    32       P1  8028  0.70
      L1  H    10    33       P1  8028  0.91
      L1  H    17    43       P1  7957  0.68
      P1  H  6933  6944       L1     9  0.27
      L1  C    15    36       P1 10175  0.53
      L1  C    18    38       P1  8028  1.00

> <Gold.PLP.Chemscore.Internal.Correction>
0.0171

> <Gold.Rescore>
     Score         DG    S(hbond)    S(metal)    S(lipo)     H(rot)  DE(clash)    DE(int)     intcor
     17.33     -19.88       2.29        0.00      95.03       1.71       0.10       2.45       ----

> <Gold.Chemscore.Fitness>
17.3271

> <Gold.Chemscore.DG>
-19.8813

> <Gold.Chemscore.ZeroCoef>
-5.4800

> <Gold.Chemscore.Hbond>
2.2899

> <Gold.Chemscore.Metal>
0.0000

> <Gold.Chemscore.Lipo>
95.0295

> <Gold.Chemscore.Internal_Hbond>
0.0000

> <Gold.Chemscore.DEClash>
0.1046

> <Gold.Chemscore.DEInternal>
2.4497

> <Gold.Chemscore.Rot>
1.7052

> <Gold.Chemscore.Internal.Correction>
   9.000000E+99

> <Gold.Chemscore.Hbonds>
donor molecule, donor type, donor heavy atom, donor atom, acceptor molecule, acceptor atom, score
      L1  H     7    32       P1  8028  0.69
      L1  H    10    33       P1  8028  0.26
      L1  H    17    43       P1  7957  0.65
      P1  H  6933  6944       L1     9  0.28

> <Gold.Chemscore.Hbond.Weighted>
-7.6482

> <Gold.Chemscore.Metal.Weighted>
-0.0000

> <Gold.Chemscore.Lipo.Weighted>
-11.1185

> <Gold.Chemscore.Internal_Hbond.Weighted>
0.0000

> <Gold.Chemscore.DEClash.Weighted>
0.1046

> <Gold.Chemscore.DEInternal.Weighted>
2.4497

> <Gold.Chemscore.Rot.Weighted>
4.3653

> <Gold.Chemscore.Internal.Correction.Weighted>
   9.000000E+99

> <Gold.Protein.RotatedTorsions>
[ 6907 6896 6895 6894 ] final  -43.01 input  -60.11 | X-H torsion
[ 7974 7965 7964 7962 ] final  143.94 input  175.53 | X-H torsion
[ 8008 7997 7996 7995 ] final  124.37 input   59.86 | X-H torsion
[ 10167 10162 10161 10158 ] final   -9.70 input  -65.29 | X-H torsion
[ 10718 10713 10712 10709 ] final  -59.77 input   66.30 | X-H torsion
[ 10763 10752 10751 10750 ] final  111.80 input  -60.55 | X-H torsion
[ 11005 11000 10999 10996 ] final   75.64 input  -57.11 | X-H torsion

> <Gold.Protein.ActiveResidues>
 VAL166  LYS551  ARG553  GLY616  TRP617  ASP618  TYR619  PRO620  LYS621  CYS622 
 ASP623  PHE694  ASN695  SER759  ASP760  ASP761  ALA762  ILE779  LEU786  VAL792 
 PHE793  MET794  SER795  GLU796  ALA797  LYS798  CYS799  TRP800  GLU811  SER814 

> <Gold.Protein.RotatedAtoms>
  150.9488  134.8890  159.7658 H   0  0  0  0  0  0  0  0  0  0  0  0  # atno 6907 bound_to 6896
  152.5111  134.3836  159.9370 H   0  0  0  0  0  0  0  0  0  0  0  0  # atno 6908 bound_to 6896
  151.3853  133.3767  159.2749 H   0  0  0  0  0  0  0  0  0  0  0  0  # atno 6909 bound_to 6896
  144.8878  139.5603  143.5813 H   0  0  0  0  0  0  0  0  0  0  0  0  # atno 7974 bound_to 7965
  156.2799  140.2741  156.1777 H   0  0  0  0  0  0  0  0  0  0  0  0  # atno 8008 bound_to 7997
  155.0588  140.0386  157.2587 H   0  0  0  0  0  0  0  0  0  0  0  0  # atno 8009 bound_to 7997
  154.7134  140.2673  155.6613 H   0  0  0  0  0  0  0  0  0  0  0  0  # atno 8010 bound_to 7997
  140.7094  143.5829  150.8973 H   0  0  0  0  0  0  0  0  0  0  0  0  # atno 10167 bound_to 10162
  156.1038  130.4183  150.0761 H   0  0  0  0  0  0  0  0  0  0  0  0  # atno 10718 bound_to 10713
  153.4685  135.3706  155.2378 H   0  0  0  0  0  0  0  0  0  0  0  0  # atno 10763 bound_to 10752
  154.8757  135.3926  154.3840 H   0  0  0  0  0  0  0  0  0  0  0  0  # atno 10764 bound_to 10752
  153.4424  135.7084  153.6225 H   0  0  0  0  0  0  0  0  0  0  0  0  # atno 10765 bound_to 10752
  139.9334  134.7534  156.1296 H   0  0  0  0  0  0  0  0  0  0  0  0  # atno 11005 bound_to 11000
  146.3035  139.7503  142.9073 LP  0  0  0  0  0  0  0  0  0  0  0  0  # atno 17320 bound_to 7965
  145.3838  141.0362  143.3163 LP  0  0  0  0  0  0  0  0  0  0  0  0  # atno 17321 bound_to 7965
  139.9555  143.6223  152.3017 LP  0  0  0  0  0  0  0  0  0  0  0  0  # atno 17342 bound_to 10162
  139.6757  144.7658  151.1701 LP  0  0  0  0  0  0  0  0  0  0  0  0  # atno 17343 bound_to 10162
  156.8742  130.9534  151.3606 LP  0  0  0  0  0  0  0  0  0  0  0  0  # atno 17370 bound_to 10713
  157.6212  130.8656  149.9111 LP  0  0  0  0  0  0  0  0  0  0  0  0  # atno 17371 bound_to 10713
  141.0936  133.6704  156.2595 LP  0  0  0  0  0  0  0  0  0  0  0  0  # atno 17394 bound_to 11000
  140.6139  134.5430  157.5538 LP  0  0  0  0  0  0  0  0  0  0  0  0  # atno 17395 bound_to 11000

$$$$
