AV-unprocessed.smi:1784|AV-procd|sdf|7196|dock1
  -GOLD-   22720 8433D 1   1.00000     0.00000
 Structure written by MMmdl.
 43 45  0  0  0  0  0  0  0  0  1 V2000
  151.4174  135.9679  155.6666 O   0  0  0  0  0  0  0  0  0  0  0  0
  150.6482  136.0712  154.7110 C   0  0  0  0  0  0  0  0  0  0  0  0
  150.4598  137.2116  154.0359 N   0  0  0  0  0  0  0  0  0  0  0  0
  151.1152  138.4728  154.3511 C   0  0  0  0  0  0  0  0  0  0  0  0
  150.1435  139.4202  155.0674 C   0  0  2  0  0  0  0  0  0  0  0  0
  148.8008  139.5767  154.3574 C   0  0  0  0  0  0  0  0  0  0  0  0
  148.3352  140.9144  154.8847 C   0  0  0  0  0  0  0  0  0  0  0  0
  149.6410  141.7029  154.9372 C   0  0  0  0  0  0  0  0  0  0  0  0
  150.6765  140.7413  155.1281 O   0  0  0  0  0  0  0  0  0  0  0  0
  149.9081  135.0759  154.1948 N   0  0  0  0  0  0  0  0  0  0  0  0
  149.8201  133.7198  154.6212 C   0  0  0  0  0  0  0  0  0  0  0  0
  150.7343  133.1388  155.5338 C   0  0  0  0  0  0  0  0  0  0  0  0
  150.5603  131.7968  155.9183 C   0  0  0  0  0  0  0  0  0  0  0  0
  149.4727  131.0837  155.3835 C   0  0  0  0  0  0  0  0  0  0  0  0
  148.5842  131.6262  154.5264 N   0  0  0  0  0  0  0  0  0  0  0  0
  148.7469  132.9189  154.1525 C   0  0  0  0  0  0  0  0  0  0  0  0
  147.8018  133.4649  153.2653 N   0  0  0  0  0  0  0  0  0  0  0  0
  147.7525  132.8622  151.9436 C   0  0  0  0  0  0  0  0  0  0  0  0
  146.4412  133.3518  151.3249 C   0  0  0  0  0  0  0  0  0  0  0  0
  145.5598  133.7324  152.5209 C   0  0  0  0  0  0  0  0  0  0  0  0
  146.4330  133.4790  153.7533 C   0  0  0  0  0  0  0  0  0  0  0  0
  149.8122  137.2124  153.2613 H   0  0  0  0  0  0  0  0  0  0  0  0
  151.9924  138.2877  154.9734 H   0  0  0  0  0  0  0  0  0  0  0  0
  151.4661  138.9327  153.4260 H   0  0  0  0  0  0  0  0  0  0  0  0
  149.9669  139.0800  156.0892 H   0  0  0  0  0  0  0  0  0  0  0  0
  148.9394  139.6302  153.2764 H   0  0  0  0  0  0  0  0  0  0  0  0
  148.1067  138.7646  154.5752 H   0  0  0  0  0  0  0  0  0  0  0  0
  147.5769  141.3850  154.2583 H   0  0  0  0  0  0  0  0  0  0  0  0
  147.9263  140.7969  155.8891 H   0  0  0  0  0  0  0  0  0  0  0  0
  149.8162  142.2152  153.9906 H   0  0  0  0  0  0  0  0  0  0  0  0
  149.6407  142.4500  155.7310 H   0  0  0  0  0  0  0  0  0  0  0  0
  149.3994  135.2941  153.3505 H   0  0  0  0  0  0  0  0  0  0  0  0
  151.5540  133.6986  155.9569 H   0  0  0  0  0  0  0  0  0  0  0  0
  151.2423  131.3268  156.6111 H   0  0  0  0  0  0  0  0  0  0  0  0
  149.3076  130.0519  155.6559 H   0  0  0  0  0  0  0  0  0  0  0  0
  148.6147  133.1569  151.3447 H   0  0  0  0  0  0  0  0  0  0  0  0
  147.7478  131.7738  152.0152 H   0  0  0  0  0  0  0  0  0  0  0  0
  146.6215  134.2305  150.7045 H   0  0  0  0  0  0  0  0  0  0  0  0
  145.9830  132.5885  150.6955 H   0  0  0  0  0  0  0  0  0  0  0  0
  145.2830  134.7856  152.4591 H   0  0  0  0  0  0  0  0  0  0  0  0
  144.6395  133.1487  152.5581 H   0  0  0  0  0  0  0  0  0  0  0  0
  146.1771  132.5187  154.2036 H   0  0  0  0  0  0  0  0  0  0  0  0
  146.2941  134.2525  154.5093 H   0  0  0  0  0  0  0  0  0  0  0  0
  1  2  2  0  0  0  0
  2  3  1  0  0  0  0
  2 10  1  0  0  0  0
  3  4  1  0  0  0  0
  3 22  1  0  0  0  0
  4  5  1  0  0  0  0
  4 23  1  0  0  0  0
  4 24  1  0  0  0  0
  5  9  1  0  0  0  0
  5  6  1  0  0  0  0
  5 25  1  0  0  0  0
  6  7  1  0  0  0  0
  6 26  1  0  0  0  0
  6 27  1  0  0  0  0
  7  8  1  0  0  0  0
  7 28  1  0  0  0  0
  7 29  1  0  0  0  0
  8  9  1  0  0  0  0
  8 30  1  0  0  0  0
  8 31  1  0  0  0  0
 10 11  1  0  0  0  0
 10 32  1  0  0  0  0
 11 16  1  0  0  0  0
 11 12  2  0  0  0  0
 12 13  1  0  0  0  0
 12 33  1  0  0  0  0
 13 14  2  0  0  0  0
 13 34  1  0  0  0  0
 14 15  1  0  0  0  0
 14 35  1  0  0  0  0
 15 16  2  0  0  0  0
 16 17  1  0  0  0  0
 17 21  1  0  0  0  0
 17 18  1  0  0  0  0
 18 19  1  0  0  0  0
 18 36  1  0  0  0  0
 18 37  1  0  0  0  0
 19 20  1  0  0  0  0
 19 38  1  0  0  0  0
 19 39  1  0  0  0  0
 20 21  1  0  0  0  0
 20 40  1  0  0  0  0
 20 41  1  0  0  0  0
 21 42  1  0  0  0  0
 21 43  1  0  0  0  0
M  END
> <s_m_source_file>
AV-unprocessed.smi

> <i_m_source_file_index>
1784

> <i_lp_mmshare_version>
43012

> <i_f3d_flags>
0

> <s_epik_input>
TzFbQ0gyXVtDSDJdW0NIMl1bQ0BIXTFbQ0gyXVtOSF1DKD1PKVtOSF1jMltjSF1bY0hdW2NIXW5jMk4zW0NIMl1bQ0gyXVtDSDJdW0NIMl0z

> <s_epik_cmdline>
J2VwaWtfcHl0aG9uJywgJy1waCcsICc3LjAnLCAnLXRuJywgJzgnLCAnLW1hJywgJzIwMCcsICctbWV0YWxfYmluZGluZycsICctaW1hZScsICc8aW5maWxlLm1hZT4nLCAnLW9tYWUnLCAnPG91dGZpbGUubWFlPic=

> <r_lp_tautomer_probability>
1

> <r_epik_Ionization_Penalty>
0.0982482

> <r_epik_Ionization_Penalty_Charging>
0

> <r_epik_Ionization_Penalty_Neutral>
0.0982482

> <r_epik_State_Penalty>
0.0877864

> <r_epik_Charging_Adjusted_Penalty>
0.0877864

> <i_epik_Tot_Q>
0

> <i_epik_Tot_abs_Q>
0

> <r_epik_Metal_State_Penalty>
0.0752567

> <b_epik_Metal_Only>
0

> <s_lp_Force_Field>
OPLS_2005

> <r_lp_Energy>
47.4963

> <b_lp_Chiralities_Consistent>
1

> <s_lp_Variant>
AV-unprocessed.smi:1784-1

> <Gold.Version>
5.8.1

> <Gold.Id.Protein>
6NUR|6NUR_protein|mol2

> <Gold.PLP.Fitness>
43.7920

> <Gold.PLP.PLP>
-33.3898

> <Gold.PLP.part.hbond>
-5.6228

> <Gold.PLP.part.metal>
0.0000

> <Gold.PLP.part.buried>
-0.3417

> <Gold.PLP.part.nonpolar>
-27.0561

> <Gold.PLP.part.repulsive>
0.4391

> <Gold.PLP.ligand.clash>
0.0000

> <Gold.PLP.ligand.torsion>
0.2303

> <Gold.PLP.Chemscore.Hbond>
3.6060

> <Gold.PLP.Chemscore.CHOScore>
0.0000

> <Gold.PLP.Chemscore.Metal>
0.0000

> <Gold.Chemscore.Hbonds>
donor molecule, donor type, donor heavy atom, donor atom, acceptor molecule, acceptor atom, score
      L1  H     3    22       P1  7948  0.94
      L1  H    10    32       P1  7948  0.75
      P1  H  7989  7998       L1     9  0.86
      P1  H 10752 10765       L1     1  1.00

> <Gold.PLP.Chemscore.Internal.Correction>
0.0448

> <Gold.Rescore>
     Score         DG    S(hbond)    S(metal)    S(lipo)     H(rot)  DE(clash)    DE(int)     intcor
     17.07     -18.76       2.63        0.00      68.59       1.38       0.12       1.56       ----

> <Gold.Chemscore.Fitness>
17.0708

> <Gold.Chemscore.DG>
-18.7551

> <Gold.Chemscore.ZeroCoef>
-5.4800

> <Gold.Chemscore.Hbond>
2.6294

> <Gold.Chemscore.Metal>
0.0000

> <Gold.Chemscore.Lipo>
68.5869

> <Gold.Chemscore.Internal_Hbond>
0.0000

> <Gold.Chemscore.DEClash>
0.1200

> <Gold.Chemscore.DEInternal>
1.5643

> <Gold.Chemscore.Rot>
1.3796

> <Gold.Chemscore.Internal.Correction>
   9.000000E+99

> <Gold.Chemscore.Hbonds>
donor molecule, donor type, donor heavy atom, donor atom, acceptor molecule, acceptor atom, score
      L1  H     3    22       P1  7948  0.41
      L1  H    10    32       P1  7948  0.09
      P1  H  7989  7998       L1     9  0.10
      P1  H 10752 10765       L1     1  0.50

> <Gold.Chemscore.Hbond.Weighted>
-8.7821

> <Gold.Chemscore.Metal.Weighted>
-0.0000

> <Gold.Chemscore.Lipo.Weighted>
-8.0247

> <Gold.Chemscore.Internal_Hbond.Weighted>
0.0000

> <Gold.Chemscore.DEClash.Weighted>
0.1200

> <Gold.Chemscore.DEInternal.Weighted>
1.5643

> <Gold.Chemscore.Rot.Weighted>
3.5317

> <Gold.Chemscore.Internal.Correction.Weighted>
   9.000000E+99

> <Gold.Protein.RotatedTorsions>
[ 6907 6896 6895 6894 ] final   94.94 input  -60.11 | X-H torsion
[ 7974 7965 7964 7962 ] final -104.87 input  175.53 | X-H torsion
[ 8008 7997 7996 7995 ] final  127.92 input   59.86 | X-H torsion
[ 10167 10162 10161 10158 ] final   69.23 input  -65.29 | X-H torsion
[ 10718 10713 10712 10709 ] final  -69.32 input   66.30 | X-H torsion
[ 10763 10752 10751 10750 ] final -159.57 input  -60.55 | X-H torsion
[ 11005 11000 10999 10996 ] final -146.91 input  -57.11 | X-H torsion

> <Gold.Protein.ActiveResidues>
 VAL166  LYS551  ARG553  GLY616  TRP617  ASP618  TYR619  PRO620  LYS621  CYS622 
 ASP623  PHE694  ASN695  SER759  ASP760  ASP761  ALA762  ILE779  LEU786  VAL792 
 PHE793  MET794  SER795  GLU796  ALA797  LYS798  CYS799  TRP800  GLU811  SER814 

> <Gold.Protein.RotatedAtoms>
  152.5447  134.1117  159.8360 H   0  0  0  0  0  0  0  0  0  0  0  0  # atno 6907 bound_to 6896
  151.1183  133.5115  159.2610 H   0  0  0  0  0  0  0  0  0  0  0  0  # atno 6908 bound_to 6896
  151.1808  135.0369  159.8846 H   0  0  0  0  0  0  0  0  0  0  0  0  # atno 6909 bound_to 6896
  145.2376  140.9193  143.3168 H   0  0  0  0  0  0  0  0  0  0  0  0  # atno 7974 bound_to 7965
  156.2903  140.2657  156.2352 H   0  0  0  0  0  0  0  0  0  0  0  0  # atno 8008 bound_to 7997
  155.0032  140.0387  157.2387 H   0  0  0  0  0  0  0  0  0  0  0  0  # atno 8009 bound_to 7997
  154.7583  140.2756  155.6240 H   0  0  0  0  0  0  0  0  0  0  0  0  # atno 8010 bound_to 7997
  140.0700  144.5160  150.7234 H   0  0  0  0  0  0  0  0  0  0  0  0  # atno 10167 bound_to 10162
  156.0461  130.4310  150.2130 H   0  0  0  0  0  0  0  0  0  0  0  0  # atno 10718 bound_to 10713
  154.7463  135.3081  154.8638 H   0  0  0  0  0  0  0  0  0  0  0  0  # atno 10763 bound_to 10752
  153.9438  135.6771  153.4748 H   0  0  0  0  0  0  0  0  0  0  0  0  # atno 10764 bound_to 10752
  153.1060  135.4889  154.8878 H   0  0  0  0  0  0  0  0  0  0  0  0  # atno 10765 bound_to 10752
  140.7771  134.3122  157.5057 H   0  0  0  0  0  0  0  0  0  0  0  0  # atno 11005 bound_to 11000
  144.9619  139.3971  143.6352 LP  0  0  0  0  0  0  0  0  0  0  0  0  # atno 17320 bound_to 7965
  146.3337  139.8676  142.8845 LP  0  0  0  0  0  0  0  0  0  0  0  0  # atno 17321 bound_to 7965
  140.7130  143.2521  151.4522 LP  0  0  0  0  0  0  0  0  0  0  0  0  # atno 17342 bound_to 10162
  139.5842  144.1642  152.2007 LP  0  0  0  0  0  0  0  0  0  0  0  0  # atno 17343 bound_to 10162
  157.0220  130.9982  151.3337 LP  0  0  0  0  0  0  0  0  0  0  0  0  # atno 17370 bound_to 10713
  157.5338  130.8075  149.7947 LP  0  0  0  0  0  0  0  0  0  0  0  0  # atno 17371 bound_to 10713
  139.8747  134.9296  156.3481 LP  0  0  0  0  0  0  0  0  0  0  0  0  # atno 17394 bound_to 11000
  140.9518  133.7446  156.0282 LP  0  0  0  0  0  0  0  0  0  0  0  0  # atno 17395 bound_to 11000

$$$$
