AV-unprocessed.smi:3348|AV-procd|sdf|12921|dock4
  -GOLD-   2272019343D 1   1.00000     0.00000
 Structure written by MMmdl.
 47 48  0  0  0  0  0  0  0  0  2 V2000
  147.6509  141.8965  154.4291 C   0  0  0  0  0  0  0  0  0  0  0  0
  149.0809  141.3433  154.3165 C   0  0  2  0  0  0  0  0  0  0  0  0
  149.0845  139.8062  154.4277 C   0  0  0  0  0  0  0  0  0  0  0  0
  150.2285  139.3091  155.1717 N   0  0  0  0  0  0  0  0  0  0  0  0
  150.2439  138.4035  156.2118 C   0  0  0  0  0  0  0  0  0  0  0  0
  151.5460  138.2400  156.5885 C   0  0  0  0  0  0  0  0  0  0  0  0
  152.2633  139.0992  155.7098 C   0  0  0  0  0  0  0  0  0  0  0  0
  151.4721  139.7356  154.8606 N   0  0  0  0  0  0  0  0  0  0  0  0
  149.9533  141.9347  155.3563 N   0  3  0  0  0  0  0  0  0  0  0  0
  149.5630  141.6369  156.7499 C   0  0  0  0  0  0  0  0  0  0  0  0
  150.0612  142.7291  157.7012 C   0  0  0  0  0  0  0  0  0  0  0  0
  151.4563  142.8979  157.4988 O   0  0  0  0  0  0  0  0  0  0  0  0
  152.1497  143.4696  158.6016 C   0  0  1  0  0  0  0  0  0  0  0  0
  151.4329  144.7593  159.0560 C   0  0  0  0  0  0  0  0  0  0  0  0
  152.0663  145.3393  160.3291 C   0  0  0  0  0  0  0  0  0  0  0  0
  152.0855  144.2995  161.4576 C   0  0  0  0  0  0  0  0  0  0  0  0
  152.8052  143.0172  161.0137 C   0  0  0  0  0  0  0  0  0  0  0  0
  152.1777  142.4214  159.7374 C   0  0  2  0  0  0  0  0  0  0  0  0
  152.9209  141.1433  159.3152 C   0  0  0  0  0  0  0  0  0  0  0  0
  147.0031  141.4617  153.6674 H   0  0  0  0  0  0  0  0  0  0  0  0
  147.6231  142.9776  154.2941 H   0  0  0  0  0  0  0  0  0  0  0  0
  147.2140  141.6705  155.4023 H   0  0  0  0  0  0  0  0  0  0  0  0
  149.4782  141.6088  153.3353 H   0  0  0  0  0  0  0  0  0  0  0  0
  148.1678  139.4469  154.8987 H   0  0  0  0  0  0  0  0  0  0  0  0
  149.1169  139.3591  153.4331 H   0  0  0  0  0  0  0  0  0  0  0  0
  149.3378  137.9555  156.5930 H   0  0  0  0  0  0  0  0  0  0  0  0
  151.9282  137.6047  157.3738 H   0  0  0  0  0  0  0  0  0  0  0  0
  153.3276  139.2766  155.6638 H   0  0  0  0  0  0  0  0  0  0  0  0
  150.9024  141.6245  155.2024 H   0  0  0  0  0  0  0  0  0  0  0  0
  148.4755  141.5775  156.8028 H   0  0  0  0  0  0  0  0  0  0  0  0
  149.9538  140.6682  157.0607 H   0  0  0  0  0  0  0  0  0  0  0  0
  149.5264  143.6634  157.5218 H   0  0  0  0  0  0  0  0  0  0  0  0
  149.8627  142.4302  158.7302 H   0  0  0  0  0  0  0  0  0  0  0  0
  153.1791  143.7015  158.3211 H   0  0  0  0  0  0  0  0  0  0  0  0
  151.4597  145.5134  158.2700 H   0  0  0  0  0  0  0  0  0  0  0  0
  150.3792  144.5455  159.2415 H   0  0  0  0  0  0  0  0  0  0  0  0
  153.0841  145.6679  160.1150 H   0  0  0  0  0  0  0  0  0  0  0  0
  151.5154  146.2241  160.6490 H   0  0  0  0  0  0  0  0  0  0  0  0
  152.5751  144.7150  162.3387 H   0  0  0  0  0  0  0  0  0  0  0  0
  151.0634  144.0619  161.7546 H   0  0  0  0  0  0  0  0  0  0  0  0
  153.8596  143.2360  160.8390 H   0  0  0  0  0  0  0  0  0  0  0  0
  152.7727  142.2855  161.8219 H   0  0  0  0  0  0  0  0  0  0  0  0
  151.1480  142.1447  159.9702 H   0  0  0  0  0  0  0  0  0  0  0  0
  153.9564  141.3569  159.0490 H   0  0  0  0  0  0  0  0  0  0  0  0
  152.4461  140.6719  158.4545 H   0  0  0  0  0  0  0  0  0  0  0  0
  152.9297  140.4111  160.1230 H   0  0  0  0  0  0  0  0  0  0  0  0
  149.9248  142.9387  155.2430 H   0  0  0  0  0  0  0  0  0  0  0  0
  1  2  1  0  0  0  0
  1 20  1  0  0  0  0
  1 21  1  0  0  0  0
  1 22  1  0  0  0  0
  2  3  1  0  0  0  0
  2  9  1  0  0  0  0
  2 23  1  0  0  0  0
  3  4  1  0  0  0  0
  3 24  1  0  0  0  0
  3 25  1  0  0  0  0
  4  8  1  0  0  0  0
  4  5  1  0  0  0  0
  5  6  2  0  0  0  0
  5 26  1  0  0  0  0
  6  7  1  0  0  0  0
  6 27  1  0  0  0  0
  7  8  2  0  0  0  0
  7 28  1  0  0  0  0
  9 10  1  0  0  0  0
  9 29  1  0  0  0  0
  9 47  1  0  0  0  0
 10 11  1  0  0  0  0
 10 30  1  0  0  0  0
 10 31  1  0  0  0  0
 11 12  1  0  0  0  0
 11 32  1  0  0  0  0
 11 33  1  0  0  0  0
 12 13  1  0  0  0  0
 13 18  1  0  0  0  0
 13 14  1  0  0  0  0
 13 34  1  0  0  0  0
 14 15  1  0  0  0  0
 14 35  1  0  0  0  0
 14 36  1  0  0  0  0
 15 16  1  0  0  0  0
 15 37  1  0  0  0  0
 15 38  1  0  0  0  0
 16 17  1  0  0  0  0
 16 39  1  0  0  0  0
 16 40  1  0  0  0  0
 17 18  1  0  0  0  0
 17 41  1  0  0  0  0
 17 42  1  0  0  0  0
 18 19  1  0  0  0  0
 18 43  1  0  0  0  0
 19 44  1  0  0  0  0
 19 45  1  0  0  0  0
 19 46  1  0  0  0  0
M  CHG  1   9   1
M  END
> <s_m_source_file>
AV-unprocessed.smi

> <i_m_source_file_index>
3348

> <i_lp_mmshare_version>
43012

> <i_f3d_flags>
0

> <s_epik_input>
bjFbY0hdW2NIXVtjSF1uMVtDSDJdW0NAQEhdKFtDSDNdKVtOSF1bQ0gyXVtDSDJdT1tDQEBIXTJbQ0gyXVtDSDJdW0NIMl1bQ0gyXVtDQEhdMltDSDNd

> <s_epik_cmdline>
J2VwaWtfcHl0aG9uJywgJy1waCcsICc3LjAnLCAnLXRuJywgJzgnLCAnLW1hJywgJzIwMCcsICctbWV0YWxfYmluZGluZycsICctaW1hZScsICc8aW5maWxlLm1hZT4nLCAnLW9tYWUnLCAnPG91dGZpbGUubWFlPic=

> <r_lp_tautomer_probability>
1

> <r_epik_Ionization_Penalty>
0.00925088

> <r_epik_Ionization_Penalty_Charging>
0.00924645

> <r_epik_Ionization_Penalty_Neutral>
4.42413e-06

> <r_epik_State_Penalty>
0.0070118

> <r_epik_Charging_Adjusted_Penalty>
0.0162583

> <i_epik_Tot_Q>
1

> <i_epik_Tot_abs_Q>
1

> <r_epik_Metal_State_Penalty>
0.00701222

> <b_epik_Metal_Only>
0

> <s_lp_Force_Field>
OPLS_2005

> <r_lp_Energy>
15.6253

> <b_lp_Chiralities_Consistent>
1

> <s_lp_Variant>
AV-unprocessed.smi:3348-7

> <Gold.Version>
5.8.1

> <Gold.Id.Protein>
6NUR|6NUR_protein|mol2

> <Gold.PLP.Fitness>
52.3746

> <Gold.PLP.PLP>
-45.2063

> <Gold.PLP.part.hbond>
-1.9447

> <Gold.PLP.part.metal>
0.0000

> <Gold.PLP.part.buried>
-5.0894

> <Gold.PLP.part.nonpolar>
-38.5688

> <Gold.PLP.part.repulsive>
0.3482

> <Gold.PLP.ligand.clash>
0.0000

> <Gold.PLP.ligand.torsion>
0.9736

> <Gold.PLP.Chemscore.Hbond>
3.0000

> <Gold.PLP.Chemscore.CHOScore>
0.0000

> <Gold.PLP.Chemscore.Metal>
0.0000

> <Gold.Chemscore.Hbonds>
donor molecule, donor type, donor heavy atom, donor atom, acceptor molecule, acceptor atom, score
      L1  H     9    47       P1  8028  1.56
      P1  H  7989  7998       L1     8  1.00

> <Gold.PLP.Chemscore.Internal.Correction>
0.1154

> <Gold.Rescore>
     Score         DG    S(hbond)    S(metal)    S(lipo)     H(rot)  DE(clash)    DE(int)     intcor
     20.26     -22.38       1.94        0.00     128.85       1.82       0.06       2.06       ----

> <Gold.Chemscore.Fitness>
20.2580

> <Gold.Chemscore.DG>
-22.3812

> <Gold.Chemscore.ZeroCoef>
-5.4800

> <Gold.Chemscore.Hbond>
1.9388

> <Gold.Chemscore.Metal>
0.0000

> <Gold.Chemscore.Lipo>
128.8482

> <Gold.Chemscore.Internal_Hbond>
0.0000

> <Gold.Chemscore.DEClash>
0.0594

> <Gold.Chemscore.DEInternal>
2.0638

> <Gold.Chemscore.Rot>
1.8163

> <Gold.Chemscore.Internal.Correction>
   9.000000E+99

> <Gold.Chemscore.Hbonds>
donor molecule, donor type, donor heavy atom, donor atom, acceptor molecule, acceptor atom, score
      L1  H     9    47       P1  8028  0.75
      P1  H  7989  7998       L1     8  0.95

> <Gold.Chemscore.Hbond.Weighted>
-6.4757

> <Gold.Chemscore.Metal.Weighted>
-0.0000

> <Gold.Chemscore.Lipo.Weighted>
-15.0752

> <Gold.Chemscore.Internal_Hbond.Weighted>
0.0000

> <Gold.Chemscore.DEClash.Weighted>
0.0594

> <Gold.Chemscore.DEInternal.Weighted>
2.0638

> <Gold.Chemscore.Rot.Weighted>
4.6497

> <Gold.Chemscore.Internal.Correction.Weighted>
   9.000000E+99

> <Gold.Protein.RotatedTorsions>
[ 6907 6896 6895 6894 ] final  127.72 input  -60.11 | X-H torsion
[ 7974 7965 7964 7962 ] final -145.56 input  175.53 | X-H torsion
[ 8008 7997 7996 7995 ] final -179.81 input   59.86 | X-H torsion
[ 10167 10162 10161 10158 ] final   93.68 input  -65.29 | X-H torsion
[ 10718 10713 10712 10709 ] final  -87.62 input   66.30 | X-H torsion
[ 10763 10752 10751 10750 ] final -153.92 input  -60.55 | X-H torsion
[ 11005 11000 10999 10996 ] final -106.41 input  -57.11 | X-H torsion

> <Gold.Protein.ActiveResidues>
 VAL166  LYS551  ARG553  GLY616  TRP617  ASP618  TYR619  PRO620  LYS621  CYS622 
 ASP623  PHE694  ASN695  SER759  ASP760  ASP761  ALA762  ILE779  LEU786  VAL792 
 PHE793  MET794  SER795  GLU796  ALA797  LYS798  CYS799  TRP800  GLU811  SER814 

> <Gold.Protein.RotatedAtoms>
  152.3786  133.6515  159.6143 H   0  0  0  0  0  0  0  0  0  0  0  0  # atno 6907 bound_to 6896
  150.7723  133.9151  159.3390 H   0  0  0  0  0  0  0  0  0  0  0  0  # atno 6908 bound_to 6896
  151.6961  135.0939  160.0293 H   0  0  0  0  0  0  0  0  0  0  0  0  # atno 6909 bound_to 6896
  144.8219  140.5568  143.5573 H   0  0  0  0  0  0  0  0  0  0  0  0  # atno 7974 bound_to 7965
  156.0348  140.1290  157.0219 H   0  0  0  0  0  0  0  0  0  0  0  0  # atno 8008 bound_to 7997
  154.4365  140.1042  156.6222 H   0  0  0  0  0  0  0  0  0  0  0  0  # atno 8009 bound_to 7997
  155.5753  140.3467  155.4528 H   0  0  0  0  0  0  0  0  0  0  0  0  # atno 8010 bound_to 7997
  139.8156  144.6754  150.9584 H   0  0  0  0  0  0  0  0  0  0  0  0  # atno 10167 bound_to 10162
  155.9985  130.4806  150.4894 H   0  0  0  0  0  0  0  0  0  0  0  0  # atno 10718 bound_to 10713
  154.7894  135.3202  154.7811 H   0  0  0  0  0  0  0  0  0  0  0  0  # atno 10763 bound_to 10752
  153.8503  135.6863  153.4797 H   0  0  0  0  0  0  0  0  0  0  0  0  # atno 10764 bound_to 10752
  153.1559  135.4680  154.9643 H   0  0  0  0  0  0  0  0  0  0  0  0  # atno 10765 bound_to 10752
  141.1006  133.8891  157.1852 H   0  0  0  0  0  0  0  0  0  0  0  0  # atno 11005 bound_to 11000
  145.5086  139.1480  143.3617 LP  0  0  0  0  0  0  0  0  0  0  0  0  # atno 17320 bound_to 7965
  146.2524  140.5226  142.8887 LP  0  0  0  0  0  0  0  0  0  0  0  0  # atno 17321 bound_to 7965
  140.7816  143.4142  151.0945 LP  0  0  0  0  0  0  0  0  0  0  0  0  # atno 17342 bound_to 10162
  139.7805  143.8362  152.3137 LP  0  0  0  0  0  0  0  0  0  0  0  0  # atno 17343 bound_to 10162
  157.2891  131.0622  151.2146 LP  0  0  0  0  0  0  0  0  0  0  0  0  # atno 17370 bound_to 10713
  157.3165  130.6916  149.6245 LP  0  0  0  0  0  0  0  0  0  0  0  0  # atno 17371 bound_to 10713
  139.9856  135.0083  156.9855 LP  0  0  0  0  0  0  0  0  0  0  0  0  # atno 17394 bound_to 11000
  140.5032  134.1077  155.7254 LP  0  0  0  0  0  0  0  0  0  0  0  0  # atno 17395 bound_to 11000

$$$$
