AV-unprocessed.smi:791|AV-procd|sdf|3748|dock3
  -GOLD-   22720 1183D 1   1.00000     0.00000
 Structure written by MMmdl.
 30 32  0  0  0  0  0  0  0  0  2 V2000
  148.5875  141.1580  154.1200 C   0  0  0  0  0  0  0  0  0  0  0  0
  147.3175  141.3456  154.9672 C   0  0  0  0  0  0  0  0  0  0  0  0
  147.5535  142.3177  156.0572 N   0  3  0  0  0  0  0  0  0  0  0  0
  148.6610  141.9227  156.9553 C   0  0  0  0  0  0  0  0  0  0  0  0
  149.9670  141.7200  156.1615 C   0  0  1  0  0  0  0  0  0  0  0  0
  151.1091  141.3351  157.0505 C   0  0  0  0  0  0  0  0  0  0  0  0
  151.7910  140.2141  156.8472 N   0  0  0  0  0  0  0  0  0  0  0  0
  152.7617  140.2361  157.8588 O   0  0  0  0  0  0  0  0  0  0  0  0
  152.5346  141.3696  158.5638 C   0  0  0  0  0  0  0  0  0  0  0  0
  153.4345  141.6988  159.7057 C   0  0  0  0  0  0  0  0  0  0  0  0
  152.9010  141.7523  161.1186 C   0  0  0  0  0  0  0  0  0  0  0  0
  153.3220  143.0234  160.4257 C   0  0  0  0  0  0  0  0  0  0  0  0
  151.5346  142.1076  158.0890 N   0  0  0  0  0  0  0  0  0  0  0  0
  149.7752  140.7306  154.9959 C   0  0  0  0  0  0  0  0  0  0  0  0
  148.8269  142.0905  153.6069 H   0  0  0  0  0  0  0  0  0  0  0  0
  148.4112  140.4138  153.3426 H   0  0  0  0  0  0  0  0  0  0  0  0
  146.4964  141.7011  154.3445 H   0  0  0  0  0  0  0  0  0  0  0  0
  147.0028  140.3936  155.3967 H   0  0  0  0  0  0  0  0  0  0  0  0
  147.7775  143.2126  155.6456 H   0  0  0  0  0  0  0  0  0  0  0  0
  148.7925  142.6945  157.7142 H   0  0  0  0  0  0  0  0  0  0  0  0
  148.3829  141.0060  157.4774 H   0  0  0  0  0  0  0  0  0  0  0  0
  150.2179  142.6847  155.7157 H   0  0  0  0  0  0  0  0  0  0  0  0
  154.4275  141.2818  159.5498 H   0  0  0  0  0  0  0  0  0  0  0  0
  151.8349  141.5882  161.2628 H   0  0  0  0  0  0  0  0  0  0  0  0
  153.5428  141.3770  161.9129 H   0  0  0  0  0  0  0  0  0  0  0  0
  154.2451  143.4946  160.7570 H   0  0  0  0  0  0  0  0  0  0  0  0
  152.5351  143.7068  160.1123 H   0  0  0  0  0  0  0  0  0  0  0  0
  149.5946  139.7268  155.3832 H   0  0  0  0  0  0  0  0  0  0  0  0
  150.6824  140.6734  154.3931 H   0  0  0  0  0  0  0  0  0  0  0  0
  146.7082  142.4129  156.6018 H   0  0  0  0  0  0  0  0  0  0  0  0
  1 14  1  0  0  0  0
  1  2  1  0  0  0  0
  1 15  1  0  0  0  0
  1 16  1  0  0  0  0
  2  3  1  0  0  0  0
  2 17  1  0  0  0  0
  2 18  1  0  0  0  0
  3  4  1  0  0  0  0
  3 19  1  0  0  0  0
  3 30  1  0  0  0  0
  4  5  1  0  0  0  0
  4 20  1  0  0  0  0
  4 21  1  0  0  0  0
  5  6  1  0  0  0  0
  5 14  1  0  0  0  0
  5 22  1  0  0  0  0
  6 13  1  0  0  0  0
  6  7  2  0  0  0  0
  7  8  1  0  0  0  0
  8  9  1  0  0  0  0
  9 10  1  0  0  0  0
  9 13  2  0  0  0  0
 10 12  1  0  0  0  0
 10 11  1  0  0  0  0
 10 23  1  0  0  0  0
 11 12  1  0  0  0  0
 11 24  1  0  0  0  0
 11 25  1  0  0  0  0
 12 26  1  0  0  0  0
 12 27  1  0  0  0  0
 14 28  1  0  0  0  0
 14 29  1  0  0  0  0
M  CHG  1   3   1
M  END
> <s_m_source_file>
AV-unprocessed.smi

> <i_m_source_file_index>
791

> <i_lp_mmshare_version>
43012

> <i_f3d_flags>
0

> <s_epik_input>
W0NIMl0xW0NIMl1bQ0gyXVtOSF1bQ0gyXVtDQEhdMWMybm9jKG4yKVtDSF0zW0NIMl1bQ0gyXTM=

> <s_epik_cmdline>
J2VwaWtfcHl0aG9uJywgJy1waCcsICc3LjAnLCAnLXRuJywgJzgnLCAnLW1hJywgJzIwMCcsICctbWV0YWxfYmluZGluZycsICctaW1hZScsICc8aW5maWxlLm1hZT4nLCAnLW9tYWUnLCAnPG91dGZpbGUubWFlPic=

> <r_lp_tautomer_probability>
1

> <r_epik_Ionization_Penalty>
0.000532935

> <r_epik_Ionization_Penalty_Charging>
0.000532935

> <r_epik_Ionization_Penalty_Neutral>
2.72852e-13

> <r_epik_State_Penalty>
0.000332992

> <r_epik_Charging_Adjusted_Penalty>
0.000865928

> <i_epik_Tot_Q>
1

> <i_epik_Tot_abs_Q>
1

> <r_epik_Metal_State_Penalty>
-0

> <b_epik_Metal_Only>
0

> <s_lp_Force_Field>
OPLS_2005

> <r_lp_Energy>
11.8714

> <b_lp_Chiralities_Consistent>
1

> <s_lp_Variant>
AV-unprocessed.smi:791-1

> <Gold.Version>
5.8.1

> <Gold.Id.Protein>
6NUR|6NUR_protein|mol2

> <Gold.PLP.Fitness>
34.9073

> <Gold.PLP.PLP>
-26.0323

> <Gold.PLP.part.hbond>
-2.0000

> <Gold.PLP.part.metal>
0.0000

> <Gold.PLP.part.buried>
-0.8992

> <Gold.PLP.part.nonpolar>
-22.1603

> <Gold.PLP.part.repulsive>
0.0586

> <Gold.PLP.ligand.clash>
0.0000

> <Gold.PLP.ligand.torsion>
0.0910

> <Gold.PLP.Chemscore.Hbond>
2.9600

> <Gold.PLP.Chemscore.CHOScore>
0.0000

> <Gold.PLP.Chemscore.Metal>
0.0000

> <Gold.Chemscore.Hbonds>
donor molecule, donor type, donor heavy atom, donor atom, acceptor molecule, acceptor atom, score
      L1  H     3    19       P1  8028  1.95
      P1  H  7997  8008       L1     8  0.98

> <Gold.PLP.Chemscore.Internal.Correction>
0.1769

> <Gold.Rescore>
     Score         DG    S(hbond)    S(metal)    S(lipo)     H(rot)  DE(clash)    DE(int)     intcor
     13.44     -14.01       1.24        0.00      64.34       1.23       0.44       0.13       ----

> <Gold.Chemscore.Fitness>
13.4426

> <Gold.Chemscore.DG>
-14.0065

> <Gold.Chemscore.ZeroCoef>
-5.4800

> <Gold.Chemscore.Hbond>
1.2425

> <Gold.Chemscore.Metal>
0.0000

> <Gold.Chemscore.Lipo>
64.3443

> <Gold.Chemscore.Internal_Hbond>
0.0000

> <Gold.Chemscore.DEClash>
0.4376

> <Gold.Chemscore.DEInternal>
0.1264

> <Gold.Chemscore.Rot>
1.2312

> <Gold.Chemscore.Internal.Correction>
   9.000000E+99

> <Gold.Chemscore.Hbonds>
donor molecule, donor type, donor heavy atom, donor atom, acceptor molecule, acceptor atom, score
      L1  H     3    19       P1  8028  0.32
      P1  H  7997  8008       L1     8  0.39

> <Gold.Chemscore.Hbond.Weighted>
-4.1500

> <Gold.Chemscore.Metal.Weighted>
-0.0000

> <Gold.Chemscore.Lipo.Weighted>
-7.5283

> <Gold.Chemscore.Internal_Hbond.Weighted>
0.0000

> <Gold.Chemscore.DEClash.Weighted>
0.4376

> <Gold.Chemscore.DEInternal.Weighted>
0.1264

> <Gold.Chemscore.Rot.Weighted>
3.1518

> <Gold.Chemscore.Internal.Correction.Weighted>
   9.000000E+99

> <Gold.Protein.RotatedTorsions>
[ 6907 6896 6895 6894 ] final  144.72 input  -60.11 | X-H torsion
[ 7974 7965 7964 7962 ] final   -1.69 input  175.53 | X-H torsion
[ 8008 7997 7996 7995 ] final  -74.01 input   59.86 | X-H torsion
[ 10167 10162 10161 10158 ] final -141.09 input  -65.29 | X-H torsion
[ 10718 10713 10712 10709 ] final  176.40 input   66.30 | X-H torsion
[ 10763 10752 10751 10750 ] final    4.99 input  -60.55 | X-H torsion
[ 11005 11000 10999 10996 ] final -173.40 input  -57.11 | X-H torsion

> <Gold.Protein.ActiveResidues>
 VAL166  LYS551  ARG553  GLY616  TRP617  ASP618  TYR619  PRO620  LYS621  CYS622 
 ASP623  PHE694  ASN695  SER759  ASP760  ASP761  ALA762  ILE779  LEU786  VAL792 
 PHE793  MET794  SER795  GLU796  ALA797  LYS798  CYS799  TRP800  GLU811  SER814 

> <Gold.Protein.RotatedAtoms>
  152.1900  133.4767  159.5002 H   0  0  0  0  0  0  0  0  0  0  0  0  # atno 6907 bound_to 6896
  150.6949  134.1724  159.4226 H   0  0  0  0  0  0  0  0  0  0  0  0  # atno 6908 bound_to 6896
  151.9638  135.0110  160.0600 H   0  0  0  0  0  0  0  0  0  0  0  0  # atno 6909 bound_to 6896
  146.2414  140.1458  142.8334 H   0  0  0  0  0  0  0  0  0  0  0  0  # atno 7974 bound_to 7965
  154.5295  140.0769  156.8318 H   0  0  0  0  0  0  0  0  0  0  0  0  # atno 8008 bound_to 7997
  155.3406  140.3407  155.4221 H   0  0  0  0  0  0  0  0  0  0  0  0  # atno 8009 bound_to 7997
  156.1766  140.1638  156.8338 H   0  0  0  0  0  0  0  0  0  0  0  0  # atno 8010 bound_to 7997
  139.8219  143.7563  152.2666 H   0  0  0  0  0  0  0  0  0  0  0  0  # atno 10167 bound_to 10162
  156.9207  130.9940  151.3005 H   0  0  0  0  0  0  0  0  0  0  0  0  # atno 10718 bound_to 10713
  153.2646  135.6926  153.7542 H   0  0  0  0  0  0  0  0  0  0  0  0  # atno 10763 bound_to 10752
  153.6589  135.3364  155.3122 H   0  0  0  0  0  0  0  0  0  0  0  0  # atno 10764 bound_to 10752
  154.8443  135.4472  154.1649 H   0  0  0  0  0  0  0  0  0  0  0  0  # atno 10765 bound_to 10752
  140.4862  134.6028  157.4938 H   0  0  0  0  0  0  0  0  0  0  0  0  # atno 11005 bound_to 11000
  145.0208  140.8792  143.5167 LP  0  0  0  0  0  0  0  0  0  0  0  0  # atno 17320 bound_to 7965
  145.1506  139.2516  143.5443 LP  0  0  0  0  0  0  0  0  0  0  0  0  # atno 17321 bound_to 7965
  139.7744  144.7466  151.0178 LP  0  0  0  0  0  0  0  0  0  0  0  0  # atno 17342 bound_to 10162
  140.7813  143.4610  151.0278 LP  0  0  0  0  0  0  0  0  0  0  0  0  # atno 17343 bound_to 10162
  157.5909  130.8443  149.8658 LP  0  0  0  0  0  0  0  0  0  0  0  0  # atno 17370 bound_to 10713
  156.0492  130.3721  150.1242 LP  0  0  0  0  0  0  0  0  0  0  0  0  # atno 17371 bound_to 10713
  139.9796  134.7158  155.9884 LP  0  0  0  0  0  0  0  0  0  0  0  0  # atno 17394 bound_to 11000
  141.1507  133.6549  156.4003 LP  0  0  0  0  0  0  0  0  0  0  0  0  # atno 17395 bound_to 11000

$$$$
