AV-unprocessed.smi:1956|AV-procd|sdf|7900|dock6
  -GOLD-   2272010 53D 1   1.00000     0.00000
 Structure written by MMmdl.
 46 47  0  0  0  0  0  0  0  0  2 V2000
  150.4748  141.7367  156.3902 C   0  0  0  0  0  0  0  0  0  0  0  0
  150.4633  140.6712  155.4467 O   0  0  0  0  0  0  0  0  0  0  0  0
  149.2497  140.2670  154.9298 C   0  0  0  0  0  0  0  0  0  0  0  0
  148.2151  141.2165  154.8187 C   0  0  0  0  0  0  0  0  0  0  0  0
  146.9722  140.8132  154.2949 C   0  0  0  0  0  0  0  0  0  0  0  0
  146.8039  139.4672  153.8893 C   0  0  0  0  0  0  0  0  0  0  0  0
  145.5984  138.9259  153.3637 N   0  0  0  0  0  0  0  0  0  0  0  0
  145.2561  137.6379  153.1893 C   0  0  0  0  0  0  0  0  0  0  0  0
  145.9345  136.6662  153.5185 O   0  0  0  0  0  0  0  0  0  0  0  0
  144.0548  137.5303  152.6039 N   0  0  0  0  0  0  0  0  0  0  0  0
  143.3896  136.2708  152.2769 C   0  0  0  0  0  0  0  0  0  0  0  0
  143.4501  135.2351  153.4215 C   0  0  0  0  0  0  0  0  0  0  0  0
  143.9407  133.9040  152.9803 N   0  3  1  0  0  0  0  0  0  0  0  0
  143.5730  133.6024  151.5736 C   0  0  0  0  0  0  0  0  0  0  0  0
  143.9622  132.1636  151.2001 C   0  0  0  0  0  0  0  0  0  0  0  0
  145.4583  131.9221  151.4364 C   0  0  0  0  0  0  0  0  0  0  0  0
  145.8338  132.2691  152.8873 C   0  0  1  0  0  0  0  0  0  0  0  0
  147.3347  132.0682  153.1398 C   0  0  0  0  0  0  0  0  0  0  0  0
  145.3941  133.7080  153.2246 C   0  0  0  0  0  0  0  0  0  0  0  0
  147.8999  138.5941  154.0505 C   0  0  0  0  0  0  0  0  0  0  0  0
  149.0934  138.9739  154.5530 N   0  0  0  0  0  0  0  0  0  0  0  0
  151.5007  141.9302  156.7029 H   0  0  0  0  0  0  0  0  0  0  0  0
  149.8990  141.4868  157.2825 H   0  0  0  0  0  0  0  0  0  0  0  0
  150.0818  142.6574  155.9564 H   0  0  0  0  0  0  0  0  0  0  0  0
  148.3709  142.2373  155.1355 H   0  0  0  0  0  0  0  0  0  0  0  0
  146.1793  141.5410  154.2308 H   0  0  0  0  0  0  0  0  0  0  0  0
  144.8981  139.6082  153.1120 H   0  0  0  0  0  0  0  0  0  0  0  0
  143.5566  138.3803  152.3819 H   0  0  0  0  0  0  0  0  0  0  0  0
  142.3516  136.4631  152.0011 H   0  0  0  0  0  0  0  0  0  0  0  0
  143.8662  135.8678  151.3835 H   0  0  0  0  0  0  0  0  0  0  0  0
  144.1225  135.6222  154.1881 H   0  0  0  0  0  0  0  0  0  0  0  0
  142.4756  135.1366  153.9019 H   0  0  0  0  0  0  0  0  0  0  0  0
  142.4981  133.7268  151.4379 H   0  0  0  0  0  0  0  0  0  0  0  0
  144.0632  134.3132  150.9065 H   0  0  0  0  0  0  0  0  0  0  0  0
  143.3775  131.4597  151.7938 H   0  0  0  0  0  0  0  0  0  0  0  0
  143.7141  131.9690  150.1563 H   0  0  0  0  0  0  0  0  0  0  0  0
  145.7050  130.8822  151.2193 H   0  0  0  0  0  0  0  0  0  0  0  0
  146.0411  132.5318  150.7442 H   0  0  0  0  0  0  0  0  0  0  0  0
  145.2948  131.5884  153.5482 H   0  0  0  0  0  0  0  0  0  0  0  0
  147.9345  132.7202  152.5038 H   0  0  0  0  0  0  0  0  0  0  0  0
  147.6331  131.0393  152.9364 H   0  0  0  0  0  0  0  0  0  0  0  0
  147.5923  132.2866  154.1766 H   0  0  0  0  0  0  0  0  0  0  0  0
  145.9622  134.4262  152.6307 H   0  0  0  0  0  0  0  0  0  0  0  0
  145.6227  133.9133  154.2704 H   0  0  0  0  0  0  0  0  0  0  0  0
  147.8192  137.5551  153.7658 H   0  0  0  0  0  0  0  0  0  0  0  0
  143.4528  133.2240  153.5459 H   0  0  0  0  0  0  0  0  0  0  0  0
  1  2  1  0  0  0  0
  1 22  1  0  0  0  0
  1 23  1  0  0  0  0
  1 24  1  0  0  0  0
  2  3  1  0  0  0  0
  3 21  1  0  0  0  0
  3  4  2  0  0  0  0
  4  5  1  0  0  0  0
  4 25  1  0  0  0  0
  5  6  2  0  0  0  0
  5 26  1  0  0  0  0
  6  7  1  0  0  0  0
  6 20  1  0  0  0  0
  7  8  1  0  0  0  0
  7 27  1  0  0  0  0
  8  9  2  0  0  0  0
  8 10  1  0  0  0  0
 10 11  1  0  0  0  0
 10 28  1  0  0  0  0
 11 12  1  0  0  0  0
 11 29  1  0  0  0  0
 11 30  1  0  0  0  0
 12 13  1  0  0  0  0
 12 31  1  0  0  0  0
 12 32  1  0  0  0  0
 13 19  1  0  0  0  0
 13 14  1  0  0  0  0
 13 46  1  0  0  0  0
 14 15  1  0  0  0  0
 14 33  1  0  0  0  0
 14 34  1  0  0  0  0
 15 16  1  0  0  0  0
 15 35  1  0  0  0  0
 15 36  1  0  0  0  0
 16 17  1  0  0  0  0
 16 37  1  0  0  0  0
 16 38  1  0  0  0  0
 17 18  1  0  0  0  0
 17 19  1  0  0  0  0
 17 39  1  0  0  0  0
 18 40  1  0  0  0  0
 18 41  1  0  0  0  0
 18 42  1  0  0  0  0
 19 43  1  0  0  0  0
 19 44  1  0  0  0  0
 20 21  2  0  0  0  0
 20 45  1  0  0  0  0
M  CHG  1  13   1
M  END
> <s_m_source_file>
AV-unprocessed.smi

> <i_m_source_file_index>
1956

> <i_lp_mmshare_version>
43012

> <i_f3d_flags>
0

> <s_epik_input>
W0NIM11PYzFbY0hdW2NIXWMoW2NIXW4xKVtOSF1DKD1PKVtOSF1bQ0gyXVtDSDJdTjJbQ0gyXVtDSDJdW0NIMl1bQ0BASF0oW0NIM10pW0NIMl0y

> <s_epik_cmdline>
J2VwaWtfcHl0aG9uJywgJy1waCcsICc3LjAnLCAnLXRuJywgJzgnLCAnLW1hJywgJzIwMCcsICctbWV0YWxfYmluZGluZycsICctaW1hZScsICc8aW5maWxlLm1hZT4nLCAnLW9tYWUnLCAnPG91dGZpbGUubWFlPic=

> <r_lp_tautomer_probability>
1

> <r_epik_Ionization_Penalty>
0.00179545

> <r_epik_Ionization_Penalty_Charging>
0.00171832

> <r_epik_Ionization_Penalty_Neutral>
7.7124e-05

> <r_epik_State_Penalty>
0.0011618

> <r_epik_Charging_Adjusted_Penalty>
0.00288012

> <i_epik_Tot_Q>
1

> <i_epik_Tot_abs_Q>
1

> <r_epik_Metal_State_Penalty>
-0

> <b_epik_Metal_Only>
0

> <s_lp_Force_Field>
OPLS_2005

> <r_lp_Energy>
26.1696

> <b_lp_Chiralities_Consistent>
1

> <s_lp_Variant>
AV-unprocessed.smi:1956-1

> <Gold.Version>
5.8.1

> <Gold.Id.Protein>
6NUR|6NUR_protein|mol2

> <Gold.PLP.Fitness>
47.9564

> <Gold.PLP.PLP>
-33.5867

> <Gold.PLP.part.hbond>
-4.8838

> <Gold.PLP.part.metal>
0.0000

> <Gold.PLP.part.buried>
-6.4581

> <Gold.PLP.part.nonpolar>
-24.4296

> <Gold.PLP.part.repulsive>
0.4166

> <Gold.PLP.ligand.clash>
0.0000

> <Gold.PLP.ligand.torsion>
1.2809

> <Gold.PLP.Chemscore.Hbond>
4.6269

> <Gold.PLP.Chemscore.CHOScore>
1.0000

> <Gold.PLP.Chemscore.Metal>
0.0000

> <Gold.Chemscore.Hbonds>
donor molecule, donor type, donor heavy atom, donor atom, acceptor molecule, acceptor atom, score
      L1  H     7    27       P1 10175  1.00
      L1  H    10    28       P1 10175  0.84
      L1  H    13    46       P1 10957  1.82
      P1  H  7989  7998       L1     2  0.33
      L1  C    20    45       P1  7948  0.88

> <Gold.PLP.Chemscore.Internal.Correction>
0.0508

> <Gold.Rescore>
     Score         DG    S(hbond)    S(metal)    S(lipo)     H(rot)  DE(clash)    DE(int)     intcor
     16.57     -20.84       3.30        0.00      74.53       1.71       0.33       3.93       ----

> <Gold.Chemscore.Fitness>
16.5733

> <Gold.Chemscore.DG>
-20.8351

> <Gold.Chemscore.ZeroCoef>
-5.4800

> <Gold.Chemscore.Hbond>
3.2976

> <Gold.Chemscore.Metal>
0.0000

> <Gold.Chemscore.Lipo>
74.5347

> <Gold.Chemscore.Internal_Hbond>
0.0000

> <Gold.Chemscore.DEClash>
0.3335

> <Gold.Chemscore.DEInternal>
3.9282

> <Gold.Chemscore.Rot>
1.7107

> <Gold.Chemscore.Internal.Correction>
   9.000000E+99

> <Gold.Chemscore.Hbonds>
donor molecule, donor type, donor heavy atom, donor atom, acceptor molecule, acceptor atom, score
      L1  H     7    27       P1 10175  0.99
      L1  H    10    28       P1 10175  0.79
      L1  H    13    46       P1 10957  0.86
      P1  H  7989  7998       L1     2  0.07

> <Gold.Chemscore.Hbond.Weighted>
-11.0140

> <Gold.Chemscore.Metal.Weighted>
-0.0000

> <Gold.Chemscore.Lipo.Weighted>
-8.7206

> <Gold.Chemscore.Internal_Hbond.Weighted>
0.0000

> <Gold.Chemscore.DEClash.Weighted>
0.3335

> <Gold.Chemscore.DEInternal.Weighted>
3.9282

> <Gold.Chemscore.Rot.Weighted>
4.3794

> <Gold.Chemscore.Internal.Correction.Weighted>
   9.000000E+99

> <Gold.Protein.RotatedTorsions>
[ 6907 6896 6895 6894 ] final  137.76 input  -60.11 | X-H torsion
[ 7974 7965 7964 7962 ] final  -72.23 input  175.53 | X-H torsion
[ 8008 7997 7996 7995 ] final -168.51 input   59.86 | X-H torsion
[ 10167 10162 10161 10158 ] final   82.97 input  -65.29 | X-H torsion
[ 10718 10713 10712 10709 ] final  -12.80 input   66.30 | X-H torsion
[ 10763 10752 10751 10750 ] final  -19.72 input  -60.55 | X-H torsion
[ 11005 11000 10999 10996 ] final   96.68 input  -57.11 | X-H torsion

> <Gold.Protein.ActiveResidues>
 VAL166  LYS551  ARG553  GLY616  TRP617  ASP618  TYR619  PRO620  LYS621  CYS622 
 ASP623  PHE694  ASN695  SER759  ASP760  ASP761  ALA762  ILE779  LEU786  VAL792 
 PHE793  MET794  SER795  GLU796  ALA797  LYS798  CYS799  TRP800  GLU811  SER814 

> <Gold.Protein.RotatedAtoms>
  152.2744  133.5412  159.5458 H   0  0  0  0  0  0  0  0  0  0  0  0  # atno 6907 bound_to 6896
  150.7171  134.0652  159.3854 H   0  0  0  0  0  0  0  0  0  0  0  0  # atno 6908 bound_to 6896
  151.8565  135.0539  160.0515 H   0  0  0  0  0  0  0  0  0  0  0  0  # atno 6909 bound_to 6896
  145.6678  140.9231  143.0899 H   0  0  0  0  0  0  0  0  0  0  0  0  # atno 7974 bound_to 7965
  155.8924  140.1027  157.1409 H   0  0  0  0  0  0  0  0  0  0  0  0  # atno 8008 bound_to 7997
  154.4016  140.1308  156.4397 H   0  0  0  0  0  0  0  0  0  0  0  0  # atno 8009 bound_to 7997
  155.7518  140.3465  155.5156 H   0  0  0  0  0  0  0  0  0  0  0  0  # atno 8010 bound_to 7997
  139.9233  144.6199  150.8418 H   0  0  0  0  0  0  0  0  0  0  0  0  # atno 10167 bound_to 10162
  156.6394  130.4924  149.6100 H   0  0  0  0  0  0  0  0  0  0  0  0  # atno 10718 bound_to 10713
  153.6092  135.6997  153.5353 H   0  0  0  0  0  0  0  0  0  0  0  0  # atno 10763 bound_to 10752
  153.3031  135.4123  155.1269 H   0  0  0  0  0  0  0  0  0  0  0  0  # atno 10764 bound_to 10752
  154.8567  135.3653  154.5630 H   0  0  0  0  0  0  0  0  0  0  0  0  # atno 10765 bound_to 10752
  139.8780  134.8963  156.4195 H   0  0  0  0  0  0  0  0  0  0  0  0  # atno 11005 bound_to 11000
  144.7067  139.8533  143.7428 LP  0  0  0  0  0  0  0  0  0  0  0  0  # atno 17320 bound_to 7965
  146.1071  139.4072  143.0311 LP  0  0  0  0  0  0  0  0  0  0  0  0  # atno 17321 bound_to 7965
  140.7656  143.3281  151.2470 LP  0  0  0  0  0  0  0  0  0  0  0  0  # atno 17342 bound_to 10162
  139.6843  143.9800  152.2826 LP  0  0  0  0  0  0  0  0  0  0  0  0  # atno 17343 bound_to 10162
  156.2171  130.6714  151.1330 LP  0  0  0  0  0  0  0  0  0  0  0  0  # atno 17370 bound_to 10713
  157.7175  131.0701  150.6267 LP  0  0  0  0  0  0  0  0  0  0  0  0  # atno 17371 bound_to 10713
  140.9144  133.7689  155.9830 LP  0  0  0  0  0  0  0  0  0  0  0  0  # atno 17394 bound_to 11000
  140.8510  134.2953  157.5275 LP  0  0  0  0  0  0  0  0  0  0  0  0  # atno 17395 bound_to 11000

$$$$
