AV-unprocessed.smi:913|AV-procd|sdf|4149|dock1
  -GOLD-   22720 2 53D 1   1.00000     0.00000
 Structure written by MMmdl.
 20 20  0  0  0  0  0  0  0  0  3 V2000
  152.1782  145.3244  159.1668 C   0  0  0  0  0  0  0  0  0  0  0  0
  151.9627  143.9298  158.6190 C   0  0  0  0  0  0  0  0  0  0  0  0
  151.1959  143.7673  157.6073 N   0  0  0  0  0  0  0  0  0  0  0  0
  151.0066  142.4705  157.1093 C   0  0  0  0  0  0  0  0  0  0  0  0
  150.1653  142.4395  156.0149 N   0  0  0  0  0  0  0  0  0  0  0  0
  151.6015  141.3806  157.6654 C   0  0  0  0  0  0  0  0  0  0  0  0
  151.4192  139.9659  157.1176 C   0  0  0  0  0  0  0  0  0  0  0  0
  151.8964  139.8136  155.6722 C   0  0  0  0  0  0  0  0  0  0  0  0
  151.0879  140.1232  154.7689 O   0  0  0  0  0  0  0  0  0  0  0  0
  153.0626  139.3992  155.4923 O   0  5  0  0  0  0  0  0  0  0  0  0
  152.4728  141.6150  158.8315 C   0  0  0  0  0  0  0  0  0  0  0  0
  153.0387  140.6731  159.3854 O   0  0  0  0  0  0  0  0  0  0  0  0
  152.6226  142.9033  159.2613 N   0  5  0  0  0  0  0  0  0  0  0  0
  151.6553  146.0691  158.5654 H   0  0  0  0  0  0  0  0  0  0  0  0
  153.2405  145.5705  159.1667 H   0  0  0  0  0  0  0  0  0  0  0  0
  151.8074  145.3889  160.1900 H   0  0  0  0  0  0  0  0  0  0  0  0
  149.7626  143.2961  155.6611 H   0  0  0  0  0  0  0  0  0  0  0  0
  150.1956  141.6669  155.3663 H   0  0  0  0  0  0  0  0  0  0  0  0
  151.9755  139.2738  157.7511 H   0  0  0  0  0  0  0  0  0  0  0  0
  150.3800  139.6431  157.1835 H   0  0  0  0  0  0  0  0  0  0  0  0
  1  2  1  0  0  0  0
  1 14  1  0  0  0  0
  1 15  1  0  0  0  0
  1 16  1  0  0  0  0
  2 13  1  0  0  0  0
  2  3  2  0  0  0  0
  3  4  1  0  0  0  0
  4  5  1  0  0  0  0
  4  6  2  0  0  0  0
  5 17  1  0  0  0  0
  5 18  1  0  0  0  0
  6  7  1  0  0  0  0
  6 11  1  0  0  0  0
  7  8  1  0  0  0  0
  7 19  1  0  0  0  0
  7 20  1  0  0  0  0
  8  9  2  0  0  0  0
  8 10  1  0  0  0  0
 11 12  2  0  0  0  0
 11 13  1  0  0  0  0
M  CHG  1  10  -1
M  CHG  1  13  -1
M  END
> <s_m_source_file>
AV-unprocessed.smi

> <i_m_source_file_index>
913

> <i_lp_mmshare_version>
43012

> <i_f3d_flags>
0

> <s_epik_input>
W0NIM11jMW5jKFtOSDJdKWMoYyg9TylbbkhdMSlbQ0gyXUMoPU8pW09IXQ==

> <s_epik_cmdline>
J2VwaWtfcHl0aG9uJywgJy1waCcsICc3LjAnLCAnLXRuJywgJzgnLCAnLW1hJywgJzIwMCcsICctbWV0YWxfYmluZGluZycsICctaW1hZScsICc8aW5maWxlLm1hZT4nLCAnLW9tYWUnLCAnPG91dGZpbGUubWFlPic=

> <r_lp_tautomer_probability>
0.994035

> <r_epik_Ionization_Penalty>
6.8797

> <r_epik_Ionization_Penalty_Charging>
0.00156716

> <r_epik_Ionization_Penalty_Neutral>
6.87813

> <r_epik_State_Penalty>
4.11317

> <r_epik_Charging_Adjusted_Penalty>
4.11474

> <i_epik_Tot_Q>
-2

> <i_epik_Tot_abs_Q>
2

> <r_epik_Metal_State_Penalty>
0.657697

> <b_epik_Metal_Only>
1

> <s_lp_Force_Field>
OPLS_2005

> <r_lp_Energy>
14.3997

> <b_lp_Chiralities_Consistent>
1

> <s_lp_Variant>
AV-unprocessed.smi:913-2

> <Gold.Version>
5.8.1

> <Gold.Id.Protein>
6NUR|6NUR_protein|mol2

> <Gold.PLP.Fitness>
38.2945

> <Gold.PLP.PLP>
-26.9984

> <Gold.PLP.part.hbond>
-3.0000

> <Gold.PLP.part.metal>
0.0000

> <Gold.PLP.part.buried>
-6.1559

> <Gold.PLP.part.nonpolar>
-18.0887

> <Gold.PLP.part.repulsive>
0.3611

> <Gold.PLP.ligand.clash>
0.0000

> <Gold.PLP.ligand.torsion>
0.3525

> <Gold.PLP.Chemscore.Hbond>
4.0000

> <Gold.PLP.Chemscore.CHOScore>
0.0000

> <Gold.PLP.Chemscore.Metal>
0.0000

> <Gold.Chemscore.Hbonds>
donor molecule, donor type, donor heavy atom, donor atom, acceptor molecule, acceptor atom, score
      L1  H     5    17       P1  8028  1.00
      P1  H  7989  7998       L1     9  1.00
      P1  H  7997  8010       L1    10  2.00

> <Gold.PLP.Chemscore.Internal.Correction>
0.0010

> <Gold.Rescore>
     Score         DG    S(hbond)    S(metal)    S(lipo)     H(rot)  DE(clash)    DE(int)     intcor
     13.59     -14.02       2.99        0.00      24.07       1.67       0.00       0.42       ----

> <Gold.Chemscore.Fitness>
13.5937

> <Gold.Chemscore.DG>
-14.0178

> <Gold.Chemscore.ZeroCoef>
-5.4800

> <Gold.Chemscore.Hbond>
2.9916

> <Gold.Chemscore.Metal>
0.0000

> <Gold.Chemscore.Lipo>
24.0705

> <Gold.Chemscore.Internal_Hbond>
0.0000

> <Gold.Chemscore.DEClash>
0.0000

> <Gold.Chemscore.DEInternal>
0.4241

> <Gold.Chemscore.Rot>
1.6681

> <Gold.Chemscore.Internal.Correction>
   9.000000E+99

> <Gold.Chemscore.Hbonds>
donor molecule, donor type, donor heavy atom, donor atom, acceptor molecule, acceptor atom, score
      L1  H     5    17       P1  8028  0.99
      P1  H  7989  7998       L1     9  0.93
      P1  H  7997  8010       L1    10  0.99

> <Gold.Chemscore.Hbond.Weighted>
-9.9918

> <Gold.Chemscore.Metal.Weighted>
-0.0000

> <Gold.Chemscore.Lipo.Weighted>
-2.8163

> <Gold.Chemscore.Internal_Hbond.Weighted>
0.0000

> <Gold.Chemscore.DEClash.Weighted>
0.0000

> <Gold.Chemscore.DEInternal.Weighted>
0.4241

> <Gold.Chemscore.Rot.Weighted>
4.2703

> <Gold.Chemscore.Internal.Correction.Weighted>
   9.000000E+99

> <Gold.Protein.RotatedTorsions>
[ 6907 6896 6895 6894 ] final  -83.61 input  -60.11 | X-H torsion
[ 7974 7965 7964 7962 ] final   18.86 input  175.53 | X-H torsion
[ 8008 7997 7996 7995 ] final  105.61 input   59.86 | X-H torsion
[ 10167 10162 10161 10158 ] final  -60.40 input  -65.29 | X-H torsion
[ 10718 10713 10712 10709 ] final  160.72 input   66.30 | X-H torsion
[ 10763 10752 10751 10750 ] final  -21.27 input  -60.55 | X-H torsion
[ 11005 11000 10999 10996 ] final  101.06 input  -57.11 | X-H torsion

> <Gold.Protein.ActiveResidues>
 VAL166  LYS551  ARG553  GLY616  TRP617  ASP618  TYR619  PRO620  LYS621  CYS622 
 ASP623  PHE694  ASN695  SER759  ASP760  ASP761  ALA762  ILE779  LEU786  VAL792 
 PHE793  MET794  SER795  GLU796  ALA797  LYS798  CYS799  TRP800  GLU811  SER814 

> <Gold.Protein.RotatedAtoms>
  150.6884  134.3485  159.4898 H   0  0  0  0  0  0  0  0  0  0  0  0  # atno 6907 bound_to 6896
  152.1329  134.9118  160.0567 H   0  0  0  0  0  0  0  0  0  0  0  0  # atno 6908 bound_to 6896
  152.0281  133.3891  159.4323 H   0  0  0  0  0  0  0  0  0  0  0  0  # atno 6909 bound_to 6896
  146.2170  139.8396  142.8644 H   0  0  0  0  0  0  0  0  0  0  0  0  # atno 7974 bound_to 7965
  156.1673  140.3127  155.8912 H   0  0  0  0  0  0  0  0  0  0  0  0  # atno 8008 bound_to 7997
  155.3659  140.0479  157.3063 H   0  0  0  0  0  0  0  0  0  0  0  0  # atno 8009 bound_to 7997
  154.5205  140.2196  155.8995 H   0  0  0  0  0  0  0  0  0  0  0  0  # atno 8010 bound_to 7997
  140.6074  143.2377  151.5790 H   0  0  0  0  0  0  0  0  0  0  0  0  # atno 10167 bound_to 10162
  157.1465  131.0553  151.2301 H   0  0  0  0  0  0  0  0  0  0  0  0  # atno 10718 bound_to 10713
  153.6335  135.6988  153.5267 H   0  0  0  0  0  0  0  0  0  0  0  0  # atno 10763 bound_to 10752
  153.2840  135.4177  155.1105 H   0  0  0  0  0  0  0  0  0  0  0  0  # atno 10764 bound_to 10752
  154.8516  135.3609  154.5878 H   0  0  0  0  0  0  0  0  0  0  0  0  # atno 10765 bound_to 10752
  139.8772  134.9167  156.4850 H   0  0  0  0  0  0  0  0  0  0  0  0  # atno 11005 bound_to 11000
  145.2913  141.0168  143.3661 LP  0  0  0  0  0  0  0  0  0  0  0  0  # atno 17320 bound_to 7965
  144.9075  139.4570  143.6603 LP  0  0  0  0  0  0  0  0  0  0  0  0  # atno 17321 bound_to 7965
  139.5335  144.2848  152.1200 LP  0  0  0  0  0  0  0  0  0  0  0  0  # atno 17342 bound_to 10162
  140.2040  144.4629  150.6417 LP  0  0  0  0  0  0  0  0  0  0  0  0  # atno 17343 bound_to 10162
  157.4259  130.7463  149.6951 LP  0  0  0  0  0  0  0  0  0  0  0  0  # atno 17370 bound_to 10713
  155.9778  130.4058  150.3686 LP  0  0  0  0  0  0  0  0  0  0  0  0  # atno 17371 bound_to 10713
  140.8699  133.7996  155.9354 LP  0  0  0  0  0  0  0  0  0  0  0  0  # atno 17394 bound_to 11000
  140.8963  134.2434  157.5067 LP  0  0  0  0  0  0  0  0  0  0  0  0  # atno 17395 bound_to 11000

$$$$
