AV-unprocessed.smi:44|AV-procd|sdf|400|dock5
  -GOLD-   2262016253D 1   1.00000     0.00000
 Structure written by MMmdl.
 29 31  0  0  0  0  0  0  0  0  3 V2000
  152.0848  137.4603  154.7765 O   0  0  0  0  0  0  0  0  0  0  0  0
  151.5405  138.5484  154.9521 C   0  0  0  0  0  0  0  0  0  0  0  0
  150.6897  139.2131  154.1055 N   0  5  0  0  0  0  0  0  0  0  0  0
  150.1450  140.4490  154.4368 C   0  0  0  0  0  0  0  0  0  0  0  0
  150.3358  141.1238  155.5148 N   0  0  0  0  0  0  0  0  0  0  0  0
  151.1945  140.5234  156.4477 C   0  0  0  0  0  0  0  0  0  0  0  0
  151.7894  139.3035  156.2247 C   0  0  0  0  0  0  0  0  0  0  0  0
  152.5708  138.9701  157.2984 N   0  3  0  0  0  0  0  0  0  0  0  0
  152.4145  140.0045  158.1247 C   0  0  0  0  0  0  0  0  0  0  0  0
  151.5881  140.9954  157.6742 N   0  0  0  0  0  0  0  0  0  0  0  0
  151.2263  142.2620  158.3758 C   0  0  2  0  0  0  0  0  0  0  0  0
  152.1180  143.4120  157.8933 C   0  0  0  0  0  0  0  0  0  0  0  0
  152.4387  144.1149  159.1940 C   0  0  0  0  0  0  0  0  0  0  0  0
  152.5311  142.9337  160.1582 C   0  0  1  0  0  0  0  0  0  0  0  0
  152.3725  143.3051  161.6391 C   0  0  0  0  0  0  0  0  0  0  0  0
  151.0528  143.7366  161.8925 O   0  0  0  0  0  0  0  0  0  0  0  0
  151.4584  142.0936  159.7447 O   0  0  0  0  0  0  0  0  0  0  0  0
  153.1314  138.1385  157.4332 H   0  0  0  0  0  0  0  0  0  0  0  0
  150.1633  142.4112  158.1820 H   0  0  0  0  0  0  0  0  0  0  0  0
  153.4680  142.3963  160.0009 H   0  0  0  0  0  0  0  0  0  0  0  0
  149.4917  140.8310  153.6483 H   0  0  0  0  0  0  0  0  0  0  0  0
  152.9034  140.0584  159.0802 H   0  0  0  0  0  0  0  0  0  0  0  0
  153.0293  143.0231  157.4358 H   0  0  0  0  0  0  0  0  0  0  0  0
  151.5957  144.0399  157.1710 H   0  0  0  0  0  0  0  0  0  0  0  0
  153.3574  144.7001  159.1471 H   0  0  0  0  0  0  0  0  0  0  0  0
  151.6207  144.7805  159.4743 H   0  0  0  0  0  0  0  0  0  0  0  0
  152.6126  142.4594  162.2841 H   0  0  0  0  0  0  0  0  0  0  0  0
  153.0552  144.1146  161.8986 H   0  0  0  0  0  0  0  0  0  0  0  0
  151.0622  144.3047  162.6477 H   0  0  0  0  0  0  0  0  0  0  0  0
  1  2  2  0  0  0  0
  2  7  1  0  0  0  0
  2  3  1  0  0  0  0
  3  4  1  0  0  0  0
  4 21  1  0  0  0  0
  4  5  2  0  0  0  0
  5  6  1  0  0  0  0
  6 10  1  0  0  0  0
  6  7  2  0  0  0  0
  7  8  1  0  0  0  0
  8  9  2  0  0  0  0
  8 18  1  0  0  0  0
  9 10  1  0  0  0  0
  9 22  1  0  0  0  0
 10 11  1  0  0  0  0
 11 19  1  0  0  0  0
 11 17  1  0  0  0  0
 11 12  1  0  0  0  0
 12 13  1  0  0  0  0
 12 23  1  0  0  0  0
 12 24  1  0  0  0  0
 13 14  1  0  0  0  0
 13 25  1  0  0  0  0
 13 26  1  0  0  0  0
 14 20  1  0  0  0  0
 14 15  1  0  0  0  0
 14 17  1  0  0  0  0
 15 16  1  0  0  0  0
 15 27  1  0  0  0  0
 15 28  1  0  0  0  0
 16 29  1  0  0  0  0
M  CHG  1   3  -1
M  CHG  1   8   1
M  END
> <s_m_source_file>
AV-unprocessed.smi

> <i_m_source_file_index>
44

> <i_lp_mmshare_version>
43012

> <i_f3d_flags>
0

> <s_epik_input>
bjFbY0hdW25IXWMoPU8pYyhjMTIpbltjSF1uMltDQEhdM1tDSDJdW0NIMl1bQ0BIXShPMylbQ0gyXVtPSF0=

> <s_epik_cmdline>
J2VwaWtfcHl0aG9uJywgJy1waCcsICc3LjAnLCAnLXRuJywgJzgnLCAnLW1hJywgJzIwMCcsICctbWV0YWxfYmluZGluZycsICctaW1hZScsICc8aW5maWxlLm1hZT4nLCAnLW9tYWUnLCAnPG91dGZpbGUubWFlPic=

> <r_lp_tautomer_probability>
0.144281

> <r_epik_Ionization_Penalty>
5.63685

> <r_epik_Ionization_Penalty_Charging>
5.58669

> <r_epik_Ionization_Penalty_Neutral>
0.0501585

> <r_epik_State_Penalty>
1.20809

> <r_epik_Charging_Adjusted_Penalty>
6.79478

> <i_epik_Tot_Q>
0

> <i_epik_Tot_abs_Q>
2

> <r_epik_Metal_State_Penalty>
1.52487

> <b_epik_Metal_Only>
0

> <s_epik_Chemistry_Notes>
This compound contains an acetal/aminal-like group ( X-CH(R)-Y where X, Y are N, S, or O) that may be acid/base labile, releasing an aldehyde.

> <s_lp_Force_Field>
OPLS_2005

> <r_lp_Energy>
45.8443

> <b_lp_Chiralities_Consistent>
1

> <s_lp_Variant>
AV-unprocessed.smi:44-6

> <Gold.Version>
5.8.1

> <Gold.Id.Protein>
6NUR|6NUR_protein|mol2

> <Gold.PLP.Fitness>
39.8969

> <Gold.PLP.PLP>
-36.0827

> <Gold.PLP.part.hbond>
-5.9079

> <Gold.PLP.part.metal>
0.0000

> <Gold.PLP.part.buried>
-2.0273

> <Gold.PLP.part.nonpolar>
-28.4913

> <Gold.PLP.part.repulsive>
0.4685

> <Gold.PLP.ligand.clash>
0.0000

> <Gold.PLP.ligand.torsion>
0.6833

> <Gold.PLP.Chemscore.Hbond>
1.0161

> <Gold.PLP.Chemscore.CHOScore>
0.7073

> <Gold.PLP.Chemscore.Metal>
0.0000

> <Gold.Chemscore.Hbonds>
donor molecule, donor type, donor heavy atom, donor atom, acceptor molecule, acceptor atom, score
      P1  H  6933  6945       L1    16  0.21
      P1  H 10752 10763       L1     1  0.79
      L1  C     4    21       P1  7957  0.70

> <Gold.PLP.Chemscore.Internal.Correction>
0.0106

> <Gold.Rescore>
     Score         DG    S(hbond)    S(metal)    S(lipo)     H(rot)  DE(clash)    DE(int)     intcor
      9.57     -11.66       1.81        0.00      50.92       2.27       1.42       0.67       ----

> <Gold.Chemscore.Fitness>
9.5733

> <Gold.Chemscore.DG>
-11.6588

> <Gold.Chemscore.ZeroCoef>
-5.4800

> <Gold.Chemscore.Hbond>
1.8075

> <Gold.Chemscore.Metal>
0.0000

> <Gold.Chemscore.Lipo>
50.9239

> <Gold.Chemscore.Internal_Hbond>
0.0000

> <Gold.Chemscore.DEClash>
1.4168

> <Gold.Chemscore.DEInternal>
0.6687

> <Gold.Chemscore.Rot>
2.2720

> <Gold.Chemscore.Internal.Correction>
   9.000000E+99

> <Gold.Chemscore.Hbonds>
donor molecule, donor type, donor heavy atom, donor atom, acceptor molecule, acceptor atom, score
      P1  H  6933  6945       L1    16  0.06
      P1  H 10752 10763       L1     1  0.73

> <Gold.Chemscore.Hbond.Weighted>
-6.0371

> <Gold.Chemscore.Metal.Weighted>
-0.0000

> <Gold.Chemscore.Lipo.Weighted>
-5.9581

> <Gold.Chemscore.Internal_Hbond.Weighted>
0.0000

> <Gold.Chemscore.DEClash.Weighted>
1.4168

> <Gold.Chemscore.DEInternal.Weighted>
0.6687

> <Gold.Chemscore.Rot.Weighted>
5.8164

> <Gold.Chemscore.Internal.Correction.Weighted>
   9.000000E+99

> <Gold.Protein.RotatedTorsions>
[ 6907 6896 6895 6894 ] final   26.94 input  -60.11 | X-H torsion
[ 7974 7965 7964 7962 ] final   76.45 input  175.53 | X-H torsion
[ 8008 7997 7996 7995 ] final -104.96 input   59.86 | X-H torsion
[ 10167 10162 10161 10158 ] final   67.40 input  -65.29 | X-H torsion
[ 10718 10713 10712 10709 ] final  -81.86 input   66.30 | X-H torsion
[ 10763 10752 10751 10750 ] final   45.68 input  -60.55 | X-H torsion
[ 11005 11000 10999 10996 ] final   50.80 input  -57.11 | X-H torsion

> <Gold.Protein.ActiveResidues>
 VAL166  LYS551  ARG553  GLY616  TRP617  ASP618  TYR619  PRO620  LYS621  CYS622 
 ASP623  PHE694  ASN695  SER759  ASP760  ASP761  ALA762  ILE779  LEU786  VAL792 
 PHE793  MET794  SER795  GLU796  ALA797  LYS798  CYS799  TRP800  GLU811  SER814 

> <Gold.Protein.RotatedAtoms>
  151.9949  134.9959  160.0562 H   0  0  0  0  0  0  0  0  0  0  0  0  # atno 6907 bound_to 6896
  152.1573  133.4555  159.4851 H   0  0  0  0  0  0  0  0  0  0  0  0  # atno 6908 bound_to 6896
  150.6883  134.2033  159.4373 H   0  0  0  0  0  0  0  0  0  0  0  0  # atno 6909 bound_to 6896
  145.7027  139.2588  143.1696 H   0  0  0  0  0  0  0  0  0  0  0  0  # atno 7974 bound_to 7965
  154.8928  140.0415  157.1848 H   0  0  0  0  0  0  0  0  0  0  0  0  # atno 8008 bound_to 7997
  154.8523  140.2931  155.5569 H   0  0  0  0  0  0  0  0  0  0  0  0  # atno 8009 bound_to 7997
  156.2996  140.2462  156.3484 H   0  0  0  0  0  0  0  0  0  0  0  0  # atno 8010 bound_to 7997
  140.0900  144.4997  150.7105 H   0  0  0  0  0  0  0  0  0  0  0  0  # atno 10167 bound_to 10162
  156.0043  130.4617  150.4017 H   0  0  0  0  0  0  0  0  0  0  0  0  # atno 10718 bound_to 10713
  152.9821  135.6032  154.3476 H   0  0  0  0  0  0  0  0  0  0  0  0  # atno 10763 bound_to 10752
  154.3168  135.2770  155.2541 H   0  0  0  0  0  0  0  0  0  0  0  0  # atno 10764 bound_to 10752
  154.4726  135.5938  153.6388 H   0  0  0  0  0  0  0  0  0  0  0  0  # atno 10765 bound_to 10752
  140.0987  134.5111  155.8783 H   0  0  0  0  0  0  0  0  0  0  0  0  # atno 11005 bound_to 11000
  146.0783  140.7792  142.9654 LP  0  0  0  0  0  0  0  0  0  0  0  0  # atno 17320 bound_to 7965
  144.6964  140.3449  143.7192 LP  0  0  0  0  0  0  0  0  0  0  0  0  # atno 17321 bound_to 7965
  140.7034  143.2450  151.4799 LP  0  0  0  0  0  0  0  0  0  0  0  0  # atno 17342 bound_to 10162
  139.5730  144.1883  152.1864 LP  0  0  0  0  0  0  0  0  0  0  0  0  # atno 17343 bound_to 10162
  157.2086  131.0455  151.2611 LP  0  0  0  0  0  0  0  0  0  0  0  0  # atno 17370 bound_to 10713
  157.3910  130.7282  149.6697 LP  0  0  0  0  0  0  0  0  0  0  0  0  # atno 17371 bound_to 10713
  141.2099  133.6689  156.6474 LP  0  0  0  0  0  0  0  0  0  0  0  0  # atno 17394 bound_to 11000
  140.3251  134.7976  157.4282 LP  0  0  0  0  0  0  0  0  0  0  0  0  # atno 17395 bound_to 11000

$$$$
