AV-unprocessed.smi:2014|AV-procd|sdf|8161|dock1
  -GOLD-   2272010403D 1   1.00000     0.00000
 Structure written by MMmdl.
 46 48  0  0  0  0  0  0  0  0  1 V2000
  150.5426  142.0527  156.3419 C   0  0  0  0  0  0  0  0  0  0  0  0
  149.7792  141.3403  155.2164 C   0  0  2  0  0  0  0  0  0  0  0  0
  148.3019  141.7755  155.1750 C   0  0  0  0  0  0  0  0  0  0  0  0
  147.5313  141.0626  154.0524 C   0  0  0  0  0  0  0  0  0  0  0  0
  147.6421  139.5295  154.1759 C   0  0  1  0  0  0  0  0  0  0  0  0
  146.9707  138.8759  153.0568 N   0  0  0  0  0  0  0  0  0  0  0  0
  145.9575  138.0028  153.1624 C   0  0  0  0  0  0  0  0  0  0  0  0
  145.4887  137.6408  154.2429 O   0  0  0  0  0  0  0  0  0  0  0  0
  145.4000  137.4640  151.8361 C   0  0  0  0  0  0  0  0  0  0  0  0
  144.5829  136.2406  151.9935 N   0  0  0  0  0  0  0  0  0  0  0  0
  143.2955  136.3578  152.5773 C   0  0  0  0  0  0  0  0  0  0  0  0
  142.8520  137.4552  152.9208 O   0  0  0  0  0  0  0  0  0  0  0  0
  142.5650  135.1040  152.7471 C   0  0  0  0  0  0  0  0  0  0  0  0
  141.2823  135.1765  153.3643 C   0  0  0  0  0  0  0  0  0  0  0  0
  140.2302  135.2370  153.8431 N   0  0  0  0  0  0  0  0  0  0  0  0
  143.0935  133.9316  152.3402 C   0  0  0  0  0  0  0  0  0  0  0  0
  144.3293  133.8449  151.7373 N   0  0  0  0  0  0  0  0  0  0  0  0
  144.9349  132.5747  151.4522 C   0  0  0  0  0  0  0  0  0  0  0  0
  145.5240  132.2967  150.0826 C   0  0  0  0  0  0  0  0  0  0  0  0
  144.2374  131.6275  150.5003 C   0  0  0  0  0  0  0  0  0  0  0  0
  145.1336  134.9974  151.5986 C   0  0  0  0  0  0  0  0  0  0  0  0
  146.2832  134.9239  151.1574 O   0  0  0  0  0  0  0  0  0  0  0  0
  149.1182  139.0936  154.2195 C   0  0  0  0  0  0  0  0  0  0  0  0
  149.8830  139.8084  155.3454 C   0  0  0  0  0  0  0  0  0  0  0  0
  150.1266  141.8088  157.3202 H   0  0  0  0  0  0  0  0  0  0  0  0
  150.4977  143.1355  156.2218 H   0  0  0  0  0  0  0  0  0  0  0  0
  151.5948  141.7654  156.3456 H   0  0  0  0  0  0  0  0  0  0  0  0
  150.2420  141.6300  154.2717 H   0  0  0  0  0  0  0  0  0  0  0  0
  147.8266  141.5594  156.1329 H   0  0  0  0  0  0  0  0  0  0  0  0
  148.2342  142.8549  155.0343 H   0  0  0  0  0  0  0  0  0  0  0  0
  146.4847  141.3686  154.0799 H   0  0  0  0  0  0  0  0  0  0  0  0
  147.9209  141.3855  153.0856 H   0  0  0  0  0  0  0  0  0  0  0  0
  147.1689  139.2148  155.1082 H   0  0  0  0  0  0  0  0  0  0  0  0
  147.2950  139.1140  152.1307 H   0  0  0  0  0  0  0  0  0  0  0  0
  144.8193  138.2516  151.3530 H   0  0  0  0  0  0  0  0  0  0  0  0
  146.2364  137.2985  151.1556 H   0  0  0  0  0  0  0  0  0  0  0  0
  142.5259  133.0238  152.4872 H   0  0  0  0  0  0  0  0  0  0  0  0
  145.4486  132.1081  152.2910 H   0  0  0  0  0  0  0  0  0  0  0  0
  145.4549  133.0736  149.3234 H   0  0  0  0  0  0  0  0  0  0  0  0
  146.4205  131.6819  150.0388 H   0  0  0  0  0  0  0  0  0  0  0  0
  144.2759  130.5651  150.7319 H   0  0  0  0  0  0  0  0  0  0  0  0
  143.3221  131.9660  150.0185 H   0  0  0  0  0  0  0  0  0  0  0  0
  149.1854  138.0138  154.3590 H   0  0  0  0  0  0  0  0  0  0  0  0
  149.5974  139.3119  153.2638 H   0  0  0  0  0  0  0  0  0  0  0  0
  150.9293  139.5018  155.3260 H   0  0  0  0  0  0  0  0  0  0  0  0
  149.4867  139.4910  156.3110 H   0  0  0  0  0  0  0  0  0  0  0  0
  1  2  1  0  0  0  0
  1 25  1  0  0  0  0
  1 26  1  0  0  0  0
  1 27  1  0  0  0  0
  2 24  1  0  0  0  0
  2  3  1  0  0  0  0
  2 28  1  0  0  0  0
  3  4  1  0  0  0  0
  3 29  1  0  0  0  0
  3 30  1  0  0  0  0
  4  5  1  0  0  0  0
  4 31  1  0  0  0  0
  4 32  1  0  0  0  0
  5  6  1  0  0  0  0
  5 23  1  0  0  0  0
  5 33  1  0  0  0  0
  6  7  1  0  0  0  0
  6 34  1  0  0  0  0
  7  8  2  0  0  0  0
  7  9  1  0  0  0  0
  9 10  1  0  0  0  0
  9 35  1  0  0  0  0
  9 36  1  0  0  0  0
 10 21  1  0  0  0  0
 10 11  1  0  0  0  0
 11 12  2  0  0  0  0
 11 13  1  0  0  0  0
 13 14  1  0  0  0  0
 13 16  2  0  0  0  0
 14 15  3  0  0  0  0
 16 17  1  0  0  0  0
 16 37  1  0  0  0  0
 17 18  1  0  0  0  0
 17 21  1  0  0  0  0
 18 20  1  0  0  0  0
 18 19  1  0  0  0  0
 18 38  1  0  0  0  0
 19 20  1  0  0  0  0
 19 39  1  0  0  0  0
 19 40  1  0  0  0  0
 20 41  1  0  0  0  0
 20 42  1  0  0  0  0
 21 22  2  0  0  0  0
 23 24  1  0  0  0  0
 23 43  1  0  0  0  0
 23 44  1  0  0  0  0
 24 45  1  0  0  0  0
 24 46  1  0  0  0  0
M  END
> <s_m_source_file>
AV-unprocessed.smi

> <i_m_source_file_index>
2014

> <i_lp_mmshare_version>
43012

> <i_f3d_flags>
0

> <s_epik_input>
W0NIM11bQ0BASF0xW0NIMl1bQ0gyXVtDQEhdKFtDSDJdW0NIMl0xKVtOSF1DKD1PKVtDSDJdbjJjKD1PKWMoQyNOKVtjSF1uKGMyPU8pW0NIXTNbQ0gyXVtDSDJdMw==

> <s_epik_cmdline>
J2VwaWtfcHl0aG9uJywgJy1waCcsICc3LjAnLCAnLXRuJywgJzgnLCAnLW1hJywgJzIwMCcsICctbWV0YWxfYmluZGluZycsICctaW1hZScsICc8aW5maWxlLm1hZT4nLCAnLW9tYWUnLCAnPG91dGZpbGUubWFlPic=

> <r_lp_tautomer_probability>
1

> <r_epik_Ionization_Penalty>
1.91358e-08

> <r_epik_Ionization_Penalty_Charging>
8.89021e-11

> <r_epik_Ionization_Penalty_Neutral>
1.90469e-08

> <r_epik_State_Penalty>
-0

> <r_epik_Charging_Adjusted_Penalty>
8.89021e-11

> <i_epik_Tot_Q>
0

> <i_epik_Tot_abs_Q>
0

> <r_epik_Metal_State_Penalty>
-0

> <b_epik_Metal_Only>
0

> <s_lp_Force_Field>
OPLS_2005

> <r_lp_Energy>
34.0792

> <b_lp_Chiralities_Consistent>
1

> <s_lp_Variant>
AV-unprocessed.smi:2014-1

> <Gold.Version>
5.8.1

> <Gold.Id.Protein>
6NUR|6NUR_protein|mol2

> <Gold.PLP.Fitness>
46.0100

> <Gold.PLP.PLP>
-41.5882

> <Gold.PLP.part.hbond>
-2.0000

> <Gold.PLP.part.metal>
0.0000

> <Gold.PLP.part.buried>
-1.6366

> <Gold.PLP.part.nonpolar>
-38.6365

> <Gold.PLP.part.repulsive>
1.3874

> <Gold.PLP.ligand.clash>
0.0000

> <Gold.PLP.ligand.torsion>
0.4895

> <Gold.PLP.Chemscore.Hbond>
1.0000

> <Gold.PLP.Chemscore.CHOScore>
0.7294

> <Gold.PLP.Chemscore.Metal>
0.0000

> <Gold.Chemscore.Hbonds>
donor molecule, donor type, donor heavy atom, donor atom, acceptor molecule, acceptor atom, score
      P1  H 11000 11005       L1    15  0.80
      L1  C    16    37       P1 10957  0.65

> <Gold.PLP.Chemscore.Internal.Correction>
0.2126

> <Gold.Rescore>
     Score         DG    S(hbond)    S(metal)    S(lipo)     H(rot)  DE(clash)    DE(int)     intcor
     12.34     -14.57       0.98        0.00      87.10       1.70       0.47       1.75       ----

> <Gold.Chemscore.Fitness>
12.3447

> <Gold.Chemscore.DG>
-14.5674

> <Gold.Chemscore.ZeroCoef>
-5.4800

> <Gold.Chemscore.Hbond>
0.9757

> <Gold.Chemscore.Metal>
0.0000

> <Gold.Chemscore.Lipo>
87.0968

> <Gold.Chemscore.Internal_Hbond>
0.0000

> <Gold.Chemscore.DEClash>
0.4697

> <Gold.Chemscore.DEInternal>
1.7530

> <Gold.Chemscore.Rot>
1.7038

> <Gold.Chemscore.Internal.Correction>
   9.000000E+99

> <Gold.Chemscore.Hbonds>
donor molecule, donor type, donor heavy atom, donor atom, acceptor molecule, acceptor atom, score
      P1  H 11000 11005       L1    15  0.72

> <Gold.Chemscore.Hbond.Weighted>
-3.2589

> <Gold.Chemscore.Metal.Weighted>
-0.0000

> <Gold.Chemscore.Lipo.Weighted>
-10.1903

> <Gold.Chemscore.Internal_Hbond.Weighted>
0.0000

> <Gold.Chemscore.DEClash.Weighted>
0.4697

> <Gold.Chemscore.DEInternal.Weighted>
1.7530

> <Gold.Chemscore.Rot.Weighted>
4.3618

> <Gold.Chemscore.Internal.Correction.Weighted>
   9.000000E+99

> <Gold.Protein.RotatedTorsions>
[ 6907 6896 6895 6894 ] final   56.75 input  -60.11 | X-H torsion
[ 7974 7965 7964 7962 ] final -121.24 input  175.53 | X-H torsion
[ 8008 7997 7996 7995 ] final  170.78 input   59.86 | X-H torsion
[ 10167 10162 10161 10158 ] final   75.49 input  -65.29 | X-H torsion
[ 10718 10713 10712 10709 ] final  170.45 input   66.30 | X-H torsion
[ 10763 10752 10751 10750 ] final -146.56 input  -60.55 | X-H torsion
[ 11005 11000 10999 10996 ] final   54.88 input  -57.11 | X-H torsion

> <Gold.Protein.ActiveResidues>
 VAL166  LYS551  ARG553  GLY616  TRP617  ASP618  TYR619  PRO620  LYS621  CYS622 
 ASP623  PHE694  ASN695  SER759  ASP760  ASP761  ALA762  ILE779  LEU786  VAL792 
 PHE793  MET794  SER795  GLU796  ALA797  LYS798  CYS799  TRP800  GLU811  SER814 

> <Gold.Protein.RotatedAtoms>
  152.3666  134.6795  160.0189 H   0  0  0  0  0  0  0  0  0  0  0  0  # atno 6907 bound_to 6896
  151.7101  133.3307  159.3296 H   0  0  0  0  0  0  0  0  0  0  0  0  # atno 6908 bound_to 6896
  150.7643  134.6474  159.6314 H   0  0  0  0  0  0  0  0  0  0  0  0  # atno 6909 bound_to 6896
  145.0425  140.8155  143.4258 H   0  0  0  0  0  0  0  0  0  0  0  0  # atno 7974 bound_to 7965
  156.1333  140.1529  156.9032 H   0  0  0  0  0  0  0  0  0  0  0  0  # atno 8008 bound_to 7997
  154.4927  140.0847  156.7669 H   0  0  0  0  0  0  0  0  0  0  0  0  # atno 8009 bound_to 7997
  155.4215  140.3423  155.4274 H   0  0  0  0  0  0  0  0  0  0  0  0  # atno 8010 bound_to 7997
  140.0024  144.5676  150.7726 H   0  0  0  0  0  0  0  0  0  0  0  0  # atno 10167 bound_to 10162
  157.0079  131.0195  151.2811 H   0  0  0  0  0  0  0  0  0  0  0  0  # atno 10718 bound_to 10713
  154.8330  135.3383  154.6681 H   0  0  0  0  0  0  0  0  0  0  0  0  # atno 10763 bound_to 10752
  153.7299  135.6953  153.4996 H   0  0  0  0  0  0  0  0  0  0  0  0  # atno 10764 bound_to 10752
  153.2320  135.4413  155.0557 H   0  0  0  0  0  0  0  0  0  0  0  0  # atno 10765 bound_to 10752
  140.0651  134.5548  155.9108 H   0  0  0  0  0  0  0  0  0  0  0  0  # atno 11005 bound_to 11000
  145.1630  139.2447  143.5382 LP  0  0  0  0  0  0  0  0  0  0  0  0  # atno 17320 bound_to 7965
  146.3510  140.1362  142.8596 LP  0  0  0  0  0  0  0  0  0  0  0  0  # atno 17321 bound_to 7965
  140.7413  143.2817  151.3580 LP  0  0  0  0  0  0  0  0  0  0  0  0  # atno 17342 bound_to 10162
  139.6262  144.0809  152.2436 LP  0  0  0  0  0  0  0  0  0  0  0  0  # atno 17343 bound_to 10162
  157.5342  130.8078  149.7952 LP  0  0  0  0  0  0  0  0  0  0  0  0  # atno 17370 bound_to 10713
  156.0147  130.3818  150.2151 LP  0  0  0  0  0  0  0  0  0  0  0  0  # atno 17371 bound_to 10713
  141.1989  133.6604  156.5817 LP  0  0  0  0  0  0  0  0  0  0  0  0  # atno 17394 bound_to 11000
  140.3711  134.7604  157.4599 LP  0  0  0  0  0  0  0  0  0  0  0  0  # atno 17395 bound_to 11000

$$$$
