AV-unprocessed.smi:1077|AV-procd|sdf|4701|dock10
  -GOLD-   22720 3223D 1   1.00000     0.00000
 Structure written by MMmdl.
 42 43  0  0  0  0  0  0  0  0  1 V2000
  151.3932  141.5559  158.7161 C   0  0  0  0  0  0  0  0  0  0  0  0
  151.2429  142.2474  157.3525 C   0  0  0  0  0  0  0  0  0  0  0  0
  150.6599  141.3948  156.3491 N   0  0  0  0  0  0  0  0  0  0  0  0
  149.4379  141.6788  155.7757 C   0  0  0  0  0  0  0  0  0  0  0  0
  148.8742  140.8885  154.8393 C   0  0  0  0  0  0  0  0  0  0  0  0
  147.6119  141.1994  154.2545 C   0  0  0  0  0  0  0  0  0  0  0  0
  146.5851  141.4711  153.7947 N   0  0  0  0  0  0  0  0  0  0  0  0
  149.5382  139.6704  154.3819 C   0  0  0  0  0  0  0  0  0  0  0  0
  149.0689  138.9227  153.5220 O   0  0  0  0  0  0  0  0  0  0  0  0
  150.7871  139.3888  154.9921 N   0  0  0  0  0  0  0  0  0  0  0  0
  151.5203  138.1776  154.5633 C   0  0  0  0  0  0  0  0  0  0  0  0
  150.9858  136.8884  155.2045 C   0  0  0  0  0  0  0  0  0  0  0  0
  151.6109  136.3215  156.1020 O   0  0  0  0  0  0  0  0  0  0  0  0
  149.8121  136.4429  154.7315 N   0  0  0  0  0  0  0  0  0  0  0  0
  149.1210  135.2379  155.1802 C   0  0  0  0  0  0  0  0  0  0  0  0
  148.8707  135.2885  156.7027 C   0  0  0  0  0  0  0  0  0  0  0  0
  148.2240  133.9904  157.2121 C   0  0  0  0  0  0  0  0  0  0  0  0
  149.0665  132.7626  156.8345 C   0  0  0  0  0  0  0  0  0  0  0  0
  149.3071  132.7027  155.3181 C   0  0  0  0  0  0  0  0  0  0  0  0
  149.9557  133.9986  154.8048 C   0  0  0  0  0  0  0  0  0  0  0  0
  151.3707  140.2328  155.9680 C   0  0  0  0  0  0  0  0  0  0  0  0
  152.4663  139.9617  156.4662 O   0  0  0  0  0  0  0  0  0  0  0  0
  151.7871  142.2502  159.4584 H   0  0  0  0  0  0  0  0  0  0  0  0
  152.0766  140.7081  158.6643 H   0  0  0  0  0  0  0  0  0  0  0  0
  150.4328  141.1903  159.0801 H   0  0  0  0  0  0  0  0  0  0  0  0
  150.5818  143.1115  157.4321 H   0  0  0  0  0  0  0  0  0  0  0  0
  152.1928  142.6152  156.9598 H   0  0  0  0  0  0  0  0  0  0  0  0
  148.9109  142.5693  156.0870 H   0  0  0  0  0  0  0  0  0  0  0  0
  151.4935  138.0541  153.4800 H   0  0  0  0  0  0  0  0  0  0  0  0
  152.5836  138.2758  154.7904 H   0  0  0  0  0  0  0  0  0  0  0  0
  149.3669  136.9744  153.9975 H   0  0  0  0  0  0  0  0  0  0  0  0
  148.1606  135.1695  154.6655 H   0  0  0  0  0  0  0  0  0  0  0  0
  149.8142  135.4504  157.2260 H   0  0  0  0  0  0  0  0  0  0  0  0
  148.2303  136.1349  156.9536 H   0  0  0  0  0  0  0  0  0  0  0  0
  148.0998  134.0376  158.2944 H   0  0  0  0  0  0  0  0  0  0  0  0
  147.2233  133.8913  156.7900 H   0  0  0  0  0  0  0  0  0  0  0  0
  150.0237  132.8015  157.3562 H   0  0  0  0  0  0  0  0  0  0  0  0
  148.5688  131.8520  157.1692 H   0  0  0  0  0  0  0  0  0  0  0  0
  149.9407  131.8490  155.0759 H   0  0  0  0  0  0  0  0  0  0  0  0
  148.3591  132.5401  154.8038 H   0  0  0  0  0  0  0  0  0  0  0  0
  150.0762  133.9433  153.7221 H   0  0  0  0  0  0  0  0  0  0  0  0
  150.9596  134.0882  155.2230 H   0  0  0  0  0  0  0  0  0  0  0  0
  1  2  1  0  0  0  0
  1 23  1  0  0  0  0
  1 24  1  0  0  0  0
  1 25  1  0  0  0  0
  2  3  1  0  0  0  0
  2 26  1  0  0  0  0
  2 27  1  0  0  0  0
  3 21  1  0  0  0  0
  3  4  1  0  0  0  0
  4  5  2  0  0  0  0
  4 28  1  0  0  0  0
  5  6  1  0  0  0  0
  5  8  1  0  0  0  0
  6  7  3  0  0  0  0
  8  9  2  0  0  0  0
  8 10  1  0  0  0  0
 10 11  1  0  0  0  0
 10 21  1  0  0  0  0
 11 12  1  0  0  0  0
 11 29  1  0  0  0  0
 11 30  1  0  0  0  0
 12 13  2  0  0  0  0
 12 14  1  0  0  0  0
 14 15  1  0  0  0  0
 14 31  1  0  0  0  0
 15 20  1  0  0  0  0
 15 16  1  0  0  0  0
 15 32  1  0  0  0  0
 16 17  1  0  0  0  0
 16 33  1  0  0  0  0
 16 34  1  0  0  0  0
 17 18  1  0  0  0  0
 17 35  1  0  0  0  0
 17 36  1  0  0  0  0
 18 19  1  0  0  0  0
 18 37  1  0  0  0  0
 18 38  1  0  0  0  0
 19 20  1  0  0  0  0
 19 39  1  0  0  0  0
 19 40  1  0  0  0  0
 20 41  1  0  0  0  0
 20 42  1  0  0  0  0
 21 22  2  0  0  0  0
M  END
> <s_m_source_file>
AV-unprocessed.smi

> <i_m_source_file_index>
1077

> <i_lp_mmshare_version>
43012

> <i_f3d_flags>
0

> <s_epik_input>
W0NIM11bQ0gyXW4xW2NIXWMoQyNOKWMoPU8pbihjMT1PKVtDSDJdQyg9TylbTkhdW0NIXTJbQ0gyXVtDSDJdW0NIMl1bQ0gyXVtDSDJdMg==

> <s_epik_cmdline>
J2VwaWtfcHl0aG9uJywgJy1waCcsICc3LjAnLCAnLXRuJywgJzgnLCAnLW1hJywgJzIwMCcsICctbWV0YWxfYmluZGluZycsICctaW1hZScsICc8aW5maWxlLm1hZT4nLCAnLW9tYWUnLCAnPG91dGZpbGUubWFlPic=

> <r_lp_tautomer_probability>
1

> <r_epik_Ionization_Penalty>
1.90876e-08

> <r_epik_Ionization_Penalty_Charging>
4.07395e-11

> <r_epik_Ionization_Penalty_Neutral>
1.90469e-08

> <r_epik_State_Penalty>
-0

> <r_epik_Charging_Adjusted_Penalty>
4.07395e-11

> <i_epik_Tot_Q>
0

> <i_epik_Tot_abs_Q>
0

> <r_epik_Metal_State_Penalty>
-0

> <b_epik_Metal_Only>
0

> <s_lp_Force_Field>
OPLS_2005

> <r_lp_Energy>
10.9803

> <b_lp_Chiralities_Consistent>
1

> <s_lp_Variant>
AV-unprocessed.smi:1077-1

> <Gold.Version>
5.8.1

> <Gold.Id.Protein>
6NUR|6NUR_protein|mol2

> <Gold.PLP.Fitness>
43.0025

> <Gold.PLP.PLP>
-34.1614

> <Gold.PLP.part.hbond>
-3.0000

> <Gold.PLP.part.metal>
0.0000

> <Gold.PLP.part.buried>
-3.9996

> <Gold.PLP.part.nonpolar>
-30.0543

> <Gold.PLP.part.repulsive>
3.6885

> <Gold.PLP.ligand.clash>
0.0000

> <Gold.PLP.ligand.torsion>
0.4637

> <Gold.PLP.Chemscore.Hbond>
2.2535

> <Gold.PLP.Chemscore.CHOScore>
1.0000

> <Gold.PLP.Chemscore.Metal>
0.0000

> <Gold.Chemscore.Hbonds>
donor molecule, donor type, donor heavy atom, donor atom, acceptor molecule, acceptor atom, score
      L1  H    14    31       P1  7948  0.20
      P1  H  7997  8008       L1    22  1.00
      P1  H 10752 10764       L1    13  0.61
      L1  C     4    28       P1  8028  1.00

> <Gold.PLP.Chemscore.Internal.Correction>
0.0080

> <Gold.Rescore>
     Score         DG    S(hbond)    S(metal)    S(lipo)     H(rot)  DE(clash)    DE(int)     intcor
     13.14     -14.89       2.06        0.00      59.89       1.75       0.03       1.72       ----

> <Gold.Chemscore.Fitness>
13.1378

> <Gold.Chemscore.DG>
-14.8929

> <Gold.Chemscore.ZeroCoef>
-5.4800

> <Gold.Chemscore.Hbond>
2.0631

> <Gold.Chemscore.Metal>
0.0000

> <Gold.Chemscore.Lipo>
59.8926

> <Gold.Chemscore.Internal_Hbond>
0.0000

> <Gold.Chemscore.DEClash>
0.0344

> <Gold.Chemscore.DEInternal>
1.7207

> <Gold.Chemscore.Rot>
1.7520

> <Gold.Chemscore.Internal.Correction>
   9.000000E+99

> <Gold.Chemscore.Hbonds>
donor molecule, donor type, donor heavy atom, donor atom, acceptor molecule, acceptor atom, score
      L1  H    14    31       P1  7948  0.19
      P1  H  7997  8008       L1    22  0.99
      P1  H 10752 10764       L1    13  0.05

> <Gold.Chemscore.Hbond.Weighted>
-6.8907

> <Gold.Chemscore.Metal.Weighted>
-0.0000

> <Gold.Chemscore.Lipo.Weighted>
-7.0074

> <Gold.Chemscore.Internal_Hbond.Weighted>
0.0000

> <Gold.Chemscore.DEClash.Weighted>
0.0344

> <Gold.Chemscore.DEInternal.Weighted>
1.7207

> <Gold.Chemscore.Rot.Weighted>
4.4852

> <Gold.Chemscore.Internal.Correction.Weighted>
   9.000000E+99

> <Gold.Protein.RotatedTorsions>
[ 6907 6896 6895 6894 ] final -164.42 input  -60.11 | X-H torsion
[ 7974 7965 7964 7962 ] final  133.55 input  175.53 | X-H torsion
[ 8008 7997 7996 7995 ] final  -53.05 input   59.86 | X-H torsion
[ 10167 10162 10161 10158 ] final  149.02 input  -65.29 | X-H torsion
[ 10718 10713 10712 10709 ] final   40.03 input   66.30 | X-H torsion
[ 10763 10752 10751 10750 ] final  -49.02 input  -60.55 | X-H torsion
[ 11005 11000 10999 10996 ] final    0.58 input  -57.11 | X-H torsion

> <Gold.Protein.ActiveResidues>
 VAL166  LYS551  ARG553  GLY616  TRP617  ASP618  TYR619  PRO620  LYS621  CYS622 
 ASP623  PHE694  ASN695  SER759  ASP760  ASP761  ALA762  ILE779  LEU786  VAL792 
 PHE793  MET794  SER795  GLU796  ALA797  LYS798  CYS799  TRP800  GLU811  SER814 

> <Gold.Protein.RotatedAtoms>
  151.4115  133.3726  159.2744 H   0  0  0  0  0  0  0  0  0  0  0  0  # atno 6907 bound_to 6896
  150.9360  134.8773  159.7592 H   0  0  0  0  0  0  0  0  0  0  0  0  # atno 6908 bound_to 6896
  152.5050  134.4062  159.9485 H   0  0  0  0  0  0  0  0  0  0  0  0  # atno 6909 bound_to 6896
  144.9854  139.4461  143.5366 H   0  0  0  0  0  0  0  0  0  0  0  0  # atno 7974 bound_to 7965
  154.4122  140.1209  156.5090 H   0  0  0  0  0  0  0  0  0  0  0  0  # atno 8008 bound_to 7997
  155.6818  140.3496  155.4839 H   0  0  0  0  0  0  0  0  0  0  0  0  # atno 8009 bound_to 7997
  155.9545  140.1111  157.0939 H   0  0  0  0  0  0  0  0  0  0  0  0  # atno 8010 bound_to 7997
  139.4867  144.5634  151.7188 H   0  0  0  0  0  0  0  0  0  0  0  0  # atno 10167 bound_to 10162
  157.3775  130.7735  149.7166 H   0  0  0  0  0  0  0  0  0  0  0  0  # atno 10718 bound_to 10713
  154.0873  135.6582  153.4847 H   0  0  0  0  0  0  0  0  0  0  0  0  # atno 10763 bound_to 10752
  153.0334  135.5194  154.7415 H   0  0  0  0  0  0  0  0  0  0  0  0  # atno 10764 bound_to 10752
  154.6528  135.3003  154.9933 H   0  0  0  0  0  0  0  0  0  0  0  0  # atno 10765 bound_to 10752
  140.6250  133.9627  155.8244 H   0  0  0  0  0  0  0  0  0  0  0  0  # atno 11005 bound_to 11000
  146.3418  139.9152  142.8774 LP  0  0  0  0  0  0  0  0  0  0  0  0  # atno 17320 bound_to 7965
  145.2361  140.9992  143.3962 LP  0  0  0  0  0  0  0  0  0  0  0  0  # atno 17321 bound_to 7965
  140.5208  144.0881  150.6022 LP  0  0  0  0  0  0  0  0  0  0  0  0  # atno 17342 bound_to 10162
  140.3839  143.2788  152.0139 LP  0  0  0  0  0  0  0  0  0  0  0  0  # atno 17343 bound_to 10162
  155.9768  130.4070  150.3752 LP  0  0  0  0  0  0  0  0  0  0  0  0  # atno 17370 bound_to 10713
  157.1852  131.0402  151.2728 LP  0  0  0  0  0  0  0  0  0  0  0  0  # atno 17371 bound_to 10713
  141.0716  134.0197  157.3518 LP  0  0  0  0  0  0  0  0  0  0  0  0  # atno 17394 bound_to 11000
  139.9138  135.0194  156.7800 LP  0  0  0  0  0  0  0  0  0  0  0  0  # atno 17395 bound_to 11000

$$$$
