AV-unprocessed.smi:248|AV-procd|sdf|1897|dock1
  -GOLD-   2262020563D 1   1.00000     0.00000
 Structure written by MMmdl.
 62 65  0  0  0  0  0  0  0  0  1 V2000
  151.7610  144.6348  158.4911 C   0  0  0  0  0  0  0  0  0  0  0  0
  151.4967  143.2381  159.0735 C   0  0  0  0  0  0  0  0  0  0  0  0
  152.2503  143.0621  160.4033 C   0  0  0  0  0  0  0  0  0  0  0  0
  151.8224  142.1468  158.0265 C   0  0  0  0  0  0  0  0  0  0  0  0
  151.3551  140.8068  158.4179 N   0  0  0  0  0  0  0  0  0  0  0  0
  149.8964  140.6312  158.3805 C   0  0  0  0  0  0  0  0  0  0  0  0
  149.4756  139.1640  158.2544 C   0  0  0  0  0  0  0  0  0  0  0  0
  150.1939  138.3684  159.2394 N   0  0  0  0  0  0  0  0  0  0  0  0
  149.6786  137.1265  159.3936 C   0  0  0  0  0  0  0  0  0  0  0  0
  149.9086  136.1740  158.4517 N   0  0  0  0  0  0  0  0  0  0  0  0
  149.4082  134.9451  158.6114 C   0  0  0  0  0  0  0  0  0  0  0  0
  148.6741  134.4665  159.6186 N   0  0  0  0  0  0  0  0  0  0  0  0
  148.4491  135.4216  160.5669 C   0  0  0  0  0  0  0  0  0  0  0  0
  148.9037  136.7684  160.5274 C   0  0  0  0  0  0  0  0  0  0  0  0
  148.4716  137.4530  161.6552 N   0  0  0  0  0  0  0  0  0  0  0  0
  147.8013  136.5578  162.3281 C   0  0  0  0  0  0  0  0  0  0  0  0
  147.7572  135.3028  161.7606 N   0  0  0  0  0  0  0  0  0  0  0  0
  147.0826  134.1243  162.2895 C   0  0  0  0  0  0  0  0  0  0  0  0
  145.5347  134.2318  162.4759 C   0  0  0  0  0  0  0  0  0  0  0  0
  145.0921  132.7773  162.8184 C   0  0  0  0  0  0  0  0  0  0  0  0
  143.7100  132.5832  163.0216 O   0  0  0  0  0  0  0  0  0  0  0  0
  145.1910  135.2305  163.6158 C   0  0  0  0  0  0  0  0  0  0  0  0
  143.7114  135.6561  163.6518 C   0  0  0  0  0  0  0  0  0  0  0  0
  143.3244  136.1745  162.3859 O   0  0  0  0  0  0  0  0  0  0  0  0
  143.4127  135.2106  161.3449 C   0  0  0  0  0  0  0  0  0  0  0  0
  144.8731  134.7521  161.1698 C   0  0  0  0  0  0  0  0  0  0  0  0
  151.6603  138.4216  159.1554 C   0  0  2  0  0  0  0  0  0  0  0  0
  152.3023  137.9195  160.4691 C   0  0  0  0  0  0  0  0  0  0  0  0
  152.2137  139.8150  158.7685 C   0  0  0  0  0  0  0  0  0  0  0  0
  153.4352  139.9764  158.7711 O   0  0  0  0  0  0  0  0  0  0  0  0
  152.8169  144.7716  158.2551 H   0  0  0  0  0  0  0  0  0  0  0  0
  151.4731  145.4162  159.1947 H   0  0  0  0  0  0  0  0  0  0  0  0
  151.1920  144.7942  157.5746 H   0  0  0  0  0  0  0  0  0  0  0  0
  150.4300  143.1806  159.2941 H   0  0  0  0  0  0  0  0  0  0  0  0
  153.3295  143.0486  160.2472 H   0  0  0  0  0  0  0  0  0  0  0  0
  151.9715  142.1354  160.9044 H   0  0  0  0  0  0  0  0  0  0  0  0
  152.0249  143.8765  161.0924 H   0  0  0  0  0  0  0  0  0  0  0  0
  151.3701  142.4178  157.0718 H   0  0  0  0  0  0  0  0  0  0  0  0
  152.8951  142.1417  157.8260 H   0  0  0  0  0  0  0  0  0  0  0  0
  149.4877  141.0453  159.3032 H   0  0  0  0  0  0  0  0  0  0  0  0
  149.4530  141.1993  157.5621 H   0  0  0  0  0  0  0  0  0  0  0  0
  148.3970  139.0744  158.3953 H   0  0  0  0  0  0  0  0  0  0  0  0
  149.7005  138.8007  157.2497 H   0  0  0  0  0  0  0  0  0  0  0  0
  149.6304  134.2443  157.8200 H   0  0  0  0  0  0  0  0  0  0  0  0
  147.3248  136.7884  163.2699 H   0  0  0  0  0  0  0  0  0  0  0  0
  147.3183  133.2901  161.6272 H   0  0  0  0  0  0  0  0  0  0  0  0
  147.5541  133.8827  163.2432 H   0  0  0  0  0  0  0  0  0  0  0  0
  145.3969  132.0973  162.0222 H   0  0  0  0  0  0  0  0  0  0  0  0
  145.5993  132.4360  163.7216 H   0  0  0  0  0  0  0  0  0  0  0  0
  143.5696  132.3408  163.9242 H   0  0  0  0  0  0  0  0  0  0  0  0
  145.4911  134.8248  164.5823 H   0  0  0  0  0  0  0  0  0  0  0  0
  145.7570  136.1511  163.4867 H   0  0  0  0  0  0  0  0  0  0  0  0
  143.0522  134.8419  163.9493 H   0  0  0  0  0  0  0  0  0  0  0  0
  143.5769  136.4404  164.3971 H   0  0  0  0  0  0  0  0  0  0  0  0
  142.7369  134.3788  161.5376 H   0  0  0  0  0  0  0  0  0  0  0  0
  143.0641  135.6733  160.4216 H   0  0  0  0  0  0  0  0  0  0  0  0
  145.4145  135.6212  160.8011 H   0  0  0  0  0  0  0  0  0  0  0  0
  144.9397  134.0004  160.3827 H   0  0  0  0  0  0  0  0  0  0  0  0
  151.9733  137.7516  158.3528 H   0  0  0  0  0  0  0  0  0  0  0  0
  153.3912  137.9649  160.4315 H   0  0  0  0  0  0  0  0  0  0  0  0
  152.0470  136.8798  160.6746 H   0  0  0  0  0  0  0  0  0  0  0  0
  151.9755  138.5171  161.3210 H   0  0  0  0  0  0  0  0  0  0  0  0
  1  2  1  0  0  0  0
  1 31  1  0  0  0  0
  1 32  1  0  0  0  0
  1 33  1  0  0  0  0
  2  3  1  0  0  0  0
  2  4  1  0  0  0  0
  2 34  1  0  0  0  0
  3 35  1  0  0  0  0
  3 36  1  0  0  0  0
  3 37  1  0  0  0  0
  4  5  1  0  0  0  0
  4 38  1  0  0  0  0
  4 39  1  0  0  0  0
  5 29  1  0  0  0  0
  5  6  1  0  0  0  0
  6  7  1  0  0  0  0
  6 40  1  0  0  0  0
  6 41  1  0  0  0  0
  7  8  1  0  0  0  0
  7 42  1  0  0  0  0
  7 43  1  0  0  0  0
  8  9  1  0  0  0  0
  8 27  1  0  0  0  0
  9 14  1  0  0  0  0
  9 10  2  0  0  0  0
 10 11  1  0  0  0  0
 11 12  2  0  0  0  0
 11 44  1  0  0  0  0
 12 13  1  0  0  0  0
 13 17  1  0  0  0  0
 13 14  2  0  0  0  0
 14 15  1  0  0  0  0
 15 16  2  0  0  0  0
 16 17  1  0  0  0  0
 16 45  1  0  0  0  0
 17 18  1  0  0  0  0
 18 19  1  0  0  0  0
 18 46  1  0  0  0  0
 18 47  1  0  0  0  0
 19 26  1  0  0  0  0
 19 20  1  0  0  0  0
 19 22  1  0  0  0  0
 20 21  1  0  0  0  0
 20 48  1  0  0  0  0
 20 49  1  0  0  0  0
 21 50  1  0  0  0  0
 22 23  1  0  0  0  0
 22 51  1  0  0  0  0
 22 52  1  0  0  0  0
 23 24  1  0  0  0  0
 23 53  1  0  0  0  0
 23 54  1  0  0  0  0
 24 25  1  0  0  0  0
 25 26  1  0  0  0  0
 25 55  1  0  0  0  0
 25 56  1  0  0  0  0
 26 57  1  0  0  0  0
 26 58  1  0  0  0  0
 27 28  1  0  0  0  0
 27 29  1  0  0  0  0
 27 59  1  0  0  0  0
 28 60  1  0  0  0  0
 28 61  1  0  0  0  0
 28 62  1  0  0  0  0
 29 30  2  0  0  0  0
M  END
> <s_m_source_file>
AV-unprocessed.smi

> <i_m_source_file_index>
248

> <i_lp_mmshare_version>
43012

> <i_f3d_flags>
0

> <s_epik_input>
W0NIM11bQ0hdKFtDSDNdKVtDSDJdTjFbQ0gyXVtDSDJdTihbQ0BASF0oW0NIM10pQzE9TyljKG5bY0hdbjIpYyhjMjMpbltjSF1uM1tDSDJdQzQoW0NIMl1bT0hdKVtDSDJdW0NIMl1PW0NIMl1bQ0gyXTQ=

> <s_epik_cmdline>
J2VwaWtfcHl0aG9uJywgJy1waCcsICc3LjAnLCAnLXRuJywgJzgnLCAnLW1hJywgJzIwMCcsICctbWV0YWxfYmluZGluZycsICctaW1hZScsICc8aW5maWxlLm1hZT4nLCAnLW9tYWUnLCAnPG91dGZpbGUubWFlPic=

> <r_lp_tautomer_probability>
1

> <r_epik_Ionization_Penalty>
0.000593973

> <r_epik_Ionization_Penalty_Charging>
0

> <r_epik_Ionization_Penalty_Neutral>
0.000593973

> <r_epik_State_Penalty>
0.000283267

> <r_epik_Charging_Adjusted_Penalty>
0.000283267

> <i_epik_Tot_Q>
0

> <i_epik_Tot_abs_Q>
0

> <r_epik_Metal_State_Penalty>
-0

> <b_epik_Metal_Only>
0

> <s_lp_Force_Field>
OPLS_2005

> <r_lp_Energy>
47.3368

> <b_lp_Chiralities_Consistent>
1

> <s_lp_Variant>
AV-unprocessed.smi:248-2

> <Gold.Version>
5.8.1

> <Gold.Id.Protein>
6NUR|6NUR_protein|mol2

> <Gold.PLP.Fitness>
53.0253

> <Gold.PLP.PLP>
-46.6299

> <Gold.PLP.part.hbond>
-3.7646

> <Gold.PLP.part.metal>
0.0000

> <Gold.PLP.part.buried>
-6.4676

> <Gold.PLP.part.nonpolar>
-35.9966

> <Gold.PLP.part.repulsive>
0.0219

> <Gold.PLP.ligand.clash>
0.0000

> <Gold.PLP.ligand.torsion>
0.4071

> <Gold.PLP.Chemscore.Hbond>
2.2734

> <Gold.PLP.Chemscore.CHOScore>
0.0000

> <Gold.PLP.Chemscore.Metal>
0.0000

> <Gold.Chemscore.Hbonds>
donor molecule, donor type, donor heavy atom, donor atom, acceptor molecule, acceptor atom, score
      P1  H  6934  6947       L1    15  0.26
      P1  H  7997  8009       L1    30  0.91

> <Gold.PLP.Chemscore.Internal.Correction>
0.3896

> <Gold.Rescore>
     Score         DG    S(hbond)    S(metal)    S(lipo)     H(rot)  DE(clash)    DE(int)     intcor
     16.02     -16.44       2.11        0.00      93.76       2.75       0.08       0.34       ----

> <Gold.Chemscore.Fitness>
16.0160

> <Gold.Chemscore.DG>
-16.4360

> <Gold.Chemscore.ZeroCoef>
-5.4800

> <Gold.Chemscore.Hbond>
2.1054

> <Gold.Chemscore.Metal>
0.0000

> <Gold.Chemscore.Lipo>
93.7591

> <Gold.Chemscore.Internal_Hbond>
0.0000

> <Gold.Chemscore.DEClash>
0.0811

> <Gold.Chemscore.DEInternal>
0.3390

> <Gold.Chemscore.Rot>
2.7523

> <Gold.Chemscore.Internal.Correction>
   9.000000E+99

> <Gold.Chemscore.Hbonds>
donor molecule, donor type, donor heavy atom, donor atom, acceptor molecule, acceptor atom, score
      P1  H  6934  6947       L1    15  0.12
      P1  H  7997  8009       L1    30  0.84

> <Gold.Chemscore.Hbond.Weighted>
-7.0321

> <Gold.Chemscore.Metal.Weighted>
-0.0000

> <Gold.Chemscore.Lipo.Weighted>
-10.9698

> <Gold.Chemscore.Internal_Hbond.Weighted>
0.0000

> <Gold.Chemscore.DEClash.Weighted>
0.0811

> <Gold.Chemscore.DEInternal.Weighted>
0.3390

> <Gold.Chemscore.Rot.Weighted>
7.0459

> <Gold.Chemscore.Internal.Correction.Weighted>
   9.000000E+99

> <Gold.Protein.RotatedTorsions>
[ 6907 6896 6895 6894 ] final  -13.96 input  -60.11 | X-H torsion
[ 7974 7965 7964 7962 ] final -171.15 input  175.53 | X-H torsion
[ 8008 7997 7996 7995 ] final  141.19 input   59.86 | X-H torsion
[ 10167 10162 10161 10158 ] final    3.34 input  -65.29 | X-H torsion
[ 10718 10713 10712 10709 ] final -153.38 input   66.30 | X-H torsion
[ 10763 10752 10751 10750 ] final -171.25 input  -60.55 | X-H torsion
[ 11005 11000 10999 10996 ] final  152.84 input  -57.11 | X-H torsion

> <Gold.Protein.ActiveResidues>
 VAL166  LYS551  ARG553  GLY616  TRP617  ASP618  TYR619  PRO620  LYS621  CYS622 
 ASP623  PHE694  ASN695  SER759  ASP760  ASP761  ALA762  ILE779  LEU786  VAL792 
 PHE793  MET794  SER795  GLU796  ALA797  LYS798  CYS799  TRP800  GLU811  SER814 

> <Gold.Protein.RotatedAtoms>
  151.3469  135.0876  159.9389 H   0  0  0  0  0  0  0  0  0  0  0  0  # atno 6907 bound_to 6896
  152.5197  133.9392  159.7628 H   0  0  0  0  0  0  0  0  0  0  0  0  # atno 6908 bound_to 6896
  150.9759  133.6241  159.2760 H   0  0  0  0  0  0  0  0  0  0  0  0  # atno 6909 bound_to 6896
  144.7160  140.1965  143.6343 H   0  0  0  0  0  0  0  0  0  0  0  0  # atno 7974 bound_to 7965
  156.2969  140.2321  156.4525 H   0  0  0  0  0  0  0  0  0  0  0  0  # atno 8008 bound_to 7997
  154.8089  140.0444  157.1349 H   0  0  0  0  0  0  0  0  0  0  0  0  # atno 8009 bound_to 7997
  154.9446  140.3034  155.5108 H   0  0  0  0  0  0  0  0  0  0  0  0  # atno 8010 bound_to 7997
  140.6590  143.7352  150.7705 H   0  0  0  0  0  0  0  0  0  0  0  0  # atno 10167 bound_to 10162
  156.4851  130.8321  151.2546 H   0  0  0  0  0  0  0  0  0  0  0  0  # atno 10718 bound_to 10713
  154.6326  135.2888  155.0198 H   0  0  0  0  0  0  0  0  0  0  0  0  # atno 10763 bound_to 10752
  154.1353  135.6527  153.4934 H   0  0  0  0  0  0  0  0  0  0  0  0  # atno 10764 bound_to 10752
  153.0287  135.5320  154.7160 H   0  0  0  0  0  0  0  0  0  0  0  0  # atno 10765 bound_to 10752
  140.1344  134.8781  157.2247 H   0  0  0  0  0  0  0  0  0  0  0  0  # atno 11005 bound_to 11000
  145.8720  139.2277  143.1655 LP  0  0  0  0  0  0  0  0  0  0  0  0  # atno 17320 bound_to 7965
  146.0076  140.8465  142.9987 LP  0  0  0  0  0  0  0  0  0  0  0  0  # atno 17321 bound_to 7965
  140.1017  143.4781  152.2421 LP  0  0  0  0  0  0  0  0  0  0  0  0  # atno 17342 bound_to 10162
  139.5819  144.7514  151.3617 LP  0  0  0  0  0  0  0  0  0  0  0  0  # atno 17343 bound_to 10162
  157.7479  131.0032  150.3029 LP  0  0  0  0  0  0  0  0  0  0  0  0  # atno 17370 bound_to 10713
  156.3483  130.3826  149.7351 LP  0  0  0  0  0  0  0  0  0  0  0  0  # atno 17371 bound_to 10713
  140.2802  134.3359  155.7345 LP  0  0  0  0  0  0  0  0  0  0  0  0  # atno 17394 bound_to 11000
  141.2176  133.7474  156.9352 LP  0  0  0  0  0  0  0  0  0  0  0  0  # atno 17395 bound_to 11000

$$$$
