AV-unprocessed.smi:1945|AV-procd|sdf|7860|dock4
  -GOLD-   2272010 13D 1   1.00000     0.00000
 Structure written by MMmdl.
 47 48  0  0  0  0  0  0  0  0  1 V2000
  143.8229  132.0825  150.1581 C   0  0  0  0  0  0  0  0  0  0  0  0
  145.0259  132.3240  151.0209 C   0  0  0  0  0  0  0  0  0  0  0  0
  145.6966  133.5570  151.2666 C   0  0  0  0  0  0  0  0  0  0  0  0
  146.7079  133.1877  152.1113 C   0  0  0  0  0  0  0  0  0  0  0  0
  147.6728  133.9626  152.6750 N   0  0  0  0  0  0  0  0  0  0  0  0
  148.1179  133.9608  153.9435 C   0  0  0  0  0  0  0  0  0  0  0  0
  147.7329  133.2026  154.8339 O   0  0  0  0  0  0  0  0  0  0  0  0
  149.0456  134.9107  154.1308 N   0  0  0  0  0  0  0  0  0  0  0  0
  149.6780  135.2265  155.4076 C   0  0  0  0  0  0  0  0  0  0  0  0
  150.8264  136.2293  155.2264 C   0  0  0  0  0  0  0  0  0  0  0  0
  150.3226  137.4033  154.6070 O   0  0  0  0  0  0  0  0  0  0  0  0
  150.2197  138.5325  155.4629 C   0  0  1  0  0  0  0  0  0  0  0  0
  151.6218  138.8867  156.0033 C   0  0  0  0  0  0  0  0  0  0  0  0
  151.6042  140.1899  156.8152 C   0  0  0  0  0  0  0  0  0  0  0  0
  151.0307  141.3471  155.9859 C   0  0  0  0  0  0  0  0  0  0  0  0
  149.6309  141.0034  155.4549 C   0  0  0  0  0  0  0  0  0  0  0  0
  149.6351  139.6983  154.6336 C   0  0  2  0  0  0  0  0  0  0  0  0
  148.2238  139.3784  154.1153 C   0  0  0  0  0  0  0  0  0  0  0  0
  146.6213  131.8311  152.3413 N   0  0  0  0  0  0  0  0  0  0  0  0
  147.4519  130.9649  153.1556 C   0  0  0  0  0  0  0  0  0  0  0  0
  145.5812  131.3022  151.6624 N   0  0  0  0  0  0  0  0  0  0  0  0
  143.4684  133.0098  149.7079 H   0  0  0  0  0  0  0  0  0  0  0  0
  143.0019  131.6604  150.7378 H   0  0  0  0  0  0  0  0  0  0  0  0
  144.0532  131.3883  149.3496 H   0  0  0  0  0  0  0  0  0  0  0  0
  145.4587  134.5353  150.8772 H   0  0  0  0  0  0  0  0  0  0  0  0
  148.0852  134.6492  152.0610 H   0  0  0  0  0  0  0  0  0  0  0  0
  149.3070  135.4833  153.3416 H   0  0  0  0  0  0  0  0  0  0  0  0
  148.9479  135.5999  156.1278 H   0  0  0  0  0  0  0  0  0  0  0  0
  150.0701  134.2968  155.8202 H   0  0  0  0  0  0  0  0  0  0  0  0
  151.2478  136.4916  156.1976 H   0  0  0  0  0  0  0  0  0  0  0  0
  151.6253  135.7760  154.6390 H   0  0  0  0  0  0  0  0  0  0  0  0
  149.5433  138.3189  156.2930 H   0  0  0  0  0  0  0  0  0  0  0  0
  152.0094  138.0822  156.6275 H   0  0  0  0  0  0  0  0  0  0  0  0
  152.3174  138.9895  155.1692 H   0  0  0  0  0  0  0  0  0  0  0  0
  151.0061  140.0518  157.7167 H   0  0  0  0  0  0  0  0  0  0  0  0
  152.6137  140.4346  157.1467 H   0  0  0  0  0  0  0  0  0  0  0  0
  150.9875  142.2529  156.5912 H   0  0  0  0  0  0  0  0  0  0  0  0
  151.6966  141.5645  155.1500 H   0  0  0  0  0  0  0  0  0  0  0  0
  148.9389  140.9088  156.2931 H   0  0  0  0  0  0  0  0  0  0  0  0
  149.2625  141.8276  154.8432 H   0  0  0  0  0  0  0  0  0  0  0  0
  150.2789  139.8521  153.7660 H   0  0  0  0  0  0  0  0  0  0  0  0
  147.5288  139.2072  154.9379 H   0  0  0  0  0  0  0  0  0  0  0  0
  148.2229  138.4866  153.4881 H   0  0  0  0  0  0  0  0  0  0  0  0
  147.8323  140.1993  153.5138 H   0  0  0  0  0  0  0  0  0  0  0  0
  148.1308  131.5520  153.7741 H   0  0  0  0  0  0  0  0  0  0  0  0
  148.0377  130.3086  152.5114 H   0  0  0  0  0  0  0  0  0  0  0  0
  146.8237  130.3565  153.8071 H   0  0  0  0  0  0  0  0  0  0  0  0
  1  2  1  0  0  0  0
  1 22  1  0  0  0  0
  1 23  1  0  0  0  0
  1 24  1  0  0  0  0
  2 21  2  0  0  0  0
  2  3  1  0  0  0  0
  3  4  2  0  0  0  0
  3 25  1  0  0  0  0
  4  5  1  0  0  0  0
  4 19  1  0  0  0  0
  5  6  1  0  0  0  0
  5 26  1  0  0  0  0
  6  7  2  0  0  0  0
  6  8  1  0  0  0  0
  8  9  1  0  0  0  0
  8 27  1  0  0  0  0
  9 10  1  0  0  0  0
  9 28  1  0  0  0  0
  9 29  1  0  0  0  0
 10 11  1  0  0  0  0
 10 30  1  0  0  0  0
 10 31  1  0  0  0  0
 11 12  1  0  0  0  0
 12 17  1  0  0  0  0
 12 13  1  0  0  0  0
 12 32  1  0  0  0  0
 13 14  1  0  0  0  0
 13 33  1  0  0  0  0
 13 34  1  0  0  0  0
 14 15  1  0  0  0  0
 14 35  1  0  0  0  0
 14 36  1  0  0  0  0
 15 16  1  0  0  0  0
 15 37  1  0  0  0  0
 15 38  1  0  0  0  0
 16 17  1  0  0  0  0
 16 39  1  0  0  0  0
 16 40  1  0  0  0  0
 17 18  1  0  0  0  0
 17 41  1  0  0  0  0
 18 42  1  0  0  0  0
 18 43  1  0  0  0  0
 18 44  1  0  0  0  0
 19 20  1  0  0  0  0
 19 21  1  0  0  0  0
 20 45  1  0  0  0  0
 20 46  1  0  0  0  0
 20 47  1  0  0  0  0
M  END
> <s_m_source_file>
AV-unprocessed.smi

> <i_m_source_file_index>
1945

> <i_lp_mmshare_version>
43012

> <i_f3d_flags>
0

> <s_epik_input>
W0NIM11jMVtjSF1jKG4objEpW0NIM10pW05IXUMoPU8pW05IXVtDSDJdW0NIMl1PW0NAQEhdMltDSDJdW0NIMl1bQ0gyXVtDSDJdW0NASF0yW0NIM10=

> <s_epik_cmdline>
J2VwaWtfcHl0aG9uJywgJy1waCcsICc3LjAnLCAnLXRuJywgJzgnLCAnLW1hJywgJzIwMCcsICctbWV0YWxfYmluZGluZycsICctaW1hZScsICc8aW5maWxlLm1hZT4nLCAnLW9tYWUnLCAnPG91dGZpbGUubWFlPic=

> <r_lp_tautomer_probability>
1

> <r_epik_Ionization_Penalty>
9.47735e-05

> <r_epik_Ionization_Penalty_Charging>
0

> <r_epik_Ionization_Penalty_Neutral>
9.47735e-05

> <r_epik_State_Penalty>
-0

> <r_epik_Charging_Adjusted_Penalty>
0

> <i_epik_Tot_Q>
0

> <i_epik_Tot_abs_Q>
0

> <r_epik_Metal_State_Penalty>
-0

> <b_epik_Metal_Only>
0

> <s_lp_Force_Field>
OPLS_2005

> <r_lp_Energy>
11.6834

> <b_lp_Chiralities_Consistent>
1

> <s_lp_Variant>
AV-unprocessed.smi:1945-4

> <Gold.Version>
5.8.1

> <Gold.Id.Protein>
6NUR|6NUR_protein|mol2

> <Gold.PLP.Fitness>
38.3012

> <Gold.PLP.PLP>
-33.6437

> <Gold.PLP.part.hbond>
-2.0000

> <Gold.PLP.part.metal>
0.0000

> <Gold.PLP.part.buried>
-3.8343

> <Gold.PLP.part.nonpolar>
-27.6492

> <Gold.PLP.part.repulsive>
0.3915

> <Gold.PLP.ligand.clash>
0.0000

> <Gold.PLP.ligand.torsion>
0.7296

> <Gold.PLP.Chemscore.Hbond>
2.0000

> <Gold.PLP.Chemscore.CHOScore>
0.0000

> <Gold.PLP.Chemscore.Metal>
0.0000

> <Gold.Chemscore.Hbonds>
donor molecule, donor type, donor heavy atom, donor atom, acceptor molecule, acceptor atom, score
      L1  H     5    26       P1  7948  0.90
      L1  H     8    27       P1  7948  1.00

> <Gold.PLP.Chemscore.Internal.Correction>
0.1166

> <Gold.Rescore>
     Score         DG    S(hbond)    S(metal)    S(lipo)     H(rot)  DE(clash)    DE(int)     intcor
     14.21     -16.23       1.71        0.00      78.64       1.63       0.02       2.00       ----

> <Gold.Chemscore.Fitness>
14.2125

> <Gold.Chemscore.DG>
-16.2294

> <Gold.Chemscore.ZeroCoef>
-5.4800

> <Gold.Chemscore.Hbond>
1.7143

> <Gold.Chemscore.Metal>
0.0000

> <Gold.Chemscore.Lipo>
78.6372

> <Gold.Chemscore.Internal_Hbond>
0.0000

> <Gold.Chemscore.DEClash>
0.0189

> <Gold.Chemscore.DEInternal>
1.9980

> <Gold.Chemscore.Rot>
1.6316

> <Gold.Chemscore.Internal.Correction>
   9.000000E+99

> <Gold.Chemscore.Hbonds>
donor molecule, donor type, donor heavy atom, donor atom, acceptor molecule, acceptor atom, score
      L1  H     5    26       P1  7948  0.17
      L1  H     8    27       P1  7948  0.25

> <Gold.Chemscore.Hbond.Weighted>
-5.7256

> <Gold.Chemscore.Metal.Weighted>
-0.0000

> <Gold.Chemscore.Lipo.Weighted>
-9.2006

> <Gold.Chemscore.Internal_Hbond.Weighted>
0.0000

> <Gold.Chemscore.DEClash.Weighted>
0.0189

> <Gold.Chemscore.DEInternal.Weighted>
1.9980

> <Gold.Chemscore.Rot.Weighted>
4.1768

> <Gold.Chemscore.Internal.Correction.Weighted>
   9.000000E+99

> <Gold.Protein.RotatedTorsions>
[ 6907 6896 6895 6894 ] final   59.96 input  -60.11 | X-H torsion
[ 7974 7965 7964 7962 ] final  -90.56 input  175.53 | X-H torsion
[ 8008 7997 7996 7995 ] final  177.35 input   59.86 | X-H torsion
[ 10167 10162 10161 10158 ] final   72.41 input  -65.29 | X-H torsion
[ 10718 10713 10712 10709 ] final  -73.00 input   66.30 | X-H torsion
[ 10763 10752 10751 10750 ] final -161.13 input  -60.55 | X-H torsion
[ 11005 11000 10999 10996 ] final -173.04 input  -57.11 | X-H torsion

> <Gold.Protein.ActiveResidues>
 VAL166  LYS551  ARG553  GLY616  TRP617  ASP618  TYR619  PRO620  LYS621  CYS622 
 ASP623  PHE694  ASN695  SER759  ASP760  ASP761  ALA762  ILE779  LEU786  VAL792 
 PHE793  MET794  SER795  GLU796  ALA797  LYS798  CYS799  TRP800  GLU811  SER814 

> <Gold.Protein.RotatedAtoms>
  152.3961  134.6364  160.0088 H   0  0  0  0  0  0  0  0  0  0  0  0  # atno 6907 bound_to 6896
  151.6583  133.3312  159.3176 H   0  0  0  0  0  0  0  0  0  0  0  0  # atno 6908 bound_to 6896
  150.7868  134.6903  159.6537 H   0  0  0  0  0  0  0  0  0  0  0  0  # atno 6909 bound_to 6896
  145.4248  140.9553  143.2161 H   0  0  0  0  0  0  0  0  0  0  0  0  # atno 7974 bound_to 7965
  156.0666  140.1360  156.9879 H   0  0  0  0  0  0  0  0  0  0  0  0  # atno 8008 bound_to 7997
  154.4509  140.0980  156.6667 H   0  0  0  0  0  0  0  0  0  0  0  0  # atno 8009 bound_to 7997
  155.5294  140.3458  155.4425 H   0  0  0  0  0  0  0  0  0  0  0  0  # atno 8010 bound_to 7997
  140.0356  144.5430  150.7473 H   0  0  0  0  0  0  0  0  0  0  0  0  # atno 10167 bound_to 10162
  156.0297  130.4384  150.2677 H   0  0  0  0  0  0  0  0  0  0  0  0  # atno 10718 bound_to 10713
  154.7331  135.3051  154.8858 H   0  0  0  0  0  0  0  0  0  0  0  0  # atno 10763 bound_to 10752
  153.9695  135.6743  153.4751 H   0  0  0  0  0  0  0  0  0  0  0  0  # atno 10764 bound_to 10752
  153.0936  135.4947  154.8659 H   0  0  0  0  0  0  0  0  0  0  0  0  # atno 10765 bound_to 10752
  140.4902  134.5992  157.4952 H   0  0  0  0  0  0  0  0  0  0  0  0  # atno 11005 bound_to 11000
  144.8221  139.5773  143.6982 LP  0  0  0  0  0  0  0  0  0  0  0  0  # atno 17320 bound_to 7965
  146.2638  139.6472  142.9344 LP  0  0  0  0  0  0  0  0  0  0  0  0  # atno 17321 bound_to 7965
  140.7283  143.2660  151.4044 LP  0  0  0  0  0  0  0  0  0  0  0  0  # atno 17342 bound_to 10162
  139.6047  144.1222  152.2236 LP  0  0  0  0  0  0  0  0  0  0  0  0  # atno 17343 bound_to 10162
  157.0780  131.0135  151.3167 LP  0  0  0  0  0  0  0  0  0  0  0  0  # atno 17370 bound_to 10713
  157.4949  130.7844  149.7545 LP  0  0  0  0  0  0  0  0  0  0  0  0  # atno 17371 bound_to 10713
  139.9774  134.7193  155.9924 LP  0  0  0  0  0  0  0  0  0  0  0  0  # atno 17394 bound_to 11000
  141.1488  133.6551  156.3949 LP  0  0  0  0  0  0  0  0  0  0  0  0  # atno 17395 bound_to 11000

$$$$
