AV-unprocessed.smi:1428|AV-procd|sdf|5817|dock9
  -GOLD-   22720 5473D 1   1.00000     0.00000
 Structure written by MMmdl.
 43 44  0  0  0  0  0  0  0  0  3 V2000
  151.5245  138.3170  154.7244 C   0  0  0  0  0  0  0  0  0  0  0  0
  150.2375  138.2543  154.1194 O   0  0  0  0  0  0  0  0  0  0  0  0
  149.4318  139.3763  154.1661 C   0  0  0  0  0  0  0  0  0  0  0  0
  149.9860  140.5533  154.5510 N   0  0  0  0  0  0  0  0  0  0  0  0
  149.2014  141.6493  154.5947 C   0  0  0  0  0  0  0  0  0  0  0  0
  147.8364  141.6333  154.2546 C   0  0  0  0  0  0  0  0  0  0  0  0
  147.2590  140.4141  153.8547 C   0  0  0  0  0  0  0  0  0  0  0  0
  148.0665  139.2512  153.8178 C   0  0  0  0  0  0  0  0  0  0  0  0
  147.5916  137.9729  153.4133 N   0  0  0  0  0  0  0  0  0  0  0  0
  146.3326  137.5038  153.4261 C   0  0  0  0  0  0  0  0  0  0  0  0
  145.3406  138.1325  153.7939 O   0  0  0  0  0  0  0  0  0  0  0  0
  146.2862  136.2329  153.0016 N   0  0  0  0  0  0  0  0  0  0  0  0
  145.0761  135.4177  152.9009 C   0  0  2  0  0  0  0  0  0  0  0  0
  144.2897  135.3890  154.2268 C   0  0  0  0  0  0  0  0  0  0  0  0
  145.0220  134.5825  155.3135 C   0  0  0  0  0  0  0  0  0  0  0  0
  145.3119  133.2019  154.8512 N   0  3  2  0  0  0  0  0  0  0  0  0
  145.8840  132.3559  155.9285 C   0  0  0  0  0  0  0  0  0  0  0  0
  145.0898  132.5367  157.2271 C   0  0  0  0  0  0  0  0  0  0  0  0
  143.8303  132.0706  157.1294 N   0  5  0  0  0  0  0  0  0  0  0  0
  145.6236  133.0716  158.1971 O   0  0  0  0  0  0  0  0  0  0  0  0
  146.1290  133.2008  153.6078 C   0  0  0  0  0  0  0  0  0  0  0  0
  145.4290  133.9805  152.4793 C   0  0  0  0  0  0  0  0  0  0  0  0
  152.0266  137.3570  154.6053 H   0  0  0  0  0  0  0  0  0  0  0  0
  151.4528  138.5215  155.7936 H   0  0  0  0  0  0  0  0  0  0  0  0
  152.1498  139.0778  154.2550 H   0  0  0  0  0  0  0  0  0  0  0  0
  149.6776  142.5681  154.9039 H   0  0  0  0  0  0  0  0  0  0  0  0
  147.2466  142.5372  154.2948 H   0  0  0  0  0  0  0  0  0  0  0  0
  146.2180  140.3999  153.5721 H   0  0  0  0  0  0  0  0  0  0  0  0
  148.3096  137.3113  153.1563 H   0  0  0  0  0  0  0  0  0  0  0  0
  147.1524  135.7983  152.7182 H   0  0  0  0  0  0  0  0  0  0  0  0
  144.4435  135.8529  152.1250 H   0  0  0  0  0  0  0  0  0  0  0  0
  144.0919  136.4010  154.5817 H   0  0  0  0  0  0  0  0  0  0  0  0
  143.3123  134.9385  154.0506 H   0  0  0  0  0  0  0  0  0  0  0  0
  145.9528  135.0778  155.5946 H   0  0  0  0  0  0  0  0  0  0  0  0
  144.4003  134.5478  156.2089 H   0  0  0  0  0  0  0  0  0  0  0  0
  145.9355  131.3143  155.6037 H   0  0  0  0  0  0  0  0  0  0  0  0
  146.9078  132.6667  156.1417 H   0  0  0  0  0  0  0  0  0  0  0  0
  143.4257  131.9219  156.1972 H   0  0  0  0  0  0  0  0  0  0  0  0
  147.1093  133.6325  153.8156 H   0  0  0  0  0  0  0  0  0  0  0  0
  146.3044  132.1780  153.2728 H   0  0  0  0  0  0  0  0  0  0  0  0
  144.5142  133.4550  152.2016 H   0  0  0  0  0  0  0  0  0  0  0  0
  146.0546  133.9904  151.5858 H   0  0  0  0  0  0  0  0  0  0  0  0
  144.4214  132.7849  154.6192 H   0  0  0  0  0  0  0  0  0  0  0  0
  1  2  1  0  0  0  0
  1 23  1  0  0  0  0
  1 24  1  0  0  0  0
  1 25  1  0  0  0  0
  2  3  1  0  0  0  0
  3  8  1  0  0  0  0
  3  4  2  0  0  0  0
  4  5  1  0  0  0  0
  5  6  2  0  0  0  0
  5 26  1  0  0  0  0
  6  7  1  0  0  0  0
  6 27  1  0  0  0  0
  7  8  2  0  0  0  0
  7 28  1  0  0  0  0
  8  9  1  0  0  0  0
  9 10  1  0  0  0  0
  9 29  1  0  0  0  0
 10 11  2  0  0  0  0
 10 12  1  0  0  0  0
 12 13  1  0  0  0  0
 12 30  1  0  0  0  0
 13 22  1  0  0  0  0
 13 14  1  0  0  0  0
 13 31  1  0  0  0  0
 14 15  1  0  0  0  0
 14 32  1  0  0  0  0
 14 33  1  0  0  0  0
 15 16  1  0  0  0  0
 15 34  1  0  0  0  0
 15 35  1  0  0  0  0
 16 17  1  0  0  0  0
 16 21  1  0  0  0  0
 16 43  1  0  0  0  0
 17 18  1  0  0  0  0
 17 36  1  0  0  0  0
 17 37  1  0  0  0  0
 18 19  1  0  0  0  0
 18 20  2  0  0  0  0
 19 38  1  0  0  0  0
 21 22  1  0  0  0  0
 21 39  1  0  0  0  0
 21 40  1  0  0  0  0
 22 41  1  0  0  0  0
 22 42  1  0  0  0  0
M  CHG  1  16   1
M  CHG  1  19  -1
M  END
> <s_m_source_file>
AV-unprocessed.smi

> <i_m_source_file_index>
1428

> <i_lp_mmshare_version>
43012

> <i_f3d_flags>
0

> <s_epik_input>
W0NIM11PYzFuW2NIXVtjSF1bY0hdYzFbTkhdQyg9TylbTkhdW0NIXTJbQ0gyXVtDSDJdTihbQ0gyXVtDSDJdMilbQ0gyXUMoPU8pW05IMl0=

> <s_epik_cmdline>
J2VwaWtfcHl0aG9uJywgJy1waCcsICc3LjAnLCAnLXRuJywgJzgnLCAnLW1hJywgJzIwMCcsICctbWV0YWxfYmluZGluZycsICctaW1hZScsICc8aW5maWxlLm1hZT4nLCAnLW9tYWUnLCAnPG91dGZpbGUubWFlPic=

> <r_lp_tautomer_probability>
1

> <r_epik_Ionization_Penalty>
5.72888

> <r_epik_Ionization_Penalty_Charging>
5.7288

> <r_epik_Ionization_Penalty_Neutral>
7.84403e-05

> <r_epik_State_Penalty>
6.54882

> <r_epik_Charging_Adjusted_Penalty>
12.2776

> <i_epik_Tot_Q>
0

> <i_epik_Tot_abs_Q>
2

> <r_epik_Metal_State_Penalty>
2.51301

> <b_epik_Metal_Only>
1

> <s_lp_Force_Field>
OPLS_2005

> <r_lp_Energy>
10.1368

> <b_lp_Chiralities_Consistent>
1

> <s_lp_Variant>
AV-unprocessed.smi:1428-5

> <Gold.Version>
5.8.1

> <Gold.Id.Protein>
6NUR|6NUR_protein|mol2

> <Gold.PLP.Fitness>
44.7990

> <Gold.PLP.PLP>
-25.5599

> <Gold.PLP.part.hbond>
-5.0000

> <Gold.PLP.part.metal>
0.0000

> <Gold.PLP.part.buried>
-3.3962

> <Gold.PLP.part.nonpolar>
-18.2938

> <Gold.PLP.part.repulsive>
0.5526

> <Gold.PLP.ligand.clash>
0.0000

> <Gold.PLP.ligand.torsion>
0.3929

> <Gold.PLP.Chemscore.Hbond>
5.6644

> <Gold.PLP.Chemscore.CHOScore>
1.0000

> <Gold.PLP.Chemscore.Metal>
0.0000

> <Gold.Chemscore.Hbonds>
donor molecule, donor type, donor heavy atom, donor atom, acceptor molecule, acceptor atom, score
      L1  H     9    29       P1  7948  0.93
      L1  H    12    30       P1  7948  0.85
      L1  H    16    43       P1 10957  2.00
      L1  H    19    38       P1 10957  1.00
      P1  H  7989  7998       L1     4  0.85
      L1  C     5    26       P1  8028  1.00

> <Gold.PLP.Chemscore.Internal.Correction>
0.0315

> <Gold.Rescore>
     Score         DG    S(hbond)    S(metal)    S(lipo)     H(rot)  DE(clash)    DE(int)     intcor
     16.29     -19.23       4.14        0.00      49.58       2.29       0.24       2.70       ----

> <Gold.Chemscore.Fitness>
16.2913

> <Gold.Chemscore.DG>
-19.2328

> <Gold.Chemscore.ZeroCoef>
-5.4800

> <Gold.Chemscore.Hbond>
4.1356

> <Gold.Chemscore.Metal>
0.0000

> <Gold.Chemscore.Lipo>
49.5798

> <Gold.Chemscore.Internal_Hbond>
0.0000

> <Gold.Chemscore.DEClash>
0.2399

> <Gold.Chemscore.DEInternal>
2.7016

> <Gold.Chemscore.Rot>
2.2894

> <Gold.Chemscore.Internal.Correction>
   9.000000E+99

> <Gold.Chemscore.Hbonds>
donor molecule, donor type, donor heavy atom, donor atom, acceptor molecule, acceptor atom, score
      L1  H     9    29       P1  7948  0.90
      L1  H    12    30       P1  7948  0.78
      L1  H    16    43       P1 10957  0.92
      L1  H    19    38       P1 10957  0.90
      P1  H  7989  7998       L1     4  0.45

> <Gold.Chemscore.Hbond.Weighted>
-13.8128

> <Gold.Chemscore.Metal.Weighted>
-0.0000

> <Gold.Chemscore.Lipo.Weighted>
-5.8008

> <Gold.Chemscore.Internal_Hbond.Weighted>
0.0000

> <Gold.Chemscore.DEClash.Weighted>
0.2399

> <Gold.Chemscore.DEInternal.Weighted>
2.7016

> <Gold.Chemscore.Rot.Weighted>
5.8608

> <Gold.Chemscore.Internal.Correction.Weighted>
   9.000000E+99

> <Gold.Protein.RotatedTorsions>
[ 6907 6896 6895 6894 ] final -158.00 input  -60.11 | X-H torsion
[ 7974 7965 7964 7962 ] final  -93.97 input  175.53 | X-H torsion
[ 8008 7997 7996 7995 ] final   72.03 input   59.86 | X-H torsion
[ 10167 10162 10161 10158 ] final  -20.23 input  -65.29 | X-H torsion
[ 10718 10713 10712 10709 ] final  -88.74 input   66.30 | X-H torsion
[ 10763 10752 10751 10750 ] final  157.00 input  -60.55 | X-H torsion
[ 11005 11000 10999 10996 ] final  173.09 input  -57.11 | X-H torsion

> <Gold.Protein.ActiveResidues>
 VAL166  LYS551  ARG553  GLY616  TRP617  ASP618  TYR619  PRO620  LYS621  CYS622 
 ASP623  PHE694  ASN695  SER759  ASP760  ASP761  ALA762  ILE779  LEU786  VAL792 
 PHE793  MET794  SER795  GLU796  ALA797  LYS798  CYS799  TRP800  GLU811  SER814 

> <Gold.Protein.RotatedAtoms>
  151.3114  133.4079  159.2646 H   0  0  0  0  0  0  0  0  0  0  0  0  # atno 6907 bound_to 6896
  151.0111  134.9398  159.8018 H   0  0  0  0  0  0  0  0  0  0  0  0  # atno 6908 bound_to 6896
  152.5301  134.3079  159.9155 H   0  0  0  0  0  0  0  0  0  0  0  0  # atno 6909 bound_to 6896
  145.3794  140.9515  143.2402 H   0  0  0  0  0  0  0  0  0  0  0  0  # atno 7974 bound_to 7965
  155.7627  140.3486  155.5206 H   0  0  0  0  0  0  0  0  0  0  0  0  # atno 8008 bound_to 7997
  155.8898  140.1016  157.1447 H   0  0  0  0  0  0  0  0  0  0  0  0  # atno 8009 bound_to 7997
  154.4032  140.1306  156.4289 H   0  0  0  0  0  0  0  0  0  0  0  0  # atno 8010 bound_to 7997
  140.7274  143.4742  151.0205 H   0  0  0  0  0  0  0  0  0  0  0  0  # atno 10167 bound_to 10162
  155.9983  130.4846  150.5064 H   0  0  0  0  0  0  0  0  0  0  0  0  # atno 10718 bound_to 10713
  154.1932  135.2794  155.3015 H   0  0  0  0  0  0  0  0  0  0  0  0  # atno 10763 bound_to 10752
  154.5912  135.5559  153.7284 H   0  0  0  0  0  0  0  0  0  0  0  0  # atno 10764 bound_to 10752
  153.0107  135.6369  154.2071 H   0  0  0  0  0  0  0  0  0  0  0  0  # atno 10765 bound_to 10752
  140.3367  134.7311  157.4173 H   0  0  0  0  0  0  0  0  0  0  0  0  # atno 11005 bound_to 11000
  144.8518  139.5310  143.6853 LP  0  0  0  0  0  0  0  0  0  0  0  0  # atno 17320 bound_to 7965
  146.2849  139.6976  142.9203 LP  0  0  0  0  0  0  0  0  0  0  0  0  # atno 17321 bound_to 7965
  139.8436  143.7531  152.3180 LP  0  0  0  0  0  0  0  0  0  0  0  0  # atno 17342 bound_to 10162
  139.7688  144.7483  151.0255 LP  0  0  0  0  0  0  0  0  0  0  0  0  # atno 17343 bound_to 10162
  157.3043  131.0651  151.2046 LP  0  0  0  0  0  0  0  0  0  0  0  0  # atno 17370 bound_to 10713
  157.3015  130.6845  149.6166 LP  0  0  0  0  0  0  0  0  0  0  0  0  # atno 17371 bound_to 10713
  140.0815  134.5725  155.8536 LP  0  0  0  0  0  0  0  0  0  0  0  0  # atno 17394 bound_to 11000
  141.2049  133.6643  156.6150 LP  0  0  0  0  0  0  0  0  0  0  0  0  # atno 17395 bound_to 11000

$$$$
