AV-unprocessed.smi:404|AV-procd|sdf|2497|dock6
  -GOLD-   2262022443D 1   1.00000     0.00000
 Structure written by MMmdl.
 44 45  0  0  0  0  0  0  0  0  1 V2000
  143.6914  132.6304  149.8966 C   0  0  0  0  0  0  0  0  0  0  0  0
  144.8466  132.5040  150.8484 C   0  0  0  0  0  0  0  0  0  0  0  0
  145.0663  131.3477  151.4520 N   0  0  0  0  0  0  0  0  0  0  0  0
  146.1476  131.5642  152.2275 N   0  0  0  0  0  0  0  0  0  0  0  0
  146.6660  130.4834  153.0435 C   0  0  0  0  0  0  0  0  0  0  0  0
  146.6100  132.8607  152.1160 C   0  0  0  0  0  0  0  0  0  0  0  0
  147.7947  133.3518  152.8838 C   0  0  0  0  0  0  0  0  0  0  0  0
  145.7908  133.5035  151.2263 C   0  0  0  0  0  0  0  0  0  0  0  0
  145.8538  134.9330  150.7519 C   0  0  0  0  0  0  0  0  0  0  0  0
  145.5096  135.8718  151.9079 C   0  0  0  0  0  0  0  0  0  0  0  0
  144.3656  135.8934  152.3618 O   0  0  0  0  0  0  0  0  0  0  0  0
  146.5073  136.6412  152.3708 N   0  0  0  0  0  0  0  0  0  0  0  0
  146.3953  137.6266  153.4422 C   0  0  0  0  0  0  0  0  0  0  0  0
  147.4669  138.7331  153.3449 C   0  0  0  0  0  0  0  0  0  0  0  0
  148.6933  138.4654  154.2471 C   0  0  0  0  0  0  0  0  0  0  0  0
  149.7304  139.5970  154.1565 C   0  0  0  0  0  0  0  0  0  0  0  0
  149.1033  140.9600  154.4837 C   0  0  0  0  0  0  0  0  0  0  0  0
  147.8931  141.2385  153.5807 C   0  0  0  0  0  0  0  0  0  0  0  0
  146.8551  140.1092  153.6805 C   0  0  0  0  0  0  0  0  0  0  0  0
  142.9103  133.2637  150.3169 H   0  0  0  0  0  0  0  0  0  0  0  0
  143.2457  131.6610  149.6695 H   0  0  0  0  0  0  0  0  0  0  0  0
  144.0090  133.0754  148.9537 H   0  0  0  0  0  0  0  0  0  0  0  0
  147.7339  130.3627  152.8593 H   0  0  0  0  0  0  0  0  0  0  0  0
  146.1606  129.5456  152.8077 H   0  0  0  0  0  0  0  0  0  0  0  0
  146.5095  130.7145  154.0976 H   0  0  0  0  0  0  0  0  0  0  0  0
  147.9402  134.4230  152.7454 H   0  0  0  0  0  0  0  0  0  0  0  0
  148.7036  132.8450  152.5586 H   0  0  0  0  0  0  0  0  0  0  0  0
  147.6675  133.1697  153.9511 H   0  0  0  0  0  0  0  0  0  0  0  0
  146.8462  135.1859  150.3774 H   0  0  0  0  0  0  0  0  0  0  0  0
  145.1691  135.1090  149.9214 H   0  0  0  0  0  0  0  0  0  0  0  0
  147.4128  136.5498  151.9333 H   0  0  0  0  0  0  0  0  0  0  0  0
  145.4034  138.0724  153.3626 H   0  0  0  0  0  0  0  0  0  0  0  0
  146.4306  137.1472  154.4222 H   0  0  0  0  0  0  0  0  0  0  0  0
  147.8135  138.7701  152.3108 H   0  0  0  0  0  0  0  0  0  0  0  0
  148.3693  138.3504  155.2823 H   0  0  0  0  0  0  0  0  0  0  0  0
  149.1741  137.5277  153.9693 H   0  0  0  0  0  0  0  0  0  0  0  0
  150.5582  139.3965  154.8371 H   0  0  0  0  0  0  0  0  0  0  0  0
  150.1553  139.6224  153.1523 H   0  0  0  0  0  0  0  0  0  0  0  0
  148.7929  140.9791  155.5292 H   0  0  0  0  0  0  0  0  0  0  0  0
  149.8458  141.7498  154.3660 H   0  0  0  0  0  0  0  0  0  0  0  0
  147.4356  142.1893  153.8556 H   0  0  0  0  0  0  0  0  0  0  0  0
  148.2236  141.3419  152.5465 H   0  0  0  0  0  0  0  0  0  0  0  0
  146.0244  140.3223  153.0070 H   0  0  0  0  0  0  0  0  0  0  0  0
  146.4368  140.0902  154.6879 H   0  0  0  0  0  0  0  0  0  0  0  0
  1  2  1  0  0  0  0
  1 20  1  0  0  0  0
  1 21  1  0  0  0  0
  1 22  1  0  0  0  0
  2  8  1  0  0  0  0
  2  3  2  0  0  0  0
  3  4  1  0  0  0  0
  4  5  1  0  0  0  0
  4  6  1  0  0  0  0
  5 23  1  0  0  0  0
  5 24  1  0  0  0  0
  5 25  1  0  0  0  0
  6  7  1  0  0  0  0
  6  8  2  0  0  0  0
  7 26  1  0  0  0  0
  7 27  1  0  0  0  0
  7 28  1  0  0  0  0
  8  9  1  0  0  0  0
  9 10  1  0  0  0  0
  9 29  1  0  0  0  0
  9 30  1  0  0  0  0
 10 11  2  0  0  0  0
 10 12  1  0  0  0  0
 12 13  1  0  0  0  0
 12 31  1  0  0  0  0
 13 14  1  0  0  0  0
 13 32  1  0  0  0  0
 13 33  1  0  0  0  0
 14 19  1  0  0  0  0
 14 15  1  0  0  0  0
 14 34  1  0  0  0  0
 15 16  1  0  0  0  0
 15 35  1  0  0  0  0
 15 36  1  0  0  0  0
 16 17  1  0  0  0  0
 16 37  1  0  0  0  0
 16 38  1  0  0  0  0
 17 18  1  0  0  0  0
 17 39  1  0  0  0  0
 17 40  1  0  0  0  0
 18 19  1  0  0  0  0
 18 41  1  0  0  0  0
 18 42  1  0  0  0  0
 19 43  1  0  0  0  0
 19 44  1  0  0  0  0
M  END
> <s_m_source_file>
AV-unprocessed.smi

> <i_m_source_file_index>
404

> <i_lp_mmshare_version>
43012

> <i_f3d_flags>
0

> <s_epik_input>
W0NIM11jMW5uKFtDSDNdKWMoW0NIM10pYzFbQ0gyXUMoPU8pW05IXVtDSDJdW0NIXTJbQ0gyXVtDSDJdW0NIMl1bQ0gyXVtDSDJdMg==

> <s_epik_cmdline>
J2VwaWtfcHl0aG9uJywgJy1waCcsICc3LjAnLCAnLXRuJywgJzgnLCAnLW1hJywgJzIwMCcsICctbWV0YWxfYmluZGluZycsICctaW1hZScsICc8aW5maWxlLm1hZT4nLCAnLW9tYWUnLCAnPG91dGZpbGUubWFlPic=

> <r_lp_tautomer_probability>
1

> <r_epik_Ionization_Penalty>
0.00317479

> <r_epik_Ionization_Penalty_Charging>
0

> <r_epik_Ionization_Penalty_Neutral>
0.00317479

> <r_epik_State_Penalty>
0.00223767

> <r_epik_Charging_Adjusted_Penalty>
0.00223767

> <i_epik_Tot_Q>
0

> <i_epik_Tot_abs_Q>
0

> <r_epik_Metal_State_Penalty>
-0

> <b_epik_Metal_Only>
0

> <s_lp_Force_Field>
OPLS_2005

> <r_lp_Energy>
5.4513

> <b_lp_Chiralities_Consistent>
1

> <s_lp_Variant>
AV-unprocessed.smi:404-1

> <Gold.Version>
5.8.1

> <Gold.Id.Protein>
6NUR|6NUR_protein|mol2

> <Gold.PLP.Fitness>
36.3176

> <Gold.PLP.PLP>
-34.9767

> <Gold.PLP.part.hbond>
-1.0000

> <Gold.PLP.part.metal>
0.0000

> <Gold.PLP.part.buried>
-5.3825

> <Gold.PLP.part.nonpolar>
-29.6545

> <Gold.PLP.part.repulsive>
0.2938

> <Gold.PLP.ligand.clash>
0.0000

> <Gold.PLP.ligand.torsion>
0.8346

> <Gold.PLP.Chemscore.Hbond>
1.0000

> <Gold.PLP.Chemscore.CHOScore>
0.0000

> <Gold.PLP.Chemscore.Metal>
0.0000

> <Gold.Chemscore.Hbonds>
donor molecule, donor type, donor heavy atom, donor atom, acceptor molecule, acceptor atom, score
      L1  H    12    31       P1  7948  1.00

> <Gold.PLP.Chemscore.Internal.Correction>
0.0102

> <Gold.Rescore>
     Score         DG    S(hbond)    S(metal)    S(lipo)     H(rot)  DE(clash)    DE(int)     intcor
     14.64     -15.48       0.98        0.00      87.65       1.38       0.21       0.64       ----

> <Gold.Chemscore.Fitness>
14.6351

> <Gold.Chemscore.DG>
-15.4791

> <Gold.Chemscore.ZeroCoef>
-5.4800

> <Gold.Chemscore.Hbond>
0.9784

> <Gold.Chemscore.Metal>
0.0000

> <Gold.Chemscore.Lipo>
87.6547

> <Gold.Chemscore.Internal_Hbond>
0.0000

> <Gold.Chemscore.DEClash>
0.2077

> <Gold.Chemscore.DEInternal>
0.6363

> <Gold.Chemscore.Rot>
1.3768

> <Gold.Chemscore.Internal.Correction>
   9.000000E+99

> <Gold.Chemscore.Hbonds>
donor molecule, donor type, donor heavy atom, donor atom, acceptor molecule, acceptor atom, score
      L1  H    12    31       P1  7948  0.94

> <Gold.Chemscore.Hbond.Weighted>
-3.2680

> <Gold.Chemscore.Metal.Weighted>
-0.0000

> <Gold.Chemscore.Lipo.Weighted>
-10.2556

> <Gold.Chemscore.Internal_Hbond.Weighted>
0.0000

> <Gold.Chemscore.DEClash.Weighted>
0.2077

> <Gold.Chemscore.DEInternal.Weighted>
0.6363

> <Gold.Chemscore.Rot.Weighted>
3.5245

> <Gold.Chemscore.Internal.Correction.Weighted>
   9.000000E+99

> <Gold.Protein.RotatedTorsions>
[ 6907 6896 6895 6894 ] final -124.92 input  -60.11 | X-H torsion
[ 7974 7965 7964 7962 ] final  -45.06 input  175.53 | X-H torsion
[ 8008 7997 7996 7995 ] final  -75.20 input   59.86 | X-H torsion
[ 10167 10162 10161 10158 ] final  100.22 input  -65.29 | X-H torsion
[ 10718 10713 10712 10709 ] final   93.80 input   66.30 | X-H torsion
[ 10763 10752 10751 10750 ] final  -39.12 input  -60.55 | X-H torsion
[ 11005 11000 10999 10996 ] final -149.35 input  -57.11 | X-H torsion

> <Gold.Protein.ActiveResidues>
 VAL166  LYS551  ARG553  GLY616  TRP617  ASP618  TYR619  PRO620  LYS621  CYS622 
 ASP623  PHE694  ASN695  SER759  ASP760  ASP761  ALA762  ILE779  LEU786  VAL792 
 PHE793  MET794  SER795  GLU796  ALA797  LYS798  CYS799  TRP800  GLU811  SER814 

> <Gold.Protein.RotatedAtoms>
  150.8815  133.7365  159.2930 H   0  0  0  0  0  0  0  0  0  0  0  0  # atno 6907 bound_to 6896
  151.4945  135.1057  159.9822 H   0  0  0  0  0  0  0  0  0  0  0  0  # atno 6908 bound_to 6896
  152.4763  133.8100  159.7054 H   0  0  0  0  0  0  0  0  0  0  0  0  # atno 6909 bound_to 6896
  145.9858  140.7234  142.9341 H   0  0  0  0  0  0  0  0  0  0  0  0  # atno 7974 bound_to 7965
  154.5396  140.0748  156.8487 H   0  0  0  0  0  0  0  0  0  0  0  0  # atno 8008 bound_to 7997
  155.3207  140.3396  155.4223 H   0  0  0  0  0  0  0  0  0  0  0  0  # atno 8009 bound_to 7997
  156.1862  140.1669  156.8168 H   0  0  0  0  0  0  0  0  0  0  0  0  # atno 8010 bound_to 7997
  139.7547  144.6973  151.0381 H   0  0  0  0  0  0  0  0  0  0  0  0  # atno 10167 bound_to 10162
  157.6952  131.0490  150.4088 H   0  0  0  0  0  0  0  0  0  0  0  0  # atno 10718 bound_to 10713
  153.9242  135.6779  153.4747 H   0  0  0  0  0  0  0  0  0  0  0  0  # atno 10763 bound_to 10752
  153.1013  135.4826  154.8869 H   0  0  0  0  0  0  0  0  0  0  0  0  # atno 10764 bound_to 10752
  154.7462  135.3173  154.8597 H   0  0  0  0  0  0  0  0  0  0  0  0  # atno 10765 bound_to 10752
  140.7517  134.3399  157.5124 H   0  0  0  0  0  0  0  0  0  0  0  0  # atno 11005 bound_to 11000
  144.6874  140.2986  143.7267 LP  0  0  0  0  0  0  0  0  0  0  0  0  # atno 17320 bound_to 7965
  145.7702  139.1855  143.2216 LP  0  0  0  0  0  0  0  0  0  0  0  0  # atno 17321 bound_to 7965
  140.7801  143.4768  151.0072 LP  0  0  0  0  0  0  0  0  0  0  0  0  # atno 17342 bound_to 10162
  139.8455  143.7507  152.3179 LP  0  0  0  0  0  0  0  0  0  0  0  0  # atno 17343 bound_to 10162
  156.4474  130.4004  149.6657 LP  0  0  0  0  0  0  0  0  0  0  0  0  # atno 17370 bound_to 10713
  156.3819  130.7583  151.2577 LP  0  0  0  0  0  0  0  0  0  0  0  0  # atno 17371 bound_to 10713
  139.8786  134.9146  156.3111 LP  0  0  0  0  0  0  0  0  0  0  0  0  # atno 17394 bound_to 11000
  140.9745  133.7306  156.0582 LP  0  0  0  0  0  0  0  0  0  0  0  0  # atno 17395 bound_to 11000

$$$$
