AV-unprocessed.smi:3350|AV-procd|sdf|12945|dock8
  -GOLD-   2272019383D 1   1.00000     0.00000
 Structure written by MMmdl.
 41 42  0  0  0  0  0  0  0  0  1 V2000
  146.1005  137.0569  150.7731 C   0  0  0  0  0  0  0  0  0  0  0  0
  145.0409  136.3401  151.6207 C   0  0  2  0  0  0  0  0  0  0  0  0
  144.1447  135.4333  150.7492 C   0  0  0  0  0  0  0  0  0  0  0  0
  144.6379  134.0703  150.6572 N   0  0  0  0  0  0  0  0  0  0  0  0
  144.0399  132.9808  150.0598 C   0  0  0  0  0  0  0  0  0  0  0  0
  144.8699  131.9118  150.2400 C   0  0  0  0  0  0  0  0  0  0  0  0
  145.9687  132.4559  150.9616 C   0  0  0  0  0  0  0  0  0  0  0  0
  145.8299  133.7491  151.2048 N   0  0  0  0  0  0  0  0  0  0  0  0
  144.2410  137.3416  152.3254 N   0  0  0  0  0  0  0  0  0  0  0  0
  143.3080  137.0837  153.2532 C   0  0  0  0  0  0  0  0  0  0  0  0
  143.0169  135.9539  153.6458 O   0  0  0  0  0  0  0  0  0  0  0  0
  142.7150  138.2065  153.6839 N   0  0  0  0  0  0  0  0  0  0  0  0
  141.6325  138.2781  154.6643 C   0  0  1  0  0  0  0  0  0  0  0  0
  141.3370  139.7545  154.9669 C   0  0  0  0  0  0  0  0  0  0  0  0
  140.3812  137.5363  154.1476 C   0  0  1  0  0  0  0  0  0  0  0  0
  139.2203  137.4480  155.1422 C   0  0  0  0  0  0  0  0  0  0  0  0
  138.0320  137.2992  154.2221 C   0  0  0  0  0  0  0  0  0  0  0  0
  138.4131  138.2360  153.0817 C   0  0  0  0  0  0  0  0  0  0  0  0
  139.8361  138.2063  153.0117 O   0  0  0  0  0  0  0  0  0  0  0  0
  146.7383  136.3398  150.2551 H   0  0  0  0  0  0  0  0  0  0  0  0
  146.7452  137.6798  151.3940 H   0  0  0  0  0  0  0  0  0  0  0  0
  145.6411  137.6981  150.0199 H   0  0  0  0  0  0  0  0  0  0  0  0
  145.5754  135.7189  152.3420 H   0  0  0  0  0  0  0  0  0  0  0  0
  143.1268  135.4113  151.1408 H   0  0  0  0  0  0  0  0  0  0  0  0
  144.0779  135.8340  149.7365 H   0  0  0  0  0  0  0  0  0  0  0  0
  143.0800  133.0540  149.5704 H   0  0  0  0  0  0  0  0  0  0  0  0
  144.7146  130.8959  149.9088 H   0  0  0  0  0  0  0  0  0  0  0  0
  146.8577  131.9534  151.3130 H   0  0  0  0  0  0  0  0  0  0  0  0
  144.4029  138.3060  152.0752 H   0  0  0  0  0  0  0  0  0  0  0  0
  143.0285  139.0838  153.2953 H   0  0  0  0  0  0  0  0  0  0  0  0
  141.9496  137.8097  155.5979 H   0  0  0  0  0  0  0  0  0  0  0  0
  140.5598  139.8537  155.7250 H   0  0  0  0  0  0  0  0  0  0  0  0
  141.0002  140.2844  154.0753 H   0  0  0  0  0  0  0  0  0  0  0  0
  142.2255  140.2633  155.3421 H   0  0  0  0  0  0  0  0  0  0  0  0
  140.6490  136.5261  153.8333 H   0  0  0  0  0  0  0  0  0  0  0  0
  139.3232  136.6187  155.8419 H   0  0  0  0  0  0  0  0  0  0  0  0
  139.1298  138.3716  155.7158 H   0  0  0  0  0  0  0  0  0  0  0  0
  137.9623  136.2719  153.8617 H   0  0  0  0  0  0  0  0  0  0  0  0
  137.0859  137.5639  154.6949 H   0  0  0  0  0  0  0  0  0  0  0  0
  137.9605  137.9450  152.1337 H   0  0  0  0  0  0  0  0  0  0  0  0
  138.1010  139.2559  153.3080 H   0  0  0  0  0  0  0  0  0  0  0  0
  1  2  1  0  0  0  0
  1 20  1  0  0  0  0
  1 21  1  0  0  0  0
  1 22  1  0  0  0  0
  2  3  1  0  0  0  0
  2  9  1  0  0  0  0
  2 23  1  0  0  0  0
  3  4  1  0  0  0  0
  3 24  1  0  0  0  0
  3 25  1  0  0  0  0
  4  8  1  0  0  0  0
  4  5  1  0  0  0  0
  5  6  2  0  0  0  0
  5 26  1  0  0  0  0
  6  7  1  0  0  0  0
  6 27  1  0  0  0  0
  7  8  2  0  0  0  0
  7 28  1  0  0  0  0
  9 10  1  0  0  0  0
  9 29  1  0  0  0  0
 10 11  2  0  0  0  0
 10 12  1  0  0  0  0
 12 13  1  0  0  0  0
 12 30  1  0  0  0  0
 13 14  1  0  0  0  0
 13 15  1  0  0  0  0
 13 31  1  0  0  0  0
 14 32  1  0  0  0  0
 14 33  1  0  0  0  0
 14 34  1  0  0  0  0
 15 19  1  0  0  0  0
 15 16  1  0  0  0  0
 15 35  1  0  0  0  0
 16 17  1  0  0  0  0
 16 36  1  0  0  0  0
 16 37  1  0  0  0  0
 17 18  1  0  0  0  0
 17 38  1  0  0  0  0
 17 39  1  0  0  0  0
 18 19  1  0  0  0  0
 18 40  1  0  0  0  0
 18 41  1  0  0  0  0
M  END
> <s_m_source_file>
AV-unprocessed.smi

> <i_m_source_file_index>
3350

> <i_lp_mmshare_version>
43012

> <i_f3d_flags>
0

> <s_epik_input>
bjFbY0hdW2NIXVtjSF1uMVtDSDJdW0NAQEhdKFtDSDNdKVtOSF1DKD1PKVtOSF1bQ0BIXShbQ0gzXSlbQ0BASF0yW0NIMl1bQ0gyXVtDSDJdTzI=

> <s_epik_cmdline>
J2VwaWtfcHl0aG9uJywgJy1waCcsICc3LjAnLCAnLXRuJywgJzgnLCAnLW1hJywgJzIwMCcsICctbWV0YWxfYmluZGluZycsICctaW1hZScsICc8aW5maWxlLm1hZT4nLCAnLW9tYWUnLCAnPG91dGZpbGUubWFlPic=

> <r_lp_tautomer_probability>
1

> <r_epik_Ionization_Penalty>
6.42349e-05

> <r_epik_Ionization_Penalty_Charging>
0

> <r_epik_Ionization_Penalty_Neutral>
6.42349e-05

> <r_epik_State_Penalty>
-0

> <r_epik_Charging_Adjusted_Penalty>
0

> <i_epik_Tot_Q>
0

> <i_epik_Tot_abs_Q>
0

> <r_epik_Metal_State_Penalty>
-0

> <b_epik_Metal_Only>
0

> <s_lp_Force_Field>
OPLS_2005

> <r_lp_Energy>
14.6241

> <b_lp_Chiralities_Consistent>
1

> <s_lp_Variant>
AV-unprocessed.smi:3350-7

> <Gold.Version>
5.8.1

> <Gold.Id.Protein>
6NUR|6NUR_protein|mol2

> <Gold.PLP.Fitness>
40.8054

> <Gold.PLP.PLP>
-31.9513

> <Gold.PLP.part.hbond>
-2.5678

> <Gold.PLP.part.metal>
0.0000

> <Gold.PLP.part.buried>
-1.9544

> <Gold.PLP.part.nonpolar>
-27.8638

> <Gold.PLP.part.repulsive>
0.4346

> <Gold.PLP.ligand.clash>
0.0000

> <Gold.PLP.ligand.torsion>
0.5298

> <Gold.PLP.Chemscore.Hbond>
1.2948

> <Gold.PLP.Chemscore.CHOScore>
2.0000

> <Gold.PLP.Chemscore.Metal>
0.0000

> <Gold.Chemscore.Hbonds>
donor molecule, donor type, donor heavy atom, donor atom, acceptor molecule, acceptor atom, score
      L1  H     9    29       P1 10175  0.31
      L1  H    12    30       P1 10175  1.00
      L1  C     5    26       P1 10186  1.00
      L1  C     7    28       P1 10747  0.82

> <Gold.PLP.Chemscore.Internal.Correction>
0.0291

> <Gold.Rescore>
     Score         DG    S(hbond)    S(metal)    S(lipo)     H(rot)  DE(clash)    DE(int)     intcor
     14.39     -16.73       1.91        0.00      81.40       1.82       1.86       0.48       ----

> <Gold.Chemscore.Fitness>
14.3910

> <Gold.Chemscore.DG>
-16.7320

> <Gold.Chemscore.ZeroCoef>
-5.4800

> <Gold.Chemscore.Hbond>
1.9123

> <Gold.Chemscore.Metal>
0.0000

> <Gold.Chemscore.Lipo>
81.3954

> <Gold.Chemscore.Internal_Hbond>
0.0000

> <Gold.Chemscore.DEClash>
1.8583

> <Gold.Chemscore.DEInternal>
0.4827

> <Gold.Chemscore.Rot>
1.8197

> <Gold.Chemscore.Internal.Correction>
   9.000000E+99

> <Gold.Chemscore.Hbonds>
donor molecule, donor type, donor heavy atom, donor atom, acceptor molecule, acceptor atom, score
      L1  H     9    29       P1 10175  0.30
      L1  H    12    30       P1 10175  1.00

> <Gold.Chemscore.Hbond.Weighted>
-6.3871

> <Gold.Chemscore.Metal.Weighted>
-0.0000

> <Gold.Chemscore.Lipo.Weighted>
-9.5233

> <Gold.Chemscore.Internal_Hbond.Weighted>
0.0000

> <Gold.Chemscore.DEClash.Weighted>
1.8583

> <Gold.Chemscore.DEInternal.Weighted>
0.4827

> <Gold.Chemscore.Rot.Weighted>
4.6583

> <Gold.Chemscore.Internal.Correction.Weighted>
   9.000000E+99

> <Gold.Protein.RotatedTorsions>
[ 6907 6896 6895 6894 ] final   21.19 input  -60.11 | X-H torsion
[ 7974 7965 7964 7962 ] final  -68.66 input  175.53 | X-H torsion
[ 8008 7997 7996 7995 ] final  120.66 input   59.86 | X-H torsion
[ 10167 10162 10161 10158 ] final -143.71 input  -65.29 | X-H torsion
[ 10718 10713 10712 10709 ] final -172.79 input   66.30 | X-H torsion
[ 10763 10752 10751 10750 ] final -130.12 input  -60.55 | X-H torsion
[ 11005 11000 10999 10996 ] final   80.91 input  -57.11 | X-H torsion

> <Gold.Protein.ActiveResidues>
 VAL166  LYS551  ARG553  GLY616  TRP617  ASP618  TYR619  PRO620  LYS621  CYS622 
 ASP623  PHE694  ASN695  SER759  ASP760  ASP761  ALA762  ILE779  LEU786  VAL792 
 PHE793  MET794  SER795  GLU796  ALA797  LYS798  CYS799  TRP800  GLU811  SER814 

> <Gold.Protein.RotatedAtoms>
  151.9079  135.0351  160.0511 H   0  0  0  0  0  0  0  0  0  0  0  0  # atno 6907 bound_to 6896
  152.2304  133.5049  159.5221 H   0  0  0  0  0  0  0  0  0  0  0  0  # atno 6908 bound_to 6896
  150.7024  134.1141  159.4053 H   0  0  0  0  0  0  0  0  0  0  0  0  # atno 6909 bound_to 6896
  145.7136  140.9068  143.0667 H   0  0  0  0  0  0  0  0  0  0  0  0  # atno 7974 bound_to 7965
  156.2652  140.2826  156.1185 H   0  0  0  0  0  0  0  0  0  0  0  0  # atno 8008 bound_to 7997
  155.1181  140.0392  157.2760 H   0  0  0  0  0  0  0  0  0  0  0  0  # atno 8009 bound_to 7997
  154.6691  140.2584  155.7032 H   0  0  0  0  0  0  0  0  0  0  0  0  # atno 8010 bound_to 7997
  139.7968  143.7889  152.2655 H   0  0  0  0  0  0  0  0  0  0  0  0  # atno 10167 bound_to 10162
  156.7607  130.9412  151.3118 H   0  0  0  0  0  0  0  0  0  0  0  0  # atno 10718 bound_to 10713
  154.8756  135.3873  154.4032 H   0  0  0  0  0  0  0  0  0  0  0  0  # atno 10763 bound_to 10752
  153.4754  135.7030  153.5974 H   0  0  0  0  0  0  0  0  0  0  0  0  # atno 10764 bound_to 10752
  153.4413  135.3855  155.2197 H   0  0  0  0  0  0  0  0  0  0  0  0  # atno 10765 bound_to 10752
  139.9117  134.7956  156.1972 H   0  0  0  0  0  0  0  0  0  0  0  0  # atno 11005 bound_to 11000
  144.6935  139.9108  143.7463 LP  0  0  0  0  0  0  0  0  0  0  0  0  # atno 17320 bound_to 7965
  146.0690  139.3679  143.0535 LP  0  0  0  0  0  0  0  0  0  0  0  0  # atno 17321 bound_to 7965
  139.7997  144.7379  150.9841 LP  0  0  0  0  0  0  0  0  0  0  0  0  # atno 17342 bound_to 10162
  140.7820  143.4357  151.0627 LP  0  0  0  0  0  0  0  0  0  0  0  0  # atno 17343 bound_to 10162
  157.6736  130.9073  150.0097 LP  0  0  0  0  0  0  0  0  0  0  0  0  # atno 17370 bound_to 10713
  156.1341  130.3643  149.9685 LP  0  0  0  0  0  0  0  0  0  0  0  0  # atno 17371 bound_to 10713
  141.0547  133.6871  156.1838 LP  0  0  0  0  0  0  0  0  0  0  0  0  # atno 17394 bound_to 11000
  140.6755  134.4823  157.5588 LP  0  0  0  0  0  0  0  0  0  0  0  0  # atno 17395 bound_to 11000

$$$$
