AV-unprocessed.smi:2768|AV-procd|sdf|10652|dock6
  -GOLD-   2272015103D 1   1.00000     0.00000
 Structure written by MMmdl.
 34 35  0  0  0  0  0  0  0  0  2 V2000
  151.9866  137.7595  156.5155 O   0  0  0  0  0  0  0  0  0  0  0  0
  152.0201  137.6461  155.2846 C   0  0  0  0  0  0  0  0  0  0  0  0
  152.3639  136.5717  154.5173 N   0  5  0  0  0  0  0  0  0  0  0  0
  152.1333  135.1757  154.8948 C   0  0  2  0  0  0  0  0  0  0  0  0
  153.4867  134.4223  154.9240 C   0  0  0  0  0  0  0  0  0  0  0  0
  153.3411  132.8992  155.1683 C   0  0  0  0  0  0  0  0  0  0  0  0
  152.4131  132.2218  154.1392 C   0  0  0  0  0  0  0  0  0  0  0  0
  151.0540  132.9511  154.1134 C   0  0  0  0  0  0  0  0  0  0  0  0
  151.1957  134.4775  153.8690 C   0  0  1  0  0  0  0  0  0  0  0  0
  149.9044  135.0522  153.9273 O   0  0  0  0  0  0  0  0  0  0  0  0
  151.6406  138.8753  154.4306 C   0  0  0  0  0  0  0  0  0  0  0  0
  152.6548  139.2180  153.6283 F   0  0  0  0  0  0  0  0  0  0  0  0
  150.6111  138.5453  153.6464 F   0  0  0  0  0  0  0  0  0  0  0  0
  151.2335  140.0455  155.3239 C   0  0  0  0  0  0  0  0  0  0  0  0
  152.0989  140.5115  156.3402 C   0  0  0  0  0  0  0  0  0  0  0  0
  151.6876  141.5999  157.1329 C   0  0  0  0  0  0  0  0  0  0  0  0
  150.4312  142.1838  156.8848 C   0  0  0  0  0  0  0  0  0  0  0  0
  149.6396  141.6510  155.8485 C   0  0  0  0  0  0  0  0  0  0  0  0
  150.0241  140.6074  155.0838 N   0  0  0  0  0  0  0  0  0  0  0  0
  151.6821  135.0797  155.8844 H   0  0  0  0  0  0  0  0  0  0  0  0
  151.5825  134.6297  152.8598 H   0  0  0  0  0  0  0  0  0  0  0  0
  154.0090  134.5741  153.9779 H   0  0  0  0  0  0  0  0  0  0  0  0
  154.1279  134.8508  155.6953 H   0  0  0  0  0  0  0  0  0  0  0  0
  154.3252  132.4311  155.1301 H   0  0  0  0  0  0  0  0  0  0  0  0
  152.9632  132.7145  156.1759 H   0  0  0  0  0  0  0  0  0  0  0  0
  152.8703  132.2607  153.1496 H   0  0  0  0  0  0  0  0  0  0  0  0
  152.2760  131.1684  154.3843 H   0  0  0  0  0  0  0  0  0  0  0  0
  150.4290  132.5134  153.3342 H   0  0  0  0  0  0  0  0  0  0  0  0
  150.5310  132.7639  155.0539 H   0  0  0  0  0  0  0  0  0  0  0  0
  149.5960  135.1684  153.0419 H   0  0  0  0  0  0  0  0  0  0  0  0
  153.0614  140.0495  156.5033 H   0  0  0  0  0  0  0  0  0  0  0  0
  152.3262  141.9809  157.9160 H   0  0  0  0  0  0  0  0  0  0  0  0
  150.0834  143.0205  157.4720 H   0  0  0  0  0  0  0  0  0  0  0  0
  148.6700  142.0732  155.6292 H   0  0  0  0  0  0  0  0  0  0  0  0
  1  2  2  0  0  0  0
  2  3  1  0  0  0  0
  2 11  1  0  0  0  0
  3  4  1  0  0  0  0
  4 20  1  0  0  0  0
  4  9  1  0  0  0  0
  4  5  1  0  0  0  0
  5  6  1  0  0  0  0
  5 22  1  0  0  0  0
  5 23  1  0  0  0  0
  6  7  1  0  0  0  0
  6 24  1  0  0  0  0
  6 25  1  0  0  0  0
  7  8  1  0  0  0  0
  7 26  1  0  0  0  0
  7 27  1  0  0  0  0
  8  9  1  0  0  0  0
  8 28  1  0  0  0  0
  8 29  1  0  0  0  0
  9 21  1  0  0  0  0
  9 10  1  0  0  0  0
 10 30  1  0  0  0  0
 11 12  1  0  0  0  0
 11 13  1  0  0  0  0
 11 14  1  0  0  0  0
 14 19  1  0  0  0  0
 14 15  2  0  0  0  0
 15 16  1  0  0  0  0
 15 31  1  0  0  0  0
 16 17  2  0  0  0  0
 16 32  1  0  0  0  0
 17 18  1  0  0  0  0
 17 33  1  0  0  0  0
 18 19  2  0  0  0  0
 18 34  1  0  0  0  0
M  CHG  1   3  -1
M  END
> <s_m_source_file>
AV-unprocessed.smi

> <i_m_source_file_index>
2768

> <i_lp_mmshare_version>
43012

> <i_f3d_flags>
0

> <s_epik_input>
bjFbY0hdW2NIXVtjSF1bY0hdYzFDKEYpKEYpQyg9TylbTkhdW0NAQEhdMltDSDJdW0NIMl1bQ0gyXVtDSDJdW0NASF0yW09IXQ==

> <s_epik_cmdline>
J2VwaWtfcHl0aG9uJywgJy1waCcsICc3LjAnLCAnLXRuJywgJzgnLCAnLW1hJywgJzIwMCcsICctbWV0YWxfYmluZGluZycsICctaW1hZScsICc8aW5maWxlLm1hZT4nLCAnLW9tYWUnLCAnPG91dGZpbGUubWFlPic=

> <r_lp_tautomer_probability>
1

> <r_epik_Ionization_Penalty>
5.70553

> <r_epik_Ionization_Penalty_Charging>
5.70553

> <r_epik_Ionization_Penalty_Neutral>
5.5493e-06

> <r_epik_State_Penalty>
5.70549

> <r_epik_Charging_Adjusted_Penalty>
11.411

> <i_epik_Tot_Q>
-1

> <i_epik_Tot_abs_Q>
1

> <r_epik_Metal_State_Penalty>
1.6859

> <b_epik_Metal_Only>
1

> <s_lp_Force_Field>
OPLS_2005

> <r_lp_Energy>
26.6713

> <b_lp_Chiralities_Consistent>
1

> <s_lp_Variant>
AV-unprocessed.smi:2768-5

> <Gold.Version>
5.8.1

> <Gold.Id.Protein>
6NUR|6NUR_protein|mol2

> <Gold.PLP.Fitness>
47.9197

> <Gold.PLP.PLP>
-33.6329

> <Gold.PLP.part.hbond>
-2.8235

> <Gold.PLP.part.metal>
0.0000

> <Gold.PLP.part.buried>
-3.4643

> <Gold.PLP.part.nonpolar>
-28.1687

> <Gold.PLP.part.repulsive>
0.1577

> <Gold.PLP.ligand.clash>
0.0000

> <Gold.PLP.ligand.torsion>
0.3596

> <Gold.PLP.Chemscore.Hbond>
3.9920

> <Gold.PLP.Chemscore.CHOScore>
1.0000

> <Gold.PLP.Chemscore.Metal>
0.0000

> <Gold.Chemscore.Hbonds>
donor molecule, donor type, donor heavy atom, donor atom, acceptor molecule, acceptor atom, score
      L1  H    10    30       P1  7948  0.15
      L1  C    18    34       P1  8028  0.41

> <Gold.PLP.Chemscore.Internal.Correction>
0.0301

> <Gold.Rescore>
     Score         DG    S(hbond)    S(metal)    S(lipo)     H(rot)  DE(clash)    DE(int)     intcor
     13.00     -14.73       1.83        0.00      69.52       1.95       0.00       1.73       ----

> <Gold.Chemscore.Fitness>
12.9967

> <Gold.Chemscore.DG>
-14.7329

> <Gold.Chemscore.ZeroCoef>
-5.4800

> <Gold.Chemscore.Hbond>
1.8298

> <Gold.Chemscore.Metal>
0.0000

> <Gold.Chemscore.Lipo>
69.5226

> <Gold.Chemscore.Internal_Hbond>
0.0000

> <Gold.Chemscore.DEClash>
0.0048

> <Gold.Chemscore.DEInternal>
1.7314

> <Gold.Chemscore.Rot>
1.9503

> <Gold.Chemscore.Internal.Correction>
   9.000000E+99

> <Gold.Chemscore.Hbond.Weighted>
-6.1115

> <Gold.Chemscore.Metal.Weighted>
-0.0000

> <Gold.Chemscore.Lipo.Weighted>
-8.1341

> <Gold.Chemscore.Internal_Hbond.Weighted>
0.0000

> <Gold.Chemscore.DEClash.Weighted>
0.0048

> <Gold.Chemscore.DEInternal.Weighted>
1.7314

> <Gold.Chemscore.Rot.Weighted>
4.9928

> <Gold.Chemscore.Internal.Correction.Weighted>
   9.000000E+99

> <Gold.Protein.RotatedTorsions>
[ 6907 6896 6895 6894 ] final -176.09 input  -60.11 | X-H torsion
[ 7974 7965 7964 7962 ] final   98.49 input  175.53 | X-H torsion
[ 8008 7997 7996 7995 ] final    3.38 input   59.86 | X-H torsion
[ 10167 10162 10161 10158 ] final  165.63 input  -65.29 | X-H torsion
[ 10718 10713 10712 10709 ] final  169.08 input   66.30 | X-H torsion
[ 10763 10752 10751 10750 ] final -151.74 input  -60.55 | X-H torsion
[ 11005 11000 10999 10996 ] final   66.72 input  -57.11 | X-H torsion

> <Gold.Protein.ActiveResidues>
 VAL166  LYS551  ARG553  GLY616  TRP617  ASP618  TYR619  PRO620  LYS621  CYS622 
 ASP623  PHE694  ASN695  SER759  ASP760  ASP761  ALA762  ILE779  LEU786  VAL792 
 PHE793  MET794  SER795  GLU796  ALA797  LYS798  CYS799  TRP800  GLU811  SER814 

> <Gold.Protein.RotatedAtoms>
  151.5992  133.3358  159.3043 H   0  0  0  0  0  0  0  0  0  0  0  0  # atno 6907 bound_to 6896
  150.8217  134.7431  159.6789 H   0  0  0  0  0  0  0  0  0  0  0  0  # atno 6908 bound_to 6896
  152.4310  134.5783  159.9992 H   0  0  0  0  0  0  0  0  0  0  0  0  # atno 6909 bound_to 6896
  145.4114  139.2333  143.3246 H   0  0  0  0  0  0  0  0  0  0  0  0  # atno 7974 bound_to 7965
  154.7030  140.2677  155.6701 H   0  0  0  0  0  0  0  0  0  0  0  0  # atno 8008 bound_to 7997
  156.2771  140.2768  156.1571 H   0  0  0  0  0  0  0  0  0  0  0  0  # atno 8009 bound_to 7997
  155.0738  140.0372  157.2607 H   0  0  0  0  0  0  0  0  0  0  0  0  # atno 8010 bound_to 7997
  139.4909  144.4112  151.9297 H   0  0  0  0  0  0  0  0  0  0  0  0  # atno 10167 bound_to 10162
  157.0278  131.0250  151.2754 H   0  0  0  0  0  0  0  0  0  0  0  0  # atno 10718 bound_to 10713
  154.8038  135.3252  154.7482 H   0  0  0  0  0  0  0  0  0  0  0  0  # atno 10763 bound_to 10752
  153.8145  135.6893  153.4840 H   0  0  0  0  0  0  0  0  0  0  0  0  # atno 10764 bound_to 10752
  153.1771  135.4601  154.9924 H   0  0  0  0  0  0  0  0  0  0  0  0  # atno 10765 bound_to 10752
  139.9814  134.6737  156.0255 H   0  0  0  0  0  0  0  0  0  0  0  0  # atno 11005 bound_to 11000
  146.2703  140.4826  142.8817 LP  0  0  0  0  0  0  0  0  0  0  0  0  # atno 17320 bound_to 7965
  144.8306  140.6701  143.6293 LP  0  0  0  0  0  0  0  0  0  0  0  0  # atno 17321 bound_to 7965
  140.3553  144.3039  150.5942 LP  0  0  0  0  0  0  0  0  0  0  0  0  # atno 17342 bound_to 10162
  140.5450  143.2216  151.8023 LP  0  0  0  0  0  0  0  0  0  0  0  0  # atno 17343 bound_to 10162
  157.5201  130.7992  149.7799 LP  0  0  0  0  0  0  0  0  0  0  0  0  # atno 17370 bound_to 10713
  156.0080  130.3846  150.2363 LP  0  0  0  0  0  0  0  0  0  0  0  0  # atno 17371 bound_to 10713
  141.1486  133.6552  156.3943 LP  0  0  0  0  0  0  0  0  0  0  0  0  # atno 17394 bound_to 11000
  140.5088  134.6415  157.5276 LP  0  0  0  0  0  0  0  0  0  0  0  0  # atno 17395 bound_to 11000

$$$$
