AV-unprocessed.smi:1573|AV-procd|sdf|6333|dock10
  -GOLD-   22720 6543D 1   1.00000     0.00000
 Structure written by MMmdl.
 41 41  0  0  0  0  0  0  0  0  1 V2000
  150.4022  135.9756  155.0807 C   0  0  0  0  0  0  0  0  0  0  0  0
  151.2219  137.1090  155.7137 C   0  0  0  0  0  0  0  0  0  0  0  0
  150.4291  138.3232  155.8649 N   0  0  0  0  0  0  0  0  0  0  0  0
  150.7777  139.5318  155.3987 C   0  0  0  0  0  0  0  0  0  0  0  0
  151.8076  139.7341  154.7531 O   0  0  0  0  0  0  0  0  0  0  0  0
  149.8210  140.6901  155.7215 C   0  0  2  0  0  0  0  0  0  0  0  0
  149.2648  141.2485  154.4003 C   0  0  0  0  0  0  0  0  0  0  0  0
  150.5771  141.7506  156.3818 N   0  0  0  0  0  0  0  0  0  0  0  0
  151.0469  141.6943  157.6382 C   0  0  0  0  0  0  0  0  0  0  0  0
  150.8038  140.7695  158.4134 O   0  0  0  0  0  0  0  0  0  0  0  0
  151.9587  142.8396  158.0764 C   0  0  0  0  0  0  0  0  0  0  0  0
  152.3961  142.6036  159.5003 C   0  0  0  0  0  0  0  0  0  0  0  0
  153.0318  141.4417  160.0278 C   0  0  0  0  0  0  0  0  0  0  0  0
  153.4075  140.1812  159.3027 C   0  0  0  0  0  0  0  0  0  0  0  0
  153.3036  141.5554  161.3173 N   0  0  0  0  0  0  0  0  0  0  0  0
  152.8610  142.7831  161.6552 N   0  0  0  0  0  0  0  0  0  0  0  0
  153.0139  143.2410  163.0224 C   0  0  0  0  0  0  0  0  0  0  0  0
  152.2992  143.4423  160.5794 C   0  0  0  0  0  0  0  0  0  0  0  0
  151.7348  144.8213  160.6983 C   0  0  0  0  0  0  0  0  0  0  0  0
  151.0169  135.0868  154.9383 H   0  0  0  0  0  0  0  0  0  0  0  0
  150.0104  136.2691  154.1065 H   0  0  0  0  0  0  0  0  0  0  0  0
  149.5568  135.6944  155.7095 H   0  0  0  0  0  0  0  0  0  0  0  0
  151.6221  136.7964  156.6794 H   0  0  0  0  0  0  0  0  0  0  0  0
  152.0791  137.3393  155.0810 H   0  0  0  0  0  0  0  0  0  0  0  0
  149.5686  138.2459  156.3877 H   0  0  0  0  0  0  0  0  0  0  0  0
  148.9968  140.3498  156.3517 H   0  0  0  0  0  0  0  0  0  0  0  0
  148.7053  140.4875  153.8546 H   0  0  0  0  0  0  0  0  0  0  0  0
  150.0546  141.6168  153.7435 H   0  0  0  0  0  0  0  0  0  0  0  0
  148.5829  142.0783  154.5880 H   0  0  0  0  0  0  0  0  0  0  0  0
  150.8306  142.5475  155.8161 H   0  0  0  0  0  0  0  0  0  0  0  0
  152.8148  142.9160  157.4049 H   0  0  0  0  0  0  0  0  0  0  0  0
  151.4108  143.7767  157.9752 H   0  0  0  0  0  0  0  0  0  0  0  0
  154.0606  140.3997  158.4579 H   0  0  0  0  0  0  0  0  0  0  0  0
  152.5225  139.6762  158.9161 H   0  0  0  0  0  0  0  0  0  0  0  0
  153.9312  139.4797  159.9529 H   0  0  0  0  0  0  0  0  0  0  0  0
  152.0516  143.1962  163.5324 H   0  0  0  0  0  0  0  0  0  0  0  0
  153.3740  144.2700  163.0293 H   0  0  0  0  0  0  0  0  0  0  0  0
  153.7305  142.6174  163.5583 H   0  0  0  0  0  0  0  0  0  0  0  0
  151.2102  145.1146  159.7895 H   0  0  0  0  0  0  0  0  0  0  0  0
  152.5277  145.5477  160.8757 H   0  0  0  0  0  0  0  0  0  0  0  0
  151.0272  144.8827  161.5253 H   0  0  0  0  0  0  0  0  0  0  0  0
  1  2  1  0  0  0  0
  1 20  1  0  0  0  0
  1 21  1  0  0  0  0
  1 22  1  0  0  0  0
  2  3  1  0  0  0  0
  2 23  1  0  0  0  0
  2 24  1  0  0  0  0
  3  4  1  0  0  0  0
  3 25  1  0  0  0  0
  4  5  2  0  0  0  0
  4  6  1  0  0  0  0
  6  7  1  0  0  0  0
  6  8  1  0  0  0  0
  6 26  1  0  0  0  0
  7 27  1  0  0  0  0
  7 28  1  0  0  0  0
  7 29  1  0  0  0  0
  8  9  1  0  0  0  0
  8 30  1  0  0  0  0
  9 10  2  0  0  0  0
  9 11  1  0  0  0  0
 11 12  1  0  0  0  0
 11 31  1  0  0  0  0
 11 32  1  0  0  0  0
 12 18  2  0  0  0  0
 12 13  1  0  0  0  0
 13 14  1  0  0  0  0
 13 15  2  0  0  0  0
 14 33  1  0  0  0  0
 14 34  1  0  0  0  0
 14 35  1  0  0  0  0
 15 16  1  0  0  0  0
 16 17  1  0  0  0  0
 16 18  1  0  0  0  0
 17 36  1  0  0  0  0
 17 37  1  0  0  0  0
 17 38  1  0  0  0  0
 18 19  1  0  0  0  0
 19 39  1  0  0  0  0
 19 40  1  0  0  0  0
 19 41  1  0  0  0  0
M  END
> <s_m_source_file>
AV-unprocessed.smi

> <i_m_source_file_index>
1573

> <i_lp_mmshare_version>
43012

> <i_f3d_flags>
0

> <s_epik_input>
W0NIM11bQ0gyXVtOSF1DKD1PKVtDQEhdKFtDSDNdKVtOSF1DKD1PKVtDSDJdYzFjKFtDSDNdKW5uKFtDSDNdKWMxW0NIM10=

> <s_epik_cmdline>
J2VwaWtfcHl0aG9uJywgJy1waCcsICc3LjAnLCAnLXRuJywgJzgnLCAnLW1hJywgJzIwMCcsICctbWV0YWxfYmluZGluZycsICctaW1hZScsICc8aW5maWxlLm1hZT4nLCAnLW9tYWUnLCAnPG91dGZpbGUubWFlPic=

> <r_lp_tautomer_probability>
1

> <r_epik_Ionization_Penalty>
0.00278414

> <r_epik_Ionization_Penalty_Charging>
0

> <r_epik_Ionization_Penalty_Neutral>
0.00278414

> <r_epik_State_Penalty>
0.00194489

> <r_epik_Charging_Adjusted_Penalty>
0.00194489

> <i_epik_Tot_Q>
0

> <i_epik_Tot_abs_Q>
0

> <r_epik_Metal_State_Penalty>
-0

> <b_epik_Metal_Only>
0

> <s_lp_Force_Field>
OPLS_2005

> <r_lp_Energy>
-3.80626

> <b_lp_Chiralities_Consistent>
1

> <s_lp_Variant>
AV-unprocessed.smi:1573-1

> <Gold.Version>
5.8.1

> <Gold.Id.Protein>
6NUR|6NUR_protein|mol2

> <Gold.PLP.Fitness>
44.3184

> <Gold.PLP.PLP>
-41.6970

> <Gold.PLP.part.hbond>
-1.0000

> <Gold.PLP.part.metal>
0.0000

> <Gold.PLP.part.buried>
-5.6828

> <Gold.PLP.part.nonpolar>
-35.4195

> <Gold.PLP.part.repulsive>
0.1746

> <Gold.PLP.ligand.clash>
0.0000

> <Gold.PLP.ligand.torsion>
0.2087

> <Gold.PLP.Chemscore.Hbond>
1.0000

> <Gold.PLP.Chemscore.CHOScore>
0.0000

> <Gold.PLP.Chemscore.Metal>
0.0000

> <Gold.Chemscore.Hbonds>
donor molecule, donor type, donor heavy atom, donor atom, acceptor molecule, acceptor atom, score
      P1  H  7989  7998       L1     5  1.00

> <Gold.PLP.Chemscore.Internal.Correction>
0.0387

> <Gold.Rescore>
     Score         DG    S(hbond)    S(metal)    S(lipo)     H(rot)  DE(clash)    DE(int)     intcor
     12.98     -15.50       0.98        0.00      99.40       1.91       0.07       2.44       ----

> <Gold.Chemscore.Fitness>
12.9841

> <Gold.Chemscore.DG>
-15.5016

> <Gold.Chemscore.ZeroCoef>
-5.4800

> <Gold.Chemscore.Hbond>
0.9824

> <Gold.Chemscore.Metal>
0.0000

> <Gold.Chemscore.Lipo>
99.4022

> <Gold.Chemscore.Internal_Hbond>
0.0000

> <Gold.Chemscore.DEClash>
0.0727

> <Gold.Chemscore.DEInternal>
2.4448

> <Gold.Chemscore.Rot>
1.9100

> <Gold.Chemscore.Internal.Correction>
   9.000000E+99

> <Gold.Chemscore.Hbonds>
donor molecule, donor type, donor heavy atom, donor atom, acceptor molecule, acceptor atom, score
      P1  H  7989  7998       L1     5  0.86

> <Gold.Chemscore.Hbond.Weighted>
-3.2811

> <Gold.Chemscore.Metal.Weighted>
-0.0000

> <Gold.Chemscore.Lipo.Weighted>
-11.6301

> <Gold.Chemscore.Internal_Hbond.Weighted>
0.0000

> <Gold.Chemscore.DEClash.Weighted>
0.0727

> <Gold.Chemscore.DEInternal.Weighted>
2.4448

> <Gold.Chemscore.Rot.Weighted>
4.8896

> <Gold.Chemscore.Internal.Correction.Weighted>
   9.000000E+99

> <Gold.Protein.RotatedTorsions>
[ 6907 6896 6895 6894 ] final   88.83 input  -60.11 | X-H torsion
[ 7974 7965 7964 7962 ] final   16.56 input  175.53 | X-H torsion
[ 8008 7997 7996 7995 ] final  -36.81 input   59.86 | X-H torsion
[ 10167 10162 10161 10158 ] final -130.86 input  -65.29 | X-H torsion
[ 10718 10713 10712 10709 ] final  -50.31 input   66.30 | X-H torsion
[ 10763 10752 10751 10750 ] final   -7.49 input  -60.55 | X-H torsion
[ 11005 11000 10999 10996 ] final  -83.65 input  -57.11 | X-H torsion

> <Gold.Protein.ActiveResidues>
 VAL166  LYS551  ARG553  GLY616  TRP617  ASP618  TYR619  PRO620  LYS621  CYS622 
 ASP623  PHE694  ASN695  SER759  ASP760  ASP761  ALA762  ILE779  LEU786  VAL792 
 PHE793  MET794  SER795  GLU796  ALA797  LYS798  CYS799  TRP800  GLU811  SER814 

> <Gold.Protein.RotatedAtoms>
  152.5429  134.2061  159.8730 H   0  0  0  0  0  0  0  0  0  0  0  0  # atno 6907 bound_to 6896
  151.2046  133.4584  159.2604 H   0  0  0  0  0  0  0  0  0  0  0  0  # atno 6908 bound_to 6896
  151.0956  134.9954  159.8479 H   0  0  0  0  0  0  0  0  0  0  0  0  # atno 6909 bound_to 6896
  146.2246  139.8730  142.8584 H   0  0  0  0  0  0  0  0  0  0  0  0  # atno 7974 bound_to 7965
  154.4065  140.1620  156.2435 H   0  0  0  0  0  0  0  0  0  0  0  0  # atno 8008 bound_to 7997
  155.9180  140.3423  155.6128 H   0  0  0  0  0  0  0  0  0  0  0  0  # atno 8009 bound_to 7997
  155.7256  140.0774  157.2302 H   0  0  0  0  0  0  0  0  0  0  0  0  # atno 8010 bound_to 7997
  139.9249  143.6339  152.2544 H   0  0  0  0  0  0  0  0  0  0  0  0  # atno 10167 bound_to 10162
  156.1812  130.4150  149.9504 H   0  0  0  0  0  0  0  0  0  0  0  0  # atno 10718 bound_to 10713
  153.4271  135.7011  153.6255 H   0  0  0  0  0  0  0  0  0  0  0  0  # atno 10763 bound_to 10752
  153.4685  135.3720  155.2378 H   0  0  0  0  0  0  0  0  0  0  0  0  # atno 10764 bound_to 10752
  154.8724  135.4037  154.3649 H   0  0  0  0  0  0  0  0  0  0  0  0  # atno 10765 bound_to 10752
  141.1656  133.7305  156.8752 H   0  0  0  0  0  0  0  0  0  0  0  0  # atno 11005 bound_to 11000
  145.2589  141.0070  143.3838 LP  0  0  0  0  0  0  0  0  0  0  0  0  # atno 17320 bound_to 7965
  144.9314  139.4294  143.6493 LP  0  0  0  0  0  0  0  0  0  0  0  0  # atno 17321 bound_to 7965
  139.6830  144.7654  151.1574 LP  0  0  0  0  0  0  0  0  0  0  0  0  # atno 17342 bound_to 10162
  140.7652  143.5697  150.9009 LP  0  0  0  0  0  0  0  0  0  0  0  0  # atno 17343 bound_to 10162
  156.7274  130.9030  151.3623 LP  0  0  0  0  0  0  0  0  0  0  0  0  # atno 17370 bound_to 10713
  157.6869  130.9195  150.0411 LP  0  0  0  0  0  0  0  0  0  0  0  0  # atno 17371 bound_to 10713
  140.1754  134.9071  157.2884 LP  0  0  0  0  0  0  0  0  0  0  0  0  # atno 17394 bound_to 11000
  140.2455  134.3745  155.7463 LP  0  0  0  0  0  0  0  0  0  0  0  0  # atno 17395 bound_to 11000

$$$$
