AV-unprocessed.smi:261|AV-procd|sdf|1996|dock3
  -GOLD-   2262021183D 1   1.00000     0.00000
 Structure written by MMmdl.
 51 54  0  0  0  0  0  0  0  0  1 V2000
  142.6882  135.8860  152.5053 C   0  0  0  0  0  0  0  0  0  0  0  0
  143.1523  136.6995  153.5704 O   0  0  0  0  0  0  0  0  0  0  0  0
  144.0745  137.6984  153.1602 C   0  0  2  0  0  0  0  0  0  0  0  0
  145.4059  137.1289  152.6604 C   0  0  0  0  0  0  0  0  0  0  0  0
  146.4176  138.2642  152.8905 C   0  0  1  0  0  0  0  0  0  0  0  0
  146.5374  139.1823  151.6612 C   0  0  0  0  0  0  0  0  0  0  0  0
  146.6027  140.4946  151.8967 N   0  0  0  0  0  0  0  0  0  0  0  0
  146.5829  138.7213  150.5217 O   0  0  0  0  0  0  0  0  0  0  0  0
  145.8706  138.9710  154.0512 N   0  0  0  0  0  0  0  0  0  0  0  0
  146.6163  139.7548  154.8781 C   0  0  0  0  0  0  0  0  0  0  0  0
  145.9770  140.4575  155.8513 N   0  0  0  0  0  0  0  0  0  0  0  0
  146.6592  141.2376  156.6932 C   0  0  0  0  0  0  0  0  0  0  0  0
  147.9723  141.4614  156.7421 N   0  0  0  0  0  0  0  0  0  0  0  0
  148.6257  140.7637  155.7706 C   0  0  0  0  0  0  0  0  0  0  0  0
  148.0354  139.8970  154.8048 C   0  0  0  0  0  0  0  0  0  0  0  0
  149.0324  139.3732  153.9870 N   0  0  0  0  0  0  0  0  0  0  0  0
  150.1382  139.8946  154.4413 C   0  0  0  0  0  0  0  0  0  0  0  0
  149.9847  140.7383  155.5159 N   0  0  0  0  0  0  0  0  0  0  0  0
  151.0344  141.4488  156.2252 C   0  0  0  0  0  0  0  0  0  0  0  0
  150.6419  141.7816  157.6810 C   0  0  1  0  0  0  0  0  0  0  0  0
  150.5066  140.5631  158.3876 O   0  0  0  0  0  0  0  0  0  0  0  0
  151.6955  142.6387  158.4106 C   0  0  1  0  0  0  0  0  0  0  0  0
  151.8241  144.0734  157.8939 C   0  0  0  0  0  0  0  0  0  0  0  0
  152.3856  144.8352  159.0830 C   0  0  0  0  0  0  0  0  0  0  0  0
  152.0937  143.9213  160.2749 C   0  0  0  0  0  0  0  0  0  0  0  0
  151.2884  142.8747  159.7504 O   0  0  0  0  0  0  0  0  0  0  0  0
  144.5054  138.5591  154.3486 C   0  0  0  0  0  0  0  0  0  0  0  0
  143.6335  138.3430  152.3974 H   0  0  0  0  0  0  0  0  0  0  0  0
  147.3937  137.8331  153.1214 H   0  0  0  0  0  0  0  0  0  0  0  0
  141.9653  135.1650  152.8865 H   0  0  0  0  0  0  0  0  0  0  0  0
  143.5024  135.3278  152.0422 H   0  0  0  0  0  0  0  0  0  0  0  0
  142.1926  136.4838  151.7393 H   0  0  0  0  0  0  0  0  0  0  0  0
  145.6870  136.2672  153.2677 H   0  0  0  0  0  0  0  0  0  0  0  0
  145.3573  136.7937  151.6233 H   0  0  0  0  0  0  0  0  0  0  0  0
  146.6871  141.1416  151.1264 H   0  0  0  0  0  0  0  0  0  0  0  0
  146.5724  140.8345  152.8470 H   0  0  0  0  0  0  0  0  0  0  0  0
  146.0682  141.7554  157.4341 H   0  0  0  0  0  0  0  0  0  0  0  0
  151.1016  139.6712  154.0063 H   0  0  0  0  0  0  0  0  0  0  0  0
  151.9421  140.8439  156.2038 H   0  0  0  0  0  0  0  0  0  0  0  0
  151.2534  142.3591  155.6665 H   0  0  0  0  0  0  0  0  0  0  0  0
  149.6820  142.2994  157.6876 H   0  0  0  0  0  0  0  0  0  0  0  0
  149.6854  140.1653  158.1414 H   0  0  0  0  0  0  0  0  0  0  0  0
  152.6742  142.1543  158.3995 H   0  0  0  0  0  0  0  0  0  0  0  0
  152.4559  144.1494  157.0084 H   0  0  0  0  0  0  0  0  0  0  0  0
  150.8398  144.4703  157.6409 H   0  0  0  0  0  0  0  0  0  0  0  0
  153.4594  144.9960  158.9800 H   0  0  0  0  0  0  0  0  0  0  0  0
  151.9072  145.8095  159.1874 H   0  0  0  0  0  0  0  0  0  0  0  0
  153.0184  143.5004  160.6722 H   0  0  0  0  0  0  0  0  0  0  0  0
  151.5796  144.4400  161.0843 H   0  0  0  0  0  0  0  0  0  0  0  0
  143.8368  139.4115  154.4711 H   0  0  0  0  0  0  0  0  0  0  0  0
  144.5030  137.9761  155.2709 H   0  0  0  0  0  0  0  0  0  0  0  0
  1  2  1  0  0  0  0
  1 30  1  0  0  0  0
  1 31  1  0  0  0  0
  1 32  1  0  0  0  0
  2  3  1  0  0  0  0
  3 28  1  0  0  0  0
  3 27  1  0  0  0  0
  3  4  1  0  0  0  0
  4  5  1  0  0  0  0
  4 33  1  0  0  0  0
  4 34  1  0  0  0  0
  5 29  1  0  0  0  0
  5  6  1  0  0  0  0
  5  9  1  0  0  0  0
  6  7  1  0  0  0  0
  6  8  2  0  0  0  0
  7 35  1  0  0  0  0
  7 36  1  0  0  0  0
  9 10  1  0  0  0  0
  9 27  1  0  0  0  0
 10 15  1  0  0  0  0
 10 11  2  0  0  0  0
 11 12  1  0  0  0  0
 12 13  2  0  0  0  0
 12 37  1  0  0  0  0
 13 14  1  0  0  0  0
 14 18  1  0  0  0  0
 14 15  2  0  0  0  0
 15 16  1  0  0  0  0
 16 17  2  0  0  0  0
 17 18  1  0  0  0  0
 17 38  1  0  0  0  0
 18 19  1  0  0  0  0
 19 20  1  0  0  0  0
 19 39  1  0  0  0  0
 19 40  1  0  0  0  0
 20 21  1  0  0  0  0
 20 22  1  0  0  0  0
 20 41  1  0  0  0  0
 21 42  1  0  0  0  0
 22 26  1  0  0  0  0
 22 23  1  0  0  0  0
 22 43  1  0  0  0  0
 23 24  1  0  0  0  0
 23 44  1  0  0  0  0
 23 45  1  0  0  0  0
 24 25  1  0  0  0  0
 24 46  1  0  0  0  0
 24 47  1  0  0  0  0
 25 26  1  0  0  0  0
 25 48  1  0  0  0  0
 25 49  1  0  0  0  0
 27 50  1  0  0  0  0
 27 51  1  0  0  0  0
M  END
> <s_m_source_file>
AV-unprocessed.smi

> <i_m_source_file_index>
261

> <i_lp_mmshare_version>
43012

> <i_f3d_flags>
0

> <s_epik_input>
W0NIM11PW0NASF0xW0NIMl1bQ0BASF0oQyg9TylbTkgyXSlOKFtDSDJdMSljKG5bY0hdbjIpYyhjMjMpbltjSF1uM1tDSDJdW0NASF0oW09IXSlbQ0BASF00W0NIMl1bQ0gyXVtDSDJdTzQ=

> <s_epik_cmdline>
J2VwaWtfcHl0aG9uJywgJy1waCcsICc3LjAnLCAnLXRuJywgJzgnLCAnLW1hJywgJzIwMCcsICctbWV0YWxfYmluZGluZycsICctaW1hZScsICc8aW5maWxlLm1hZT4nLCAnLW9tYWUnLCAnPG91dGZpbGUubWFlPic=

> <r_lp_tautomer_probability>
1

> <r_epik_Ionization_Penalty>
0.000713824

> <r_epik_Ionization_Penalty_Charging>
0

> <r_epik_Ionization_Penalty_Neutral>
0.000713824

> <r_epik_State_Penalty>
0.000402132

> <r_epik_Charging_Adjusted_Penalty>
0.000402132

> <i_epik_Tot_Q>
0

> <i_epik_Tot_abs_Q>
0

> <r_epik_Metal_State_Penalty>
-0

> <b_epik_Metal_Only>
0

> <s_lp_Force_Field>
OPLS_2005

> <r_lp_Energy>
41.8336

> <b_lp_Chiralities_Consistent>
1

> <s_lp_Variant>
AV-unprocessed.smi:261-14

> <Gold.Version>
5.8.1

> <Gold.Id.Protein>
6NUR|6NUR_protein|mol2

> <Gold.PLP.Fitness>
41.2174

> <Gold.PLP.PLP>
-40.1823

> <Gold.PLP.part.hbond>
-2.9378

> <Gold.PLP.part.metal>
0.0000

> <Gold.PLP.part.buried>
-5.0841

> <Gold.PLP.part.nonpolar>
-34.9880

> <Gold.PLP.part.repulsive>
1.6979

> <Gold.PLP.ligand.clash>
0.0000

> <Gold.PLP.ligand.torsion>
1.0418

> <Gold.PLP.Chemscore.Hbond>
1.0000

> <Gold.PLP.Chemscore.CHOScore>
0.0000

> <Gold.PLP.Chemscore.Metal>
0.0000

> <Gold.Chemscore.Hbonds>
donor molecule, donor type, donor heavy atom, donor atom, acceptor molecule, acceptor atom, score
      P1  H  7954  7966       L1     8  0.74

> <Gold.PLP.Chemscore.Internal.Correction>
0.1186

> <Gold.Rescore>
     Score         DG    S(hbond)    S(metal)    S(lipo)     H(rot)  DE(clash)    DE(int)     intcor
      6.75     -10.10       0.98        0.00      81.22       3.18       0.83       2.52       ----

> <Gold.Chemscore.Fitness>
6.7529

> <Gold.Chemscore.DG>
-10.0999

> <Gold.Chemscore.ZeroCoef>
-5.4800

> <Gold.Chemscore.Hbond>
0.9778

> <Gold.Chemscore.Metal>
0.0000

> <Gold.Chemscore.Lipo>
81.2188

> <Gold.Chemscore.Internal_Hbond>
0.0000

> <Gold.Chemscore.DEClash>
0.8312

> <Gold.Chemscore.DEInternal>
2.5158

> <Gold.Chemscore.Rot>
3.1831

> <Gold.Chemscore.Internal.Correction>
   9.000000E+99

> <Gold.Chemscore.Hbonds>
donor molecule, donor type, donor heavy atom, donor atom, acceptor molecule, acceptor atom, score
      P1  H  7954  7966       L1     8  0.73

> <Gold.Chemscore.Hbond.Weighted>
-3.2659

> <Gold.Chemscore.Metal.Weighted>
-0.0000

> <Gold.Chemscore.Lipo.Weighted>
-9.5026

> <Gold.Chemscore.Internal_Hbond.Weighted>
0.0000

> <Gold.Chemscore.DEClash.Weighted>
0.8312

> <Gold.Chemscore.DEInternal.Weighted>
2.5158

> <Gold.Chemscore.Rot.Weighted>
8.1486

> <Gold.Chemscore.Internal.Correction.Weighted>
   9.000000E+99

> <Gold.Protein.RotatedTorsions>
[ 6907 6896 6895 6894 ] final  146.21 input  -60.11 | X-H torsion
[ 7974 7965 7964 7962 ] final -163.35 input  175.53 | X-H torsion
[ 8008 7997 7996 7995 ] final  -45.29 input   59.86 | X-H torsion
[ 10167 10162 10161 10158 ] final  162.10 input  -65.29 | X-H torsion
[ 10718 10713 10712 10709 ] final   -9.62 input   66.30 | X-H torsion
[ 10763 10752 10751 10750 ] final   79.34 input  -60.55 | X-H torsion
[ 11005 11000 10999 10996 ] final  -76.59 input  -57.11 | X-H torsion

> <Gold.Protein.ActiveResidues>
 VAL166  LYS551  ARG553  GLY616  TRP617  ASP618  TYR619  PRO620  LYS621  CYS622 
 ASP623  PHE694  ASN695  SER759  ASP760  ASP761  ALA762  ILE779  LEU786  VAL792 
 PHE793  MET794  SER795  GLU796  ALA797  LYS798  CYS799  TRP800  GLU811  SER814 

> <Gold.Protein.RotatedAtoms>
  152.1708  133.4642  159.4907 H   0  0  0  0  0  0  0  0  0  0  0  0  # atno 6907 bound_to 6896
  150.6919  134.1955  159.4311 H   0  0  0  0  0  0  0  0  0  0  0  0  # atno 6908 bound_to 6896
  151.9862  135.0003  160.0610 H   0  0  0  0  0  0  0  0  0  0  0  0  # atno 6909 bound_to 6896
  144.7328  140.3119  143.6186 H   0  0  0  0  0  0  0  0  0  0  0  0  # atno 7974 bound_to 7965
  154.4000  140.1400  156.3823 H   0  0  0  0  0  0  0  0  0  0  0  0  # atno 8008 bound_to 7997
  155.7992  140.3476  155.5372 H   0  0  0  0  0  0  0  0  0  0  0  0  # atno 8009 bound_to 7997
  155.8500  140.0940  157.1671 H   0  0  0  0  0  0  0  0  0  0  0  0  # atno 8010 bound_to 7997
  139.4856  144.4471  151.8878 H   0  0  0  0  0  0  0  0  0  0  0  0  # atno 10167 bound_to 10162
  156.6854  130.5049  149.5959 H   0  0  0  0  0  0  0  0  0  0  0  0  # atno 10718 bound_to 10713
  153.0945  135.4843  154.8753 H   0  0  0  0  0  0  0  0  0  0  0  0  # atno 10763 bound_to 10752
  154.7308  135.3060  154.8896 H   0  0  0  0  0  0  0  0  0  0  0  0  # atno 10764 bound_to 10752
  153.9532  135.6821  153.4797 H   0  0  0  0  0  0  0  0  0  0  0  0  # atno 10765 bound_to 10752
  141.1655  133.6989  156.7692 H   0  0  0  0  0  0  0  0  0  0  0  0  # atno 11005 bound_to 11000
  145.7656  139.1839  143.2242 LP  0  0  0  0  0  0  0  0  0  0  0  0  # atno 17320 bound_to 7965
  146.0952  140.7609  142.9576 LP  0  0  0  0  0  0  0  0  0  0  0  0  # atno 17321 bound_to 7965
  140.3926  144.2596  150.5898 LP  0  0  0  0  0  0  0  0  0  0  0  0  # atno 17342 bound_to 10162
  140.5132  143.2285  151.8503 LP  0  0  0  0  0  0  0  0  0  0  0  0  # atno 17343 bound_to 10162
  156.1837  130.6515  151.0981 LP  0  0  0  0  0  0  0  0  0  0  0  0  # atno 17370 bound_to 10713
  157.7028  131.0769  150.6764 LP  0  0  0  0  0  0  0  0  0  0  0  0  # atno 17371 bound_to 10713
  140.2476  134.8565  157.3636 LP  0  0  0  0  0  0  0  0  0  0  0  0  # atno 17394 bound_to 11000
  140.1734  134.4580  155.7817 LP  0  0  0  0  0  0  0  0  0  0  0  0  # atno 17395 bound_to 11000

$$$$
