AV-unprocessed.smi:251|AV-procd|sdf|1934|dock1
  -GOLD-   2262021 53D 1   1.00000     0.00000
 Structure written by MMmdl.
 50 54  0  0  0  0  0  0  0  0  1 V2000
  150.5785  134.0522  157.2958 O   0  0  0  0  0  0  0  0  0  0  0  0
  149.5348  134.9209  156.9023 C   0  0  0  0  0  0  0  0  0  0  0  0
  149.6505  135.3444  155.4096 C   0  0  0  0  0  0  0  0  0  0  0  0
  150.9564  136.1568  155.1610 C   0  0  0  0  0  0  0  0  0  0  0  0
  151.0039  137.4567  155.8162 N   0  0  0  0  0  0  0  0  0  0  0  0
  151.7428  137.7907  156.9274 C   0  0  0  0  0  0  0  0  0  0  0  0
  151.6171  139.0254  157.3279 N   0  0  0  0  0  0  0  0  0  0  0  0
  150.7421  139.6007  156.4123 C   0  0  0  0  0  0  0  0  0  0  0  0
  150.1775  140.9014  156.2446 C   0  0  0  0  0  0  0  0  0  0  0  0
  150.4181  141.9610  157.0614 N   0  0  0  0  0  0  0  0  0  0  0  0
  149.3533  142.6237  157.8084 C   0  0  0  0  0  0  0  0  0  0  0  0
  150.0551  143.5617  158.7597 C   0  0  2  0  0  0  0  0  0  0  0  0
  151.0181  144.6220  158.2648 C   0  0  0  0  0  0  0  0  0  0  0  0
  151.5216  143.2639  158.7075 C   0  0  1  0  0  0  0  0  0  0  0  0
  152.3934  143.1290  159.9496 C   0  0  0  0  0  0  0  0  0  0  0  0
  152.1359  141.9798  160.5744 F   0  0  0  0  0  0  0  0  0  0  0  0
  153.6791  143.1552  159.5998 F   0  0  0  0  0  0  0  0  0  0  0  0
  152.1659  144.1281  160.8026 F   0  0  0  0  0  0  0  0  0  0  0  0
  151.7216  142.1524  157.6968 C   0  0  0  0  0  0  0  0  0  0  0  0
  149.3294  141.0773  155.1964 N   0  0  0  0  0  0  0  0  0  0  0  0
  149.0576  140.0698  154.3632 C   0  0  0  0  0  0  0  0  0  0  0  0
  149.5120  138.8170  154.3952 N   0  0  0  0  0  0  0  0  0  0  0  0
  150.3541  138.6233  155.4496 C   0  0  0  0  0  0  0  0  0  0  0  0
  149.6582  134.1101  154.4730 C   0  0  0  0  0  0  0  0  0  0  0  0
  148.2987  133.3905  154.4143 C   0  0  0  0  0  0  0  0  0  0  0  0
  147.2855  134.3030  154.0121 O   0  0  0  0  0  0  0  0  0  0  0  0
  147.1190  135.3797  154.9251 C   0  0  0  0  0  0  0  0  0  0  0  0
  148.4190  136.1999  155.0188 C   0  0  0  0  0  0  0  0  0  0  0  0
  151.0451  133.7742  156.5223 H   0  0  0  0  0  0  0  0  0  0  0  0
  148.5938  134.4125  157.1048 H   0  0  0  0  0  0  0  0  0  0  0  0
  149.5463  135.7928  157.5562 H   0  0  0  0  0  0  0  0  0  0  0  0
  151.8255  135.5853  155.4897 H   0  0  0  0  0  0  0  0  0  0  0  0
  151.1027  136.3171  154.0920 H   0  0  0  0  0  0  0  0  0  0  0  0
  152.3767  137.0821  157.4408 H   0  0  0  0  0  0  0  0  0  0  0  0
  148.6926  143.1875  157.1496 H   0  0  0  0  0  0  0  0  0  0  0  0
  148.7674  141.8959  158.3709 H   0  0  0  0  0  0  0  0  0  0  0  0
  149.5823  143.7271  159.7258 H   0  0  0  0  0  0  0  0  0  0  0  0
  151.0265  144.8439  157.1993 H   0  0  0  0  0  0  0  0  0  0  0  0
  151.1975  145.4758  158.9149 H   0  0  0  0  0  0  0  0  0  0  0  0
  152.0393  141.2360  158.1949 H   0  0  0  0  0  0  0  0  0  0  0  0
  152.4798  142.4392  156.9675 H   0  0  0  0  0  0  0  0  0  0  0  0
  148.3782  140.3006  153.5561 H   0  0  0  0  0  0  0  0  0  0  0  0
  149.9121  134.4271  153.4604 H   0  0  0  0  0  0  0  0  0  0  0  0
  150.4374  133.4063  154.7665 H   0  0  0  0  0  0  0  0  0  0  0  0
  148.3419  132.5791  153.6878 H   0  0  0  0  0  0  0  0  0  0  0  0
  148.0419  132.9359  155.3714 H   0  0  0  0  0  0  0  0  0  0  0  0
  146.3083  136.0145  154.5669 H   0  0  0  0  0  0  0  0  0  0  0  0
  146.8087  135.0034  155.9001 H   0  0  0  0  0  0  0  0  0  0  0  0
  148.2798  137.0198  155.7243 H   0  0  0  0  0  0  0  0  0  0  0  0
  148.5938  136.6624  154.0467 H   0  0  0  0  0  0  0  0  0  0  0  0
  1  2  1  0  0  0  0
  1 29  1  0  0  0  0
  2  3  1  0  0  0  0
  2 30  1  0  0  0  0
  2 31  1  0  0  0  0
  3 28  1  0  0  0  0
  3  4  1  0  0  0  0
  3 24  1  0  0  0  0
  4  5  1  0  0  0  0
  4 32  1  0  0  0  0
  4 33  1  0  0  0  0
  5 23  1  0  0  0  0
  5  6  1  0  0  0  0
  6  7  2  0  0  0  0
  6 34  1  0  0  0  0
  7  8  1  0  0  0  0
  8 23  2  0  0  0  0
  8  9  1  0  0  0  0
  9 10  1  0  0  0  0
  9 20  2  0  0  0  0
 10 19  1  0  0  0  0
 10 11  1  0  0  0  0
 11 12  1  0  0  0  0
 11 35  1  0  0  0  0
 11 36  1  0  0  0  0
 12 14  1  0  0  0  0
 12 13  1  0  0  0  0
 12 37  1  0  0  0  0
 13 14  1  0  0  0  0
 13 38  1  0  0  0  0
 13 39  1  0  0  0  0
 14 15  1  0  0  0  0
 14 19  1  0  0  0  0
 15 16  1  0  0  0  0
 15 17  1  0  0  0  0
 15 18  1  0  0  0  0
 19 40  1  0  0  0  0
 19 41  1  0  0  0  0
 20 21  1  0  0  0  0
 21 22  2  0  0  0  0
 21 42  1  0  0  0  0
 22 23  1  0  0  0  0
 24 25  1  0  0  0  0
 24 43  1  0  0  0  0
 24 44  1  0  0  0  0
 25 26  1  0  0  0  0
 25 45  1  0  0  0  0
 25 46  1  0  0  0  0
 26 27  1  0  0  0  0
 27 28  1  0  0  0  0
 27 47  1  0  0  0  0
 27 48  1  0  0  0  0
 28 49  1  0  0  0  0
 28 50  1  0  0  0  0
M  END
> <s_m_source_file>
AV-unprocessed.smi

> <i_m_source_file_index>
251

> <i_lp_mmshare_version>
43012

> <i_f3d_flags>
0

> <s_epik_input>
W0NIMl0xW0NIMl1PW0NIMl1bQ0gyXUMxKFtDSDJdW09IXSlbQ0gyXW4oW2NIXW4yKWMoYzIzKW5bY0hdbmMzTihbQ0gyXTQpW0NIMl1bQ0BIXShbQ0gyXTUpW0NAQF00NUMoRikoRilG

> <s_epik_cmdline>
J2VwaWtfcHl0aG9uJywgJy1waCcsICc3LjAnLCAnLXRuJywgJzgnLCAnLW1hJywgJzIwMCcsICctbWV0YWxfYmluZGluZycsICctaW1hZScsICc8aW5maWxlLm1hZT4nLCAnLW9tYWUnLCAnPG91dGZpbGUubWFlPic=

> <r_lp_tautomer_probability>
1

> <r_epik_Ionization_Penalty>
0.00226625

> <r_epik_Ionization_Penalty_Charging>
0

> <r_epik_Ionization_Penalty_Neutral>
0.00226625

> <r_epik_State_Penalty>
0.00138204

> <r_epik_Charging_Adjusted_Penalty>
0.00138204

> <i_epik_Tot_Q>
0

> <i_epik_Tot_abs_Q>
0

> <r_epik_Metal_State_Penalty>
-0

> <b_epik_Metal_Only>
0

> <s_lp_Force_Field>
OPLS_2005

> <r_lp_Energy>
66.9783

> <b_lp_Chiralities_Consistent>
1

> <s_lp_Variant>
AV-unprocessed.smi:251-1

> <Gold.Version>
5.8.1

> <Gold.Id.Protein>
6NUR|6NUR_protein|mol2

> <Gold.PLP.Fitness>
40.3933

> <Gold.PLP.PLP>
-39.5279

> <Gold.PLP.part.hbond>
-1.0000

> <Gold.PLP.part.metal>
0.0000

> <Gold.PLP.part.buried>
-3.5064

> <Gold.PLP.part.nonpolar>
-34.6635

> <Gold.PLP.part.repulsive>
0.3964

> <Gold.PLP.ligand.clash>
0.0000

> <Gold.PLP.ligand.torsion>
1.8503

> <Gold.PLP.Chemscore.Hbond>
0.6080

> <Gold.PLP.Chemscore.CHOScore>
0.3139

> <Gold.PLP.Chemscore.Metal>
0.0000

> <Gold.Chemscore.Hbonds>
donor molecule, donor type, donor heavy atom, donor atom, acceptor molecule, acceptor atom, score
      P1  H  6896  6909       L1     1  0.67
      L1  C    21    42       P1  7957  0.35

> <Gold.PLP.Chemscore.Internal.Correction>
1.8003

> <Gold.Rescore>
     Score         DG    S(hbond)    S(metal)    S(lipo)     H(rot)  DE(clash)    DE(int)     intcor
      9.07     -12.33       0.79        0.00      84.88       2.23       0.15       3.11       ----

> <Gold.Chemscore.Fitness>
9.0750

> <Gold.Chemscore.DG>
-12.3293

> <Gold.Chemscore.ZeroCoef>
-5.4800

> <Gold.Chemscore.Hbond>
0.7899

> <Gold.Chemscore.Metal>
0.0000

> <Gold.Chemscore.Lipo>
84.8792

> <Gold.Chemscore.Internal_Hbond>
0.0000

> <Gold.Chemscore.DEClash>
0.1459

> <Gold.Chemscore.DEInternal>
3.1084

> <Gold.Chemscore.Rot>
2.2344

> <Gold.Chemscore.Internal.Correction>
   9.000000E+99

> <Gold.Chemscore.Hbonds>
donor molecule, donor type, donor heavy atom, donor atom, acceptor molecule, acceptor atom, score
      P1  H  6896  6909       L1     1  0.64

> <Gold.Chemscore.Hbond.Weighted>
-2.6384

> <Gold.Chemscore.Metal.Weighted>
-0.0000

> <Gold.Chemscore.Lipo.Weighted>
-9.9309

> <Gold.Chemscore.Internal_Hbond.Weighted>
0.0000

> <Gold.Chemscore.DEClash.Weighted>
0.1459

> <Gold.Chemscore.DEInternal.Weighted>
3.1084

> <Gold.Chemscore.Rot.Weighted>
5.7200

> <Gold.Chemscore.Internal.Correction.Weighted>
   9.000000E+99

> <Gold.Protein.RotatedTorsions>
[ 6907 6896 6895 6894 ] final   -3.82 input  -60.11 | X-H torsion
[ 7974 7965 7964 7962 ] final -174.77 input  175.53 | X-H torsion
[ 8008 7997 7996 7995 ] final   52.10 input   59.86 | X-H torsion
[ 10167 10162 10161 10158 ] final   68.21 input  -65.29 | X-H torsion
[ 10718 10713 10712 10709 ] final  -65.38 input   66.30 | X-H torsion
[ 10763 10752 10751 10750 ] final   29.19 input  -60.55 | X-H torsion
[ 11005 11000 10999 10996 ] final  101.04 input  -57.11 | X-H torsion

> <Gold.Protein.ActiveResidues>
 VAL166  LYS551  ARG553  GLY616  TRP617  ASP618  TYR619  PRO620  LYS621  CYS622 
 ASP623  PHE694  ASN695  SER759  ASP760  ASP761  ALA762  ILE779  LEU786  VAL792 
 PHE793  MET794  SER795  GLU796  ALA797  LYS798  CYS799  TRP800  GLU811  SER814 

> <Gold.Protein.RotatedAtoms>
  151.5077  135.1064  159.9845 H   0  0  0  0  0  0  0  0  0  0  0  0  # atno 6907 bound_to 6896
  152.4675  133.7951  159.6933 H   0  0  0  0  0  0  0  0  0  0  0  0  # atno 6908 bound_to 6896
  150.8666  133.7502  159.3000 H   0  0  0  0  0  0  0  0  0  0  0  0  # atno 6909 bound_to 6896
  144.7130  140.1422  143.6391 H   0  0  0  0  0  0  0  0  0  0  0  0  # atno 7974 bound_to 7965
  155.4462  140.3456  155.4295 H   0  0  0  0  0  0  0  0  0  0  0  0  # atno 8008 bound_to 7997
  156.1248  140.1497  156.9182 H   0  0  0  0  0  0  0  0  0  0  0  0  # atno 8009 bound_to 7997
  154.4850  140.0858  156.7445 H   0  0  0  0  0  0  0  0  0  0  0  0  # atno 8010 bound_to 7997
  140.0811  144.5070  150.7161 H   0  0  0  0  0  0  0  0  0  0  0  0  # atno 10167 bound_to 10162
  156.0673  130.4246  150.1555 H   0  0  0  0  0  0  0  0  0  0  0  0  # atno 10718 bound_to 10713
  153.0445  135.6495  154.0852 H   0  0  0  0  0  0  0  0  0  0  0  0  # atno 10763 bound_to 10752
  154.0553  135.2892  155.3335 H   0  0  0  0  0  0  0  0  0  0  0  0  # atno 10764 bound_to 10752
  154.6693  135.5362  153.8183 H   0  0  0  0  0  0  0  0  0  0  0  0  # atno 10765 bound_to 10752
  139.8772  134.9166  156.4847 H   0  0  0  0  0  0  0  0  0  0  0  0  # atno 11005 bound_to 11000
  145.9192  139.2535  143.1391 LP  0  0  0  0  0  0  0  0  0  0  0  0  # atno 17320 bound_to 7965
  145.9638  140.8815  143.0197 LP  0  0  0  0  0  0  0  0  0  0  0  0  # atno 17321 bound_to 7965
  140.7077  143.2481  151.4676 LP  0  0  0  0  0  0  0  0  0  0  0  0  # atno 17342 bound_to 10162
  139.5779  144.1777  152.1928 LP  0  0  0  0  0  0  0  0  0  0  0  0  # atno 17343 bound_to 10162
  156.9613  130.9806  151.3478 LP  0  0  0  0  0  0  0  0  0  0  0  0  # atno 17370 bound_to 10713
  157.5723  130.8319  149.8408 LP  0  0  0  0  0  0  0  0  0  0  0  0  # atno 17371 bound_to 10713
  140.8702  133.7994  155.9356 LP  0  0  0  0  0  0  0  0  0  0  0  0  # atno 17394 bound_to 11000
  140.8961  134.2436  157.5068 LP  0  0  0  0  0  0  0  0  0  0  0  0  # atno 17395 bound_to 11000

$$$$
