AV-unprocessed.smi:194|AV-procd|sdf|1523|dock4
  -GOLD-   2262019363D 1   1.00000     0.00000
 Structure written by MMmdl.
 53 55  0  0  0  0  0  0  0  0  1 V2000
  148.1689  134.7840  158.8780 C   0  0  0  0  0  0  0  0  0  0  0  0
  146.8062  134.1764  159.2869 C   0  0  1  0  0  0  0  0  0  0  0  0
  146.3611  134.7236  160.6645 C   0  0  0  0  0  0  0  0  0  0  0  0
  147.3600  136.2233  161.1254 S   0  0  2  0  0  0  0  0  0  0  0  0
  147.1563  136.0544  162.9601 C   0  0  0  0  0  0  0  0  0  0  0  0
  146.5535  137.4547  160.7092 O   0  0  0  0  0  0  0  0  0  0  0  0
  145.7662  134.3308  158.2565 N   0  0  0  0  0  0  0  0  0  0  0  0
  144.3767  134.3573  158.7039 C   0  0  0  0  0  0  0  0  0  0  0  0
  145.8891  133.5335  157.1717 C   0  0  0  0  0  0  0  0  0  0  0  0
  145.7159  132.2018  157.3551 N   0  0  0  0  0  0  0  0  0  0  0  0
  145.8197  131.3674  156.3164 C   0  0  0  0  0  0  0  0  0  0  0  0
  146.0892  131.6517  155.0401 N   0  0  0  0  0  0  0  0  0  0  0  0
  146.2783  132.9903  154.8567 C   0  0  0  0  0  0  0  0  0  0  0  0
  146.1948  133.9953  155.8605 C   0  0  0  0  0  0  0  0  0  0  0  0
  146.4349  135.2450  155.3037 N   0  0  0  0  0  0  0  0  0  0  0  0
  146.6386  134.9940  154.0396 C   0  0  0  0  0  0  0  0  0  0  0  0
  146.5822  133.6641  153.6855 N   0  0  0  0  0  0  0  0  0  0  0  0
  146.7605  133.1117  152.3502 C   0  0  0  0  0  0  0  0  0  0  0  0
  145.5725  133.3198  151.3620 C   0  0  0  0  0  0  0  0  0  0  0  0
  145.2370  134.8334  151.2062 C   0  0  0  0  0  0  0  0  0  0  0  0
  146.2654  135.5860  150.5954 O   0  0  0  0  0  0  0  0  0  0  0  0
  145.8575  132.6488  149.9939 C   0  0  0  0  0  0  0  0  0  0  0  0
  144.6032  132.5517  149.1093 C   0  0  0  0  0  0  0  0  0  0  0  0
  143.5937  131.8172  149.7891 O   0  0  0  0  0  0  0  0  0  0  0  0
  143.1673  132.4460  150.9905 C   0  0  0  0  0  0  0  0  0  0  0  0
  144.3493  132.5863  151.9700 C   0  0  0  0  0  0  0  0  0  0  0  0
  148.8883  134.7135  159.6942 H   0  0  0  0  0  0  0  0  0  0  0  0
  148.0780  135.8357  158.6056 H   0  0  0  0  0  0  0  0  0  0  0  0
  148.6095  134.2626  158.0281 H   0  0  0  0  0  0  0  0  0  0  0  0
  146.9617  133.1057  159.4217 H   0  0  0  0  0  0  0  0  0  0  0  0
  145.3008  134.9744  160.6755 H   0  0  0  0  0  0  0  0  0  0  0  0
  146.5049  133.9590  161.4285 H   0  0  0  0  0  0  0  0  0  0  0  0
  147.5506  135.0973  163.3016 H   0  0  0  0  0  0  0  0  0  0  0  0
  146.1028  136.1155  163.2333 H   0  0  0  0  0  0  0  0  0  0  0  0
  147.6937  136.8523  163.4722 H   0  0  0  0  0  0  0  0  0  0  0  0
  143.6799  134.2685  157.8685 H   0  0  0  0  0  0  0  0  0  0  0  0
  144.1546  135.2972  159.2083 H   0  0  0  0  0  0  0  0  0  0  0  0
  144.1789  133.5410  159.3994 H   0  0  0  0  0  0  0  0  0  0  0  0
  145.6642  130.3222  156.5397 H   0  0  0  0  0  0  0  0  0  0  0  0
  146.8488  135.7770  153.3257 H   0  0  0  0  0  0  0  0  0  0  0  0
  147.6702  133.5522  151.9393 H   0  0  0  0  0  0  0  0  0  0  0  0
  146.9732  132.0469  152.4548 H   0  0  0  0  0  0  0  0  0  0  0  0
  144.3469  134.9847  150.5982 H   0  0  0  0  0  0  0  0  0  0  0  0
  145.0154  135.2737  152.1788 H   0  0  0  0  0  0  0  0  0  0  0  0
  146.2292  135.4431  149.6620 H   0  0  0  0  0  0  0  0  0  0  0  0
  146.6479  133.1700  149.4538 H   0  0  0  0  0  0  0  0  0  0  0  0
  146.2280  131.6370  150.1611 H   0  0  0  0  0  0  0  0  0  0  0  0
  144.2330  133.5384  148.8287 H   0  0  0  0  0  0  0  0  0  0  0  0
  144.8440  132.0325  148.1816 H   0  0  0  0  0  0  0  0  0  0  0  0
  142.7069  133.4083  150.7675 H   0  0  0  0  0  0  0  0  0  0  0  0
  142.3875  131.8322  151.4420 H   0  0  0  0  0  0  0  0  0  0  0  0
  144.6428  131.5810  152.2759 H   0  0  0  0  0  0  0  0  0  0  0  0
  144.0177  133.0900  152.8785 H   0  0  0  0  0  0  0  0  0  0  0  0
  1  2  1  0  0  0  0
  1 27  1  0  0  0  0
  1 28  1  0  0  0  0
  1 29  1  0  0  0  0
  2  3  1  0  0  0  0
  2  7  1  0  0  0  0
  2 30  1  0  0  0  0
  3  4  1  0  0  0  0
  3 31  1  0  0  0  0
  3 32  1  0  0  0  0
  4  5  1  0  0  0  0
  4  6  2  0  0  0  0
  5 33  1  0  0  0  0
  5 34  1  0  0  0  0
  5 35  1  0  0  0  0
  7  8  1  0  0  0  0
  7  9  1  0  0  0  0
  8 36  1  0  0  0  0
  8 37  1  0  0  0  0
  8 38  1  0  0  0  0
  9 14  1  0  0  0  0
  9 10  2  0  0  0  0
 10 11  1  0  0  0  0
 11 12  2  0  0  0  0
 11 39  1  0  0  0  0
 12 13  1  0  0  0  0
 13 17  1  0  0  0  0
 13 14  2  0  0  0  0
 14 15  1  0  0  0  0
 15 16  2  0  0  0  0
 16 17  1  0  0  0  0
 16 40  1  0  0  0  0
 17 18  1  0  0  0  0
 18 19  1  0  0  0  0
 18 41  1  0  0  0  0
 18 42  1  0  0  0  0
 19 26  1  0  0  0  0
 19 20  1  0  0  0  0
 19 22  1  0  0  0  0
 20 21  1  0  0  0  0
 20 43  1  0  0  0  0
 20 44  1  0  0  0  0
 21 45  1  0  0  0  0
 22 23  1  0  0  0  0
 22 46  1  0  0  0  0
 22 47  1  0  0  0  0
 23 24  1  0  0  0  0
 23 48  1  0  0  0  0
 23 49  1  0  0  0  0
 24 25  1  0  0  0  0
 25 26  1  0  0  0  0
 25 50  1  0  0  0  0
 25 51  1  0  0  0  0
 26 52  1  0  0  0  0
 26 53  1  0  0  0  0
M  END
> <s_m_source_file>
AV-unprocessed.smi

> <i_m_source_file_index>
194

> <i_lp_mmshare_version>
43012

> <i_f3d_flags>
0

> <s_epik_input>
W0NIM11bU0BAXSg9TylbQ0gyXVtDQEBIXShbQ0gzXSlOKFtDSDNdKWMobltjSF1uMSljKGMxMiluW2NIXW4yW0NIMl1DMyhbQ0gyXVtPSF0pW0NIMl1bQ0gyXU9bQ0gyXVtDSDJdMw==

> <s_epik_cmdline>
J2VwaWtfcHl0aG9uJywgJy1waCcsICc3LjAnLCAnLXRuJywgJzgnLCAnLW1hJywgJzIwMCcsICctbWV0YWxfYmluZGluZycsICctaW1hZScsICc8aW5maWxlLm1hZT4nLCAnLW9tYWUnLCAnPG91dGZpbGUubWFlPic=

> <r_lp_tautomer_probability>
1

> <r_epik_Ionization_Penalty>
0.00101625

> <r_epik_Ionization_Penalty_Charging>
0

> <r_epik_Ionization_Penalty_Neutral>
0.00101625

> <r_epik_State_Penalty>
0.000568005

> <r_epik_Charging_Adjusted_Penalty>
0.000568005

> <i_epik_Tot_Q>
0

> <i_epik_Tot_abs_Q>
0

> <r_epik_Metal_State_Penalty>
-0

> <b_epik_Metal_Only>
0

> <s_lp_Force_Field>
OPLS_2005

> <r_lp_Energy>
31.3732

> <b_lp_Chiralities_Consistent>
1

> <s_lp_Variant>
AV-unprocessed.smi:194-4

> <Gold.Version>
5.8.1

> <Gold.Id.Protein>
6NUR|6NUR_protein|mol2

> <Gold.PLP.Fitness>
39.4653

> <Gold.PLP.PLP>
-30.9229

> <Gold.PLP.part.hbond>
-4.0307

> <Gold.PLP.part.metal>
0.0000

> <Gold.PLP.part.buried>
-0.0787

> <Gold.PLP.part.nonpolar>
-26.6526

> <Gold.PLP.part.repulsive>
0.4304

> <Gold.PLP.ligand.clash>
0.0000

> <Gold.PLP.ligand.torsion>
1.8734

> <Gold.PLP.Chemscore.Hbond>
2.9440

> <Gold.PLP.Chemscore.CHOScore>
0.9241

> <Gold.PLP.Chemscore.Metal>
0.0000

> <Gold.Chemscore.Hbonds>
donor molecule, donor type, donor heavy atom, donor atom, acceptor molecule, acceptor atom, score
      L1  H    21    45       P1  7921  0.81
      P1  H  6934  6947       L1     6  1.00
      P1  H 10785 10796       L1    24  0.96
      L1  C    16    40       P1  7948  0.84

> <Gold.PLP.Chemscore.Internal.Correction>
0.6849

> <Gold.Rescore>
     Score         DG    S(hbond)    S(metal)    S(lipo)     H(rot)  DE(clash)    DE(int)     intcor
     11.79     -14.21       2.54        0.00      74.49       3.31       0.52       1.91       ----

> <Gold.Chemscore.Fitness>
11.7900

> <Gold.Chemscore.DG>
-14.2138

> <Gold.Chemscore.ZeroCoef>
-5.4800

> <Gold.Chemscore.Hbond>
2.5423

> <Gold.Chemscore.Metal>
0.0000

> <Gold.Chemscore.Lipo>
74.4902

> <Gold.Chemscore.Internal_Hbond>
0.0000

> <Gold.Chemscore.DEClash>
0.5156

> <Gold.Chemscore.DEInternal>
1.9082

> <Gold.Chemscore.Rot>
3.3098

> <Gold.Chemscore.Internal.Correction>
   9.000000E+99

> <Gold.Chemscore.Hbonds>
donor molecule, donor type, donor heavy atom, donor atom, acceptor molecule, acceptor atom, score
      L1  H    21    45       P1  7921  0.58
      P1  H  6934  6947       L1     6  0.99
      P1  H 10785 10796       L1    24  0.62

> <Gold.Chemscore.Hbond.Weighted>
-8.4914

> <Gold.Chemscore.Metal.Weighted>
-0.0000

> <Gold.Chemscore.Lipo.Weighted>
-8.7154

> <Gold.Chemscore.Internal_Hbond.Weighted>
0.0000

> <Gold.Chemscore.DEClash.Weighted>
0.5156

> <Gold.Chemscore.DEInternal.Weighted>
1.9082

> <Gold.Chemscore.Rot.Weighted>
8.4730

> <Gold.Chemscore.Internal.Correction.Weighted>
   9.000000E+99

> <Gold.Protein.RotatedTorsions>
[ 6907 6896 6895 6894 ] final  -57.47 input  -60.11 | X-H torsion
[ 7974 7965 7964 7962 ] final -103.35 input  175.53 | X-H torsion
[ 8008 7997 7996 7995 ] final  -39.08 input   59.86 | X-H torsion
[ 10167 10162 10161 10158 ] final -173.84 input  -65.29 | X-H torsion
[ 10718 10713 10712 10709 ] final -171.21 input   66.30 | X-H torsion
[ 10763 10752 10751 10750 ] final   75.39 input  -60.55 | X-H torsion
[ 11005 11000 10999 10996 ] final -126.54 input  -57.11 | X-H torsion

> <Gold.Protein.ActiveResidues>
 VAL166  LYS551  ARG553  GLY616  TRP617  ASP618  TYR619  PRO620  LYS621  CYS622 
 ASP623  PHE694  ASN695  SER759  ASP760  ASP761  ALA762  ILE779  LEU786  VAL792 
 PHE793  MET794  SER795  GLU796  ALA797  LYS798  CYS799  TRP800  GLU811  SER814 

> <Gold.Protein.RotatedAtoms>
  150.8083  134.7222  159.6664 H   0  0  0  0  0  0  0  0  0  0  0  0  # atno 6907 bound_to 6896
  152.4203  134.5964  159.9998 H   0  0  0  0  0  0  0  0  0  0  0  0  # atno 6908 bound_to 6896
  151.6181  133.3304  159.3118 H   0  0  0  0  0  0  0  0  0  0  0  0  # atno 6909 bound_to 6896
  145.2570  140.9257  143.3062 H   0  0  0  0  0  0  0  0  0  0  0  0  # atno 7974 bound_to 7965
  154.4028  140.1561  156.2805 H   0  0  0  0  0  0  0  0  0  0  0  0  # atno 8008 bound_to 7997
  155.8874  140.3440  155.5909 H   0  0  0  0  0  0  0  0  0  0  0  0  # atno 8009 bound_to 7997
  155.7598  140.0816  157.2151 H   0  0  0  0  0  0  0  0  0  0  0  0  # atno 8010 bound_to 7997
  139.5666  144.1741  152.1322 H   0  0  0  0  0  0  0  0  0  0  0  0  # atno 10167 bound_to 10162
  156.7375  130.9330  151.3108 H   0  0  0  0  0  0  0  0  0  0  0  0  # atno 10718 bound_to 10713
  153.0651  135.4990  154.8182 H   0  0  0  0  0  0  0  0  0  0  0  0  # atno 10763 bound_to 10752
  154.6942  135.2990  154.9438 H   0  0  0  0  0  0  0  0  0  0  0  0  # atno 10764 bound_to 10752
  154.0183  135.6745  153.4823 H   0  0  0  0  0  0  0  0  0  0  0  0  # atno 10765 bound_to 10752
  140.9673  134.0854  157.3907 H   0  0  0  0  0  0  0  0  0  0  0  0  # atno 11005 bound_to 11000
  144.9452  139.4144  143.6429 LP  0  0  0  0  0  0  0  0  0  0  0  0  # atno 17320 bound_to 7965
  146.3286  139.8432  142.8886 LP  0  0  0  0  0  0  0  0  0  0  0  0  # atno 17321 bound_to 7965
  140.1265  144.5327  150.6829 LP  0  0  0  0  0  0  0  0  0  0  0  0  # atno 17342 bound_to 10162
  140.6950  143.2398  151.5027 LP  0  0  0  0  0  0  0  0  0  0  0  0  # atno 17343 bound_to 10162
  157.6833  130.9160  150.0321 LP  0  0  0  0  0  0  0  0  0  0  0  0  # atno 17370 bound_to 10713
  156.1487  130.3642  149.9471 LP  0  0  0  0  0  0  0  0  0  0  0  0  # atno 17371 bound_to 10713
  139.8899  135.0108  156.6705 LP  0  0  0  0  0  0  0  0  0  0  0  0  # atno 17394 bound_to 11000
  140.7381  133.9001  155.8258 LP  0  0  0  0  0  0  0  0  0  0  0  0  # atno 17395 bound_to 11000

$$$$
