AV-unprocessed.smi:1684|AV-procd|sdf|6753|dock6
  -GOLD-   22720 7513D 1   1.00000     0.00000
 Structure written by MMmdl.
 42 43  0  0  0  0  0  0  0  0  1 V2000
  147.7084  133.0553  152.6747 C   0  0  0  0  0  0  0  0  0  0  0  0
  146.4010  133.1005  151.9005 C   0  0  0  0  0  0  0  0  0  0  0  0
  145.7589  131.8916  151.5583 C   0  0  0  0  0  0  0  0  0  0  0  0
  144.5495  131.9355  150.8438 C   0  0  0  0  0  0  0  0  0  0  0  0
  144.0306  133.1951  150.4987 C   0  0  0  0  0  0  0  0  0  0  0  0
  144.6383  134.3551  150.8202 N   0  0  0  0  0  0  0  0  0  0  0  0
  145.8065  134.3305  151.5101 C   0  0  0  0  0  0  0  0  0  0  0  0
  146.5020  135.5143  151.8864 N   0  0  0  0  0  0  0  0  0  0  0  0
  146.0053  136.6423  152.4238 C   0  0  0  0  0  0  0  0  0  0  0  0
  144.8166  136.8511  152.6677 O   0  0  0  0  0  0  0  0  0  0  0  0
  146.9812  137.5309  152.6645 N   0  0  0  0  0  0  0  0  0  0  0  0
  146.8048  138.8577  153.2524 C   0  0  2  0  0  0  0  0  0  0  0  0
  146.8660  139.9078  152.1349 C   0  0  0  0  0  0  0  0  0  0  0  0
  147.8884  139.1226  154.3206 C   0  0  0  0  0  0  0  0  0  0  0  0
  149.0535  138.2380  154.2796 N   0  0  0  0  0  0  0  0  0  0  0  0
  150.2799  138.9706  154.5738 C   0  0  0  0  0  0  0  0  0  0  0  0
  151.5192  138.0596  154.5291 C   0  0  0  0  0  0  0  0  0  0  0  0
  151.3477  136.9751  155.4354 O   0  0  0  0  0  0  0  0  0  0  0  0
  150.1825  136.2061  155.1556 C   0  0  0  0  0  0  0  0  0  0  0  0
  148.9414  137.1134  155.2067 C   0  0  0  0  0  0  0  0  0  0  0  0
  148.0058  132.0291  152.8929 H   0  0  0  0  0  0  0  0  0  0  0  0
  147.6090  133.5837  153.6233 H   0  0  0  0  0  0  0  0  0  0  0  0
  148.5089  133.5217  152.0994 H   0  0  0  0  0  0  0  0  0  0  0  0
  146.1855  130.9398  151.8391 H   0  0  0  0  0  0  0  0  0  0  0  0
  144.0333  131.0280  150.5678 H   0  0  0  0  0  0  0  0  0  0  0  0
  143.1035  133.2741  149.9505 H   0  0  0  0  0  0  0  0  0  0  0  0
  147.4989  135.4954  151.7318 H   0  0  0  0  0  0  0  0  0  0  0  0
  147.9268  137.2660  152.4313 H   0  0  0  0  0  0  0  0  0  0  0  0
  145.8146  138.9403  153.7014 H   0  0  0  0  0  0  0  0  0  0  0  0
  146.7082  140.9108  152.5322 H   0  0  0  0  0  0  0  0  0  0  0  0
  146.0963  139.7278  151.3836 H   0  0  0  0  0  0  0  0  0  0  0  0
  147.8330  139.8982  151.6305 H   0  0  0  0  0  0  0  0  0  0  0  0
  148.2246  140.1536  154.2016 H   0  0  0  0  0  0  0  0  0  0  0  0
  147.4363  139.0738  155.3122 H   0  0  0  0  0  0  0  0  0  0  0  0
  150.4068  139.7828  153.8571 H   0  0  0  0  0  0  0  0  0  0  0  0
  150.2074  139.4325  155.5596 H   0  0  0  0  0  0  0  0  0  0  0  0
  151.6816  137.6771  153.5202 H   0  0  0  0  0  0  0  0  0  0  0  0
  152.4117  138.6197  154.8076 H   0  0  0  0  0  0  0  0  0  0  0  0
  150.2743  135.7337  154.1763 H   0  0  0  0  0  0  0  0  0  0  0  0
  150.0981  135.4061  155.8911 H   0  0  0  0  0  0  0  0  0  0  0  0
  148.8063  137.4834  156.2240 H   0  0  0  0  0  0  0  0  0  0  0  0
  148.0638  136.5123  154.9750 H   0  0  0  0  0  0  0  0  0  0  0  0
  1  2  1  0  0  0  0
  1 21  1  0  0  0  0
  1 22  1  0  0  0  0
  1 23  1  0  0  0  0
  2  7  1  0  0  0  0
  2  3  2  0  0  0  0
  3  4  1  0  0  0  0
  3 24  1  0  0  0  0
  4  5  2  0  0  0  0
  4 25  1  0  0  0  0
  5  6  1  0  0  0  0
  5 26  1  0  0  0  0
  6  7  2  0  0  0  0
  7  8  1  0  0  0  0
  8  9  1  0  0  0  0
  8 27  1  0  0  0  0
  9 10  2  0  0  0  0
  9 11  1  0  0  0  0
 11 12  1  0  0  0  0
 11 28  1  0  0  0  0
 12 13  1  0  0  0  0
 12 14  1  0  0  0  0
 12 29  1  0  0  0  0
 13 30  1  0  0  0  0
 13 31  1  0  0  0  0
 13 32  1  0  0  0  0
 14 15  1  0  0  0  0
 14 33  1  0  0  0  0
 14 34  1  0  0  0  0
 15 20  1  0  0  0  0
 15 16  1  0  0  0  0
 16 17  1  0  0  0  0
 16 35  1  0  0  0  0
 16 36  1  0  0  0  0
 17 18  1  0  0  0  0
 17 37  1  0  0  0  0
 17 38  1  0  0  0  0
 18 19  1  0  0  0  0
 19 20  1  0  0  0  0
 19 39  1  0  0  0  0
 19 40  1  0  0  0  0
 20 41  1  0  0  0  0
 20 42  1  0  0  0  0
M  END
> <s_m_source_file>
AV-unprocessed.smi

> <i_m_source_file_index>
1684

> <i_lp_mmshare_version>
43012

> <i_f3d_flags>
0

> <s_epik_input>
W0NIM11jMVtjSF1bY0hdW2NIXW5jMVtOSF1DKD1PKVtOSF1bQ0BIXShbQ0gzXSlbQ0gyXU4yW0NIMl1bQ0gyXU9bQ0gyXVtDSDJdMg==

> <s_epik_cmdline>
J2VwaWtfcHl0aG9uJywgJy1waCcsICc3LjAnLCAnLXRuJywgJzgnLCAnLW1hJywgJzIwMCcsICctbWV0YWxfYmluZGluZycsICctaW1hZScsICc8aW5maWxlLm1hZT4nLCAnLW9tYWUnLCAnPG91dGZpbGUubWFlPic=

> <r_epik_Ionization_Penalty>
0.26605

> <r_epik_Ionization_Penalty_Charging>
0

> <r_epik_Ionization_Penalty_Neutral>
0.26605

> <r_epik_State_Penalty>
0.257924

> <r_epik_Charging_Adjusted_Penalty>
0.257924

> <i_epik_Tot_Q>
0

> <i_epik_Tot_abs_Q>
0

> <r_epik_Metal_State_Penalty>
0.257922

> <b_epik_Metal_Only>
0

> <s_lp_Force_Field>
OPLS_2005

> <r_lp_Energy>
27.9157

> <b_lp_Chiralities_Consistent>
1

> <s_lp_Variant>
AV-unprocessed.smi:1684-1

> <Gold.Version>
5.8.1

> <Gold.Id.Protein>
6NUR|6NUR_protein|mol2

> <Gold.PLP.Fitness>
39.6809

> <Gold.PLP.PLP>
-31.1247

> <Gold.PLP.part.hbond>
-2.8592

> <Gold.PLP.part.metal>
0.0000

> <Gold.PLP.part.buried>
-3.5249

> <Gold.PLP.part.nonpolar>
-26.9837

> <Gold.PLP.part.repulsive>
0.8966

> <Gold.PLP.ligand.clash>
0.0000

> <Gold.PLP.ligand.torsion>
1.7328

> <Gold.PLP.Chemscore.Hbond>
3.0000

> <Gold.PLP.Chemscore.CHOScore>
1.0000

> <Gold.PLP.Chemscore.Metal>
0.0000

> <Gold.Chemscore.Hbonds>
donor molecule, donor type, donor heavy atom, donor atom, acceptor molecule, acceptor atom, score
      L1  H     8    27       P1  7948  1.00
      L1  H    11    28       P1  7948  1.00
      P1  H 10752 10764       L1    18  0.42
      L1  C     5    26       P1 10186  1.00

> <Gold.PLP.Chemscore.Internal.Correction>
0.0218

> <Gold.Rescore>
     Score         DG    S(hbond)    S(metal)    S(lipo)     H(rot)  DE(clash)    DE(int)     intcor
     17.67     -19.72       2.65        0.00      77.94       1.46       0.36       1.68       ----

> <Gold.Chemscore.Fitness>
17.6688

> <Gold.Chemscore.DG>
-19.7174

> <Gold.Chemscore.ZeroCoef>
-5.4800

> <Gold.Chemscore.Hbond>
2.6501

> <Gold.Chemscore.Metal>
0.0000

> <Gold.Chemscore.Lipo>
77.9367

> <Gold.Chemscore.Internal_Hbond>
0.0000

> <Gold.Chemscore.DEClash>
0.3649

> <Gold.Chemscore.DEInternal>
1.6837

> <Gold.Chemscore.Rot>
1.4581

> <Gold.Chemscore.Internal.Correction>
   9.000000E+99

> <Gold.Chemscore.Hbonds>
donor molecule, donor type, donor heavy atom, donor atom, acceptor molecule, acceptor atom, score
      L1  H     8    27       P1  7948  0.92
      L1  H    11    28       P1  7948  0.91
      P1  H 10752 10764       L1    18  0.04

> <Gold.Chemscore.Hbond.Weighted>
-8.8515

> <Gold.Chemscore.Metal.Weighted>
-0.0000

> <Gold.Chemscore.Lipo.Weighted>
-9.1186

> <Gold.Chemscore.Internal_Hbond.Weighted>
0.0000

> <Gold.Chemscore.DEClash.Weighted>
0.3649

> <Gold.Chemscore.DEInternal.Weighted>
1.6837

> <Gold.Chemscore.Rot.Weighted>
3.7327

> <Gold.Chemscore.Internal.Correction.Weighted>
   9.000000E+99

> <Gold.Protein.RotatedTorsions>
[ 6907 6896 6895 6894 ] final  -58.12 input  -60.11 | X-H torsion
[ 7974 7965 7964 7962 ] final  108.59 input  175.53 | X-H torsion
[ 8008 7997 7996 7995 ] final  -19.87 input   59.86 | X-H torsion
[ 10167 10162 10161 10158 ] final  162.44 input  -65.29 | X-H torsion
[ 10718 10713 10712 10709 ] final   -1.78 input   66.30 | X-H torsion
[ 10763 10752 10751 10750 ] final  -49.18 input  -60.55 | X-H torsion
[ 11005 11000 10999 10996 ] final   22.90 input  -57.11 | X-H torsion

> <Gold.Protein.ActiveResidues>
 VAL166  LYS551  ARG553  GLY616  TRP617  ASP618  TYR619  PRO620  LYS621  CYS622 
 ASP623  PHE694  ASN695  SER759  ASP760  ASP761  ALA762  ILE779  LEU786  VAL792 
 PHE793  MET794  SER795  GLU796  ALA797  LYS798  CYS799  TRP800  GLU811  SER814 

> <Gold.Protein.RotatedAtoms>
  150.8032  134.7139  159.6619 H   0  0  0  0  0  0  0  0  0  0  0  0  # atno 6907 bound_to 6896
  152.4150  134.6054  160.0021 H   0  0  0  0  0  0  0  0  0  0  0  0  # atno 6908 bound_to 6896
  151.6286  133.3296  159.3140 H   0  0  0  0  0  0  0  0  0  0  0  0  # atno 6909 bound_to 6896
  145.2787  139.2640  143.3927 H   0  0  0  0  0  0  0  0  0  0  0  0  # atno 7974 bound_to 7965
  154.4808  140.2077  155.9769 H   0  0  0  0  0  0  0  0  0  0  0  0  # atno 8008 bound_to 7997
  156.1161  140.3221  155.8111 H   0  0  0  0  0  0  0  0  0  0  0  0  # atno 8009 bound_to 7997
  155.4550  140.0520  157.2988 H   0  0  0  0  0  0  0  0  0  0  0  0  # atno 8010 bound_to 7997
  139.4860  144.4437  151.8918 H   0  0  0  0  0  0  0  0  0  0  0  0  # atno 10167 bound_to 10162
  156.8005  130.5391  149.5722 H   0  0  0  0  0  0  0  0  0  0  0  0  # atno 10718 bound_to 10713
  154.0898  135.6579  153.4851 H   0  0  0  0  0  0  0  0  0  0  0  0  # atno 10763 bound_to 10752
  153.0326  135.5200  154.7391 H   0  0  0  0  0  0  0  0  0  0  0  0  # atno 10764 bound_to 10752
  154.6512  135.3001  154.9953 H   0  0  0  0  0  0  0  0  0  0  0  0  # atno 10765 bound_to 10752
  140.3755  134.1976  155.7665 H   0  0  0  0  0  0  0  0  0  0  0  0  # atno 11005 bound_to 11000
  146.3223  140.3248  142.8636 LP  0  0  0  0  0  0  0  0  0  0  0  0  # atno 17320 bound_to 7965
  144.9272  140.7935  143.5711 LP  0  0  0  0  0  0  0  0  0  0  0  0  # atno 17321 bound_to 7965
  140.3891  144.2639  150.5901 LP  0  0  0  0  0  0  0  0  0  0  0  0  # atno 17342 bound_to 10162
  140.5163  143.2277  151.8458 LP  0  0  0  0  0  0  0  0  0  0  0  0  # atno 17343 bound_to 10162
  156.1104  130.6036  151.0038 LP  0  0  0  0  0  0  0  0  0  0  0  0  # atno 17370 bound_to 10713
  157.6556  131.0890  150.7955 LP  0  0  0  0  0  0  0  0  0  0  0  0  # atno 17371 bound_to 10713
  141.1940  133.8137  157.0773 LP  0  0  0  0  0  0  0  0  0  0  0  0  # atno 17394 bound_to 11000
  140.0518  134.9801  157.1150 LP  0  0  0  0  0  0  0  0  0  0  0  0  # atno 17395 bound_to 11000

$$$$
