AV-unprocessed.smi:38|AV-procd|sdf|347|dock2
  -GOLD-   2262016183D 1   1.00000     0.00000
 Structure written by MMmdl.
 27 28  0  0  0  0  0  0  0  0  2 V2000
  152.9671  141.3329  158.9107 O   0  0  0  0  0  0  0  0  0  0  0  0
  152.2868  141.2424  157.8896 C   0  0  0  0  0  0  0  0  0  0  0  0
  152.5661  140.3540  156.8925 N   0  5  0  0  0  0  0  0  0  0  0  0
  151.8086  140.2534  155.7610 C   0  0  0  0  0  0  0  0  0  0  0  0
  152.0536  139.4543  154.8568 O   0  0  0  0  0  0  0  0  0  0  0  0
  150.6791  141.1041  155.6094 N   0  0  0  0  0  0  0  0  0  0  0  0
  149.8424  140.9865  154.3500 C   0  0  1  0  0  0  0  0  0  0  0  0
  149.0444  139.6694  154.3479 C   0  0  0  0  0  0  0  0  0  0  0  0
  147.6214  140.1203  154.0707 C   0  0  2  0  0  0  0  0  0  0  0  0
  147.3408  140.0702  152.6841 O   0  0  0  0  0  0  0  0  0  0  0  0
  147.6164  141.5547  154.6115 C   0  0  2  0  0  0  0  0  0  0  0  0
  146.5305  142.5006  154.0695 C   0  0  0  0  0  0  0  0  0  0  0  0
  145.2471  142.0413  154.4380 O   0  0  0  0  0  0  0  0  0  0  0  0
  148.9172  142.0348  154.2918 O   0  0  0  0  0  0  0  0  0  0  0  0
  150.3757  142.0199  156.6044 C   0  0  0  0  0  0  0  0  0  0  0  0
  151.1273  142.1156  157.7203 C   0  0  0  0  0  0  0  0  0  0  0  0
  150.8067  143.0138  158.6677 F   0  0  0  0  0  0  0  0  0  0  0  0
  150.5434  141.0837  153.5192 H   0  0  0  0  0  0  0  0  0  0  0  0
  146.8935  139.4947  154.5880 H   0  0  0  0  0  0  0  0  0  0  0  0
  147.5414  141.5131  155.6994 H   0  0  0  0  0  0  0  0  0  0  0  0
  149.4407  138.9706  153.6100 H   0  0  0  0  0  0  0  0  0  0  0  0
  149.1015  139.2018  155.3321 H   0  0  0  0  0  0  0  0  0  0  0  0
  148.1294  139.8166  152.2295 H   0  0  0  0  0  0  0  0  0  0  0  0
  146.6698  143.4992  154.4844 H   0  0  0  0  0  0  0  0  0  0  0  0
  146.5888  142.5984  152.9853 H   0  0  0  0  0  0  0  0  0  0  0  0
  144.9601  141.4075  153.7985 H   0  0  0  0  0  0  0  0  0  0  0  0
  149.5276  142.6794  156.5035 H   0  0  0  0  0  0  0  0  0  0  0  0
  1  2  2  0  0  0  0
  2 16  1  0  0  0  0
  2  3  1  0  0  0  0
  3  4  1  0  0  0  0
  4  5  2  0  0  0  0
  4  6  1  0  0  0  0
  6  7  1  0  0  0  0
  6 15  1  0  0  0  0
  7 18  1  0  0  0  0
  7 14  1  0  0  0  0
  7  8  1  0  0  0  0
  8  9  1  0  0  0  0
  8 21  1  0  0  0  0
  8 22  1  0  0  0  0
  9 19  1  0  0  0  0
  9 10  1  0  0  0  0
  9 11  1  0  0  0  0
 10 23  1  0  0  0  0
 11 20  1  0  0  0  0
 11 12  1  0  0  0  0
 11 14  1  0  0  0  0
 12 13  1  0  0  0  0
 12 24  1  0  0  0  0
 12 25  1  0  0  0  0
 13 26  1  0  0  0  0
 15 16  2  0  0  0  0
 15 27  1  0  0  0  0
 16 17  1  0  0  0  0
M  CHG  1   3  -1
M  END
> <s_m_source_file>
AV-unprocessed.smi

> <i_m_source_file_index>
38

> <i_lp_mmshare_version>
43012

> <i_f3d_flags>
0

> <s_epik_input>
Tz1jMVtuSF1jKD1PKW4oW2NIXWMxRilbQ0BIXTJbQ0gyXVtDQEhdKFtPSF0pW0NASF0oTzIpW0NIMl1bT0hd

> <s_epik_cmdline>
J2VwaWtfcHl0aG9uJywgJy1waCcsICc3LjAnLCAnLXRuJywgJzgnLCAnLW1hJywgJzIwMCcsICctbWV0YWxfYmluZGluZycsICctaW1hZScsICc8aW5maWxlLm1hZT4nLCAnLW9tYWUnLCAnPG91dGZpbGUubWFlPic=

> <r_epik_Ionization_Penalty>
1.68146

> <r_epik_Ionization_Penalty_Charging>
3.4211e-08

> <r_epik_Ionization_Penalty_Neutral>
1.68146

> <r_epik_State_Penalty>
1.78593

> <r_epik_Charging_Adjusted_Penalty>
1.78593

> <i_epik_Tot_Q>
-1

> <i_epik_Tot_abs_Q>
1

> <r_epik_Metal_State_Penalty>
0.0113696

> <b_epik_Metal_Only>
0

> <s_epik_Chemistry_Notes>
This compound contains an acetal/aminal-like group ( X-CH(R)-Y where X, Y are N, S, or O) that may be acid/base labile, releasing an aldehyde.

> <s_lp_Force_Field>
OPLS_2005

> <r_lp_Energy>
41.2479

> <b_lp_Chiralities_Consistent>
1

> <s_lp_Variant>
AV-unprocessed.smi:38-13

> <Gold.Version>
5.8.1

> <Gold.Id.Protein>
6NUR|6NUR_protein|mol2

> <Gold.PLP.Fitness>
46.8979

> <Gold.PLP.PLP>
-30.8195

> <Gold.PLP.part.hbond>
-5.0000

> <Gold.PLP.part.metal>
0.0000

> <Gold.PLP.part.buried>
-1.2722

> <Gold.PLP.part.nonpolar>
-23.4142

> <Gold.PLP.part.repulsive>
0.9286

> <Gold.PLP.ligand.clash>
0.0000

> <Gold.PLP.ligand.torsion>
0.1907

> <Gold.PLP.Chemscore.Hbond>
4.4855

> <Gold.PLP.Chemscore.CHOScore>
1.0000

> <Gold.PLP.Chemscore.Metal>
0.0000

> <Gold.Chemscore.Hbonds>
donor molecule, donor type, donor heavy atom, donor atom, acceptor molecule, acceptor atom, score
      L1  H    10    23       P1  7957  1.00
      L1  H    13    26       P1 10175  0.98
      P1  H  7989  7998       L1     5  0.45
      P1  H  7997  8009       L1     3  1.92
      P1  H  8011  8017       L1    14  0.06
      L1  C    15    27       P1  8028  1.00

> <Gold.PLP.Chemscore.Internal.Correction>
0.0034

> <Gold.Rescore>
     Score         DG    S(hbond)    S(metal)    S(lipo)     H(rot)  DE(clash)    DE(int)     intcor
      9.35     -11.07       2.67        0.00      34.69       2.88       1.44       0.28       ----

> <Gold.Chemscore.Fitness>
9.3450

> <Gold.Chemscore.DG>
-11.0696

> <Gold.Chemscore.ZeroCoef>
-5.4800

> <Gold.Chemscore.Hbond>
2.6670

> <Gold.Chemscore.Metal>
0.0000

> <Gold.Chemscore.Lipo>
34.6877

> <Gold.Chemscore.Internal_Hbond>
0.0000

> <Gold.Chemscore.DEClash>
1.4407

> <Gold.Chemscore.DEInternal>
0.2839

> <Gold.Chemscore.Rot>
2.8815

> <Gold.Chemscore.Internal.Correction>
   9.000000E+99

> <Gold.Chemscore.Hbonds>
donor molecule, donor type, donor heavy atom, donor atom, acceptor molecule, acceptor atom, score
      L1  H    10    23       P1  7957  0.99
      L1  H    13    26       P1 10175  0.27
      P1  H  7989  7998       L1     5  0.02
      P1  H  7997  8009       L1     3  0.64

> <Gold.Chemscore.Hbond.Weighted>
-8.9077

> <Gold.Chemscore.Metal.Weighted>
-0.0000

> <Gold.Chemscore.Lipo.Weighted>
-4.0585

> <Gold.Chemscore.Internal_Hbond.Weighted>
0.0000

> <Gold.Chemscore.DEClash.Weighted>
1.4407

> <Gold.Chemscore.DEInternal.Weighted>
0.2839

> <Gold.Chemscore.Rot.Weighted>
7.3765

> <Gold.Chemscore.Internal.Correction.Weighted>
   9.000000E+99

> <Gold.Protein.RotatedTorsions>
[ 6907 6896 6895 6894 ] final -135.35 input  -60.11 | X-H torsion
[ 7974 7965 7964 7962 ] final  -67.24 input  175.53 | X-H torsion
[ 8008 7997 7996 7995 ] final -169.82 input   59.86 | X-H torsion
[ 10167 10162 10161 10158 ] final  108.64 input  -65.29 | X-H torsion
[ 10718 10713 10712 10709 ] final   44.41 input   66.30 | X-H torsion
[ 10763 10752 10751 10750 ] final  129.90 input  -60.55 | X-H torsion
[ 11005 11000 10999 10996 ] final   28.96 input  -57.11 | X-H torsion

> <Gold.Protein.ActiveResidues>
 VAL166  LYS551  ARG553  GLY616  TRP617  ASP618  TYR619  PRO620  LYS621  CYS622 
 ASP623  PHE694  ASN695  SER759  ASP760  ASP761  ALA762  ILE779  LEU786  VAL792 
 PHE793  MET794  SER795  GLU796  ALA797  LYS798  CYS799  TRP800  GLU811  SER814 

> <Gold.Protein.RotatedAtoms>
  150.9968  133.6095  159.2700 H   0  0  0  0  0  0  0  0  0  0  0  0  # atno 6907 bound_to 6896
  151.3296  135.0837  159.9344 H   0  0  0  0  0  0  0  0  0  0  0  0  # atno 6908 bound_to 6896
  152.5262  133.9599  159.7766 H   0  0  0  0  0  0  0  0  0  0  0  0  # atno 6909 bound_to 6896
  145.7317  140.8994  143.0577 H   0  0  0  0  0  0  0  0  0  0  0  0  # atno 7974 bound_to 7965
  155.9101  140.1056  157.1286 H   0  0  0  0  0  0  0  0  0  0  0  0  # atno 8008 bound_to 7997
  154.4038  140.1276  156.4611 H   0  0  0  0  0  0  0  0  0  0  0  0  # atno 8009 bound_to 7997
  155.7321  140.3468  155.5066 H   0  0  0  0  0  0  0  0  0  0  0  0  # atno 8010 bound_to 7997
  139.6830  144.7116  151.1482 H   0  0  0  0  0  0  0  0  0  0  0  0  # atno 10167 bound_to 10162
  157.4265  130.8000  149.7563 H   0  0  0  0  0  0  0  0  0  0  0  0  # atno 10718 bound_to 10713
  153.7493  135.3212  155.3318 H   0  0  0  0  0  0  0  0  0  0  0  0  # atno 10763 bound_to 10752
  154.8268  135.4563  154.0947 H   0  0  0  0  0  0  0  0  0  0  0  0  # atno 10764 bound_to 10752
  153.2145  135.6940  153.8156 H   0  0  0  0  0  0  0  0  0  0  0  0  # atno 10765 bound_to 10752
  140.3100  134.2660  155.7736 H   0  0  0  0  0  0  0  0  0  0  0  0  # atno 11005 bound_to 11000
  144.6891  139.9340  143.7473 LP  0  0  0  0  0  0  0  0  0  0  0  0  # atno 17320 bound_to 7965
  146.0531  139.3531  143.0627 LP  0  0  0  0  0  0  0  0  0  0  0  0  # atno 17321 bound_to 7965
  140.7658  143.5671  150.9035 LP  0  0  0  0  0  0  0  0  0  0  0  0  # atno 17342 bound_to 10162
  139.9345  143.6455  152.3068 LP  0  0  0  0  0  0  0  0  0  0  0  0  # atno 17343 bound_to 10162
  155.9898  130.3949  150.3055 LP  0  0  0  0  0  0  0  0  0  0  0  0  # atno 17370 bound_to 10713
  157.1208  131.0246  151.3010 LP  0  0  0  0  0  0  0  0  0  0  0  0  # atno 17371 bound_to 10713
  141.2110  133.7702  156.9894 LP  0  0  0  0  0  0  0  0  0  0  0  0  # atno 17394 bound_to 11000
  140.1033  134.9522  157.1956 LP  0  0  0  0  0  0  0  0  0  0  0  0  # atno 17395 bound_to 11000

$$$$
