AV-unprocessed.smi:3157|AV-procd|sdf|12040|dock10
  -GOLD-   2272017463D 1   1.00000     0.00000
 Structure written by MMmdl.
 40 41  0  0  0  0  0  0  0  0  2 V2000
  148.1908  141.8145  154.1693 C   0  0  0  0  0  0  0  0  0  0  0  0
  149.4719  141.4479  154.9361 C   0  0  1  0  0  0  0  0  0  0  0  0
  149.5050  142.2276  156.1958 N   0  3  0  0  0  0  0  0  0  0  0  0
  150.8228  142.2829  156.8617 C   0  0  0  0  0  0  0  0  0  0  0  0
  150.9919  143.5884  157.6540 C   0  0  0  0  0  0  0  0  0  0  0  0
  152.3583  143.7154  158.3329 C   0  0  0  0  0  0  0  0  0  0  0  0
  152.1613  144.7460  159.4517 C   0  0  0  0  0  0  0  0  0  0  0  0
  150.6513  144.7999  159.7287 C   0  0  0  0  0  0  0  0  0  0  0  0
  150.0157  143.7407  158.8241 C   0  0  0  0  0  0  0  0  0  0  0  0
  149.5780  139.9282  155.2348 C   0  0  1  0  0  0  0  0  0  0  0  0
  148.4541  139.0963  154.5883 C   0  0  0  0  0  0  0  0  0  0  0  0
  150.8771  139.4011  154.8312 N   0  0  0  0  0  0  0  0  0  0  0  0
  152.1386  139.8237  155.2028 C   0  0  0  0  0  0  0  0  0  0  0  0
  153.0413  138.9981  154.5966 C   0  0  0  0  0  0  0  0  0  0  0  0
  152.2290  138.0842  153.8701 C   0  0  0  0  0  0  0  0  0  0  0  0
  150.9360  138.3209  154.0211 N   0  0  0  0  0  0  0  0  0  0  0  0
  148.1718  141.3650  153.1765 H   0  0  0  0  0  0  0  0  0  0  0  0
  148.1150  142.8934  154.0295 H   0  0  0  0  0  0  0  0  0  0  0  0
  147.2990  141.4855  154.7039 H   0  0  0  0  0  0  0  0  0  0  0  0
  150.3188  141.7422  154.3134 H   0  0  0  0  0  0  0  0  0  0  0  0
  149.2154  143.1740  155.9945 H   0  0  0  0  0  0  0  0  0  0  0  0
  150.9435  141.4253  157.5243 H   0  0  0  0  0  0  0  0  0  0  0  0
  151.5996  142.2083  156.0996 H   0  0  0  0  0  0  0  0  0  0  0  0
  150.8685  144.4393  156.9813 H   0  0  0  0  0  0  0  0  0  0  0  0
  152.6449  142.7582  158.7719 H   0  0  0  0  0  0  0  0  0  0  0  0
  153.1455  144.0047  157.6357 H   0  0  0  0  0  0  0  0  0  0  0  0
  152.7266  144.4708  160.3429 H   0  0  0  0  0  0  0  0  0  0  0  0
  152.5150  145.7271  159.1325 H   0  0  0  0  0  0  0  0  0  0  0  0
  150.4192  144.6227  160.7795 H   0  0  0  0  0  0  0  0  0  0  0  0
  150.2667  145.7878  159.4718 H   0  0  0  0  0  0  0  0  0  0  0  0
  149.0106  144.0162  158.5029 H   0  0  0  0  0  0  0  0  0  0  0  0
  149.9412  142.8000  159.3711 H   0  0  0  0  0  0  0  0  0  0  0  0
  149.4925  139.7904  156.3146 H   0  0  0  0  0  0  0  0  0  0  0  0
  147.4794  139.3399  155.0101 H   0  0  0  0  0  0  0  0  0  0  0  0
  148.6132  138.0304  154.7559 H   0  0  0  0  0  0  0  0  0  0  0  0
  148.4015  139.2588  153.5113 H   0  0  0  0  0  0  0  0  0  0  0  0
  152.2888  140.6657  155.8622 H   0  0  0  0  0  0  0  0  0  0  0  0
  154.1185  139.0391  154.6634 H   0  0  0  0  0  0  0  0  0  0  0  0
  152.5382  137.2567  153.2487 H   0  0  0  0  0  0  0  0  0  0  0  0
  148.8383  141.8181  156.8352 H   0  0  0  0  0  0  0  0  0  0  0  0
  1  2  1  0  0  0  0
  1 17  1  0  0  0  0
  1 18  1  0  0  0  0
  1 19  1  0  0  0  0
  2  3  1  0  0  0  0
  2 10  1  0  0  0  0
  2 20  1  0  0  0  0
  3  4  1  0  0  0  0
  3 21  1  0  0  0  0
  3 40  1  0  0  0  0
  4  5  1  0  0  0  0
  4 22  1  0  0  0  0
  4 23  1  0  0  0  0
  5  9  1  0  0  0  0
  5  6  1  0  0  0  0
  5 24  1  0  0  0  0
  6  7  1  0  0  0  0
  6 25  1  0  0  0  0
  6 26  1  0  0  0  0
  7  8  1  0  0  0  0
  7 27  1  0  0  0  0
  7 28  1  0  0  0  0
  8  9  1  0  0  0  0
  8 29  1  0  0  0  0
  8 30  1  0  0  0  0
  9 31  1  0  0  0  0
  9 32  1  0  0  0  0
 10 11  1  0  0  0  0
 10 12  1  0  0  0  0
 10 33  1  0  0  0  0
 11 34  1  0  0  0  0
 11 35  1  0  0  0  0
 11 36  1  0  0  0  0
 12 16  1  0  0  0  0
 12 13  1  0  0  0  0
 13 14  2  0  0  0  0
 13 37  1  0  0  0  0
 14 15  1  0  0  0  0
 14 38  1  0  0  0  0
 15 16  2  0  0  0  0
 15 39  1  0  0  0  0
M  CHG  1   3   1
M  END
> <s_m_source_file>
AV-unprocessed.smi

> <i_m_source_file_index>
3157

> <i_lp_mmshare_version>
43012

> <i_f3d_flags>
0

> <s_epik_input>
bjFbY0hdW2NIXVtjSF1uMVtDQEBIXShbQ0gzXSlbQ0BIXShbQ0gzXSlbTkhdW0NIMl1bQ0hdMltDSDJdW0NIMl1bQ0gyXVtDSDJdMg==

> <s_epik_cmdline>
J2VwaWtfcHl0aG9uJywgJy1waCcsICc3LjAnLCAnLXRuJywgJzgnLCAnLW1hJywgJzIwMCcsICctbWV0YWxfYmluZGluZycsICctaW1hZScsICc8aW5maWxlLm1hZT4nLCAnLW9tYWUnLCAnPG91dGZpbGUubWFlPic=

> <r_lp_tautomer_probability>
1

> <r_epik_Ionization_Penalty>
0.00132192

> <r_epik_Ionization_Penalty_Charging>
0.0013111

> <r_epik_Ionization_Penalty_Neutral>
1.08112e-05

> <r_epik_State_Penalty>
-0

> <r_epik_Charging_Adjusted_Penalty>
0.0013111

> <i_epik_Tot_Q>
1

> <i_epik_Tot_abs_Q>
1

> <r_epik_Metal_State_Penalty>
-0

> <b_epik_Metal_Only>
0

> <s_lp_Force_Field>
OPLS_2005

> <r_lp_Energy>
31.1459

> <b_lp_Chiralities_Consistent>
1

> <s_lp_Variant>
AV-unprocessed.smi:3157-4

> <Gold.Version>
5.8.1

> <Gold.Id.Protein>
6NUR|6NUR_protein|mol2

> <Gold.PLP.Fitness>
44.3399

> <Gold.PLP.PLP>
-38.7659

> <Gold.PLP.part.hbond>
-1.0000

> <Gold.PLP.part.metal>
0.0000

> <Gold.PLP.part.buried>
-1.7797

> <Gold.PLP.part.nonpolar>
-36.3933

> <Gold.PLP.part.repulsive>
0.3143

> <Gold.PLP.ligand.clash>
0.0000

> <Gold.PLP.ligand.torsion>
1.7540

> <Gold.PLP.Chemscore.Hbond>
2.0000

> <Gold.PLP.Chemscore.CHOScore>
1.0000

> <Gold.PLP.Chemscore.Metal>
0.0000

> <Gold.Chemscore.Hbonds>
donor molecule, donor type, donor heavy atom, donor atom, acceptor molecule, acceptor atom, score
      L1  H     3    21       P1  8028  2.00
      L1  C    15    39       P1  7949  0.93

> <Gold.PLP.Chemscore.Internal.Correction>
0.0822

> <Gold.Rescore>
     Score         DG    S(hbond)    S(metal)    S(lipo)     H(rot)  DE(clash)    DE(int)     intcor
     16.19     -17.90       1.00        0.00     110.67       1.50       0.01       1.70       ----

> <Gold.Chemscore.Fitness>
16.1874

> <Gold.Chemscore.DG>
-17.9048

> <Gold.Chemscore.ZeroCoef>
-5.4800

> <Gold.Chemscore.Hbond>
0.9966

> <Gold.Chemscore.Metal>
0.0000

> <Gold.Chemscore.Lipo>
110.6683

> <Gold.Chemscore.Internal_Hbond>
0.0000

> <Gold.Chemscore.DEClash>
0.0149

> <Gold.Chemscore.DEInternal>
1.7026

> <Gold.Chemscore.Rot>
1.5047

> <Gold.Chemscore.Internal.Correction>
   9.000000E+99

> <Gold.Chemscore.Hbonds>
donor molecule, donor type, donor heavy atom, donor atom, acceptor molecule, acceptor atom, score
      L1  H     3    21       P1  8028  0.99

> <Gold.Chemscore.Hbond.Weighted>
-3.3286

> <Gold.Chemscore.Metal.Weighted>
-0.0000

> <Gold.Chemscore.Lipo.Weighted>
-12.9482

> <Gold.Chemscore.Internal_Hbond.Weighted>
0.0000

> <Gold.Chemscore.DEClash.Weighted>
0.0149

> <Gold.Chemscore.DEInternal.Weighted>
1.7026

> <Gold.Chemscore.Rot.Weighted>
3.8520

> <Gold.Chemscore.Internal.Correction.Weighted>
   9.000000E+99

> <Gold.Protein.RotatedTorsions>
[ 6907 6896 6895 6894 ] final -160.52 input  -60.11 | X-H torsion
[ 7974 7965 7964 7962 ] final   60.76 input  175.53 | X-H torsion
[ 8008 7997 7996 7995 ] final  -28.19 input   59.86 | X-H torsion
[ 10167 10162 10161 10158 ] final  109.15 input  -65.29 | X-H torsion
[ 10718 10713 10712 10709 ] final  -76.75 input   66.30 | X-H torsion
[ 10763 10752 10751 10750 ] final -133.48 input  -60.55 | X-H torsion
[ 11005 11000 10999 10996 ] final -161.29 input  -57.11 | X-H torsion

> <Gold.Protein.ActiveResidues>
 VAL166  LYS551  ARG553  GLY616  TRP617  ASP618  TYR619  PRO620  LYS621  CYS622 
 ASP623  PHE694  ASN695  SER759  ASP760  ASP761  ALA762  ILE779  LEU786  VAL792 
 PHE793  MET794  SER795  GLU796  ALA797  LYS798  CYS799  TRP800  GLU811  SER814 

> <Gold.Protein.RotatedAtoms>
  151.3503  133.3928  159.2679 H   0  0  0  0  0  0  0  0  0  0  0  0  # atno 6907 bound_to 6896
  150.9806  134.9163  159.7852 H   0  0  0  0  0  0  0  0  0  0  0  0  # atno 6908 bound_to 6896
  152.5216  134.3467  159.9289 H   0  0  0  0  0  0  0  0  0  0  0  0  # atno 6909 bound_to 6896
  145.8924  139.3520  143.0641 H   0  0  0  0  0  0  0  0  0  0  0  0  # atno 7974 bound_to 7965
  154.4343  140.1852  156.1050 H   0  0  0  0  0  0  0  0  0  0  0  0  # atno 8008 bound_to 7997
  156.0262  140.3335  155.7066 H   0  0  0  0  0  0  0  0  0  0  0  0  # atno 8009 bound_to 7997
  155.5905  140.0630  157.2751 H   0  0  0  0  0  0  0  0  0  0  0  0  # atno 8010 bound_to 7997
  139.6790  144.7120  151.1550 H   0  0  0  0  0  0  0  0  0  0  0  0  # atno 10167 bound_to 10162
  156.0165  130.4473  150.3240 H   0  0  0  0  0  0  0  0  0  0  0  0  # atno 10718 bound_to 10713
  154.8732  135.3765  154.4579 H   0  0  0  0  0  0  0  0  0  0  0  0  # atno 10763 bound_to 10752
  153.5250  135.7028  153.5717 H   0  0  0  0  0  0  0  0  0  0  0  0  # atno 10764 bound_to 10752
  153.3947  135.3963  155.1913 H   0  0  0  0  0  0  0  0  0  0  0  0  # atno 10765 bound_to 10752
  140.6220  134.4740  157.5224 H   0  0  0  0  0  0  0  0  0  0  0  0  # atno 11005 bound_to 11000
  145.8892  140.9314  143.0561 LP  0  0  0  0  0  0  0  0  0  0  0  0  # atno 17320 bound_to 7965
  144.6731  140.0883  143.7466 LP  0  0  0  0  0  0  0  0  0  0  0  0  # atno 17321 bound_to 7965
  140.7645  143.5728  150.8977 LP  0  0  0  0  0  0  0  0  0  0  0  0  # atno 17342 bound_to 10162
  139.9399  143.6394  152.3056 LP  0  0  0  0  0  0  0  0  0  0  0  0  # atno 17343 bound_to 10162
  157.1340  131.0279  151.2957 LP  0  0  0  0  0  0  0  0  0  0  0  0  # atno 17370 bound_to 10713
  157.4527  130.7608  149.7165 LP  0  0  0  0  0  0  0  0  0  0  0  0  # atno 17371 bound_to 10713
  139.9149  134.8266  156.1399 LP  0  0  0  0  0  0  0  0  0  0  0  0  # atno 17394 bound_to 11000
  141.0735  133.6786  156.2189 LP  0  0  0  0  0  0  0  0  0  0  0  0  # atno 17395 bound_to 11000

$$$$
