AV-unprocessed.smi:47|AV-procd|sdf|437|dock1
  -GOLD-   2262016303D 1   1.00000     0.00000
 Structure written by MMmdl.
 31 33  0  0  0  0  0  0  0  0  1 V2000
  145.8329  139.7891  153.9138 O   0  0  0  0  0  0  0  0  0  0  0  0
  146.8672  140.7299  153.7197 C   0  0  1  0  0  0  0  0  0  0  0  0
  146.6996  141.9706  154.5921 C   0  0  0  0  0  0  0  0  0  0  0  0
  148.0358  142.5477  154.7226 N   0  0  0  0  0  0  0  0  0  0  0  0
  149.0194  141.5110  154.3827 C   0  0  1  0  0  0  0  0  0  0  0  0
  150.1077  141.3531  155.3992 C   0  0  0  0  0  0  0  0  0  0  0  0
  151.0346  140.4106  155.2601 N   0  0  0  0  0  0  0  0  0  0  0  0
  151.7738  140.5827  156.3750 N   0  0  0  0  0  0  0  0  0  0  0  0
  151.2688  141.5739  157.1204 C   0  0  0  0  0  0  0  0  0  0  0  0
  151.8258  142.0240  158.3979 C   0  0  0  0  0  0  0  0  0  0  0  0
  152.6835  141.1812  159.1423 C   0  0  0  0  0  0  0  0  0  0  0  0
  153.2194  141.6131  160.3711 C   0  0  0  0  0  0  0  0  0  0  0  0
  152.9021  142.8905  160.8694 C   0  0  0  0  0  0  0  0  0  0  0  0
  152.0480  143.7361  160.1372 C   0  0  0  0  0  0  0  0  0  0  0  0
  151.5124  143.3056  158.9076 C   0  0  0  0  0  0  0  0  0  0  0  0
  150.1870  142.0976  156.5434 N   0  0  0  0  0  0  0  0  0  0  0  0
  148.2292  140.2146  154.1604 C   0  0  0  0  0  0  0  0  0  0  0  0
  146.9019  141.0171  152.6678 H   0  0  0  0  0  0  0  0  0  0  0  0
  149.4806  141.7876  153.4333 H   0  0  0  0  0  0  0  0  0  0  0  0
  152.5832  140.0171  156.5868 H   0  0  0  0  0  0  0  0  0  0  0  0
  145.0137  140.1870  153.6615 H   0  0  0  0  0  0  0  0  0  0  0  0
  145.9867  142.6835  154.1768 H   0  0  0  0  0  0  0  0  0  0  0  0
  146.3380  141.6793  155.5794 H   0  0  0  0  0  0  0  0  0  0  0  0
  148.1264  143.3057  154.0542 H   0  0  0  0  0  0  0  0  0  0  0  0
  152.9411  140.1974  158.7786 H   0  0  0  0  0  0  0  0  0  0  0  0
  153.8751  140.9633  160.9318 H   0  0  0  0  0  0  0  0  0  0  0  0
  153.3132  143.2215  161.8118 H   0  0  0  0  0  0  0  0  0  0  0  0
  151.8023  144.7161  160.5184 H   0  0  0  0  0  0  0  0  0  0  0  0
  150.8584  143.9700  158.3619 H   0  0  0  0  0  0  0  0  0  0  0  0
  148.1249  139.6729  155.1026 H   0  0  0  0  0  0  0  0  0  0  0  0
  148.6987  139.5454  153.4389 H   0  0  0  0  0  0  0  0  0  0  0  0
  1  2  1  0  0  0  0
  1 21  1  0  0  0  0
  2 18  1  0  0  0  0
  2 17  1  0  0  0  0
  2  3  1  0  0  0  0
  3  4  1  0  0  0  0
  3 22  1  0  0  0  0
  3 23  1  0  0  0  0
  4  5  1  0  0  0  0
  4 24  1  0  0  0  0
  5 19  1  0  0  0  0
  5  6  1  0  0  0  0
  5 17  1  0  0  0  0
  6 16  1  0  0  0  0
  6  7  2  0  0  0  0
  7  8  1  0  0  0  0
  8 20  1  0  0  0  0
  8  9  1  0  0  0  0
  9 10  1  0  0  0  0
  9 16  2  0  0  0  0
 10 15  1  0  0  0  0
 10 11  2  0  0  0  0
 11 12  1  0  0  0  0
 11 25  1  0  0  0  0
 12 13  2  0  0  0  0
 12 26  1  0  0  0  0
 13 14  1  0  0  0  0
 13 27  1  0  0  0  0
 14 15  2  0  0  0  0
 14 28  1  0  0  0  0
 15 29  1  0  0  0  0
 17 30  1  0  0  0  0
 17 31  1  0  0  0  0
M  END
> <s_m_source_file>
AV-unprocessed.smi

> <i_m_source_file_index>
47

> <i_lp_mmshare_version>
43012

> <i_f3d_flags>
0

> <s_epik_input>
W09IXVtDQEhdMVtDSDJdW05IXVtDQEBIXShbQ0gyXTEpYzJuW25IXWMobjIpLWMzW2NIXVtjSF1bY0hdW2NIXVtjSF0z

> <s_epik_cmdline>
J2VwaWtfcHl0aG9uJywgJy1waCcsICc3LjAnLCAnLXRuJywgJzgnLCAnLW1hJywgJzIwMCcsICctbWV0YWxfYmluZGluZycsICctaW1hZScsICc8aW5maWxlLm1hZT4nLCAnLW9tYWUnLCAnPG91dGZpbGUubWFlPic=

> <r_epik_Ionization_Penalty>
1.65981

> <r_epik_Ionization_Penalty_Charging>
0

> <r_epik_Ionization_Penalty_Neutral>
1.65981

> <r_epik_State_Penalty>
2.0492

> <r_epik_Charging_Adjusted_Penalty>
2.0492

> <i_epik_Tot_Q>
0

> <i_epik_Tot_abs_Q>
0

> <r_epik_Metal_State_Penalty>
2.54641

> <b_epik_Metal_Only>
0

> <s_lp_Force_Field>
OPLS_2005

> <r_lp_Energy>
26.3826

> <b_lp_Chiralities_Consistent>
1

> <s_lp_Variant>
AV-unprocessed.smi:47-15

> <Gold.Version>
5.8.1

> <Gold.Id.Protein>
6NUR|6NUR_protein|mol2

> <Gold.PLP.Fitness>
42.0392

> <Gold.PLP.PLP>
-36.5620

> <Gold.PLP.part.hbond>
-2.8006

> <Gold.PLP.part.metal>
0.0000

> <Gold.PLP.part.buried>
-4.0465

> <Gold.PLP.part.nonpolar>
-29.9506

> <Gold.PLP.part.repulsive>
0.7971

> <Gold.PLP.ligand.clash>
0.0000

> <Gold.PLP.ligand.torsion>
0.1933

> <Gold.PLP.Chemscore.Hbond>
1.9500

> <Gold.PLP.Chemscore.CHOScore>
0.0000

> <Gold.PLP.Chemscore.Metal>
0.0000

> <Gold.Chemscore.Hbonds>
donor molecule, donor type, donor heavy atom, donor atom, acceptor molecule, acceptor atom, score
      L1  H     1    21       P1 10175  1.00
      P1  H  7989  7998       L1     7  0.90

> <Gold.PLP.Chemscore.Internal.Correction>
0.0138

> <Gold.Rescore>
     Score         DG    S(hbond)    S(metal)    S(lipo)     H(rot)  DE(clash)    DE(int)     intcor
     17.14     -17.61       1.81        0.00      84.31       1.48       0.07       0.41       ----

> <Gold.Chemscore.Fitness>
17.1352

> <Gold.Chemscore.DG>
-17.6149

> <Gold.Chemscore.ZeroCoef>
-5.4800

> <Gold.Chemscore.Hbond>
1.8130

> <Gold.Chemscore.Metal>
0.0000

> <Gold.Chemscore.Lipo>
84.3145

> <Gold.Chemscore.Internal_Hbond>
0.0000

> <Gold.Chemscore.DEClash>
0.0735

> <Gold.Chemscore.DEInternal>
0.4062

> <Gold.Chemscore.Rot>
1.4786

> <Gold.Chemscore.Internal.Correction>
   9.000000E+99

> <Gold.Chemscore.Hbonds>
donor molecule, donor type, donor heavy atom, donor atom, acceptor molecule, acceptor atom, score
      L1  H     1    21       P1 10175  0.96
      L1  H     4    24       P1  8028  0.01
      P1  H  7989  7998       L1     7  0.17

> <Gold.Chemscore.Hbond.Weighted>
-6.0553

> <Gold.Chemscore.Metal.Weighted>
-0.0000

> <Gold.Chemscore.Lipo.Weighted>
-9.8648

> <Gold.Chemscore.Internal_Hbond.Weighted>
0.0000

> <Gold.Chemscore.DEClash.Weighted>
0.0735

> <Gold.Chemscore.DEInternal.Weighted>
0.4062

> <Gold.Chemscore.Rot.Weighted>
3.7853

> <Gold.Chemscore.Internal.Correction.Weighted>
   9.000000E+99

> <Gold.Protein.RotatedTorsions>
[ 6907 6896 6895 6894 ] final  -70.61 input  -60.11 | X-H torsion
[ 7974 7965 7964 7962 ] final  144.07 input  175.53 | X-H torsion
[ 8008 7997 7996 7995 ] final  -19.43 input   59.86 | X-H torsion
[ 10167 10162 10161 10158 ] final  -13.74 input  -65.29 | X-H torsion
[ 10718 10713 10712 10709 ] final  162.84 input   66.30 | X-H torsion
[ 10763 10752 10751 10750 ] final   12.05 input  -60.55 | X-H torsion
[ 11005 11000 10999 10996 ] final -163.01 input  -57.11 | X-H torsion

> <Gold.Protein.ActiveResidues>
 VAL166  LYS551  ARG553  GLY616  TRP617  ASP618  TYR619  PRO620  LYS621  CYS622 
 ASP623  PHE694  ASN695  SER759  ASP760  ASP761  ALA762  ILE779  LEU786  VAL792 
 PHE793  MET794  SER795  GLU796  ALA797  LYS798  CYS799  TRP800  GLU811  SER814 

> <Gold.Protein.RotatedAtoms>
  150.7249  134.5427  159.5755 H   0  0  0  0  0  0  0  0  0  0  0  0  # atno 6907 bound_to 6896
  152.2934  134.7692  160.0382 H   0  0  0  0  0  0  0  0  0  0  0  0  # atno 6908 bound_to 6896
  151.8298  133.3371  159.3646 H   0  0  0  0  0  0  0  0  0  0  0  0  # atno 6909 bound_to 6896
  144.8867  139.5619  143.5818 H   0  0  0  0  0  0  0  0  0  0  0  0  # atno 7974 bound_to 7965
  154.4837  140.2089  155.9704 H   0  0  0  0  0  0  0  0  0  0  0  0  # atno 8008 bound_to 7997
  156.1204  140.3214  155.8169 H   0  0  0  0  0  0  0  0  0  0  0  0  # atno 8009 bound_to 7997
  155.4478  140.0515  157.2995 H   0  0  0  0  0  0  0  0  0  0  0  0  # atno 8010 bound_to 7997
  140.7188  143.5394  150.9426 H   0  0  0  0  0  0  0  0  0  0  0  0  # atno 10167 bound_to 10162
  157.1169  131.0482  151.2432 H   0  0  0  0  0  0  0  0  0  0  0  0  # atno 10718 bound_to 10713
  153.1863  135.6835  153.8411 H   0  0  0  0  0  0  0  0  0  0  0  0  # atno 10763 bound_to 10752
  153.7726  135.3194  155.3355 H   0  0  0  0  0  0  0  0  0  0  0  0  # atno 10764 bound_to 10752
  154.8090  135.4729  154.0564 H   0  0  0  0  0  0  0  0  0  0  0  0  # atno 10765 bound_to 10752
  140.6028  134.4929  157.5207 H   0  0  0  0  0  0  0  0  0  0  0  0  # atno 11005 bound_to 11000
  146.3028  139.7483  142.9078 LP  0  0  0  0  0  0  0  0  0  0  0  0  # atno 17320 bound_to 7965
  145.3857  141.0365  143.3152 LP  0  0  0  0  0  0  0  0  0  0  0  0  # atno 17321 bound_to 7965
  139.9117  143.6713  152.3114 LP  0  0  0  0  0  0  0  0  0  0  0  0  # atno 17342 bound_to 10162
  139.7098  144.7622  151.1131 LP  0  0  0  0  0  0  0  0  0  0  0  0  # atno 17343 bound_to 10162
  157.4510  130.7598  149.7151 LP  0  0  0  0  0  0  0  0  0  0  0  0  # atno 17370 bound_to 10713
  155.9837  130.3998  150.3348 LP  0  0  0  0  0  0  0  0  0  0  0  0  # atno 17371 bound_to 10713
  139.9225  134.8121  156.1168 LP  0  0  0  0  0  0  0  0  0  0  0  0  # atno 17394 bound_to 11000
  141.0860  133.6734  156.2438 LP  0  0  0  0  0  0  0  0  0  0  0  0  # atno 17395 bound_to 11000

$$$$
