AV-unprocessed.smi:2784|AV-procd|sdf|10730|dock6
  -GOLD-   2272015163D 1   1.00000     0.00000
 Structure written by MMmdl.
 32 33  0  0  0  0  0  0  0  0  2 V2000
  151.3109  145.6890  159.9532 C   0  0  0  0  0  0  0  0  0  0  0  0
  152.2363  144.7160  159.4951 O   0  0  0  0  0  0  0  0  0  0  0  0
  152.0116  143.4187  160.0293 C   0  0  2  0  0  0  0  0  0  0  0  0
  152.4427  143.3914  161.4985 C   0  0  0  0  0  0  0  0  0  0  0  0
  152.8538  141.9444  161.7474 C   0  0  0  0  0  0  0  0  0  0  0  0
  153.5516  141.5345  160.4511 C   0  0  0  0  0  0  0  0  0  0  0  0
  152.8524  142.3256  159.3292 C   0  0  1  0  0  0  0  0  0  0  0  0
  151.9939  141.4482  158.5363 N   0  0  0  0  0  0  0  0  0  0  0  0
  151.3562  141.8010  157.4108 C   0  0  0  0  0  0  0  0  0  0  0  0
  151.4326  142.9194  156.9018 O   0  0  0  0  0  0  0  0  0  0  0  0
  150.6313  140.7863  156.9160 N   0  0  0  0  0  0  0  0  0  0  0  0
  149.8145  140.8408  155.7632 C   0  0  0  0  0  0  0  0  0  0  0  0
  149.0245  141.8688  155.4573 N   0  3  0  0  0  0  0  0  0  0  0  0
  148.3832  141.5950  154.2747 C   0  0  0  0  0  0  0  0  0  0  0  0
  148.8275  140.3535  153.8876 C   0  0  0  0  0  0  0  0  0  0  0  0
  149.7279  139.8662  154.8136 O   0  0  0  0  0  0  0  0  0  0  0  0
  151.5566  146.6580  159.5188 H   0  0  0  0  0  0  0  0  0  0  0  0
  151.3490  145.7887  161.0386 H   0  0  0  0  0  0  0  0  0  0  0  0
  150.2896  145.4434  159.6610 H   0  0  0  0  0  0  0  0  0  0  0  0
  150.9474  143.1755  159.9899 H   0  0  0  0  0  0  0  0  0  0  0  0
  153.3072  144.0404  161.6461 H   0  0  0  0  0  0  0  0  0  0  0  0
  151.6553  143.7294  162.1731 H   0  0  0  0  0  0  0  0  0  0  0  0
  153.4941  141.8331  162.6230 H   0  0  0  0  0  0  0  0  0  0  0  0
  151.9660  141.3296  161.9005 H   0  0  0  0  0  0  0  0  0  0  0  0
  154.5998  141.8330  160.4997 H   0  0  0  0  0  0  0  0  0  0  0  0
  153.5348  140.4542  160.2995 H   0  0  0  0  0  0  0  0  0  0  0  0
  153.6133  142.7897  158.6988 H   0  0  0  0  0  0  0  0  0  0  0  0
  151.8766  140.5057  158.8786 H   0  0  0  0  0  0  0  0  0  0  0  0
  148.8913  142.7255  155.9799 H   0  0  0  0  0  0  0  0  0  0  0  0
  147.6890  142.2965  153.8343 H   0  0  0  0  0  0  0  0  0  0  0  0
  148.6185  139.7172  153.0399 H   0  0  0  0  0  0  0  0  0  0  0  0
  150.6538  139.9080  157.4124 H   0  0  0  0  0  0  0  0  0  0  0  0
  1  2  1  0  0  0  0
  1 17  1  0  0  0  0
  1 18  1  0  0  0  0
  1 19  1  0  0  0  0
  2  3  1  0  0  0  0
  3  7  1  0  0  0  0
  3  4  1  0  0  0  0
  3 20  1  0  0  0  0
  4  5  1  0  0  0  0
  4 21  1  0  0  0  0
  4 22  1  0  0  0  0
  5  6  1  0  0  0  0
  5 23  1  0  0  0  0
  5 24  1  0  0  0  0
  6  7  1  0  0  0  0
  6 25  1  0  0  0  0
  6 26  1  0  0  0  0
  7  8  1  0  0  0  0
  7 27  1  0  0  0  0
  8 28  1  0  0  0  0
  8  9  1  0  0  0  0
  9 11  1  0  0  0  0
  9 10  2  0  0  0  0
 11 12  1  0  0  0  0
 11 32  1  0  0  0  0
 12 16  1  0  0  0  0
 12 13  2  0  0  0  0
 13 29  1  0  0  0  0
 13 14  1  0  0  0  0
 14 30  1  0  0  0  0
 14 15  2  0  0  0  0
 15 31  1  0  0  0  0
 15 16  1  0  0  0  0
M  CHG  1  13   1
M  END
> <s_m_source_file>
AV-unprocessed.smi

> <i_m_source_file_index>
2784

> <i_lp_mmshare_version>
43012

> <i_f3d_flags>
0

> <s_epik_input>
W0NIM11PW0NAQEhdMVtDSDJdW0NIMl1bQ0gyXVtDQEhdMVtOSF1DKD1PKVtOSF1jMm5bY0hdW2NIXW8y

> <s_epik_cmdline>
J2VwaWtfcHl0aG9uJywgJy1waCcsICc3LjAnLCAnLXRuJywgJzgnLCAnLW1hJywgJzIwMCcsICctbWV0YWxfYmluZGluZycsICctaW1hZScsICc8aW5maWxlLm1hZT4nLCAnLW9tYWUnLCAnPG91dGZpbGUubWFlPic=

> <r_epik_Ionization_Penalty>
6.73843

> <r_epik_Ionization_Penalty_Charging>
6.66704

> <r_epik_Ionization_Penalty_Neutral>
0.0713889

> <r_epik_State_Penalty>
1.94951

> <r_epik_Charging_Adjusted_Penalty>
8.61656

> <i_epik_Tot_Q>
1

> <i_epik_Tot_abs_Q>
1

> <r_epik_Metal_State_Penalty>
1.97013

> <b_epik_Metal_Only>
0

> <s_lp_Force_Field>
OPLS_2005

> <r_lp_Energy>
26.9129

> <b_lp_Chiralities_Consistent>
1

> <s_lp_Variant>
AV-unprocessed.smi:2784-5

> <Gold.Version>
5.8.1

> <Gold.Id.Protein>
6NUR|6NUR_protein|mol2

> <Gold.PLP.Fitness>
38.6921

> <Gold.PLP.PLP>
-33.1220

> <Gold.PLP.part.hbond>
-1.0000

> <Gold.PLP.part.metal>
0.0000

> <Gold.PLP.part.buried>
-2.6055

> <Gold.PLP.part.nonpolar>
-30.3575

> <Gold.PLP.part.repulsive>
0.4864

> <Gold.PLP.ligand.clash>
0.0584

> <Gold.PLP.ligand.torsion>
0.4692

> <Gold.PLP.Chemscore.Hbond>
1.3760

> <Gold.PLP.Chemscore.CHOScore>
0.8110

> <Gold.PLP.Chemscore.Metal>
0.0000

> <Gold.Chemscore.Hbonds>
donor molecule, donor type, donor heavy atom, donor atom, acceptor molecule, acceptor atom, score
      L1  H    13    29       P1  8028  1.57
      L1  C    15    31       P1  7957  0.82

> <Gold.PLP.Chemscore.Internal.Correction>
0.0059

> <Gold.Rescore>
     Score         DG    S(hbond)    S(metal)    S(lipo)     H(rot)  DE(clash)    DE(int)     intcor
     12.89     -14.76       0.93        0.00      81.82       1.34       1.30       0.57       ----

> <Gold.Chemscore.Fitness>
12.8853

> <Gold.Chemscore.DG>
-14.7555

> <Gold.Chemscore.ZeroCoef>
-5.4800

> <Gold.Chemscore.Hbond>
0.9342

> <Gold.Chemscore.Metal>
0.0000

> <Gold.Chemscore.Lipo>
81.8198

> <Gold.Chemscore.Internal_Hbond>
0.0000

> <Gold.Chemscore.DEClash>
1.3013

> <Gold.Chemscore.DEInternal>
0.5689

> <Gold.Chemscore.Rot>
1.3351

> <Gold.Chemscore.Internal.Correction>
   9.000000E+99

> <Gold.Chemscore.Hbonds>
donor molecule, donor type, donor heavy atom, donor atom, acceptor molecule, acceptor atom, score
      L1  H    13    29       P1  8028  0.73

> <Gold.Chemscore.Hbond.Weighted>
-3.1203

> <Gold.Chemscore.Metal.Weighted>
-0.0000

> <Gold.Chemscore.Lipo.Weighted>
-9.5729

> <Gold.Chemscore.Internal_Hbond.Weighted>
0.0000

> <Gold.Chemscore.DEClash.Weighted>
1.3013

> <Gold.Chemscore.DEInternal.Weighted>
0.5689

> <Gold.Chemscore.Rot.Weighted>
3.4177

> <Gold.Chemscore.Internal.Correction.Weighted>
   9.000000E+99

> <Gold.Protein.RotatedTorsions>
[ 6907 6896 6895 6894 ] final   71.84 input  -60.11 | X-H torsion
[ 7974 7965 7964 7962 ] final  -30.78 input  175.53 | X-H torsion
[ 8008 7997 7996 7995 ] final   31.53 input   59.86 | X-H torsion
[ 10167 10162 10161 10158 ] final   70.76 input  -65.29 | X-H torsion
[ 10718 10713 10712 10709 ] final -131.52 input   66.30 | X-H torsion
[ 10763 10752 10751 10750 ] final  -54.06 input  -60.55 | X-H torsion
[ 11005 11000 10999 10996 ] final   77.39 input  -57.11 | X-H torsion

> <Gold.Protein.ActiveResidues>
 VAL166  LYS551  ARG553  GLY616  TRP617  ASP618  TYR619  PRO620  LYS621  CYS622 
 ASP623  PHE694  ASN695  SER759  ASP760  ASP761  ALA762  ILE779  LEU786  VAL792 
 PHE793  MET794  SER795  GLU796  ALA797  LYS798  CYS799  TRP800  GLU811  SER814 

> <Gold.Protein.RotatedAtoms>
  152.4834  134.4660  159.9620 H   0  0  0  0  0  0  0  0  0  0  0  0  # atno 6907 bound_to 6896
  151.4661  133.3574  159.2824 H   0  0  0  0  0  0  0  0  0  0  0  0  # atno 6908 bound_to 6896
  150.8924  134.8354  159.7363 H   0  0  0  0  0  0  0  0  0  0  0  0  # atno 6909 bound_to 6896
  146.1117  140.5584  142.8775 H   0  0  0  0  0  0  0  0  0  0  0  0  # atno 7974 bound_to 7965
  155.1078  140.3236  155.4529 H   0  0  0  0  0  0  0  0  0  0  0  0  # atno 8008 bound_to 7997
  156.2699  140.2049  156.6151 H   0  0  0  0  0  0  0  0  0  0  0  0  # atno 8009 bound_to 7997
  154.6779  140.0529  157.0222 H   0  0  0  0  0  0  0  0  0  0  0  0  # atno 8010 bound_to 7997
  140.0535  144.5292  150.7346 H   0  0  0  0  0  0  0  0  0  0  0  0  # atno 10167 bound_to 10162
  156.2253  130.7004  151.0800 H   0  0  0  0  0  0  0  0  0  0  0  0  # atno 10718 bound_to 10713
  154.1688  135.6462  153.5004 H   0  0  0  0  0  0  0  0  0  0  0  0  # atno 10763 bound_to 10752
  153.0090  135.5378  154.6634 H   0  0  0  0  0  0  0  0  0  0  0  0  # atno 10764 bound_to 10752
  154.5968  135.2939  155.0550 H   0  0  0  0  0  0  0  0  0  0  0  0  # atno 10765 bound_to 10752
  139.9256  134.7679  156.1516 H   0  0  0  0  0  0  0  0  0  0  0  0  # atno 11005 bound_to 11000
  144.7517  140.5207  143.6797 LP  0  0  0  0  0  0  0  0  0  0  0  0  # atno 17320 bound_to 7965
  145.5650  139.1481  143.3320 LP  0  0  0  0  0  0  0  0  0  0  0  0  # atno 17321 bound_to 7965
  140.7206  143.2585  151.4292 LP  0  0  0  0  0  0  0  0  0  0  0  0  # atno 17342 bound_to 10162
  139.5938  144.1441  152.2120 LP  0  0  0  0  0  0  0  0  0  0  0  0  # atno 17343 bound_to 10162
  157.7107  131.0735  150.6510 LP  0  0  0  0  0  0  0  0  0  0  0  0  # atno 17370 bound_to 10713
  156.6574  130.4502  149.5699 LP  0  0  0  0  0  0  0  0  0  0  0  0  # atno 17371 bound_to 10713
  141.0811  133.6754  156.2339 LP  0  0  0  0  0  0  0  0  0  0  0  0  # atno 17394 bound_to 11000
  140.6345  134.5229  157.5563 LP  0  0  0  0  0  0  0  0  0  0  0  0  # atno 17395 bound_to 11000

$$$$
