AV-unprocessed.smi:100|AV-procd|sdf|898|dock7
  -GOLD-   2262017393D 1   1.00000     0.00000
 Structure written by MMmdl.
 31 33  0  0  0  0  0  0  0  0  1 V2000
  153.9542  140.9293  159.2192 N   0  0  0  0  0  0  0  0  0  0  0  0
  152.8733  141.5425  158.7174 C   0  0  0  0  0  0  0  0  0  0  0  0
  152.3501  142.5859  159.4027 N   0  0  0  0  0  0  0  0  0  0  0  0
  151.2718  143.2137  158.9227 C   0  0  0  0  0  0  0  0  0  0  0  0
  150.5862  142.9601  157.8050 N   0  0  0  0  0  0  0  0  0  0  0  0
  151.1138  141.9068  157.1150 C   0  0  0  0  0  0  0  0  0  0  0  0
  152.2540  141.1498  157.5039 C   0  0  0  0  0  0  0  0  0  0  0  0
  152.5085  140.1604  156.5644 N   0  0  0  0  0  0  0  0  0  0  0  0
  151.5692  140.3261  155.6723 C   0  0  0  0  0  0  0  0  0  0  0  0
  150.6871  141.3545  155.9227 N   0  0  0  0  0  0  0  0  0  0  0  0
  149.5232  141.7746  155.0779 C   0  0  1  0  0  0  0  0  0  0  0  0
  149.4336  140.9587  153.9527 O   0  0  0  0  0  0  0  0  0  0  0  0
  148.0669  140.7335  153.5955 C   0  0  1  0  0  0  0  0  0  0  0  0
  147.8009  139.2182  153.6090 C   0  0  0  0  0  0  0  0  0  0  0  0
  147.9730  138.6832  152.3141 O   0  0  0  0  0  0  0  0  0  0  0  0
  147.2324  141.4882  154.6444 C   0  0  2  0  0  0  0  0  0  0  0  0
  146.8883  142.6831  154.1601 F   0  0  0  0  0  0  0  0  0  0  0  0
  148.1820  141.6846  155.8102 C   0  0  1  0  0  0  0  0  0  0  0  0
  148.0964  140.6180  156.7374 O   0  0  0  0  0  0  0  0  0  0  0  0
  154.3633  140.1485  158.7260 H   0  0  0  0  0  0  0  0  0  0  0  0
  154.3552  141.2466  160.0897 H   0  0  0  0  0  0  0  0  0  0  0  0
  150.9055  144.0369  159.5182 H   0  0  0  0  0  0  0  0  0  0  0  0
  151.4941  139.6974  154.7970 H   0  0  0  0  0  0  0  0  0  0  0  0
  149.7566  142.7914  154.7572 H   0  0  0  0  0  0  0  0  0  0  0  0
  147.8649  141.1374  152.6020 H   0  0  0  0  0  0  0  0  0  0  0  0
  148.4404  138.7017  154.3236 H   0  0  0  0  0  0  0  0  0  0  0  0
  146.7699  139.0196  153.9027 H   0  0  0  0  0  0  0  0  0  0  0  0
  148.2616  137.7871  152.3957 H   0  0  0  0  0  0  0  0  0  0  0  0
  146.3036  140.9862  154.9184 H   0  0  0  0  0  0  0  0  0  0  0  0
  147.9934  142.6153  156.3469 H   0  0  0  0  0  0  0  0  0  0  0  0
  148.3403  140.9443  157.5904 H   0  0  0  0  0  0  0  0  0  0  0  0
  1  2  1  0  0  0  0
  1 20  1  0  0  0  0
  1 21  1  0  0  0  0
  2  7  1  0  0  0  0
  2  3  2  0  0  0  0
  3  4  1  0  0  0  0
  4  5  2  0  0  0  0
  4 22  1  0  0  0  0
  5  6  1  0  0  0  0
  6 10  1  0  0  0  0
  6  7  2  0  0  0  0
  7  8  1  0  0  0  0
  8  9  2  0  0  0  0
  9 10  1  0  0  0  0
  9 23  1  0  0  0  0
 10 11  1  0  0  0  0
 11 18  1  0  0  0  0
 11 12  1  0  0  0  0
 11 24  1  0  0  0  0
 12 13  1  0  0  0  0
 13 14  1  0  0  0  0
 13 16  1  0  0  0  0
 13 25  1  0  0  0  0
 14 15  1  0  0  0  0
 14 26  1  0  0  0  0
 14 27  1  0  0  0  0
 15 28  1  0  0  0  0
 16 17  1  0  0  0  0
 16 18  1  0  0  0  0
 16 29  1  0  0  0  0
 18 19  1  0  0  0  0
 18 30  1  0  0  0  0
 19 31  1  0  0  0  0
M  END
> <s_m_source_file>
AV-unprocessed.smi

> <i_m_source_file_index>
100

> <i_lp_mmshare_version>
43012

> <i_f3d_flags>
0

> <s_epik_input>
bjFbY0hdbmMoW05IMl0pYyhjMTIpbltjSF1uMltDQEBIXTNPW0NAQEhdKFtDSDJdW09IXSlbQ0BIXShGKVtDQEhdM1tPSF0=

> <s_epik_cmdline>
J2VwaWtfcHl0aG9uJywgJy1waCcsICc3LjAnLCAnLXRuJywgJzgnLCAnLW1hJywgJzIwMCcsICctbWV0YWxfYmluZGluZycsICctaW1hZScsICc8aW5maWxlLm1hZT4nLCAnLW9tYWUnLCAnPG91dGZpbGUubWFlPic=

> <r_lp_tautomer_probability>
1

> <r_epik_Ionization_Penalty>
0.000750324

> <r_epik_Ionization_Penalty_Charging>
0

> <r_epik_Ionization_Penalty_Neutral>
0.000750324

> <r_epik_State_Penalty>
-0

> <r_epik_Charging_Adjusted_Penalty>
0

> <i_epik_Tot_Q>
0

> <i_epik_Tot_abs_Q>
0

> <r_epik_Metal_State_Penalty>
-0

> <b_epik_Metal_Only>
0

> <s_epik_Chemistry_Notes>
This compound contains an acetal/aminal-like group ( X-CH(R)-Y where X, Y are N, S, or O) that may be acid/base labile, releasing an aldehyde.

> <s_lp_Force_Field>
OPLS_2005

> <r_lp_Energy>
37.0589

> <b_lp_Chiralities_Consistent>
1

> <s_lp_Variant>
AV-unprocessed.smi:100-2

> <Gold.Version>
5.8.1

> <Gold.Id.Protein>
6NUR|6NUR_protein|mol2

> <Gold.PLP.Fitness>
37.4359

> <Gold.PLP.PLP>
-30.9764

> <Gold.PLP.part.hbond>
-3.9958

> <Gold.PLP.part.metal>
0.0000

> <Gold.PLP.part.buried>
-0.0792

> <Gold.PLP.part.nonpolar>
-25.7668

> <Gold.PLP.part.repulsive>
1.3240

> <Gold.PLP.ligand.clash>
0.0000

> <Gold.PLP.ligand.torsion>
0.4220

> <Gold.PLP.Chemscore.Hbond>
2.4335

> <Gold.PLP.Chemscore.CHOScore>
0.0000

> <Gold.PLP.Chemscore.Metal>
0.0000

> <Gold.Chemscore.Hbonds>
donor molecule, donor type, donor heavy atom, donor atom, acceptor molecule, acceptor atom, score
      L1  H    15    28       P1  7948  1.00
      P1  H  7989  7998       L1    12  0.20
      P1  H  7997  8010       L1     8  1.00
      P1  H  8011  8017       L1    12  0.38

> <Gold.PLP.Chemscore.Internal.Correction>
0.0029

> <Gold.Rescore>
     Score         DG    S(hbond)    S(metal)    S(lipo)     H(rot)  DE(clash)    DE(int)     intcor
      6.00      -6.32       1.73        0.00      27.72       3.19       0.15       0.17       ----

> <Gold.Chemscore.Fitness>
6.0004

> <Gold.Chemscore.DG>
-6.3193

> <Gold.Chemscore.ZeroCoef>
-5.4800

> <Gold.Chemscore.Hbond>
1.7254

> <Gold.Chemscore.Metal>
0.0000

> <Gold.Chemscore.Lipo>
27.7187

> <Gold.Chemscore.Internal_Hbond>
0.0000

> <Gold.Chemscore.DEClash>
0.1521

> <Gold.Chemscore.DEInternal>
0.1667

> <Gold.Chemscore.Rot>
3.1901

> <Gold.Chemscore.Internal.Correction>
   9.000000E+99

> <Gold.Chemscore.Hbonds>
donor molecule, donor type, donor heavy atom, donor atom, acceptor molecule, acceptor atom, score
      L1  H    15    28       P1  7948  0.98
      P1  H  7989  7998       L1    12  0.03
      P1  H  7997  8010       L1     8  0.57
      P1  H  8011  8017       L1    12  0.01

> <Gold.Chemscore.Hbond.Weighted>
-5.7628

> <Gold.Chemscore.Metal.Weighted>
-0.0000

> <Gold.Chemscore.Lipo.Weighted>
-3.2431

> <Gold.Chemscore.Internal_Hbond.Weighted>
0.0000

> <Gold.Chemscore.DEClash.Weighted>
0.1521

> <Gold.Chemscore.DEInternal.Weighted>
0.1667

> <Gold.Chemscore.Rot.Weighted>
8.1667

> <Gold.Chemscore.Internal.Correction.Weighted>
   9.000000E+99

> <Gold.Protein.RotatedTorsions>
[ 6907 6896 6895 6894 ] final  -96.22 input  -60.11 | X-H torsion
[ 7974 7965 7964 7962 ] final  165.53 input  175.53 | X-H torsion
[ 8008 7997 7996 7995 ] final   83.90 input   59.86 | X-H torsion
[ 10167 10162 10161 10158 ] final -111.87 input  -65.29 | X-H torsion
[ 10718 10713 10712 10709 ] final   47.27 input   66.30 | X-H torsion
[ 10763 10752 10751 10750 ] final  115.49 input  -60.55 | X-H torsion
[ 11005 11000 10999 10996 ] final  -91.11 input  -57.11 | X-H torsion

> <Gold.Protein.ActiveResidues>
 VAL166  LYS551  ARG553  GLY616  TRP617  ASP618  TYR619  PRO620  LYS621  CYS622 
 ASP623  PHE694  ASN695  SER759  ASP760  ASP761  ALA762  ILE779  LEU786  VAL792 
 PHE793  MET794  SER795  GLU796  ALA797  LYS798  CYS799  TRP800  GLU811  SER814 

> <Gold.Protein.RotatedAtoms>
  150.6983  134.1537  159.4149 H   0  0  0  0  0  0  0  0  0  0  0  0  # atno 6907 bound_to 6896
  151.9519  135.0163  160.0552 H   0  0  0  0  0  0  0  0  0  0  0  0  # atno 6908 bound_to 6896
  152.2003  133.4801  159.5092 H   0  0  0  0  0  0  0  0  0  0  0  0  # atno 6909 bound_to 6896
  144.7499  139.8483  143.6370 H   0  0  0  0  0  0  0  0  0  0  0  0  # atno 7974 bound_to 7965
  155.9300  140.3415  155.6241 H   0  0  0  0  0  0  0  0  0  0  0  0  # atno 8008 bound_to 7997
  155.7169  140.0779  157.2366 H   0  0  0  0  0  0  0  0  0  0  0  0  # atno 8009 bound_to 7997
  154.4083  140.1612  156.2346 H   0  0  0  0  0  0  0  0  0  0  0  0  # atno 8010 bound_to 7997
  140.1289  143.4377  152.1640 H   0  0  0  0  0  0  0  0  0  0  0  0  # atno 10167 bound_to 10162
  157.4567  130.8171  149.7844 H   0  0  0  0  0  0  0  0  0  0  0  0  # atno 10718 bound_to 10713
  153.5230  135.3594  155.2641 H   0  0  0  0  0  0  0  0  0  0  0  0  # atno 10763 bound_to 10752
  154.8733  135.4050  154.3238 H   0  0  0  0  0  0  0  0  0  0  0  0  # atno 10764 bound_to 10752
  153.3912  135.7072  153.6561 H   0  0  0  0  0  0  0  0  0  0  0  0  # atno 10765 bound_to 10752
  141.1552  133.7735  156.9833 H   0  0  0  0  0  0  0  0  0  0  0  0  # atno 11005 bound_to 11000
  146.1434  139.4496  143.0095 LP  0  0  0  0  0  0  0  0  0  0  0  0  # atno 17320 bound_to 7965
  145.6983  141.0143  143.1518 LP  0  0  0  0  0  0  0  0  0  0  0  0  # atno 17321 bound_to 7965
  139.5530  144.7352  151.4379 LP  0  0  0  0  0  0  0  0  0  0  0  0  # atno 17342 bound_to 10162
  140.6828  143.8042  150.7145 LP  0  0  0  0  0  0  0  0  0  0  0  0  # atno 17343 bound_to 10162
  156.0010  130.3880  150.2605 LP  0  0  0  0  0  0  0  0  0  0  0  0  # atno 17370 bound_to 10713
  157.0780  131.0135  151.3167 LP  0  0  0  0  0  0  0  0  0  0  0  0  # atno 17371 bound_to 10713
  140.1051  134.9511  157.1982 LP  0  0  0  0  0  0  0  0  0  0  0  0  # atno 17394 bound_to 11000
  140.3266  134.2856  155.7236 LP  0  0  0  0  0  0  0  0  0  0  0  0  # atno 17395 bound_to 11000

$$$$
