AV-unprocessed.smi:490|AV-procd|sdf|2705|dock1
  -GOLD-   2262023143D 1   1.00000     0.00000
 Structure written by MMmdl.
 50 52  0  0  0  0  0  0  0  0  2 V2000
  152.0723  144.7285  160.5353 C   0  0  0  0  0  0  0  0  0  0  0  0
  152.2254  143.3238  159.9774 C   0  0  0  0  0  0  0  0  0  0  0  0
  153.3320  142.5476  160.3782 C   0  0  0  0  0  0  0  0  0  0  0  0
  153.5061  141.2449  159.8792 C   0  0  0  0  0  0  0  0  0  0  0  0
  152.5686  140.6995  158.9814 C   0  0  0  0  0  0  0  0  0  0  0  0
  152.7704  139.2929  158.4492 C   0  0  0  0  0  0  0  0  0  0  0  0
  151.4456  141.4626  158.5873 C   0  0  0  0  0  0  0  0  0  0  0  0
  150.5323  140.9108  157.7254 O   0  0  0  0  0  0  0  0  0  0  0  0
  151.0392  140.7159  156.4129 C   0  0  0  0  0  0  0  0  0  0  0  0
  149.9492  140.0755  155.5402 C   0  0  2  0  0  0  0  0  0  0  0  0
  150.0224  140.6350  154.2436 O   0  0  0  0  0  0  0  0  0  0  0  0
  148.5404  140.3148  156.1193 C   0  0  0  0  0  0  0  0  0  0  0  0
  147.4639  139.9295  155.1919 N   0  0  0  0  0  0  0  0  0  0  0  0
  146.6337  140.7121  154.4435 C   0  0  0  0  0  0  0  0  0  0  0  0
  146.6168  142.2041  154.3865 C   0  0  0  0  0  0  0  0  0  0  0  0
  147.8988  142.7478  154.1641 O   0  0  0  0  0  0  0  0  0  0  0  0
  145.8182  139.8783  153.7390 N   0  3  0  0  0  0  0  0  0  0  0  0
  146.1245  138.5512  154.0409 C   0  0  0  0  0  0  0  0  0  0  0  0
  145.5702  137.3620  153.5776 C   0  0  0  0  0  0  0  0  0  0  0  0
  146.1155  136.1673  154.0912 C   0  0  0  0  0  0  0  0  0  0  0  0
  147.1699  136.1848  155.0271 C   0  0  0  0  0  0  0  0  0  0  0  0
  147.7251  137.3969  155.4879 C   0  0  0  0  0  0  0  0  0  0  0  0
  147.1808  138.5749  154.9752 C   0  0  0  0  0  0  0  0  0  0  0  0
  151.2803  142.7866  159.0676 C   0  0  0  0  0  0  0  0  0  0  0  0
  150.0953  143.6262  158.6094 C   0  0  0  0  0  0  0  0  0  0  0  0
  152.8052  144.9269  161.3179 H   0  0  0  0  0  0  0  0  0  0  0  0
  151.0807  144.8661  160.9669 H   0  0  0  0  0  0  0  0  0  0  0  0
  152.2147  145.4686  159.7477 H   0  0  0  0  0  0  0  0  0  0  0  0
  154.0582  142.9502  161.0693 H   0  0  0  0  0  0  0  0  0  0  0  0
  154.3625  140.6653  160.1911 H   0  0  0  0  0  0  0  0  0  0  0  0
  152.5936  139.2588  157.3737 H   0  0  0  0  0  0  0  0  0  0  0  0
  152.0806  138.6022  158.9342 H   0  0  0  0  0  0  0  0  0  0  0  0
  153.7869  138.9432  158.6316 H   0  0  0  0  0  0  0  0  0  0  0  0
  151.3074  141.6909  156.0025 H   0  0  0  0  0  0  0  0  0  0  0  0
  151.9492  140.1135  156.4138 H   0  0  0  0  0  0  0  0  0  0  0  0
  150.1251  139.0016  155.4690 H   0  0  0  0  0  0  0  0  0  0  0  0
  149.2473  141.1550  154.0971 H   0  0  0  0  0  0  0  0  0  0  0  0
  148.4072  139.7204  157.0240 H   0  0  0  0  0  0  0  0  0  0  0  0
  148.4063  141.3535  156.4218 H   0  0  0  0  0  0  0  0  0  0  0  0
  145.9507  142.5300  153.5871 H   0  0  0  0  0  0  0  0  0  0  0  0
  146.2161  142.6006  155.3194 H   0  0  0  0  0  0  0  0  0  0  0  0
  148.0856  143.3696  154.8512 H   0  0  0  0  0  0  0  0  0  0  0  0
  144.7624  137.3466  152.8608 H   0  0  0  0  0  0  0  0  0  0  0  0
  145.7168  135.2189  153.7608 H   0  0  0  0  0  0  0  0  0  0  0  0
  147.5611  135.2490  155.3997 H   0  0  0  0  0  0  0  0  0  0  0  0
  148.5303  137.3958  156.2070 H   0  0  0  0  0  0  0  0  0  0  0  0
  149.6157  143.2119  157.7230 H   0  0  0  0  0  0  0  0  0  0  0  0
  150.4091  144.6386  158.3555 H   0  0  0  0  0  0  0  0  0  0  0  0
  149.3488  143.6857  159.4015 H   0  0  0  0  0  0  0  0  0  0  0  0
  145.1055  140.1979  153.0956 H   0  0  0  0  0  0  0  0  0  0  0  0
  1  2  1  0  0  0  0
  1 26  1  0  0  0  0
  1 27  1  0  0  0  0
  1 28  1  0  0  0  0
  2 24  1  0  0  0  0
  2  3  2  0  0  0  0
  3  4  1  0  0  0  0
  3 29  1  0  0  0  0
  4  5  2  0  0  0  0
  4 30  1  0  0  0  0
  5  6  1  0  0  0  0
  5  7  1  0  0  0  0
  6 31  1  0  0  0  0
  6 32  1  0  0  0  0
  6 33  1  0  0  0  0
  7  8  1  0  0  0  0
  7 24  2  0  0  0  0
  8  9  1  0  0  0  0
  9 10  1  0  0  0  0
  9 34  1  0  0  0  0
  9 35  1  0  0  0  0
 10 11  1  0  0  0  0
 10 12  1  0  0  0  0
 10 36  1  0  0  0  0
 11 37  1  0  0  0  0
 12 13  1  0  0  0  0
 12 38  1  0  0  0  0
 12 39  1  0  0  0  0
 13 23  1  0  0  0  0
 13 14  1  0  0  0  0
 14 15  1  0  0  0  0
 14 17  2  0  0  0  0
 15 16  1  0  0  0  0
 15 40  1  0  0  0  0
 15 41  1  0  0  0  0
 16 42  1  0  0  0  0
 17 18  1  0  0  0  0
 17 50  1  0  0  0  0
 18 23  2  0  0  0  0
 18 19  1  0  0  0  0
 19 20  2  0  0  0  0
 19 43  1  0  0  0  0
 20 21  1  0  0  0  0
 20 44  1  0  0  0  0
 21 22  2  0  0  0  0
 21 45  1  0  0  0  0
 22 23  1  0  0  0  0
 22 46  1  0  0  0  0
 24 25  1  0  0  0  0
 25 47  1  0  0  0  0
 25 48  1  0  0  0  0
 25 49  1  0  0  0  0
M  CHG  1  17   1
M  END
> <s_m_source_file>
AV-unprocessed.smi

> <i_m_source_file_index>
490

> <i_lp_mmshare_version>
43012

> <i_f3d_flags>
0

> <s_epik_input>
W0NIM11jMVtjSF1bY0hdYyhbQ0gzXSljKGMxW0NIM10pT1tDSDJdW0NASF0oW09IXSlbQ0gyXW4oYyhuMilbQ0gyXVtPSF0pYyhjMjMpW2NIXVtjSF1bY0hdW2NIXTM=

> <s_epik_cmdline>
J2VwaWtfcHl0aG9uJywgJy1waCcsICc3LjAnLCAnLXRuJywgJzgnLCAnLW1hJywgJzIwMCcsICctbWV0YWxfYmluZGluZycsICctaW1hZScsICc8aW5maWxlLm1hZT4nLCAnLW9tYWUnLCAnPG91dGZpbGUubWFlPic=

> <r_lp_tautomer_probability>
1

> <r_epik_Ionization_Penalty>
1.43125

> <r_epik_Ionization_Penalty_Charging>
1.43039

> <r_epik_Ionization_Penalty_Neutral>
0.000858184

> <r_epik_State_Penalty>
1.51493

> <r_epik_Charging_Adjusted_Penalty>
2.94531

> <i_epik_Tot_Q>
1

> <i_epik_Tot_abs_Q>
1

> <r_epik_Metal_State_Penalty>
5.5599

> <b_epik_Metal_Only>
0

> <s_lp_Force_Field>
OPLS_2005

> <r_lp_Energy>
24.6054

> <b_lp_Chiralities_Consistent>
1

> <s_lp_Variant>
AV-unprocessed.smi:490-3

> <Gold.Version>
5.8.1

> <Gold.Id.Protein>
6NUR|6NUR_protein|mol2

> <Gold.PLP.Fitness>
51.6970

> <Gold.PLP.PLP>
-42.3942

> <Gold.PLP.part.hbond>
-5.3212

> <Gold.PLP.part.metal>
0.0000

> <Gold.PLP.part.buried>
-5.1147

> <Gold.PLP.part.nonpolar>
-31.8703

> <Gold.PLP.part.repulsive>
0.0210

> <Gold.PLP.ligand.clash>
0.0000

> <Gold.PLP.ligand.torsion>
0.9210

> <Gold.PLP.Chemscore.Hbond>
3.6720

> <Gold.PLP.Chemscore.CHOScore>
0.0000

> <Gold.PLP.Chemscore.Metal>
0.0000

> <Gold.Chemscore.Hbonds>
donor molecule, donor type, donor heavy atom, donor atom, acceptor molecule, acceptor atom, score
      L1  H    16    42       P1  8028  1.00
      L1  H    17    50       P1 10175  2.00
      P1  H  7989  7998       L1    11  0.74

> <Gold.PLP.Chemscore.Internal.Correction>
0.1290

> <Gold.Rescore>
     Score         DG    S(hbond)    S(metal)    S(lipo)     H(rot)  DE(clash)    DE(int)     intcor
     17.39     -19.74       2.50        0.00     116.40       3.02       0.69       1.66       ----

> <Gold.Chemscore.Fitness>
17.3874

> <Gold.Chemscore.DG>
-19.7361

> <Gold.Chemscore.ZeroCoef>
-5.4800

> <Gold.Chemscore.Hbond>
2.5039

> <Gold.Chemscore.Metal>
0.0000

> <Gold.Chemscore.Lipo>
116.4015

> <Gold.Chemscore.Internal_Hbond>
0.0000

> <Gold.Chemscore.DEClash>
0.6887

> <Gold.Chemscore.DEInternal>
1.6599

> <Gold.Chemscore.Rot>
3.0180

> <Gold.Chemscore.Internal.Correction>
   9.000000E+99

> <Gold.Chemscore.Hbonds>
donor molecule, donor type, donor heavy atom, donor atom, acceptor molecule, acceptor atom, score
      L1  H    16    42       P1  8028  0.87
      L1  H    17    50       P1 10175  0.97
      P1  H  7989  7998       L1    11  0.72

> <Gold.Chemscore.Hbond.Weighted>
-8.3631

> <Gold.Chemscore.Metal.Weighted>
-0.0000

> <Gold.Chemscore.Lipo.Weighted>
-13.6190

> <Gold.Chemscore.Internal_Hbond.Weighted>
0.0000

> <Gold.Chemscore.DEClash.Weighted>
0.6887

> <Gold.Chemscore.DEInternal.Weighted>
1.6599

> <Gold.Chemscore.Rot.Weighted>
7.7260

> <Gold.Chemscore.Internal.Correction.Weighted>
   9.000000E+99

> <Gold.Protein.RotatedTorsions>
[ 6907 6896 6895 6894 ] final  -50.37 input  -60.11 | X-H torsion
[ 7974 7965 7964 7962 ] final -138.00 input  175.53 | X-H torsion
[ 8008 7997 7996 7995 ] final   35.48 input   59.86 | X-H torsion
[ 10167 10162 10161 10158 ] final  130.55 input  -65.29 | X-H torsion
[ 10718 10713 10712 10709 ] final   47.16 input   66.30 | X-H torsion
[ 10763 10752 10751 10750 ] final  -30.32 input  -60.55 | X-H torsion
[ 11005 11000 10999 10996 ] final -135.71 input  -57.11 | X-H torsion

> <Gold.Protein.ActiveResidues>
 VAL166  LYS551  ARG553  GLY616  TRP617  ASP618  TYR619  PRO620  LYS621  CYS622 
 ASP623  PHE694  ASN695  SER759  ASP760  ASP761  ALA762  ILE779  LEU786  VAL792 
 PHE793  MET794  SER795  GLU796  ALA797  LYS798  CYS799  TRP800  GLU811  SER814 

> <Gold.Protein.RotatedAtoms>
  150.8713  134.8088  159.7156 H   0  0  0  0  0  0  0  0  0  0  0  0  # atno 6907 bound_to 6896
  152.4717  134.4942  159.9714 H   0  0  0  0  0  0  0  0  0  0  0  0  # atno 6908 bound_to 6896
  151.5030  133.3462  159.2907 H   0  0  0  0  0  0  0  0  0  0  0  0  # atno 6909 bound_to 6896
  144.8794  140.6486  143.5215 H   0  0  0  0  0  0  0  0  0  0  0  0  # atno 7974 bound_to 7965
  155.1718  140.3292  155.4391 H   0  0  0  0  0  0  0  0  0  0  0  0  # atno 8008 bound_to 7997
  156.2507  140.1942  156.6771 H   0  0  0  0  0  0  0  0  0  0  0  0  # atno 8009 bound_to 7997
  154.6332  140.0580  156.9743 H   0  0  0  0  0  0  0  0  0  0  0  0  # atno 8010 bound_to 7997
  139.5425  144.6743  151.4579 H   0  0  0  0  0  0  0  0  0  0  0  0  # atno 10167 bound_to 10162
  157.4557  130.8165  149.7833 H   0  0  0  0  0  0  0  0  0  0  0  0  # atno 10718 bound_to 10713
  153.7791  135.6906  153.4892 H   0  0  0  0  0  0  0  0  0  0  0  0  # atno 10763 bound_to 10752
  153.1823  135.4501  155.0043 H   0  0  0  0  0  0  0  0  0  0  0  0  # atno 10764 bound_to 10752
  154.8088  135.3368  154.7295 H   0  0  0  0  0  0  0  0  0  0  0  0  # atno 10765 bound_to 10752
  140.8873  134.1856  157.4551 H   0  0  0  0  0  0  0  0  0  0  0  0  # atno 11005 bound_to 11000
  145.3981  139.1603  143.4192 LP  0  0  0  0  0  0  0  0  0  0  0  0  # atno 17320 bound_to 7965
  146.2985  140.4076  142.8713 LP  0  0  0  0  0  0  0  0  0  0  0  0  # atno 17321 bound_to 7965
  140.6660  143.8396  150.6943 LP  0  0  0  0  0  0  0  0  0  0  0  0  # atno 17342 bound_to 10162
  140.1805  143.4118  152.1936 LP  0  0  0  0  0  0  0  0  0  0  0  0  # atno 17343 bound_to 10162
  156.0006  130.3882  150.2621 LP  0  0  0  0  0  0  0  0  0  0  0  0  # atno 17370 bound_to 10713
  157.0795  131.0139  151.3161 LP  0  0  0  0  0  0  0  0  0  0  0  0  # atno 17371 bound_to 10713
  139.8726  134.9843  156.5235 LP  0  0  0  0  0  0  0  0  0  0  0  0  # atno 17394 bound_to 11000
  140.8389  133.8220  155.9056 LP  0  0  0  0  0  0  0  0  0  0  0  0  # atno 17395 bound_to 11000

$$$$
