AV-unprocessed.smi:1260|AV-procd|sdf|5298|dock8
  -GOLD-   22720 4413D 1   1.00000     0.00000
 Structure written by MMmdl.
 37 39  0  0  0  0  0  0  0  0  2 V2000
  150.6171  139.9176  154.7240 O   0  0  0  0  0  0  0  0  0  0  0  0
  151.4197  139.8646  155.6553 C   0  0  0  0  0  0  0  0  0  0  0  0
  152.4732  138.7583  155.6934 C   0  0  0  0  0  0  0  0  0  0  0  0
  152.0577  137.6897  156.5821 N   0  0  0  0  0  0  0  0  0  0  0  0
  151.7004  137.7068  157.8680 C   0  0  0  0  0  0  0  0  0  0  0  0
  151.4058  136.4942  158.3101 N   0  0  0  0  0  0  0  0  0  0  0  0
  151.6025  135.6965  157.1950 N   0  0  0  0  0  0  0  0  0  0  0  0
  151.9906  136.4002  156.1671 N   0  0  0  0  0  0  0  0  0  0  0  0
  151.4460  140.7535  156.6606 N   0  0  0  0  0  0  0  0  0  0  0  0
  150.5691  141.9150  156.7749 C   0  0  1  0  0  0  0  0  0  0  0  0
  149.0876  141.5380  156.9495 C   0  0  0  0  0  0  0  0  0  0  0  0
  148.5123  142.5853  157.9243 C   0  0  0  0  0  0  0  0  0  0  0  0
  149.6224  143.5187  158.1974 N   0  3  1  0  0  0  0  0  0  0  0  0
  149.5782  144.2648  159.4737 C   0  0  0  0  0  0  0  0  0  0  0  0
  150.7696  145.2418  159.5324 C   0  0  0  0  0  0  0  0  0  0  0  0
  152.1116  144.5227  159.2856 C   0  0  0  0  0  0  0  0  0  0  0  0
  152.0664  143.6882  157.9910 C   0  0  0  0  0  0  0  0  0  0  0  0
  150.8578  142.7377  158.0328 C   0  0  2  0  0  0  0  0  0  0  0  0
  152.6355  138.3451  154.6968 H   0  0  0  0  0  0  0  0  0  0  0  0
  153.4268  139.1647  156.0341 H   0  0  0  0  0  0  0  0  0  0  0  0
  151.6634  138.5986  158.4761 H   0  0  0  0  0  0  0  0  0  0  0  0
  152.1368  140.6283  157.3866 H   0  0  0  0  0  0  0  0  0  0  0  0
  150.6582  142.5536  155.8932 H   0  0  0  0  0  0  0  0  0  0  0  0
  148.5645  141.5415  155.9926 H   0  0  0  0  0  0  0  0  0  0  0  0
  148.9796  140.5404  157.3782 H   0  0  0  0  0  0  0  0  0  0  0  0
  147.6575  143.1174  157.5060 H   0  0  0  0  0  0  0  0  0  0  0  0
  148.1905  142.1005  158.8472 H   0  0  0  0  0  0  0  0  0  0  0  0
  148.6379  144.8125  159.5458 H   0  0  0  0  0  0  0  0  0  0  0  0
  149.6127  143.5690  160.3133 H   0  0  0  0  0  0  0  0  0  0  0  0
  150.6355  146.0190  158.7787 H   0  0  0  0  0  0  0  0  0  0  0  0
  150.7895  145.7498  160.4969 H   0  0  0  0  0  0  0  0  0  0  0  0
  152.9237  145.2487  159.2365 H   0  0  0  0  0  0  0  0  0  0  0  0
  152.3326  143.8689  160.1303 H   0  0  0  0  0  0  0  0  0  0  0  0
  151.9979  144.3474  157.1245 H   0  0  0  0  0  0  0  0  0  0  0  0
  152.9923  143.1228  157.8834 H   0  0  0  0  0  0  0  0  0  0  0  0
  150.9583  142.0623  158.8858 H   0  0  0  0  0  0  0  0  0  0  0  0
  149.6151  144.1995  157.4511 H   0  0  0  0  0  0  0  0  0  0  0  0
  1  2  2  0  0  0  0
  2  3  1  0  0  0  0
  2  9  1  0  0  0  0
  3  4  1  0  0  0  0
  3 19  1  0  0  0  0
  3 20  1  0  0  0  0
  4  8  1  0  0  0  0
  4  5  1  0  0  0  0
  5  6  2  0  0  0  0
  5 21  1  0  0  0  0
  6  7  1  0  0  0  0
  7  8  2  0  0  0  0
  9 10  1  0  0  0  0
  9 22  1  0  0  0  0
 10 18  1  0  0  0  0
 10 11  1  0  0  0  0
 10 23  1  0  0  0  0
 11 12  1  0  0  0  0
 11 24  1  0  0  0  0
 11 25  1  0  0  0  0
 12 13  1  0  0  0  0
 12 26  1  0  0  0  0
 12 27  1  0  0  0  0
 13 18  1  0  0  0  0
 13 14  1  0  0  0  0
 13 37  1  0  0  0  0
 14 15  1  0  0  0  0
 14 28  1  0  0  0  0
 14 29  1  0  0  0  0
 15 16  1  0  0  0  0
 15 30  1  0  0  0  0
 15 31  1  0  0  0  0
 16 17  1  0  0  0  0
 16 32  1  0  0  0  0
 16 33  1  0  0  0  0
 17 18  1  0  0  0  0
 17 34  1  0  0  0  0
 17 35  1  0  0  0  0
 18 36  1  0  0  0  0
M  CHG  1  13   1
M  END
> <s_m_source_file>
AV-unprocessed.smi

> <i_m_source_file_index>
1260

> <i_lp_mmshare_version>
43012

> <i_f3d_flags>
0

> <s_epik_input>
bjFubltjSF1uMVtDSDJdQyg9TylbTkhdW0NASF0oW0NIMl1bQ0gyXTIpW0NAQEhdKE4yMylbQ0gyXVtDSDJdW0NIMl1bQ0gyXTM=

> <s_epik_cmdline>
J2VwaWtfcHl0aG9uJywgJy1waCcsICc3LjAnLCAnLXRuJywgJzgnLCAnLW1hJywgJzIwMCcsICctbWV0YWxfYmluZGluZycsICctaW1hZScsICc8aW5maWxlLm1hZT4nLCAnLW9tYWUnLCAnPG91dGZpbGUubWFlPic=

> <r_lp_tautomer_probability>
1

> <r_epik_Ionization_Penalty>
0.00234324

> <r_epik_Ionization_Penalty_Charging>
0.00233897

> <r_epik_Ionization_Penalty_Neutral>
4.26861e-06

> <r_epik_State_Penalty>
0.00161477

> <r_epik_Charging_Adjusted_Penalty>
0.00395374

> <i_epik_Tot_Q>
1

> <i_epik_Tot_abs_Q>
1

> <r_epik_Metal_State_Penalty>
-0

> <b_epik_Metal_Only>
0

> <s_lp_Force_Field>
OPLS_2005

> <r_lp_Energy>
36.6869

> <b_lp_Chiralities_Consistent>
1

> <s_lp_Variant>
AV-unprocessed.smi:1260-6

> <Gold.Version>
5.8.1

> <Gold.Id.Protein>
6NUR|6NUR_protein|mol2

> <Gold.PLP.Fitness>
46.4069

> <Gold.PLP.PLP>
-33.2090

> <Gold.PLP.part.hbond>
-5.6061

> <Gold.PLP.part.metal>
0.0000

> <Gold.PLP.part.buried>
-4.9590

> <Gold.PLP.part.nonpolar>
-23.9095

> <Gold.PLP.part.repulsive>
0.2365

> <Gold.PLP.ligand.clash>
0.0000

> <Gold.PLP.ligand.torsion>
0.3350

> <Gold.PLP.Chemscore.Hbond>
4.6184

> <Gold.PLP.Chemscore.CHOScore>
0.0000

> <Gold.PLP.Chemscore.Metal>
0.0000

> <Gold.Chemscore.Hbonds>
donor molecule, donor type, donor heavy atom, donor atom, acceptor molecule, acceptor atom, score
      L1  H    13    37       P1  8028  1.82
      P1  H  6896  6907       L1     6  0.55
      P1  H  7989  7998       L1     1  1.00
      P1  H 10752 10764       L1     8  1.00

> <Gold.PLP.Chemscore.Internal.Correction>
0.0126

> <Gold.Rescore>
     Score         DG    S(hbond)    S(metal)    S(lipo)     H(rot)  DE(clash)    DE(int)     intcor
     17.76     -18.27       2.87        0.00      70.60       1.98       0.10       0.40       ----

> <Gold.Chemscore.Fitness>
17.7641

> <Gold.Chemscore.DG>
-18.2662

> <Gold.Chemscore.ZeroCoef>
-5.4800

> <Gold.Chemscore.Hbond>
2.8695

> <Gold.Chemscore.Metal>
0.0000

> <Gold.Chemscore.Lipo>
70.5972

> <Gold.Chemscore.Internal_Hbond>
0.0000

> <Gold.Chemscore.DEClash>
0.1036

> <Gold.Chemscore.DEInternal>
0.3985

> <Gold.Chemscore.Rot>
1.9757

> <Gold.Chemscore.Internal.Correction>
   9.000000E+99

> <Gold.Chemscore.Hbonds>
donor molecule, donor type, donor heavy atom, donor atom, acceptor molecule, acceptor atom, score
      L1  H    13    37       P1  8028  0.19
      P1  H  6896  6907       L1     6  0.21
      P1  H  7989  7998       L1     1  0.26
      P1  H 10752 10764       L1     8  0.88

> <Gold.Chemscore.Hbond.Weighted>
-9.5841

> <Gold.Chemscore.Metal.Weighted>
-0.0000

> <Gold.Chemscore.Lipo.Weighted>
-8.2599

> <Gold.Chemscore.Internal_Hbond.Weighted>
0.0000

> <Gold.Chemscore.DEClash.Weighted>
0.1036

> <Gold.Chemscore.DEInternal.Weighted>
0.3985

> <Gold.Chemscore.Rot.Weighted>
5.0578

> <Gold.Chemscore.Internal.Correction.Weighted>
   9.000000E+99

> <Gold.Protein.RotatedTorsions>
[ 6907 6896 6895 6894 ] final  -18.54 input  -60.11 | X-H torsion
[ 7974 7965 7964 7962 ] final -163.03 input  175.53 | X-H torsion
[ 8008 7997 7996 7995 ] final   27.78 input   59.86 | X-H torsion
[ 10167 10162 10161 10158 ] final  127.13 input  -65.29 | X-H torsion
[ 10718 10713 10712 10709 ] final -116.28 input   66.30 | X-H torsion
[ 10763 10752 10751 10750 ] final  -31.88 input  -60.55 | X-H torsion
[ 11005 11000 10999 10996 ] final  -91.81 input  -57.11 | X-H torsion

> <Gold.Protein.ActiveResidues>
 VAL166  LYS551  ARG553  GLY616  TRP617  ASP618  TYR619  PRO620  LYS621  CYS622 
 ASP623  PHE694  ASN695  SER759  ASP760  ASP761  ALA762  ILE779  LEU786  VAL792 
 PHE793  MET794  SER795  GLU796  ALA797  LYS798  CYS799  TRP800  GLU811  SER814 

> <Gold.Protein.RotatedAtoms>
  151.2766  135.0701  159.9153 H   0  0  0  0  0  0  0  0  0  0  0  0  # atno 6907 bound_to 6896
  152.5341  134.0075  159.7933 H   0  0  0  0  0  0  0  0  0  0  0  0  # atno 6908 bound_to 6896
  151.0322  133.5730  159.2690 H   0  0  0  0  0  0  0  0  0  0  0  0  # atno 6909 bound_to 6896
  144.7338  140.3166  143.6178 H   0  0  0  0  0  0  0  0  0  0  0  0  # atno 7974 bound_to 7965
  155.0483  140.3177  155.4700 H   0  0  0  0  0  0  0  0  0  0  0  0  # atno 8008 bound_to 7997
  156.2840  140.2150  156.5552 H   0  0  0  0  0  0  0  0  0  0  0  0  # atno 8009 bound_to 7997
  154.7231  140.0488  157.0646 H   0  0  0  0  0  0  0  0  0  0  0  0  # atno 8010 bound_to 7997
  139.5594  144.6871  151.4087 H   0  0  0  0  0  0  0  0  0  0  0  0  # atno 10167 bound_to 10162
  156.0952  130.6126  150.9015 H   0  0  0  0  0  0  0  0  0  0  0  0  # atno 10718 bound_to 10713
  153.8046  135.6887  153.4850 H   0  0  0  0  0  0  0  0  0  0  0  0  # atno 10763 bound_to 10752
  153.1667  135.4559  154.9845 H   0  0  0  0  0  0  0  0  0  0  0  0  # atno 10764 bound_to 10752
  154.7992  135.3331  154.7532 H   0  0  0  0  0  0  0  0  0  0  0  0  # atno 10765 bound_to 10752
  141.1536  133.7780  156.9932 H   0  0  0  0  0  0  0  0  0  0  0  0  # atno 11005 bound_to 11000
  145.7611  139.1825  143.2266 LP  0  0  0  0  0  0  0  0  0  0  0  0  # atno 17320 bound_to 7965
  146.0986  140.7571  142.9560 LP  0  0  0  0  0  0  0  0  0  0  0  0  # atno 17321 bound_to 7965
  140.6872  143.7946  150.7203 LP  0  0  0  0  0  0  0  0  0  0  0  0  # atno 17342 bound_to 10162
  140.1418  143.4435  152.2189 LP  0  0  0  0  0  0  0  0  0  0  0  0  # atno 17343 bound_to 10162
  157.6112  131.0936  150.8792 LP  0  0  0  0  0  0  0  0  0  0  0  0  # atno 17370 bound_to 10713
  156.8931  130.5220  149.5285 LP  0  0  0  0  0  0  0  0  0  0  0  0  # atno 17371 bound_to 10713
  140.0989  134.9547  157.1892 LP  0  0  0  0  0  0  0  0  0  0  0  0  # atno 17394 bound_to 11000
  140.3345  134.2773  155.7222 LP  0  0  0  0  0  0  0  0  0  0  0  0  # atno 17395 bound_to 11000

$$$$
