AV-unprocessed.smi:1244|AV-procd|sdf|5234|dock3
  -GOLD-   22720 4333D 1   1.00000     0.00000
 Structure written by MMmdl.
 56 58  0  0  0  0  0  0  0  0  3 V2000
  150.7243  142.1592  157.7120 C   0  0  0  0  0  0  0  0  0  0  0  0
  150.2344  141.5618  156.3884 C   0  0  1  0  0  0  0  0  0  0  0  0
  150.9335  140.2298  156.0629 C   0  0  0  0  0  0  0  0  0  0  0  0
  150.3750  139.6386  154.8246 N   0  3  1  0  0  0  0  0  0  0  0  0
  151.0906  138.4042  154.4151 C   0  0  0  0  0  0  0  0  0  0  0  0
  150.7456  137.1990  155.3108 C   0  0  0  0  0  0  0  0  0  0  0  0
  149.9553  136.2051  154.5935 N   0  0  0  0  0  0  0  0  0  0  0  0
  149.7402  134.9492  155.0098 C   0  0  0  0  0  0  0  0  0  0  0  0
  150.1816  134.5008  156.0675 O   0  0  0  0  0  0  0  0  0  0  0  0
  149.0056  134.2599  154.1203 N   0  0  0  0  0  0  0  0  0  0  0  0
  148.6153  132.8906  154.1693 C   0  0  0  0  0  0  0  0  0  0  0  0
  149.2585  131.9686  155.0355 C   0  0  0  0  0  0  0  0  0  0  0  0
  148.8652  130.6172  155.0423 C   0  0  0  0  0  0  0  0  0  0  0  0
  147.8305  130.2059  154.1854 C   0  0  0  0  0  0  0  0  0  0  0  0
  147.2237  131.1097  153.3890 N   0  3  0  0  0  0  0  0  0  0  0  0
  147.5457  132.4269  153.3480 C   0  0  0  0  0  0  0  0  0  0  0  0
  146.8089  133.2581  152.4731 N   0  0  0  0  0  0  0  0  0  0  0  0
  145.9891  132.6771  151.4158 C   0  0  0  0  0  0  0  0  0  0  0  0
  145.0956  133.8176  150.9352 C   0  0  0  0  0  0  0  0  0  0  0  0
  144.8382  134.5978  152.2208 C   0  0  0  0  0  0  0  0  0  0  0  0
  146.1436  134.4418  153.0083 C   0  0  0  0  0  0  0  0  0  0  0  0
  148.9078  139.4594  154.9585 C   0  0  0  0  0  0  0  0  0  0  0  0
  148.2173  140.7843  155.3377 C   0  0  2  0  0  0  0  0  0  0  0  0
  148.1356  141.7906  154.1755 C   0  0  0  0  0  0  0  0  0  0  0  0
  148.8300  141.3460  156.4982 O   0  0  0  0  0  0  0  0  0  0  0  0
  151.7960  142.3571  157.6812 H   0  0  0  0  0  0  0  0  0  0  0  0
  150.5320  141.4835  158.5461 H   0  0  0  0  0  0  0  0  0  0  0  0
  150.2194  143.1020  157.9241 H   0  0  0  0  0  0  0  0  0  0  0  0
  150.4362  142.2851  155.5980 H   0  0  0  0  0  0  0  0  0  0  0  0
  152.0036  140.4023  155.9399 H   0  0  0  0  0  0  0  0  0  0  0  0
  150.8149  139.5254  156.8883 H   0  0  0  0  0  0  0  0  0  0  0  0
  150.8100  138.1617  153.3889 H   0  0  0  0  0  0  0  0  0  0  0  0
  152.1666  138.5853  154.4055 H   0  0  0  0  0  0  0  0  0  0  0  0
  151.6500  136.6992  155.6552 H   0  0  0  0  0  0  0  0  0  0  0  0
  150.2127  137.5270  156.2051 H   0  0  0  0  0  0  0  0  0  0  0  0
  149.5593  136.4908  153.7095 H   0  0  0  0  0  0  0  0  0  0  0  0
  148.7929  134.7395  153.2579 H   0  0  0  0  0  0  0  0  0  0  0  0
  150.0479  132.2769  155.7036 H   0  0  0  0  0  0  0  0  0  0  0  0
  149.3522  129.9071  155.6948 H   0  0  0  0  0  0  0  0  0  0  0  0
  147.4651  129.1913  154.1190 H   0  0  0  0  0  0  0  0  0  0  0  0
  146.6044  132.2781  150.6087 H   0  0  0  0  0  0  0  0  0  0  0  0
  145.3711  131.8693  151.8103 H   0  0  0  0  0  0  0  0  0  0  0  0
  145.6369  134.4422  150.2230 H   0  0  0  0  0  0  0  0  0  0  0  0
  144.1810  133.4686  150.4550 H   0  0  0  0  0  0  0  0  0  0  0  0
  144.5731  135.6401  152.0415 H   0  0  0  0  0  0  0  0  0  0  0  0
  144.0191  134.1336  152.7716 H   0  0  0  0  0  0  0  0  0  0  0  0
  145.9524  134.3590  154.0791 H   0  0  0  0  0  0  0  0  0  0  0  0
  146.7838  135.3085  152.8413 H   0  0  0  0  0  0  0  0  0  0  0  0
  148.4747  139.0777  154.0348 H   0  0  0  0  0  0  0  0  0  0  0  0
  148.7106  138.7122  155.7293 H   0  0  0  0  0  0  0  0  0  0  0  0
  147.1908  140.5519  155.6227 H   0  0  0  0  0  0  0  0  0  0  0  0
  147.5478  141.3830  153.3526 H   0  0  0  0  0  0  0  0  0  0  0  0
  149.1168  142.0449  153.7755 H   0  0  0  0  0  0  0  0  0  0  0  0
  147.6545  142.7151  154.4955 H   0  0  0  0  0  0  0  0  0  0  0  0
  150.5273  140.3180  154.0927 H   0  0  0  0  0  0  0  0  0  0  0  0
  146.4686  130.7822  152.7863 H   0  0  0  0  0  0  0  0  0  0  0  0
  1  2  1  0  0  0  0
  1 26  1  0  0  0  0
  1 27  1  0  0  0  0
  1 28  1  0  0  0  0
  2 25  1  0  0  0  0
  2  3  1  0  0  0  0
  2 29  1  0  0  0  0
  3  4  1  0  0  0  0
  3 30  1  0  0  0  0
  3 31  1  0  0  0  0
  4  5  1  0  0  0  0
  4 22  1  0  0  0  0
  4 55  1  0  0  0  0
  5  6  1  0  0  0  0
  5 32  1  0  0  0  0
  5 33  1  0  0  0  0
  6  7  1  0  0  0  0
  6 34  1  0  0  0  0
  6 35  1  0  0  0  0
  7  8  1  0  0  0  0
  7 36  1  0  0  0  0
  8  9  2  0  0  0  0
  8 10  1  0  0  0  0
 10 11  1  0  0  0  0
 10 37  1  0  0  0  0
 11 16  1  0  0  0  0
 11 12  2  0  0  0  0
 12 13  1  0  0  0  0
 12 38  1  0  0  0  0
 13 14  2  0  0  0  0
 13 39  1  0  0  0  0
 14 15  1  0  0  0  0
 14 40  1  0  0  0  0
 15 16  2  0  0  0  0
 15 56  1  0  0  0  0
 16 17  1  0  0  0  0
 17 21  1  0  0  0  0
 17 18  1  0  0  0  0
 18 19  1  0  0  0  0
 18 41  1  0  0  0  0
 18 42  1  0  0  0  0
 19 20  1  0  0  0  0
 19 43  1  0  0  0  0
 19 44  1  0  0  0  0
 20 21  1  0  0  0  0
 20 45  1  0  0  0  0
 20 46  1  0  0  0  0
 21 47  1  0  0  0  0
 21 48  1  0  0  0  0
 22 23  1  0  0  0  0
 22 49  1  0  0  0  0
 22 50  1  0  0  0  0
 23 24  1  0  0  0  0
 23 25  1  0  0  0  0
 23 51  1  0  0  0  0
 24 52  1  0  0  0  0
 24 53  1  0  0  0  0
 24 54  1  0  0  0  0
M  CHG  1   4   1
M  CHG  1  15   1
M  END
> <s_m_source_file>
AV-unprocessed.smi

> <i_m_source_file_index>
1244

> <i_lp_mmshare_version>
43012

> <i_f3d_flags>
0

> <s_epik_input>
W0NIM11bQ0BASF0xW0NIMl1OKFtDSDJdW0NASF0oTzEpW0NIM10pW0NIMl1bQ0gyXVtOSF1DKD1PKVtOSF1jMltjSF1bY0hdW2NIXW5jMk4zW0NIMl1bQ0gyXVtDSDJdW0NIMl0z

> <s_epik_cmdline>
J2VwaWtfcHl0aG9uJywgJy1waCcsICc3LjAnLCAnLXRuJywgJzgnLCAnLW1hJywgJzIwMCcsICctbWV0YWxfYmluZGluZycsICctaW1hZScsICc8aW5maWxlLm1hZT4nLCAnLW9tYWUnLCAnPG91dGZpbGUubWFlPic=

> <r_lp_tautomer_probability>
0.999994

> <r_epik_Ionization_Penalty>
1.81601

> <r_epik_Ionization_Penalty_Charging>
1.81599

> <r_epik_Ionization_Penalty_Neutral>
2.01972e-05

> <r_epik_State_Penalty>
1.85672

> <r_epik_Charging_Adjusted_Penalty>
3.6727

> <i_epik_Tot_Q>
2

> <i_epik_Tot_abs_Q>
2

> <r_epik_Metal_State_Penalty>
1.93796

> <b_epik_Metal_Only>
0

> <s_lp_Force_Field>
OPLS_2005

> <r_lp_Energy>
54.6365

> <b_lp_Chiralities_Consistent>
1

> <s_lp_Variant>
AV-unprocessed.smi:1244-14

> <Gold.Version>
5.8.1

> <Gold.Id.Protein>
6NUR|6NUR_protein|mol2

> <Gold.PLP.Fitness>
45.6376

> <Gold.PLP.PLP>
-41.9844

> <Gold.PLP.part.hbond>
-3.8276

> <Gold.PLP.part.metal>
0.0000

> <Gold.PLP.part.buried>
-4.0912

> <Gold.PLP.part.nonpolar>
-35.2379

> <Gold.PLP.part.repulsive>
1.6828

> <Gold.PLP.ligand.clash>
0.0000

> <Gold.PLP.ligand.torsion>
0.7980

> <Gold.PLP.Chemscore.Hbond>
1.6000

> <Gold.PLP.Chemscore.CHOScore>
0.0000

> <Gold.PLP.Chemscore.Metal>
0.0000

> <Gold.Chemscore.Hbonds>
donor molecule, donor type, donor heavy atom, donor atom, acceptor molecule, acceptor atom, score
      L1  H     7    36       P1  7948  1.00
      L1  H    10    37       P1  7948  1.00

> <Gold.PLP.Chemscore.Internal.Correction>
0.4493

> <Gold.Rescore>
     Score         DG    S(hbond)    S(metal)    S(lipo)     H(rot)  DE(clash)    DE(int)     intcor
     13.01     -15.06       1.05        0.00      87.50       1.63       0.03       2.02       ----

> <Gold.Chemscore.Fitness>
13.0051

> <Gold.Chemscore.DG>
-15.0587

> <Gold.Chemscore.ZeroCoef>
-5.4800

> <Gold.Chemscore.Hbond>
1.0515

> <Gold.Chemscore.Metal>
0.0000

> <Gold.Chemscore.Lipo>
87.4998

> <Gold.Chemscore.Internal_Hbond>
0.0000

> <Gold.Chemscore.DEClash>
0.0344

> <Gold.Chemscore.DEInternal>
2.0192

> <Gold.Chemscore.Rot>
1.6293

> <Gold.Chemscore.Internal.Correction>
   9.000000E+99

> <Gold.Chemscore.Hbonds>
donor molecule, donor type, donor heavy atom, donor atom, acceptor molecule, acceptor atom, score
      L1  H     7    36       P1  7948  0.68
      L1  H    10    37       P1  7948  0.24

> <Gold.Chemscore.Hbond.Weighted>
-3.5121

> <Gold.Chemscore.Metal.Weighted>
-0.0000

> <Gold.Chemscore.Lipo.Weighted>
-10.2375

> <Gold.Chemscore.Internal_Hbond.Weighted>
0.0000

> <Gold.Chemscore.DEClash.Weighted>
0.0344

> <Gold.Chemscore.DEInternal.Weighted>
2.0192

> <Gold.Chemscore.Rot.Weighted>
4.1709

> <Gold.Chemscore.Internal.Correction.Weighted>
   9.000000E+99

> <Gold.Protein.RotatedTorsions>
[ 6907 6896 6895 6894 ] final  176.77 input  -60.11 | X-H torsion
[ 7974 7965 7964 7962 ] final  151.40 input  175.53 | X-H torsion
[ 8008 7997 7996 7995 ] final  150.56 input   59.86 | X-H torsion
[ 10167 10162 10161 10158 ] final  133.28 input  -65.29 | X-H torsion
[ 10718 10713 10712 10709 ] final -128.53 input   66.30 | X-H torsion
[ 10763 10752 10751 10750 ] final -165.26 input  -60.55 | X-H torsion
[ 11005 11000 10999 10996 ] final  -37.30 input  -57.11 | X-H torsion

> <Gold.Protein.ActiveResidues>
 VAL166  LYS551  ARG553  GLY616  TRP617  ASP618  TYR619  PRO620  LYS621  CYS622 
 ASP623  PHE694  ASN695  SER759  ASP760  ASP761  ALA762  ILE779  LEU786  VAL792 
 PHE793  MET794  SER795  GLU796  ALA797  LYS798  CYS799  TRP800  GLU811  SER814 

> <Gold.Protein.RotatedAtoms>
  151.7148  133.3313  159.3299 H   0  0  0  0  0  0  0  0  0  0  0  0  # atno 6907 bound_to 6896
  150.7678  134.6500  159.6292 H   0  0  0  0  0  0  0  0  0  0  0  0  # atno 6908 bound_to 6896
  152.3689  134.6766  160.0234 H   0  0  0  0  0  0  0  0  0  0  0  0  # atno 6909 bound_to 6896
  144.8295  139.6532  143.6065 H   0  0  0  0  0  0  0  0  0  0  0  0  # atno 7974 bound_to 7965
  156.2711  140.2071  156.6036 H   0  0  0  0  0  0  0  0  0  0  0  0  # atno 8008 bound_to 7997
  154.6887  140.0532  157.0364 H   0  0  0  0  0  0  0  0  0  0  0  0  # atno 8009 bound_to 7997
  155.0897  140.3195  155.4580 H   0  0  0  0  0  0  0  0  0  0  0  0  # atno 8010 bound_to 7997
  139.5304  144.6623  151.4973 H   0  0  0  0  0  0  0  0  0  0  0  0  # atno 10167 bound_to 10162
  156.1960  130.6826  151.0482 H   0  0  0  0  0  0  0  0  0  0  0  0  # atno 10718 bound_to 10713
  154.6949  135.2977  154.9426 H   0  0  0  0  0  0  0  0  0  0  0  0  # atno 10763 bound_to 10752
  154.0377  135.6661  153.4791 H   0  0  0  0  0  0  0  0  0  0  0  0  # atno 10764 bound_to 10752
  153.0638  135.5100  154.8061 H   0  0  0  0  0  0  0  0  0  0  0  0  # atno 10765 bound_to 10752
  140.9941  133.6989  156.1903 H   0  0  0  0  0  0  0  0  0  0  0  0  # atno 11005 bound_to 11000
  146.2599  139.6386  142.9369 LP  0  0  0  0  0  0  0  0  0  0  0  0  # atno 17320 bound_to 7965
  145.4926  141.0438  143.2584 LP  0  0  0  0  0  0  0  0  0  0  0  0  # atno 17321 bound_to 7965
  140.6477  143.8760  150.6754 LP  0  0  0  0  0  0  0  0  0  0  0  0  # atno 17342 bound_to 10162
  140.2115  143.3880  152.1714 LP  0  0  0  0  0  0  0  0  0  0  0  0  # atno 17343 bound_to 10162
  157.6958  131.0794  150.6974 LP  0  0  0  0  0  0  0  0  0  0  0  0  # atno 17370 bound_to 10713
  156.7031  130.4629  149.5567 LP  0  0  0  0  0  0  0  0  0  0  0  0  # atno 17371 bound_to 10713
  140.6993  134.4581  157.5586 LP  0  0  0  0  0  0  0  0  0  0  0  0  # atno 17394 bound_to 11000
  139.9006  134.8564  156.1912 LP  0  0  0  0  0  0  0  0  0  0  0  0  # atno 17395 bound_to 11000

$$$$
