AV-unprocessed.smi:739|AV-procd|sdf|3542|dock2
  -GOLD-   22720 0533D 1   1.00000     0.00000
 Structure written by MMmdl.
 32 34  0  0  0  0  0  0  0  0  1 V2000
  151.3554  143.4382  157.6890 O   0  0  0  0  0  0  0  0  0  0  0  0
  151.9782  142.3245  158.2955 C   0  0  2  0  0  0  0  0  0  0  0  0
  151.0409  141.1091  158.1512 C   0  0  0  0  0  0  0  0  0  0  0  0
  150.7288  140.8193  156.7630 N   0  0  0  0  0  0  0  0  0  0  0  0
  151.5132  140.1811  155.8734 C   0  0  0  0  0  0  0  0  0  0  0  0
  151.0259  140.0031  154.6490 N   0  0  0  0  0  0  0  0  0  0  0  0
  149.7800  140.5971  154.7544 C   0  0  0  0  0  0  0  0  0  0  0  0
  148.7506  140.7446  153.7976 C   0  0  0  0  0  0  0  0  0  0  0  0
  147.5454  141.3934  154.1380 C   0  0  0  0  0  0  0  0  0  0  0  0
  146.5690  141.5252  153.2088 F   0  0  0  0  0  0  0  0  0  0  0  0
  147.3521  141.9045  155.4387 C   0  0  0  0  0  0  0  0  0  0  0  0
  146.1916  142.5247  155.7583 F   0  0  0  0  0  0  0  0  0  0  0  0
  148.3641  141.7709  156.4081 C   0  0  0  0  0  0  0  0  0  0  0  0
  149.5643  141.1216  156.0644 C   0  0  0  0  0  0  0  0  0  0  0  0
  152.3553  142.5951  159.7459 C   0  0  0  0  0  0  0  0  0  0  0  0
  151.9171  143.7788  160.3786 C   0  0  0  0  0  0  0  0  0  0  0  0
  152.2880  144.0520  161.7095 C   0  0  0  0  0  0  0  0  0  0  0  0
  153.0976  143.1426  162.4165 C   0  0  0  0  0  0  0  0  0  0  0  0
  153.4547  143.4058  163.6957 F   0  0  0  0  0  0  0  0  0  0  0  0
  153.5364  141.9596  161.7918 C   0  0  0  0  0  0  0  0  0  0  0  0
  153.1672  141.6864  160.4604 C   0  0  0  0  0  0  0  0  0  0  0  0
  151.4903  144.1939  158.2404 H   0  0  0  0  0  0  0  0  0  0  0  0
  152.8905  142.1362  157.7274 H   0  0  0  0  0  0  0  0  0  0  0  0
  151.4795  140.2217  158.6094 H   0  0  0  0  0  0  0  0  0  0  0  0
  150.1011  141.2960  158.6730 H   0  0  0  0  0  0  0  0  0  0  0  0
  152.4958  139.8218  156.1423 H   0  0  0  0  0  0  0  0  0  0  0  0
  148.8872  140.3568  152.7990 H   0  0  0  0  0  0  0  0  0  0  0  0
  148.2166  142.1591  157.4047 H   0  0  0  0  0  0  0  0  0  0  0  0
  151.3035  144.4871  159.8416 H   0  0  0  0  0  0  0  0  0  0  0  0
  151.9539  144.9612  162.1874 H   0  0  0  0  0  0  0  0  0  0  0  0
  154.1594  141.2628  162.3327 H   0  0  0  0  0  0  0  0  0  0  0  0
  153.5180  140.7813  159.9863 H   0  0  0  0  0  0  0  0  0  0  0  0
  1  2  1  0  0  0  0
  1 22  1  0  0  0  0
  2  3  1  0  0  0  0
  2 15  1  0  0  0  0
  2 23  1  0  0  0  0
  3  4  1  0  0  0  0
  3 24  1  0  0  0  0
  3 25  1  0  0  0  0
  4 14  1  0  0  0  0
  4  5  1  0  0  0  0
  5  6  2  0  0  0  0
  5 26  1  0  0  0  0
  6  7  1  0  0  0  0
  7 14  2  0  0  0  0
  7  8  1  0  0  0  0
  8  9  2  0  0  0  0
  8 27  1  0  0  0  0
  9 10  1  0  0  0  0
  9 11  1  0  0  0  0
 11 12  1  0  0  0  0
 11 13  2  0  0  0  0
 13 14  1  0  0  0  0
 13 28  1  0  0  0  0
 15 21  1  0  0  0  0
 15 16  2  0  0  0  0
 16 17  1  0  0  0  0
 16 29  1  0  0  0  0
 17 18  2  0  0  0  0
 17 30  1  0  0  0  0
 18 19  1  0  0  0  0
 18 20  1  0  0  0  0
 20 21  2  0  0  0  0
 20 31  1  0  0  0  0
 21 32  1  0  0  0  0
M  END
> <s_m_source_file>
AV-unprocessed.smi

> <i_m_source_file_index>
739

> <i_lp_mmshare_version>
43012

> <i_f3d_flags>
0

> <s_epik_input>
W2NIXTFbY0hdYyhGKVtjSF1bY0hdYzFbQ0BIXShbT0hdKVtDSDJdbihbY0hdbjIpYyhjMjMpW2NIXWMoRiljKEYpW2NIXTM=

> <s_epik_cmdline>
J2VwaWtfcHl0aG9uJywgJy1waCcsICc3LjAnLCAnLXRuJywgJzgnLCAnLW1hJywgJzIwMCcsICctbWV0YWxfYmluZGluZycsICctaW1hZScsICc8aW5maWxlLm1hZT4nLCAnLW9tYWUnLCAnPG91dGZpbGUubWFlPic=

> <r_epik_Ionization_Penalty>
0.0156356

> <r_epik_Ionization_Penalty_Charging>
0

> <r_epik_Ionization_Penalty_Neutral>
0.0156356

> <r_epik_State_Penalty>
0.0122974

> <r_epik_Charging_Adjusted_Penalty>
0.0122974

> <i_epik_Tot_Q>
0

> <i_epik_Tot_abs_Q>
0

> <r_epik_Metal_State_Penalty>
1.24258e-05

> <b_epik_Metal_Only>
0

> <s_lp_Force_Field>
OPLS_2005

> <r_lp_Energy>
11.0566

> <b_lp_Chiralities_Consistent>
1

> <s_lp_Variant>
AV-unprocessed.smi:739-1

> <Gold.Version>
5.8.1

> <Gold.Id.Protein>
6NUR|6NUR_protein|mol2

> <Gold.PLP.Fitness>
50.8403

> <Gold.PLP.PLP>
-48.5561

> <Gold.PLP.part.hbond>
-1.0000

> <Gold.PLP.part.metal>
0.0000

> <Gold.PLP.part.buried>
-1.1972

> <Gold.PLP.part.nonpolar>
-45.6704

> <Gold.PLP.part.repulsive>
0.0795

> <Gold.PLP.ligand.clash>
0.0000

> <Gold.PLP.ligand.torsion>
0.3755

> <Gold.PLP.Chemscore.Hbond>
1.0000

> <Gold.PLP.Chemscore.CHOScore>
0.0000

> <Gold.PLP.Chemscore.Metal>
0.0000

> <Gold.Chemscore.Hbonds>
donor molecule, donor type, donor heavy atom, donor atom, acceptor molecule, acceptor atom, score
      P1  H  7989  7998       L1     6  1.00

> <Gold.PLP.Chemscore.Internal.Correction>
0.0352

> <Gold.Rescore>
     Score         DG    S(hbond)    S(metal)    S(lipo)     H(rot)  DE(clash)    DE(int)     intcor
     13.74     -14.50       0.09        0.00     119.76       2.07       0.37       0.39       ----

> <Gold.Chemscore.Fitness>
13.7391

> <Gold.Chemscore.DG>
-14.5035

> <Gold.Chemscore.ZeroCoef>
-5.4800

> <Gold.Chemscore.Hbond>
0.0932

> <Gold.Chemscore.Metal>
0.0000

> <Gold.Chemscore.Lipo>
119.7574

> <Gold.Chemscore.Internal_Hbond>
0.0000

> <Gold.Chemscore.DEClash>
0.3748

> <Gold.Chemscore.DEInternal>
0.3897

> <Gold.Chemscore.Rot>
2.0700

> <Gold.Chemscore.Internal.Correction>
   9.000000E+99

> <Gold.Chemscore.Hbonds>
donor molecule, donor type, donor heavy atom, donor atom, acceptor molecule, acceptor atom, score
      P1  H  7989  7998       L1     6  0.23

> <Gold.Chemscore.Hbond.Weighted>
-0.3112

> <Gold.Chemscore.Metal.Weighted>
-0.0000

> <Gold.Chemscore.Lipo.Weighted>
-14.0116

> <Gold.Chemscore.Internal_Hbond.Weighted>
0.0000

> <Gold.Chemscore.DEClash.Weighted>
0.3748

> <Gold.Chemscore.DEInternal.Weighted>
0.3897

> <Gold.Chemscore.Rot.Weighted>
5.2992

> <Gold.Chemscore.Internal.Correction.Weighted>
   9.000000E+99

> <Gold.Protein.RotatedTorsions>
[ 6907 6896 6895 6894 ] final   89.11 input  -60.11 | X-H torsion
[ 7974 7965 7964 7962 ] final  106.36 input  175.53 | X-H torsion
[ 8008 7997 7996 7995 ] final -100.23 input   59.86 | X-H torsion
[ 10167 10162 10161 10158 ] final  -95.93 input  -65.29 | X-H torsion
[ 10718 10713 10712 10709 ] final  -90.99 input   66.30 | X-H torsion
[ 10763 10752 10751 10750 ] final  132.09 input  -60.55 | X-H torsion
[ 11005 11000 10999 10996 ] final  -52.18 input  -57.11 | X-H torsion

> <Gold.Protein.ActiveResidues>
 VAL166  LYS551  ARG553  GLY616  TRP617  ASP618  TYR619  PRO620  LYS621  CYS622 
 ASP623  PHE694  ASN695  SER759  ASP760  ASP761  ALA762  ILE779  LEU786  VAL792 
 PHE793  MET794  SER795  GLU796  ALA797  LYS798  CYS799  TRP800  GLU811  SER814 

> <Gold.Protein.RotatedAtoms>
  152.5433  134.2017  159.8714 H   0  0  0  0  0  0  0  0  0  0  0  0  # atno 6907 bound_to 6896
  151.2006  133.4606  159.2604 H   0  0  0  0  0  0  0  0  0  0  0  0  # atno 6908 bound_to 6896
  151.0993  134.9975  159.8496 H   0  0  0  0  0  0  0  0  0  0  0  0  # atno 6909 bound_to 6896
  145.3076  139.2550  143.3780 H   0  0  0  0  0  0  0  0  0  0  0  0  # atno 7974 bound_to 7965
  154.8258  140.0442  157.1442 H   0  0  0  0  0  0  0  0  0  0  0  0  # atno 8008 bound_to 7997
  154.9208  140.3026  155.5197 H   0  0  0  0  0  0  0  0  0  0  0  0  # atno 8009 bound_to 7997
  156.2983  140.2341  156.4258 H   0  0  0  0  0  0  0  0  0  0  0  0  # atno 8010 bound_to 7997
  140.2991  143.3174  152.0267 H   0  0  0  0  0  0  0  0  0  0  0  0  # atno 10167 bound_to 10162
  155.9991  130.4931  150.5407 H   0  0  0  0  0  0  0  0  0  0  0  0  # atno 10718 bound_to 10713
  153.7851  135.3163  155.3371 H   0  0  0  0  0  0  0  0  0  0  0  0  # atno 10763 bound_to 10752
  154.8147  135.4644  154.0613 H   0  0  0  0  0  0  0  0  0  0  0  0  # atno 10764 bound_to 10752
  153.1914  135.6909  153.8433 H   0  0  0  0  0  0  0  0  0  0  0  0  # atno 10765 bound_to 10752
  141.0910  133.6632  156.3986 H   0  0  0  0  0  0  0  0  0  0  0  0  # atno 11005 bound_to 11000
  146.3129  140.3605  142.8664 LP  0  0  0  0  0  0  0  0  0  0  0  0  # atno 17320 bound_to 7965
  144.9042  140.7679  143.5848 LP  0  0  0  0  0  0  0  0  0  0  0  0  # atno 17321 bound_to 7965
  139.4919  144.6469  151.6759 LP  0  0  0  0  0  0  0  0  0  0  0  0  # atno 17342 bound_to 10162
  140.5667  144.0178  150.6196 LP  0  0  0  0  0  0  0  0  0  0  0  0  # atno 17343 bound_to 10162
  157.3344  131.0705  151.1836 LP  0  0  0  0  0  0  0  0  0  0  0  0  # atno 17370 bound_to 10713
  157.2706  130.6702  149.6018 LP  0  0  0  0  0  0  0  0  0  0  0  0  # atno 17371 bound_to 10713
  140.5251  134.6267  157.5331 LP  0  0  0  0  0  0  0  0  0  0  0  0  # atno 17394 bound_to 11000
  139.9737  134.7251  155.9992 LP  0  0  0  0  0  0  0  0  0  0  0  0  # atno 17395 bound_to 11000

$$$$
