AV-unprocessed.smi:3030|AV-procd|sdf|11534|dock3
  -GOLD-   2272016483D 1   1.00000     0.00000
 Structure written by MMmdl.
 52 53  0  0  0  0  0  0  0  0  1 V2000
  145.5615  143.1783  155.1628 C   0  0  0  0  0  0  0  0  0  0  0  0
  146.2169  142.7772  153.8366 C   0  0  0  0  0  0  0  0  0  0  0  0
  147.0657  141.6038  153.9869 N   0  0  0  0  0  0  0  0  0  0  0  0
  148.2676  141.6672  154.6843 C   0  0  0  0  0  0  0  0  0  0  0  0
  149.1240  140.6349  154.8082 C   0  0  0  0  0  0  0  0  0  0  0  0
  148.7976  139.3432  154.1712 C   0  0  0  0  0  0  0  0  0  0  0  0
  149.5591  138.3802  154.2610 O   0  0  0  0  0  0  0  0  0  0  0  0
  147.5139  139.2754  153.4245 C   0  0  0  0  0  0  0  0  0  0  0  0
  147.2163  138.0499  152.8070 N   0  0  0  0  0  0  0  0  0  0  0  0
  146.0332  137.4183  152.7021 C   0  0  0  0  0  0  0  0  0  0  0  0
  144.9687  137.7958  153.1913 O   0  0  0  0  0  0  0  0  0  0  0  0
  146.1585  136.2854  151.9958 N   0  0  0  0  0  0  0  0  0  0  0  0
  145.0827  135.3414  151.7079 C   0  0  1  0  0  0  0  0  0  0  0  0
  145.5013  134.3419  150.6132 C   0  0  0  0  0  0  0  0  0  0  0  0
  144.3011  133.4855  150.1603 C   0  0  1  0  0  0  0  0  0  0  0  0
  144.7147  132.4497  149.1055 C   0  0  0  0  0  0  0  0  0  0  0  0
  143.6062  132.8194  151.3658 C   0  0  0  0  0  0  0  0  0  0  0  0
  143.2571  133.8432  152.4639 C   0  0  0  0  0  0  0  0  0  0  0  0
  144.5063  134.6143  152.9609 C   0  0  1  0  0  0  0  0  0  0  0  0
  145.5028  133.7142  153.7743 C   0  0  0  0  0  0  0  0  0  0  0  0
  146.6430  134.5301  154.4171 C   0  0  0  0  0  0  0  0  0  0  0  0
  146.1392  132.5763  152.9517 C   0  0  0  0  0  0  0  0  0  0  0  0
  146.7459  140.3938  153.3741 C   0  0  0  0  0  0  0  0  0  0  0  0
  144.9318  144.0585  155.0327 H   0  0  0  0  0  0  0  0  0  0  0  0
  146.3119  143.4148  155.9178 H   0  0  0  0  0  0  0  0  0  0  0  0
  144.9354  142.3746  155.5517 H   0  0  0  0  0  0  0  0  0  0  0  0
  145.4479  142.5782  153.0891 H   0  0  0  0  0  0  0  0  0  0  0  0
  146.8097  143.6075  153.4506 H   0  0  0  0  0  0  0  0  0  0  0  0
  148.4694  142.6272  155.1375 H   0  0  0  0  0  0  0  0  0  0  0  0
  150.0453  140.7298  155.3637 H   0  0  0  0  0  0  0  0  0  0  0  0
  148.0139  137.5790  152.4050 H   0  0  0  0  0  0  0  0  0  0  0  0
  147.0720  136.0511  151.6363 H   0  0  0  0  0  0  0  0  0  0  0  0
  144.2769  135.9396  151.2767 H   0  0  0  0  0  0  0  0  0  0  0  0
  145.8983  134.8846  149.7540 H   0  0  0  0  0  0  0  0  0  0  0  0
  146.3113  133.7048  150.9690 H   0  0  0  0  0  0  0  0  0  0  0  0
  143.5768  134.1543  149.6928 H   0  0  0  0  0  0  0  0  0  0  0  0
  145.4466  131.7473  149.5055 H   0  0  0  0  0  0  0  0  0  0  0  0
  145.1583  132.9321  148.2341 H   0  0  0  0  0  0  0  0  0  0  0  0
  143.8546  131.8749  148.7615 H   0  0  0  0  0  0  0  0  0  0  0  0
  142.6953  132.3206  151.0338 H   0  0  0  0  0  0  0  0  0  0  0  0
  144.2436  132.0373  151.7788 H   0  0  0  0  0  0  0  0  0  0  0  0
  142.5372  134.5560  152.0588 H   0  0  0  0  0  0  0  0  0  0  0  0
  142.7277  133.3582  153.2821 H   0  0  0  0  0  0  0  0  0  0  0  0
  144.1443  135.3805  153.6481 H   0  0  0  0  0  0  0  0  0  0  0  0
  144.9639  133.2422  154.5948 H   0  0  0  0  0  0  0  0  0  0  0  0
  147.1745  135.1242  153.6732 H   0  0  0  0  0  0  0  0  0  0  0  0
  147.3722  133.8796  154.9009 H   0  0  0  0  0  0  0  0  0  0  0  0
  146.2797  135.2017  155.1940 H   0  0  0  0  0  0  0  0  0  0  0  0
  146.5565  132.9458  152.0145 H   0  0  0  0  0  0  0  0  0  0  0  0
  145.4242  131.7878  152.7247 H   0  0  0  0  0  0  0  0  0  0  0  0
  146.9465  132.0919  153.5014 H   0  0  0  0  0  0  0  0  0  0  0  0
  145.8118  140.4397  152.8370 H   0  0  0  0  0  0  0  0  0  0  0  0
  1  2  1  0  0  0  0
  1 24  1  0  0  0  0
  1 25  1  0  0  0  0
  1 26  1  0  0  0  0
  2  3  1  0  0  0  0
  2 27  1  0  0  0  0
  2 28  1  0  0  0  0
  3 23  1  0  0  0  0
  3  4  1  0  0  0  0
  4  5  2  0  0  0  0
  4 29  1  0  0  0  0
  5  6  1  0  0  0  0
  5 30  1  0  0  0  0
  6  7  2  0  0  0  0
  6  8  1  0  0  0  0
  8  9  1  0  0  0  0
  8 23  2  0  0  0  0
  9 10  1  0  0  0  0
  9 31  1  0  0  0  0
 10 11  2  0  0  0  0
 10 12  1  0  0  0  0
 12 13  1  0  0  0  0
 12 32  1  0  0  0  0
 13 19  1  0  0  0  0
 13 14  1  0  0  0  0
 13 33  1  0  0  0  0
 14 15  1  0  0  0  0
 14 34  1  0  0  0  0
 14 35  1  0  0  0  0
 15 16  1  0  0  0  0
 15 17  1  0  0  0  0
 15 36  1  0  0  0  0
 16 37  1  0  0  0  0
 16 38  1  0  0  0  0
 16 39  1  0  0  0  0
 17 18  1  0  0  0  0
 17 40  1  0  0  0  0
 17 41  1  0  0  0  0
 18 19  1  0  0  0  0
 18 42  1  0  0  0  0
 18 43  1  0  0  0  0
 19 20  1  0  0  0  0
 19 44  1  0  0  0  0
 20 21  1  0  0  0  0
 20 22  1  0  0  0  0
 20 45  1  0  0  0  0
 21 46  1  0  0  0  0
 21 47  1  0  0  0  0
 21 48  1  0  0  0  0
 22 49  1  0  0  0  0
 22 50  1  0  0  0  0
 22 51  1  0  0  0  0
 23 52  1  0  0  0  0
M  END
> <s_m_source_file>
AV-unprocessed.smi

> <i_m_source_file_index>
3030

> <i_lp_mmshare_version>
43012

> <i_f3d_flags>
0

> <s_epik_input>
W0NIM11bQ0gyXW4xW2NIXVtjSF1jKD1PKWMoW2NIXTEpW05IXUMoPU8pW05IXVtDQEBIXTJbQ0gyXVtDQEBIXShbQ0gzXSlbQ0gyXVtDSDJdW0NASF0yW0NIXShbQ0gzXSlbQ0gzXQ==

> <s_epik_cmdline>
J2VwaWtfcHl0aG9uJywgJy1waCcsICc3LjAnLCAnLXRuJywgJzgnLCAnLW1hJywgJzIwMCcsICctbWV0YWxfYmluZGluZycsICctaW1hZScsICc8aW5maWxlLm1hZT4nLCAnLW9tYWUnLCAnPG91dGZpbGUubWFlPic=

> <r_lp_tautomer_probability>
1

> <r_epik_Ionization_Penalty>
0.00147933

> <r_epik_Ionization_Penalty_Charging>
0.00145753

> <r_epik_Ionization_Penalty_Neutral>
2.17987e-05

> <r_epik_State_Penalty>
0.00097457

> <r_epik_Charging_Adjusted_Penalty>
0.0024321

> <i_epik_Tot_Q>
0

> <i_epik_Tot_abs_Q>
0

> <r_epik_Metal_State_Penalty>
-0

> <b_epik_Metal_Only>
0

> <s_lp_Force_Field>
OPLS_2005

> <r_lp_Energy>
13.818

> <b_lp_Chiralities_Consistent>
1

> <s_lp_Variant>
AV-unprocessed.smi:3030-2

> <Gold.Version>
5.8.1

> <Gold.Id.Protein>
6NUR|6NUR_protein|mol2

> <Gold.PLP.Fitness>
50.2299

> <Gold.PLP.PLP>
-39.4555

> <Gold.PLP.part.hbond>
-2.0000

> <Gold.PLP.part.metal>
0.0000

> <Gold.PLP.part.buried>
-1.6345

> <Gold.PLP.part.nonpolar>
-36.4964

> <Gold.PLP.part.repulsive>
1.0314

> <Gold.PLP.ligand.clash>
0.0943

> <Gold.PLP.ligand.torsion>
0.4907

> <Gold.PLP.Chemscore.Hbond>
1.9280

> <Gold.PLP.Chemscore.CHOScore>
2.0000

> <Gold.PLP.Chemscore.Metal>
0.0000

> <Gold.Chemscore.Hbonds>
donor molecule, donor type, donor heavy atom, donor atom, acceptor molecule, acceptor atom, score
      L1  H     9    31       P1  7948  1.00
      L1  H    12    32       P1  7948  0.96
      L1  C     4    29       P1  8028  1.00
      L1  C    23    52       P1 10175  1.00

> <Gold.PLP.Chemscore.Internal.Correction>
0.0661

> <Gold.Rescore>
     Score         DG    S(hbond)    S(metal)    S(lipo)     H(rot)  DE(clash)    DE(int)     intcor
     17.12     -19.29       1.94        0.00      90.48       1.27       0.28       1.89       ----

> <Gold.Chemscore.Fitness>
17.1201

> <Gold.Chemscore.DG>
-19.2883

> <Gold.Chemscore.ZeroCoef>
-5.4800

> <Gold.Chemscore.Hbond>
1.9371

> <Gold.Chemscore.Metal>
0.0000

> <Gold.Chemscore.Lipo>
90.4777

> <Gold.Chemscore.Internal_Hbond>
0.0000

> <Gold.Chemscore.DEClash>
0.2793

> <Gold.Chemscore.DEInternal>
1.8889

> <Gold.Chemscore.Rot>
1.2685

> <Gold.Chemscore.Internal.Correction>
   9.000000E+99

> <Gold.Chemscore.Hbonds>
donor molecule, donor type, donor heavy atom, donor atom, acceptor molecule, acceptor atom, score
      L1  H     9    31       P1  7948  0.99
      L1  H    12    32       P1  7948  0.92

> <Gold.Chemscore.Hbond.Weighted>
-6.4698

> <Gold.Chemscore.Metal.Weighted>
-0.0000

> <Gold.Chemscore.Lipo.Weighted>
-10.5859

> <Gold.Chemscore.Internal_Hbond.Weighted>
0.0000

> <Gold.Chemscore.DEClash.Weighted>
0.2793

> <Gold.Chemscore.DEInternal.Weighted>
1.8889

> <Gold.Chemscore.Rot.Weighted>
3.2474

> <Gold.Chemscore.Internal.Correction.Weighted>
   9.000000E+99

> <Gold.Protein.RotatedTorsions>
[ 6907 6896 6895 6894 ] final -107.63 input  -60.11 | X-H torsion
[ 7974 7965 7964 7962 ] final   98.40 input  175.53 | X-H torsion
[ 8008 7997 7996 7995 ] final  173.29 input   59.86 | X-H torsion
[ 10167 10162 10161 10158 ] final -123.60 input  -65.29 | X-H torsion
[ 10718 10713 10712 10709 ] final  142.20 input   66.30 | X-H torsion
[ 10763 10752 10751 10750 ] final  -95.24 input  -60.55 | X-H torsion
[ 11005 11000 10999 10996 ] final  123.65 input  -57.11 | X-H torsion

> <Gold.Protein.ActiveResidues>
 VAL166  LYS551  ARG553  GLY616  TRP617  ASP618  TYR619  PRO620  LYS621  CYS622 
 ASP623  PHE694  ASN695  SER759  ASP760  ASP761  ALA762  ILE779  LEU786  VAL792 
 PHE793  MET794  SER795  GLU796  ALA797  LYS798  CYS799  TRP800  GLU811  SER814 

> <Gold.Protein.RotatedAtoms>
  150.7455  133.9798  159.3572 H   0  0  0  0  0  0  0  0  0  0  0  0  # atno 6907 bound_to 6896
  151.7738  135.0777  160.0373 H   0  0  0  0  0  0  0  0  0  0  0  0  # atno 6908 bound_to 6896
  152.3321  133.5933  159.5853 H   0  0  0  0  0  0  0  0  0  0  0  0  # atno 6909 bound_to 6896
  145.4126  139.2331  143.3239 H   0  0  0  0  0  0  0  0  0  0  0  0  # atno 7974 bound_to 7965
  156.1090  140.1464  156.9364 H   0  0  0  0  0  0  0  0  0  0  0  0  # atno 8008 bound_to 7997
  154.4754  140.0896  156.7292 H   0  0  0  0  0  0  0  0  0  0  0  0  # atno 8009 bound_to 7997
  155.4629  140.3439  155.4317 H   0  0  0  0  0  0  0  0  0  0  0  0  # atno 8010 bound_to 7997
  140.0018  143.5533  152.2300 H   0  0  0  0  0  0  0  0  0  0  0  0  # atno 10167 bound_to 10162
  157.3833  131.0995  151.0717 H   0  0  0  0  0  0  0  0  0  0  0  0  # atno 10718 bound_to 10713
  154.7130  135.5128  153.8695 H   0  0  0  0  0  0  0  0  0  0  0  0  # atno 10763 bound_to 10752
  153.0796  135.6627  154.0081 H   0  0  0  0  0  0  0  0  0  0  0  0  # atno 10764 bound_to 10752
  153.9919  135.3019  155.3390 H   0  0  0  0  0  0  0  0  0  0  0  0  # atno 10765 bound_to 10752
  139.9322  134.9641  156.8291 H   0  0  0  0  0  0  0  0  0  0  0  0  # atno 11005 bound_to 11000
  146.2697  140.4840  142.8819 LP  0  0  0  0  0  0  0  0  0  0  0  0  # atno 17320 bound_to 7965
  144.8298  140.6689  143.6298 LP  0  0  0  0  0  0  0  0  0  0  0  0  # atno 17321 bound_to 7965
  139.6267  144.7638  151.2624 LP  0  0  0  0  0  0  0  0  0  0  0  0  # atno 17342 bound_to 10162
  140.7416  143.6552  150.8213 LP  0  0  0  0  0  0  0  0  0  0  0  0  # atno 17343 bound_to 10162
  157.1778  130.6296  149.5661 LP  0  0  0  0  0  0  0  0  0  0  0  0  # atno 17370 bound_to 10713
  155.9781  130.4764  150.6633 LP  0  0  0  0  0  0  0  0  0  0  0  0  # atno 17371 bound_to 10713
  140.6171  134.0029  155.7602 LP  0  0  0  0  0  0  0  0  0  0  0  0  # atno 17394 bound_to 11000
  141.0917  133.9906  157.3226 LP  0  0  0  0  0  0  0  0  0  0  0  0  # atno 17395 bound_to 11000

$$$$
