AV-unprocessed.smi:3318|AV-procd|sdf|12765|dock2
  -GOLD-   2272019103D 1   1.00000     0.00000
 Structure written by MMmdl.
 44 45  0  0  0  0  0  0  0  0  2 V2000
  144.4818  133.7947  150.6939 C   0  0  0  0  0  0  0  0  0  0  0  0
  145.3395  135.0569  150.8358 C   0  0  0  0  0  0  0  0  0  0  0  0
  145.5949  135.4284  152.3067 C   0  0  0  0  0  0  0  0  0  0  0  0
  146.3893  136.6750  152.4500 N   0  3  2  0  0  0  0  0  0  0  0  0
  146.5198  137.1314  153.8595 C   0  0  0  0  0  0  0  0  0  0  0  0
  147.4515  138.3504  153.9678 C   0  0  0  0  0  0  0  0  0  0  0  0
  146.9633  139.5038  153.0699 C   0  0  1  0  0  0  0  0  0  0  0  0
  147.9117  140.6107  153.0663 N   0  0  0  0  0  0  0  0  0  0  0  0
  148.4183  140.9019  154.3997 C   0  0  0  0  0  0  0  0  0  0  0  0
  149.8013  140.2621  154.5817 C   0  0  0  0  0  0  0  0  0  0  0  0
  150.4536  140.6877  155.8835 C   0  0  0  0  0  0  0  0  0  0  0  0
  150.6410  142.0540  156.1832 C   0  0  0  0  0  0  0  0  0  0  0  0
  151.2378  142.3954  157.4122 C   0  0  0  0  0  0  0  0  0  0  0  0
  151.6217  141.3632  158.2899 C   0  0  0  0  0  0  0  0  0  0  0  0
  151.3909  140.0297  157.8975 C   0  0  0  0  0  0  0  0  0  0  0  0
  150.8188  139.6914  156.7218 N   0  0  0  0  0  0  0  0  0  0  0  0
  146.8100  138.9921  151.6287 C   0  0  0  0  0  0  0  0  0  0  0  0
  145.8874  137.7639  151.5728 C   0  0  0  0  0  0  0  0  0  0  0  0
  144.3185  133.5526  149.6436 H   0  0  0  0  0  0  0  0  0  0  0  0
  143.5048  133.9267  151.1593 H   0  0  0  0  0  0  0  0  0  0  0  0
  144.9636  132.9358  151.1621 H   0  0  0  0  0  0  0  0  0  0  0  0
  146.2809  134.8956  150.3117 H   0  0  0  0  0  0  0  0  0  0  0  0
  144.8411  135.8848  150.3305 H   0  0  0  0  0  0  0  0  0  0  0  0
  144.6261  135.5675  152.7883 H   0  0  0  0  0  0  0  0  0  0  0  0
  146.0861  134.6098  152.8350 H   0  0  0  0  0  0  0  0  0  0  0  0
  145.5338  137.3789  154.2561 H   0  0  0  0  0  0  0  0  0  0  0  0
  146.9176  136.3320  154.4833 H   0  0  0  0  0  0  0  0  0  0  0  0
  147.5017  138.6652  155.0102 H   0  0  0  0  0  0  0  0  0  0  0  0
  148.4639  138.0585  153.6838 H   0  0  0  0  0  0  0  0  0  0  0  0
  145.9914  139.8597  153.4161 H   0  0  0  0  0  0  0  0  0  0  0  0
  148.6763  140.4181  152.4346 H   0  0  0  0  0  0  0  0  0  0  0  0
  148.4872  141.9816  154.5385 H   0  0  0  0  0  0  0  0  0  0  0  0
  147.7351  140.5165  155.1564 H   0  0  0  0  0  0  0  0  0  0  0  0
  149.7185  139.1741  154.5683 H   0  0  0  0  0  0  0  0  0  0  0  0
  150.4528  140.5317  153.7491 H   0  0  0  0  0  0  0  0  0  0  0  0
  150.3324  142.8237  155.4910 H   0  0  0  0  0  0  0  0  0  0  0  0
  151.3965  143.4301  157.6774 H   0  0  0  0  0  0  0  0  0  0  0  0
  152.0809  141.5879  159.2410 H   0  0  0  0  0  0  0  0  0  0  0  0
  151.6717  139.2130  158.5459 H   0  0  0  0  0  0  0  0  0  0  0  0
  146.4078  139.7812  150.9917 H   0  0  0  0  0  0  0  0  0  0  0  0
  147.7859  138.7289  151.2169 H   0  0  0  0  0  0  0  0  0  0  0  0
  145.8286  137.4111  150.5425 H   0  0  0  0  0  0  0  0  0  0  0  0
  144.8747  138.0385  151.8730 H   0  0  0  0  0  0  0  0  0  0  0  0
  147.3201  136.4589  152.1227 H   0  0  0  0  0  0  0  0  0  0  0  0
  1  2  1  0  0  0  0
  1 19  1  0  0  0  0
  1 20  1  0  0  0  0
  1 21  1  0  0  0  0
  2  3  1  0  0  0  0
  2 22  1  0  0  0  0
  2 23  1  0  0  0  0
  3  4  1  0  0  0  0
  3 24  1  0  0  0  0
  3 25  1  0  0  0  0
  4 18  1  0  0  0  0
  4  5  1  0  0  0  0
  4 44  1  0  0  0  0
  5  6  1  0  0  0  0
  5 26  1  0  0  0  0
  5 27  1  0  0  0  0
  6  7  1  0  0  0  0
  6 28  1  0  0  0  0
  6 29  1  0  0  0  0
  7  8  1  0  0  0  0
  7 17  1  0  0  0  0
  7 30  1  0  0  0  0
  8  9  1  0  0  0  0
  8 31  1  0  0  0  0
  9 10  1  0  0  0  0
  9 32  1  0  0  0  0
  9 33  1  0  0  0  0
 10 11  1  0  0  0  0
 10 34  1  0  0  0  0
 10 35  1  0  0  0  0
 11 16  1  0  0  0  0
 11 12  2  0  0  0  0
 12 13  1  0  0  0  0
 12 36  1  0  0  0  0
 13 14  2  0  0  0  0
 13 37  1  0  0  0  0
 14 15  1  0  0  0  0
 14 38  1  0  0  0  0
 15 16  2  0  0  0  0
 15 39  1  0  0  0  0
 17 18  1  0  0  0  0
 17 40  1  0  0  0  0
 17 41  1  0  0  0  0
 18 42  1  0  0  0  0
 18 43  1  0  0  0  0
M  CHG  1   4   1
M  END
> <s_m_source_file>
AV-unprocessed.smi

> <i_m_source_file_index>
3318

> <i_lp_mmshare_version>
43012

> <i_f3d_flags>
0

> <s_epik_input>
W0NIM11bQ0gyXVtDSDJdTjFbQ0gyXVtDSDJdW0NIXShbQ0gyXVtDSDJdMSlbTkhdW0NIMl1bQ0gyXWMyW2NIXVtjSF1bY0hdW2NIXW4y

> <s_epik_cmdline>
J2VwaWtfcHl0aG9uJywgJy1waCcsICc3LjAnLCAnLXRuJywgJzgnLCAnLW1hJywgJzIwMCcsICctbWV0YWxfYmluZGluZycsICctaW1hZScsICc8aW5maWxlLm1hZT4nLCAnLW9tYWUnLCAnPG91dGZpbGUubWFlPic=

> <r_epik_Ionization_Penalty>
2.30703

> <r_epik_Ionization_Penalty_Charging>
0.000286176

> <r_epik_Ionization_Penalty_Neutral>
2.30674

> <r_epik_State_Penalty>
2.39905

> <r_epik_Charging_Adjusted_Penalty>
2.39933

> <i_epik_Tot_Q>
1

> <i_epik_Tot_abs_Q>
1

> <r_epik_Metal_State_Penalty>
2.30906

> <b_epik_Metal_Only>
0

> <s_lp_Force_Field>
OPLS_2005

> <r_lp_Energy>
18.8506

> <b_lp_Chiralities_Consistent>
1

> <s_lp_Variant>
AV-unprocessed.smi:3318-4

> <Gold.Version>
5.8.1

> <Gold.Id.Protein>
6NUR|6NUR_protein|mol2

> <Gold.PLP.Fitness>
42.7317

> <Gold.PLP.PLP>
-34.6179

> <Gold.PLP.part.hbond>
-2.0000

> <Gold.PLP.part.metal>
0.0000

> <Gold.PLP.part.buried>
0.6653

> <Gold.PLP.part.nonpolar>
-33.3689

> <Gold.PLP.part.repulsive>
0.0338

> <Gold.PLP.ligand.clash>
0.0000

> <Gold.PLP.ligand.torsion>
0.4969

> <Gold.PLP.Chemscore.Hbond>
3.0000

> <Gold.PLP.Chemscore.CHOScore>
0.0000

> <Gold.PLP.Chemscore.Metal>
0.0000

> <Gold.Chemscore.Hbonds>
donor molecule, donor type, donor heavy atom, donor atom, acceptor molecule, acceptor atom, score
      L1  H     4    44       P1  7948  2.00
      L1  H     8    31       P1  7957  1.00

> <Gold.PLP.Chemscore.Internal.Correction>
0.1077

> <Gold.Rescore>
     Score         DG    S(hbond)    S(metal)    S(lipo)     H(rot)  DE(clash)    DE(int)     intcor
     18.05     -19.44       1.99        0.00      94.91       1.48       0.88       0.51       ----

> <Gold.Chemscore.Fitness>
18.0462

> <Gold.Chemscore.DG>
-19.4427

> <Gold.Chemscore.ZeroCoef>
-5.4800

> <Gold.Chemscore.Hbond>
1.9909

> <Gold.Chemscore.Metal>
0.0000

> <Gold.Chemscore.Lipo>
94.9142

> <Gold.Chemscore.Internal_Hbond>
0.0000

> <Gold.Chemscore.DEClash>
0.8846

> <Gold.Chemscore.DEInternal>
0.5119

> <Gold.Chemscore.Rot>
1.4811

> <Gold.Chemscore.Internal.Correction>
   9.000000E+99

> <Gold.Chemscore.Hbonds>
donor molecule, donor type, donor heavy atom, donor atom, acceptor molecule, acceptor atom, score
      L1  H     4    44       P1  7948  1.00
      L1  H     8    31       P1  7957  0.99

> <Gold.Chemscore.Hbond.Weighted>
-6.6495

> <Gold.Chemscore.Metal.Weighted>
-0.0000

> <Gold.Chemscore.Lipo.Weighted>
-11.1050

> <Gold.Chemscore.Internal_Hbond.Weighted>
0.0000

> <Gold.Chemscore.DEClash.Weighted>
0.8846

> <Gold.Chemscore.DEInternal.Weighted>
0.5119

> <Gold.Chemscore.Rot.Weighted>
3.7917

> <Gold.Chemscore.Internal.Correction.Weighted>
   9.000000E+99

> <Gold.Protein.RotatedTorsions>
[ 6907 6896 6895 6894 ] final  -50.70 input  -60.11 | X-H torsion
[ 7974 7965 7964 7962 ] final   24.14 input  175.53 | X-H torsion
[ 8008 7997 7996 7995 ] final  -31.44 input   59.86 | X-H torsion
[ 10167 10162 10161 10158 ] final  -37.73 input  -65.29 | X-H torsion
[ 10718 10713 10712 10709 ] final -179.54 input   66.30 | X-H torsion
[ 10763 10752 10751 10750 ] final  151.55 input  -60.55 | X-H torsion
[ 11005 11000 10999 10996 ] final  -10.89 input  -57.11 | X-H torsion

> <Gold.Protein.ActiveResidues>
 VAL166  LYS551  ARG553  GLY616  TRP617  ASP618  TYR619  PRO620  LYS621  CYS622 
 ASP623  PHE694  ASN695  SER759  ASP760  ASP761  ALA762  ILE779  LEU786  VAL792 
 PHE793  MET794  SER795  GLU796  ALA797  LYS798  CYS799  TRP800  GLU811  SER814 

> <Gold.Protein.RotatedAtoms>
  150.8682  134.8050  159.7134 H   0  0  0  0  0  0  0  0  0  0  0  0  # atno 6907 bound_to 6896
  152.4696  134.4990  159.9728 H   0  0  0  0  0  0  0  0  0  0  0  0  # atno 6908 bound_to 6896
  151.5083  133.3452  159.2916 H   0  0  0  0  0  0  0  0  0  0  0  0  # atno 6909 bound_to 6896
  146.1952  139.7646  142.8803 H   0  0  0  0  0  0  0  0  0  0  0  0  # atno 7974 bound_to 7965
  154.4214  140.1764  156.1567 H   0  0  0  0  0  0  0  0  0  0  0  0  # atno 8008 bound_to 7997
  155.9871  140.3372  155.6694 H   0  0  0  0  0  0  0  0  0  0  0  0  # atno 8009 bound_to 7997
  155.6422  140.0681  157.2605 H   0  0  0  0  0  0  0  0  0  0  0  0  # atno 8010 bound_to 7997
  140.7110  143.3322  151.2542 H   0  0  0  0  0  0  0  0  0  0  0  0  # atno 10167 bound_to 10162
  156.8607  130.9750  151.3083 H   0  0  0  0  0  0  0  0  0  0  0  0  # atno 10718 bound_to 10713
  154.1057  135.2842  155.3242 H   0  0  0  0  0  0  0  0  0  0  0  0  # atno 10763 bound_to 10752
  154.6525  135.5364  153.7922 H   0  0  0  0  0  0  0  0  0  0  0  0  # atno 10764 bound_to 10752
  153.0363  135.6513  154.1218 H   0  0  0  0  0  0  0  0  0  0  0  0  # atno 10765 bound_to 10752
  140.7495  133.8603  155.9033 H   0  0  0  0  0  0  0  0  0  0  0  0  # atno 11005 bound_to 11000
  145.3667  141.0335  143.3254 LP  0  0  0  0  0  0  0  0  0  0  0  0  # atno 17320 bound_to 7965
  144.8565  139.5242  143.6832 LP  0  0  0  0  0  0  0  0  0  0  0  0  # atno 17321 bound_to 7965
  139.6808  143.9858  152.2807 LP  0  0  0  0  0  0  0  0  0  0  0  0  # atno 17342 bound_to 10162
  139.9487  144.6634  150.8193 LP  0  0  0  0  0  0  0  0  0  0  0  0  # atno 17343 bound_to 10162
  157.6252  130.8686  149.9176 LP  0  0  0  0  0  0  0  0  0  0  0  0  # atno 17370 bound_to 10713
  156.0778  130.3676  150.0641 LP  0  0  0  0  0  0  0  0  0  0  0  0  # atno 17371 bound_to 10713
  140.9763  134.1464  157.4533 LP  0  0  0  0  0  0  0  0  0  0  0  0  # atno 17394 bound_to 11000
  139.8790  134.9996  156.5961 LP  0  0  0  0  0  0  0  0  0  0  0  0  # atno 17395 bound_to 11000

$$$$
