AV-unprocessed.smi:671|AV-procd|sdf|3274|dock5
  -GOLD-   22720 0233D 1   1.00000     0.00000
 Structure written by MMmdl.
 49 50  0  0  0  0  0  0  0  0  1 V2000
  146.4624  136.2903  154.6454 C   0  0  0  0  0  0  0  0  0  0  0  0
  147.8057  135.6307  154.7737 C   0  0  0  0  0  0  0  0  0  0  0  0
  148.0196  134.4720  154.1727 N   0  0  0  0  0  0  0  0  0  0  0  0
  149.2890  134.1482  154.4906 N   0  0  0  0  0  0  0  0  0  0  0  0
  149.8521  132.9077  153.9942 C   0  0  0  0  0  0  0  0  0  0  0  0
  149.8814  135.1090  155.2867 C   0  0  0  0  0  0  0  0  0  0  0  0
  151.2871  134.9830  155.7789 C   0  0  0  0  0  0  0  0  0  0  0  0
  148.9474  136.0881  155.4950 C   0  0  0  0  0  0  0  0  0  0  0  0
  149.0758  137.3506  156.3118 C   0  0  0  0  0  0  0  0  0  0  0  0
  150.3656  138.1301  155.9895 C   0  0  1  0  0  0  0  0  0  0  0  0
  150.3724  138.6584  154.5473 C   0  0  0  0  0  0  0  0  0  0  0  0
  150.5374  139.2386  156.9349 N   0  0  0  0  0  0  0  0  0  0  0  0
  151.6384  139.9717  157.1778 C   0  0  0  0  0  0  0  0  0  0  0  0
  152.6994  139.7610  156.5936 O   0  0  0  0  0  0  0  0  0  0  0  0
  151.4833  140.9265  158.1093 N   0  0  0  0  0  0  0  0  0  0  0  0
  152.5141  141.8699  158.5295 C   0  0  2  0  0  0  0  0  0  0  0  0
  153.3688  141.3066  159.6844 C   0  0  0  0  0  0  0  0  0  0  0  0
  153.1148  142.2131  160.8906 C   0  0  0  0  0  0  0  0  0  0  0  0
  152.7154  143.5534  160.2822 C   0  0  0  0  0  0  0  0  0  0  0  0
  151.8754  143.1687  159.0622 C   0  0  1  0  0  0  0  0  0  0  0  0
  151.7629  144.2818  158.0118 C   0  0  0  0  0  0  0  0  0  0  0  0
  146.0814  136.5915  155.6215 H   0  0  0  0  0  0  0  0  0  0  0  0
  145.7249  135.6230  154.1973 H   0  0  0  0  0  0  0  0  0  0  0  0
  146.5248  137.1828  154.0227 H   0  0  0  0  0  0  0  0  0  0  0  0
  150.2693  132.3364  154.8239 H   0  0  0  0  0  0  0  0  0  0  0  0
  150.6436  133.1263  153.2771 H   0  0  0  0  0  0  0  0  0  0  0  0
  149.0862  132.3058  153.5028 H   0  0  0  0  0  0  0  0  0  0  0  0
  151.6547  135.9323  156.1685 H   0  0  0  0  0  0  0  0  0  0  0  0
  151.9572  134.6732  154.9768 H   0  0  0  0  0  0  0  0  0  0  0  0
  151.3499  134.2452  156.5790 H   0  0  0  0  0  0  0  0  0  0  0  0
  148.2154  137.9993  156.1447 H   0  0  0  0  0  0  0  0  0  0  0  0
  149.0563  137.1176  157.3771 H   0  0  0  0  0  0  0  0  0  0  0  0
  151.1913  137.4251  156.0959 H   0  0  0  0  0  0  0  0  0  0  0  0
  150.2545  137.8444  153.8316 H   0  0  0  0  0  0  0  0  0  0  0  0
  151.3107  139.1640  154.3170 H   0  0  0  0  0  0  0  0  0  0  0  0
  149.5618  139.3686  154.3802 H   0  0  0  0  0  0  0  0  0  0  0  0
  149.7354  139.4395  157.5147 H   0  0  0  0  0  0  0  0  0  0  0  0
  150.5777  141.0187  158.5453 H   0  0  0  0  0  0  0  0  0  0  0  0
  153.1675  142.0988  157.6850 H   0  0  0  0  0  0  0  0  0  0  0  0
  153.1486  140.2636  159.9172 H   0  0  0  0  0  0  0  0  0  0  0  0
  154.4226  141.3543  159.4069 H   0  0  0  0  0  0  0  0  0  0  0  0
  152.2860  141.8174  161.4789 H   0  0  0  0  0  0  0  0  0  0  0  0
  153.9818  142.2916  161.5470 H   0  0  0  0  0  0  0  0  0  0  0  0
  152.1706  144.1851  160.9842 H   0  0  0  0  0  0  0  0  0  0  0  0
  153.6100  144.0941  159.9698 H   0  0  0  0  0  0  0  0  0  0  0  0
  150.8713  142.9439  159.4276 H   0  0  0  0  0  0  0  0  0  0  0  0
  152.7414  144.5565  157.6168 H   0  0  0  0  0  0  0  0  0  0  0  0
  151.3117  145.1773  158.4395 H   0  0  0  0  0  0  0  0  0  0  0  0
  151.1417  143.9650  157.1735 H   0  0  0  0  0  0  0  0  0  0  0  0
  1  2  1  0  0  0  0
  1 22  1  0  0  0  0
  1 23  1  0  0  0  0
  1 24  1  0  0  0  0
  2  8  1  0  0  0  0
  2  3  2  0  0  0  0
  3  4  1  0  0  0  0
  4  5  1  0  0  0  0
  4  6  1  0  0  0  0
  5 25  1  0  0  0  0
  5 26  1  0  0  0  0
  5 27  1  0  0  0  0
  6  7  1  0  0  0  0
  6  8  2  0  0  0  0
  7 28  1  0  0  0  0
  7 29  1  0  0  0  0
  7 30  1  0  0  0  0
  8  9  1  0  0  0  0
  9 10  1  0  0  0  0
  9 31  1  0  0  0  0
  9 32  1  0  0  0  0
 10 11  1  0  0  0  0
 10 12  1  0  0  0  0
 10 33  1  0  0  0  0
 11 34  1  0  0  0  0
 11 35  1  0  0  0  0
 11 36  1  0  0  0  0
 12 13  1  0  0  0  0
 12 37  1  0  0  0  0
 13 14  2  0  0  0  0
 13 15  1  0  0  0  0
 15 16  1  0  0  0  0
 15 38  1  0  0  0  0
 16 20  1  0  0  0  0
 16 17  1  0  0  0  0
 16 39  1  0  0  0  0
 17 18  1  0  0  0  0
 17 40  1  0  0  0  0
 17 41  1  0  0  0  0
 18 19  1  0  0  0  0
 18 42  1  0  0  0  0
 18 43  1  0  0  0  0
 19 20  1  0  0  0  0
 19 44  1  0  0  0  0
 19 45  1  0  0  0  0
 20 21  1  0  0  0  0
 20 46  1  0  0  0  0
 21 47  1  0  0  0  0
 21 48  1  0  0  0  0
 21 49  1  0  0  0  0
M  END
> <s_m_source_file>
AV-unprocessed.smi

> <i_m_source_file_index>
671

> <i_lp_mmshare_version>
43012

> <i_f3d_flags>
0

> <s_epik_input>
W0NIM11jMW5uKFtDSDNdKWMoW0NIM10pYzFbQ0gyXVtDQEhdKFtDSDNdKVtOSF1DKD1PKVtOSF1bQ0BASF0yW0NIMl1bQ0gyXVtDSDJdW0NASF0yW0NIM10=

> <s_epik_cmdline>
J2VwaWtfcHl0aG9uJywgJy1waCcsICc3LjAnLCAnLXRuJywgJzgnLCAnLW1hJywgJzIwMCcsICctbWV0YWxfYmluZGluZycsICctaW1hZScsICc8aW5maWxlLm1hZT4nLCAnLW9tYWUnLCAnPG91dGZpbGUubWFlPic=

> <r_lp_tautomer_probability>
1

> <r_epik_Ionization_Penalty>
0.0126855

> <r_epik_Ionization_Penalty_Charging>
0

> <r_epik_Ionization_Penalty_Neutral>
0.0126855

> <r_epik_State_Penalty>
0.00977547

> <r_epik_Charging_Adjusted_Penalty>
0.00977547

> <i_epik_Tot_Q>
0

> <i_epik_Tot_abs_Q>
0

> <r_epik_Metal_State_Penalty>
0.00957132

> <b_epik_Metal_Only>
0

> <s_lp_Force_Field>
OPLS_2005

> <r_lp_Energy>
23.179

> <b_lp_Chiralities_Consistent>
1

> <s_lp_Variant>
AV-unprocessed.smi:671-2

> <Gold.Version>
5.8.1

> <Gold.Id.Protein>
6NUR|6NUR_protein|mol2

> <Gold.PLP.Fitness>
37.6942

> <Gold.PLP.PLP>
-36.0052

> <Gold.PLP.part.hbond>
-1.0000

> <Gold.PLP.part.metal>
0.0000

> <Gold.PLP.part.buried>
-3.9075

> <Gold.PLP.part.nonpolar>
-31.0593

> <Gold.PLP.part.repulsive>
0.9514

> <Gold.PLP.ligand.clash>
0.0000

> <Gold.PLP.ligand.torsion>
0.6725

> <Gold.PLP.Chemscore.Hbond>
1.0000

> <Gold.PLP.Chemscore.CHOScore>
0.0000

> <Gold.PLP.Chemscore.Metal>
0.0000

> <Gold.Chemscore.Hbonds>
donor molecule, donor type, donor heavy atom, donor atom, acceptor molecule, acceptor atom, score
      P1  H  7997  8008       L1    14  1.00

> <Gold.PLP.Chemscore.Internal.Correction>
0.0341

> <Gold.Rescore>
     Score         DG    S(hbond)    S(metal)    S(lipo)     H(rot)  DE(clash)    DE(int)     intcor
     16.54     -17.25       0.99        0.00     104.11       1.45       0.11       0.60       ----

> <Gold.Chemscore.Fitness>
16.5356

> <Gold.Chemscore.DG>
-17.2469

> <Gold.Chemscore.ZeroCoef>
-5.4800

> <Gold.Chemscore.Hbond>
0.9874

> <Gold.Chemscore.Metal>
0.0000

> <Gold.Chemscore.Lipo>
104.1083

> <Gold.Chemscore.Internal_Hbond>
0.0000

> <Gold.Chemscore.DEClash>
0.1095

> <Gold.Chemscore.DEInternal>
0.6018

> <Gold.Chemscore.Rot>
1.4499

> <Gold.Chemscore.Internal.Correction>
   9.000000E+99

> <Gold.Chemscore.Hbonds>
donor molecule, donor type, donor heavy atom, donor atom, acceptor molecule, acceptor atom, score
      P1  H  7997  8008       L1    14  1.00

> <Gold.Chemscore.Hbond.Weighted>
-3.2980

> <Gold.Chemscore.Metal.Weighted>
-0.0000

> <Gold.Chemscore.Lipo.Weighted>
-12.1807

> <Gold.Chemscore.Internal_Hbond.Weighted>
0.0000

> <Gold.Chemscore.DEClash.Weighted>
0.1095

> <Gold.Chemscore.DEInternal.Weighted>
0.6018

> <Gold.Chemscore.Rot.Weighted>
3.7118

> <Gold.Chemscore.Internal.Correction.Weighted>
   9.000000E+99

> <Gold.Protein.RotatedTorsions>
[ 6907 6896 6895 6894 ] final  143.27 input  -60.11 | X-H torsion
[ 7974 7965 7964 7962 ] final  167.82 input  175.53 | X-H torsion
[ 8008 7997 7996 7995 ] final  -54.01 input   59.86 | X-H torsion
[ 10167 10162 10161 10158 ] final    9.28 input  -65.29 | X-H torsion
[ 10718 10713 10712 10709 ] final -144.93 input   66.30 | X-H torsion
[ 10763 10752 10751 10750 ] final  -58.48 input  -60.55 | X-H torsion
[ 11005 11000 10999 10996 ] final -177.31 input  -57.11 | X-H torsion

> <Gold.Protein.ActiveResidues>
 VAL166  LYS551  ARG553  GLY616  TRP617  ASP618  TYR619  PRO620  LYS621  CYS622 
 ASP623  PHE694  ASN695  SER759  ASP760  ASP761  ALA762  ILE779  LEU786  VAL792 
 PHE793  MET794  SER795  GLU796  ALA797  LYS798  CYS799  TRP800  GLU811  SER814 

> <Gold.Protein.RotatedAtoms>
  152.2084  133.4893  159.5096 H   0  0  0  0  0  0  0  0  0  0  0  0  # atno 6907 bound_to 6896
  150.6985  134.1499  159.4145 H   0  0  0  0  0  0  0  0  0  0  0  0  # atno 6908 bound_to 6896
  151.9418  135.0209  160.0587 H   0  0  0  0  0  0  0  0  0  0  0  0  # atno 6909 bound_to 6896
  144.7410  139.8816  143.6396 H   0  0  0  0  0  0  0  0  0  0  0  0  # atno 7974 bound_to 7965
  154.4150  140.1186  156.5246 H   0  0  0  0  0  0  0  0  0  0  0  0  # atno 8008 bound_to 7997
  155.6668  140.3496  155.4784 H   0  0  0  0  0  0  0  0  0  0  0  0  # atno 8009 bound_to 7997
  155.9667  140.1133  157.0838 H   0  0  0  0  0  0  0  0  0  0  0  0  # atno 8010 bound_to 7997
  140.6264  143.8091  150.7239 H   0  0  0  0  0  0  0  0  0  0  0  0  # atno 10167 bound_to 10162
  156.3762  130.7813  151.2000 H   0  0  0  0  0  0  0  0  0  0  0  0  # atno 10718 bound_to 10713
  154.2387  135.6347  153.5200 H   0  0  0  0  0  0  0  0  0  0  0  0  # atno 10763 bound_to 10752
  152.9934  135.5537  154.5933 H   0  0  0  0  0  0  0  0  0  0  0  0  # atno 10764 bound_to 10752
  154.5434  135.2896  155.1049 H   0  0  0  0  0  0  0  0  0  0  0  0  # atno 10765 bound_to 10752
  140.4424  134.6419  157.4763 H   0  0  0  0  0  0  0  0  0  0  0  0  # atno 11005 bound_to 11000
  146.1207  139.4224  143.0230 LP  0  0  0  0  0  0  0  0  0  0  0  0  # atno 17320 bound_to 7965
  145.7309  141.0042  143.1352 LP  0  0  0  0  0  0  0  0  0  0  0  0  # atno 17321 bound_to 7965
  140.1693  143.4208  152.2012 LP  0  0  0  0  0  0  0  0  0  0  0  0  # atno 17342 bound_to 10162
  139.5484  144.7317  151.4511 LP  0  0  0  0  0  0  0  0  0  0  0  0  # atno 17343 bound_to 10162
  157.7488  131.0358  150.4378 LP  0  0  0  0  0  0  0  0  0  0  0  0  # atno 17370 bound_to 10713
  156.4614  130.4032  149.6574 LP  0  0  0  0  0  0  0  0  0  0  0  0  # atno 17371 bound_to 10713
  140.0061  134.6761  155.9453 LP  0  0  0  0  0  0  0  0  0  0  0  0  # atno 17394 bound_to 11000
  141.1700  133.6537  156.4617 LP  0  0  0  0  0  0  0  0  0  0  0  0  # atno 17395 bound_to 11000

$$$$
