AV-unprocessed.smi:311|AV-procd|sdf|2297|dock3
  -GOLD-   2262022193D 1   1.00000     0.00000
 Structure written by MMmdl.
 44 46  0  0  0  0  0  0  0  0  2 V2000
  153.1977  138.5550  154.5870 C   0  0  0  0  0  0  0  0  0  0  0  0
  152.3456  138.3263  155.8026 C   0  0  0  0  0  0  0  0  0  0  0  0
  152.8131  138.6400  156.9992 N   0  0  0  0  0  0  0  0  0  0  0  0
  151.8037  138.3025  157.9058 O   0  0  0  0  0  0  0  0  0  0  0  0
  150.7550  137.7931  157.2109 C   0  0  0  0  0  0  0  0  0  0  0  0
  149.5729  137.3578  158.0092 C   0  0  0  0  0  0  0  0  0  0  0  0
  151.0321  137.7798  155.8711 C   0  0  0  0  0  0  0  0  0  0  0  0
  150.1729  137.2933  154.7329 C   0  0  0  0  0  0  0  0  0  0  0  0
  149.7128  135.8680  155.0314 C   0  0  0  0  0  0  0  0  0  0  0  0
  149.9278  135.3702  156.1363 O   0  0  0  0  0  0  0  0  0  0  0  0
  149.0515  135.2368  154.0492 N   0  0  0  0  0  0  0  0  0  0  0  0
  148.4262  133.9240  154.1653 C   0  0  2  0  0  0  0  0  0  0  0  0
  149.4165  132.8077  154.4755 C   0  0  0  0  0  0  0  0  0  0  0  0
  148.6410  131.5630  154.0404 C   0  0  0  0  0  0  0  0  0  0  0  0
  147.8381  131.9779  152.8679 N   0  3  1  0  0  0  0  0  0  0  0  0
  146.5311  131.2895  152.7329 C   0  0  0  0  0  0  0  0  0  0  0  0
  145.7836  131.7950  151.4856 C   0  0  0  0  0  0  0  0  0  0  0  0
  145.6610  133.3327  151.4386 C   0  0  0  0  0  0  0  0  0  0  0  0
  146.3594  134.0173  152.6247 C   0  0  0  0  0  0  0  0  0  0  0  0
  147.7872  133.4672  152.8420 C   0  0  1  0  0  0  0  0  0  0  0  0
  153.4737  137.6077  154.1236 H   0  0  0  0  0  0  0  0  0  0  0  0
  154.1188  139.0859  154.8312 H   0  0  0  0  0  0  0  0  0  0  0  0
  152.6644  139.1457  153.8423 H   0  0  0  0  0  0  0  0  0  0  0  0
  148.6472  137.5343  157.4616 H   0  0  0  0  0  0  0  0  0  0  0  0
  149.5149  137.9028  158.9518 H   0  0  0  0  0  0  0  0  0  0  0  0
  149.6340  136.2935  158.2368 H   0  0  0  0  0  0  0  0  0  0  0  0
  149.3063  137.9384  154.5824 H   0  0  0  0  0  0  0  0  0  0  0  0
  150.7191  137.2961  153.7891 H   0  0  0  0  0  0  0  0  0  0  0  0
  148.9324  135.7245  153.1728 H   0  0  0  0  0  0  0  0  0  0  0  0
  147.6743  133.9290  154.9577 H   0  0  0  0  0  0  0  0  0  0  0  0
  150.3191  132.9161  153.8719 H   0  0  0  0  0  0  0  0  0  0  0  0
  149.7101  132.7777  155.5253 H   0  0  0  0  0  0  0  0  0  0  0  0
  149.2944  130.7238  153.8009 H   0  0  0  0  0  0  0  0  0  0  0  0
  147.9799  131.2507  154.8506 H   0  0  0  0  0  0  0  0  0  0  0  0
  146.6944  130.2138  152.6606 H   0  0  0  0  0  0  0  0  0  0  0  0
  145.9285  131.4570  153.6272 H   0  0  0  0  0  0  0  0  0  0  0  0
  146.3080  131.4530  150.5922 H   0  0  0  0  0  0  0  0  0  0  0  0
  144.7930  131.3411  151.4427 H   0  0  0  0  0  0  0  0  0  0  0  0
  146.0947  133.6976  150.5069 H   0  0  0  0  0  0  0  0  0  0  0  0
  144.6105  133.6246  151.4161 H   0  0  0  0  0  0  0  0  0  0  0  0
  146.3917  135.0949  152.4614 H   0  0  0  0  0  0  0  0  0  0  0  0
  145.7623  133.8685  153.5256 H   0  0  0  0  0  0  0  0  0  0  0  0
  148.4180  133.7747  152.0060 H   0  0  0  0  0  0  0  0  0  0  0  0
  148.3745  131.7191  152.0522 H   0  0  0  0  0  0  0  0  0  0  0  0
  1  2  1  0  0  0  0
  1 21  1  0  0  0  0
  1 22  1  0  0  0  0
  1 23  1  0  0  0  0
  2  7  1  0  0  0  0
  2  3  2  0  0  0  0
  3  4  1  0  0  0  0
  4  5  1  0  0  0  0
  5  6  1  0  0  0  0
  5  7  2  0  0  0  0
  6 24  1  0  0  0  0
  6 25  1  0  0  0  0
  6 26  1  0  0  0  0
  7  8  1  0  0  0  0
  8  9  1  0  0  0  0
  8 27  1  0  0  0  0
  8 28  1  0  0  0  0
  9 10  2  0  0  0  0
  9 11  1  0  0  0  0
 11 12  1  0  0  0  0
 11 29  1  0  0  0  0
 12 20  1  0  0  0  0
 12 13  1  0  0  0  0
 12 30  1  0  0  0  0
 13 14  1  0  0  0  0
 13 31  1  0  0  0  0
 13 32  1  0  0  0  0
 14 15  1  0  0  0  0
 14 33  1  0  0  0  0
 14 34  1  0  0  0  0
 15 20  1  0  0  0  0
 15 16  1  0  0  0  0
 15 44  1  0  0  0  0
 16 17  1  0  0  0  0
 16 35  1  0  0  0  0
 16 36  1  0  0  0  0
 17 18  1  0  0  0  0
 17 37  1  0  0  0  0
 17 38  1  0  0  0  0
 18 19  1  0  0  0  0
 18 39  1  0  0  0  0
 18 40  1  0  0  0  0
 19 20  1  0  0  0  0
 19 41  1  0  0  0  0
 19 42  1  0  0  0  0
 20 43  1  0  0  0  0
M  CHG  1  15   1
M  END
> <s_m_source_file>
AV-unprocessed.smi

> <i_m_source_file_index>
311

> <i_lp_mmshare_version>
43012

> <i_f3d_flags>
0

> <s_epik_input>
W0NIM11jMW5vYyhbQ0gzXSljMVtDSDJdQyg9TylbTkhdW0NASF0oW0NIMl1bQ0gyXTIpW0NAQEhdKE4yMylbQ0gyXVtDSDJdW0NIMl1bQ0gyXTM=

> <s_epik_cmdline>
J2VwaWtfcHl0aG9uJywgJy1waCcsICc3LjAnLCAnLXRuJywgJzgnLCAnLW1hJywgJzIwMCcsICctbWV0YWxfYmluZGluZycsICctaW1hZScsICc8aW5maWxlLm1hZT4nLCAnLW9tYWUnLCAnPG91dGZpbGUubWFlPic=

> <r_epik_Ionization_Penalty>
0.00173669

> <r_epik_Ionization_Penalty_Charging>
0.0017366

> <r_epik_Ionization_Penalty_Neutral>
9.2145e-08

> <r_epik_State_Penalty>
0.00117499

> <r_epik_Charging_Adjusted_Penalty>
0.00291159

> <i_epik_Tot_Q>
1

> <i_epik_Tot_abs_Q>
1

> <r_epik_Metal_State_Penalty>
-0

> <b_epik_Metal_Only>
0

> <s_lp_Force_Field>
OPLS_2005

> <r_lp_Energy>
32.9133

> <b_lp_Chiralities_Consistent>
1

> <s_lp_Variant>
AV-unprocessed.smi:311-1

> <Gold.Version>
5.8.1

> <Gold.Id.Protein>
6NUR|6NUR_protein|mol2

> <Gold.PLP.Fitness>
39.5683

> <Gold.PLP.PLP>
-30.8016

> <Gold.PLP.part.hbond>
-3.2257

> <Gold.PLP.part.metal>
0.0000

> <Gold.PLP.part.buried>
-2.5655

> <Gold.PLP.part.nonpolar>
-24.1807

> <Gold.PLP.part.repulsive>
0.0563

> <Gold.PLP.ligand.clash>
0.0000

> <Gold.PLP.ligand.torsion>
0.1099

> <Gold.PLP.Chemscore.Hbond>
2.9913

> <Gold.PLP.Chemscore.CHOScore>
0.0000

> <Gold.PLP.Chemscore.Metal>
0.0000

> <Gold.Chemscore.Hbonds>
donor molecule, donor type, donor heavy atom, donor atom, acceptor molecule, acceptor atom, score
      L1  H    11    29       P1  7948  0.63
      L1  H    15    44       P1 10747  0.94
      P1  H  7997  8008       L1     3  0.70

> <Gold.PLP.Chemscore.Internal.Correction>
0.0126

> <Gold.Rescore>
     Score         DG    S(hbond)    S(metal)    S(lipo)     H(rot)  DE(clash)    DE(int)     intcor
     18.71     -19.99       2.67        0.00      77.48       1.36       0.07       1.21       ----

> <Gold.Chemscore.Fitness>
18.7060

> <Gold.Chemscore.DG>
-19.9908

> <Gold.Chemscore.ZeroCoef>
-5.4800

> <Gold.Chemscore.Hbond>
2.6703

> <Gold.Chemscore.Metal>
0.0000

> <Gold.Chemscore.Lipo>
77.4794

> <Gold.Chemscore.Internal_Hbond>
0.0000

> <Gold.Chemscore.DEClash>
0.0713

> <Gold.Chemscore.DEInternal>
1.2136

> <Gold.Chemscore.Rot>
1.3567

> <Gold.Chemscore.Internal.Correction>
   9.000000E+99

> <Gold.Chemscore.Hbonds>
donor molecule, donor type, donor heavy atom, donor atom, acceptor molecule, acceptor atom, score
      L1  H    11    29       P1  7948  0.53
      L1  H    15    44       P1 10747  0.90
      P1  H  7997  8008       L1     3  0.34

> <Gold.Chemscore.Hbond.Weighted>
-8.9188

> <Gold.Chemscore.Metal.Weighted>
-0.0000

> <Gold.Chemscore.Lipo.Weighted>
-9.0651

> <Gold.Chemscore.Internal_Hbond.Weighted>
0.0000

> <Gold.Chemscore.DEClash.Weighted>
0.0713

> <Gold.Chemscore.DEInternal.Weighted>
1.2136

> <Gold.Chemscore.Rot.Weighted>
3.4731

> <Gold.Chemscore.Internal.Correction.Weighted>
   9.000000E+99

> <Gold.Protein.RotatedTorsions>
[ 6907 6896 6895 6894 ] final  174.80 input  -60.11 | X-H torsion
[ 7974 7965 7964 7962 ] final   24.04 input  175.53 | X-H torsion
[ 8008 7997 7996 7995 ] final  -58.57 input   59.86 | X-H torsion
[ 10167 10162 10161 10158 ] final  111.34 input  -65.29 | X-H torsion
[ 10718 10713 10712 10709 ] final   78.77 input   66.30 | X-H torsion
[ 10763 10752 10751 10750 ] final   57.97 input  -60.55 | X-H torsion
[ 11005 11000 10999 10996 ] final  -51.65 input  -57.11 | X-H torsion

> <Gold.Protein.ActiveResidues>
 VAL166  LYS551  ARG553  GLY616  TRP617  ASP618  TYR619  PRO620  LYS621  CYS622 
 ASP623  PHE694  ASN695  SER759  ASP760  ASP761  ALA762  ILE779  LEU786  VAL792 
 PHE793  MET794  SER795  GLU796  ALA797  LYS798  CYS799  TRP800  GLU811  SER814 

> <Gold.Protein.RotatedAtoms>
  151.7464  133.3325  159.3379 H   0  0  0  0  0  0  0  0  0  0  0  0  # atno 6907 bound_to 6896
  150.7553  134.6232  159.6156 H   0  0  0  0  0  0  0  0  0  0  0  0  # atno 6908 bound_to 6896
  152.3497  134.7024  160.0291 H   0  0  0  0  0  0  0  0  0  0  0  0  # atno 6909 bound_to 6896
  146.1956  139.7659  142.8800 H   0  0  0  0  0  0  0  0  0  0  0  0  # atno 7974 bound_to 7965
  154.4315  140.1081  156.5978 H   0  0  0  0  0  0  0  0  0  0  0  0  # atno 8008 bound_to 7997
  155.5943  140.3492  155.4556 H   0  0  0  0  0  0  0  0  0  0  0  0  # atno 8009 bound_to 7997
  156.0222  140.1242  157.0334 H   0  0  0  0  0  0  0  0  0  0  0  0  # atno 8010 bound_to 7997
  139.6618  144.7128  151.1850 H   0  0  0  0  0  0  0  0  0  0  0  0  # atno 10167 bound_to 10162
  157.6755  130.9883  150.1835 H   0  0  0  0  0  0  0  0  0  0  0  0  # atno 10718 bound_to 10713
  152.9861  135.5623  154.5477 H   0  0  0  0  0  0  0  0  0  0  0  0  # atno 10763 bound_to 10752
  154.4920  135.2793  155.1491 H   0  0  0  0  0  0  0  0  0  0  0  0  # atno 10764 bound_to 10752
  154.2957  135.6317  153.5457 H   0  0  0  0  0  0  0  0  0  0  0  0  # atno 10765 bound_to 10752
  141.0882  133.6638  156.3908 H   0  0  0  0  0  0  0  0  0  0  0  0  # atno 11005 bound_to 11000
  145.3654  141.0333  143.3261 LP  0  0  0  0  0  0  0  0  0  0  0  0  # atno 17320 bound_to 7965
  144.8574  139.5229  143.6828 LP  0  0  0  0  0  0  0  0  0  0  0  0  # atno 17321 bound_to 7965
  140.7583  143.5982  150.8727 LP  0  0  0  0  0  0  0  0  0  0  0  0  # atno 17342 bound_to 10162
  139.9640  143.6132  152.2994 LP  0  0  0  0  0  0  0  0  0  0  0  0  # atno 17343 bound_to 10162
  156.2562  130.3706  149.8179 LP  0  0  0  0  0  0  0  0  0  0  0  0  # atno 17370 bound_to 10713
  156.5937  130.8517  151.3414 LP  0  0  0  0  0  0  0  0  0  0  0  0  # atno 17371 bound_to 10713
  140.5313  134.6210  157.5351 LP  0  0  0  0  0  0  0  0  0  0  0  0  # atno 17394 bound_to 11000
  139.9704  134.7303  156.0053 LP  0  0  0  0  0  0  0  0  0  0  0  0  # atno 17395 bound_to 11000

$$$$
