AV-unprocessed.smi:3104|AV-procd|sdf|11818|dock1
  -GOLD-   2272017193D 1   1.00000     0.00000
 Structure written by MMmdl.
 37 38  0  0  0  0  0  0  0  0  2 V2000
  149.4811  136.0558  155.4326 C   0  0  0  0  0  0  0  0  0  0  0  0
  149.9240  137.4660  155.1695 C   0  0  0  0  0  0  0  0  0  0  0  0
  151.0054  137.9064  154.3552 C   0  0  0  0  0  0  0  0  0  0  0  0
  151.1288  139.2233  154.3334 N   0  0  0  0  0  0  0  0  0  0  0  0
  150.1331  139.6722  155.1273 N   0  0  0  0  0  0  0  0  0  0  0  0
  149.9711  141.1046  155.3430 C   0  0  1  0  0  0  0  0  0  0  0  0
  148.6008  141.5597  154.8083 C   0  0  0  0  0  0  0  0  0  0  0  0
  150.2054  141.4946  156.8268 C   0  0  1  0  0  0  0  0  0  0  0  0
  151.4380  140.8115  157.4467 C   0  0  0  0  0  0  0  0  0  0  0  0
  150.3590  142.9610  156.9558 N   0  3  0  0  0  0  0  0  0  0  0  0
  150.2695  143.4749  158.3370 C   0  0  0  0  0  0  0  0  0  0  0  0
  151.6448  143.6266  158.9515 C   0  0  0  0  0  0  0  0  0  0  0  0
  151.9832  144.8607  159.7554 C   0  0  0  0  0  0  0  0  0  0  0  0
  152.6288  144.6387  158.4104 C   0  0  0  0  0  0  0  0  0  0  0  0
  149.3924  138.6297  155.6475 C   0  0  0  0  0  0  0  0  0  0  0  0
  150.0964  135.3310  154.8990 H   0  0  0  0  0  0  0  0  0  0  0  0
  148.4498  135.8937  155.1185 H   0  0  0  0  0  0  0  0  0  0  0  0
  149.5385  135.8070  156.4923 H   0  0  0  0  0  0  0  0  0  0  0  0
  151.7008  137.3105  153.7823 H   0  0  0  0  0  0  0  0  0  0  0  0
  150.7329  141.6079  154.7440 H   0  0  0  0  0  0  0  0  0  0  0  0
  148.5068  142.6456  154.8193 H   0  0  0  0  0  0  0  0  0  0  0  0
  147.7828  141.1489  155.4008 H   0  0  0  0  0  0  0  0  0  0  0  0
  148.4577  141.2369  153.7764 H   0  0  0  0  0  0  0  0  0  0  0  0
  149.3401  141.1737  157.4097 H   0  0  0  0  0  0  0  0  0  0  0  0
  151.3292  139.7271  157.4777 H   0  0  0  0  0  0  0  0  0  0  0  0
  151.5940  141.1443  158.4734 H   0  0  0  0  0  0  0  0  0  0  0  0
  152.3431  141.0391  156.8822 H   0  0  0  0  0  0  0  0  0  0  0  0
  151.2624  143.2193  156.5848 H   0  0  0  0  0  0  0  0  0  0  0  0
  149.7539  144.4359  158.3519 H   0  0  0  0  0  0  0  0  0  0  0  0
  149.6857  142.7806  158.9423 H   0  0  0  0  0  0  0  0  0  0  0  0
  152.0634  142.6973  159.3340 H   0  0  0  0  0  0  0  0  0  0  0  0
  151.2291  145.6423  159.8277 H   0  0  0  0  0  0  0  0  0  0  0  0
  152.6060  144.7312  160.6384 H   0  0  0  0  0  0  0  0  0  0  0  0
  153.6807  144.3603  158.3976 H   0  0  0  0  0  0  0  0  0  0  0  0
  152.3056  145.2740  157.5879 H   0  0  0  0  0  0  0  0  0  0  0  0
  148.5554  138.7995  156.3087 H   0  0  0  0  0  0  0  0  0  0  0  0
  149.6452  143.4055  156.3960 H   0  0  0  0  0  0  0  0  0  0  0  0
  1  2  1  0  0  0  0
  1 16  1  0  0  0  0
  1 17  1  0  0  0  0
  1 18  1  0  0  0  0
  2 15  2  0  0  0  0
  2  3  1  0  0  0  0
  3  4  2  0  0  0  0
  3 19  1  0  0  0  0
  4  5  1  0  0  0  0
  5  6  1  0  0  0  0
  5 15  1  0  0  0  0
  6  7  1  0  0  0  0
  6  8  1  0  0  0  0
  6 20  1  0  0  0  0
  7 21  1  0  0  0  0
  7 22  1  0  0  0  0
  7 23  1  0  0  0  0
  8  9  1  0  0  0  0
  8 10  1  0  0  0  0
  8 24  1  0  0  0  0
  9 25  1  0  0  0  0
  9 26  1  0  0  0  0
  9 27  1  0  0  0  0
 10 11  1  0  0  0  0
 10 28  1  0  0  0  0
 10 37  1  0  0  0  0
 11 12  1  0  0  0  0
 11 29  1  0  0  0  0
 11 30  1  0  0  0  0
 12 14  1  0  0  0  0
 12 13  1  0  0  0  0
 12 31  1  0  0  0  0
 13 14  1  0  0  0  0
 13 32  1  0  0  0  0
 13 33  1  0  0  0  0
 14 34  1  0  0  0  0
 14 35  1  0  0  0  0
 15 36  1  0  0  0  0
M  CHG  1  10   1
M  END
> <s_m_source_file>
AV-unprocessed.smi

> <i_m_source_file_index>
3104

> <i_lp_mmshare_version>
43012

> <i_f3d_flags>
0

> <s_epik_input>
W0NIM11jMVtjSF1ubihbY0hdMSlbQ0BIXShbQ0gzXSlbQ0BIXShbQ0gzXSlbTkhdW0NIMl1bQ0hdMltDSDJdW0NIMl0y

> <s_epik_cmdline>
J2VwaWtfcHl0aG9uJywgJy1waCcsICc3LjAnLCAnLXRuJywgJzgnLCAnLW1hJywgJzIwMCcsICctbWV0YWxfYmluZGluZycsICctaW1hZScsICc8aW5maWxlLm1hZT4nLCAnLW9tYWUnLCAnPG91dGZpbGUubWFlPic=

> <r_lp_tautomer_probability>
1

> <r_epik_Ionization_Penalty>
0.00120445

> <r_epik_Ionization_Penalty_Charging>
0.00118273

> <r_epik_Ionization_Penalty_Neutral>
2.17265e-05

> <r_epik_State_Penalty>
-0

> <r_epik_Charging_Adjusted_Penalty>
0.00118273

> <i_epik_Tot_Q>
1

> <i_epik_Tot_abs_Q>
1

> <r_epik_Metal_State_Penalty>
-0

> <b_epik_Metal_Only>
0

> <s_lp_Force_Field>
OPLS_2005

> <r_lp_Energy>
22.3414

> <b_lp_Chiralities_Consistent>
1

> <s_lp_Variant>
AV-unprocessed.smi:3104-4

> <Gold.Version>
5.8.1

> <Gold.Id.Protein>
6NUR|6NUR_protein|mol2

> <Gold.PLP.Fitness>
44.8855

> <Gold.PLP.PLP>
-33.7979

> <Gold.PLP.part.hbond>
-2.0000

> <Gold.PLP.part.metal>
0.0000

> <Gold.PLP.part.buried>
-2.4727

> <Gold.PLP.part.nonpolar>
-29.4726

> <Gold.PLP.part.repulsive>
0.2055

> <Gold.PLP.ligand.clash>
0.0000

> <Gold.PLP.ligand.torsion>
0.8030

> <Gold.PLP.Chemscore.Hbond>
3.0000

> <Gold.PLP.Chemscore.CHOScore>
0.9834

> <Gold.PLP.Chemscore.Metal>
0.0000

> <Gold.Chemscore.Hbonds>
donor molecule, donor type, donor heavy atom, donor atom, acceptor molecule, acceptor atom, score
      L1  H    10    37       P1  8028  2.00
      P1  H  7989  7998       L1     4  1.00
      L1  C     3    19       P1  7949  0.54

> <Gold.PLP.Chemscore.Internal.Correction>
0.7432

> <Gold.Rescore>
     Score         DG    S(hbond)    S(metal)    S(lipo)     H(rot)  DE(clash)    DE(int)     intcor
     16.63     -17.40       1.55        0.00      90.16       1.49       0.04       0.73       ----

> <Gold.Chemscore.Fitness>
16.6277

> <Gold.Chemscore.DG>
-17.3978

> <Gold.Chemscore.ZeroCoef>
-5.4800

> <Gold.Chemscore.Hbond>
1.5536

> <Gold.Chemscore.Metal>
0.0000

> <Gold.Chemscore.Lipo>
90.1631

> <Gold.Chemscore.Internal_Hbond>
0.0000

> <Gold.Chemscore.DEClash>
0.0424

> <Gold.Chemscore.DEInternal>
0.7277

> <Gold.Chemscore.Rot>
1.4923

> <Gold.Chemscore.Internal.Correction>
   9.000000E+99

> <Gold.Chemscore.Hbonds>
donor molecule, donor type, donor heavy atom, donor atom, acceptor molecule, acceptor atom, score
      L1  H    10    37       P1  8028  0.98
      P1  H  7989  7998       L1     4  0.25

> <Gold.Chemscore.Hbond.Weighted>
-5.1891

> <Gold.Chemscore.Metal.Weighted>
-0.0000

> <Gold.Chemscore.Lipo.Weighted>
-10.5491

> <Gold.Chemscore.Internal_Hbond.Weighted>
0.0000

> <Gold.Chemscore.DEClash.Weighted>
0.0424

> <Gold.Chemscore.DEInternal.Weighted>
0.7277

> <Gold.Chemscore.Rot.Weighted>
3.8204

> <Gold.Chemscore.Internal.Correction.Weighted>
   9.000000E+99

> <Gold.Protein.RotatedTorsions>
[ 6907 6896 6895 6894 ] final  150.20 input  -60.11 | X-H torsion
[ 7974 7965 7964 7962 ] final  106.07 input  175.53 | X-H torsion
[ 8008 7997 7996 7995 ] final  138.48 input   59.86 | X-H torsion
[ 10167 10162 10161 10158 ] final -178.98 input  -65.29 | X-H torsion
[ 10718 10713 10712 10709 ] final -118.39 input   66.30 | X-H torsion
[ 10763 10752 10751 10750 ] final  107.30 input  -60.55 | X-H torsion
[ 11005 11000 10999 10996 ] final  -32.41 input  -57.11 | X-H torsion

> <Gold.Protein.ActiveResidues>
 VAL166  LYS551  ARG553  GLY616  TRP617  ASP618  TYR619  PRO620  LYS621  CYS622 
 ASP623  PHE694  ASN695  SER759  ASP760  ASP761  ALA762  ILE779  LEU786  VAL792 
 PHE793  MET794  SER795  GLU796  ALA797  LYS798  CYS799  TRP800  GLU811  SER814 

> <Gold.Protein.RotatedAtoms>
  152.1176  133.4335  159.4659 H   0  0  0  0  0  0  0  0  0  0  0  0  # atno 6907 bound_to 6896
  150.6870  134.2573  159.4544 H   0  0  0  0  0  0  0  0  0  0  0  0  # atno 6908 bound_to 6896
  152.0447  134.9689  160.0625 H   0  0  0  0  0  0  0  0  0  0  0  0  # atno 6909 bound_to 6896
  145.3115  139.2539  143.3760 H   0  0  0  0  0  0  0  0  0  0  0  0  # atno 7974 bound_to 7965
  156.2997  140.2392  156.4080 H   0  0  0  0  0  0  0  0  0  0  0  0  # atno 8008 bound_to 7997
  154.8466  140.0426  157.1597 H   0  0  0  0  0  0  0  0  0  0  0  0  # atno 8009 bound_to 7997
  154.9044  140.2981  155.5304 H   0  0  0  0  0  0  0  0  0  0  0  0  # atno 8010 bound_to 7997
  139.5407  144.2371  152.0889 H   0  0  0  0  0  0  0  0  0  0  0  0  # atno 10167 bound_to 10162
  156.1103  130.6243  150.9285 H   0  0  0  0  0  0  0  0  0  0  0  0  # atno 10718 bound_to 10713
  153.4049  135.3849  155.2012 H   0  0  0  0  0  0  0  0  0  0  0  0  # atno 10763 bound_to 10752
  154.8733  135.3780  154.4573 H   0  0  0  0  0  0  0  0  0  0  0  0  # atno 10764 bound_to 10752
  153.5074  135.7087  153.5861 H   0  0  0  0  0  0  0  0  0  0  0  0  # atno 10765 bound_to 10752
  140.9549  133.7198  156.1278 H   0  0  0  0  0  0  0  0  0  0  0  0  # atno 11005 bound_to 11000
  146.3116  140.3652  142.8668 LP  0  0  0  0  0  0  0  0  0  0  0  0  # atno 17320 bound_to 7965
  144.9012  140.7645  143.5866 LP  0  0  0  0  0  0  0  0  0  0  0  0  # atno 17321 bound_to 7965
  140.1849  144.4808  150.6509 LP  0  0  0  0  0  0  0  0  0  0  0  0  # atno 17342 bound_to 10162
  140.6635  143.2260  151.5798 LP  0  0  0  0  0  0  0  0  0  0  0  0  # atno 17343 bound_to 10162
  157.6284  131.0923  150.8490 LP  0  0  0  0  0  0  0  0  0  0  0  0  # atno 17370 bound_to 10713
  156.8602  130.5110  149.5304 LP  0  0  0  0  0  0  0  0  0  0  0  0  # atno 17371 bound_to 10713
  140.7550  134.4003  157.5535 LP  0  0  0  0  0  0  0  0  0  0  0  0  # atno 17394 bound_to 11000
  139.8859  134.8924  156.2615 LP  0  0  0  0  0  0  0  0  0  0  0  0  # atno 17395 bound_to 11000

$$$$
