AV-unprocessed.smi:2675|AV-procd|sdf|10363|dock8
  -GOLD-   2272014393D 1   1.00000     0.00000
 Structure written by MMmdl.
 36 37  0  0  0  0  0  0  0  0  1 V2000
  152.8644  143.5375  162.3091 C   0  0  0  0  0  0  0  0  0  0  0  0
  152.2968  143.8892  160.9680 C   0  0  0  0  0  0  0  0  0  0  0  0
  151.3710  144.9221  160.8413 N   0  0  0  0  0  0  0  0  0  0  0  0
  151.0976  144.9465  159.5452 C   0  0  0  0  0  0  0  0  0  0  0  0
  151.7548  144.0309  158.8202 N   0  0  0  0  0  0  0  0  0  0  0  0
  151.6432  143.8240  157.3859 C   0  0  0  0  0  0  0  0  0  0  0  0
  150.9952  142.4745  157.0760 C   0  0  0  0  0  0  0  0  0  0  0  0
  151.4239  141.4537  157.6117 O   0  0  0  0  0  0  0  0  0  0  0  0
  149.9670  142.4958  156.2098 N   0  0  0  0  0  0  0  0  0  0  0  0
  149.1307  141.3776  155.7550 C   0  0  2  0  0  0  0  0  0  0  0  0
  148.7484  140.5939  157.0220 C   0  0  0  0  0  0  0  0  0  0  0  0
  149.8778  140.4613  154.8709 C   0  0  0  0  0  0  0  0  0  0  0  0
  150.4659  139.7427  154.1798 N   0  0  0  0  0  0  0  0  0  0  0  0
  147.8456  141.7772  155.0260 C   0  0  0  0  0  0  0  0  0  0  0  0
  146.8995  140.7944  154.3715 C   0  0  0  0  0  0  0  0  0  0  0  0
  147.7224  141.7349  153.5193 C   0  0  0  0  0  0  0  0  0  0  0  0
  152.5434  143.3285  159.7308 C   0  0  0  0  0  0  0  0  0  0  0  0
  153.4442  142.2024  159.3321 C   0  0  0  0  0  0  0  0  0  0  0  0
  153.5714  142.7108  162.2506 H   0  0  0  0  0  0  0  0  0  0  0  0
  152.0759  143.2450  163.0027 H   0  0  0  0  0  0  0  0  0  0  0  0
  153.3904  144.3865  162.7462 H   0  0  0  0  0  0  0  0  0  0  0  0
  150.3974  145.6458  159.1122 H   0  0  0  0  0  0  0  0  0  0  0  0
  151.0514  144.6326  156.9543 H   0  0  0  0  0  0  0  0  0  0  0  0
  152.6335  143.8800  156.9328 H   0  0  0  0  0  0  0  0  0  0  0  0
  149.7169  143.3992  155.8350 H   0  0  0  0  0  0  0  0  0  0  0  0
  148.1500  139.7148  156.7793 H   0  0  0  0  0  0  0  0  0  0  0  0
  148.1656  141.2080  157.7099 H   0  0  0  0  0  0  0  0  0  0  0  0
  149.6338  140.2467  157.5567 H   0  0  0  0  0  0  0  0  0  0  0  0
  147.3478  142.6196  155.5033 H   0  0  0  0  0  0  0  0  0  0  0  0
  147.1629  139.7411  154.3401 H   0  0  0  0  0  0  0  0  0  0  0  0
  145.8341  140.9980  154.4557 H   0  0  0  0  0  0  0  0  0  0  0  0
  147.2028  142.5598  153.0362 H   0  0  0  0  0  0  0  0  0  0  0  0
  148.5384  141.3015  152.9450 H   0  0  0  0  0  0  0  0  0  0  0  0
  153.9403  141.7596  160.1948 H   0  0  0  0  0  0  0  0  0  0  0  0
  154.2180  142.5500  158.6479 H   0  0  0  0  0  0  0  0  0  0  0  0
  152.8817  141.4128  158.8336 H   0  0  0  0  0  0  0  0  0  0  0  0
  1  2  1  0  0  0  0
  1 19  1  0  0  0  0
  1 20  1  0  0  0  0
  1 21  1  0  0  0  0
  2 17  2  0  0  0  0
  2  3  1  0  0  0  0
  3  4  2  0  0  0  0
  4  5  1  0  0  0  0
  4 22  1  0  0  0  0
  5  6  1  0  0  0  0
  5 17  1  0  0  0  0
  6  7  1  0  0  0  0
  6 23  1  0  0  0  0
  6 24  1  0  0  0  0
  7  8  2  0  0  0  0
  7  9  1  0  0  0  0
  9 10  1  0  0  0  0
  9 25  1  0  0  0  0
 10 11  1  0  0  0  0
 10 12  1  0  0  0  0
 10 14  1  0  0  0  0
 11 26  1  0  0  0  0
 11 27  1  0  0  0  0
 11 28  1  0  0  0  0
 12 13  3  0  0  0  0
 14 16  1  0  0  0  0
 14 15  1  0  0  0  0
 14 29  1  0  0  0  0
 15 16  1  0  0  0  0
 15 30  1  0  0  0  0
 15 31  1  0  0  0  0
 16 32  1  0  0  0  0
 16 33  1  0  0  0  0
 17 18  1  0  0  0  0
 18 34  1  0  0  0  0
 18 35  1  0  0  0  0
 18 36  1  0  0  0  0
M  END
> <s_m_source_file>
AV-unprocessed.smi

> <i_m_source_file_index>
2675

> <i_lp_mmshare_version>
43012

> <i_f3d_flags>
0

> <s_epik_input>
W0NIM11jMW5bY0hdbihjMVtDSDNdKVtDSDJdQyg9TylbTkhdW0NAQF0oW0NIM10pKEMjTilbQ0hdMltDSDJdW0NIMl0y

> <s_epik_cmdline>
J2VwaWtfcHl0aG9uJywgJy1waCcsICc3LjAnLCAnLXRuJywgJzgnLCAnLW1hJywgJzIwMCcsICctbWV0YWxfYmluZGluZycsICctaW1hZScsICc8aW5maWxlLm1hZT4nLCAnLW9tYWUnLCAnPG91dGZpbGUubWFlPic=

> <r_lp_tautomer_probability>
1

> <r_epik_Ionization_Penalty>
0.876174

> <r_epik_Ionization_Penalty_Charging>
0.876172

> <r_epik_Ionization_Penalty_Neutral>
2.64295e-06

> <r_epik_State_Penalty>
0.913958

> <r_epik_Charging_Adjusted_Penalty>
1.79013

> <i_epik_Tot_Q>
0

> <i_epik_Tot_abs_Q>
0

> <r_epik_Metal_State_Penalty>
0.359336

> <b_epik_Metal_Only>
0

> <s_lp_Force_Field>
OPLS_2005

> <r_lp_Energy>
15.5339

> <b_lp_Chiralities_Consistent>
1

> <s_lp_Variant>
AV-unprocessed.smi:2675-4

> <Gold.Version>
5.8.1

> <Gold.Id.Protein>
6NUR|6NUR_protein|mol2

> <Gold.PLP.Fitness>
46.9086

> <Gold.PLP.PLP>
-41.8395

> <Gold.PLP.part.hbond>
-2.0000

> <Gold.PLP.part.metal>
0.0000

> <Gold.PLP.part.buried>
-6.1408

> <Gold.PLP.part.nonpolar>
-34.3031

> <Gold.PLP.part.repulsive>
1.2909

> <Gold.PLP.ligand.clash>
0.0000

> <Gold.PLP.ligand.torsion>
1.2117

> <Gold.PLP.Chemscore.Hbond>
2.0000

> <Gold.PLP.Chemscore.CHOScore>
0.0000

> <Gold.PLP.Chemscore.Metal>
0.0000

> <Gold.Chemscore.Hbonds>
donor molecule, donor type, donor heavy atom, donor atom, acceptor molecule, acceptor atom, score
      L1  H     9    25       P1  8028  1.00
      P1  H  7989  7998       L1    13  1.00

> <Gold.PLP.Chemscore.Internal.Correction>
1.4925

> <Gold.Rescore>
     Score         DG    S(hbond)    S(metal)    S(lipo)     H(rot)  DE(clash)    DE(int)     intcor
      9.97     -15.93       1.44        0.00      86.47       1.74       1.47       4.49       ----

> <Gold.Chemscore.Fitness>
9.9740

> <Gold.Chemscore.DG>
-15.9344

> <Gold.Chemscore.ZeroCoef>
-5.4800

> <Gold.Chemscore.Hbond>
1.4368

> <Gold.Chemscore.Metal>
0.0000

> <Gold.Chemscore.Lipo>
86.4709

> <Gold.Chemscore.Internal_Hbond>
0.0000

> <Gold.Chemscore.DEClash>
1.4708

> <Gold.Chemscore.DEInternal>
4.4896

> <Gold.Chemscore.Rot>
1.7429

> <Gold.Chemscore.Internal.Correction>
   9.000000E+99

> <Gold.Chemscore.Hbonds>
donor molecule, donor type, donor heavy atom, donor atom, acceptor molecule, acceptor atom, score
      L1  H     9    25       P1  8028  0.96
      P1  H  7989  7998       L1    13  0.25

> <Gold.Chemscore.Hbond.Weighted>
-4.7990

> <Gold.Chemscore.Metal.Weighted>
-0.0000

> <Gold.Chemscore.Lipo.Weighted>
-10.1171

> <Gold.Chemscore.Internal_Hbond.Weighted>
0.0000

> <Gold.Chemscore.DEClash.Weighted>
1.4708

> <Gold.Chemscore.DEInternal.Weighted>
4.4896

> <Gold.Chemscore.Rot.Weighted>
4.4617

> <Gold.Chemscore.Internal.Correction.Weighted>
   9.000000E+99

> <Gold.Protein.RotatedTorsions>
[ 6907 6896 6895 6894 ] final  123.97 input  -60.11 | X-H torsion
[ 7974 7965 7964 7962 ] final -149.77 input  175.53 | X-H torsion
[ 8008 7997 7996 7995 ] final   81.71 input   59.86 | X-H torsion
[ 10167 10162 10161 10158 ] final  173.80 input  -65.29 | X-H torsion
[ 10718 10713 10712 10709 ] final  125.05 input   66.30 | X-H torsion
[ 10763 10752 10751 10750 ] final  155.73 input  -60.55 | X-H torsion
[ 11005 11000 10999 10996 ] final   94.44 input  -57.11 | X-H torsion

> <Gold.Protein.ActiveResidues>
 VAL166  LYS551  ARG553  GLY616  TRP617  ASP618  TYR619  PRO620  LYS621  CYS622 
 ASP623  PHE694  ASN695  SER759  ASP760  ASP761  ALA762  ILE779  LEU786  VAL792 
 PHE793  MET794  SER795  GLU796  ALA797  LYS798  CYS799  TRP800  GLU811  SER814 

> <Gold.Protein.RotatedAtoms>
  152.4118  133.6975  159.6403 H   0  0  0  0  0  0  0  0  0  0  0  0  # atno 6907 bound_to 6896
  150.7997  133.8611  159.3241 H   0  0  0  0  0  0  0  0  0  0  0  0  # atno 6908 bound_to 6896
  151.6351  135.1020  160.0181 H   0  0  0  0  0  0  0  0  0  0  0  0  # atno 6909 bound_to 6896
  144.7947  140.5021  143.5748 H   0  0  0  0  0  0  0  0  0  0  0  0  # atno 7974 bound_to 7965
  155.9008  140.3433  155.6025 H   0  0  0  0  0  0  0  0  0  0  0  0  # atno 8008 bound_to 7997
  155.7502  140.0819  157.2223 H   0  0  0  0  0  0  0  0  0  0  0  0  # atno 8009 bound_to 7997
  154.4043  140.1554  156.2703 H   0  0  0  0  0  0  0  0  0  0  0  0  # atno 8010 bound_to 7997
  139.5120  144.3220  152.0193 H   0  0  0  0  0  0  0  0  0  0  0  0  # atno 10167 bound_to 10162
  157.5535  131.1093  150.8662 H   0  0  0  0  0  0  0  0  0  0  0  0  # atno 10718 bound_to 10713
  154.1730  135.2803  155.3075 H   0  0  0  0  0  0  0  0  0  0  0  0  # atno 10763 bound_to 10752
  154.6061  135.5514  153.7427 H   0  0  0  0  0  0  0  0  0  0  0  0  # atno 10764 bound_to 10752
  153.0159  135.6404  154.1870 H   0  0  0  0  0  0  0  0  0  0  0  0  # atno 10765 bound_to 10752
  139.8798  134.8845  156.3864 H   0  0  0  0  0  0  0  0  0  0  0  0  # atno 11005 bound_to 11000
  145.5703  139.1483  143.3292 LP  0  0  0  0  0  0  0  0  0  0  0  0  # atno 17320 bound_to 7965
  146.2212  140.5836  142.9016 LP  0  0  0  0  0  0  0  0  0  0  0  0  # atno 17321 bound_to 7965
  140.2661  144.4014  150.6168 LP  0  0  0  0  0  0  0  0  0  0  0  0  # atno 17342 bound_to 10162
  140.6122  143.2170  151.6863 LP  0  0  0  0  0  0  0  0  0  0  0  0  # atno 17343 bound_to 10162
  156.9180  130.5304  149.5279 LP  0  0  0  0  0  0  0  0  0  0  0  0  # atno 17370 bound_to 10713
  156.0597  130.5652  150.9168 LP  0  0  0  0  0  0  0  0  0  0  0  0  # atno 17371 bound_to 10713
  140.9363  133.7544  156.0089 LP  0  0  0  0  0  0  0  0  0  0  0  0  # atno 17394 bound_to 11000
  140.8271  134.3221  157.5362 LP  0  0  0  0  0  0  0  0  0  0  0  0  # atno 17395 bound_to 11000

$$$$
