AV-unprocessed.smi:733|AV-procd|sdf|3529|dock1
  -GOLD-   22720 0523D 1   1.00000     0.00000
 Structure written by MMmdl.
 43 44  0  0  0  0  0  0  0  0  1 V2000
  152.1798  144.3836  161.2338 C   0  0  0  0  0  0  0  0  0  0  0  0
  152.0615  143.3943  160.1154 C   0  0  0  0  0  0  0  0  0  0  0  0
  151.1875  143.6515  159.0550 N   0  0  0  0  0  0  0  0  0  0  0  0
  151.1990  142.6756  158.1413 C   0  0  0  0  0  0  0  0  0  0  0  0
  150.4123  142.6741  156.9597 N   0  0  0  0  0  0  0  0  0  0  0  0
  150.1567  141.6456  156.1325 C   0  0  0  0  0  0  0  0  0  0  0  0
  150.5911  140.5012  156.2658 O   0  0  0  0  0  0  0  0  0  0  0  0
  149.3526  142.0234  155.1281 N   0  0  0  0  0  0  0  0  0  0  0  0
  148.8535  141.1605  154.0579 C   0  0  0  0  0  0  0  0  0  0  0  0
  147.3054  141.1983  153.9206 C   0  0  0  0  0  0  0  0  0  0  0  0
  146.8108  140.4383  152.6533 C   0  0  0  0  0  0  0  0  0  0  0  0
  147.0722  138.9180  152.5942 C   0  0  0  0  0  0  0  0  0  0  0  0
  147.0832  138.4330  151.2688 O   0  0  0  0  0  0  0  0  0  0  0  0
  146.6581  140.6328  155.2086 C   0  0  0  0  0  0  0  0  0  0  0  0
  146.3287  141.8351  156.0875 C   0  0  0  0  0  0  0  0  0  0  0  0
  145.8832  142.8842  155.0799 C   0  0  0  0  0  0  0  0  0  0  0  0
  146.8061  142.6716  153.8773 C   0  0  0  0  0  0  0  0  0  0  0  0
  152.2962  141.3617  158.5284 S   0  0  0  0  0  0  0  0  0  0  0  0
  152.7384  142.2025  159.9935 C   0  0  0  0  0  0  0  0  0  0  0  0
  153.7384  141.6230  160.9380 C   0  0  0  0  0  0  0  0  0  0  0  0
  151.8279  143.9568  162.1731 H   0  0  0  0  0  0  0  0  0  0  0  0
  151.5944  145.2834  161.0414 H   0  0  0  0  0  0  0  0  0  0  0  0
  153.2155  144.6915  161.3774 H   0  0  0  0  0  0  0  0  0  0  0  0
  149.9880  143.5581  156.7210 H   0  0  0  0  0  0  0  0  0  0  0  0
  149.0498  142.9860  155.1052 H   0  0  0  0  0  0  0  0  0  0  0  0
  149.3227  141.4884  153.1304 H   0  0  0  0  0  0  0  0  0  0  0  0
  149.1911  140.1317  154.1956 H   0  0  0  0  0  0  0  0  0  0  0  0
  145.7440  140.6191  152.5126 H   0  0  0  0  0  0  0  0  0  0  0  0
  147.2861  140.8819  151.7775 H   0  0  0  0  0  0  0  0  0  0  0  0
  148.0489  138.7051  153.0296 H   0  0  0  0  0  0  0  0  0  0  0  0
  146.3470  138.3583  153.1837 H   0  0  0  0  0  0  0  0  0  0  0  0
  146.3678  137.8244  151.1642 H   0  0  0  0  0  0  0  0  0  0  0  0
  145.7223  140.1245  154.9719 H   0  0  0  0  0  0  0  0  0  0  0  0
  147.2896  139.9080  155.7236 H   0  0  0  0  0  0  0  0  0  0  0  0
  145.5637  141.6157  156.8327 H   0  0  0  0  0  0  0  0  0  0  0  0
  147.2237  142.1743  156.6108 H   0  0  0  0  0  0  0  0  0  0  0  0
  144.8489  142.6970  154.7879 H   0  0  0  0  0  0  0  0  0  0  0  0
  145.9386  143.8984  155.4769 H   0  0  0  0  0  0  0  0  0  0  0  0
  147.6383  143.3706  153.9570 H   0  0  0  0  0  0  0  0  0  0  0  0
  146.2913  142.9183  152.9480 H   0  0  0  0  0  0  0  0  0  0  0  0
  154.6280  142.2510  160.9918 H   0  0  0  0  0  0  0  0  0  0  0  0
  154.0489  140.6265  160.6232 H   0  0  0  0  0  0  0  0  0  0  0  0
  153.3206  141.5422  161.9416 H   0  0  0  0  0  0  0  0  0  0  0  0
  1  2  1  0  0  0  0
  1 21  1  0  0  0  0
  1 22  1  0  0  0  0
  1 23  1  0  0  0  0
  2 19  2  0  0  0  0
  2  3  1  0  0  0  0
  3  4  2  0  0  0  0
  4  5  1  0  0  0  0
  4 18  1  0  0  0  0
  5  6  1  0  0  0  0
  5 24  1  0  0  0  0
  6  7  2  0  0  0  0
  6  8  1  0  0  0  0
  8  9  1  0  0  0  0
  8 25  1  0  0  0  0
  9 10  1  0  0  0  0
  9 26  1  0  0  0  0
  9 27  1  0  0  0  0
 10 17  1  0  0  0  0
 10 11  1  0  0  0  0
 10 14  1  0  0  0  0
 11 12  1  0  0  0  0
 11 28  1  0  0  0  0
 11 29  1  0  0  0  0
 12 13  1  0  0  0  0
 12 30  1  0  0  0  0
 12 31  1  0  0  0  0
 13 32  1  0  0  0  0
 14 15  1  0  0  0  0
 14 33  1  0  0  0  0
 14 34  1  0  0  0  0
 15 16  1  0  0  0  0
 15 35  1  0  0  0  0
 15 36  1  0  0  0  0
 16 17  1  0  0  0  0
 16 37  1  0  0  0  0
 16 38  1  0  0  0  0
 17 39  1  0  0  0  0
 17 40  1  0  0  0  0
 18 19  1  0  0  0  0
 19 20  1  0  0  0  0
 20 41  1  0  0  0  0
 20 42  1  0  0  0  0
 20 43  1  0  0  0  0
M  END
> <s_m_source_file>
AV-unprocessed.smi

> <i_m_source_file_index>
733

> <i_lp_mmshare_version>
43012

> <i_f3d_flags>
0

> <s_epik_input>
W0NIM11jMW5jKHNjMVtDSDNdKVtOSF1DKD1PKVtOSF1bQ0gyXUMyKFtDSDJdW0NIMl1bT0hdKVtDSDJdW0NIMl1bQ0gyXVtDSDJdMg==

> <s_epik_cmdline>
J2VwaWtfcHl0aG9uJywgJy1waCcsICc3LjAnLCAnLXRuJywgJzgnLCAnLW1hJywgJzIwMCcsICctbWV0YWxfYmluZGluZycsICctaW1hZScsICc8aW5maWxlLm1hZT4nLCAnLW9tYWUnLCAnPG91dGZpbGUubWFlPic=

> <r_lp_tautomer_probability>
0.999

> <r_epik_Ionization_Penalty>
0.000695797

> <r_epik_Ionization_Penalty_Charging>
0

> <r_epik_Ionization_Penalty_Neutral>
0.000695797

> <r_epik_State_Penalty>
0.000177984

> <r_epik_Charging_Adjusted_Penalty>
0.000177984

> <i_epik_Tot_Q>
0

> <i_epik_Tot_abs_Q>
0

> <r_epik_Metal_State_Penalty>
-0

> <b_epik_Metal_Only>
0

> <s_lp_Force_Field>
OPLS_2005

> <r_lp_Energy>
29.226

> <b_lp_Chiralities_Consistent>
1

> <s_lp_Variant>
AV-unprocessed.smi:733-1

> <Gold.Version>
5.8.1

> <Gold.Id.Protein>
6NUR|6NUR_protein|mol2

> <Gold.PLP.Fitness>
54.0092

> <Gold.PLP.PLP>
-45.4238

> <Gold.PLP.part.hbond>
-5.0000

> <Gold.PLP.part.metal>
0.0000

> <Gold.PLP.part.buried>
-3.8509

> <Gold.PLP.part.nonpolar>
-36.5024

> <Gold.PLP.part.repulsive>
0.3168

> <Gold.PLP.ligand.clash>
0.0000

> <Gold.PLP.ligand.torsion>
0.2555

> <Gold.PLP.Chemscore.Hbond>
3.0000

> <Gold.PLP.Chemscore.CHOScore>
0.0000

> <Gold.PLP.Chemscore.Metal>
0.0000

> <Gold.Chemscore.Hbonds>
donor molecule, donor type, donor heavy atom, donor atom, acceptor molecule, acceptor atom, score
      L1  H     5    24       P1  8028  1.00
      L1  H     8    25       P1  8028  1.00
      P1  H  7954  7966       L1    13  1.00

> <Gold.PLP.Chemscore.Internal.Correction>
0.0966

> <Gold.Rescore>
     Score         DG    S(hbond)    S(metal)    S(lipo)     H(rot)  DE(clash)    DE(int)     intcor
     19.66     -21.50       2.92        0.00     103.89       2.30       0.52       1.32       ----

> <Gold.Chemscore.Fitness>
19.6624

> <Gold.Chemscore.DG>
-21.5023

> <Gold.Chemscore.ZeroCoef>
-5.4800

> <Gold.Chemscore.Hbond>
2.9198

> <Gold.Chemscore.Metal>
0.0000

> <Gold.Chemscore.Lipo>
103.8935

> <Gold.Chemscore.Internal_Hbond>
0.0000

> <Gold.Chemscore.DEClash>
0.5188

> <Gold.Chemscore.DEInternal>
1.3211

> <Gold.Chemscore.Rot>
2.2990

> <Gold.Chemscore.Internal.Correction>
   9.000000E+99

> <Gold.Chemscore.Hbonds>
donor molecule, donor type, donor heavy atom, donor atom, acceptor molecule, acceptor atom, score
      L1  H     5    24       P1  8028  0.98
      L1  H     8    25       P1  8028  0.99
      P1  H  7954  7966       L1    13  0.25

> <Gold.Chemscore.Hbond.Weighted>
-9.7522

> <Gold.Chemscore.Metal.Weighted>
-0.0000

> <Gold.Chemscore.Lipo.Weighted>
-12.1555

> <Gold.Chemscore.Internal_Hbond.Weighted>
0.0000

> <Gold.Chemscore.DEClash.Weighted>
0.5188

> <Gold.Chemscore.DEInternal.Weighted>
1.3211

> <Gold.Chemscore.Rot.Weighted>
5.8854

> <Gold.Chemscore.Internal.Correction.Weighted>
   9.000000E+99

> <Gold.Protein.RotatedTorsions>
[ 6907 6896 6895 6894 ] final  -54.96 input  -60.11 | X-H torsion
[ 7974 7965 7964 7962 ] final    9.09 input  175.53 | X-H torsion
[ 8008 7997 7996 7995 ] final  -14.14 input   59.86 | X-H torsion
[ 10167 10162 10161 10158 ] final  -61.01 input  -65.29 | X-H torsion
[ 10718 10713 10712 10709 ] final  144.86 input   66.30 | X-H torsion
[ 10763 10752 10751 10750 ] final  -98.09 input  -60.55 | X-H torsion
[ 11005 11000 10999 10996 ] final  -51.09 input  -57.11 | X-H torsion

> <Gold.Protein.ActiveResidues>
 VAL166  LYS551  ARG553  GLY616  TRP617  ASP618  TYR619  PRO620  LYS621  CYS622 
 ASP623  PHE694  ASN695  SER759  ASP760  ASP761  ALA762  ILE779  LEU786  VAL792 
 PHE793  MET794  SER795  GLU796  ALA797  LYS798  CYS799  TRP800  GLU811  SER814 

> <Gold.Protein.RotatedAtoms>
  150.8293  134.7538  159.6839 H   0  0  0  0  0  0  0  0  0  0  0  0  # atno 6907 bound_to 6896
  152.4400  134.5607  159.9903 H   0  0  0  0  0  0  0  0  0  0  0  0  # atno 6908 bound_to 6896
  151.5772  133.3344  159.3037 H   0  0  0  0  0  0  0  0  0  0  0  0  # atno 6909 bound_to 6896
  146.2408  139.9835  142.8433 H   0  0  0  0  0  0  0  0  0  0  0  0  # atno 7974 bound_to 7965
  154.5234  140.2231  155.8934 H   0  0  0  0  0  0  0  0  0  0  0  0  # atno 8008 bound_to 7997
  156.1687  140.3126  155.8899 H   0  0  0  0  0  0  0  0  0  0  0  0  # atno 8009 bound_to 7997
  155.3603  140.0460  157.3037 H   0  0  0  0  0  0  0  0  0  0  0  0  # atno 8010 bound_to 7997
  140.6034  143.2367  151.5877 H   0  0  0  0  0  0  0  0  0  0  0  0  # atno 10167 bound_to 10162
  157.3521  131.0952  151.0991 H   0  0  0  0  0  0  0  0  0  0  0  0  # atno 10718 bound_to 10713
  154.7385  135.5022  153.9082 H   0  0  0  0  0  0  0  0  0  0  0  0  # atno 10763 bound_to 10752
  153.1019  135.6687  153.9666 H   0  0  0  0  0  0  0  0  0  0  0  0  # atno 10764 bound_to 10752
  153.9449  135.3064  155.3420 H   0  0  0  0  0  0  0  0  0  0  0  0  # atno 10765 bound_to 10752
  141.0852  133.6644  156.3826 H   0  0  0  0  0  0  0  0  0  0  0  0  # atno 11005 bound_to 11000
  145.1570  140.9653  143.4399 LP  0  0  0  0  0  0  0  0  0  0  0  0  # atno 17320 bound_to 7965
  145.0152  139.3474  143.6100 LP  0  0  0  0  0  0  0  0  0  0  0  0  # atno 17321 bound_to 7965
  139.5307  144.2924  152.1141 LP  0  0  0  0  0  0  0  0  0  0  0  0  # atno 17342 bound_to 10162
  140.2109  144.4563  150.6386 LP  0  0  0  0  0  0  0  0  0  0  0  0  # atno 17343 bound_to 10162
  157.2162  130.6460  149.5793 LP  0  0  0  0  0  0  0  0  0  0  0  0  # atno 17370 bound_to 10713
  155.9723  130.4644  150.6215 LP  0  0  0  0  0  0  0  0  0  0  0  0  # atno 17371 bound_to 10713
  140.5379  134.6149  157.5371 LP  0  0  0  0  0  0  0  0  0  0  0  0  # atno 17394 bound_to 11000
  139.9669  134.7357  156.0119 LP  0  0  0  0  0  0  0  0  0  0  0  0  # atno 17395 bound_to 11000

$$$$
