AV-unprocessed.smi:901|AV-procd|sdf|4091|dock2
  -GOLD-   22720 1583D 1   1.00000     0.00000
 Structure written by MMmdl.
 43 44  0  0  0  0  0  0  0  0  1 V2000
  151.3583  139.2865  155.6193 C   0  0  0  0  0  0  0  0  0  0  0  0
  150.2134  140.2675  155.4647 C   0  0  0  0  0  0  0  0  0  0  0  0
  150.2290  141.4220  156.4512 C   0  0  0  0  0  0  0  0  0  0  0  0
  149.2692  140.1085  154.5175 C   0  0  0  0  0  0  0  0  0  0  0  0
  148.0972  140.9994  154.2718 C   0  0  1  0  0  0  0  0  0  0  0  0
  146.7586  140.5254  153.7130 C   0  0  1  0  0  0  0  0  0  0  0  0
  146.5573  139.0782  153.3903 C   0  0  0  0  0  0  0  0  0  0  0  0
  146.7544  138.1909  154.2195 O   0  0  0  0  0  0  0  0  0  0  0  0
  146.2368  138.8596  152.1022 N   0  0  0  0  0  0  0  0  0  0  0  0
  145.9473  137.6297  151.4570 C   0  0  0  0  0  0  0  0  0  0  0  0
  145.6126  137.4590  150.0800 C   0  0  0  0  0  0  0  0  0  0  0  0
  145.4338  136.1099  149.9669 C   0  0  0  0  0  0  0  0  0  0  0  0
  145.6635  135.5533  151.2095 N   0  0  0  0  0  0  0  0  0  0  0  0
  145.5957  134.1536  151.5985 C   0  0  0  0  0  0  0  0  0  0  0  0
  146.4888  133.2564  150.7326 C   0  0  0  0  0  0  0  0  0  0  0  0
  147.5666  132.7370  151.3252 N   0  0  0  0  0  0  0  0  0  0  0  0
  146.2237  133.0347  149.5520 O   0  0  0  0  0  0  0  0  0  0  0  0
  145.9767  136.4921  152.1297 N   0  0  0  0  0  0  0  0  0  0  0  0
  146.8686  140.9791  155.1648 C   0  0  0  0  0  0  0  0  0  0  0  0
  146.7669  140.0050  156.3366 C   0  0  0  0  0  0  0  0  0  0  0  0
  146.2204  142.2968  155.5508 C   0  0  0  0  0  0  0  0  0  0  0  0
  151.3450  138.8434  156.6154 H   0  0  0  0  0  0  0  0  0  0  0  0
  152.3124  139.7962  155.4829 H   0  0  0  0  0  0  0  0  0  0  0  0
  151.2982  138.4801  154.8878 H   0  0  0  0  0  0  0  0  0  0  0  0
  151.1583  141.9837  156.3536 H   0  0  0  0  0  0  0  0  0  0  0  0
  150.1645  141.0443  157.4717 H   0  0  0  0  0  0  0  0  0  0  0  0
  149.4033  142.1159  156.2963 H   0  0  0  0  0  0  0  0  0  0  0  0
  149.3479  139.2506  153.8664 H   0  0  0  0  0  0  0  0  0  0  0  0
  148.4270  141.9781  153.9282 H   0  0  0  0  0  0  0  0  0  0  0  0
  146.2976  141.2078  153.0014 H   0  0  0  0  0  0  0  0  0  0  0  0
  146.1612  139.6798  151.5186 H   0  0  0  0  0  0  0  0  0  0  0  0
  145.5157  138.1906  149.2922 H   0  0  0  0  0  0  0  0  0  0  0  0
  145.1691  135.5038  149.1131 H   0  0  0  0  0  0  0  0  0  0  0  0
  145.8904  134.0511  152.6441 H   0  0  0  0  0  0  0  0  0  0  0  0
  144.5569  133.8290  151.5232 H   0  0  0  0  0  0  0  0  0  0  0  0
  148.1892  132.1359  150.8051 H   0  0  0  0  0  0  0  0  0  0  0  0
  147.7537  132.9453  152.2955 H   0  0  0  0  0  0  0  0  0  0  0  0
  145.7218  139.8379  156.5989 H   0  0  0  0  0  0  0  0  0  0  0  0
  147.2801  140.4099  157.2094 H   0  0  0  0  0  0  0  0  0  0  0  0
  147.2122  139.0379  156.1044 H   0  0  0  0  0  0  0  0  0  0  0  0
  145.1663  142.1472  155.7856 H   0  0  0  0  0  0  0  0  0  0  0  0
  146.2896  143.0163  154.7343 H   0  0  0  0  0  0  0  0  0  0  0  0
  146.7162  142.7233  156.4234 H   0  0  0  0  0  0  0  0  0  0  0  0
  1  2  1  0  0  0  0
  1 22  1  0  0  0  0
  1 23  1  0  0  0  0
  1 24  1  0  0  0  0
  2  3  1  0  0  0  0
  2  4  2  0  0  0  0
  3 25  1  0  0  0  0
  3 26  1  0  0  0  0
  3 27  1  0  0  0  0
  4  5  1  0  0  0  0
  4 28  1  0  0  0  0
  5 19  1  0  0  0  0
  5  6  1  0  0  0  0
  5 29  1  0  0  0  0
  6  7  1  0  0  0  0
  6 19  1  0  0  0  0
  6 30  1  0  0  0  0
  7  8  2  0  0  0  0
  7  9  1  0  0  0  0
  9 10  1  0  0  0  0
  9 31  1  0  0  0  0
 10 18  2  0  0  0  0
 10 11  1  0  0  0  0
 11 12  2  0  0  0  0
 11 32  1  0  0  0  0
 12 13  1  0  0  0  0
 12 33  1  0  0  0  0
 13 14  1  0  0  0  0
 13 18  1  0  0  0  0
 14 15  1  0  0  0  0
 14 34  1  0  0  0  0
 14 35  1  0  0  0  0
 15 16  1  0  0  0  0
 15 17  2  0  0  0  0
 16 36  1  0  0  0  0
 16 37  1  0  0  0  0
 19 20  1  0  0  0  0
 19 21  1  0  0  0  0
 20 38  1  0  0  0  0
 20 39  1  0  0  0  0
 20 40  1  0  0  0  0
 21 41  1  0  0  0  0
 21 42  1  0  0  0  0
 21 43  1  0  0  0  0
M  END
> <s_m_source_file>
AV-unprocessed.smi

> <i_m_source_file_index>
901

> <i_lp_mmshare_version>
43012

> <i_f3d_flags>
0

> <s_epik_input>
W0NIM11DKFtDSDNdKT1bQ0hdW0NAQEhdKEMxKFtDSDNdKVtDSDNdKVtDQEhdMUMoPU8pW05IXWMyW2NIXVtjSF1uKG4yKVtDSDJdQyg9TylbTkgyXQ==

> <s_epik_cmdline>
J2VwaWtfcHl0aG9uJywgJy1waCcsICc3LjAnLCAnLXRuJywgJzgnLCAnLW1hJywgJzIwMCcsICctbWV0YWxfYmluZGluZycsICctaW1hZScsICc8aW5maWxlLm1hZT4nLCAnLW9tYWUnLCAnPG91dGZpbGUubWFlPic=

> <r_lp_tautomer_probability>
1

> <r_epik_Ionization_Penalty>
1.01454e-05

> <r_epik_Ionization_Penalty_Charging>
0

> <r_epik_Ionization_Penalty_Neutral>
1.01454e-05

> <r_epik_State_Penalty>
-0

> <r_epik_Charging_Adjusted_Penalty>
0

> <i_epik_Tot_Q>
0

> <i_epik_Tot_abs_Q>
0

> <r_epik_Metal_State_Penalty>
-0

> <b_epik_Metal_Only>
0

> <s_lp_Force_Field>
OPLS_2005

> <r_lp_Energy>
23.331

> <b_lp_Chiralities_Consistent>
1

> <s_lp_Variant>
AV-unprocessed.smi:901-2

> <Gold.Version>
5.8.1

> <Gold.Id.Protein>
6NUR|6NUR_protein|mol2

> <Gold.PLP.Fitness>
37.9202

> <Gold.PLP.PLP>
-33.1501

> <Gold.PLP.part.hbond>
-1.3173

> <Gold.PLP.part.metal>
0.0000

> <Gold.PLP.part.buried>
3.5304

> <Gold.PLP.part.nonpolar>
-36.9338

> <Gold.PLP.part.repulsive>
1.5582

> <Gold.PLP.ligand.clash>
0.0000

> <Gold.PLP.ligand.torsion>
0.5897

> <Gold.PLP.Chemscore.Hbond>
1.0000

> <Gold.PLP.Chemscore.CHOScore>
0.8996

> <Gold.PLP.Chemscore.Metal>
0.0000

> <Gold.Chemscore.Hbonds>
donor molecule, donor type, donor heavy atom, donor atom, acceptor molecule, acceptor atom, score
      L1  H    16    36       P1 10747  1.00
      L1  C    12    33       P1  7921  0.64

> <Gold.PLP.Chemscore.Internal.Correction>
0.2508

> <Gold.Rescore>
     Score         DG    S(hbond)    S(metal)    S(lipo)     H(rot)  DE(clash)    DE(int)     intcor
      6.48     -12.25       1.00        0.00      76.06       2.13       2.38       3.39       ----

> <Gold.Chemscore.Fitness>
6.4829

> <Gold.Chemscore.DG>
-12.2536

> <Gold.Chemscore.ZeroCoef>
-5.4800

> <Gold.Chemscore.Hbond>
0.9968

> <Gold.Chemscore.Metal>
0.0000

> <Gold.Chemscore.Lipo>
76.0637

> <Gold.Chemscore.Internal_Hbond>
0.0000

> <Gold.Chemscore.DEClash>
2.3757

> <Gold.Chemscore.DEInternal>
3.3950

> <Gold.Chemscore.Rot>
2.1309

> <Gold.Chemscore.Internal.Correction>
   9.000000E+99

> <Gold.Chemscore.Hbonds>
donor molecule, donor type, donor heavy atom, donor atom, acceptor molecule, acceptor atom, score
      L1  H    16    36       P1 10747  0.98

> <Gold.Chemscore.Hbond.Weighted>
-3.3293

> <Gold.Chemscore.Metal.Weighted>
-0.0000

> <Gold.Chemscore.Lipo.Weighted>
-8.8995

> <Gold.Chemscore.Internal_Hbond.Weighted>
0.0000

> <Gold.Chemscore.DEClash.Weighted>
2.3757

> <Gold.Chemscore.DEInternal.Weighted>
3.3950

> <Gold.Chemscore.Rot.Weighted>
5.4552

> <Gold.Chemscore.Internal.Correction.Weighted>
   9.000000E+99

> <Gold.Protein.RotatedTorsions>
[ 6907 6896 6895 6894 ] final   32.30 input  -60.11 | X-H torsion
[ 7974 7965 7964 7962 ] final   37.28 input  175.53 | X-H torsion
[ 8008 7997 7996 7995 ] final   12.89 input   59.86 | X-H torsion
[ 10167 10162 10161 10158 ] final   13.60 input  -65.29 | X-H torsion
[ 10718 10713 10712 10709 ] final -144.17 input   66.30 | X-H torsion
[ 10763 10752 10751 10750 ] final  102.50 input  -60.55 | X-H torsion
[ 11005 11000 10999 10996 ] final   15.60 input  -57.11 | X-H torsion

> <Gold.Protein.ActiveResidues>
 VAL166  LYS551  ARG553  GLY616  TRP617  ASP618  TYR619  PRO620  LYS621  CYS622 
 ASP623  PHE694  ASN695  SER759  ASP760  ASP761  ALA762  ILE779  LEU786  VAL792 
 PHE793  MET794  SER795  GLU796  ALA797  LYS798  CYS799  TRP800  GLU811  SER814 

> <Gold.Protein.RotatedAtoms>
  152.0725  134.9524  160.0574 H   0  0  0  0  0  0  0  0  0  0  0  0  # atno 6907 bound_to 6896
  152.0845  133.4164  159.4524 H   0  0  0  0  0  0  0  0  0  0  0  0  # atno 6908 bound_to 6896
  150.6836  134.2863  159.4691 H   0  0  0  0  0  0  0  0  0  0  0  0  # atno 6909 bound_to 6896
  146.1149  139.5913  142.9328 H   0  0  0  0  0  0  0  0  0  0  0  0  # atno 7974 bound_to 7965
  154.8269  140.2893  155.5748 H   0  0  0  0  0  0  0  0  0  0  0  0  # atno 8008 bound_to 7997
  156.3002  140.2539  156.3118 H   0  0  0  0  0  0  0  0  0  0  0  0  # atno 8009 bound_to 7997
  154.9275  140.0384  157.2020 H   0  0  0  0  0  0  0  0  0  0  0  0  # atno 8010 bound_to 7997
  140.5991  143.8640  150.6948 H   0  0  0  0  0  0  0  0  0  0  0  0  # atno 10167 bound_to 10162
  156.3668  130.7767  151.1942 H   0  0  0  0  0  0  0  0  0  0  0  0  # atno 10718 bound_to 10713
  153.3404  135.4008  155.1567 H   0  0  0  0  0  0  0  0  0  0  0  0  # atno 10763 bound_to 10752
  154.8642  135.3632  154.5353 H   0  0  0  0  0  0  0  0  0  0  0  0  # atno 10764 bound_to 10752
  153.5797  135.7077  153.5528 H   0  0  0  0  0  0  0  0  0  0  0  0  # atno 10765 bound_to 10752
  140.4565  134.1170  155.7710 H   0  0  0  0  0  0  0  0  0  0  0  0  # atno 11005 bound_to 11000
  145.5587  141.0406  143.2238 LP  0  0  0  0  0  0  0  0  0  0  0  0  # atno 17320 bound_to 7965
  144.7544  139.7112  143.7260 LP  0  0  0  0  0  0  0  0  0  0  0  0  # atno 17321 bound_to 7965
  140.2182  143.3830  152.1664 LP  0  0  0  0  0  0  0  0  0  0  0  0  # atno 17342 bound_to 10162
  139.5279  144.7124  151.5163 LP  0  0  0  0  0  0  0  0  0  0  0  0  # atno 17343 bound_to 10162
  157.7480  131.0384  150.4500 LP  0  0  0  0  0  0  0  0  0  0  0  0  # atno 17370 bound_to 10713
  156.4720  130.4055  149.6512 LP  0  0  0  0  0  0  0  0  0  0  0  0  # atno 17371 bound_to 10713
  141.1640  133.8738  157.1766 LP  0  0  0  0  0  0  0  0  0  0  0  0  # atno 17394 bound_to 11000
  139.9973  135.0042  157.0110 LP  0  0  0  0  0  0  0  0  0  0  0  0  # atno 17395 bound_to 11000

$$$$
