AV-unprocessed.smi:651|AV-procd|sdf|3186|dock10
  -GOLD-   22720 0113D 1   1.00000     0.00000
 Structure written by MMmdl.
 38 39  0  0  0  0  0  0  0  0  1 V2000
  151.9962  145.5684  159.8643 C   0  0  0  0  0  0  0  0  0  0  0  0
  151.8099  144.1822  159.2835 C   0  0  0  0  0  0  0  0  0  0  0  0
  152.5919  143.1006  159.7400 C   0  0  0  0  0  0  0  0  0  0  0  0
  152.3711  141.8289  159.1773 C   0  0  0  0  0  0  0  0  0  0  0  0
  151.3809  141.6875  158.1834 C   0  0  0  0  0  0  0  0  0  0  0  0
  151.0952  140.3342  157.5529 C   0  0  0  0  0  0  0  0  0  0  0  0
  150.7345  140.4491  156.0667 C   0  0  0  0  0  0  0  0  0  0  0  0
  151.6066  140.5384  155.2008 O   0  0  0  0  0  0  0  0  0  0  0  0
  149.4234  140.4335  155.7830 N   0  0  0  0  0  0  0  0  0  0  0  0
  148.8572  140.5063  154.4349 C   0  0  2  0  0  0  0  0  0  0  0  0
  147.9515  141.7416  154.2726 C   0  0  0  0  0  0  0  0  0  0  0  0
  146.7334  141.2946  153.4531 C   0  0  0  0  0  0  0  0  0  0  0  0
  147.0445  139.8730  152.9760 C   0  0  0  0  0  0  0  0  0  0  0  0
  148.0012  139.2799  154.0210 C   0  0  2  0  0  0  0  0  0  0  0  0
  147.2185  138.6094  155.1713 C   0  0  0  0  0  0  0  0  0  0  0  0
  146.4437  137.5706  154.8493 N   0  0  0  0  0  0  0  0  0  0  0  0
  147.3150  139.0132  156.3290 O   0  0  0  0  0  0  0  0  0  0  0  0
  150.6553  142.8344  157.7960 C   0  0  0  0  0  0  0  0  0  0  0  0
  150.8596  144.0576  158.3306 N   0  0  0  0  0  0  0  0  0  0  0  0
  153.0100  145.6979  160.2444 H   0  0  0  0  0  0  0  0  0  0  0  0
  151.2990  145.7260  160.6874 H   0  0  0  0  0  0  0  0  0  0  0  0
  151.8177  146.3358  159.1103 H   0  0  0  0  0  0  0  0  0  0  0  0
  153.3408  143.2390  160.5060 H   0  0  0  0  0  0  0  0  0  0  0  0
  152.9485  140.9778  159.5077 H   0  0  0  0  0  0  0  0  0  0  0  0
  151.9712  139.6932  157.6617 H   0  0  0  0  0  0  0  0  0  0  0  0
  150.2770  139.8472  158.0851 H   0  0  0  0  0  0  0  0  0  0  0  0
  148.7705  140.3519  156.5491 H   0  0  0  0  0  0  0  0  0  0  0  0
  149.6763  140.6020  153.7191 H   0  0  0  0  0  0  0  0  0  0  0  0
  147.6210  142.1306  155.2368 H   0  0  0  0  0  0  0  0  0  0  0  0
  148.4902  142.5464  153.7709 H   0  0  0  0  0  0  0  0  0  0  0  0
  145.8462  141.2870  154.0875 H   0  0  0  0  0  0  0  0  0  0  0  0
  146.5285  141.9663  152.6191 H   0  0  0  0  0  0  0  0  0  0  0  0
  146.1387  139.2818  152.8339 H   0  0  0  0  0  0  0  0  0  0  0  0
  147.5513  139.9158  152.0109 H   0  0  0  0  0  0  0  0  0  0  0  0
  148.6384  138.5257  153.5558 H   0  0  0  0  0  0  0  0  0  0  0  0
  145.9086  137.0995  155.5642 H   0  0  0  0  0  0  0  0  0  0  0  0
  146.3934  137.2621  153.8893 H   0  0  0  0  0  0  0  0  0  0  0  0
  149.8854  142.7681  157.0412 H   0  0  0  0  0  0  0  0  0  0  0  0
  1  2  1  0  0  0  0
  1 20  1  0  0  0  0
  1 21  1  0  0  0  0
  1 22  1  0  0  0  0
  2 19  1  0  0  0  0
  2  3  2  0  0  0  0
  3  4  1  0  0  0  0
  3 23  1  0  0  0  0
  4  5  2  0  0  0  0
  4 24  1  0  0  0  0
  5  6  1  0  0  0  0
  5 18  1  0  0  0  0
  6  7  1  0  0  0  0
  6 25  1  0  0  0  0
  6 26  1  0  0  0  0
  7  8  2  0  0  0  0
  7  9  1  0  0  0  0
  9 10  1  0  0  0  0
  9 27  1  0  0  0  0
 10 14  1  0  0  0  0
 10 11  1  0  0  0  0
 10 28  1  0  0  0  0
 11 12  1  0  0  0  0
 11 29  1  0  0  0  0
 11 30  1  0  0  0  0
 12 13  1  0  0  0  0
 12 31  1  0  0  0  0
 12 32  1  0  0  0  0
 13 14  1  0  0  0  0
 13 33  1  0  0  0  0
 13 34  1  0  0  0  0
 14 15  1  0  0  0  0
 14 35  1  0  0  0  0
 15 16  1  0  0  0  0
 15 17  2  0  0  0  0
 16 36  1  0  0  0  0
 16 37  1  0  0  0  0
 18 19  2  0  0  0  0
 18 38  1  0  0  0  0
M  END
> <s_m_source_file>
AV-unprocessed.smi

> <i_m_source_file_index>
651

> <i_lp_mmshare_version>
43012

> <i_f3d_flags>
0

> <s_epik_input>
W0NIM11jMVtjSF1bY0hdYyhbY0hdbjEpW0NIMl1DKD1PKVtOSF1bQ0BASF0yW0NIMl1bQ0gyXVtDSDJdW0NASF0yQyg9TylbTkgyXQ==

> <s_epik_cmdline>
J2VwaWtfcHl0aG9uJywgJy1waCcsICc3LjAnLCAnLXRuJywgJzgnLCAnLW1hJywgJzIwMCcsICctbWV0YWxfYmluZGluZycsICctaW1hZScsICc8aW5maWxlLm1hZT4nLCAnLW9tYWUnLCAnPG91dGZpbGUubWFlPic=

> <r_epik_Ionization_Penalty>
0.0159502

> <r_epik_Ionization_Penalty_Charging>
0

> <r_epik_Ionization_Penalty_Neutral>
0.0159502

> <r_epik_State_Penalty>
0.012563

> <r_epik_Charging_Adjusted_Penalty>
0.012563

> <i_epik_Tot_Q>
0

> <i_epik_Tot_abs_Q>
0

> <r_epik_Metal_State_Penalty>
0.0122326

> <b_epik_Metal_Only>
0

> <s_lp_Force_Field>
OPLS_2005

> <r_lp_Energy>
13.1482

> <b_lp_Chiralities_Consistent>
1

> <s_lp_Variant>
AV-unprocessed.smi:651-3

> <Gold.Version>
5.8.1

> <Gold.Id.Protein>
6NUR|6NUR_protein|mol2

> <Gold.PLP.Fitness>
40.0225

> <Gold.PLP.PLP>
-36.0303

> <Gold.PLP.part.hbond>
-1.0000

> <Gold.PLP.part.metal>
0.0000

> <Gold.PLP.part.buried>
-3.7760

> <Gold.PLP.part.nonpolar>
-32.0342

> <Gold.PLP.part.repulsive>
0.2438

> <Gold.PLP.ligand.clash>
0.0000

> <Gold.PLP.ligand.torsion>
0.6659

> <Gold.PLP.Chemscore.Hbond>
0.8320

> <Gold.PLP.Chemscore.CHOScore>
0.9350

> <Gold.PLP.Chemscore.Metal>
0.0000

> <Gold.Chemscore.Hbonds>
donor molecule, donor type, donor heavy atom, donor atom, acceptor molecule, acceptor atom, score
      P1  H  7989  7998       L1     8  0.80
      L1  C    18    38       P1  8028  0.80

> <Gold.PLP.Chemscore.Internal.Correction>
0.0230

> <Gold.Rescore>
     Score         DG    S(hbond)    S(metal)    S(lipo)     H(rot)  DE(clash)    DE(int)     intcor
     13.41     -15.43       0.90        0.00     102.56       1.97       0.08       1.94       ----

> <Gold.Chemscore.Fitness>
13.4059

> <Gold.Chemscore.DG>
-15.4265

> <Gold.Chemscore.ZeroCoef>
-5.4800

> <Gold.Chemscore.Hbond>
0.8955

> <Gold.Chemscore.Metal>
0.0000

> <Gold.Chemscore.Lipo>
102.5629

> <Gold.Chemscore.Internal_Hbond>
0.0000

> <Gold.Chemscore.DEClash>
0.0837

> <Gold.Chemscore.DEInternal>
1.9369

> <Gold.Chemscore.Rot>
1.9704

> <Gold.Chemscore.Internal.Correction>
   9.000000E+99

> <Gold.Chemscore.Hbonds>
donor molecule, donor type, donor heavy atom, donor atom, acceptor molecule, acceptor atom, score
      P1  H  7989  7998       L1     8  0.80

> <Gold.Chemscore.Hbond.Weighted>
-2.9909

> <Gold.Chemscore.Metal.Weighted>
-0.0000

> <Gold.Chemscore.Lipo.Weighted>
-11.9999

> <Gold.Chemscore.Internal_Hbond.Weighted>
0.0000

> <Gold.Chemscore.DEClash.Weighted>
0.0837

> <Gold.Chemscore.DEInternal.Weighted>
1.9369

> <Gold.Chemscore.Rot.Weighted>
5.0443

> <Gold.Chemscore.Internal.Correction.Weighted>
   9.000000E+99

> <Gold.Protein.RotatedTorsions>
[ 6907 6896 6895 6894 ] final  139.50 input  -60.11 | X-H torsion
[ 7974 7965 7964 7962 ] final  161.65 input  175.53 | X-H torsion
[ 8008 7997 7996 7995 ] final   48.94 input   59.86 | X-H torsion
[ 10167 10162 10161 10158 ] final   10.86 input  -65.29 | X-H torsion
[ 10718 10713 10712 10709 ] final -171.28 input   66.30 | X-H torsion
[ 10763 10752 10751 10750 ] final   -7.92 input  -60.55 | X-H torsion
[ 11005 11000 10999 10996 ] final -106.54 input  -57.11 | X-H torsion

> <Gold.Protein.ActiveResidues>
 VAL166  LYS551  ARG553  GLY616  TRP617  ASP618  TYR619  PRO620  LYS621  CYS622 
 ASP623  PHE694  ASN695  SER759  ASP760  ASP761  ALA762  ILE779  LEU786  VAL792 
 PHE793  MET794  SER795  GLU796  ALA797  LYS798  CYS799  TRP800  GLU811  SER814 

> <Gold.Protein.RotatedAtoms>
  152.2542  133.5241  159.5342 H   0  0  0  0  0  0  0  0  0  0  0  0  # atno 6907 bound_to 6896
  150.7103  134.0919  159.3943 H   0  0  0  0  0  0  0  0  0  0  0  0  # atno 6908 bound_to 6896
  151.8838  135.0443  160.0542 H   0  0  0  0  0  0  0  0  0  0  0  0  # atno 6909 bound_to 6896
  144.7675  139.7927  143.6309 H   0  0  0  0  0  0  0  0  0  0  0  0  # atno 7974 bound_to 7965
  155.3939  140.3434  155.4253 H   0  0  0  0  0  0  0  0  0  0  0  0  # atno 8008 bound_to 7997
  156.1542  140.1580  156.8753 H   0  0  0  0  0  0  0  0  0  0  0  0  # atno 8009 bound_to 7997
  154.5079  140.0797  156.7914 H   0  0  0  0  0  0  0  0  0  0  0  0  # atno 8010 bound_to 7997
  140.6168  143.8291  150.7127 H   0  0  0  0  0  0  0  0  0  0  0  0  # atno 10167 bound_to 10162
  156.7385  130.9333  151.3109 H   0  0  0  0  0  0  0  0  0  0  0  0  # atno 10718 bound_to 10713
  153.4332  135.7012  153.6217 H   0  0  0  0  0  0  0  0  0  0  0  0  # atno 10763 bound_to 10752
  153.4623  135.3733  155.2345 H   0  0  0  0  0  0  0  0  0  0  0  0  # atno 10764 bound_to 10752
  154.8726  135.4023  154.3719 H   0  0  0  0  0  0  0  0  0  0  0  0  # atno 10765 bound_to 10752
  141.0999  133.8903  157.1868 H   0  0  0  0  0  0  0  0  0  0  0  0  # atno 11005 bound_to 11000
  146.1795  139.4981  142.9875 LP  0  0  0  0  0  0  0  0  0  0  0  0  # atno 17320 bound_to 7965
  145.6424  141.0281  143.1804 LP  0  0  0  0  0  0  0  0  0  0  0  0  # atno 17321 bound_to 7965
  140.1872  143.4066  152.1890 LP  0  0  0  0  0  0  0  0  0  0  0  0  # atno 17342 bound_to 10162
  139.5405  144.7252  151.4750 LP  0  0  0  0  0  0  0  0  0  0  0  0  # atno 17343 bound_to 10162
  157.6828  130.9157  150.0311 LP  0  0  0  0  0  0  0  0  0  0  0  0  # atno 17370 bound_to 10713
  156.1480  130.3642  149.9480 LP  0  0  0  0  0  0  0  0  0  0  0  0  # atno 17371 bound_to 10713
  139.9847  135.0086  156.9835 LP  0  0  0  0  0  0  0  0  0  0  0  0  # atno 17394 bound_to 11000
  140.5047  134.1062  155.7257 LP  0  0  0  0  0  0  0  0  0  0  0  0  # atno 17395 bound_to 11000

$$$$
