AV-unprocessed.smi:3165|AV-procd|sdf|12087|dock9
  -GOLD-   2272017513D 1   1.00000     0.00000
 Structure written by MMmdl.
 38 39  0  0  0  0  0  0  0  0  2 V2000
  149.0243  141.1680  156.2129 C   0  0  0  0  0  0  0  0  0  0  0  0
  150.3930  141.8617  156.2280 C   0  0  2  0  0  0  0  0  0  0  0  0
  151.5245  140.8326  156.4334 C   0  0  0  0  0  0  0  0  0  0  0  0
  151.4921  139.7548  155.4613 N   0  0  0  0  0  0  0  0  0  0  0  0
  152.2578  138.6086  155.4255 C   0  0  0  0  0  0  0  0  0  0  0  0
  151.8625  137.8910  154.3331 C   0  0  0  0  0  0  0  0  0  0  0  0
  150.8382  138.6913  153.7543 C   0  0  0  0  0  0  0  0  0  0  0  0
  150.6182  139.8063  154.4321 N   0  0  0  0  0  0  0  0  0  0  0  0
  150.4080  142.8938  157.2895 N   0  3  0  0  0  0  0  0  0  0  0  0
  151.7535  143.2891  157.7570 C   0  0  0  0  0  0  0  0  0  0  0  0
  152.0185  142.7658  159.1746 C   0  0  1  0  0  0  0  0  0  0  0  0
  153.4021  142.0963  159.2896 C   0  0  0  0  0  0  0  0  0  0  0  0
  153.6781  141.6726  160.7366 C   0  0  0  0  0  0  0  0  0  0  0  0
  153.4798  142.8698  161.6721 C   0  0  0  0  0  0  0  0  0  0  0  0
  152.1005  143.5059  161.4389 C   0  0  0  0  0  0  0  0  0  0  0  0
  151.9624  143.8747  160.0699 O   0  0  0  0  0  0  0  0  0  0  0  0
  148.9685  140.4261  155.4157 H   0  0  0  0  0  0  0  0  0  0  0  0
  148.2211  141.8867  156.0471 H   0  0  0  0  0  0  0  0  0  0  0  0
  148.8257  140.6577  157.1562 H   0  0  0  0  0  0  0  0  0  0  0  0
  150.5229  142.3425  155.2568 H   0  0  0  0  0  0  0  0  0  0  0  0
  152.5004  141.3197  156.3914 H   0  0  0  0  0  0  0  0  0  0  0  0
  151.4454  140.3869  157.4257 H   0  0  0  0  0  0  0  0  0  0  0  0
  153.0101  138.4005  156.1721 H   0  0  0  0  0  0  0  0  0  0  0  0
  152.2479  136.9396  153.9969 H   0  0  0  0  0  0  0  0  0  0  0  0
  150.2518  138.4962  152.8684 H   0  0  0  0  0  0  0  0  0  0  0  0
  149.9575  143.7235  156.9304 H   0  0  0  0  0  0  0  0  0  0  0  0
  152.5030  142.8873  157.0751 H   0  0  0  0  0  0  0  0  0  0  0  0
  151.8470  144.3756  157.7287 H   0  0  0  0  0  0  0  0  0  0  0  0
  151.2441  142.0431  159.4387 H   0  0  0  0  0  0  0  0  0  0  0  0
  153.4596  141.2287  158.6314 H   0  0  0  0  0  0  0  0  0  0  0  0
  154.1763  142.7905  158.9598 H   0  0  0  0  0  0  0  0  0  0  0  0
  152.9989  140.8677  161.0201 H   0  0  0  0  0  0  0  0  0  0  0  0
  154.6901  141.2782  160.8322 H   0  0  0  0  0  0  0  0  0  0  0  0
  153.5827  142.5579  162.7119 H   0  0  0  0  0  0  0  0  0  0  0  0
  154.2584  143.6115  161.4892 H   0  0  0  0  0  0  0  0  0  0  0  0
  151.3013  142.8200  161.7241 H   0  0  0  0  0  0  0  0  0  0  0  0
  151.9895  144.3973  162.0566 H   0  0  0  0  0  0  0  0  0  0  0  0
  149.8712  142.5533  158.0748 H   0  0  0  0  0  0  0  0  0  0  0  0
  1  2  1  0  0  0  0
  1 17  1  0  0  0  0
  1 18  1  0  0  0  0
  1 19  1  0  0  0  0
  2  3  1  0  0  0  0
  2  9  1  0  0  0  0
  2 20  1  0  0  0  0
  3  4  1  0  0  0  0
  3 21  1  0  0  0  0
  3 22  1  0  0  0  0
  4  8  1  0  0  0  0
  4  5  1  0  0  0  0
  5  6  2  0  0  0  0
  5 23  1  0  0  0  0
  6  7  1  0  0  0  0
  6 24  1  0  0  0  0
  7  8  2  0  0  0  0
  7 25  1  0  0  0  0
  9 10  1  0  0  0  0
  9 26  1  0  0  0  0
  9 38  1  0  0  0  0
 10 11  1  0  0  0  0
 10 27  1  0  0  0  0
 10 28  1  0  0  0  0
 11 16  1  0  0  0  0
 11 12  1  0  0  0  0
 11 29  1  0  0  0  0
 12 13  1  0  0  0  0
 12 30  1  0  0  0  0
 12 31  1  0  0  0  0
 13 14  1  0  0  0  0
 13 32  1  0  0  0  0
 13 33  1  0  0  0  0
 14 15  1  0  0  0  0
 14 34  1  0  0  0  0
 14 35  1  0  0  0  0
 15 16  1  0  0  0  0
 15 36  1  0  0  0  0
 15 37  1  0  0  0  0
M  CHG  1   9   1
M  END
> <s_m_source_file>
AV-unprocessed.smi

> <i_m_source_file_index>
3165

> <i_lp_mmshare_version>
43012

> <i_f3d_flags>
0

> <s_epik_input>
bjFbY0hdW2NIXVtjSF1uMVtDSDJdW0NAQEhdKFtDSDNdKVtOSF1bQ0gyXVtDQEBIXTJbQ0gyXVtDSDJdW0NIMl1bQ0gyXU8y

> <s_epik_cmdline>
J2VwaWtfcHl0aG9uJywgJy1waCcsICc3LjAnLCAnLXRuJywgJzgnLCAnLW1hJywgJzIwMCcsICctbWV0YWxfYmluZGluZycsICctaW1hZScsICc8aW5maWxlLm1hZT4nLCAnLW9tYWUnLCAnPG91dGZpbGUubWFlPic=

> <r_lp_tautomer_probability>
1

> <r_epik_Ionization_Penalty>
0.00849196

> <r_epik_Ionization_Penalty_Charging>
0.00848754

> <r_epik_Ionization_Penalty_Neutral>
4.42049e-06

> <r_epik_State_Penalty>
0.00639836

> <r_epik_Charging_Adjusted_Penalty>
0.0148859

> <i_epik_Tot_Q>
1

> <i_epik_Tot_abs_Q>
1

> <r_epik_Metal_State_Penalty>
0.00639878

> <b_epik_Metal_Only>
0

> <s_lp_Force_Field>
OPLS_2005

> <r_lp_Energy>
13.1527

> <b_lp_Chiralities_Consistent>
1

> <s_lp_Variant>
AV-unprocessed.smi:3165-3

> <Gold.Version>
5.8.1

> <Gold.Id.Protein>
6NUR|6NUR_protein|mol2

> <Gold.PLP.Fitness>
48.9443

> <Gold.PLP.PLP>
-38.1449

> <Gold.PLP.part.hbond>
-2.0000

> <Gold.PLP.part.metal>
0.0000

> <Gold.PLP.part.buried>
-5.7686

> <Gold.PLP.part.nonpolar>
-31.0728

> <Gold.PLP.part.repulsive>
0.1498

> <Gold.PLP.ligand.clash>
0.0000

> <Gold.PLP.ligand.torsion>
1.3046

> <Gold.PLP.Chemscore.Hbond>
3.0000

> <Gold.PLP.Chemscore.CHOScore>
1.4599

> <Gold.PLP.Chemscore.Metal>
0.0000

> <Gold.Chemscore.Hbonds>
donor molecule, donor type, donor heavy atom, donor atom, acceptor molecule, acceptor atom, score
      L1  H     9    26       P1  8028  2.00
      P1  H  7989  7998       L1     8  0.63
      L1  C     7    25       P1  7948  0.43
      L1  C     7    25       P1  7957  0.97

> <Gold.PLP.Chemscore.Internal.Correction>
0.0290

> <Gold.Rescore>
     Score         DG    S(hbond)    S(metal)    S(lipo)     H(rot)  DE(clash)    DE(int)     intcor
     17.73     -20.28       1.83        0.00     110.19       1.64       0.19       2.36       ----

> <Gold.Chemscore.Fitness>
17.7283

> <Gold.Chemscore.DG>
-20.2805

> <Gold.Chemscore.ZeroCoef>
-5.4800

> <Gold.Chemscore.Hbond>
1.8316

> <Gold.Chemscore.Metal>
0.0000

> <Gold.Chemscore.Lipo>
110.1926

> <Gold.Chemscore.Internal_Hbond>
0.0000

> <Gold.Chemscore.DEClash>
0.1891

> <Gold.Chemscore.DEInternal>
2.3631

> <Gold.Chemscore.Rot>
1.6444

> <Gold.Chemscore.Internal.Correction>
   9.000000E+99

> <Gold.Chemscore.Hbonds>
donor molecule, donor type, donor heavy atom, donor atom, acceptor molecule, acceptor atom, score
      L1  H     9    26       P1  8028  0.97
      P1  H  7989  7998       L1     8  0.01

> <Gold.Chemscore.Hbond.Weighted>
-6.1176

> <Gold.Chemscore.Metal.Weighted>
-0.0000

> <Gold.Chemscore.Lipo.Weighted>
-12.8925

> <Gold.Chemscore.Internal_Hbond.Weighted>
0.0000

> <Gold.Chemscore.DEClash.Weighted>
0.1891

> <Gold.Chemscore.DEInternal.Weighted>
2.3631

> <Gold.Chemscore.Rot.Weighted>
4.2097

> <Gold.Chemscore.Internal.Correction.Weighted>
   9.000000E+99

> <Gold.Protein.RotatedTorsions>
[ 6907 6896 6895 6894 ] final  -89.28 input  -60.11 | X-H torsion
[ 7974 7965 7964 7962 ] final  172.81 input  175.53 | X-H torsion
[ 8008 7997 7996 7995 ] final   48.30 input   59.86 | X-H torsion
[ 10167 10162 10161 10158 ] final -177.35 input  -65.29 | X-H torsion
[ 10718 10713 10712 10709 ] final  127.33 input   66.30 | X-H torsion
[ 10763 10752 10751 10750 ] final   24.00 input  -60.55 | X-H torsion
[ 11005 11000 10999 10996 ] final  151.26 input  -57.11 | X-H torsion

> <Gold.Protein.ActiveResidues>
 VAL166  LYS551  ARG553  GLY616  TRP617  ASP618  TYR619  PRO620  LYS621  CYS622 
 ASP623  PHE694  ASN695  SER759  ASP760  ASP761  ALA762  ILE779  LEU786  VAL792 
 PHE793  MET794  SER795  GLU796  ALA797  LYS798  CYS799  TRP800  GLU811  SER814 

> <Gold.Protein.RotatedAtoms>
  150.6873  134.2611  159.4549 H   0  0  0  0  0  0  0  0  0  0  0  0  # atno 6907 bound_to 6896
  152.0541  134.9632  160.0584 H   0  0  0  0  0  0  0  0  0  0  0  0  # atno 6908 bound_to 6896
  152.1085  133.4253  159.4657 H   0  0  0  0  0  0  0  0  0  0  0  0  # atno 6909 bound_to 6896
  144.7259  139.9553  143.6433 H   0  0  0  0  0  0  0  0  0  0  0  0  # atno 7974 bound_to 7965
  155.3834  140.3429  155.4248 H   0  0  0  0  0  0  0  0  0  0  0  0  # atno 8008 bound_to 7997
  156.1598  140.1597  156.8665 H   0  0  0  0  0  0  0  0  0  0  0  0  # atno 8009 bound_to 7997
  154.5129  140.0785  156.8006 H   0  0  0  0  0  0  0  0  0  0  0  0  # atno 8010 bound_to 7997
  139.5484  144.2174  152.1032 H   0  0  0  0  0  0  0  0  0  0  0  0  # atno 10167 bound_to 10162
  157.5342  131.1098  150.8962 H   0  0  0  0  0  0  0  0  0  0  0  0  # atno 10718 bound_to 10713
  153.0796  135.6615  154.0072 H   0  0  0  0  0  0  0  0  0  0  0  0  # atno 10763 bound_to 10752
  153.9697  135.2966  155.3429 H   0  0  0  0  0  0  0  0  0  0  0  0  # atno 10764 bound_to 10752
  154.7193  135.5172  153.8857 H   0  0  0  0  0  0  0  0  0  0  0  0  # atno 10765 bound_to 10752
  140.1203  134.8868  157.2063 H   0  0  0  0  0  0  0  0  0  0  0  0  # atno 11005 bound_to 11000
  146.0679  139.3669  143.0541 LP  0  0  0  0  0  0  0  0  0  0  0  0  # atno 17320 bound_to 7965
  145.8006  140.9772  143.1001 LP  0  0  0  0  0  0  0  0  0  0  0  0  # atno 17321 bound_to 7965
  140.1664  144.4977  150.6603 LP  0  0  0  0  0  0  0  0  0  0  0  0  # atno 17342 bound_to 10162
  140.6740  143.2297  151.5555 LP  0  0  0  0  0  0  0  0  0  0  0  0  # atno 17343 bound_to 10162
  156.9534  130.5428  149.5283 LP  0  0  0  0  0  0  0  0  0  0  0  0  # atno 17370 bound_to 10713
  156.0445  130.5524  150.8849 LP  0  0  0  0  0  0  0  0  0  0  0  0  # atno 17371 bound_to 10713
  140.2974  134.3171  155.7299 LP  0  0  0  0  0  0  0  0  0  0  0  0  # atno 17394 bound_to 11000
  141.2150  133.7571  156.9591 LP  0  0  0  0  0  0  0  0  0  0  0  0  # atno 17395 bound_to 11000

$$$$
