AV-unprocessed.smi:3345|AV-procd|sdf|12900|dock2
  -GOLD-   2272019313D 1   1.00000     0.00000
 Structure written by MMmdl.
 40 41  0  0  0  0  0  0  0  0  1 V2000
  150.8681  139.5552  156.3105 C   0  0  0  0  0  0  0  0  0  0  0  0
  149.9904  140.7421  156.7370 C   0  0  1  0  0  0  0  0  0  0  0  0
  150.7590  142.0783  156.6418 C   0  0  0  0  0  0  0  0  0  0  0  0
  151.1403  142.6705  157.9244 N   0  0  0  0  0  0  0  0  0  0  0  0
  151.7522  143.9894  157.7781 C   0  0  0  0  0  0  0  0  0  0  0  0
  152.1730  144.5831  159.1339 C   0  0  0  0  0  0  0  0  0  0  0  0
  153.0524  143.6831  159.7999 O   0  0  0  0  0  0  0  0  0  0  0  0
  152.4698  142.4007  160.0070 C   0  0  0  0  0  0  0  0  0  0  0  0
  152.0576  141.7997  158.6520 C   0  0  0  0  0  0  0  0  0  0  0  0
  148.8115  140.7838  155.8747 N   0  0  0  0  0  0  0  0  0  0  0  0
  148.8227  140.9633  154.5441 C   0  0  0  0  0  0  0  0  0  0  0  0
  149.8564  141.1016  153.8894 O   0  0  0  0  0  0  0  0  0  0  0  0
  147.4534  141.0029  153.8514 C   0  0  2  0  0  0  0  0  0  0  0  0
  146.5758  142.1564  154.3779 C   0  0  0  0  0  0  0  0  0  0  0  0
  146.8029  139.7025  153.9646 N   0  0  0  0  0  0  0  0  0  0  0  0
  147.1247  138.5342  153.4043 C   0  0  0  0  0  0  0  0  0  0  0  0
  146.3427  137.5274  153.7676 N   0  0  0  0  0  0  0  0  0  0  0  0
  145.5090  138.1853  154.6263 C   0  0  0  0  0  0  0  0  0  0  0  0
  145.7476  139.4862  154.7897 N   0  0  0  0  0  0  0  0  0  0  0  0
  151.7504  139.4714  156.9457 H   0  0  0  0  0  0  0  0  0  0  0  0
  151.2086  139.6621  155.2798 H   0  0  0  0  0  0  0  0  0  0  0  0
  150.3220  138.6141  156.3855 H   0  0  0  0  0  0  0  0  0  0  0  0
  149.7006  140.5783  157.7768 H   0  0  0  0  0  0  0  0  0  0  0  0
  151.6765  141.8897  156.0829 H   0  0  0  0  0  0  0  0  0  0  0  0
  150.2014  142.7990  156.0410 H   0  0  0  0  0  0  0  0  0  0  0  0
  152.6244  143.9227  157.1260 H   0  0  0  0  0  0  0  0  0  0  0  0
  151.0553  144.6776  157.3007 H   0  0  0  0  0  0  0  0  0  0  0  0
  152.6804  145.5369  158.9891 H   0  0  0  0  0  0  0  0  0  0  0  0
  151.2991  144.7766  159.7578 H   0  0  0  0  0  0  0  0  0  0  0  0
  153.1938  141.7552  160.5043 H   0  0  0  0  0  0  0  0  0  0  0  0
  151.6077  142.4870  160.6705 H   0  0  0  0  0  0  0  0  0  0  0  0
  151.5922  140.8275  158.8182 H   0  0  0  0  0  0  0  0  0  0  0  0
  152.9509  141.6193  158.0518 H   0  0  0  0  0  0  0  0  0  0  0  0
  147.9159  140.6753  156.3280 H   0  0  0  0  0  0  0  0  0  0  0  0
  147.6164  141.1825  152.7872 H   0  0  0  0  0  0  0  0  0  0  0  0
  147.0636  143.1196  154.2239 H   0  0  0  0  0  0  0  0  0  0  0  0
  146.3655  142.0621  155.4442 H   0  0  0  0  0  0  0  0  0  0  0  0
  145.6201  142.1874  153.8538 H   0  0  0  0  0  0  0  0  0  0  0  0
  147.9523  138.4168  152.7203 H   0  0  0  0  0  0  0  0  0  0  0  0
  144.7060  137.6894  155.1518 H   0  0  0  0  0  0  0  0  0  0  0  0
  1  2  1  0  0  0  0
  1 20  1  0  0  0  0
  1 21  1  0  0  0  0
  1 22  1  0  0  0  0
  2  3  1  0  0  0  0
  2 10  1  0  0  0  0
  2 23  1  0  0  0  0
  3  4  1  0  0  0  0
  3 24  1  0  0  0  0
  3 25  1  0  0  0  0
  4  9  1  0  0  0  0
  4  5  1  0  0  0  0
  5  6  1  0  0  0  0
  5 26  1  0  0  0  0
  5 27  1  0  0  0  0
  6  7  1  0  0  0  0
  6 28  1  0  0  0  0
  6 29  1  0  0  0  0
  7  8  1  0  0  0  0
  8  9  1  0  0  0  0
  8 30  1  0  0  0  0
  8 31  1  0  0  0  0
  9 32  1  0  0  0  0
  9 33  1  0  0  0  0
 10 11  1  0  0  0  0
 10 34  1  0  0  0  0
 11 12  2  0  0  0  0
 11 13  1  0  0  0  0
 13 14  1  0  0  0  0
 13 15  1  0  0  0  0
 13 35  1  0  0  0  0
 14 36  1  0  0  0  0
 14 37  1  0  0  0  0
 14 38  1  0  0  0  0
 15 19  1  0  0  0  0
 15 16  1  0  0  0  0
 16 17  2  0  0  0  0
 16 39  1  0  0  0  0
 17 18  1  0  0  0  0
 18 19  2  0  0  0  0
 18 40  1  0  0  0  0
M  END
> <s_m_source_file>
AV-unprocessed.smi

> <i_m_source_file_index>
3345

> <i_lp_mmshare_version>
43012

> <i_f3d_flags>
0

> <s_epik_input>
W0NIMl0xW0NIMl1PW0NIMl1bQ0gyXU4xW0NIMl1bQ0BASF0oW0NIM10pW05IXUMoPU8pW0NASF0oW0NIM10pbjJbY0hdbltjSF1uMg==

> <s_epik_cmdline>
J2VwaWtfcHl0aG9uJywgJy1waCcsICc3LjAnLCAnLXRuJywgJzgnLCAnLW1hJywgJzIwMCcsICctbWV0YWxfYmluZGluZycsICctaW1hZScsICc8aW5maWxlLm1hZT4nLCAnLW9tYWUnLCAnPG91dGZpbGUubWFlPic=

> <r_lp_tautomer_probability>
1

> <r_epik_Ionization_Penalty>
0.211373

> <r_epik_Ionization_Penalty_Charging>
0

> <r_epik_Ionization_Penalty_Neutral>
0.211373

> <r_epik_State_Penalty>
0.201459

> <r_epik_Charging_Adjusted_Penalty>
0.201459

> <i_epik_Tot_Q>
0

> <i_epik_Tot_abs_Q>
0

> <r_epik_Metal_State_Penalty>
0.201458

> <b_epik_Metal_Only>
0

> <s_lp_Force_Field>
OPLS_2005

> <r_lp_Energy>
31.9378

> <b_lp_Chiralities_Consistent>
1

> <s_lp_Variant>
AV-unprocessed.smi:3345-2

> <Gold.Version>
5.8.1

> <Gold.Id.Protein>
6NUR|6NUR_protein|mol2

> <Gold.PLP.Fitness>
38.7649

> <Gold.PLP.PLP>
-31.9752

> <Gold.PLP.part.hbond>
-1.3428

> <Gold.PLP.part.metal>
0.0000

> <Gold.PLP.part.buried>
-2.9524

> <Gold.PLP.part.nonpolar>
-30.8566

> <Gold.PLP.part.repulsive>
2.1353

> <Gold.PLP.ligand.clash>
0.0000

> <Gold.PLP.ligand.torsion>
1.0328

> <Gold.PLP.Chemscore.Hbond>
1.1040

> <Gold.PLP.Chemscore.CHOScore>
1.7663

> <Gold.PLP.Chemscore.Metal>
0.0000

> <Gold.Chemscore.Hbonds>
donor molecule, donor type, donor heavy atom, donor atom, acceptor molecule, acceptor atom, score
      P1  H  7989  7998       L1    12  0.37
      P1  H  8011  8017       L1    12  0.82
      L1  C    16    39       P1  7948  0.97
      L1  C    16    39       P1  7957  0.39

> <Gold.PLP.Chemscore.Internal.Correction>
0.2445

> <Gold.Rescore>
     Score         DG    S(hbond)    S(metal)    S(lipo)     H(rot)  DE(clash)    DE(int)     intcor
      8.96     -12.44       1.23        0.00      79.77       2.54       1.43       2.05       ----

> <Gold.Chemscore.Fitness>
8.9649

> <Gold.Chemscore.DG>
-12.4449

> <Gold.Chemscore.ZeroCoef>
-5.4800

> <Gold.Chemscore.Hbond>
1.2344

> <Gold.Chemscore.Metal>
0.0000

> <Gold.Chemscore.Lipo>
79.7663

> <Gold.Chemscore.Internal_Hbond>
0.0000

> <Gold.Chemscore.DEClash>
1.4301

> <Gold.Chemscore.DEInternal>
2.0499

> <Gold.Chemscore.Rot>
2.5353

> <Gold.Chemscore.Internal.Correction>
   9.000000E+99

> <Gold.Chemscore.Hbonds>
donor molecule, donor type, donor heavy atom, donor atom, acceptor molecule, acceptor atom, score
      P1  H  7989  7998       L1    12  0.36
      P1  H  8011  8017       L1    12  0.74

> <Gold.Chemscore.Hbond.Weighted>
-4.1227

> <Gold.Chemscore.Metal.Weighted>
-0.0000

> <Gold.Chemscore.Lipo.Weighted>
-9.3327

> <Gold.Chemscore.Internal_Hbond.Weighted>
0.0000

> <Gold.Chemscore.DEClash.Weighted>
1.4301

> <Gold.Chemscore.DEInternal.Weighted>
2.0499

> <Gold.Chemscore.Rot.Weighted>
6.4905

> <Gold.Chemscore.Internal.Correction.Weighted>
   9.000000E+99

> <Gold.Protein.RotatedTorsions>
[ 6907 6896 6895 6894 ] final  -19.32 input  -60.11 | X-H torsion
[ 7974 7965 7964 7962 ] final   32.85 input  175.53 | X-H torsion
[ 8008 7997 7996 7995 ] final -131.13 input   59.86 | X-H torsion
[ 10167 10162 10161 10158 ] final   51.06 input  -65.29 | X-H torsion
[ 10718 10713 10712 10709 ] final  172.39 input   66.30 | X-H torsion
[ 10763 10752 10751 10750 ] final  136.14 input  -60.55 | X-H torsion
[ 11005 11000 10999 10996 ] final  112.08 input  -57.11 | X-H torsion

> <Gold.Protein.ActiveResidues>
 VAL166  LYS551  ARG553  GLY616  TRP617  ASP618  TYR619  PRO620  LYS621  CYS622 
 ASP623  PHE694  ASN695  SER759  ASP760  ASP761  ALA762  ILE779  LEU786  VAL792 
 PHE793  MET794  SER795  GLU796  ALA797  LYS798  CYS799  TRP800  GLU811  SER814 

> <Gold.Protein.RotatedAtoms>
  151.2649  135.0666  159.9111 H   0  0  0  0  0  0  0  0  0  0  0  0  # atno 6907 bound_to 6896
  152.5360  134.0192  159.7984 H   0  0  0  0  0  0  0  0  0  0  0  0  # atno 6908 bound_to 6896
  151.0421  133.5647  159.2681 H   0  0  0  0  0  0  0  0  0  0  0  0  # atno 6909 bound_to 6896
  146.1459  139.6472  142.9131 H   0  0  0  0  0  0  0  0  0  0  0  0  # atno 7974 bound_to 7965
  155.3072  140.0455  157.3033 H   0  0  0  0  0  0  0  0  0  0  0  0  # atno 8008 bound_to 7997
  154.5453  140.2300  155.8540 H   0  0  0  0  0  0  0  0  0  0  0  0  # atno 8009 bound_to 7997
  156.1918  140.3048  155.9355 H   0  0  0  0  0  0  0  0  0  0  0  0  # atno 8010 bound_to 7997
  140.2659  144.3321  150.6304 H   0  0  0  0  0  0  0  0  0  0  0  0  # atno 10167 bound_to 10162
  156.9796  131.0115  151.2885 H   0  0  0  0  0  0  0  0  0  0  0  0  # atno 10718 bound_to 10713
  153.8517  135.3078  155.3433 H   0  0  0  0  0  0  0  0  0  0  0  0  # atno 10763 bound_to 10752
  154.7888  135.4794  154.0009 H   0  0  0  0  0  0  0  0  0  0  0  0  # atno 10764 bound_to 10752
  153.1514  135.6844  153.8969 H   0  0  0  0  0  0  0  0  0  0  0  0  # atno 10765 bound_to 10752
  139.8919  134.9522  156.6531 H   0  0  0  0  0  0  0  0  0  0  0  0  # atno 11005 bound_to 11000
  145.4938  141.0438  143.2578 LP  0  0  0  0  0  0  0  0  0  0  0  0  # atno 17320 bound_to 7965
  144.7846  139.6454  143.7139 LP  0  0  0  0  0  0  0  0  0  0  0  0  # atno 17321 bound_to 7965
  140.5929  143.2167  151.7219 LP  0  0  0  0  0  0  0  0  0  0  0  0  # atno 17342 bound_to 10162
  139.5003  144.3912  152.0278 LP  0  0  0  0  0  0  0  0  0  0  0  0  # atno 17343 bound_to 10162
  157.5536  130.8198  149.8175 LP  0  0  0  0  0  0  0  0  0  0  0  0  # atno 17370 bound_to 10713
  156.0250  130.3782  150.1850 LP  0  0  0  0  0  0  0  0  0  0  0  0  # atno 17371 bound_to 10713
  140.7505  133.8901  155.8343 LP  0  0  0  0  0  0  0  0  0  0  0  0  # atno 17394 bound_to 11000
  141.0004  134.1158  157.4322 LP  0  0  0  0  0  0  0  0  0  0  0  0  # atno 17395 bound_to 11000

$$$$
