AV-unprocessed.smi:2605|AV-procd|sdf|10193|dock8
  -GOLD-   2272014203D 1   1.00000     0.00000
 Structure written by MMmdl.
 26 27  0  0  0  0  0  0  0  0  2 V2000
  151.3159  137.6318  154.3394 C   0  0  0  0  0  0  0  0  0  0  0  0
  150.2998  138.5948  154.1759 C   0  0  0  0  0  0  0  0  0  0  0  0
  150.4130  139.8189  154.8674 C   0  0  0  0  0  0  0  0  0  0  0  0
  149.3438  140.8889  154.7133 C   0  0  2  0  0  0  0  0  0  0  0  0
  148.6073  141.1419  156.0485 C   0  0  0  0  0  0  0  0  0  0  0  0
  147.6008  142.2118  155.8903 N   0  3  0  0  0  0  0  0  0  0  0  0
  146.6598  141.9000  154.7964 C   0  0  0  0  0  0  0  0  0  0  0  0
  147.4357  141.6449  153.4915 C   0  0  0  0  0  0  0  0  0  0  0  0
  148.3684  140.5383  153.6809 N   0  0  0  0  0  0  0  0  0  0  0  0
  151.5443  140.0240  155.6870 C   0  0  0  0  0  0  0  0  0  0  0  0
  152.5033  138.9958  155.7817 C   0  0  0  0  0  0  0  0  0  0  0  0
  152.3979  137.8215  155.1241 N   0  0  0  0  0  0  0  0  0  0  0  0
  151.2576  136.6839  153.8252 H   0  0  0  0  0  0  0  0  0  0  0  0
  149.4548  138.3919  153.5343 H   0  0  0  0  0  0  0  0  0  0  0  0
  149.8434  141.8081  154.4024 H   0  0  0  0  0  0  0  0  0  0  0  0
  148.1150  140.2334  156.3997 H   0  0  0  0  0  0  0  0  0  0  0  0
  149.3148  141.4406  156.8226 H   0  0  0  0  0  0  0  0  0  0  0  0
  147.0895  142.3240  156.7540 H   0  0  0  0  0  0  0  0  0  0  0  0
  146.0629  141.0271  155.0655 H   0  0  0  0  0  0  0  0  0  0  0  0
  145.9695  142.7344  154.6711 H   0  0  0  0  0  0  0  0  0  0  0  0
  146.7438  141.3896  152.6885 H   0  0  0  0  0  0  0  0  0  0  0  0
  147.9755  142.5392  153.1765 H   0  0  0  0  0  0  0  0  0  0  0  0
  148.8502  140.3410  152.8145 H   0  0  0  0  0  0  0  0  0  0  0  0
  151.6783  140.9460  156.2335 H   0  0  0  0  0  0  0  0  0  0  0  0
  153.3786  139.1208  156.4017 H   0  0  0  0  0  0  0  0  0  0  0  0
  148.0768  143.0753  155.6715 H   0  0  0  0  0  0  0  0  0  0  0  0
  1 12  1  0  0  0  0
  1  2  2  0  0  0  0
  1 13  1  0  0  0  0
  2  3  1  0  0  0  0
  2 14  1  0  0  0  0
  3  4  1  0  0  0  0
  3 10  2  0  0  0  0
  4  9  1  0  0  0  0
  4  5  1  0  0  0  0
  4 15  1  0  0  0  0
  5  6  1  0  0  0  0
  5 16  1  0  0  0  0
  5 17  1  0  0  0  0
  6  7  1  0  0  0  0
  6 18  1  0  0  0  0
  6 26  1  0  0  0  0
  7  8  1  0  0  0  0
  7 19  1  0  0  0  0
  7 20  1  0  0  0  0
  8  9  1  0  0  0  0
  8 21  1  0  0  0  0
  8 22  1  0  0  0  0
  9 23  1  0  0  0  0
 10 11  1  0  0  0  0
 10 24  1  0  0  0  0
 11 12  2  0  0  0  0
 11 25  1  0  0  0  0
M  CHG  1   6   1
M  END
> <s_m_source_file>
AV-unprocessed.smi

> <i_m_source_file_index>
2605

> <i_lp_mmshare_version>
43012

> <i_f3d_flags>
0

> <s_epik_input>
W2NIXTFbY0hdbltjSF1bY0hdYzFbQ0BASF0yW0NIMl1bTkhdW0NIMl1bQ0gyXVtOSF0y

> <s_epik_cmdline>
J2VwaWtfcHl0aG9uJywgJy1waCcsICc3LjAnLCAnLXRuJywgJzgnLCAnLW1hJywgJzIwMCcsICctbWV0YWxfYmluZGluZycsICctaW1hZScsICc8aW5maWxlLm1hZT4nLCAnLW9tYWUnLCAnPG91dGZpbGUubWFlPic=

> <r_epik_Ionization_Penalty>
0.0197506

> <r_epik_Ionization_Penalty_Charging>
0.010317

> <r_epik_Ionization_Penalty_Neutral>
0.00943359

> <r_epik_State_Penalty>
0.319455

> <r_epik_Charging_Adjusted_Penalty>
0.329772

> <i_epik_Tot_Q>
1

> <i_epik_Tot_abs_Q>
1

> <r_epik_Metal_State_Penalty>
0.318246

> <b_epik_Metal_Only>
0

> <s_lp_Force_Field>
OPLS_2005

> <r_lp_Energy>
9.79217

> <b_lp_Chiralities_Consistent>
1

> <s_lp_Variant>
AV-unprocessed.smi:2605-1

> <Gold.Version>
5.8.1

> <Gold.Id.Protein>
6NUR|6NUR_protein|mol2

> <Gold.PLP.Fitness>
38.1753

> <Gold.PLP.PLP>
-26.3282

> <Gold.PLP.part.hbond>
-2.8376

> <Gold.PLP.part.metal>
0.0000

> <Gold.PLP.part.buried>
-2.4165

> <Gold.PLP.part.nonpolar>
-21.5114

> <Gold.PLP.part.repulsive>
0.0790

> <Gold.PLP.ligand.clash>
0.0000

> <Gold.PLP.ligand.torsion>
0.0801

> <Gold.PLP.Chemscore.Hbond>
3.0000

> <Gold.PLP.Chemscore.CHOScore>
1.0000

> <Gold.PLP.Chemscore.Metal>
0.0000

> <Gold.Chemscore.Hbonds>
donor molecule, donor type, donor heavy atom, donor atom, acceptor molecule, acceptor atom, score
      L1  H     6    26       P1  8028  2.00
      L1  H     9    23       P1  7957  1.00
      L1  C     1    13       P1  7949  1.00

> <Gold.PLP.Chemscore.Internal.Correction>
0.0074

> <Gold.Rescore>
     Score         DG    S(hbond)    S(metal)    S(lipo)     H(rot)  DE(clash)    DE(int)     intcor
     13.90     -15.46       1.52        0.00      63.89       1.00       1.45       0.10       ----

> <Gold.Chemscore.Fitness>
13.9036

> <Gold.Chemscore.DG>
-15.4598

> <Gold.Chemscore.ZeroCoef>
-5.4800

> <Gold.Chemscore.Hbond>
1.5164

> <Gold.Chemscore.Metal>
0.0000

> <Gold.Chemscore.Lipo>
63.8889

> <Gold.Chemscore.Internal_Hbond>
0.0000

> <Gold.Chemscore.DEClash>
1.4535

> <Gold.Chemscore.DEInternal>
0.1027

> <Gold.Chemscore.Rot>
1.0000

> <Gold.Chemscore.Internal.Correction>
   9.000000E+99

> <Gold.Chemscore.Hbonds>
donor molecule, donor type, donor heavy atom, donor atom, acceptor molecule, acceptor atom, score
      L1  H     6    26       P1  8028  0.78
      L1  H     9    23       P1  7957  1.00

> <Gold.Chemscore.Hbond.Weighted>
-5.0648

> <Gold.Chemscore.Metal.Weighted>
-0.0000

> <Gold.Chemscore.Lipo.Weighted>
-7.4750

> <Gold.Chemscore.Internal_Hbond.Weighted>
0.0000

> <Gold.Chemscore.DEClash.Weighted>
1.4535

> <Gold.Chemscore.DEInternal.Weighted>
0.1027

> <Gold.Chemscore.Rot.Weighted>
2.5600

> <Gold.Chemscore.Internal.Correction.Weighted>
   9.000000E+99

> <Gold.Protein.RotatedTorsions>
[ 6907 6896 6895 6894 ] final -110.41 input  -60.11 | X-H torsion
[ 7974 7965 7964 7962 ] final  135.86 input  175.53 | X-H torsion
[ 8008 7997 7996 7995 ] final   74.10 input   59.86 | X-H torsion
[ 10167 10162 10161 10158 ] final   81.14 input  -65.29 | X-H torsion
[ 10718 10713 10712 10709 ] final   23.38 input   66.30 | X-H torsion
[ 10763 10752 10751 10750 ] final  128.69 input  -60.55 | X-H torsion
[ 11005 11000 10999 10996 ] final -123.87 input  -57.11 | X-H torsion

> <Gold.Protein.ActiveResidues>
 VAL166  LYS551  ARG553  GLY616  TRP617  ASP618  TYR619  PRO620  LYS621  CYS622 
 ASP623  PHE694  ASN695  SER759  ASP760  ASP761  ALA762  ILE779  LEU786  VAL792 
 PHE793  MET794  SER795  GLU796  ALA797  LYS798  CYS799  TRP800  GLU811  SER814 

> <Gold.Protein.RotatedAtoms>
  150.7623  133.9386  159.3448 H   0  0  0  0  0  0  0  0  0  0  0  0  # atno 6907 bound_to 6896
  151.7292  135.0876  160.0306 H   0  0  0  0  0  0  0  0  0  0  0  0  # atno 6908 bound_to 6896
  152.3600  133.6248  159.6044 H   0  0  0  0  0  0  0  0  0  0  0  0  # atno 6909 bound_to 6896
  144.9622  139.4698  143.5474 H   0  0  0  0  0  0  0  0  0  0  0  0  # atno 7974 bound_to 7965
  155.7934  140.3478  155.5362 H   0  0  0  0  0  0  0  0  0  0  0  0  # atno 8008 bound_to 7997
  155.8610  140.0971  157.1633 H   0  0  0  0  0  0  0  0  0  0  0  0  # atno 8009 bound_to 7997
  154.4012  140.1358  156.3948 H   0  0  0  0  0  0  0  0  0  0  0  0  # atno 8010 bound_to 7997
  139.9424  144.6081  150.8239 H   0  0  0  0  0  0  0  0  0  0  0  0  # atno 10167 bound_to 10162
  157.1653  130.6735  149.6058 H   0  0  0  0  0  0  0  0  0  0  0  0  # atno 10718 bound_to 10713
  153.7296  135.3240  155.3283 H   0  0  0  0  0  0  0  0  0  0  0  0  # atno 10763 bound_to 10752
  154.8330  135.4519  154.1135 H   0  0  0  0  0  0  0  0  0  0  0  0  # atno 10764 bound_to 10752
  153.2279  135.6956  153.8005 H   0  0  0  0  0  0  0  0  0  0  0  0  # atno 10765 bound_to 10752
  140.9885  134.0573  157.3682 H   0  0  0  0  0  0  0  0  0  0  0  0  # atno 11005 bound_to 11000
  146.3356  139.8779  142.8829 LP  0  0  0  0  0  0  0  0  0  0  0  0  # atno 17320 bound_to 7965
  145.2683  141.0100  143.3786 LP  0  0  0  0  0  0  0  0  0  0  0  0  # atno 17321 bound_to 7965
  140.7607  143.3157  151.2739 LP  0  0  0  0  0  0  0  0  0  0  0  0  # atno 17342 bound_to 10162
  139.6694  144.0047  152.2743 LP  0  0  0  0  0  0  0  0  0  0  0  0  # atno 17343 bound_to 10162
  155.9747  130.4697  150.6406 LP  0  0  0  0  0  0  0  0  0  0  0  0  # atno 17370 bound_to 10713
  157.4094  131.0821  151.1235 LP  0  0  0  0  0  0  0  0  0  0  0  0  # atno 17371 bound_to 10713
  139.8981  135.0153  156.7134 LP  0  0  0  0  0  0  0  0  0  0  0  0  # atno 17394 bound_to 11000
  140.7077  133.9251  155.8064 LP  0  0  0  0  0  0  0  0  0  0  0  0  # atno 17395 bound_to 11000

$$$$
