AV-unprocessed.smi:3318|AV-procd|sdf|12765|dock10
  -GOLD-   2272019103D 1   1.00000     0.00000
 Structure written by MMmdl.
 44 45  0  0  0  0  0  0  0  0  2 V2000
  145.1753  133.2265  150.7598 C   0  0  0  0  0  0  0  0  0  0  0  0
  145.7109  134.6540  150.9159 C   0  0  0  0  0  0  0  0  0  0  0  0
  145.8653  135.0629  152.3910 C   0  0  0  0  0  0  0  0  0  0  0  0
  146.5198  136.3865  152.5500 N   0  3  2  0  0  0  0  0  0  0  0  0
  146.5391  136.8687  153.9568 C   0  0  0  0  0  0  0  0  0  0  0  0
  147.3344  138.1787  154.0873 C   0  0  0  0  0  0  0  0  0  0  0  0
  146.7708  139.2659  153.1516 C   0  0  1  0  0  0  0  0  0  0  0  0
  147.5993  140.4650  153.1726 N   0  0  0  0  0  0  0  0  0  0  0  0
  147.7140  141.0277  154.5104 C   0  0  0  0  0  0  0  0  0  0  0  0
  149.0380  141.7926  154.6411 C   0  0  0  0  0  0  0  0  0  0  0  0
  150.1172  140.9469  155.2901 C   0  0  0  0  0  0  0  0  0  0  0  0
  150.4299  141.1019  156.6574 C   0  0  0  0  0  0  0  0  0  0  0  0
  151.4296  140.2810  157.2142 C   0  0  0  0  0  0  0  0  0  0  0  0
  152.0743  139.3412  156.3870 C   0  0  0  0  0  0  0  0  0  0  0  0
  151.6891  139.2642  155.0337 C   0  0  0  0  0  0  0  0  0  0  0  0
  150.7314  140.0460  154.4900 N   0  0  0  0  0  0  0  0  0  0  0  0
  146.7360  138.7259  151.7130 C   0  0  0  0  0  0  0  0  0  0  0  0
  145.9483  137.4082  151.6354 C   0  0  0  0  0  0  0  0  0  0  0  0
  145.0780  132.9615  149.7068 H   0  0  0  0  0  0  0  0  0  0  0  0
  144.1927  133.1207  151.2202 H   0  0  0  0  0  0  0  0  0  0  0  0
  145.8439  132.5014  151.2247 H   0  0  0  0  0  0  0  0  0  0  0  0
  146.6659  134.7234  150.3964 H   0  0  0  0  0  0  0  0  0  0  0  0
  145.0335  135.3454  150.4136 H   0  0  0  0  0  0  0  0  0  0  0  0
  144.8682  135.1046  152.8314 H   0  0  0  0  0  0  0  0  0  0  0  0
  146.4163  134.3044  152.9492 H   0  0  0  0  0  0  0  0  0  0  0  0
  145.5160  137.0169  154.3062 H   0  0  0  0  0  0  0  0  0  0  0  0
  146.9887  136.1214  154.6093 H   0  0  0  0  0  0  0  0  0  0  0  0
  147.3050  138.5080  155.1259 H   0  0  0  0  0  0  0  0  0  0  0  0
  148.3833  137.9903  153.8521 H   0  0  0  0  0  0  0  0  0  0  0  0
  145.7528  139.5228  153.4497 H   0  0  0  0  0  0  0  0  0  0  0  0
  148.5154  140.2675  152.7951 H   0  0  0  0  0  0  0  0  0  0  0  0
  146.8762  141.7004  154.6987 H   0  0  0  0  0  0  0  0  0  0  0  0
  147.6741  140.2361  155.2585 H   0  0  0  0  0  0  0  0  0  0  0  0
  149.3862  142.1148  153.6583 H   0  0  0  0  0  0  0  0  0  0  0  0
  148.8916  142.7001  155.2288 H   0  0  0  0  0  0  0  0  0  0  0  0
  149.9149  141.8292  157.2679 H   0  0  0  0  0  0  0  0  0  0  0  0
  151.6957  140.3694  158.2571 H   0  0  0  0  0  0  0  0  0  0  0  0
  152.8447  138.6946  156.7800 H   0  0  0  0  0  0  0  0  0  0  0  0
  152.1615  138.5547  154.3707 H   0  0  0  0  0  0  0  0  0  0  0  0
  146.2837  139.4624  151.0472 H   0  0  0  0  0  0  0  0  0  0  0  0
  147.7513  138.5609  151.3481 H   0  0  0  0  0  0  0  0  0  0  0  0
  145.9725  137.0404  150.6089 H   0  0  0  0  0  0  0  0  0  0  0  0
  144.9002  137.5796  151.8870 H   0  0  0  0  0  0  0  0  0  0  0  0
  147.4817  136.2645  152.2669 H   0  0  0  0  0  0  0  0  0  0  0  0
  1  2  1  0  0  0  0
  1 19  1  0  0  0  0
  1 20  1  0  0  0  0
  1 21  1  0  0  0  0
  2  3  1  0  0  0  0
  2 22  1  0  0  0  0
  2 23  1  0  0  0  0
  3  4  1  0  0  0  0
  3 24  1  0  0  0  0
  3 25  1  0  0  0  0
  4 18  1  0  0  0  0
  4  5  1  0  0  0  0
  4 44  1  0  0  0  0
  5  6  1  0  0  0  0
  5 26  1  0  0  0  0
  5 27  1  0  0  0  0
  6  7  1  0  0  0  0
  6 28  1  0  0  0  0
  6 29  1  0  0  0  0
  7  8  1  0  0  0  0
  7 17  1  0  0  0  0
  7 30  1  0  0  0  0
  8  9  1  0  0  0  0
  8 31  1  0  0  0  0
  9 10  1  0  0  0  0
  9 32  1  0  0  0  0
  9 33  1  0  0  0  0
 10 11  1  0  0  0  0
 10 34  1  0  0  0  0
 10 35  1  0  0  0  0
 11 16  1  0  0  0  0
 11 12  2  0  0  0  0
 12 13  1  0  0  0  0
 12 36  1  0  0  0  0
 13 14  2  0  0  0  0
 13 37  1  0  0  0  0
 14 15  1  0  0  0  0
 14 38  1  0  0  0  0
 15 16  2  0  0  0  0
 15 39  1  0  0  0  0
 17 18  1  0  0  0  0
 17 40  1  0  0  0  0
 17 41  1  0  0  0  0
 18 42  1  0  0  0  0
 18 43  1  0  0  0  0
M  CHG  1   4   1
M  END
> <s_m_source_file>
AV-unprocessed.smi

> <i_m_source_file_index>
3318

> <i_lp_mmshare_version>
43012

> <i_f3d_flags>
0

> <s_epik_input>
W0NIM11bQ0gyXVtDSDJdTjFbQ0gyXVtDSDJdW0NIXShbQ0gyXVtDSDJdMSlbTkhdW0NIMl1bQ0gyXWMyW2NIXVtjSF1bY0hdW2NIXW4y

> <s_epik_cmdline>
J2VwaWtfcHl0aG9uJywgJy1waCcsICc3LjAnLCAnLXRuJywgJzgnLCAnLW1hJywgJzIwMCcsICctbWV0YWxfYmluZGluZycsICctaW1hZScsICc8aW5maWxlLm1hZT4nLCAnLW9tYWUnLCAnPG91dGZpbGUubWFlPic=

> <r_epik_Ionization_Penalty>
2.30703

> <r_epik_Ionization_Penalty_Charging>
0.000286176

> <r_epik_Ionization_Penalty_Neutral>
2.30674

> <r_epik_State_Penalty>
2.39905

> <r_epik_Charging_Adjusted_Penalty>
2.39933

> <i_epik_Tot_Q>
1

> <i_epik_Tot_abs_Q>
1

> <r_epik_Metal_State_Penalty>
2.30906

> <b_epik_Metal_Only>
0

> <s_lp_Force_Field>
OPLS_2005

> <r_lp_Energy>
18.8506

> <b_lp_Chiralities_Consistent>
1

> <s_lp_Variant>
AV-unprocessed.smi:3318-4

> <Gold.Version>
5.8.1

> <Gold.Id.Protein>
6NUR|6NUR_protein|mol2

> <Gold.PLP.Fitness>
45.3961

> <Gold.PLP.PLP>
-35.2250

> <Gold.PLP.part.hbond>
-3.0000

> <Gold.PLP.part.metal>
0.0000

> <Gold.PLP.part.buried>
0.2401

> <Gold.PLP.part.nonpolar>
-32.1548

> <Gold.PLP.part.repulsive>
0.1283

> <Gold.PLP.ligand.clash>
0.0000

> <Gold.PLP.ligand.torsion>
0.7603

> <Gold.PLP.Chemscore.Hbond>
3.8800

> <Gold.PLP.Chemscore.CHOScore>
0.0000

> <Gold.PLP.Chemscore.Metal>
0.0000

> <Gold.Chemscore.Hbonds>
donor molecule, donor type, donor heavy atom, donor atom, acceptor molecule, acceptor atom, score
      L1  H     4    44       P1  7948  1.92
      L1  H     8    31       P1  7957  0.91
      P1  H  7989  7998       L1    16  0.95

> <Gold.PLP.Chemscore.Internal.Correction>
0.0517

> <Gold.Rescore>
     Score         DG    S(hbond)    S(metal)    S(lipo)     H(rot)  DE(clash)    DE(int)     intcor
     19.35     -20.85       2.63        0.00      88.81       1.48       0.75       0.75       ----

> <Gold.Chemscore.Fitness>
19.3508

> <Gold.Chemscore.DG>
-20.8493

> <Gold.Chemscore.ZeroCoef>
-5.4800

> <Gold.Chemscore.Hbond>
2.6257

> <Gold.Chemscore.Metal>
0.0000

> <Gold.Chemscore.Lipo>
88.8147

> <Gold.Chemscore.Internal_Hbond>
0.0000

> <Gold.Chemscore.DEClash>
0.7531

> <Gold.Chemscore.DEInternal>
0.7455

> <Gold.Chemscore.Rot>
1.4811

> <Gold.Chemscore.Internal.Correction>
   9.000000E+99

> <Gold.Chemscore.Hbonds>
donor molecule, donor type, donor heavy atom, donor atom, acceptor molecule, acceptor atom, score
      L1  H     4    44       P1  7948  0.91
      L1  H     8    31       P1  7957  0.88
      P1  H  7989  7998       L1    16  0.13

> <Gold.Chemscore.Hbond.Weighted>
-8.7698

> <Gold.Chemscore.Metal.Weighted>
-0.0000

> <Gold.Chemscore.Lipo.Weighted>
-10.3913

> <Gold.Chemscore.Internal_Hbond.Weighted>
0.0000

> <Gold.Chemscore.DEClash.Weighted>
0.7531

> <Gold.Chemscore.DEInternal.Weighted>
0.7455

> <Gold.Chemscore.Rot.Weighted>
3.7917

> <Gold.Chemscore.Internal.Correction.Weighted>
   9.000000E+99

> <Gold.Protein.RotatedTorsions>
[ 6907 6896 6895 6894 ] final   41.07 input  -60.11 | X-H torsion
[ 7974 7965 7964 7962 ] final -110.19 input  175.53 | X-H torsion
[ 8008 7997 7996 7995 ] final   10.97 input   59.86 | X-H torsion
[ 10167 10162 10161 10158 ] final  -34.54 input  -65.29 | X-H torsion
[ 10718 10713 10712 10709 ] final   21.95 input   66.30 | X-H torsion
[ 10763 10752 10751 10750 ] final   38.21 input  -60.55 | X-H torsion
[ 11005 11000 10999 10996 ] final   48.54 input  -57.11 | X-H torsion

> <Gold.Protein.ActiveResidues>
 VAL166  LYS551  ARG553  GLY616  TRP617  ASP618  TYR619  PRO620  LYS621  CYS622 
 ASP623  PHE694  ASN695  SER759  ASP760  ASP761  ALA762  ILE779  LEU786  VAL792 
 PHE793  MET794  SER795  GLU796  ALA797  LYS798  CYS799  TRP800  GLU811  SER814 

> <Gold.Protein.RotatedAtoms>
  152.1905  134.8676  160.0517 H   0  0  0  0  0  0  0  0  0  0  0  0  # atno 6907 bound_to 6896
  151.9566  133.3677  159.4028 H   0  0  0  0  0  0  0  0  0  0  0  0  # atno 6908 bound_to 6896
  150.6934  134.4208  159.5248 H   0  0  0  0  0  0  0  0  0  0  0  0  # atno 6909 bound_to 6896
  145.1713  140.8927  143.3534 H   0  0  0  0  0  0  0  0  0  0  0  0  # atno 7974 bound_to 7965
  154.8005  140.2851  155.5925 H   0  0  0  0  0  0  0  0  0  0  0  0  # atno 8008 bound_to 7997
  156.2976  140.2587  156.2802 H   0  0  0  0  0  0  0  0  0  0  0  0  # atno 8009 bound_to 7997
  154.9563  140.0378  157.2158 H   0  0  0  0  0  0  0  0  0  0  0  0  # atno 8010 bound_to 7997
  140.7183  143.3540  151.2096 H   0  0  0  0  0  0  0  0  0  0  0  0  # atno 10167 bound_to 10162
  157.1455  130.6651  149.5995 H   0  0  0  0  0  0  0  0  0  0  0  0  # atno 10718 bound_to 10713
  153.0009  135.6256  154.2269 H   0  0  0  0  0  0  0  0  0  0  0  0  # atno 10763 bound_to 10752
  154.2011  135.2804  155.2992 H   0  0  0  0  0  0  0  0  0  0  0  0  # atno 10764 bound_to 10752
  154.5683  135.5684  153.7130 H   0  0  0  0  0  0  0  0  0  0  0  0  # atno 10765 bound_to 10752
  140.1182  134.4864  155.8619 H   0  0  0  0  0  0  0  0  0  0  0  0  # atno 11005 bound_to 11000
  145.0230  139.3407  143.6063 LP  0  0  0  0  0  0  0  0  0  0  0  0  # atno 17320 bound_to 7965
  146.3468  139.9538  142.8725 LP  0  0  0  0  0  0  0  0  0  0  0  0  # atno 17321 bound_to 7965
  139.7078  143.9427  152.2934 LP  0  0  0  0  0  0  0  0  0  0  0  0  # atno 17342 bound_to 10162
  139.9141  144.6839  150.8530 LP  0  0  0  0  0  0  0  0  0  0  0  0  # atno 17343 bound_to 10162
  155.9780  130.4762  150.6630 LP  0  0  0  0  0  0  0  0  0  0  0  0  # atno 17370 bound_to 10713
  157.4268  131.0844  151.1078 LP  0  0  0  0  0  0  0  0  0  0  0  0  # atno 17371 bound_to 10713
  141.2146  133.6751  156.6837 LP  0  0  0  0  0  0  0  0  0  0  0  0  # atno 17394 bound_to 11000
  140.3000  134.8171  157.4090 LP  0  0  0  0  0  0  0  0  0  0  0  0  # atno 17395 bound_to 11000

$$$$
