AV-unprocessed.smi:101|AV-procd|sdf|939|dock10
  -GOLD-   2262017463D 1   1.00000     0.00000
 Structure written by MMmdl.
 43 45  0  0  0  0  0  0  0  0  2 V2000
  143.0598  139.3232  158.4381 C   0  0  0  0  0  0  0  0  0  0  0  0
  144.4782  139.8501  158.3084 C   0  0  0  0  0  0  0  0  0  0  0  0
  145.2330  139.6267  157.2097 C   0  0  0  0  0  0  0  0  0  0  0  0
  146.5243  140.1111  157.0975 N   0  0  0  0  0  0  0  0  0  0  0  0
  147.3482  139.8403  155.8572 C   0  0  2  0  0  0  0  0  0  0  0  0
  148.6094  139.3962  156.2435 O   0  0  0  0  0  0  0  0  0  0  0  0
  149.5327  139.7390  155.2260 C   0  0  2  0  0  0  0  0  0  0  0  0
  150.9538  139.7173  155.8018 C   0  0  0  0  0  0  0  0  0  0  0  0
  151.1795  140.8949  156.5593 O   0  0  0  0  0  0  0  0  0  0  0  0
  152.1680  140.9282  157.4738 C   0  0  0  0  0  0  0  0  0  0  0  0
  153.0016  140.0303  157.6099 O   0  0  0  0  0  0  0  0  0  0  0  0
  152.1516  142.1681  158.3028 C   0  0  0  0  0  0  0  0  0  0  0  0
  151.4394  143.3000  157.8416 C   0  0  0  0  0  0  0  0  0  0  0  0
  151.4023  144.4840  158.6034 C   0  0  0  0  0  0  0  0  0  0  0  0
  152.0779  144.5511  159.8358 C   0  0  0  0  0  0  0  0  0  0  0  0
  152.7912  143.4327  160.3051 C   0  0  0  0  0  0  0  0  0  0  0  0
  152.8294  142.2475  159.5446 C   0  0  0  0  0  0  0  0  0  0  0  0
  149.0625  141.1200  154.7531 C   0  0  1  0  0  0  0  0  0  0  0  0
  149.3720  141.2966  153.3843 O   0  0  0  0  0  0  0  0  0  0  0  0
  147.5486  141.0857  154.9631 C   0  0  2  0  0  0  0  0  0  0  0  0
  147.1027  142.2972  155.5461 O   0  0  0  0  0  0  0  0  0  0  0  0
  147.0995  140.8374  158.1713 C   0  0  0  0  0  0  0  0  0  0  0  0
  148.2665  141.2124  158.0552 O   0  0  0  0  0  0  0  0  0  0  0  0
  146.3436  141.0745  159.2810 N   0  5  0  0  0  0  0  0  0  0  0  0
  145.0609  140.6270  159.4096 C   0  0  0  0  0  0  0  0  0  0  0  0
  144.3878  140.8526  160.4147 O   0  0  0  0  0  0  0  0  0  0  0  0
  142.7618  138.7646  157.5506 H   0  0  0  0  0  0  0  0  0  0  0  0
  142.3588  140.1482  158.5690 H   0  0  0  0  0  0  0  0  0  0  0  0
  142.9768  138.6595  159.2992 H   0  0  0  0  0  0  0  0  0  0  0  0
  144.8135  139.0466  156.4011 H   0  0  0  0  0  0  0  0  0  0  0  0
  146.8599  139.0173  155.3322 H   0  0  0  0  0  0  0  0  0  0  0  0
  149.4291  138.9980  154.4304 H   0  0  0  0  0  0  0  0  0  0  0  0
  151.1003  138.8280  156.4168 H   0  0  0  0  0  0  0  0  0  0  0  0
  151.6812  139.6762  154.9902 H   0  0  0  0  0  0  0  0  0  0  0  0
  150.9126  143.2722  156.8986 H   0  0  0  0  0  0  0  0  0  0  0  0
  150.8543  145.3414  158.2410 H   0  0  0  0  0  0  0  0  0  0  0  0
  152.0489  145.4592  160.4201 H   0  0  0  0  0  0  0  0  0  0  0  0
  153.3106  143.4832  161.2506 H   0  0  0  0  0  0  0  0  0  0  0  0
  153.3870  141.4079  159.9333 H   0  0  0  0  0  0  0  0  0  0  0  0
  149.5251  141.9052  155.3536 H   0  0  0  0  0  0  0  0  0  0  0  0
  149.0358  140.5559  152.9034 H   0  0  0  0  0  0  0  0  0  0  0  0
  147.0054  140.9163  154.0324 H   0  0  0  0  0  0  0  0  0  0  0  0
  147.8132  142.9202  155.5135 H   0  0  0  0  0  0  0  0  0  0  0  0
  1  2  1  0  0  0  0
  1 27  1  0  0  0  0
  1 28  1  0  0  0  0
  1 29  1  0  0  0  0
  2 25  1  0  0  0  0
  2  3  2  0  0  0  0
  3  4  1  0  0  0  0
  3 30  1  0  0  0  0
  4  5  1  0  0  0  0
  4 22  1  0  0  0  0
  5 20  1  0  0  0  0
  5  6  1  0  0  0  0
  5 31  1  0  0  0  0
  6  7  1  0  0  0  0
  7  8  1  0  0  0  0
  7 18  1  0  0  0  0
  7 32  1  0  0  0  0
  8  9  1  0  0  0  0
  8 33  1  0  0  0  0
  8 34  1  0  0  0  0
  9 10  1  0  0  0  0
 10 11  2  0  0  0  0
 10 12  1  0  0  0  0
 12 17  1  0  0  0  0
 12 13  2  0  0  0  0
 13 14  1  0  0  0  0
 13 35  1  0  0  0  0
 14 15  2  0  0  0  0
 14 36  1  0  0  0  0
 15 16  1  0  0  0  0
 15 37  1  0  0  0  0
 16 17  2  0  0  0  0
 16 38  1  0  0  0  0
 17 39  1  0  0  0  0
 18 19  1  0  0  0  0
 18 20  1  0  0  0  0
 18 40  1  0  0  0  0
 19 41  1  0  0  0  0
 20 21  1  0  0  0  0
 20 42  1  0  0  0  0
 21 43  1  0  0  0  0
 22 23  2  0  0  0  0
 22 24  1  0  0  0  0
 24 25  1  0  0  0  0
 25 26  2  0  0  0  0
M  CHG  1  24  -1
M  END
> <s_m_source_file>
AV-unprocessed.smi

> <i_m_source_file_index>
101

> <i_lp_mmshare_version>
43012

> <i_f3d_flags>
0

> <s_epik_input>
Tz1jMVtuSF1jKD1PKW4oW2NIXWMxW0NIM10pW0NAQEhdMk9bQ0BIXShbQ0BASF0oW09IXSlbQ0BIXTJbT0hdKVtDSDJdT0MoPU8pYzNbY0hdW2NIXVtjSF1bY0hdW2NIXTM=

> <s_epik_cmdline>
J2VwaWtfcHl0aG9uJywgJy1waCcsICc3LjAnLCAnLXRuJywgJzgnLCAnLW1hJywgJzIwMCcsICctbWV0YWxfYmluZGluZycsICctaW1hZScsICc8aW5maWxlLm1hZT4nLCAnLW9tYWUnLCAnPG91dGZpbGUubWFlPic=

> <r_lp_tautomer_probability>
0.999537

> <r_epik_Ionization_Penalty>
3.21006

> <r_epik_Ionization_Penalty_Charging>
5.75142e-08

> <r_epik_Ionization_Penalty_Neutral>
3.21006

> <r_epik_State_Penalty>
3.20925

> <r_epik_Charging_Adjusted_Penalty>
3.20925

> <i_epik_Tot_Q>
-1

> <i_epik_Tot_abs_Q>
1

> <r_epik_Metal_State_Penalty>
0.119957

> <b_epik_Metal_Only>
1

> <s_epik_Chemistry_Notes>
This compound has an ester and may undergo hydrolysis at high or low pH. This compound contains an acetal/aminal-like group ( X-CH(R)-Y where X, Y are N, S, or O) that may be acid/base labile, releasing an aldehyde.

> <s_lp_Force_Field>
OPLS_2005

> <r_lp_Energy>
44.2535

> <b_lp_Chiralities_Consistent>
1

> <s_lp_Variant>
AV-unprocessed.smi:101-27

> <Gold.Version>
5.8.1

> <Gold.Id.Protein>
6NUR|6NUR_protein|mol2

> <Gold.PLP.Fitness>
52.6305

> <Gold.PLP.PLP>
-38.1416

> <Gold.PLP.part.hbond>
-5.6502

> <Gold.PLP.part.metal>
0.0000

> <Gold.PLP.part.buried>
-4.5621

> <Gold.PLP.part.nonpolar>
-27.5712

> <Gold.PLP.part.repulsive>
0.1134

> <Gold.PLP.ligand.clash>
0.0000

> <Gold.PLP.ligand.torsion>
0.7825

> <Gold.PLP.Chemscore.Hbond>
5.2677

> <Gold.PLP.Chemscore.CHOScore>
0.0000

> <Gold.PLP.Chemscore.Metal>
0.0000

> <Gold.Chemscore.Hbonds>
donor molecule, donor type, donor heavy atom, donor atom, acceptor molecule, acceptor atom, score
      L1  H    19    41       P1  7957  0.50
      L1  H    21    43       P1  8028  0.89
      P1  H  6934  6946       L1    24  1.18
      P1  H  7989  7998       L1    19  0.05
      P1  H  7997  8008       L1    11  1.00
      P1  H  8011  8017       L1    19  1.00

> <Gold.PLP.Chemscore.Internal.Correction>
0.2507

> <Gold.Rescore>
     Score         DG    S(hbond)    S(metal)    S(lipo)     H(rot)  DE(clash)    DE(int)     intcor
     16.60     -19.53       3.58        0.00      89.42       3.27       0.09       2.84       ----

> <Gold.Chemscore.Fitness>
16.6032

> <Gold.Chemscore.DG>
-19.5345

> <Gold.Chemscore.ZeroCoef>
-5.4800

> <Gold.Chemscore.Hbond>
3.5784

> <Gold.Chemscore.Metal>
0.0000

> <Gold.Chemscore.Lipo>
89.4244

> <Gold.Chemscore.Internal_Hbond>
0.0000

> <Gold.Chemscore.DEClash>
0.0902

> <Gold.Chemscore.DEInternal>
2.8412

> <Gold.Chemscore.Rot>
3.2656

> <Gold.Chemscore.Internal.Correction>
   9.000000E+99

> <Gold.Chemscore.Hbonds>
donor molecule, donor type, donor heavy atom, donor atom, acceptor molecule, acceptor atom, score
      L1  H    19    41       P1  7957  0.48
      L1  H    21    43       P1  8028  0.57
      P1  H  6934  6946       L1    24  0.19
      P1  H  7989  7998       L1    19  0.01
      P1  H  7997  8008       L1    11  0.95
      P1  H  8011  8017       L1    19  0.61

> <Gold.Chemscore.Hbond.Weighted>
-11.9517

> <Gold.Chemscore.Metal.Weighted>
-0.0000

> <Gold.Chemscore.Lipo.Weighted>
-10.4627

> <Gold.Chemscore.Internal_Hbond.Weighted>
0.0000

> <Gold.Chemscore.DEClash.Weighted>
0.0902

> <Gold.Chemscore.DEInternal.Weighted>
2.8412

> <Gold.Chemscore.Rot.Weighted>
8.3598

> <Gold.Chemscore.Internal.Correction.Weighted>
   9.000000E+99

> <Gold.Protein.RotatedTorsions>
[ 6907 6896 6895 6894 ] final -171.79 input  -60.11 | X-H torsion
[ 7974 7965 7964 7962 ] final  167.40 input  175.53 | X-H torsion
[ 8008 7997 7996 7995 ] final  -67.17 input   59.86 | X-H torsion
[ 10167 10162 10161 10158 ] final  135.47 input  -65.29 | X-H torsion
[ 10718 10713 10712 10709 ] final   -5.96 input   66.30 | X-H torsion
[ 10763 10752 10751 10750 ] final  120.99 input  -60.55 | X-H torsion
[ 11005 11000 10999 10996 ] final  124.88 input  -57.11 | X-H torsion

> <Gold.Protein.ActiveResidues>
 VAL166  LYS551  ARG553  GLY616  TRP617  ASP618  TYR619  PRO620  LYS621  CYS622 
 ASP623  PHE694  ASN695  SER759  ASP760  ASP761  ALA762  ILE779  LEU786  VAL792 
 PHE793  MET794  SER795  GLU796  ALA797  LYS798  CYS799  TRP800  GLU811  SER814 

> <Gold.Protein.RotatedAtoms>
  151.5295  133.3451  159.2915 H   0  0  0  0  0  0  0  0  0  0  0  0  # atno 6907 bound_to 6896
  150.8602  134.7954  159.7088 H   0  0  0  0  0  0  0  0  0  0  0  0  # atno 6908 bound_to 6896
  152.4624  134.5163  159.9821 H   0  0  0  0  0  0  0  0  0  0  0  0  # atno 6909 bound_to 6896
  144.7426  139.8756  143.6392 H   0  0  0  0  0  0  0  0  0  0  0  0  # atno 7974 bound_to 7965
  154.4782  140.0898  156.7314 H   0  0  0  0  0  0  0  0  0  0  0  0  # atno 8008 bound_to 7997
  155.4540  140.3458  155.4286 H   0  0  0  0  0  0  0  0  0  0  0  0  # atno 8009 bound_to 7997
  156.1150  140.1458  156.9274 H   0  0  0  0  0  0  0  0  0  0  0  0  # atno 8010 bound_to 7997
  139.5216  144.6515  151.5288 H   0  0  0  0  0  0  0  0  0  0  0  0  # atno 10167 bound_to 10162
  156.7389  130.5203  149.5828 H   0  0  0  0  0  0  0  0  0  0  0  0  # atno 10718 bound_to 10713
  153.6071  135.3437  155.2965 H   0  0  0  0  0  0  0  0  0  0  0  0  # atno 10763 bound_to 10752
  154.8625  135.4241  154.2350 H   0  0  0  0  0  0  0  0  0  0  0  0  # atno 10764 bound_to 10752
  153.3192  135.7037  153.7118 H   0  0  0  0  0  0  0  0  0  0  0  0  # atno 10765 bound_to 10752
  139.9379  134.9638  156.8475 H   0  0  0  0  0  0  0  0  0  0  0  0  # atno 11005 bound_to 11000
  146.1249  139.4273  143.0205 LP  0  0  0  0  0  0  0  0  0  0  0  0  # atno 17320 bound_to 7965
  145.7250  141.0062  143.1382 LP  0  0  0  0  0  0  0  0  0  0  0  0  # atno 17321 bound_to 7965
  140.6322  143.9054  150.6615 LP  0  0  0  0  0  0  0  0  0  0  0  0  # atno 17342 bound_to 10162
  140.2361  143.3698  152.1525 LP  0  0  0  0  0  0  0  0  0  0  0  0  # atno 17343 bound_to 10162
  156.1478  130.6289  151.0554 LP  0  0  0  0  0  0  0  0  0  0  0  0  # atno 17370 bound_to 10713
  157.6827  131.0833  150.7327 LP  0  0  0  0  0  0  0  0  0  0  0  0  # atno 17371 bound_to 10713
  140.6026  134.0157  155.7543 LP  0  0  0  0  0  0  0  0  0  0  0  0  # atno 17394 bound_to 11000
  141.1002  133.9781  157.3092 LP  0  0  0  0  0  0  0  0  0  0  0  0  # atno 17395 bound_to 11000

$$$$
