AV-unprocessed.smi:3132|AV-procd|sdf|11935|dock3
  -GOLD-   2272017323D 1   1.00000     0.00000
 Structure written by MMmdl.
 33 34  0  0  0  0  0  0  0  0  1 V2000
  145.2554  135.0104  153.2279 C   0  0  0  0  0  0  0  0  0  0  0  0
  143.8088  134.7066  152.8091 C   0  0  2  0  0  0  0  0  0  0  0  0
  143.6726  134.6062  151.2781 C   0  0  0  0  0  0  0  0  0  0  0  0
  144.2773  133.3974  150.7483 N   0  0  0  0  0  0  0  0  0  0  0  0
  145.6299  133.0845  150.7069 C   0  0  0  0  0  0  0  0  0  0  0  0
  145.7285  131.8450  150.1166 C   0  0  0  0  0  0  0  0  0  0  0  0
  144.4572  131.3777  149.7919 N   0  0  0  0  0  0  0  0  0  0  0  0
  143.6499  132.3497  150.1966 C   0  0  0  0  0  0  0  0  0  0  0  0
  142.9150  135.7424  153.3220 N   0  0  0  0  0  0  0  0  0  0  0  0
  141.7354  135.5313  153.9271 C   0  0  0  0  0  0  0  0  0  0  0  0
  141.2799  134.4068  154.1366 O   0  0  0  0  0  0  0  0  0  0  0  0
  140.9332  136.7725  154.3443 C   0  0  1  0  0  0  0  0  0  0  0  0
  140.5938  137.7249  153.1816 C   0  0  0  0  0  0  0  0  0  0  0  0
  139.0781  137.8225  153.2136 C   0  0  0  0  0  0  0  0  0  0  0  0
  138.7458  137.4258  154.6450 C   0  0  0  0  0  0  0  0  0  0  0  0
  139.6746  136.3856  154.8954 O   0  0  0  0  0  0  0  0  0  0  0  0
  145.9369  134.2378  152.8707 H   0  0  0  0  0  0  0  0  0  0  0  0
  145.3517  135.0551  154.3132 H   0  0  0  0  0  0  0  0  0  0  0  0
  145.5938  135.9651  152.8235 H   0  0  0  0  0  0  0  0  0  0  0  0
  143.5278  133.7423  153.2369 H   0  0  0  0  0  0  0  0  0  0  0  0
  142.6230  134.6334  150.9817 H   0  0  0  0  0  0  0  0  0  0  0  0
  144.1548  135.4602  150.8005 H   0  0  0  0  0  0  0  0  0  0  0  0
  146.3891  133.7521  151.0870 H   0  0  0  0  0  0  0  0  0  0  0  0
  146.6094  131.2577  149.9029 H   0  0  0  0  0  0  0  0  0  0  0  0
  142.5765  132.3005  150.0858 H   0  0  0  0  0  0  0  0  0  0  0  0
  143.2064  136.7007  153.1920 H   0  0  0  0  0  0  0  0  0  0  0  0
  141.4938  137.3113  155.1097 H   0  0  0  0  0  0  0  0  0  0  0  0
  141.0437  138.7020  153.3612 H   0  0  0  0  0  0  0  0  0  0  0  0
  140.9421  137.3787  152.2074 H   0  0  0  0  0  0  0  0  0  0  0  0
  138.7070  138.8127  152.9481 H   0  0  0  0  0  0  0  0  0  0  0  0
  138.6454  137.0992  152.5215 H   0  0  0  0  0  0  0  0  0  0  0  0
  138.9209  138.2532  155.3343 H   0  0  0  0  0  0  0  0  0  0  0  0
  137.7169  137.0854  154.7620 H   0  0  0  0  0  0  0  0  0  0  0  0
  1  2  1  0  0  0  0
  1 17  1  0  0  0  0
  1 18  1  0  0  0  0
  1 19  1  0  0  0  0
  2  3  1  0  0  0  0
  2  9  1  0  0  0  0
  2 20  1  0  0  0  0
  3  4  1  0  0  0  0
  3 21  1  0  0  0  0
  3 22  1  0  0  0  0
  4  8  1  0  0  0  0
  4  5  1  0  0  0  0
  5  6  2  0  0  0  0
  5 23  1  0  0  0  0
  6  7  1  0  0  0  0
  6 24  1  0  0  0  0
  7  8  2  0  0  0  0
  8 25  1  0  0  0  0
  9 10  1  0  0  0  0
  9 26  1  0  0  0  0
 10 11  2  0  0  0  0
 10 12  1  0  0  0  0
 12 16  1  0  0  0  0
 12 13  1  0  0  0  0
 12 27  1  0  0  0  0
 13 14  1  0  0  0  0
 13 28  1  0  0  0  0
 13 29  1  0  0  0  0
 14 15  1  0  0  0  0
 14 30  1  0  0  0  0
 14 31  1  0  0  0  0
 15 16  1  0  0  0  0
 15 32  1  0  0  0  0
 15 33  1  0  0  0  0
M  END
> <s_m_source_file>
AV-unprocessed.smi

> <i_m_source_file_index>
3132

> <i_lp_mmshare_version>
43012

> <i_f3d_flags>
0

> <s_epik_input>
W2NIXTFuW2NIXVtjSF1uMVtDSDJdW0NAQEhdKFtDSDNdKVtOSF1DKD1PKVtDQEBIXTJbQ0gyXVtDSDJdW0NIMl1PMg==

> <s_epik_cmdline>
J2VwaWtfcHl0aG9uJywgJy1waCcsICc3LjAnLCAnLXRuJywgJzgnLCAnLW1hJywgJzIwMCcsICctbWV0YWxfYmluZGluZycsICctaW1hZScsICc8aW5maWxlLm1hZT4nLCAnLW9tYWUnLCAnPG91dGZpbGUubWFlPic=

> <r_lp_tautomer_probability>
1

> <r_epik_Ionization_Penalty>
0.630322

> <r_epik_Ionization_Penalty_Charging>
0.630322

> <r_epik_Ionization_Penalty_Neutral>
3.82652e-08

> <r_epik_State_Penalty>
0.647117

> <r_epik_Charging_Adjusted_Penalty>
1.27744

> <i_epik_Tot_Q>
0

> <i_epik_Tot_abs_Q>
0

> <r_epik_Metal_State_Penalty>
0.309095

> <b_epik_Metal_Only>
0

> <s_lp_Force_Field>
OPLS_2005

> <r_lp_Energy>
19.804

> <b_lp_Chiralities_Consistent>
1

> <s_lp_Variant>
AV-unprocessed.smi:3132-7

> <Gold.Version>
5.8.1

> <Gold.Id.Protein>
6NUR|6NUR_protein|mol2

> <Gold.PLP.Fitness>
41.0097

> <Gold.PLP.PLP>
-29.5193

> <Gold.PLP.part.hbond>
-3.1640

> <Gold.PLP.part.metal>
0.0000

> <Gold.PLP.part.buried>
-4.6038

> <Gold.PLP.part.nonpolar>
-23.0878

> <Gold.PLP.part.repulsive>
0.4056

> <Gold.PLP.ligand.clash>
0.0000

> <Gold.PLP.ligand.torsion>
0.3760

> <Gold.PLP.Chemscore.Hbond>
1.4960

> <Gold.PLP.Chemscore.CHOScore>
2.5792

> <Gold.PLP.Chemscore.Metal>
0.0000

> <Gold.Chemscore.Hbonds>
donor molecule, donor type, donor heavy atom, donor atom, acceptor molecule, acceptor atom, score
      P1  H 10785 10796       L1     7  0.43
      P1  H 11000 11005       L1    11  1.00
      L1  C     6    24       P1 10747  1.00
      L1  C     8    25       P1 10186  0.55
      L1  C     8    25       P1 10952  0.65

> <Gold.PLP.Chemscore.Internal.Correction>
0.0169

> <Gold.Rescore>
     Score         DG    S(hbond)    S(metal)    S(lipo)     H(rot)  DE(clash)    DE(int)     intcor
     12.39     -13.33       1.77        0.00      57.48       1.86       0.46       0.48       ----

> <Gold.Chemscore.Fitness>
12.3891

> <Gold.Chemscore.DG>
-13.3345

> <Gold.Chemscore.ZeroCoef>
-5.4800

> <Gold.Chemscore.Hbond>
1.7665

> <Gold.Chemscore.Metal>
0.0000

> <Gold.Chemscore.Lipo>
57.4802

> <Gold.Chemscore.Internal_Hbond>
0.0000

> <Gold.Chemscore.DEClash>
0.4628

> <Gold.Chemscore.DEInternal>
0.4827

> <Gold.Chemscore.Rot>
1.8636

> <Gold.Chemscore.Internal.Correction>
   9.000000E+99

> <Gold.Chemscore.Hbonds>
donor molecule, donor type, donor heavy atom, donor atom, acceptor molecule, acceptor atom, score
      P1  H 10785 10796       L1     7  0.18
      P1  H 11000 11005       L1    11  0.96

> <Gold.Chemscore.Hbond.Weighted>
-5.9002

> <Gold.Chemscore.Metal.Weighted>
-0.0000

> <Gold.Chemscore.Lipo.Weighted>
-6.7252

> <Gold.Chemscore.Internal_Hbond.Weighted>
0.0000

> <Gold.Chemscore.DEClash.Weighted>
0.4628

> <Gold.Chemscore.DEInternal.Weighted>
0.4827

> <Gold.Chemscore.Rot.Weighted>
4.7709

> <Gold.Chemscore.Internal.Correction.Weighted>
   9.000000E+99

> <Gold.Protein.RotatedTorsions>
[ 6907 6896 6895 6894 ] final   30.42 input  -60.11 | X-H torsion
[ 7974 7965 7964 7962 ] final -118.59 input  175.53 | X-H torsion
[ 8008 7997 7996 7995 ] final   39.76 input   59.86 | X-H torsion
[ 10167 10162 10161 10158 ] final  -19.17 input  -65.29 | X-H torsion
[ 10718 10713 10712 10709 ] final  155.55 input   66.30 | X-H torsion
[ 10763 10752 10751 10750 ] final  -52.40 input  -60.55 | X-H torsion
[ 11005 11000 10999 10996 ] final   -2.18 input  -57.11 | X-H torsion

> <Gold.Protein.ActiveResidues>
 VAL166  LYS551  ARG553  GLY616  TRP617  ASP618  TYR619  PRO620  LYS621  CYS622 
 ASP623  PHE694  ASN695  SER759  ASP760  ASP761  ALA762  ILE779  LEU786  VAL792 
 PHE793  MET794  SER795  GLU796  ALA797  LYS798  CYS799  TRP800  GLU811  SER814 

> <Gold.Protein.RotatedAtoms>
  152.0457  134.9684  160.0574 H   0  0  0  0  0  0  0  0  0  0  0  0  # atno 6907 bound_to 6896
  152.1105  133.4293  159.4637 H   0  0  0  0  0  0  0  0  0  0  0  0  # atno 6908 bound_to 6896
  150.6843  134.2572  159.4578 H   0  0  0  0  0  0  0  0  0  0  0  0  # atno 6909 bound_to 6896
  145.0721  140.8366  143.4089 H   0  0  0  0  0  0  0  0  0  0  0  0  # atno 7974 bound_to 7965
  155.2420  140.3346  155.4291 H   0  0  0  0  0  0  0  0  0  0  0  0  # atno 8008 bound_to 7997
  156.2252  140.1826  156.7426 H   0  0  0  0  0  0  0  0  0  0  0  0  # atno 8009 bound_to 7997
  154.5887  140.0641  156.9193 H   0  0  0  0  0  0  0  0  0  0  0  0  # atno 8010 bound_to 7997
  140.7266  143.4845  151.0073 H   0  0  0  0  0  0  0  0  0  0  0  0  # atno 10167 bound_to 10162
  157.2168  131.0709  151.1936 H   0  0  0  0  0  0  0  0  0  0  0  0  # atno 10718 bound_to 10713
  154.1421  135.6503  153.4944 H   0  0  0  0  0  0  0  0  0  0  0  0  # atno 10763 bound_to 10752
  153.0163  135.5318  154.6894 H   0  0  0  0  0  0  0  0  0  0  0  0  # atno 10764 bound_to 10752
  154.6158  135.2959  155.0352 H   0  0  0  0  0  0  0  0  0  0  0  0  # atno 10765 bound_to 10752
  140.6555  133.9366  155.8405 H   0  0  0  0  0  0  0  0  0  0  0  0  # atno 11005 bound_to 11000
  145.1280  139.2650  143.5554 LP  0  0  0  0  0  0  0  0  0  0  0  0  # atno 17320 bound_to 7965
  146.3529  140.0922  142.8612 LP  0  0  0  0  0  0  0  0  0  0  0  0  # atno 17321 bound_to 7965
  139.8546  143.7394  152.3176 LP  0  0  0  0  0  0  0  0  0  0  0  0  # atno 17342 bound_to 10162
  139.7588  144.7513  151.0395 LP  0  0  0  0  0  0  0  0  0  0  0  0  # atno 17343 bound_to 10162
  157.3617  130.7134  149.6506 LP  0  0  0  0  0  0  0  0  0  0  0  0  # atno 17370 bound_to 10713
  155.9685  130.4224  150.4513 LP  0  0  0  0  0  0  0  0  0  0  0  0  # atno 17371 bound_to 10713
  141.0504  134.0492  157.3790 LP  0  0  0  0  0  0  0  0  0  0  0  0  # atno 17394 bound_to 11000
  139.9031  135.0171  156.7360 LP  0  0  0  0  0  0  0  0  0  0  0  0  # atno 17395 bound_to 11000

$$$$
