AV-unprocessed.smi:652|AV-procd|sdf|3194|dock3
  -GOLD-   22720 0123D 1   1.00000     0.00000
 Structure written by MMmdl.
 48 49  0  0  0  0  0  0  0  0  2 V2000
  145.3464  134.6673  153.2036 C   0  0  0  0  0  0  0  0  0  0  0  0
  145.7222  135.0194  151.7583 C   0  0  0  0  0  0  0  0  0  0  0  0
  146.6112  133.9428  151.1187 C   0  0  0  0  0  0  0  0  0  0  0  0
  146.4004  136.3120  151.7364 N   0  0  0  0  0  0  0  0  0  0  0  0
  145.9425  137.4456  152.2911 C   0  0  0  0  0  0  0  0  0  0  0  0
  144.8640  137.5295  152.8775 O   0  0  0  0  0  0  0  0  0  0  0  0
  146.8444  138.6751  152.1711 C   0  0  0  0  0  0  0  0  0  0  0  0
  147.4985  139.0263  153.5230 C   0  0  0  0  0  0  0  0  0  0  0  0
  148.1707  140.3555  153.5246 N   0  3  1  0  0  0  0  0  0  0  0  0
  147.2310  141.4868  153.3275 C   0  0  0  0  0  0  0  0  0  0  0  0
  146.4517  141.7983  154.6206 C   0  0  0  0  0  0  0  0  0  0  0  0
  147.3618  142.0421  155.6885 O   0  0  0  0  0  0  0  0  0  0  0  0
  148.1926  140.9193  155.9634 C   0  0  2  0  0  0  0  0  0  0  0  0
  149.0533  141.2460  157.1986 C   0  0  0  0  0  0  0  0  0  0  0  0
  149.5946  142.6018  157.1772 N   0  0  0  0  0  0  0  0  0  0  0  0
  150.5910  143.0085  158.0766 C   0  0  0  0  0  0  0  0  0  0  0  0
  151.4476  144.0655  157.7095 C   0  0  0  0  0  0  0  0  0  0  0  0
  152.4463  144.4440  158.6235 C   0  0  0  0  0  0  0  0  0  0  0  0
  152.5102  143.7376  159.8383 C   0  0  0  0  0  0  0  0  0  0  0  0
  151.6610  142.7298  160.1396 N   0  0  0  0  0  0  0  0  0  0  0  0
  150.7099  142.3730  159.2693 N   0  0  0  0  0  0  0  0  0  0  0  0
  149.0355  140.6218  154.7029 C   0  0  0  0  0  0  0  0  0  0  0  0
  144.8202  133.7136  153.2500 H   0  0  0  0  0  0  0  0  0  0  0  0
  144.6892  135.4250  153.6316 H   0  0  0  0  0  0  0  0  0  0  0  0
  146.2290  134.5921  153.8398 H   0  0  0  0  0  0  0  0  0  0  0  0
  144.7955  135.0858  151.1854 H   0  0  0  0  0  0  0  0  0  0  0  0
  146.1130  132.9730  151.1205 H   0  0  0  0  0  0  0  0  0  0  0  0
  147.5535  133.8329  151.6565 H   0  0  0  0  0  0  0  0  0  0  0  0
  146.8448  134.1888  150.0823 H   0  0  0  0  0  0  0  0  0  0  0  0
  147.2950  136.3432  151.2693 H   0  0  0  0  0  0  0  0  0  0  0  0
  147.5910  138.4760  151.4036 H   0  0  0  0  0  0  0  0  0  0  0  0
  146.2503  139.5161  151.8121 H   0  0  0  0  0  0  0  0  0  0  0  0
  146.7160  139.0344  154.2834 H   0  0  0  0  0  0  0  0  0  0  0  0
  148.1957  138.2441  153.8231 H   0  0  0  0  0  0  0  0  0  0  0  0
  147.8082  142.3655  153.0363 H   0  0  0  0  0  0  0  0  0  0  0  0
  146.5483  141.2835  152.5017 H   0  0  0  0  0  0  0  0  0  0  0  0
  145.8335  142.6847  154.4785 H   0  0  0  0  0  0  0  0  0  0  0  0
  145.7751  140.9831  154.8811 H   0  0  0  0  0  0  0  0  0  0  0  0
  147.5536  140.0698  156.2019 H   0  0  0  0  0  0  0  0  0  0  0  0
  148.4541  141.1361  158.1028 H   0  0  0  0  0  0  0  0  0  0  0  0
  149.8726  140.5315  157.2863 H   0  0  0  0  0  0  0  0  0  0  0  0
  149.4062  143.1752  156.3675 H   0  0  0  0  0  0  0  0  0  0  0  0
  151.3476  144.5679  156.7586 H   0  0  0  0  0  0  0  0  0  0  0  0
  153.1374  145.2440  158.4025 H   0  0  0  0  0  0  0  0  0  0  0  0
  153.2569  143.9806  160.5795 H   0  0  0  0  0  0  0  0  0  0  0  0
  149.7249  139.7990  154.8786 H   0  0  0  0  0  0  0  0  0  0  0  0
  149.6621  141.4858  154.4775 H   0  0  0  0  0  0  0  0  0  0  0  0
  148.7747  140.3502  152.7150 H   0  0  0  0  0  0  0  0  0  0  0  0
  1  2  1  0  0  0  0
  1 23  1  0  0  0  0
  1 24  1  0  0  0  0
  1 25  1  0  0  0  0
  2  3  1  0  0  0  0
  2  4  1  0  0  0  0
  2 26  1  0  0  0  0
  3 27  1  0  0  0  0
  3 28  1  0  0  0  0
  3 29  1  0  0  0  0
  4  5  1  0  0  0  0
  4 30  1  0  0  0  0
  5  6  2  0  0  0  0
  5  7  1  0  0  0  0
  7  8  1  0  0  0  0
  7 31  1  0  0  0  0
  7 32  1  0  0  0  0
  8  9  1  0  0  0  0
  8 33  1  0  0  0  0
  8 34  1  0  0  0  0
  9 22  1  0  0  0  0
  9 10  1  0  0  0  0
  9 48  1  0  0  0  0
 10 11  1  0  0  0  0
 10 35  1  0  0  0  0
 10 36  1  0  0  0  0
 11 12  1  0  0  0  0
 11 37  1  0  0  0  0
 11 38  1  0  0  0  0
 12 13  1  0  0  0  0
 13 14  1  0  0  0  0
 13 22  1  0  0  0  0
 13 39  1  0  0  0  0
 14 15  1  0  0  0  0
 14 40  1  0  0  0  0
 14 41  1  0  0  0  0
 15 16  1  0  0  0  0
 15 42  1  0  0  0  0
 16 21  1  0  0  0  0
 16 17  2  0  0  0  0
 17 18  1  0  0  0  0
 17 43  1  0  0  0  0
 18 19  2  0  0  0  0
 18 44  1  0  0  0  0
 19 20  1  0  0  0  0
 19 45  1  0  0  0  0
 20 21  2  0  0  0  0
 22 46  1  0  0  0  0
 22 47  1  0  0  0  0
M  CHG  1   9   1
M  END
> <s_m_source_file>
AV-unprocessed.smi

> <i_m_source_file_index>
652

> <i_lp_mmshare_version>
43012

> <i_f3d_flags>
0

> <s_epik_input>
W0NIM11bQ0hdKFtDSDNdKVtOSF1DKD1PKVtDSDJdW0NIMl1OMVtDSDJdW0NIMl1PW0NASF0oW0NIMl0xKVtDSDJdW05IXWMyW2NIXVtjSF1bY0hdbm4y

> <s_epik_cmdline>
J2VwaWtfcHl0aG9uJywgJy1waCcsICc3LjAnLCAnLXRuJywgJzgnLCAnLW1hJywgJzIwMCcsICctbWV0YWxfYmluZGluZycsICctaW1hZScsICc8aW5maWxlLm1hZT4nLCAnLW9tYWUnLCAnPG91dGZpbGUubWFlPic=

> <r_lp_tautomer_probability>
0.999978

> <r_epik_Ionization_Penalty>
0.433079

> <r_epik_Ionization_Penalty_Charging>
0.413784

> <r_epik_Ionization_Penalty_Neutral>
0.0192945

> <r_epik_State_Penalty>
0.425138

> <r_epik_Charging_Adjusted_Penalty>
0.838922

> <i_epik_Tot_Q>
1

> <i_epik_Tot_abs_Q>
1

> <r_epik_Metal_State_Penalty>
0.422073

> <b_epik_Metal_Only>
0

> <s_lp_Force_Field>
OPLS_2005

> <r_lp_Energy>
22.7305

> <b_lp_Chiralities_Consistent>
1

> <s_lp_Variant>
AV-unprocessed.smi:652-3

> <Gold.Version>
5.8.1

> <Gold.Id.Protein>
6NUR|6NUR_protein|mol2

> <Gold.PLP.Fitness>
48.8497

> <Gold.PLP.PLP>
-41.9221

> <Gold.PLP.part.hbond>
-3.7457

> <Gold.PLP.part.metal>
0.0000

> <Gold.PLP.part.buried>
-7.6752

> <Gold.PLP.part.nonpolar>
-32.0020

> <Gold.PLP.part.repulsive>
1.0496

> <Gold.PLP.ligand.clash>
0.0000

> <Gold.PLP.ligand.torsion>
0.5944

> <Gold.PLP.Chemscore.Hbond>
2.6480

> <Gold.PLP.Chemscore.CHOScore>
0.0000

> <Gold.PLP.Chemscore.Metal>
0.0000

> <Gold.Chemscore.Hbonds>
donor molecule, donor type, donor heavy atom, donor atom, acceptor molecule, acceptor atom, score
      L1  H     4    30       P1  7948  0.69
      L1  H     9    48       P1  7957  1.00
      L1  H    15    42       P1  8028  0.99

> <Gold.PLP.Chemscore.Internal.Correction>
0.1724

> <Gold.Rescore>
     Score         DG    S(hbond)    S(metal)    S(lipo)     H(rot)  DE(clash)    DE(int)     intcor
     19.22     -19.88       2.80        0.00      92.66       2.26       0.00       0.65       ----

> <Gold.Chemscore.Fitness>
19.2242

> <Gold.Chemscore.DG>
-19.8780

> <Gold.Chemscore.ZeroCoef>
-5.4800

> <Gold.Chemscore.Hbond>
2.7966

> <Gold.Chemscore.Metal>
0.0000

> <Gold.Chemscore.Lipo>
92.6635

> <Gold.Chemscore.Internal_Hbond>
0.0000

> <Gold.Chemscore.DEClash>
0.0028

> <Gold.Chemscore.DEInternal>
0.6510

> <Gold.Chemscore.Rot>
2.2594

> <Gold.Chemscore.Internal.Correction>
   9.000000E+99

> <Gold.Chemscore.Hbonds>
donor molecule, donor type, donor heavy atom, donor atom, acceptor molecule, acceptor atom, score
      L1  H     4    30       P1  7948  0.68
      L1  H     9    48       P1  7957  1.00
      L1  H    15    42       P1  8028  0.94

> <Gold.Chemscore.Hbond.Weighted>
-9.3405

> <Gold.Chemscore.Metal.Weighted>
-0.0000

> <Gold.Chemscore.Lipo.Weighted>
-10.8416

> <Gold.Chemscore.Internal_Hbond.Weighted>
0.0000

> <Gold.Chemscore.DEClash.Weighted>
0.0028

> <Gold.Chemscore.DEInternal.Weighted>
0.6510

> <Gold.Chemscore.Rot.Weighted>
5.7841

> <Gold.Chemscore.Internal.Correction.Weighted>
   9.000000E+99

> <Gold.Protein.RotatedTorsions>
[ 6907 6896 6895 6894 ] final -174.33 input  -60.11 | X-H torsion
[ 7974 7965 7964 7962 ] final  -68.55 input  175.53 | X-H torsion
[ 8008 7997 7996 7995 ] final   63.47 input   59.86 | X-H torsion
[ 10167 10162 10161 10158 ] final -145.94 input  -65.29 | X-H torsion
[ 10718 10713 10712 10709 ] final   64.89 input   66.30 | X-H torsion
[ 10763 10752 10751 10750 ] final -132.51 input  -60.55 | X-H torsion
[ 11005 11000 10999 10996 ] final   66.78 input  -57.11 | X-H torsion

> <Gold.Protein.ActiveResidues>
 VAL166  LYS551  ARG553  GLY616  TRP617  ASP618  TYR619  PRO620  LYS621  CYS622 
 ASP623  PHE694  ASN695  SER759  ASP760  ASP761  ALA762  ILE779  LEU786  VAL792 
 PHE793  MET794  SER795  GLU796  ALA797  LYS798  CYS799  TRP800  GLU811  SER814 

> <Gold.Protein.RotatedAtoms>
  151.5707  133.3390  159.2988 H   0  0  0  0  0  0  0  0  0  0  0  0  # atno 6907 bound_to 6896
  150.8369  134.7649  159.6912 H   0  0  0  0  0  0  0  0  0  0  0  0  # atno 6908 bound_to 6896
  152.4444  134.5532  159.9924 H   0  0  0  0  0  0  0  0  0  0  0  0  # atno 6909 bound_to 6896
  145.7150  140.9062  143.0660 H   0  0  0  0  0  0  0  0  0  0  0  0  # atno 7974 bound_to 7965
  155.6307  140.3496  155.4682 H   0  0  0  0  0  0  0  0  0  0  0  0  # atno 8008 bound_to 7997
  156.0005  140.1212  157.0575 H   0  0  0  0  0  0  0  0  0  0  0  0  # atno 8009 bound_to 7997
  154.4247  140.1101  156.5677 H   0  0  0  0  0  0  0  0  0  0  0  0  # atno 8010 bound_to 7997
  139.7759  143.8170  152.2632 H   0  0  0  0  0  0  0  0  0  0  0  0  # atno 10167 bound_to 10162
  157.6069  130.9184  149.9904 H   0  0  0  0  0  0  0  0  0  0  0  0  # atno 10718 bound_to 10713
  154.8742  135.3795  154.4421 H   0  0  0  0  0  0  0  0  0  0  0  0  # atno 10763 bound_to 10752
  153.5105  135.7029  153.5788 H   0  0  0  0  0  0  0  0  0  0  0  0  # atno 10764 bound_to 10752
  153.4080  135.3932  155.1998 H   0  0  0  0  0  0  0  0  0  0  0  0  # atno 10765 bound_to 10752
  139.9811  134.6743  156.0262 H   0  0  0  0  0  0  0  0  0  0  0  0  # atno 11005 bound_to 11000
  144.6931  139.9126  143.7464 LP  0  0  0  0  0  0  0  0  0  0  0  0  # atno 17320 bound_to 7965
  146.0677  139.3667  143.0542 LP  0  0  0  0  0  0  0  0  0  0  0  0  # atno 17321 bound_to 7965
  139.8218  144.7292  150.9562 LP  0  0  0  0  0  0  0  0  0  0  0  0  # atno 17342 bound_to 10162
  140.7816  143.4151  151.0930 LP  0  0  0  0  0  0  0  0  0  0  0  0  # atno 17343 bound_to 10162
  156.1158  130.3648  149.9970 LP  0  0  0  0  0  0  0  0  0  0  0  0  # atno 17370 bound_to 10713
  156.8059  130.9307  151.3645 LP  0  0  0  0  0  0  0  0  0  0  0  0  # atno 17371 bound_to 10713
  141.1482  133.6552  156.3933 LP  0  0  0  0  0  0  0  0  0  0  0  0  # atno 17394 bound_to 11000
  140.5096  134.6408  157.5279 LP  0  0  0  0  0  0  0  0  0  0  0  0  # atno 17395 bound_to 11000

$$$$
