AV-unprocessed.smi:450|AV-procd|sdf|2607|dock5
  -GOLD-   2262023 03D 1   1.00000     0.00000
 Structure written by MMmdl.
 32 32  0  0  0  0  0  0  0  0  1 V2000
  149.0631  131.0783  154.8776 C   0  0  0  0  0  0  0  0  0  0  0  0
  150.4287  131.5526  155.3955 C   0  0  0  0  0  0  0  0  0  0  0  0
  150.3407  132.6699  156.4532 C   0  0  2  0  0  0  0  0  0  0  0  0
  149.4423  132.2673  157.6310 C   0  0  0  0  0  0  0  0  0  0  0  0
  149.8276  133.9020  155.8563 N   0  0  0  0  0  0  0  0  0  0  0  0
  150.4266  135.1026  155.8853 C   0  0  0  0  0  0  0  0  0  0  0  0
  151.5073  135.3091  156.4394 O   0  0  0  0  0  0  0  0  0  0  0  0
  149.6769  136.2316  155.1676 C   0  0  0  0  0  0  0  0  0  0  0  0
  150.2652  137.5478  155.4126 N   0  0  0  0  0  0  0  0  0  0  0  0
  150.5767  138.5015  154.5117 C   0  0  0  0  0  0  0  0  0  0  0  0
  150.3483  138.3075  153.1574 N   0  0  0  0  0  0  0  0  0  0  0  0
  151.1095  139.6014  155.0371 N   0  0  0  0  0  0  0  0  0  0  0  0
  151.1669  139.3568  156.4078 C   0  0  0  0  0  0  0  0  0  0  0  0
  151.6914  140.3142  157.3220 C   0  0  0  0  0  0  0  0  0  0  0  0
  152.1170  141.0903  158.0670 N   0  0  0  0  0  0  0  0  0  0  0  0
  150.6516  138.0983  156.6325 C   0  0  0  0  0  0  0  0  0  0  0  0
  150.5323  137.4523  157.8812 C   0  0  0  0  0  0  0  0  0  0  0  0
  150.4348  136.9239  158.9056 N   0  0  0  0  0  0  0  0  0  0  0  0
  149.1857  130.3342  154.0906 H   0  0  0  0  0  0  0  0  0  0  0  0
  148.4897  131.9081  154.4635 H   0  0  0  0  0  0  0  0  0  0  0  0
  148.4691  130.6222  155.6698 H   0  0  0  0  0  0  0  0  0  0  0  0
  150.9753  130.7003  155.8013 H   0  0  0  0  0  0  0  0  0  0  0  0
  151.0141  131.9109  154.5480 H   0  0  0  0  0  0  0  0  0  0  0  0
  151.3435  132.8324  156.8519 H   0  0  0  0  0  0  0  0  0  0  0  0
  149.8124  131.3632  158.1153 H   0  0  0  0  0  0  0  0  0  0  0  0
  148.4198  132.0751  157.3047 H   0  0  0  0  0  0  0  0  0  0  0  0
  149.4089  133.0536  158.3860 H   0  0  0  0  0  0  0  0  0  0  0  0
  148.9420  133.8324  155.3760 H   0  0  0  0  0  0  0  0  0  0  0  0
  149.6667  136.0368  154.0946 H   0  0  0  0  0  0  0  0  0  0  0  0
  148.6349  136.2373  155.4889 H   0  0  0  0  0  0  0  0  0  0  0  0
  149.9438  137.4490  152.8119 H   0  0  0  0  0  0  0  0  0  0  0  0
  150.5369  139.0311  152.4791 H   0  0  0  0  0  0  0  0  0  0  0  0
  1  2  1  0  0  0  0
  1 19  1  0  0  0  0
  1 20  1  0  0  0  0
  1 21  1  0  0  0  0
  2  3  1  0  0  0  0
  2 22  1  0  0  0  0
  2 23  1  0  0  0  0
  3  4  1  0  0  0  0
  3  5  1  0  0  0  0
  3 24  1  0  0  0  0
  4 25  1  0  0  0  0
  4 26  1  0  0  0  0
  4 27  1  0  0  0  0
  5  6  1  0  0  0  0
  5 28  1  0  0  0  0
  6  7  2  0  0  0  0
  6  8  1  0  0  0  0
  8  9  1  0  0  0  0
  8 29  1  0  0  0  0
  8 30  1  0  0  0  0
  9 16  1  0  0  0  0
  9 10  1  0  0  0  0
 10 11  1  0  0  0  0
 10 12  2  0  0  0  0
 11 31  1  0  0  0  0
 11 32  1  0  0  0  0
 12 13  1  0  0  0  0
 13 14  1  0  0  0  0
 13 16  2  0  0  0  0
 14 15  3  0  0  0  0
 16 17  1  0  0  0  0
 17 18  3  0  0  0  0
M  END
> <s_m_source_file>
AV-unprocessed.smi

> <i_m_source_file_index>
450

> <i_lp_mmshare_version>
43012

> <i_f3d_flags>
0

> <s_epik_input>
W0NIM11bQ0gyXVtDQEhdKFtDSDNdKVtOSF1DKD1PKVtDSDJdbjFjKFtOSDJdKW5jKEMjTiljMUMjTg==

> <s_epik_cmdline>
J2VwaWtfcHl0aG9uJywgJy1waCcsICc3LjAnLCAnLXRuJywgJzgnLCAnLW1hJywgJzIwMCcsICctbWV0YWxfYmluZGluZycsICctaW1hZScsICc8aW5maWxlLm1hZT4nLCAnLW9tYWUnLCAnPG91dGZpbGUubWFlPic=

> <r_epik_Ionization_Penalty>
0.000482749

> <r_epik_Ionization_Penalty_Charging>
7.71074e-10

> <r_epik_Ionization_Penalty_Neutral>
0.000482748

> <r_epik_State_Penalty>
0.000433536

> <r_epik_Charging_Adjusted_Penalty>
0.000433537

> <i_epik_Tot_Q>
0

> <i_epik_Tot_abs_Q>
0

> <r_epik_Metal_State_Penalty>
-0

> <b_epik_Metal_Only>
0

> <s_lp_Force_Field>
OPLS_2005

> <r_lp_Energy>
6.35239

> <b_lp_Chiralities_Consistent>
1

> <s_lp_Variant>
AV-unprocessed.smi:450-1

> <Gold.Version>
5.8.1

> <Gold.Id.Protein>
6NUR|6NUR_protein|mol2

> <Gold.PLP.Fitness>
36.2511

> <Gold.PLP.PLP>
-21.7727

> <Gold.PLP.part.hbond>
-5.7000

> <Gold.PLP.part.metal>
0.0000

> <Gold.PLP.part.buried>
-0.9777

> <Gold.PLP.part.nonpolar>
-13.9695

> <Gold.PLP.part.repulsive>
0.2247

> <Gold.PLP.ligand.clash>
0.0000

> <Gold.PLP.ligand.torsion>
0.2746

> <Gold.PLP.Chemscore.Hbond>
5.0000

> <Gold.PLP.Chemscore.CHOScore>
0.0000

> <Gold.PLP.Chemscore.Metal>
0.0000

> <Gold.Chemscore.Hbonds>
donor molecule, donor type, donor heavy atom, donor atom, acceptor molecule, acceptor atom, score
      L1  H    11    31       P1  7948  0.85
      L1  H    11    32       P1  7957  0.68
      P1  H  6896  6907       L1    18  0.59
      P1  H  7989  7998       L1    12  0.93
      P1  H 10752 10764       L1     7  0.62

> <Gold.PLP.Chemscore.Internal.Correction>
0.0277

> <Gold.Rescore>
     Score         DG    S(hbond)    S(metal)    S(lipo)     H(rot)  DE(clash)    DE(int)     intcor
     15.37     -18.15       4.39        0.00      31.33       2.21       0.12       2.66       ----

> <Gold.Chemscore.Fitness>
15.3660

> <Gold.Chemscore.DG>
-18.1503

> <Gold.Chemscore.ZeroCoef>
-5.4800

> <Gold.Chemscore.Hbond>
4.3915

> <Gold.Chemscore.Metal>
0.0000

> <Gold.Chemscore.Lipo>
31.3295

> <Gold.Chemscore.Internal_Hbond>
0.0000

> <Gold.Chemscore.DEClash>
0.1226

> <Gold.Chemscore.DEInternal>
2.6616

> <Gold.Chemscore.Rot>
2.2121

> <Gold.Chemscore.Internal.Correction>
   9.000000E+99

> <Gold.Chemscore.Hbonds>
donor molecule, donor type, donor heavy atom, donor atom, acceptor molecule, acceptor atom, score
      L1  H    11    31       P1  7948  0.15
      L1  H    11    32       P1  7957  0.12
      P1  H  6896  6907       L1    18  0.57
      P1  H  7989  7998       L1    12  0.58
      P1  H 10752 10764       L1     7  0.58

> <Gold.Chemscore.Hbond.Weighted>
-14.6676

> <Gold.Chemscore.Metal.Weighted>
-0.0000

> <Gold.Chemscore.Lipo.Weighted>
-3.6655

> <Gold.Chemscore.Internal_Hbond.Weighted>
0.0000

> <Gold.Chemscore.DEClash.Weighted>
0.1226

> <Gold.Chemscore.DEInternal.Weighted>
2.6616

> <Gold.Chemscore.Rot.Weighted>
5.6629

> <Gold.Chemscore.Internal.Correction.Weighted>
   9.000000E+99

> <Gold.Protein.RotatedTorsions>
[ 6907 6896 6895 6894 ] final  -19.68 input  -60.11 | X-H torsion
[ 7974 7965 7964 7962 ] final   64.67 input  175.53 | X-H torsion
[ 8008 7997 7996 7995 ] final -178.60 input   59.86 | X-H torsion
[ 10167 10162 10161 10158 ] final  -17.38 input  -65.29 | X-H torsion
[ 10718 10713 10712 10709 ] final  -29.12 input   66.30 | X-H torsion
[ 10763 10752 10751 10750 ] final  -14.38 input  -60.55 | X-H torsion
[ 11005 11000 10999 10996 ] final  -68.41 input  -57.11 | X-H torsion

> <Gold.Protein.ActiveResidues>
 VAL166  LYS551  ARG553  GLY616  TRP617  ASP618  TYR619  PRO620  LYS621  CYS622 
 ASP623  PHE694  ASN695  SER759  ASP760  ASP761  ALA762  ILE779  LEU786  VAL792 
 PHE793  MET794  SER795  GLU796  ALA797  LYS798  CYS799  TRP800  GLU811  SER814 

> <Gold.Protein.RotatedAtoms>
  151.2595  135.0649  159.9092 H   0  0  0  0  0  0  0  0  0  0  0  0  # atno 6907 bound_to 6896
  152.5368  134.0246  159.8007 H   0  0  0  0  0  0  0  0  0  0  0  0  # atno 6908 bound_to 6896
  151.0467  133.5610  159.2677 H   0  0  0  0  0  0  0  0  0  0  0  0  # atno 6909 bound_to 6896
  145.8475  139.3233  143.0895 H   0  0  0  0  0  0  0  0  0  0  0  0  # atno 7974 bound_to 7965
  156.0208  140.1260  157.0360 H   0  0  0  0  0  0  0  0  0  0  0  0  # atno 8008 bound_to 7997
  154.4311  140.1069  156.6030 H   0  0  0  0  0  0  0  0  0  0  0  0  # atno 8009 bound_to 7997
  155.5948  140.3470  155.4579 H   0  0  0  0  0  0  0  0  0  0  0  0  # atno 8010 bound_to 7997
  140.7246  143.5022  150.9855 H   0  0  0  0  0  0  0  0  0  0  0  0  # atno 10167 bound_to 10162
  156.4165  130.4418  149.7214 H   0  0  0  0  0  0  0  0  0  0  0  0  # atno 10718 bound_to 10713
  153.5273  135.7015  153.5701 H   0  0  0  0  0  0  0  0  0  0  0  0  # atno 10763 bound_to 10752
  153.3723  135.3941  155.1798 H   0  0  0  0  0  0  0  0  0  0  0  0  # atno 10764 bound_to 10752
  154.8688  135.3815  154.4767 H   0  0  0  0  0  0  0  0  0  0  0  0  # atno 10765 bound_to 10752
  141.1531  133.6740  156.6442 H   0  0  0  0  0  0  0  0  0  0  0  0  # atno 11005 bound_to 11000
  145.9395  140.8990  143.0315 LP  0  0  0  0  0  0  0  0  0  0  0  0  # atno 17320 bound_to 7965
  144.6730  140.1529  143.7428 LP  0  0  0  0  0  0  0  0  0  0  0  0  # atno 17321 bound_to 7965
  139.8731  143.7167  152.3164 LP  0  0  0  0  0  0  0  0  0  0  0  0  # atno 17342 bound_to 10162
  139.7422  144.7556  151.0634 LP  0  0  0  0  0  0  0  0  0  0  0  0  # atno 17343 bound_to 10162
  156.4172  130.7751  151.2767 LP  0  0  0  0  0  0  0  0  0  0  0  0  # atno 17370 bound_to 10713
  157.7508  131.0194  150.3664 LP  0  0  0  0  0  0  0  0  0  0  0  0  # atno 17371 bound_to 10713
  140.3370  134.7881  157.4369 LP  0  0  0  0  0  0  0  0  0  0  0  0  # atno 17394 bound_to 11000
  140.0969  134.5524  155.8389 LP  0  0  0  0  0  0  0  0  0  0  0  0  # atno 17395 bound_to 11000

$$$$
