AV-unprocessed.smi:1|AV-procd|sdf|8|dock9
  -GOLD-   2262015 93D 1   1.00000     0.00000
 Structure written by MMmdl.
 57 62  0  0  0  0  0  0  0  0  1 V2000
  152.0371  140.0168  158.8996 O   0  0  0  0  0  0  0  0  0  0  0  0
  151.7591  141.0112  158.2283 C   0  0  0  0  0  0  0  0  0  0  0  0
  151.2039  140.9107  156.8900 N   0  0  0  0  0  0  0  0  0  0  0  0
  150.9776  139.7938  156.1595 C   0  0  0  0  0  0  0  0  0  0  0  0
  151.0598  139.7809  154.8039 N   0  0  0  0  0  0  0  0  0  0  0  0
  150.8258  138.6535  154.1289 C   0  0  0  0  0  0  0  0  0  0  0  0
  150.5008  137.4504  154.6050 N   0  0  0  0  0  0  0  0  0  0  0  0
  150.4197  137.4469  155.9684 C   0  0  0  0  0  0  0  0  0  0  0  0
  150.6410  138.5767  156.8071 C   0  0  0  0  0  0  0  0  0  0  0  0
  150.4654  138.2211  158.1366 N   0  0  0  0  0  0  0  0  0  0  0  0
  150.1568  136.9547  158.0846 C   0  0  0  0  0  0  0  0  0  0  0  0
  150.1190  136.3993  156.8240 N   0  0  0  0  0  0  0  0  0  0  0  0
  149.7920  134.9678  156.4958 C   0  0  1  0  0  0  0  0  0  0  0  0
  149.5527  134.2478  157.6658 O   0  0  0  0  0  0  0  0  0  0  0  0
  148.1525  134.0821  157.8541 C   0  0  2  0  0  0  0  0  0  0  0  0
  147.8781  132.9009  158.7882 C   0  0  0  0  0  0  0  0  0  0  0  0
  146.4840  132.6442  158.7925 O   0  0  0  0  0  0  0  0  0  0  0  0
  145.9547  131.7848  159.6831 C   0  0  0  0  0  0  0  0  0  0  0  0
  146.6137  131.2097  160.5518 O   0  0  0  0  0  0  0  0  0  0  0  0
  144.4861  131.5977  159.5028 C   0  0  0  0  0  0  0  0  0  0  0  0
  143.7319  130.9820  160.5288 C   0  0  0  0  0  0  0  0  0  0  0  0
  142.3439  130.7909  160.3822 C   0  0  0  0  0  0  0  0  0  0  0  0
  141.6931  131.2144  159.2086 C   0  0  0  0  0  0  0  0  0  0  0  0
  142.4319  131.8308  158.1817 C   0  0  0  0  0  0  0  0  0  0  0  0
  143.8196  132.0225  158.3273 C   0  0  0  0  0  0  0  0  0  0  0  0
  147.6460  133.8789  156.4281 C   0  0  1  0  0  0  0  0  0  0  0  0
  146.2871  134.2554  156.2892 O   0  0  0  0  0  0  0  0  0  0  0  0
  146.2171  135.8571  155.8186 S   0  0  0  0  0  0  0  0  0  0  0  0
  145.4941  135.9290  154.5398 O   0  0  0  0  0  0  0  0  0  0  0  0
  145.8430  136.6674  156.9876 O   0  0  0  0  0  0  0  0  0  0  0  0
  147.8407  136.0988  155.5172 O   0  0  0  0  0  0  0  0  0  0  0  0
  148.5202  134.8565  155.6294 C   0  0  1  0  0  0  0  0  0  0  0  0
  151.8990  142.3997  158.7814 C   0  0  0  0  0  0  0  0  0  0  0  0
  151.5660  143.5153  157.9808 C   0  0  0  0  0  0  0  0  0  0  0  0
  151.6777  144.8214  158.4954 C   0  0  0  0  0  0  0  0  0  0  0  0
  152.1167  145.0231  159.8175 C   0  0  0  0  0  0  0  0  0  0  0  0
  152.4396  143.9171  160.6262 C   0  0  0  0  0  0  0  0  0  0  0  0
  152.3281  142.6102  160.1127 C   0  0  0  0  0  0  0  0  0  0  0  0
  150.9766  141.7851  156.4395 H   0  0  0  0  0  0  0  0  0  0  0  0
  150.9134  138.7278  153.0553 H   0  0  0  0  0  0  0  0  0  0  0  0
  149.9549  136.3788  158.9762 H   0  0  0  0  0  0  0  0  0  0  0  0
  150.6902  134.5949  156.0024 H   0  0  0  0  0  0  0  0  0  0  0  0
  147.7274  134.9984  158.2657 H   0  0  0  0  0  0  0  0  0  0  0  0
  148.4054  132.0168  158.4272 H   0  0  0  0  0  0  0  0  0  0  0  0
  148.2339  133.1126  159.7973 H   0  0  0  0  0  0  0  0  0  0  0  0
  144.2105  130.6477  161.4382 H   0  0  0  0  0  0  0  0  0  0  0  0
  141.7785  130.3186  161.1720 H   0  0  0  0  0  0  0  0  0  0  0  0
  140.6289  131.0681  159.0965 H   0  0  0  0  0  0  0  0  0  0  0  0
  141.9344  132.1589  157.2810 H   0  0  0  0  0  0  0  0  0  0  0  0
  144.3574  132.5031  157.5239 H   0  0  0  0  0  0  0  0  0  0  0  0
  147.8106  132.8536  156.0943 H   0  0  0  0  0  0  0  0  0  0  0  0
  148.7650  134.4768  154.6371 H   0  0  0  0  0  0  0  0  0  0  0  0
  151.2265  143.3772  156.9642 H   0  0  0  0  0  0  0  0  0  0  0  0
  151.4252  145.6688  157.8750 H   0  0  0  0  0  0  0  0  0  0  0  0
  152.2020  146.0248  160.2120 H   0  0  0  0  0  0  0  0  0  0  0  0
  152.7706  144.0708  161.6427 H   0  0  0  0  0  0  0  0  0  0  0  0
  152.5725  141.7758  160.7541 H   0  0  0  0  0  0  0  0  0  0  0  0
  1  2  2  0  0  0  0
  2  3  1  0  0  0  0
  2 33  1  0  0  0  0
  3  4  1  0  0  0  0
  3 39  1  0  0  0  0
  4  9  1  0  0  0  0
  4  5  2  0  0  0  0
  5  6  1  0  0  0  0
  6  7  2  0  0  0  0
  6 40  1  0  0  0  0
  7  8  1  0  0  0  0
  8 12  1  0  0  0  0
  8  9  2  0  0  0  0
  9 10  1  0  0  0  0
 10 11  2  0  0  0  0
 11 12  1  0  0  0  0
 11 41  1  0  0  0  0
 12 13  1  0  0  0  0
 13 32  1  0  0  0  0
 13 14  1  0  0  0  0
 13 42  1  0  0  0  0
 14 15  1  0  0  0  0
 15 16  1  0  0  0  0
 15 26  1  0  0  0  0
 15 43  1  0  0  0  0
 16 17  1  0  0  0  0
 16 44  1  0  0  0  0
 16 45  1  0  0  0  0
 17 18  1  0  0  0  0
 18 19  2  0  0  0  0
 18 20  1  0  0  0  0
 20 25  1  0  0  0  0
 20 21  2  0  0  0  0
 21 22  1  0  0  0  0
 21 46  1  0  0  0  0
 22 23  2  0  0  0  0
 22 47  1  0  0  0  0
 23 24  1  0  0  0  0
 23 48  1  0  0  0  0
 24 25  2  0  0  0  0
 24 49  1  0  0  0  0
 25 50  1  0  0  0  0
 26 32  1  0  0  0  0
 26 27  1  0  0  0  0
 26 51  1  0  0  0  0
 27 28  1  0  0  0  0
 28 29  2  0  0  0  0
 28 30  2  0  0  0  0
 28 31  1  0  0  0  0
 31 32  1  0  0  0  0
 32 52  1  0  0  0  0
 33 38  1  0  0  0  0
 33 34  2  0  0  0  0
 34 35  1  0  0  0  0
 34 53  1  0  0  0  0
 35 36  2  0  0  0  0
 35 54  1  0  0  0  0
 36 37  1  0  0  0  0
 36 55  1  0  0  0  0
 37 38  2  0  0  0  0
 37 56  1  0  0  0  0
 38 57  1  0  0  0  0
M  END
> <s_m_source_file>
AV-unprocessed.smi

> <i_m_source_file_index>
1

> <i_lp_mmshare_version>
43012

> <i_f3d_flags>
0

> <s_epik_input>
W2NIXTFbY0hdW2NIXVtjSF1bY0hdYzFDKD1PKVtOSF1jKG5bY0hdbjIpYyhjMjMpbltjSF1uM1tDQEBIXShbQ0BIXShbQ0BIXTQ1KU9TKE81KSg9Tyk9TylPW0NASF00W0NIMl1PQyg9TyljNltjSF1bY0hdW2NIXVtjSF1bY0hdNg==

> <s_epik_cmdline>
J2VwaWtfcHl0aG9uJywgJy1waCcsICc3LjAnLCAnLXRuJywgJzgnLCAnLW1hJywgJzIwMCcsICctbWV0YWxfYmluZGluZycsICctaW1hZScsICc8aW5maWxlLm1hZT4nLCAnLW9tYWUnLCAnPG91dGZpbGUubWFlPic=

> <r_lp_tautomer_probability>
1

> <r_epik_Ionization_Penalty>
0.00195722

> <r_epik_Ionization_Penalty_Charging>
0

> <r_epik_Ionization_Penalty_Neutral>
0.00195722

> <r_epik_State_Penalty>
0.00633741

> <r_epik_Charging_Adjusted_Penalty>
0.00633741

> <i_epik_Tot_Q>
0

> <i_epik_Tot_abs_Q>
0

> <r_epik_Metal_State_Penalty>
0.341185

> <b_epik_Metal_Only>
0

> <s_epik_Chemistry_Notes>
This compound has an ester and may undergo hydrolysis at high or low pH. This compound contains an acetal/aminal-like group ( X-CH(R)-Y where X, Y are N, S, or O) that may be acid/base labile, releasing an aldehyde.

> <s_lp_Force_Field>
OPLS_2005

> <r_lp_Energy>
42.577

> <b_lp_Chiralities_Consistent>
1

> <s_lp_Variant>
AV-unprocessed.smi:1-8

> <Gold.Version>
5.8.1

> <Gold.Id.Protein>
6NUR|6NUR_protein|mol2

> <Gold.PLP.Fitness>
53.3948

> <Gold.PLP.PLP>
-44.9995

> <Gold.PLP.part.hbond>
-2.0000

> <Gold.PLP.part.metal>
0.0000

> <Gold.PLP.part.buried>
-9.4726

> <Gold.PLP.part.nonpolar>
-33.7953

> <Gold.PLP.part.repulsive>
0.4439

> <Gold.PLP.ligand.clash>
0.0000

> <Gold.PLP.ligand.torsion>
0.3594

> <Gold.PLP.Chemscore.Hbond>
2.0000

> <Gold.PLP.Chemscore.CHOScore>
0.9961

> <Gold.PLP.Chemscore.Metal>
0.0000

> <Gold.Chemscore.Hbonds>
donor molecule, donor type, donor heavy atom, donor atom, acceptor molecule, acceptor atom, score
      P1  H  6896  6908       L1    14  1.00
      P1  H  7989  7998       L1     5  1.00
      L1  C     6    40       P1  7957  0.69

> <Gold.PLP.Chemscore.Internal.Correction>
0.1258

> <Gold.Rescore>
     Score         DG    S(hbond)    S(metal)    S(lipo)     H(rot)  DE(clash)    DE(int)     intcor
     13.54     -19.30       1.90        0.00     110.67       2.13       0.21       5.55       ----

> <Gold.Chemscore.Fitness>
13.5353

> <Gold.Chemscore.DG>
-19.3013

> <Gold.Chemscore.ZeroCoef>
-5.4800

> <Gold.Chemscore.Hbond>
1.8966

> <Gold.Chemscore.Metal>
0.0000

> <Gold.Chemscore.Lipo>
110.6678

> <Gold.Chemscore.Internal_Hbond>
0.0000

> <Gold.Chemscore.DEClash>
0.2132

> <Gold.Chemscore.DEInternal>
5.5528

> <Gold.Chemscore.Rot>
2.1333

> <Gold.Chemscore.Internal.Correction>
   9.000000E+99

> <Gold.Chemscore.Hbonds>
donor molecule, donor type, donor heavy atom, donor atom, acceptor molecule, acceptor atom, score
      P1  H  6896  6908       L1    14  0.87
      P1  H  7989  7998       L1     5  0.30

> <Gold.Chemscore.Hbond.Weighted>
-6.3346

> <Gold.Chemscore.Metal.Weighted>
-0.0000

> <Gold.Chemscore.Lipo.Weighted>
-12.9481

> <Gold.Chemscore.Internal_Hbond.Weighted>
0.0000

> <Gold.Chemscore.DEClash.Weighted>
0.2132

> <Gold.Chemscore.DEInternal.Weighted>
5.5528

> <Gold.Chemscore.Rot.Weighted>
5.4614

> <Gold.Chemscore.Internal.Correction.Weighted>
   9.000000E+99

> <Gold.Protein.RotatedTorsions>
[ 6907 6896 6895 6894 ] final  135.85 input  -60.11 | X-H torsion
[ 7974 7965 7964 7962 ] final  -31.66 input  175.53 | X-H torsion
[ 8008 7997 7996 7995 ] final  -72.45 input   59.86 | X-H torsion
[ 10167 10162 10161 10158 ] final  -68.28 input  -65.29 | X-H torsion
[ 10718 10713 10712 10709 ] final  -61.05 input   66.30 | X-H torsion
[ 10763 10752 10751 10750 ] final  -20.47 input  -60.55 | X-H torsion
[ 11005 11000 10999 10996 ] final   22.85 input  -57.11 | X-H torsion

> <Gold.Protein.ActiveResidues>
 VAL166  LYS551  ARG553  GLY616  TRP617  ASP618  TYR619  PRO620  LYS621  CYS622 
 ASP623  PHE694  ASN695  SER759  ASP760  ASP761  ALA762  ILE779  LEU786  VAL792 
 PHE793  MET794  SER795  GLU796  ALA797  LYS798  CYS799  TRP800  GLU811  SER814 

> <Gold.Protein.RotatedAtoms>
  152.2959  133.5607  159.5586 H   0  0  0  0  0  0  0  0  0  0  0  0  # atno 6907 bound_to 6896
  150.7255  134.0362  159.3759 H   0  0  0  0  0  0  0  0  0  0  0  0  # atno 6908 bound_to 6896
  151.8265  135.0635  160.0482 H   0  0  0  0  0  0  0  0  0  0  0  0  # atno 6909 bound_to 6896
  146.1050  140.5695  142.8803 H   0  0  0  0  0  0  0  0  0  0  0  0  # atno 7974 bound_to 7965
  154.5167  140.0797  156.8094 H   0  0  0  0  0  0  0  0  0  0  0  0  # atno 8008 bound_to 7997
  155.3665  140.3420  155.4224 H   0  0  0  0  0  0  0  0  0  0  0  0  # atno 8009 bound_to 7997
  156.1635  140.1596  156.8558 H   0  0  0  0  0  0  0  0  0  0  0  0  # atno 8010 bound_to 7997
  140.5519  143.2312  151.6895 H   0  0  0  0  0  0  0  0  0  0  0  0  # atno 10167 bound_to 10162
  156.0948  130.4194  150.0939 H   0  0  0  0  0  0  0  0  0  0  0  0  # atno 10718 bound_to 10713
  153.6209  135.6993  153.5311 H   0  0  0  0  0  0  0  0  0  0  0  0  # atno 10763 bound_to 10752
  153.2938  135.4149  155.1190 H   0  0  0  0  0  0  0  0  0  0  0  0  # atno 10764 bound_to 10752
  154.8543  135.3632  154.5750 H   0  0  0  0  0  0  0  0  0  0  0  0  # atno 10765 bound_to 10752
  140.3760  134.1971  155.7665 H   0  0  0  0  0  0  0  0  0  0  0  0  # atno 11005 bound_to 11000
  144.7464  140.5078  143.6833 LP  0  0  0  0  0  0  0  0  0  0  0  0  # atno 17320 bound_to 7965
  145.5778  139.1487  143.3252 LP  0  0  0  0  0  0  0  0  0  0  0  0  # atno 17321 bound_to 7965
  139.5031  144.3804  152.0382 LP  0  0  0  0  0  0  0  0  0  0  0  0  # atno 17342 bound_to 10162
  140.2922  144.3741  150.6085 LP  0  0  0  0  0  0  0  0  0  0  0  0  # atno 17343 bound_to 10162
  156.8941  130.9598  151.3585 LP  0  0  0  0  0  0  0  0  0  0  0  0  # atno 17370 bound_to 10713
  157.6107  130.8580  149.8946 LP  0  0  0  0  0  0  0  0  0  0  0  0  # atno 17371 bound_to 10713
  141.1939  133.8140  157.0780 LP  0  0  0  0  0  0  0  0  0  0  0  0  # atno 17394 bound_to 11000
  140.0515  134.9803  157.1144 LP  0  0  0  0  0  0  0  0  0  0  0  0  # atno 17395 bound_to 11000

$$$$
