AV-unprocessed.smi:2451|AV-procd|sdf|9683|dock7
  -GOLD-   2272013323D 1   1.00000     0.00000
 Structure written by MMmdl.
 37 38  0  0  0  0  0  0  0  0  2 V2000
  147.6759  132.3949  160.5880 C   0  0  0  0  0  0  0  0  0  0  0  0
  147.8368  133.7954  161.2049 C   0  0  2  0  0  0  0  0  0  0  0  0
  146.7097  134.0923  162.2260 C   0  0  0  0  0  0  0  0  0  0  0  0
  146.9392  135.4726  162.8796 C   0  0  0  0  0  0  0  0  0  0  0  0
  147.1452  136.6124  161.8500 C   0  0  0  0  0  0  0  0  0  0  0  0
  148.2713  136.3083  160.8300 C   0  0  2  0  0  0  0  0  0  0  0  0
  148.4031  137.3826  159.8554 N   0  5  0  0  0  0  0  0  0  0  0  0
  149.5755  137.3229  158.7353 S   0  0  0  0  0  0  0  0  0  0  0  0
  150.7136  138.2037  159.0472 O   0  0  0  0  0  0  0  0  0  0  0  0
  149.8860  135.9396  158.3398 O   0  0  0  0  0  0  0  0  0  0  0  0
  148.7089  138.0780  157.2890 C   0  0  0  0  0  0  0  0  0  0  0  0
  149.6536  138.2412  156.1284 C   0  0  0  0  0  0  0  0  0  0  0  0
  150.3820  137.2385  155.4292 C   0  0  0  0  0  0  0  0  0  0  0  0
  151.0680  137.9420  154.4825 C   0  0  0  0  0  0  0  0  0  0  0  0
  150.8010  139.2679  154.5898 O   0  0  0  0  0  0  0  0  0  0  0  0
  149.9002  139.4495  155.6454 N   0  0  0  0  0  0  0  0  0  0  0  0
  147.9930  134.9329  160.1370 C   0  0  2  0  0  0  0  0  0  0  0  0
  146.8049  134.9585  159.1350 C   0  0  0  0  0  0  0  0  0  0  0  0
  146.7108  132.2740  160.0963 H   0  0  0  0  0  0  0  0  0  0  0  0
  147.7446  131.6242  161.3561 H   0  0  0  0  0  0  0  0  0  0  0  0
  148.4573  132.1962  159.8542 H   0  0  0  0  0  0  0  0  0  0  0  0
  148.7695  133.7421  161.7727 H   0  0  0  0  0  0  0  0  0  0  0  0
  145.7377  134.0742  161.7325 H   0  0  0  0  0  0  0  0  0  0  0  0
  146.6799  133.3202  162.9953 H   0  0  0  0  0  0  0  0  0  0  0  0
  146.0915  135.7139  163.5215 H   0  0  0  0  0  0  0  0  0  0  0  0
  147.8037  135.4150  163.5441 H   0  0  0  0  0  0  0  0  0  0  0  0
  146.2068  136.7927  161.3244 H   0  0  0  0  0  0  0  0  0  0  0  0
  147.3676  137.5351  162.3864 H   0  0  0  0  0  0  0  0  0  0  0  0
  149.1973  136.1929  161.3953 H   0  0  0  0  0  0  0  0  0  0  0  0
  147.8836  137.4172  157.0232 H   0  0  0  0  0  0  0  0  0  0  0  0
  148.2772  139.0303  157.5952 H   0  0  0  0  0  0  0  0  0  0  0  0
  150.3893  136.1709  155.5920 H   0  0  0  0  0  0  0  0  0  0  0  0
  151.7548  137.6573  153.6993 H   0  0  0  0  0  0  0  0  0  0  0  0
  148.8809  134.6958  159.5488 H   0  0  0  0  0  0  0  0  0  0  0  0
  145.8478  135.1490  159.6217 H   0  0  0  0  0  0  0  0  0  0  0  0
  146.7135  134.0091  158.6093 H   0  0  0  0  0  0  0  0  0  0  0  0
  146.9302  135.7103  158.3540 H   0  0  0  0  0  0  0  0  0  0  0  0
  1  2  1  0  0  0  0
  1 19  1  0  0  0  0
  1 20  1  0  0  0  0
  1 21  1  0  0  0  0
  2 17  1  0  0  0  0
  2  3  1  0  0  0  0
  2 22  1  0  0  0  0
  3  4  1  0  0  0  0
  3 23  1  0  0  0  0
  3 24  1  0  0  0  0
  4  5  1  0  0  0  0
  4 25  1  0  0  0  0
  4 26  1  0  0  0  0
  5  6  1  0  0  0  0
  5 27  1  0  0  0  0
  5 28  1  0  0  0  0
  6  7  1  0  0  0  0
  6 17  1  0  0  0  0
  6 29  1  0  0  0  0
  7  8  1  0  0  0  0
  8  9  2  0  0  0  0
  8 10  2  0  0  0  0
  8 11  1  0  0  0  0
 11 12  1  0  0  0  0
 11 30  1  0  0  0  0
 11 31  1  0  0  0  0
 12 16  2  0  0  0  0
 12 13  1  0  0  0  0
 13 14  2  0  0  0  0
 13 32  1  0  0  0  0
 14 15  1  0  0  0  0
 14 33  1  0  0  0  0
 15 16  1  0  0  0  0
 17 18  1  0  0  0  0
 17 34  1  0  0  0  0
 18 35  1  0  0  0  0
 18 36  1  0  0  0  0
 18 37  1  0  0  0  0
M  CHG  1   7  -1
M  END
> <s_m_source_file>
AV-unprocessed.smi

> <i_m_source_file_index>
2451

> <i_lp_mmshare_version>
43012

> <i_f3d_flags>
0

> <s_epik_input>
W0NIM11bQ0BASF0xW0NIMl1bQ0gyXVtDSDJdW0NASF0oW0NASF0xW0NIM10pW05IXVMoPU8pKD1PKVtDSDJdYzJbY0hdW2NIXW9uMg==

> <s_epik_cmdline>
J2VwaWtfcHl0aG9uJywgJy1waCcsICc3LjAnLCAnLXRuJywgJzgnLCAnLW1hJywgJzIwMCcsICctbWV0YWxfYmluZGluZycsICctaW1hZScsICc8aW5maWxlLm1hZT4nLCAnLW9tYWUnLCAnPG91dGZpbGUubWFlPic=

> <r_lp_tautomer_probability>
1

> <r_epik_Ionization_Penalty>
5.22693

> <r_epik_Ionization_Penalty_Charging>
5.22693

> <r_epik_Ionization_Penalty_Neutral>
2.67702e-10

> <r_epik_State_Penalty>
5.22685

> <r_epik_Charging_Adjusted_Penalty>
10.4538

> <i_epik_Tot_Q>
-1

> <i_epik_Tot_abs_Q>
1

> <r_epik_Metal_State_Penalty>
1.28716

> <b_epik_Metal_Only>
1

> <s_lp_Force_Field>
OPLS_2005

> <r_lp_Energy>
15.3168

> <b_lp_Chiralities_Consistent>
1

> <s_lp_Variant>
AV-unprocessed.smi:2451-15

> <Gold.Version>
5.8.1

> <Gold.Id.Protein>
6NUR|6NUR_protein|mol2

> <Gold.PLP.Fitness>
36.8681

> <Gold.PLP.PLP>
-29.7667

> <Gold.PLP.part.hbond>
-4.4963

> <Gold.PLP.part.metal>
0.0000

> <Gold.PLP.part.buried>
-4.0692

> <Gold.PLP.part.nonpolar>
-21.6651

> <Gold.PLP.part.repulsive>
0.0751

> <Gold.PLP.ligand.clash>
0.0000

> <Gold.PLP.ligand.torsion>
0.6474

> <Gold.PLP.Chemscore.Hbond>
2.4675

> <Gold.PLP.Chemscore.CHOScore>
0.0000

> <Gold.PLP.Chemscore.Metal>
0.0000

> <Gold.Chemscore.Hbonds>
donor molecule, donor type, donor heavy atom, donor atom, acceptor molecule, acceptor atom, score
      P1  H  6896  6907       L1    10  1.00
      P1  H  6934  6947       L1     7  0.34
      P1  H  7989  7998       L1    15  0.81
      L1  C    14    33       P1  7949  0.24

> <Gold.PLP.Chemscore.Internal.Correction>
0.9938

> <Gold.Rescore>
     Score         DG    S(hbond)    S(metal)    S(lipo)     H(rot)  DE(clash)    DE(int)     intcor
     14.67     -16.74       1.99        0.00      69.89       1.40       0.09       1.98       ----

> <Gold.Chemscore.Fitness>
14.6712

> <Gold.Chemscore.DG>
-16.7365

> <Gold.Chemscore.ZeroCoef>
-5.4800

> <Gold.Chemscore.Hbond>
1.9938

> <Gold.Chemscore.Metal>
0.0000

> <Gold.Chemscore.Lipo>
69.8949

> <Gold.Chemscore.Internal_Hbond>
0.0000

> <Gold.Chemscore.DEClash>
0.0901

> <Gold.Chemscore.DEInternal>
1.9752

> <Gold.Chemscore.Rot>
1.3986

> <Gold.Chemscore.Internal.Correction>
   9.000000E+99

> <Gold.Chemscore.Hbonds>
donor molecule, donor type, donor heavy atom, donor atom, acceptor molecule, acceptor atom, score
      P1  H  6896  6907       L1    10  0.92
      P1  H  6934  6947       L1     7  0.04
      P1  H  7989  7998       L1    15  0.80

> <Gold.Chemscore.Hbond.Weighted>
-6.6592

> <Gold.Chemscore.Metal.Weighted>
-0.0000

> <Gold.Chemscore.Lipo.Weighted>
-8.1777

> <Gold.Chemscore.Internal_Hbond.Weighted>
0.0000

> <Gold.Chemscore.DEClash.Weighted>
0.0901

> <Gold.Chemscore.DEInternal.Weighted>
1.9752

> <Gold.Chemscore.Rot.Weighted>
3.5804

> <Gold.Chemscore.Internal.Correction.Weighted>
   9.000000E+99

> <Gold.Protein.RotatedTorsions>
[ 6907 6896 6895 6894 ] final  -55.43 input  -60.11 | X-H torsion
[ 7974 7965 7964 7962 ] final   31.33 input  175.53 | X-H torsion
[ 8008 7997 7996 7995 ] final   14.17 input   59.86 | X-H torsion
[ 10167 10162 10161 10158 ] final  -43.62 input  -65.29 | X-H torsion
[ 10718 10713 10712 10709 ] final  159.71 input   66.30 | X-H torsion
[ 10763 10752 10751 10750 ] final  -77.18 input  -60.55 | X-H torsion
[ 11005 11000 10999 10996 ] final   11.60 input  -57.11 | X-H torsion

> <Gold.Protein.ActiveResidues>
 VAL166  LYS551  ARG553  GLY616  TRP617  ASP618  TYR619  PRO620  LYS621  CYS622 
 ASP623  PHE694  ASN695  SER759  ASP760  ASP761  ALA762  ILE779  LEU786  VAL792 
 PHE793  MET794  SER795  GLU796  ALA797  LYS798  CYS799  TRP800  GLU811  SER814 

> <Gold.Protein.RotatedAtoms>
  150.8252  134.7479  159.6806 H   0  0  0  0  0  0  0  0  0  0  0  0  # atno 6907 bound_to 6896
  152.4363  134.5676  159.9921 H   0  0  0  0  0  0  0  0  0  0  0  0  # atno 6908 bound_to 6896
  151.5850  133.3335  159.3052 H   0  0  0  0  0  0  0  0  0  0  0  0  # atno 6909 bound_to 6896
  146.1557  139.6671  142.9068 H   0  0  0  0  0  0  0  0  0  0  0  0  # atno 7974 bound_to 7965
  154.8447  140.2920  155.5637 H   0  0  0  0  0  0  0  0  0  0  0  0  # atno 8008 bound_to 7997
  156.3013  140.2507  156.3327 H   0  0  0  0  0  0  0  0  0  0  0  0  # atno 8009 bound_to 7997
  154.9087  140.0389  157.1923 H   0  0  0  0  0  0  0  0  0  0  0  0  # atno 8010 bound_to 7997
  140.6927  143.2973  151.3378 H   0  0  0  0  0  0  0  0  0  0  0  0  # atno 10167 bound_to 10162
  157.1605  131.0586  151.2235 H   0  0  0  0  0  0  0  0  0  0  0  0  # atno 10718 bound_to 10713
  154.5096  135.5772  153.6594 H   0  0  0  0  0  0  0  0  0  0  0  0  # atno 10763 bound_to 10752
  152.9894  135.6155  154.2896 H   0  0  0  0  0  0  0  0  0  0  0  0  # atno 10764 bound_to 10752
  154.2809  135.2851  155.2677 H   0  0  0  0  0  0  0  0  0  0  0  0  # atno 10765 bound_to 10752
  140.5014  134.0742  155.7794 H   0  0  0  0  0  0  0  0  0  0  0  0  # atno 11005 bound_to 11000
  145.4715  141.0436  143.2696 LP  0  0  0  0  0  0  0  0  0  0  0  0  # atno 17320 bound_to 7965
  144.7960  139.6234  143.7092 LP  0  0  0  0  0  0  0  0  0  0  0  0  # atno 17321 bound_to 7965
  139.6347  144.0653  152.2506 LP  0  0  0  0  0  0  0  0  0  0  0  0  # atno 17342 bound_to 10162
  140.0139  144.6203  150.7624 LP  0  0  0  0  0  0  0  0  0  0  0  0  # atno 17343 bound_to 10162
  157.4137  130.7399  149.6859 LP  0  0  0  0  0  0  0  0  0  0  0  0  # atno 17370 bound_to 10713
  155.9755  130.4088  150.3847 LP  0  0  0  0  0  0  0  0  0  0  0  0  # atno 17371 bound_to 10713
  141.1433  133.9099  157.2274 LP  0  0  0  0  0  0  0  0  0  0  0  0  # atno 17394 bound_to 11000
  139.9711  135.0128  156.9514 LP  0  0  0  0  0  0  0  0  0  0  0  0  # atno 17395 bound_to 11000

$$$$
