AV-unprocessed.smi:1760|AV-procd|sdf|7094|dock6
  -GOLD-   22720 8313D 1   1.00000     0.00000
 Structure written by MMmdl.
 42 44  0  0  0  0  0  0  0  0  2 V2000
  149.5124  139.1602  159.0447 O   0  0  0  0  0  0  0  0  0  0  0  0
  150.1998  138.3808  158.3856 C   0  0  0  0  0  0  0  0  0  0  0  0
  149.9988  137.0556  158.2659 N   0  0  0  0  0  0  0  0  0  0  0  0
  148.9942  136.2454  158.8237 C   0  0  0  0  0  0  0  0  0  0  0  0
  148.4007  136.4556  160.0317 C   0  0  0  0  0  0  0  0  0  0  0  0
  147.3600  135.5782  160.5531 C   0  0  0  0  0  0  0  0  0  0  0  0
  146.7502  135.7205  161.9363 C   0  0  0  0  0  0  0  0  0  0  0  0
  147.2873  136.7494  162.5924 F   0  0  0  0  0  0  0  0  0  0  0  0
  145.4329  135.9112  161.8620 F   0  0  0  0  0  0  0  0  0  0  0  0
  146.9715  134.6151  162.6462 F   0  0  0  0  0  0  0  0  0  0  0  0
  147.0710  134.5378  159.6917 C   0  0  0  0  0  0  0  0  0  0  0  0
  147.5876  134.2753  158.4714 N   0  5  0  0  0  0  0  0  0  0  0  0
  148.5609  135.1013  157.9941 C   0  0  0  0  0  0  0  0  0  0  0  0
  149.0807  134.9139  156.8934 O   0  0  0  0  0  0  0  0  0  0  0  0
  151.2853  138.7583  157.6946 N   0  0  0  0  0  0  0  0  0  0  0  0
  151.8253  140.1136  157.6187 C   0  0  0  0  0  0  0  0  0  0  0  0
  152.2513  140.5946  159.0146 C   0  0  0  0  0  0  0  0  0  0  0  0
  152.6737  142.0741  158.9821 C   0  0  0  0  0  0  0  0  0  0  0  0
  151.5745  142.9030  158.4870 N   0  0  0  0  0  0  0  0  0  0  0  0
  151.9893  144.2962  158.5105 C   0  0  0  0  0  0  0  0  0  0  0  0
  151.7823  145.0657  159.7952 C   0  0  0  0  0  0  0  0  0  0  0  0
  150.9058  145.3467  158.5988 C   0  0  0  0  0  0  0  0  0  0  0  0
  151.2509  142.5299  157.1097 C   0  0  0  0  0  0  0  0  0  0  0  0
  150.7644  141.0710  157.0538 C   0  0  0  0  0  0  0  0  0  0  0  0
  150.6857  136.5463  157.7291 H   0  0  0  0  0  0  0  0  0  0  0  0
  148.6734  137.2974  160.6455 H   0  0  0  0  0  0  0  0  0  0  0  0
  146.3147  133.8018  160.0387 H   0  0  0  0  0  0  0  0  0  0  0  0
  151.7880  138.0453  157.1869 H   0  0  0  0  0  0  0  0  0  0  0  0
  152.6974  140.1463  156.9632 H   0  0  0  0  0  0  0  0  0  0  0  0
  151.4295  140.4693  159.7216 H   0  0  0  0  0  0  0  0  0  0  0  0
  153.0749  139.9833  159.3850 H   0  0  0  0  0  0  0  0  0  0  0  0
  152.9476  142.3955  159.9877 H   0  0  0  0  0  0  0  0  0  0  0  0
  153.5563  142.2026  158.3534 H   0  0  0  0  0  0  0  0  0  0  0  0
  152.8681  144.5849  157.9361 H   0  0  0  0  0  0  0  0  0  0  0  0
  151.3301  144.5430  160.6361 H   0  0  0  0  0  0  0  0  0  0  0  0
  152.5298  145.8113  160.0580 H   0  0  0  0  0  0  0  0  0  0  0  0
  151.0685  146.2806  158.0645 H   0  0  0  0  0  0  0  0  0  0  0  0
  149.8713  145.0114  158.6462 H   0  0  0  0  0  0  0  0  0  0  0  0
  150.4695  143.1882  156.7283 H   0  0  0  0  0  0  0  0  0  0  0  0
  152.1233  142.6630  156.4675 H   0  0  0  0  0  0  0  0  0  0  0  0
  150.5284  140.7999  156.0242 H   0  0  0  0  0  0  0  0  0  0  0  0
  149.8359  140.9780  157.6194 H   0  0  0  0  0  0  0  0  0  0  0  0
  1  2  2  0  0  0  0
  2  3  1  0  0  0  0
  2 15  1  0  0  0  0
  3  4  1  0  0  0  0
  3 25  1  0  0  0  0
  4 13  1  0  0  0  0
  4  5  2  0  0  0  0
  5  6  1  0  0  0  0
  5 26  1  0  0  0  0
  6  7  1  0  0  0  0
  6 11  2  0  0  0  0
  7  8  1  0  0  0  0
  7  9  1  0  0  0  0
  7 10  1  0  0  0  0
 11 12  1  0  0  0  0
 11 27  1  0  0  0  0
 12 13  1  0  0  0  0
 13 14  2  0  0  0  0
 15 16  1  0  0  0  0
 15 28  1  0  0  0  0
 16 24  1  0  0  0  0
 16 17  1  0  0  0  0
 16 29  1  0  0  0  0
 17 18  1  0  0  0  0
 17 30  1  0  0  0  0
 17 31  1  0  0  0  0
 18 19  1  0  0  0  0
 18 32  1  0  0  0  0
 18 33  1  0  0  0  0
 19 20  1  0  0  0  0
 19 23  1  0  0  0  0
 20 22  1  0  0  0  0
 20 21  1  0  0  0  0
 20 34  1  0  0  0  0
 21 22  1  0  0  0  0
 21 35  1  0  0  0  0
 21 36  1  0  0  0  0
 22 37  1  0  0  0  0
 22 38  1  0  0  0  0
 23 24  1  0  0  0  0
 23 39  1  0  0  0  0
 23 40  1  0  0  0  0
 24 41  1  0  0  0  0
 24 42  1  0  0  0  0
M  CHG  1  12  -1
M  END
> <s_m_source_file>
AV-unprocessed.smi

> <i_m_source_file_index>
1760

> <i_lp_mmshare_version>
43012

> <i_f3d_flags>
0

> <s_epik_input>
W0NIMl0xW0NIMl1bQ0hdMU4oW0NIMl1bQ0gyXTIpW0NIMl1bQ0gyXVtDSF0yW05IXUMoPU8pW05IXWMzW2NIXWMoQyhGKShGKUYpW2NIXVtuSF1jMz1P

> <s_epik_cmdline>
J2VwaWtfcHl0aG9uJywgJy1waCcsICc3LjAnLCAnLXRuJywgJzgnLCAnLW1hJywgJzIwMCcsICctbWV0YWxfYmluZGluZycsICctaW1hZScsICc8aW5maWxlLm1hZT4nLCAnLW9tYWUnLCAnPG91dGZpbGUubWFlPic=

> <r_lp_tautomer_probability>
0.999

> <r_epik_Ionization_Penalty>
4.20788

> <r_epik_Ionization_Penalty_Charging>
0.176783

> <r_epik_Ionization_Penalty_Neutral>
4.0311

> <r_epik_State_Penalty>
4.02505

> <r_epik_Charging_Adjusted_Penalty>
4.20183

> <i_epik_Tot_Q>
-1

> <i_epik_Tot_abs_Q>
1

> <r_epik_Metal_State_Penalty>
1.4828

> <b_epik_Metal_Only>
1

> <s_lp_Force_Field>
OPLS_2005

> <r_lp_Energy>
35.3535

> <b_lp_Chiralities_Consistent>
1

> <s_lp_Variant>
AV-unprocessed.smi:1760-6

> <Gold.Version>
5.8.1

> <Gold.Id.Protein>
6NUR|6NUR_protein|mol2

> <Gold.PLP.Fitness>
45.0180

> <Gold.PLP.PLP>
-45.4792

> <Gold.PLP.part.hbond>
-2.0000

> <Gold.PLP.part.metal>
0.0000

> <Gold.PLP.part.buried>
-2.9174

> <Gold.PLP.part.nonpolar>
-39.7874

> <Gold.PLP.part.repulsive>
0.1798

> <Gold.PLP.ligand.clash>
0.0000

> <Gold.PLP.ligand.torsion>
0.8454

> <Gold.PLP.Chemscore.Hbond>
0.0000

> <Gold.PLP.Chemscore.CHOScore>
0.0000

> <Gold.PLP.Chemscore.Metal>
0.0000

> <Gold.PLP.Chemscore.Internal.Correction>
1.2296

> <Gold.Rescore>
     Score         DG    S(hbond)    S(metal)    S(lipo)     H(rot)  DE(clash)    DE(int)     intcor
     11.26     -13.68       0.00        0.00      97.72       1.26       0.03       2.39       ----

> <Gold.Chemscore.Fitness>
11.2639

> <Gold.Chemscore.DG>
-13.6768

> <Gold.Chemscore.ZeroCoef>
-5.4800

> <Gold.Chemscore.Hbond>
0.0000

> <Gold.Chemscore.Metal>
0.0000

> <Gold.Chemscore.Lipo>
97.7226

> <Gold.Chemscore.Internal_Hbond>
0.0000

> <Gold.Chemscore.DEClash>
0.0261

> <Gold.Chemscore.DEInternal>
2.3868

> <Gold.Chemscore.Rot>
1.2644

> <Gold.Chemscore.Internal.Correction>
   9.000000E+99

> <Gold.Chemscore.Hbond.Weighted>
-0.0000

> <Gold.Chemscore.Metal.Weighted>
-0.0000

> <Gold.Chemscore.Lipo.Weighted>
-11.4335

> <Gold.Chemscore.Internal_Hbond.Weighted>
0.0000

> <Gold.Chemscore.DEClash.Weighted>
0.0261

> <Gold.Chemscore.DEInternal.Weighted>
2.3868

> <Gold.Chemscore.Rot.Weighted>
3.2367

> <Gold.Chemscore.Internal.Correction.Weighted>
   9.000000E+99

> <Gold.Protein.RotatedTorsions>
[ 6907 6896 6895 6894 ] final   -9.00 input  -60.11 | X-H torsion
[ 7974 7965 7964 7962 ] final  -89.26 input  175.53 | X-H torsion
[ 8008 7997 7996 7995 ] final   54.20 input   59.86 | X-H torsion
[ 10167 10162 10161 10158 ] final -166.10 input  -65.29 | X-H torsion
[ 10718 10713 10712 10709 ] final   96.05 input   66.30 | X-H torsion
[ 10763 10752 10751 10750 ] final  -44.25 input  -60.55 | X-H torsion
[ 11005 11000 10999 10996 ] final   38.43 input  -57.11 | X-H torsion

> <Gold.Protein.ActiveResidues>
 VAL166  LYS551  ARG553  GLY616  TRP617  ASP618  TYR619  PRO620  LYS621  CYS622 
 ASP623  PHE694  ASN695  SER759  ASP760  ASP761  ALA762  ILE779  LEU786  VAL792 
 PHE793  MET794  SER795  GLU796  ALA797  LYS798  CYS799  TRP800  GLU811  SER814 

> <Gold.Protein.RotatedAtoms>
  151.4247  135.1002  159.9624 H   0  0  0  0  0  0  0  0  0  0  0  0  # atno 6907 bound_to 6896
  152.4976  133.8674  159.7291 H   0  0  0  0  0  0  0  0  0  0  0  0  # atno 6908 bound_to 6896
  150.9198  133.6837  159.2862 H   0  0  0  0  0  0  0  0  0  0  0  0  # atno 6909 bound_to 6896
  145.4421  140.9559  143.2069 H   0  0  0  0  0  0  0  0  0  0  0  0  # atno 7974 bound_to 7965
  155.4808  140.3468  155.4339 H   0  0  0  0  0  0  0  0  0  0  0  0  # atno 8008 bound_to 7997
  156.1040  140.1443  156.9458 H   0  0  0  0  0  0  0  0  0  0  0  0  # atno 8009 bound_to 7997
  154.4712  140.0900  156.7127 H   0  0  0  0  0  0  0  0  0  0  0  0  # atno 8010 bound_to 7997
  139.6137  144.0762  152.1867 H   0  0  0  0  0  0  0  0  0  0  0  0  # atno 10167 bound_to 10162
  157.6931  131.0565  150.4432 H   0  0  0  0  0  0  0  0  0  0  0  0  # atno 10718 bound_to 10713
  154.0089  135.6684  153.4764 H   0  0  0  0  0  0  0  0  0  0  0  0  # atno 10763 bound_to 10752
  153.0629  135.5017  154.8131 H   0  0  0  0  0  0  0  0  0  0  0  0  # atno 10764 bound_to 10752
  154.7007  135.3078  154.9308 H   0  0  0  0  0  0  0  0  0  0  0  0  # atno 10765 bound_to 10752
  140.2127  134.3736  155.8041 H   0  0  0  0  0  0  0  0  0  0  0  0  # atno 11005 bound_to 11000
  144.8115  139.5954  143.7027 LP  0  0  0  0  0  0  0  0  0  0  0  0  # atno 17320 bound_to 7965
  146.2550  139.6283  142.9401 LP  0  0  0  0  0  0  0  0  0  0  0  0  # atno 17321 bound_to 7965
  140.0387  144.6024  150.7428 LP  0  0  0  0  0  0  0  0  0  0  0  0  # atno 17342 bound_to 10162
  140.7337  143.2720  151.3860 LP  0  0  0  0  0  0  0  0  0  0  0  0  # atno 17343 bound_to 10162
  156.4789  130.4069  149.6473 LP  0  0  0  0  0  0  0  0  0  0  0  0  # atno 17370 bound_to 10713
  156.3526  130.7440  151.2401 LP  0  0  0  0  0  0  0  0  0  0  0  0  # atno 17371 bound_to 10713
  141.2226  133.7151  156.8444 LP  0  0  0  0  0  0  0  0  0  0  0  0  # atno 17394 bound_to 11000
  140.1934  134.8949  157.3086 LP  0  0  0  0  0  0  0  0  0  0  0  0  # atno 17395 bound_to 11000

$$$$
