AV-unprocessed.smi:1499|AV-procd|sdf|6062|dock8
  -GOLD-   22720 6183D 1   1.00000     0.00000
 Structure written by MMmdl.
 40 41  0  0  0  0  0  0  0  0  1 V2000
  151.3000  144.4070  160.2708 C   0  0  0  0  0  0  0  0  0  0  0  0
  152.6336  144.1555  159.5507 C   0  0  0  0  0  0  0  0  0  0  0  0
  152.5346  143.0880  158.5565 N   0  0  0  0  0  0  0  0  0  0  0  0
  152.6118  141.7921  159.2387 C   0  0  0  0  0  0  0  0  0  0  0  0
  152.5232  140.6408  158.2178 C   0  0  0  0  0  0  0  0  0  0  0  0
  151.2491  140.7514  157.4922 N   0  0  0  0  0  0  0  0  0  0  0  0
  150.1674  139.9438  157.6267 C   0  0  0  0  0  0  0  0  0  0  0  0
  149.0848  140.1881  157.0924 O   0  0  0  0  0  0  0  0  0  0  0  0
  150.4010  138.8239  158.3374 N   0  0  0  0  0  0  0  0  0  0  0  0
  149.4812  137.7965  158.6688 C   0  0  0  0  0  0  0  0  0  0  0  0
  148.2277  137.5981  158.0337 C   0  0  0  0  0  0  0  0  0  0  0  0
  147.5868  136.5607  158.5504 N   0  0  0  0  0  0  0  0  0  0  0  0
  148.4127  136.0817  159.5145 N   0  0  0  0  0  0  0  0  0  0  0  0
  148.0152  134.9217  160.2918 C   0  0  0  0  0  0  0  0  0  0  0  0
  147.9059  135.2664  161.7780 C   0  0  0  0  0  0  0  0  0  0  0  0
  147.5761  134.2757  162.6107 N   0  0  0  0  0  0  0  0  0  0  0  0
  148.1178  136.4124  162.1689 O   0  0  0  0  0  0  0  0  0  0  0  0
  149.5800  136.8138  159.6126 C   0  0  0  0  0  0  0  0  0  0  0  0
  151.1949  142.0285  156.7747 C   0  0  0  0  0  0  0  0  0  0  0  0
  151.2823  143.1803  157.7950 C   0  0  0  0  0  0  0  0  0  0  0  0
  151.3727  145.2893  160.9067 H   0  0  0  0  0  0  0  0  0  0  0  0
  151.0141  143.5735  160.9119 H   0  0  0  0  0  0  0  0  0  0  0  0
  150.4927  144.5807  159.5584 H   0  0  0  0  0  0  0  0  0  0  0  0
  152.9169  145.0799  159.0454 H   0  0  0  0  0  0  0  0  0  0  0  0
  153.4249  143.9369  160.2693 H   0  0  0  0  0  0  0  0  0  0  0  0
  153.5552  141.7218  159.7818 H   0  0  0  0  0  0  0  0  0  0  0  0
  151.8102  141.7057  159.9743 H   0  0  0  0  0  0  0  0  0  0  0  0
  153.3489  140.7036  157.5071 H   0  0  0  0  0  0  0  0  0  0  0  0
  152.6562  139.6913  158.7358 H   0  0  0  0  0  0  0  0  0  0  0  0
  151.3388  138.7052  158.6923 H   0  0  0  0  0  0  0  0  0  0  0  0
  147.7703  138.1599  157.2324 H   0  0  0  0  0  0  0  0  0  0  0  0
  147.0518  134.5671  159.9226 H   0  0  0  0  0  0  0  0  0  0  0  0
  148.7331  134.1138  160.1402 H   0  0  0  0  0  0  0  0  0  0  0  0
  147.4857  134.4583  163.6001 H   0  0  0  0  0  0  0  0  0  0  0  0
  147.4118  133.3485  162.2465 H   0  0  0  0  0  0  0  0  0  0  0  0
  150.3510  136.5670  160.3276 H   0  0  0  0  0  0  0  0  0  0  0  0
  152.0250  142.0840  156.0683 H   0  0  0  0  0  0  0  0  0  0  0  0
  150.2903  142.1349  156.1745 H   0  0  0  0  0  0  0  0  0  0  0  0
  150.4267  143.1495  158.4717 H   0  0  0  0  0  0  0  0  0  0  0  0
  151.2349  144.1277  157.2593 H   0  0  0  0  0  0  0  0  0  0  0  0
  1  2  1  0  0  0  0
  1 21  1  0  0  0  0
  1 22  1  0  0  0  0
  1 23  1  0  0  0  0
  2  3  1  0  0  0  0
  2 24  1  0  0  0  0
  2 25  1  0  0  0  0
  3 20  1  0  0  0  0
  3  4  1  0  0  0  0
  4  5  1  0  0  0  0
  4 26  1  0  0  0  0
  4 27  1  0  0  0  0
  5  6  1  0  0  0  0
  5 28  1  0  0  0  0
  5 29  1  0  0  0  0
  6  7  1  0  0  0  0
  6 19  1  0  0  0  0
  7  8  2  0  0  0  0
  7  9  1  0  0  0  0
  9 10  1  0  0  0  0
  9 30  1  0  0  0  0
 10 18  2  0  0  0  0
 10 11  1  0  0  0  0
 11 12  2  0  0  0  0
 11 31  1  0  0  0  0
 12 13  1  0  0  0  0
 13 14  1  0  0  0  0
 13 18  1  0  0  0  0
 14 15  1  0  0  0  0
 14 32  1  0  0  0  0
 14 33  1  0  0  0  0
 15 16  1  0  0  0  0
 15 17  2  0  0  0  0
 16 34  1  0  0  0  0
 16 35  1  0  0  0  0
 18 36  1  0  0  0  0
 19 20  1  0  0  0  0
 19 37  1  0  0  0  0
 19 38  1  0  0  0  0
 20 39  1  0  0  0  0
 20 40  1  0  0  0  0
M  END
> <s_m_source_file>
AV-unprocessed.smi

> <i_m_source_file_index>
1499

> <i_lp_mmshare_version>
43012

> <i_f3d_flags>
0

> <s_epik_input>
W0NIM11bQ0gyXU4xW0NIMl1bQ0gyXU4oW0NIMl1bQ0gyXTEpQyg9TylbTkhdYzJbY0hdbm4oW2NIXTIpW0NIMl1DKD1PKVtOSDJd

> <s_epik_cmdline>
J2VwaWtfcHl0aG9uJywgJy1waCcsICc3LjAnLCAnLXRuJywgJzgnLCAnLW1hJywgJzIwMCcsICctbWV0YWxfYmluZGluZycsICctaW1hZScsICc8aW5maWxlLm1hZT4nLCAnLW9tYWUnLCAnPG91dGZpbGUubWFlPic=

> <r_lp_tautomer_probability>
1

> <r_epik_Ionization_Penalty>
0.431808

> <r_epik_Ionization_Penalty_Charging>
0

> <r_epik_Ionization_Penalty_Neutral>
0.431808

> <r_epik_State_Penalty>
0.433198

> <r_epik_Charging_Adjusted_Penalty>
0.433198

> <i_epik_Tot_Q>
0

> <i_epik_Tot_abs_Q>
0

> <r_epik_Metal_State_Penalty>
0.433196

> <b_epik_Metal_Only>
0

> <s_lp_Force_Field>
OPLS_2005

> <r_lp_Energy>
45.1289

> <b_lp_Chiralities_Consistent>
1

> <s_lp_Variant>
AV-unprocessed.smi:1499-2

> <Gold.Version>
5.8.1

> <Gold.Id.Protein>
6NUR|6NUR_protein|mol2

> <Gold.PLP.Fitness>
35.2018

> <Gold.PLP.PLP>
-32.6679

> <Gold.PLP.part.hbond>
-1.0000

> <Gold.PLP.part.metal>
0.0000

> <Gold.PLP.part.buried>
-4.6433

> <Gold.PLP.part.nonpolar>
-27.2990

> <Gold.PLP.part.repulsive>
0.3552

> <Gold.PLP.ligand.clash>
0.0000

> <Gold.PLP.ligand.torsion>
0.2631

> <Gold.PLP.Chemscore.Hbond>
1.0000

> <Gold.PLP.Chemscore.CHOScore>
0.0000

> <Gold.PLP.Chemscore.Metal>
0.0000

> <Gold.Chemscore.Hbonds>
donor molecule, donor type, donor heavy atom, donor atom, acceptor molecule, acceptor atom, score
      P1  H  6931  6943       L1    17  0.93

> <Gold.PLP.Chemscore.Internal.Correction>
0.0602

> <Gold.Rescore>
     Score         DG    S(hbond)    S(metal)    S(lipo)     H(rot)  DE(clash)    DE(int)     intcor
     11.78     -14.77       1.74        0.00      69.81       1.83       0.04       2.95       ----

> <Gold.Chemscore.Fitness>
11.7784

> <Gold.Chemscore.DG>
-14.7697

> <Gold.Chemscore.ZeroCoef>
-5.4800

> <Gold.Chemscore.Hbond>
1.7406

> <Gold.Chemscore.Metal>
0.0000

> <Gold.Chemscore.Lipo>
69.8063

> <Gold.Chemscore.Internal_Hbond>
0.0000

> <Gold.Chemscore.DEClash>
0.0368

> <Gold.Chemscore.DEInternal>
2.9544

> <Gold.Chemscore.Rot>
1.8325

> <Gold.Chemscore.Internal.Correction>
   9.000000E+99

> <Gold.Chemscore.Hbonds>
donor molecule, donor type, donor heavy atom, donor atom, acceptor molecule, acceptor atom, score
      P1  H  6931  6943       L1    17  0.89

> <Gold.Chemscore.Hbond.Weighted>
-5.8135

> <Gold.Chemscore.Metal.Weighted>
-0.0000

> <Gold.Chemscore.Lipo.Weighted>
-8.1673

> <Gold.Chemscore.Internal_Hbond.Weighted>
0.0000

> <Gold.Chemscore.DEClash.Weighted>
0.0368

> <Gold.Chemscore.DEInternal.Weighted>
2.9544

> <Gold.Chemscore.Rot.Weighted>
4.6912

> <Gold.Chemscore.Internal.Correction.Weighted>
   9.000000E+99

> <Gold.Protein.RotatedTorsions>
[ 6907 6896 6895 6894 ] final   92.80 input  -60.11 | X-H torsion
[ 7974 7965 7964 7962 ] final  -68.03 input  175.53 | X-H torsion
[ 8008 7997 7996 7995 ] final   78.48 input   59.86 | X-H torsion
[ 10167 10162 10161 10158 ] final  122.08 input  -65.29 | X-H torsion
[ 10718 10713 10712 10709 ] final  139.57 input   66.30 | X-H torsion
[ 10763 10752 10751 10750 ] final -154.55 input  -60.55 | X-H torsion
[ 11005 11000 10999 10996 ] final    8.53 input  -57.11 | X-H torsion

> <Gold.Protein.ActiveResidues>
 VAL166  LYS551  ARG553  GLY616  TRP617  ASP618  TYR619  PRO620  LYS621  CYS622 
 ASP623  PHE694  ASN695  SER759  ASP760  ASP761  ALA762  ILE779  LEU786  VAL792 
 PHE793  MET794  SER795  GLU796  ALA797  LYS798  CYS799  TRP800  GLU811  SER814 

> <Gold.Protein.RotatedAtoms>
  152.5453  134.1446  159.8492 H   0  0  0  0  0  0  0  0  0  0  0  0  # atno 6907 bound_to 6896
  151.1478  133.4920  159.2603 H   0  0  0  0  0  0  0  0  0  0  0  0  # atno 6908 bound_to 6896
  151.1504  135.0235  159.8720 H   0  0  0  0  0  0  0  0  0  0  0  0  # atno 6909 bound_to 6896
  145.7216  140.9036  143.0627 H   0  0  0  0  0  0  0  0  0  0  0  0  # atno 7974 bound_to 7965
  155.8562  140.3456  155.5726 H   0  0  0  0  0  0  0  0  0  0  0  0  # atno 8008 bound_to 7997
  155.7983  140.0881  157.1990 H   0  0  0  0  0  0  0  0  0  0  0  0  # atno 8009 bound_to 7997
  154.4009  140.1470  156.3232 H   0  0  0  0  0  0  0  0  0  0  0  0  # atno 8010 bound_to 7997
  139.5880  144.7014  151.3360 H   0  0  0  0  0  0  0  0  0  0  0  0  # atno 10167 bound_to 10162
  157.4129  131.1030  151.0435 H   0  0  0  0  0  0  0  0  0  0  0  0  # atno 10718 bound_to 10713
  154.7851  135.3187  154.7904 H   0  0  0  0  0  0  0  0  0  0  0  0  # atno 10763 bound_to 10752
  153.8607  135.6853  153.4787 H   0  0  0  0  0  0  0  0  0  0  0  0  # atno 10764 bound_to 10752
  153.1500  135.4703  154.9561 H   0  0  0  0  0  0  0  0  0  0  0  0  # atno 10765 bound_to 10752
  140.5360  134.0421  155.7888 H   0  0  0  0  0  0  0  0  0  0  0  0  # atno 11005 bound_to 11000
  144.6915  139.9210  143.7468 LP  0  0  0  0  0  0  0  0  0  0  0  0  # atno 17320 bound_to 7965
  146.0620  139.3613  143.0575 LP  0  0  0  0  0  0  0  0  0  0  0  0  # atno 17321 bound_to 7965
  140.7148  143.7294  150.7635 LP  0  0  0  0  0  0  0  0  0  0  0  0  # atno 17342 bound_to 10162
  140.0843  143.4938  152.2513 LP  0  0  0  0  0  0  0  0  0  0  0  0  # atno 17343 bound_to 10162
  157.1393  130.6136  149.5551 LP  0  0  0  0  0  0  0  0  0  0  0  0  # atno 17370 bound_to 10713
  155.9856  130.4887  150.7039 LP  0  0  0  0  0  0  0  0  0  0  0  0  # atno 17371 bound_to 10713
  141.1254  133.9391  157.2645 LP  0  0  0  0  0  0  0  0  0  0  0  0  # atno 17394 bound_to 11000
  139.9529  135.0172  156.9046 LP  0  0  0  0  0  0  0  0  0  0  0  0  # atno 17395 bound_to 11000

$$$$
