AV-unprocessed.smi:1828|AV-procd|sdf|7424|dock4
  -GOLD-   22720 9103D 1   1.00000     0.00000
 Structure written by MMmdl.
 39 41  0  0  0  0  0  0  0  0  1 V2000
  152.0553  137.1943  154.2358 O   0  0  0  0  0  0  0  0  0  0  0  0
  152.2792  138.3193  155.0582 C   0  0  0  0  0  0  0  0  0  0  0  0
  151.0752  139.2039  155.1671 C   0  0  0  0  0  0  0  0  0  0  0  0
  150.4348  139.6573  154.0886 N   0  0  0  0  0  0  0  0  0  0  0  0
  149.4109  140.4058  154.6353 C   0  0  0  0  0  0  0  0  0  0  0  0
  148.3803  141.1461  154.0130 C   0  0  0  0  0  0  0  0  0  0  0  0
  147.4304  141.8404  154.7907 C   0  0  0  0  0  0  0  0  0  0  0  0
  147.4971  141.8048  156.1988 C   0  0  0  0  0  0  0  0  0  0  0  0
  148.5169  141.0745  156.8389 C   0  0  0  0  0  0  0  0  0  0  0  0
  149.4624  140.3836  156.0577 C   0  0  0  0  0  0  0  0  0  0  0  0
  150.5644  139.5919  156.3633 N   0  0  0  0  0  0  0  0  0  0  0  0
  151.0368  139.2663  157.7026 C   0  0  0  0  0  0  0  0  0  0  0  0
  152.5281  139.6018  157.9028 C   0  0  2  0  0  0  0  0  0  0  0  0
  153.2564  138.4256  158.1980 O   0  0  0  0  0  0  0  0  0  0  0  0
  152.7140  140.6740  158.9647 C   0  0  0  0  0  0  0  0  0  0  0  0
  153.4130  140.3902  160.1577 C   0  0  0  0  0  0  0  0  0  0  0  0
  153.5777  141.3883  161.1362 C   0  0  0  0  0  0  0  0  0  0  0  0
  153.0395  142.6732  160.9315 C   0  0  0  0  0  0  0  0  0  0  0  0
  152.3278  142.9663  159.7479 C   0  0  0  0  0  0  0  0  0  0  0  0
  151.7461  144.3527  159.5141 C   0  0  0  0  0  0  0  0  0  0  0  0
  150.4642  144.2653  159.1577 F   0  0  0  0  0  0  0  0  0  0  0  0
  151.8231  145.1045  160.6129 F   0  0  0  0  0  0  0  0  0  0  0  0
  152.4233  144.9527  158.5362 F   0  0  0  0  0  0  0  0  0  0  0  0
  152.1733  141.9625  158.7672 C   0  0  0  0  0  0  0  0  0  0  0  0
  152.2535  137.4322  153.3432 H   0  0  0  0  0  0  0  0  0  0  0  0
  152.5886  137.9899  156.0499 H   0  0  0  0  0  0  0  0  0  0  0  0
  153.1106  138.8914  154.6454 H   0  0  0  0  0  0  0  0  0  0  0  0
  148.3204  141.1786  152.9352 H   0  0  0  0  0  0  0  0  0  0  0  0
  146.6461  142.4022  154.3049 H   0  0  0  0  0  0  0  0  0  0  0  0
  146.7649  142.3385  156.7871 H   0  0  0  0  0  0  0  0  0  0  0  0
  148.5712  141.0449  157.9170 H   0  0  0  0  0  0  0  0  0  0  0  0
  150.4332  139.8301  158.4149 H   0  0  0  0  0  0  0  0  0  0  0  0
  150.8472  138.2146  157.9152 H   0  0  0  0  0  0  0  0  0  0  0  0
  152.9292  139.9827  156.9627 H   0  0  0  0  0  0  0  0  0  0  0  0
  153.4480  138.4173  159.1235 H   0  0  0  0  0  0  0  0  0  0  0  0
  153.8253  139.4059  160.3260 H   0  0  0  0  0  0  0  0  0  0  0  0
  154.1176  141.1681  162.0454 H   0  0  0  0  0  0  0  0  0  0  0  0
  153.1778  143.4307  161.6888 H   0  0  0  0  0  0  0  0  0  0  0  0
  151.6356  142.1842  157.8568 H   0  0  0  0  0  0  0  0  0  0  0  0
  1  2  1  0  0  0  0
  1 25  1  0  0  0  0
  2  3  1  0  0  0  0
  2 26  1  0  0  0  0
  2 27  1  0  0  0  0
  3 11  1  0  0  0  0
  3  4  2  0  0  0  0
  4  5  1  0  0  0  0
  5 10  2  0  0  0  0
  5  6  1  0  0  0  0
  6  7  2  0  0  0  0
  6 28  1  0  0  0  0
  7  8  1  0  0  0  0
  7 29  1  0  0  0  0
  8  9  2  0  0  0  0
  8 30  1  0  0  0  0
  9 10  1  0  0  0  0
  9 31  1  0  0  0  0
 10 11  1  0  0  0  0
 11 12  1  0  0  0  0
 12 13  1  0  0  0  0
 12 32  1  0  0  0  0
 12 33  1  0  0  0  0
 13 14  1  0  0  0  0
 13 15  1  0  0  0  0
 13 34  1  0  0  0  0
 14 35  1  0  0  0  0
 15 24  1  0  0  0  0
 15 16  2  0  0  0  0
 16 17  1  0  0  0  0
 16 36  1  0  0  0  0
 17 18  2  0  0  0  0
 17 37  1  0  0  0  0
 18 19  1  0  0  0  0
 18 38  1  0  0  0  0
 19 20  1  0  0  0  0
 19 24  2  0  0  0  0
 20 21  1  0  0  0  0
 20 22  1  0  0  0  0
 20 23  1  0  0  0  0
 24 39  1  0  0  0  0
M  END
> <s_m_source_file>
AV-unprocessed.smi

> <i_m_source_file_index>
1828

> <i_lp_mmshare_version>
43012

> <i_f3d_flags>
0

> <s_epik_input>
W2NIXTFbY0hdW2NIXVtjSF1jKGMxMiluKGMobjIpW0NIMl1bT0hdKVtDSDJdW0NASF0oW09IXSljM1tjSF1bY0hdW2NIXWMoQyhGKShGKUYpW2NIXTM=

> <s_epik_cmdline>
J2VwaWtfcHl0aG9uJywgJy1waCcsICc3LjAnLCAnLXRuJywgJzgnLCAnLW1hJywgJzIwMCcsICctbWV0YWxfYmluZGluZycsICctaW1hZScsICc8aW5maWxlLm1hZT4nLCAnLW9tYWUnLCAnPG91dGZpbGUubWFlPic=

> <r_epik_Ionization_Penalty>
0.0634719

> <r_epik_Ionization_Penalty_Charging>
0

> <r_epik_Ionization_Penalty_Neutral>
0.0634719

> <r_epik_State_Penalty>
0.0551572

> <r_epik_Charging_Adjusted_Penalty>
0.0551572

> <i_epik_Tot_Q>
0

> <i_epik_Tot_abs_Q>
0

> <r_epik_Metal_State_Penalty>
5.78034e-05

> <b_epik_Metal_Only>
0

> <s_lp_Force_Field>
OPLS_2005

> <r_lp_Energy>
12.8621

> <b_lp_Chiralities_Consistent>
1

> <s_lp_Variant>
AV-unprocessed.smi:1828-1

> <Gold.Version>
5.8.1

> <Gold.Id.Protein>
6NUR|6NUR_protein|mol2

> <Gold.PLP.Fitness>
60.2463

> <Gold.PLP.PLP>
-56.5428

> <Gold.PLP.part.hbond>
-2.6104

> <Gold.PLP.part.metal>
0.0000

> <Gold.PLP.part.buried>
-6.0116

> <Gold.PLP.part.nonpolar>
-48.1663

> <Gold.PLP.part.repulsive>
0.7645

> <Gold.PLP.ligand.clash>
0.4634

> <Gold.PLP.ligand.torsion>
1.1454

> <Gold.PLP.Chemscore.Hbond>
1.8640

> <Gold.PLP.Chemscore.CHOScore>
0.0000

> <Gold.PLP.Chemscore.Metal>
0.0000

> <Gold.Chemscore.Hbonds>
donor molecule, donor type, donor heavy atom, donor atom, acceptor molecule, acceptor atom, score
      P1  H  7989  7998       L1     4  1.00
      P1  H 10752 10764       L1     1  0.78

> <Gold.PLP.Chemscore.Internal.Correction>
0.8657

> <Gold.Rescore>
     Score         DG    S(hbond)    S(metal)    S(lipo)     H(rot)  DE(clash)    DE(int)     intcor
     12.96     -14.48       0.95        0.00     113.42       2.91       0.08       1.44       ----

> <Gold.Chemscore.Fitness>
12.9588

> <Gold.Chemscore.DG>
-14.4795

> <Gold.Chemscore.ZeroCoef>
-5.4800

> <Gold.Chemscore.Hbond>
0.9548

> <Gold.Chemscore.Metal>
0.0000

> <Gold.Chemscore.Lipo>
113.4219

> <Gold.Chemscore.Internal_Hbond>
0.0000

> <Gold.Chemscore.DEClash>
0.0829

> <Gold.Chemscore.DEInternal>
1.4378

> <Gold.Chemscore.Rot>
2.9141

> <Gold.Chemscore.Internal.Correction>
   9.000000E+99

> <Gold.Chemscore.Hbonds>
donor molecule, donor type, donor heavy atom, donor atom, acceptor molecule, acceptor atom, score
      P1  H  7989  7998       L1     4  0.15
      P1  H 10752 10764       L1     1  0.39

> <Gold.Chemscore.Hbond.Weighted>
-3.1891

> <Gold.Chemscore.Metal.Weighted>
-0.0000

> <Gold.Chemscore.Lipo.Weighted>
-13.2704

> <Gold.Chemscore.Internal_Hbond.Weighted>
0.0000

> <Gold.Chemscore.DEClash.Weighted>
0.0829

> <Gold.Chemscore.DEInternal.Weighted>
1.4378

> <Gold.Chemscore.Rot.Weighted>
7.4600

> <Gold.Chemscore.Internal.Correction.Weighted>
   9.000000E+99

> <Gold.Protein.RotatedTorsions>
[ 6907 6896 6895 6894 ] final   -6.34 input  -60.11 | X-H torsion
[ 7974 7965 7964 7962 ] final   99.36 input  175.53 | X-H torsion
[ 8008 7997 7996 7995 ] final   52.18 input   59.86 | X-H torsion
[ 10167 10162 10161 10158 ] final   -1.19 input  -65.29 | X-H torsion
[ 10718 10713 10712 10709 ] final  -26.57 input   66.30 | X-H torsion
[ 10763 10752 10751 10750 ] final  -63.22 input  -60.55 | X-H torsion
[ 11005 11000 10999 10996 ] final -146.55 input  -57.11 | X-H torsion

> <Gold.Protein.ActiveResidues>
 VAL166  LYS551  ARG553  GLY616  TRP617  ASP618  TYR619  PRO620  LYS621  CYS622 
 ASP623  PHE694  ASN695  SER759  ASP760  ASP761  ALA762  ILE779  LEU786  VAL792 
 PHE793  MET794  SER795  GLU796  ALA797  LYS798  CYS799  TRP800  GLU811  SER814 

> <Gold.Protein.RotatedAtoms>
  151.4671  135.1043  159.9740 H   0  0  0  0  0  0  0  0  0  0  0  0  # atno 6907 bound_to 6896
  152.4831  133.8299  159.7108 H   0  0  0  0  0  0  0  0  0  0  0  0  # atno 6908 bound_to 6896
  150.8917  133.7173  159.2929 H   0  0  0  0  0  0  0  0  0  0  0  0  # atno 6909 bound_to 6896
  145.3999  139.2349  143.3306 H   0  0  0  0  0  0  0  0  0  0  0  0  # atno 7974 bound_to 7965
  155.4476  140.3457  155.4297 H   0  0  0  0  0  0  0  0  0  0  0  0  # atno 8008 bound_to 7997
  156.1240  140.1495  156.9193 H   0  0  0  0  0  0  0  0  0  0  0  0  # atno 8009 bound_to 7997
  154.4844  140.0860  156.7433 H   0  0  0  0  0  0  0  0  0  0  0  0  # atno 8010 bound_to 7997
  140.6800  143.6804  150.8110 H   0  0  0  0  0  0  0  0  0  0  0  0  # atno 10167 bound_to 10162
  156.4495  130.4481  149.6999 H   0  0  0  0  0  0  0  0  0  0  0  0  # atno 10718 bound_to 10713
  154.3117  135.6214  153.5468 H   0  0  0  0  0  0  0  0  0  0  0  0  # atno 10763 bound_to 10752
  152.9829  135.5703  154.5169 H   0  0  0  0  0  0  0  0  0  0  0  0  # atno 10764 bound_to 10752
  154.4820  135.2863  155.1539 H   0  0  0  0  0  0  0  0  0  0  0  0  # atno 10765 bound_to 10752
  140.7808  134.3081  157.5046 H   0  0  0  0  0  0  0  0  0  0  0  0  # atno 11005 bound_to 11000
  146.2757  140.4695  142.8796 LP  0  0  0  0  0  0  0  0  0  0  0  0  # atno 17320 bound_to 7965
  144.8381  140.6814  143.6247 LP  0  0  0  0  0  0  0  0  0  0  0  0  # atno 17321 bound_to 7965
  140.0503  143.5256  152.2677 LP  0  0  0  0  0  0  0  0  0  0  0  0  # atno 17342 bound_to 10162
  139.6116  144.7610  151.2940 LP  0  0  0  0  0  0  0  0  0  0  0  0  # atno 17343 bound_to 10162
  156.3831  130.7589  151.2584 LP  0  0  0  0  0  0  0  0  0  0  0  0  # atno 17370 bound_to 10713
  157.7503  131.0290  150.4072 LP  0  0  0  0  0  0  0  0  0  0  0  0  # atno 17371 bound_to 10713
  139.8743  134.9317  156.3535 LP  0  0  0  0  0  0  0  0  0  0  0  0  # atno 17394 bound_to 11000
  140.9484  133.7467  156.0239 LP  0  0  0  0  0  0  0  0  0  0  0  0  # atno 17395 bound_to 11000

$$$$
