AV-unprocessed.smi:3058|AV-procd|sdf|11674|dock1
  -GOLD-   2272017 73D 1   1.00000     0.00000
 Structure written by MMmdl.
 39 41  0  0  0  0  0  0  0  0  2 V2000
  151.9145  141.3839  157.6223 O   0  0  0  0  0  0  0  0  0  0  0  0
  151.3066  142.3816  157.2320 C   0  0  0  0  0  0  0  0  0  0  0  0
  150.2331  142.3125  156.4296 N   0  0  0  0  0  0  0  0  0  0  0  0
  149.6590  141.0781  155.9082 C   0  0  0  0  0  0  0  0  0  0  0  0
  149.6863  141.0466  154.3712 C   0  0  0  0  0  0  0  0  0  0  0  0
  148.8341  139.9258  153.8096 C   0  0  0  0  0  0  0  0  0  0  0  0
  149.2414  138.5802  153.9453 C   0  0  0  0  0  0  0  0  0  0  0  0
  148.4281  137.5551  153.4191 C   0  0  0  0  0  0  0  0  0  0  0  0
  147.2248  137.8987  152.7700 C   0  0  0  0  0  0  0  0  0  0  0  0
  146.8671  139.1973  152.6597 N   0  3  0  0  0  0  0  0  0  0  0  0
  147.6186  140.2081  153.1492 C   0  0  0  0  0  0  0  0  0  0  0  0
  151.7366  143.7941  157.6663 C   0  0  1  0  0  0  0  0  0  0  0  0
  150.6735  144.5748  158.4785 C   0  0  0  0  0  0  0  0  0  0  0  0
  151.4461  145.0010  159.7411 C   0  0  1  0  0  0  0  0  0  0  0  0
  151.6755  143.7736  160.6429 C   0  0  0  0  0  0  0  0  0  0  0  0
  152.7746  143.0006  159.8911 C   0  0  0  0  0  0  0  0  0  0  0  0
  152.9674  143.8435  158.6109 C   0  0  2  0  0  0  0  0  0  0  0  0
  152.8422  145.2526  159.1830 C   0  0  0  0  0  0  0  0  0  0  0  0
  149.7842  143.1766  156.1622 H   0  0  0  0  0  0  0  0  0  0  0  0
  150.1921  140.2187  156.3188 H   0  0  0  0  0  0  0  0  0  0  0  0
  148.6311  141.0040  156.2642 H   0  0  0  0  0  0  0  0  0  0  0  0
  149.3351  141.9985  153.9705 H   0  0  0  0  0  0  0  0  0  0  0  0
  150.7089  140.9222  154.0118 H   0  0  0  0  0  0  0  0  0  0  0  0
  150.1655  138.3350  154.4489 H   0  0  0  0  0  0  0  0  0  0  0  0
  148.7236  136.5202  153.5137 H   0  0  0  0  0  0  0  0  0  0  0  0
  146.5428  137.1797  152.3398 H   0  0  0  0  0  0  0  0  0  0  0  0
  147.2260  141.2036  153.0004 H   0  0  0  0  0  0  0  0  0  0  0  0
  151.9670  144.3697  156.7675 H   0  0  0  0  0  0  0  0  0  0  0  0
  150.3451  145.4523  157.9198 H   0  0  0  0  0  0  0  0  0  0  0  0
  149.7802  143.9993  158.7248 H   0  0  0  0  0  0  0  0  0  0  0  0
  150.9972  145.8473  160.2616 H   0  0  0  0  0  0  0  0  0  0  0  0
  152.0246  144.0722  161.6322 H   0  0  0  0  0  0  0  0  0  0  0  0
  150.7674  143.1835  160.7718 H   0  0  0  0  0  0  0  0  0  0  0  0
  153.6945  142.9938  160.4776 H   0  0  0  0  0  0  0  0  0  0  0  0
  152.5120  141.9604  159.7032 H   0  0  0  0  0  0  0  0  0  0  0  0
  153.9123  143.6516  158.1015 H   0  0  0  0  0  0  0  0  0  0  0  0
  152.8704  146.0354  158.4228 H   0  0  0  0  0  0  0  0  0  0  0  0
  153.5822  145.4775  159.9533 H   0  0  0  0  0  0  0  0  0  0  0  0
  145.9918  139.4242  152.1869 H   0  0  0  0  0  0  0  0  0  0  0  0
  1  2  2  0  0  0  0
  2  3  1  0  0  0  0
  2 12  1  0  0  0  0
  3  4  1  0  0  0  0
  3 19  1  0  0  0  0
  4  5  1  0  0  0  0
  4 20  1  0  0  0  0
  4 21  1  0  0  0  0
  5  6  1  0  0  0  0
  5 22  1  0  0  0  0
  5 23  1  0  0  0  0
  6 11  1  0  0  0  0
  6  7  2  0  0  0  0
  7  8  1  0  0  0  0
  7 24  1  0  0  0  0
  8  9  2  0  0  0  0
  8 25  1  0  0  0  0
  9 10  1  0  0  0  0
  9 26  1  0  0  0  0
 10 11  2  0  0  0  0
 10 39  1  0  0  0  0
 11 27  1  0  0  0  0
 12 17  1  0  0  0  0
 12 13  1  0  0  0  0
 12 28  1  0  0  0  0
 13 14  1  0  0  0  0
 13 29  1  0  0  0  0
 13 30  1  0  0  0  0
 14 18  1  0  0  0  0
 14 15  1  0  0  0  0
 14 31  1  0  0  0  0
 15 16  1  0  0  0  0
 15 32  1  0  0  0  0
 15 33  1  0  0  0  0
 16 17  1  0  0  0  0
 16 34  1  0  0  0  0
 16 35  1  0  0  0  0
 17 18  1  0  0  0  0
 17 36  1  0  0  0  0
 18 37  1  0  0  0  0
 18 38  1  0  0  0  0
M  CHG  1  10   1
M  END
> <s_m_source_file>
AV-unprocessed.smi

> <i_m_source_file_index>
3058

> <i_lp_mmshare_version>
43012

> <i_f3d_flags>
0

> <s_epik_input>
W0NIMl0xW0NIMl1bQ0BIXShbQ0gyXTIpW0NAQEhdKFtDSDJdW0NAQEhdMTIpQyg9TylbTkhdW0NIMl1bQ0gyXWMzW2NIXVtjSF1bY0hdbltjSF0z

> <s_epik_cmdline>
J2VwaWtfcHl0aG9uJywgJy1waCcsICc3LjAnLCAnLXRuJywgJzgnLCAnLW1hJywgJzIwMCcsICctbWV0YWxfYmluZGluZycsICctaW1hZScsICc8aW5maWxlLm1hZT4nLCAnLW9tYWUnLCAnPG91dGZpbGUubWFlPic=

> <r_epik_Ionization_Penalty>
2.24375

> <r_epik_Ionization_Penalty_Charging>
2.24375

> <r_epik_Ionization_Penalty_Neutral>
1.89995e-08

> <r_epik_State_Penalty>
2.39035

> <r_epik_Charging_Adjusted_Penalty>
4.63411

> <i_epik_Tot_Q>
1

> <i_epik_Tot_abs_Q>
1

> <r_epik_Metal_State_Penalty>
2.40369

> <b_epik_Metal_Only>
0

> <s_lp_Force_Field>
OPLS_2005

> <r_lp_Energy>
53.8875

> <b_lp_Chiralities_Consistent>
1

> <s_lp_Variant>
AV-unprocessed.smi:3058-6

> <Gold.Version>
5.8.1

> <Gold.Id.Protein>
6NUR|6NUR_protein|mol2

> <Gold.PLP.Fitness>
44.4821

> <Gold.PLP.PLP>
-35.8095

> <Gold.PLP.part.hbond>
-2.0000

> <Gold.PLP.part.metal>
0.0000

> <Gold.PLP.part.buried>
-1.6761

> <Gold.PLP.part.nonpolar>
-32.6472

> <Gold.PLP.part.repulsive>
0.0727

> <Gold.PLP.ligand.clash>
0.0000

> <Gold.PLP.ligand.torsion>
0.1540

> <Gold.PLP.Chemscore.Hbond>
2.9840

> <Gold.PLP.Chemscore.CHOScore>
0.0000

> <Gold.PLP.Chemscore.Metal>
0.0000

> <Gold.Chemscore.Hbonds>
donor molecule, donor type, donor heavy atom, donor atom, acceptor molecule, acceptor atom, score
      L1  H     3    19       P1  8028  1.00

> <Gold.PLP.Chemscore.Internal.Correction>
0.0285

> <Gold.Rescore>
     Score         DG    S(hbond)    S(metal)    S(lipo)     H(rot)  DE(clash)    DE(int)     intcor
     18.74     -22.28       1.84        0.00     122.76       1.45       2.02       1.52       ----

> <Gold.Chemscore.Fitness>
18.7369

> <Gold.Chemscore.DG>
-22.2774

> <Gold.Chemscore.ZeroCoef>
-5.4800

> <Gold.Chemscore.Hbond>
1.8441

> <Gold.Chemscore.Metal>
0.0000

> <Gold.Chemscore.Lipo>
122.7560

> <Gold.Chemscore.Internal_Hbond>
0.0000

> <Gold.Chemscore.DEClash>
2.0211

> <Gold.Chemscore.DEInternal>
1.5194

> <Gold.Chemscore.Rot>
1.4548

> <Gold.Chemscore.Internal.Correction>
   9.000000E+99

> <Gold.Chemscore.Hbonds>
donor molecule, donor type, donor heavy atom, donor atom, acceptor molecule, acceptor atom, score
      L1  H     3    19       P1  8028  1.00

> <Gold.Chemscore.Hbond.Weighted>
-6.1591

> <Gold.Chemscore.Metal.Weighted>
-0.0000

> <Gold.Chemscore.Lipo.Weighted>
-14.3625

> <Gold.Chemscore.Internal_Hbond.Weighted>
0.0000

> <Gold.Chemscore.DEClash.Weighted>
2.0211

> <Gold.Chemscore.DEInternal.Weighted>
1.5194

> <Gold.Chemscore.Rot.Weighted>
3.7242

> <Gold.Chemscore.Internal.Correction.Weighted>
   9.000000E+99

> <Gold.Protein.RotatedTorsions>
[ 6907 6896 6895 6894 ] final   67.72 input  -60.11 | X-H torsion
[ 7974 7965 7964 7962 ] final  150.15 input  175.53 | X-H torsion
[ 8008 7997 7996 7995 ] final  148.73 input   59.86 | X-H torsion
[ 10167 10162 10161 10158 ] final   73.92 input  -65.29 | X-H torsion
[ 10718 10713 10712 10709 ] final   26.82 input   66.30 | X-H torsion
[ 10763 10752 10751 10750 ] final -133.21 input  -60.55 | X-H torsion
[ 11005 11000 10999 10996 ] final   87.26 input  -57.11 | X-H torsion

> <Gold.Protein.ActiveResidues>
 VAL166  LYS551  ARG553  GLY616  TRP617  ASP618  TYR619  PRO620  LYS621  CYS622 
 ASP623  PHE694  ASN695  SER759  ASP760  ASP761  ALA762  ILE779  LEU786  VAL792 
 PHE793  MET794  SER795  GLU796  ALA797  LYS798  CYS799  TRP800  GLU811  SER814 

> <Gold.Protein.RotatedAtoms>
  152.4572  134.5266  159.9798 H   0  0  0  0  0  0  0  0  0  0  0  0  # atno 6907 bound_to 6896
  151.5324  133.3441  159.2928 H   0  0  0  0  0  0  0  0  0  0  0  0  # atno 6908 bound_to 6896
  150.8520  134.7878  159.7079 H   0  0  0  0  0  0  0  0  0  0  0  0  # atno 6909 bound_to 6896
  144.8385  139.6371  143.6027 H   0  0  0  0  0  0  0  0  0  0  0  0  # atno 7974 bound_to 7965
  156.2781  140.2121  156.5745 H   0  0  0  0  0  0  0  0  0  0  0  0  # atno 8008 bound_to 7997
  154.7109  140.0512  157.0572 H   0  0  0  0  0  0  0  0  0  0  0  0  # atno 8009 bound_to 7997
  155.0607  140.3166  155.4664 H   0  0  0  0  0  0  0  0  0  0  0  0  # atno 8010 bound_to 7997
  140.0193  144.5553  150.7595 H   0  0  0  0  0  0  0  0  0  0  0  0  # atno 10167 bound_to 10162
  157.2119  130.6938  149.6232 H   0  0  0  0  0  0  0  0  0  0  0  0  # atno 10718 bound_to 10713
  154.8735  135.3773  154.4535 H   0  0  0  0  0  0  0  0  0  0  0  0  # atno 10763 bound_to 10752
  153.5209  135.7029  153.5737 H   0  0  0  0  0  0  0  0  0  0  0  0  # atno 10764 bound_to 10752
  153.3984  135.3954  155.1936 H   0  0  0  0  0  0  0  0  0  0  0  0  # atno 10765 bound_to 10752
  139.8924  134.8410  156.2835 H   0  0  0  0  0  0  0  0  0  0  0  0  # atno 11005 bound_to 11000
  146.2681  139.6569  142.9315 LP  0  0  0  0  0  0  0  0  0  0  0  0  # atno 17320 bound_to 7965
  145.4743  141.0437  143.2681 LP  0  0  0  0  0  0  0  0  0  0  0  0  # atno 17321 bound_to 7965
  140.7349  143.2734  151.3815 LP  0  0  0  0  0  0  0  0  0  0  0  0  # atno 17342 bound_to 10162
  139.6151  144.1019  152.2337 LP  0  0  0  0  0  0  0  0  0  0  0  0  # atno 17343 bound_to 10162
  155.9690  130.4548  150.5864 LP  0  0  0  0  0  0  0  0  0  0  0  0  # atno 17370 bound_to 10713
  157.3663  131.0758  151.1595 LP  0  0  0  0  0  0  0  0  0  0  0  0  # atno 17371 bound_to 10713
  141.0023  133.7144  156.0980 LP  0  0  0  0  0  0  0  0  0  0  0  0  # atno 17394 bound_to 11000
  140.7481  134.4076  157.5545 LP  0  0  0  0  0  0  0  0  0  0  0  0  # atno 17395 bound_to 11000

$$$$
