AV-unprocessed.smi:479|AV-procd|sdf|2674|dock2
  -GOLD-   2262023 93D 1   1.00000     0.00000
 Structure written by MMmdl.
 46 48  0  0  0  0  0  0  0  0  2 V2000
  146.7410  136.7058  162.2426 C   0  0  0  0  0  0  0  0  0  0  0  0
  147.6897  137.1079  161.2659 O   0  0  0  0  0  0  0  0  0  0  0  0
  147.7147  136.4432  160.0570 C   0  0  0  0  0  0  0  0  0  0  0  0
  146.6591  135.6167  159.5940 C   0  0  0  0  0  0  0  0  0  0  0  0
  146.7443  134.9569  158.3463 C   0  0  0  0  0  0  0  0  0  0  0  0
  145.6463  134.0848  157.8383 C   0  0  0  0  0  0  0  0  0  0  0  0
  145.8149  133.4521  156.4578 C   0  0  0  0  0  0  0  0  0  0  0  0
  144.6184  133.8497  158.4727 O   0  0  0  0  0  0  0  0  0  0  0  0
  147.9048  135.1311  157.5637 C   0  0  0  0  0  0  0  0  0  0  0  0
  148.9556  135.9493  158.0131 C   0  0  0  0  0  0  0  0  0  0  0  0
  148.8678  136.6162  159.2592 C   0  0  0  0  0  0  0  0  0  0  0  0
  149.8535  137.4455  159.7544 O   0  0  0  0  0  0  0  0  0  0  0  0
  150.9752  137.7371  158.9299 C   0  0  0  0  0  0  0  0  0  0  0  0
  150.6668  138.9446  158.0250 C   0  0  2  0  0  0  0  0  0  0  0  0
  150.0579  138.5014  156.8310 O   0  0  0  0  0  0  0  0  0  0  0  0
  151.8714  139.8533  157.7038 C   0  0  0  0  0  0  0  0  0  0  0  0
  151.4821  141.2585  157.5063 N   0  0  0  0  0  0  0  0  0  0  0  0
  150.7126  141.8083  156.5276 C   0  0  0  0  0  0  0  0  0  0  0  0
  150.6169  143.1428  156.7779 N   0  3  0  0  0  0  0  0  0  0  0  0
  151.3432  143.4548  157.9285 C   0  0  0  0  0  0  0  0  0  0  0  0
  151.5392  144.6707  158.5764 C   0  0  0  0  0  0  0  0  0  0  0  0
  152.3400  144.6482  159.7370 C   0  0  0  0  0  0  0  0  0  0  0  0
  152.9148  143.4506  160.2080 C   0  0  0  0  0  0  0  0  0  0  0  0
  152.7138  142.2258  159.5392 C   0  0  0  0  0  0  0  0  0  0  0  0
  151.9124  142.2512  158.3975 C   0  0  0  0  0  0  0  0  0  0  0  0
  146.8483  137.3350  163.1261 H   0  0  0  0  0  0  0  0  0  0  0  0
  146.9001  135.6725  162.5531 H   0  0  0  0  0  0  0  0  0  0  0  0
  145.7198  136.8228  161.8773 H   0  0  0  0  0  0  0  0  0  0  0  0
  145.7766  135.4852  160.1994 H   0  0  0  0  0  0  0  0  0  0  0  0
  145.9169  134.2230  155.6937 H   0  0  0  0  0  0  0  0  0  0  0  0
  144.9469  132.8405  156.2104 H   0  0  0  0  0  0  0  0  0  0  0  0
  146.6982  132.8138  156.4351 H   0  0  0  0  0  0  0  0  0  0  0  0
  148.0031  134.6380  156.6072 H   0  0  0  0  0  0  0  0  0  0  0  0
  149.8222  136.0472  157.3775 H   0  0  0  0  0  0  0  0  0  0  0  0
  151.8621  137.9275  159.5363 H   0  0  0  0  0  0  0  0  0  0  0  0
  151.1907  136.8775  158.2933 H   0  0  0  0  0  0  0  0  0  0  0  0
  149.9152  139.5482  158.5353 H   0  0  0  0  0  0  0  0  0  0  0  0
  149.9016  139.2500  156.2756 H   0  0  0  0  0  0  0  0  0  0  0  0
  152.6249  139.7841  158.4866 H   0  0  0  0  0  0  0  0  0  0  0  0
  152.3568  139.5198  156.7857 H   0  0  0  0  0  0  0  0  0  0  0  0
  150.2510  141.2783  155.7069 H   0  0  0  0  0  0  0  0  0  0  0  0
  151.1010  145.5902  158.2162 H   0  0  0  0  0  0  0  0  0  0  0  0
  152.5178  145.5675  160.2760 H   0  0  0  0  0  0  0  0  0  0  0  0
  153.5223  143.4697  161.1011 H   0  0  0  0  0  0  0  0  0  0  0  0
  153.1603  141.3185  159.9166 H   0  0  0  0  0  0  0  0  0  0  0  0
  150.0935  143.7914  156.2036 H   0  0  0  0  0  0  0  0  0  0  0  0
  1  2  1  0  0  0  0
  1 26  1  0  0  0  0
  1 27  1  0  0  0  0
  1 28  1  0  0  0  0
  2  3  1  0  0  0  0
  3 11  1  0  0  0  0
  3  4  2  0  0  0  0
  4  5  1  0  0  0  0
  4 29  1  0  0  0  0
  5  6  1  0  0  0  0
  5  9  2  0  0  0  0
  6  7  1  0  0  0  0
  6  8  2  0  0  0  0
  7 30  1  0  0  0  0
  7 31  1  0  0  0  0
  7 32  1  0  0  0  0
  9 10  1  0  0  0  0
  9 33  1  0  0  0  0
 10 11  2  0  0  0  0
 10 34  1  0  0  0  0
 11 12  1  0  0  0  0
 12 13  1  0  0  0  0
 13 14  1  0  0  0  0
 13 35  1  0  0  0  0
 13 36  1  0  0  0  0
 14 15  1  0  0  0  0
 14 16  1  0  0  0  0
 14 37  1  0  0  0  0
 15 38  1  0  0  0  0
 16 17  1  0  0  0  0
 16 39  1  0  0  0  0
 16 40  1  0  0  0  0
 17 25  1  0  0  0  0
 17 18  1  0  0  0  0
 18 19  2  0  0  0  0
 18 41  1  0  0  0  0
 19 20  1  0  0  0  0
 19 46  1  0  0  0  0
 20 25  2  0  0  0  0
 20 21  1  0  0  0  0
 21 22  2  0  0  0  0
 21 42  1  0  0  0  0
 22 23  1  0  0  0  0
 22 43  1  0  0  0  0
 23 24  2  0  0  0  0
 23 44  1  0  0  0  0
 24 25  1  0  0  0  0
 24 45  1  0  0  0  0
M  CHG  1  19   1
M  END
> <s_m_source_file>
AV-unprocessed.smi

> <i_m_source_file_index>
479

> <i_lp_mmshare_version>
43012

> <i_f3d_flags>
0

> <s_epik_input>
W0NIM11PYzFbY0hdYyhDKD1PKVtDSDNdKVtjSF1bY0hdYzFPW0NIMl1bQ0BIXShbT0hdKVtDSDJdbihbY0hdbjIpYyhjMjMpW2NIXVtjSF1bY0hdW2NIXTM=

> <s_epik_cmdline>
J2VwaWtfcHl0aG9uJywgJy1waCcsICc3LjAnLCAnLXRuJywgJzgnLCAnLW1hJywgJzIwMCcsICctbWV0YWxfYmluZGluZycsICctaW1hZScsICc8aW5maWxlLm1hZT4nLCAnLW9tYWUnLCAnPG91dGZpbGUubWFlPic=

> <r_lp_tautomer_probability>
0.99995

> <r_epik_Ionization_Penalty>
1.37698

> <r_epik_Ionization_Penalty_Charging>
1.37698

> <r_epik_Ionization_Penalty_Neutral>
2.3993e-06

> <r_epik_State_Penalty>
1.45717

> <r_epik_Charging_Adjusted_Penalty>
2.83415

> <i_epik_Tot_Q>
1

> <i_epik_Tot_abs_Q>
1

> <r_epik_Metal_State_Penalty>
5.49703

> <b_epik_Metal_Only>
0

> <s_lp_Force_Field>
OPLS_2005

> <r_lp_Energy>
30.5916

> <b_lp_Chiralities_Consistent>
1

> <s_lp_Variant>
AV-unprocessed.smi:479-3

> <Gold.Version>
5.8.1

> <Gold.Id.Protein>
6NUR|6NUR_protein|mol2

> <Gold.PLP.Fitness>
53.9101

> <Gold.PLP.PLP>
-44.3331

> <Gold.PLP.part.hbond>
-4.0000

> <Gold.PLP.part.metal>
0.0000

> <Gold.PLP.part.buried>
-6.4518

> <Gold.PLP.part.nonpolar>
-33.8300

> <Gold.PLP.part.repulsive>
0.0766

> <Gold.PLP.ligand.clash>
0.0000

> <Gold.PLP.ligand.torsion>
1.1604

> <Gold.PLP.Chemscore.Hbond>
3.8320

> <Gold.PLP.Chemscore.CHOScore>
0.0000

> <Gold.PLP.Chemscore.Metal>
0.0000

> <Gold.Chemscore.Hbonds>
donor molecule, donor type, donor heavy atom, donor atom, acceptor molecule, acceptor atom, score
      L1  H    19    46       P1  8028  2.00
      P1  H  6931  6943       L1     2  0.99
      P1  H  6934  6947       L1     2  0.85

> <Gold.PLP.Chemscore.Internal.Correction>
0.4019

> <Gold.Rescore>
     Score         DG    S(hbond)    S(metal)    S(lipo)     H(rot)  DE(clash)    DE(int)     intcor
     17.05     -18.49       2.30        0.00     105.64       2.75       0.00       1.44       ----

> <Gold.Chemscore.Fitness>
17.0472

> <Gold.Chemscore.DG>
-18.4874

> <Gold.Chemscore.ZeroCoef>
-5.4800

> <Gold.Chemscore.Hbond>
2.3009

> <Gold.Chemscore.Metal>
0.0000

> <Gold.Chemscore.Lipo>
105.6352

> <Gold.Chemscore.Internal_Hbond>
0.0000

> <Gold.Chemscore.DEClash>
0.0009

> <Gold.Chemscore.DEInternal>
1.4393

> <Gold.Chemscore.Rot>
2.7487

> <Gold.Chemscore.Internal.Correction>
   9.000000E+99

> <Gold.Chemscore.Hbonds>
donor molecule, donor type, donor heavy atom, donor atom, acceptor molecule, acceptor atom, score
      L1  H    19    46       P1  8028  0.99
      P1  H  6931  6943       L1     2  0.85
      P1  H  6934  6947       L1     2  0.23

> <Gold.Chemscore.Hbond.Weighted>
-7.6849

> <Gold.Chemscore.Metal.Weighted>
-0.0000

> <Gold.Chemscore.Lipo.Weighted>
-12.3593

> <Gold.Chemscore.Internal_Hbond.Weighted>
0.0000

> <Gold.Chemscore.DEClash.Weighted>
0.0009

> <Gold.Chemscore.DEInternal.Weighted>
1.4393

> <Gold.Chemscore.Rot.Weighted>
7.0368

> <Gold.Chemscore.Internal.Correction.Weighted>
   9.000000E+99

> <Gold.Protein.RotatedTorsions>
[ 6907 6896 6895 6894 ] final -177.72 input  -60.11 | X-H torsion
[ 7974 7965 7964 7962 ] final  154.29 input  175.53 | X-H torsion
[ 8008 7997 7996 7995 ] final -137.16 input   59.86 | X-H torsion
[ 10167 10162 10161 10158 ] final -108.40 input  -65.29 | X-H torsion
[ 10718 10713 10712 10709 ] final  132.95 input   66.30 | X-H torsion
[ 10763 10752 10751 10750 ] final -131.51 input  -60.55 | X-H torsion
[ 11005 11000 10999 10996 ] final    7.40 input  -57.11 | X-H torsion

> <Gold.Protein.ActiveResidues>
 VAL166  LYS551  ARG553  GLY616  TRP617  ASP618  TYR619  PRO620  LYS621  CYS622 
 ASP623  PHE694  ASN695  SER759  ASP760  ASP761  ALA762  ILE779  LEU786  VAL792 
 PHE793  MET794  SER795  GLU796  ALA797  LYS798  CYS799  TRP800  GLU811  SER814 

> <Gold.Protein.RotatedAtoms>
  151.6256  133.3336  159.3097 H   0  0  0  0  0  0  0  0  0  0  0  0  # atno 6907 bound_to 6896
  150.8083  134.7225  159.6676 H   0  0  0  0  0  0  0  0  0  0  0  0  # atno 6908 bound_to 6896
  152.4179  134.6013  160.0052 H   0  0  0  0  0  0  0  0  0  0  0  0  # atno 6909 bound_to 6896
  144.8098  139.6914  143.6146 H   0  0  0  0  0  0  0  0  0  0  0  0  # atno 7974 bound_to 7965
  155.4071  140.0510  157.3034 H   0  0  0  0  0  0  0  0  0  0  0  0  # atno 8008 bound_to 7997
  154.4963  140.2140  155.9400 H   0  0  0  0  0  0  0  0  0  0  0  0  # atno 8009 bound_to 7997
  156.1410  140.3154  155.8500 H   0  0  0  0  0  0  0  0  0  0  0  0  # atno 8010 bound_to 7997
  140.1665  143.4077  152.1387 H   0  0  0  0  0  0  0  0  0  0  0  0  # atno 10167 bound_to 10162
  157.4821  131.1086  150.9668 H   0  0  0  0  0  0  0  0  0  0  0  0  # atno 10718 bound_to 10713
  154.8750  135.3828  154.4258 H   0  0  0  0  0  0  0  0  0  0  0  0  # atno 10763 bound_to 10752
  153.4957  135.7030  153.5864 H   0  0  0  0  0  0  0  0  0  0  0  0  # atno 10764 bound_to 10752
  153.4218  135.3899  155.2083 H   0  0  0  0  0  0  0  0  0  0  0  0  # atno 10765 bound_to 10752
  140.5487  134.0304  155.7929 H   0  0  0  0  0  0  0  0  0  0  0  0  # atno 11005 bound_to 11000
  146.2395  139.5972  142.9501 LP  0  0  0  0  0  0  0  0  0  0  0  0  # atno 17320 bound_to 7965
  145.5351  141.0424  143.2361 LP  0  0  0  0  0  0  0  0  0  0  0  0  # atno 17321 bound_to 7965
  139.5357  144.7207  151.4901 LP  0  0  0  0  0  0  0  0  0  0  0  0  # atno 17342 bound_to 10162
  140.6610  143.8499  150.6887 LP  0  0  0  0  0  0  0  0  0  0  0  0  # atno 17343 bound_to 10162
  157.0398  130.5744  149.5354 LP  0  0  0  0  0  0  0  0  0  0  0  0  # atno 17370 bound_to 10713
  156.0127  130.5219  150.8038 LP  0  0  0  0  0  0  0  0  0  0  0  0  # atno 17371 bound_to 10713
  141.1184  133.9501  157.2777 LP  0  0  0  0  0  0  0  0  0  0  0  0  # atno 17394 bound_to 11000
  139.9466  135.0183  156.8871 LP  0  0  0  0  0  0  0  0  0  0  0  0  # atno 17395 bound_to 11000

$$$$
