AV-unprocessed.smi:72|AV-procd|sdf|733|dock7
  -GOLD-   2262017 63D 1   1.00000     0.00000
 Structure written by MMmdl.
 28 29  0  0  0  0  0  0  0  0  2 V2000
  154.6153  138.0028  155.0006 N   0  0  0  0  0  0  0  0  0  0  0  0
  153.4022  138.3465  154.9984 C   0  0  0  0  0  0  0  0  0  0  0  0
  152.4494  137.6327  154.1773 N   0  0  0  0  0  0  0  0  0  0  0  0
  151.2200  138.0477  154.1761 C   0  0  0  0  0  0  0  0  0  0  0  0
  150.7966  139.2094  154.9513 N   0  0  0  0  0  0  0  0  0  0  0  0
  149.3573  139.7052  154.9678 C   0  0  2  0  0  0  0  0  0  0  0  0
  148.4991  138.7028  155.4275 O   0  0  0  0  0  0  0  0  0  0  0  0
  147.9490  137.9984  154.3211 C   0  0  1  0  0  0  0  0  0  0  0  0
  146.6722  137.2615  154.7521 C   0  0  0  0  0  0  0  0  0  0  0  0
  146.4006  136.2004  153.8614 O   0  0  0  0  0  0  0  0  0  0  0  0
  147.6982  139.1265  153.3196 C   0  0  2  0  0  0  0  0  0  0  0  0
  147.7069  138.6242  151.9984 O   0  0  0  0  0  0  0  0  0  0  0  0
  148.8760  140.0714  153.5457 C   0  0  1  0  0  0  0  0  0  0  0  0
  148.4438  141.4146  153.4719 O   0  0  0  0  0  0  0  0  0  0  0  0
  151.7444  139.8503  155.7955 C   0  0  0  0  0  0  0  0  0  0  0  0
  151.3568  140.7852  156.4970 O   0  0  0  0  0  0  0  0  0  0  0  0
  153.0317  139.4056  155.7965 N   0  5  0  0  0  0  0  0  0  0  0  0
  149.3592  140.5366  155.6751 H   0  0  0  0  0  0  0  0  0  0  0  0
  148.6862  137.3025  153.9154 H   0  0  0  0  0  0  0  0  0  0  0  0
  146.7496  139.6210  153.5369 H   0  0  0  0  0  0  0  0  0  0  0  0
  149.6730  139.8938  152.8214 H   0  0  0  0  0  0  0  0  0  0  0  0
  155.1812  138.5723  155.6126 H   0  0  0  0  0  0  0  0  0  0  0  0
  150.4405  137.5506  153.5989 H   0  0  0  0  0  0  0  0  0  0  0  0
  146.7538  136.8901  155.7741 H   0  0  0  0  0  0  0  0  0  0  0  0
  145.8197  137.9404  154.7209 H   0  0  0  0  0  0  0  0  0  0  0  0
  147.0790  136.1787  153.2042 H   0  0  0  0  0  0  0  0  0  0  0  0
  148.5279  138.8632  151.5961 H   0  0  0  0  0  0  0  0  0  0  0  0
  147.5261  141.4408  153.6989 H   0  0  0  0  0  0  0  0  0  0  0  0
  1  2  2  0  0  0  0
  1 22  1  0  0  0  0
  2 17  1  0  0  0  0
  2  3  1  0  0  0  0
  3  4  2  0  0  0  0
  4  5  1  0  0  0  0
  4 23  1  0  0  0  0
  5  6  1  0  0  0  0
  5 15  1  0  0  0  0
  6 18  1  0  0  0  0
  6 13  1  0  0  0  0
  6  7  1  0  0  0  0
  7  8  1  0  0  0  0
  8 19  1  0  0  0  0
  8  9  1  0  0  0  0
  8 11  1  0  0  0  0
  9 10  1  0  0  0  0
  9 24  1  0  0  0  0
  9 25  1  0  0  0  0
 10 26  1  0  0  0  0
 11 20  1  0  0  0  0
 11 12  1  0  0  0  0
 11 13  1  0  0  0  0
 12 27  1  0  0  0  0
 13 21  1  0  0  0  0
 13 14  1  0  0  0  0
 14 28  1  0  0  0  0
 15 16  2  0  0  0  0
 15 17  1  0  0  0  0
M  CHG  1  17  -1
M  END
> <s_m_source_file>
AV-unprocessed.smi

> <i_m_source_file_index>
72

> <i_lp_mmshare_version>
43012

> <i_f3d_flags>
0

> <s_epik_input>
W05IMl1jMW5bY0hdbihjKD1PKW4xKVtDQEBIXTJPW0NASF0oW0NIMl1bT0hdKVtDQEBIXShbT0hdKVtDQEhdMltPSF0=

> <s_epik_cmdline>
J2VwaWtfcHl0aG9uJywgJy1waCcsICc3LjAnLCAnLXRuJywgJzgnLCAnLW1hJywgJzIwMCcsICctbWV0YWxfYmluZGluZycsICctaW1hZScsICc8aW5maWxlLm1hZT4nLCAnLW9tYWUnLCAnPG91dGZpbGUubWFlPic=

> <r_lp_tautomer_probability>
7.17554e-07

> <r_epik_Ionization_Penalty>
12.8705

> <r_epik_Ionization_Penalty_Charging>
5.64144

> <r_epik_Ionization_Penalty_Neutral>
7.22905

> <r_epik_State_Penalty>
3.30104

> <r_epik_Charging_Adjusted_Penalty>
8.94249

> <i_epik_Tot_Q>
-1

> <i_epik_Tot_abs_Q>
1

> <r_epik_Metal_State_Penalty>
0.529074

> <b_epik_Metal_Only>
1

> <s_epik_Chemistry_Notes>
This compound contains an acetal/aminal-like group ( X-CH(R)-Y where X, Y are N, S, or O) that may be acid/base labile, releasing an aldehyde.

> <s_lp_Force_Field>
OPLS_2005

> <r_lp_Energy>
30.1413

> <b_lp_Chiralities_Consistent>
1

> <s_lp_Variant>
AV-unprocessed.smi:72-71

> <Gold.Version>
5.8.1

> <Gold.Id.Protein>
6NUR|6NUR_protein|mol2

> <Gold.PLP.Fitness>
41.7416

> <Gold.PLP.PLP>
-24.8204

> <Gold.PLP.part.hbond>
-8.8741

> <Gold.PLP.part.metal>
0.0000

> <Gold.PLP.part.buried>
5.1432

> <Gold.PLP.part.nonpolar>
-19.5355

> <Gold.PLP.part.repulsive>
0.1974

> <Gold.PLP.ligand.clash>
0.0000

> <Gold.PLP.ligand.torsion>
0.2978

> <Gold.PLP.Chemscore.Hbond>
4.8758

> <Gold.PLP.Chemscore.CHOScore>
0.9515

> <Gold.PLP.Chemscore.Metal>
0.0000

> <Gold.Chemscore.Hbonds>
donor molecule, donor type, donor heavy atom, donor atom, acceptor molecule, acceptor atom, score
      L1  H    10    26       P1  7948  0.32
      L1  H    12    27       P1  7957  1.00
      P1  H  7997  8008       L1    17  2.00
      P1  H  8011  8017       L1    14  0.77
      P1  H 10752 10763       L1     3  0.67
      L1  C     4    23       P1  7948  0.70
      L1  C     4    23       P1  7949  0.21

> <Gold.PLP.Chemscore.Internal.Correction>
0.0347

> <Gold.Rescore>
     Score         DG    S(hbond)    S(metal)    S(lipo)     H(rot)  DE(clash)    DE(int)     intcor
      5.63      -7.59       3.06        0.00      19.07       4.04       1.45       0.50       ----

> <Gold.Chemscore.Fitness>
5.6334

> <Gold.Chemscore.DG>
-7.5901

> <Gold.Chemscore.ZeroCoef>
-5.4800

> <Gold.Chemscore.Hbond>
3.0606

> <Gold.Chemscore.Metal>
0.0000

> <Gold.Chemscore.Lipo>
19.0678

> <Gold.Chemscore.Internal_Hbond>
0.0000

> <Gold.Chemscore.DEClash>
1.4529

> <Gold.Chemscore.DEInternal>
0.5038

> <Gold.Chemscore.Rot>
4.0403

> <Gold.Chemscore.Internal.Correction>
   9.000000E+99

> <Gold.Chemscore.Hbonds>
donor molecule, donor type, donor heavy atom, donor atom, acceptor molecule, acceptor atom, score
      L1  H    10    26       P1  7948  0.33
      L1  H    12    27       P1  7957  0.52
      P1  H  7997  8008       L1    17  0.58
      P1  H  8011  8017       L1    14  0.46
      P1  H 10752 10763       L1     3  0.43

> <Gold.Chemscore.Hbond.Weighted>
-10.2223

> <Gold.Chemscore.Metal.Weighted>
-0.0000

> <Gold.Chemscore.Lipo.Weighted>
-2.2309

> <Gold.Chemscore.Internal_Hbond.Weighted>
0.0000

> <Gold.Chemscore.DEClash.Weighted>
1.4529

> <Gold.Chemscore.DEInternal.Weighted>
0.5038

> <Gold.Chemscore.Rot.Weighted>
10.3431

> <Gold.Chemscore.Internal.Correction.Weighted>
   9.000000E+99

> <Gold.Protein.RotatedTorsions>
[ 6907 6896 6895 6894 ] final -172.54 input  -60.11 | X-H torsion
[ 7974 7965 7964 7962 ] final   15.53 input  175.53 | X-H torsion
[ 8008 7997 7996 7995 ] final  -36.20 input   59.86 | X-H torsion
[ 10167 10162 10161 10158 ] final -156.49 input  -65.29 | X-H torsion
[ 10718 10713 10712 10709 ] final   26.25 input   66.30 | X-H torsion
[ 10763 10752 10751 10750 ] final   29.86 input  -60.55 | X-H torsion
[ 11005 11000 10999 10996 ] final -166.04 input  -57.11 | X-H torsion

> <Gold.Protein.ActiveResidues>
 VAL166  LYS551  ARG553  GLY616  TRP617  ASP618  TYR619  PRO620  LYS621  CYS622 
 ASP623  PHE694  ASN695  SER759  ASP760  ASP761  ALA762  ILE779  LEU786  VAL792 
 PHE793  MET794  SER795  GLU796  ALA797  LYS798  CYS799  TRP800  GLU811  SER814 

> <Gold.Protein.RotatedAtoms>
  151.5417  133.3431  159.2936 H   0  0  0  0  0  0  0  0  0  0  0  0  # atno 6907 bound_to 6896
  150.8532  134.7865  159.7036 H   0  0  0  0  0  0  0  0  0  0  0  0  # atno 6908 bound_to 6896
  152.4572  134.5273  159.9852 H   0  0  0  0  0  0  0  0  0  0  0  0  # atno 6909 bound_to 6896
  146.2276  139.8881  142.8559 H   0  0  0  0  0  0  0  0  0  0  0  0  # atno 7974 bound_to 7965
  154.4078  140.1637  156.2335 H   0  0  0  0  0  0  0  0  0  0  0  0  # atno 8008 bound_to 7997
  155.9262  140.3418  155.6190 H   0  0  0  0  0  0  0  0  0  0  0  0  # atno 8009 bound_to 7997
  155.7161  140.0762  157.2341 H   0  0  0  0  0  0  0  0  0  0  0  0  # atno 8010 bound_to 7997
  139.6846  143.9523  152.2354 H   0  0  0  0  0  0  0  0  0  0  0  0  # atno 10167 bound_to 10162
  157.2042  130.6904  149.6201 H   0  0  0  0  0  0  0  0  0  0  0  0  # atno 10718 bound_to 10713
  153.0405  135.6478  154.0956 H   0  0  0  0  0  0  0  0  0  0  0  0  # atno 10763 bound_to 10752
  154.0663  135.2884  155.3317 H   0  0  0  0  0  0  0  0  0  0  0  0  # atno 10764 bound_to 10752
  154.6624  135.5386  153.8099 H   0  0  0  0  0  0  0  0  0  0  0  0  # atno 10765 bound_to 10752
  140.5690  134.5257  157.5158 H   0  0  0  0  0  0  0  0  0  0  0  0  # atno 11005 bound_to 11000
  145.2445  141.0021  143.3917 LP  0  0  0  0  0  0  0  0  0  0  0  0  # atno 17320 bound_to 7965
  144.9425  139.4173  143.6442 LP  0  0  0  0  0  0  0  0  0  0  0  0  # atno 17321 bound_to 7965
  139.9323  144.6734  150.8350 LP  0  0  0  0  0  0  0  0  0  0  0  0  # atno 17342 bound_to 10162
  140.7663  143.3300  151.2430 LP  0  0  0  0  0  0  0  0  0  0  0  0  # atno 17343 bound_to 10162
  155.9697  130.4572  150.5955 LP  0  0  0  0  0  0  0  0  0  0  0  0  # atno 17370 bound_to 10713
  157.3736  131.0769  151.1536 LP  0  0  0  0  0  0  0  0  0  0  0  0  # atno 17371 bound_to 10713
  139.9371  134.7855  156.0775 LP  0  0  0  0  0  0  0  0  0  0  0  0  # atno 17394 bound_to 11000
  141.1068  133.6657  156.2883 LP  0  0  0  0  0  0  0  0  0  0  0  0  # atno 17395 bound_to 11000

$$$$
