AV-unprocessed.smi:234|AV-procd|sdf|1797|dock7
  -GOLD-   2262020363D 1   1.00000     0.00000
 Structure written by MMmdl.
 59 62  0  0  0  0  0  0  0  0  1 V2000
  151.6702  145.3658  159.7505 C   0  0  0  0  0  0  0  0  0  0  0  0
  150.9028  144.1472  159.2201 C   0  0  0  0  0  0  0  0  0  0  0  0
  151.3503  142.9426  159.8249 O   0  0  0  0  0  0  0  0  0  0  0  0
  152.5733  142.4382  159.2955 C   0  0  2  0  0  0  0  0  0  0  0  0
  152.3077  141.1605  158.4986 C   0  0  0  0  0  0  0  0  0  0  0  0
  152.5077  140.4007  159.8176 C   0  0  1  0  0  0  0  0  0  0  0  0
  153.2220  139.1273  159.6760 N   0  0  0  0  0  0  0  0  0  0  0  0
  153.4372  138.3264  160.8766 C   0  0  0  0  0  0  0  0  0  0  0  0
  152.9390  138.3583  158.5957 C   0  0  0  0  0  0  0  0  0  0  0  0
  153.8275  138.2642  157.5706 N   0  0  0  0  0  0  0  0  0  0  0  0
  153.5426  137.5152  156.5013 C   0  0  0  0  0  0  0  0  0  0  0  0
  152.4485  136.7912  156.2572 N   0  0  0  0  0  0  0  0  0  0  0  0
  151.5532  136.8849  157.2819 C   0  0  0  0  0  0  0  0  0  0  0  0
  151.7146  137.6462  158.4734 C   0  0  0  0  0  0  0  0  0  0  0  0
  150.5957  137.5034  159.2846 N   0  0  0  0  0  0  0  0  0  0  0  0
  149.8184  136.6984  158.6125 C   0  0  0  0  0  0  0  0  0  0  0  0
  150.3190  136.2703  157.4032 N   0  0  0  0  0  0  0  0  0  0  0  0
  149.6720  135.3654  156.4649 C   0  0  0  0  0  0  0  0  0  0  0  0
  150.0895  133.8830  156.6554 C   0  0  2  0  0  0  0  0  0  0  0  0
  149.7181  133.4932  157.9677 O   0  0  0  0  0  0  0  0  0  0  0  0
  151.5885  133.6434  156.5027 C   0  0  0  0  0  0  0  0  0  0  0  0
  151.6568  132.1921  156.0538 C   0  0  0  0  0  0  0  0  0  0  0  0
  150.5645  132.0971  155.1567 O   0  0  0  0  0  0  0  0  0  0  0  0
  149.4694  132.8548  155.6678 C   0  0  2  0  0  0  0  0  0  0  0  0
  148.7072  133.4283  154.4629 C   0  0  0  0  0  0  0  0  0  0  0  0
  153.3812  141.5881  160.3108 C   0  0  0  0  0  0  0  0  0  0  0  0
  154.8895  141.5354  160.0170 C   0  0  0  0  0  0  0  0  0  0  0  0
  153.2362  141.9804  161.7839 C   0  0  0  0  0  0  0  0  0  0  0  0
  151.2799  146.2866  159.3169 H   0  0  0  0  0  0  0  0  0  0  0  0
  152.7316  145.3113  159.5086 H   0  0  0  0  0  0  0  0  0  0  0  0
  151.5769  145.4432  160.8340 H   0  0  0  0  0  0  0  0  0  0  0  0
  149.8449  144.2637  159.4562 H   0  0  0  0  0  0  0  0  0  0  0  0
  150.9715  144.0804  158.1331 H   0  0  0  0  0  0  0  0  0  0  0  0
  153.1703  143.1669  158.7438 H   0  0  0  0  0  0  0  0  0  0  0  0
  151.3057  141.0856  158.0745 H   0  0  0  0  0  0  0  0  0  0  0  0
  153.0762  140.9595  157.7501 H   0  0  0  0  0  0  0  0  0  0  0  0
  151.5754  140.3183  160.3796 H   0  0  0  0  0  0  0  0  0  0  0  0
  152.9359  137.3587  160.8172 H   0  0  0  0  0  0  0  0  0  0  0  0
  153.0578  138.8336  161.7628 H   0  0  0  0  0  0  0  0  0  0  0  0
  154.5031  138.1491  161.0205 H   0  0  0  0  0  0  0  0  0  0  0  0
  154.3001  137.4926  155.7320 H   0  0  0  0  0  0  0  0  0  0  0  0
  148.8550  136.3838  158.9869 H   0  0  0  0  0  0  0  0  0  0  0  0
  148.5927  135.4743  156.5793 H   0  0  0  0  0  0  0  0  0  0  0  0
  149.9119  135.7061  155.4574 H   0  0  0  0  0  0  0  0  0  0  0  0
  149.4287  132.5938  157.9417 H   0  0  0  0  0  0  0  0  0  0  0  0
  151.9894  134.2721  155.7070 H   0  0  0  0  0  0  0  0  0  0  0  0
  152.1639  133.8444  157.4076 H   0  0  0  0  0  0  0  0  0  0  0  0
  152.6004  131.9435  155.5679 H   0  0  0  0  0  0  0  0  0  0  0  0
  151.5076  131.5116  156.8934 H   0  0  0  0  0  0  0  0  0  0  0  0
  148.8070  132.1677  156.1977 H   0  0  0  0  0  0  0  0  0  0  0  0
  147.8419  134.0112  154.7785 H   0  0  0  0  0  0  0  0  0  0  0  0
  148.3413  132.6248  153.8231 H   0  0  0  0  0  0  0  0  0  0  0  0
  149.3458  134.0665  153.8518 H   0  0  0  0  0  0  0  0  0  0  0  0
  155.4101  140.8531  160.6891 H   0  0  0  0  0  0  0  0  0  0  0  0
  155.3490  142.5174  160.1329 H   0  0  0  0  0  0  0  0  0  0  0  0
  155.0988  141.2038  158.9996 H   0  0  0  0  0  0  0  0  0  0  0  0
  153.7632  141.2886  162.4408 H   0  0  0  0  0  0  0  0  0  0  0  0
  152.1929  141.9866  162.0995 H   0  0  0  0  0  0  0  0  0  0  0  0
  153.6377  142.9761  161.9726 H   0  0  0  0  0  0  0  0  0  0  0  0
  1  2  1  0  0  0  0
  1 29  1  0  0  0  0
  1 30  1  0  0  0  0
  1 31  1  0  0  0  0
  2  3  1  0  0  0  0
  2 32  1  0  0  0  0
  2 33  1  0  0  0  0
  3  4  1  0  0  0  0
  4 26  1  0  0  0  0
  4  5  1  0  0  0  0
  4 34  1  0  0  0  0
  5  6  1  0  0  0  0
  5 35  1  0  0  0  0
  5 36  1  0  0  0  0
  6  7  1  0  0  0  0
  6 26  1  0  0  0  0
  6 37  1  0  0  0  0
  7  8  1  0  0  0  0
  7  9  1  0  0  0  0
  8 38  1  0  0  0  0
  8 39  1  0  0  0  0
  8 40  1  0  0  0  0
  9 14  1  0  0  0  0
  9 10  2  0  0  0  0
 10 11  1  0  0  0  0
 11 12  2  0  0  0  0
 11 41  1  0  0  0  0
 12 13  1  0  0  0  0
 13 17  1  0  0  0  0
 13 14  2  0  0  0  0
 14 15  1  0  0  0  0
 15 16  2  0  0  0  0
 16 17  1  0  0  0  0
 16 42  1  0  0  0  0
 17 18  1  0  0  0  0
 18 19  1  0  0  0  0
 18 43  1  0  0  0  0
 18 44  1  0  0  0  0
 19 24  1  0  0  0  0
 19 20  1  0  0  0  0
 19 21  1  0  0  0  0
 20 45  1  0  0  0  0
 21 22  1  0  0  0  0
 21 46  1  0  0  0  0
 21 47  1  0  0  0  0
 22 23  1  0  0  0  0
 22 48  1  0  0  0  0
 22 49  1  0  0  0  0
 23 24  1  0  0  0  0
 24 25  1  0  0  0  0
 24 50  1  0  0  0  0
 25 51  1  0  0  0  0
 25 52  1  0  0  0  0
 25 53  1  0  0  0  0
 26 27  1  0  0  0  0
 26 28  1  0  0  0  0
 27 54  1  0  0  0  0
 27 55  1  0  0  0  0
 27 56  1  0  0  0  0
 28 57  1  0  0  0  0
 28 58  1  0  0  0  0
 28 59  1  0  0  0  0
M  END
> <s_m_source_file>
AV-unprocessed.smi

> <i_m_source_file_index>
234

> <i_lp_mmshare_version>
43012

> <i_f3d_flags>
0

> <s_epik_input>
W0NIM11bQ0gyXU9bQ0BASF0oQzEoW0NIM10pW0NIM10pW0NIMl1bQ0BIXTFOKFtDSDNdKWMobltjSF1uMiljKGMyMyluW2NIXW4zW0NIMl1bQ0BAXTQoW09IXSlbQ0gyXVtDSDJdT1tDQEhdNFtDSDNd

> <s_epik_cmdline>
J2VwaWtfcHl0aG9uJywgJy1waCcsICc3LjAnLCAnLXRuJywgJzgnLCAnLW1hJywgJzIwMCcsICctbWV0YWxfYmluZGluZycsICctaW1hZScsICc8aW5maWxlLm1hZT4nLCAnLW9tYWUnLCAnPG91dGZpbGUubWFlPic=

> <r_lp_tautomer_probability>
1

> <r_epik_Ionization_Penalty>
0.00349132

> <r_epik_Ionization_Penalty_Charging>
0

> <r_epik_Ionization_Penalty_Neutral>
0.00349132

> <r_epik_State_Penalty>
0.00242418

> <r_epik_Charging_Adjusted_Penalty>
0.00242418

> <i_epik_Tot_Q>
0

> <i_epik_Tot_abs_Q>
0

> <r_epik_Metal_State_Penalty>
-0

> <b_epik_Metal_Only>
0

> <s_lp_Force_Field>
OPLS_2005

> <r_lp_Energy>
49.2938

> <b_lp_Chiralities_Consistent>
1

> <s_lp_Variant>
AV-unprocessed.smi:234-13

> <Gold.Version>
5.8.1

> <Gold.Id.Protein>
6NUR|6NUR_protein|mol2

> <Gold.PLP.Fitness>
45.3880

> <Gold.PLP.PLP>
-40.9906

> <Gold.PLP.part.hbond>
-3.0000

> <Gold.PLP.part.metal>
0.0000

> <Gold.PLP.part.buried>
-5.2042

> <Gold.PLP.part.nonpolar>
-32.5202

> <Gold.PLP.part.repulsive>
0.0067

> <Gold.PLP.ligand.clash>
0.0000

> <Gold.PLP.ligand.torsion>
1.6646

> <Gold.PLP.Chemscore.Hbond>
2.1835

> <Gold.PLP.Chemscore.CHOScore>
0.0000

> <Gold.PLP.Chemscore.Metal>
0.0000

> <Gold.Chemscore.Hbonds>
donor molecule, donor type, donor heavy atom, donor atom, acceptor molecule, acceptor atom, score
      P1  H  6896  6908       L1    20  0.45
      P1  H  7997  8009       L1    10  0.93
      P1  H 10752 10764       L1    12  0.98

> <Gold.PLP.Chemscore.Internal.Correction>
1.1761

> <Gold.Rescore>
     Score         DG    S(hbond)    S(metal)    S(lipo)     H(rot)  DE(clash)    DE(int)     intcor
     13.64     -15.40       0.96        0.00     114.70       2.62       0.05       1.70       ----

> <Gold.Chemscore.Fitness>
13.6442

> <Gold.Chemscore.DG>
-15.3983

> <Gold.Chemscore.ZeroCoef>
-5.4800

> <Gold.Chemscore.Hbond>
0.9611

> <Gold.Chemscore.Metal>
0.0000

> <Gold.Chemscore.Lipo>
114.7027

> <Gold.Chemscore.Internal_Hbond>
0.0000

> <Gold.Chemscore.DEClash>
0.0504

> <Gold.Chemscore.DEInternal>
1.7036

> <Gold.Chemscore.Rot>
2.6219

> <Gold.Chemscore.Internal.Correction>
   9.000000E+99

> <Gold.Chemscore.Hbonds>
donor molecule, donor type, donor heavy atom, donor atom, acceptor molecule, acceptor atom, score
      P1  H  6896  6908       L1    20  0.12
      P1  H  7997  8009       L1    10  0.61
      P1  H 10752 10764       L1    12  0.28

> <Gold.Chemscore.Hbond.Weighted>
-3.2102

> <Gold.Chemscore.Metal.Weighted>
-0.0000

> <Gold.Chemscore.Lipo.Weighted>
-13.4202

> <Gold.Chemscore.Internal_Hbond.Weighted>
0.0000

> <Gold.Chemscore.DEClash.Weighted>
0.0504

> <Gold.Chemscore.DEInternal.Weighted>
1.7036

> <Gold.Chemscore.Rot.Weighted>
6.7121

> <Gold.Chemscore.Internal.Correction.Weighted>
   9.000000E+99

> <Gold.Protein.RotatedTorsions>
[ 6907 6896 6895 6894 ] final   78.42 input  -60.11 | X-H torsion
[ 7974 7965 7964 7962 ] final   79.35 input  175.53 | X-H torsion
[ 8008 7997 7996 7995 ] final  152.73 input   59.86 | X-H torsion
[ 10167 10162 10161 10158 ] final  -99.24 input  -65.29 | X-H torsion
[ 10718 10713 10712 10709 ] final   25.03 input   66.30 | X-H torsion
[ 10763 10752 10751 10750 ] final  -33.34 input  -60.55 | X-H torsion
[ 11005 11000 10999 10996 ] final  116.84 input  -57.11 | X-H torsion

> <Gold.Protein.ActiveResidues>
 VAL166  LYS551  ARG553  GLY616  TRP617  ASP618  TYR619  PRO620  LYS621  CYS622 
 ASP623  PHE694  ASN695  SER759  ASP760  ASP761  ALA762  ILE779  LEU786  VAL792 
 PHE793  MET794  SER795  GLU796  ALA797  LYS798  CYS799  TRP800  GLU811  SER814 

> <Gold.Protein.RotatedAtoms>
  152.5159  134.3666  159.9303 H   0  0  0  0  0  0  0  0  0  0  0  0  # atno 6907 bound_to 6896
  151.3619  133.3880  159.2698 H   0  0  0  0  0  0  0  0  0  0  0  0  # atno 6908 bound_to 6896
  150.9645  134.9047  159.7809 H   0  0  0  0  0  0  0  0  0  0  0  0  # atno 6909 bound_to 6896
  145.6654  139.2482  143.1899 H   0  0  0  0  0  0  0  0  0  0  0  0  # atno 7974 bound_to 7965
  156.2615  140.2013  156.6379 H   0  0  0  0  0  0  0  0  0  0  0  0  # atno 8008 bound_to 7997
  154.6632  140.0558  157.0110 H   0  0  0  0  0  0  0  0  0  0  0  0  # atno 8009 bound_to 7997
  155.1245  140.3228  155.4492 H   0  0  0  0  0  0  0  0  0  0  0  0  # atno 8010 bound_to 7997
  140.2645  143.3385  152.0594 H   0  0  0  0  0  0  0  0  0  0  0  0  # atno 10167 bound_to 10162
  157.1878  130.6832  149.6138 H   0  0  0  0  0  0  0  0  0  0  0  0  # atno 10718 bound_to 10713
  153.8287  135.6868  153.4817 H   0  0  0  0  0  0  0  0  0  0  0  0  # atno 10763 bound_to 10752
  153.1524  135.4612  154.9654 H   0  0  0  0  0  0  0  0  0  0  0  0  # atno 10764 bound_to 10752
  154.7896  135.3297  154.7752 H   0  0  0  0  0  0  0  0  0  0  0  0  # atno 10765 bound_to 10752
  139.9054  134.9603  156.7260 H   0  0  0  0  0  0  0  0  0  0  0  0  # atno 11005 bound_to 11000
  146.1090  140.7451  142.9512 LP  0  0  0  0  0  0  0  0  0  0  0  0  # atno 17320 bound_to 7965
  144.7075  140.3909  143.7107 LP  0  0  0  0  0  0  0  0  0  0  0  0  # atno 17321 bound_to 7965
  139.5007  144.6697  151.6273 LP  0  0  0  0  0  0  0  0  0  0  0  0  # atno 17342 bound_to 10162
  140.5939  143.9731  150.6342 LP  0  0  0  0  0  0  0  0  0  0  0  0  # atno 17343 bound_to 10162
  155.9715  130.4625  150.6146 LP  0  0  0  0  0  0  0  0  0  0  0  0  # atno 17370 bound_to 10713
  157.3890  131.0792  151.1411 LP  0  0  0  0  0  0  0  0  0  0  0  0  # atno 17371 bound_to 10713
  140.6963  133.9346  155.7996 LP  0  0  0  0  0  0  0  0  0  0  0  0  # atno 17394 bound_to 11000
  141.0405  134.0628  157.3908 LP  0  0  0  0  0  0  0  0  0  0  0  0  # atno 17395 bound_to 11000

$$$$
