AV-unprocessed.smi:221|AV-procd|sdf|1701|dock2
  -GOLD-   2262020153D 1   1.00000     0.00000
 Structure written by MMmdl.
 50 53  0  0  0  0  0  0  0  0  1 V2000
  145.2614  136.0649  149.9793 N   0  0  0  0  0  0  0  0  0  0  0  0
  145.4384  135.6837  151.2492 C   0  0  0  0  0  0  0  0  0  0  0  0
  146.2005  134.7645  151.5402 O   0  0  0  0  0  0  0  0  0  0  0  0
  144.6528  136.4074  152.3614 C   0  0  1  0  0  0  0  0  0  0  0  0
  143.1278  136.2479  152.2020 C   0  0  0  0  0  0  0  0  0  0  0  0
  142.7809  135.0969  153.1390 C   0  0  2  0  0  0  0  0  0  0  0  0
  141.4995  135.1018  153.5054 F   0  0  0  0  0  0  0  0  0  0  0  0
  143.7288  135.3386  154.3077 C   0  0  0  0  0  0  0  0  0  0  0  0
  144.9416  135.8703  153.6987 N   0  0  0  0  0  0  0  0  0  0  0  0
  145.7222  136.6102  154.5157 C   0  0  0  0  0  0  0  0  0  0  0  0
  145.7971  136.3155  155.8399 N   0  0  0  0  0  0  0  0  0  0  0  0
  146.5772  137.0481  156.6410 C   0  0  0  0  0  0  0  0  0  0  0  0
  147.3481  138.0931  156.3292 N   0  0  0  0  0  0  0  0  0  0  0  0
  147.2739  138.3846  154.9983 C   0  0  0  0  0  0  0  0  0  0  0  0
  146.4921  137.6974  154.0291 C   0  0  0  0  0  0  0  0  0  0  0  0
  146.6633  138.2741  152.7774 N   0  0  0  0  0  0  0  0  0  0  0  0
  147.4990  139.2534  152.9947 C   0  0  0  0  0  0  0  0  0  0  0  0
  147.9123  139.3950  154.3007 N   0  0  0  0  0  0  0  0  0  0  0  0
  148.8322  140.3962  154.8130 C   0  0  0  0  0  0  0  0  0  0  0  0
  150.1149  139.7898  155.4369 C   0  0  1  0  0  0  0  0  0  0  0  0
  150.9124  138.9751  154.3855 C   0  0  0  0  0  0  0  0  0  0  0  0
  152.0856  138.4108  154.9313 O   0  0  0  0  0  0  0  0  0  0  0  0
  150.9773  140.9032  156.0956 C   0  0  1  0  0  0  0  0  0  0  0  0
  150.1924  141.9414  156.8818 C   0  0  0  0  0  0  0  0  0  0  0  0
  151.2677  142.5840  157.7509 C   0  0  0  0  0  0  0  0  0  0  0  0
  152.2228  141.5609  158.0026 O   0  0  0  0  0  0  0  0  0  0  0  0
  151.9503  140.4299  157.1822 C   0  0  0  0  0  0  0  0  0  0  0  0
  144.9096  137.4651  152.2844 H   0  0  0  0  0  0  0  0  0  0  0  0
  142.9910  134.1384  152.6619 H   0  0  0  0  0  0  0  0  0  0  0  0
  145.7656  135.5973  149.2401 H   0  0  0  0  0  0  0  0  0  0  0  0
  144.6210  136.8159  149.7640 H   0  0  0  0  0  0  0  0  0  0  0  0
  142.6328  137.1593  152.5402 H   0  0  0  0  0  0  0  0  0  0  0  0
  142.8014  136.0634  151.1775 H   0  0  0  0  0  0  0  0  0  0  0  0
  143.2972  136.0599  155.0046 H   0  0  0  0  0  0  0  0  0  0  0  0
  143.9332  134.4192  154.8573 H   0  0  0  0  0  0  0  0  0  0  0  0
  146.5845  136.7554  157.6805 H   0  0  0  0  0  0  0  0  0  0  0  0
  147.8372  139.9076  152.2043 H   0  0  0  0  0  0  0  0  0  0  0  0
  149.0940  141.0805  154.0052 H   0  0  0  0  0  0  0  0  0  0  0  0
  148.2821  140.9833  155.5480 H   0  0  0  0  0  0  0  0  0  0  0  0
  149.7933  139.1010  156.2201 H   0  0  0  0  0  0  0  0  0  0  0  0
  150.3312  138.1385  154.0008 H   0  0  0  0  0  0  0  0  0  0  0  0
  151.1692  139.5974  153.5277 H   0  0  0  0  0  0  0  0  0  0  0  0
  151.9438  138.2559  155.8528 H   0  0  0  0  0  0  0  0  0  0  0  0
  151.5480  141.4206  155.3228 H   0  0  0  0  0  0  0  0  0  0  0  0
  149.6868  142.6726  156.2503 H   0  0  0  0  0  0  0  0  0  0  0  0
  149.4444  141.4568  157.5111 H   0  0  0  0  0  0  0  0  0  0  0  0
  151.7608  143.3938  157.2118 H   0  0  0  0  0  0  0  0  0  0  0  0
  150.8646  142.9905  158.6788 H   0  0  0  0  0  0  0  0  0  0  0  0
  151.4900  139.6619  157.8051 H   0  0  0  0  0  0  0  0  0  0  0  0
  152.8741  140.0240  156.7696 H   0  0  0  0  0  0  0  0  0  0  0  0
  1  2  1  0  0  0  0
  1 30  1  0  0  0  0
  1 31  1  0  0  0  0
  2  3  2  0  0  0  0
  2  4  1  0  0  0  0
  4 28  1  0  0  0  0
  4  9  1  0  0  0  0
  4  5  1  0  0  0  0
  5  6  1  0  0  0  0
  5 32  1  0  0  0  0
  5 33  1  0  0  0  0
  6 29  1  0  0  0  0
  6  7  1  0  0  0  0
  6  8  1  0  0  0  0
  8  9  1  0  0  0  0
  8 34  1  0  0  0  0
  8 35  1  0  0  0  0
  9 10  1  0  0  0  0
 10 15  1  0  0  0  0
 10 11  2  0  0  0  0
 11 12  1  0  0  0  0
 12 13  2  0  0  0  0
 12 36  1  0  0  0  0
 13 14  1  0  0  0  0
 14 18  1  0  0  0  0
 14 15  2  0  0  0  0
 15 16  1  0  0  0  0
 16 17  2  0  0  0  0
 17 18  1  0  0  0  0
 17 37  1  0  0  0  0
 18 19  1  0  0  0  0
 19 20  1  0  0  0  0
 19 38  1  0  0  0  0
 19 39  1  0  0  0  0
 20 21  1  0  0  0  0
 20 23  1  0  0  0  0
 20 40  1  0  0  0  0
 21 22  1  0  0  0  0
 21 41  1  0  0  0  0
 21 42  1  0  0  0  0
 22 43  1  0  0  0  0
 23 27  1  0  0  0  0
 23 24  1  0  0  0  0
 23 44  1  0  0  0  0
 24 25  1  0  0  0  0
 24 45  1  0  0  0  0
 24 46  1  0  0  0  0
 25 26  1  0  0  0  0
 25 47  1  0  0  0  0
 25 48  1  0  0  0  0
 26 27  1  0  0  0  0
 27 49  1  0  0  0  0
 27 50  1  0  0  0  0
M  END
> <s_m_source_file>
AV-unprocessed.smi

> <i_m_source_file_index>
221

> <i_lp_mmshare_version>
43012

> <i_f3d_flags>
0

> <s_epik_input>
W05IMl1DKD1PKVtDQEBIXTFbQ0gyXVtDQEBIXShGKVtDSDJdTjFjKG5bY0hdbjIpYyhjMjMpbltjSF1uM1tDSDJdW0NASF0oW0NIMl1bT0hdKVtDQEBIXTRbQ0gyXVtDSDJdT1tDSDJdNA==

> <s_epik_cmdline>
J2VwaWtfcHl0aG9uJywgJy1waCcsICc3LjAnLCAnLXRuJywgJzgnLCAnLW1hJywgJzIwMCcsICctbWV0YWxfYmluZGluZycsICctaW1hZScsICc8aW5maWxlLm1hZT4nLCAnLW9tYWUnLCAnPG91dGZpbGUubWFlPic=

> <r_lp_tautomer_probability>
1

> <r_epik_Ionization_Penalty>
0.000818822

> <r_epik_Ionization_Penalty_Charging>
0

> <r_epik_Ionization_Penalty_Neutral>
0.000818822

> <r_epik_State_Penalty>
0.000440551

> <r_epik_Charging_Adjusted_Penalty>
0.000440551

> <i_epik_Tot_Q>
0

> <i_epik_Tot_abs_Q>
0

> <r_epik_Metal_State_Penalty>
-0

> <b_epik_Metal_Only>
0

> <s_lp_Force_Field>
OPLS_2005

> <r_lp_Energy>
50.9528

> <b_lp_Chiralities_Consistent>
1

> <s_lp_Variant>
AV-unprocessed.smi:221-16

> <Gold.Version>
5.8.1

> <Gold.Id.Protein>
6NUR|6NUR_protein|mol2

> <Gold.PLP.Fitness>
41.1635

> <Gold.PLP.PLP>
-33.4784

> <Gold.PLP.part.hbond>
-2.0000

> <Gold.PLP.part.metal>
0.0000

> <Gold.PLP.part.buried>
-4.3589

> <Gold.PLP.part.nonpolar>
-26.9487

> <Gold.PLP.part.repulsive>
0.8218

> <Gold.PLP.ligand.clash>
0.0000

> <Gold.PLP.ligand.torsion>
0.8793

> <Gold.PLP.Chemscore.Hbond>
2.0000

> <Gold.PLP.Chemscore.CHOScore>
1.0000

> <Gold.PLP.Chemscore.Metal>
0.0000

> <Gold.Chemscore.Hbonds>
donor molecule, donor type, donor heavy atom, donor atom, acceptor molecule, acceptor atom, score
      L1  H     1    30       P1  7921  1.00
      L1  H     1    31       P1 10171  1.00
      L1  C    17    37       P1  7957  1.00

> <Gold.PLP.Chemscore.Internal.Correction>
0.4438

> <Gold.Rescore>
     Score         DG    S(hbond)    S(metal)    S(lipo)     H(rot)  DE(clash)    DE(int)     intcor
      7.34      -9.98       1.98        0.00      63.24       3.72       0.17       2.47       ----

> <Gold.Chemscore.Fitness>
7.3353

> <Gold.Chemscore.DG>
-9.9795

> <Gold.Chemscore.ZeroCoef>
-5.4800

> <Gold.Chemscore.Hbond>
1.9832

> <Gold.Chemscore.Metal>
0.0000

> <Gold.Chemscore.Lipo>
63.2427

> <Gold.Chemscore.Internal_Hbond>
0.0000

> <Gold.Chemscore.DEClash>
0.1717

> <Gold.Chemscore.DEInternal>
2.4725

> <Gold.Chemscore.Rot>
3.7202

> <Gold.Chemscore.Internal.Correction>
   9.000000E+99

> <Gold.Chemscore.Hbonds>
donor molecule, donor type, donor heavy atom, donor atom, acceptor molecule, acceptor atom, score
      L1  H     1    30       P1  7921  1.00
      L1  H     1    31       P1 10171  0.99

> <Gold.Chemscore.Hbond.Weighted>
-6.6238

> <Gold.Chemscore.Metal.Weighted>
-0.0000

> <Gold.Chemscore.Lipo.Weighted>
-7.3994

> <Gold.Chemscore.Internal_Hbond.Weighted>
0.0000

> <Gold.Chemscore.DEClash.Weighted>
0.1717

> <Gold.Chemscore.DEInternal.Weighted>
2.4725

> <Gold.Chemscore.Rot.Weighted>
9.5237

> <Gold.Chemscore.Internal.Correction.Weighted>
   9.000000E+99

> <Gold.Protein.RotatedTorsions>
[ 6907 6896 6895 6894 ] final  -11.26 input  -60.11 | X-H torsion
[ 7974 7965 7964 7962 ] final  115.53 input  175.53 | X-H torsion
[ 8008 7997 7996 7995 ] final  127.95 input   59.86 | X-H torsion
[ 10167 10162 10161 10158 ] final -121.04 input  -65.29 | X-H torsion
[ 10718 10713 10712 10709 ] final -105.11 input   66.30 | X-H torsion
[ 10763 10752 10751 10750 ] final  148.68 input  -60.55 | X-H torsion
[ 11005 11000 10999 10996 ] final  -74.74 input  -57.11 | X-H torsion

> <Gold.Protein.ActiveResidues>
 VAL166  LYS551  ARG553  GLY616  TRP617  ASP618  TYR619  PRO620  LYS621  CYS622 
 ASP623  PHE694  ASN695  SER759  ASP760  ASP761  ALA762  ILE779  LEU786  VAL792 
 PHE793  MET794  SER795  GLU796  ALA797  LYS798  CYS799  TRP800  GLU811  SER814 

> <Gold.Protein.RotatedAtoms>
  151.3890  135.0953  159.9519 H   0  0  0  0  0  0  0  0  0  0  0  0  # atno 6907 bound_to 6896
  152.5085  133.8998  159.7446 H   0  0  0  0  0  0  0  0  0  0  0  0  # atno 6908 bound_to 6896
  150.9447  133.6560  159.2812 H   0  0  0  0  0  0  0  0  0  0  0  0  # atno 6909 bound_to 6896
  145.1908  139.3001  143.4369 H   0  0  0  0  0  0  0  0  0  0  0  0  # atno 7974 bound_to 7965
  156.2903  140.2656  156.2356 H   0  0  0  0  0  0  0  0  0  0  0  0  # atno 8008 bound_to 7997
  155.0028  140.0387  157.2385 H   0  0  0  0  0  0  0  0  0  0  0  0  # atno 8009 bound_to 7997
  154.7586  140.2756  155.6237 H   0  0  0  0  0  0  0  0  0  0  0  0  # atno 8010 bound_to 7997
  140.0294  143.5264  152.2184 H   0  0  0  0  0  0  0  0  0  0  0  0  # atno 10167 bound_to 10162
  156.0332  130.5548  150.7492 H   0  0  0  0  0  0  0  0  0  0  0  0  # atno 10718 bound_to 10713
  154.0587  135.2876  155.3328 H   0  0  0  0  0  0  0  0  0  0  0  0  # atno 10763 bound_to 10752
  154.6823  135.5259  153.8282 H   0  0  0  0  0  0  0  0  0  0  0  0  # atno 10764 bound_to 10752
  153.0531  135.6584  154.0777 H   0  0  0  0  0  0  0  0  0  0  0  0  # atno 10765 bound_to 10752
  141.1638  133.6922  156.7411 H   0  0  0  0  0  0  0  0  0  0  0  0  # atno 11005 bound_to 11000
  146.3436  140.2120  142.8590 LP  0  0  0  0  0  0  0  0  0  0  0  0  # atno 17320 bound_to 7965
  145.0043  140.8659  143.5263 LP  0  0  0  0  0  0  0  0  0  0  0  0  # atno 17321 bound_to 7965
  139.6086  144.7603  151.3003 LP  0  0  0  0  0  0  0  0  0  0  0  0  # atno 17342 bound_to 10162
  140.7309  143.6868  150.7955 LP  0  0  0  0  0  0  0  0  0  0  0  0  # atno 17343 bound_to 10162
  157.5041  131.0921  151.0279 LP  0  0  0  0  0  0  0  0  0  0  0  0  # atno 17370 bound_to 10713
  157.0652  130.5841  149.5392 LP  0  0  0  0  0  0  0  0  0  0  0  0  # atno 17371 bound_to 10713
  140.2674  134.8419  157.3815 LP  0  0  0  0  0  0  0  0  0  0  0  0  # atno 17394 bound_to 11000
  140.1554  134.4796  155.7932 LP  0  0  0  0  0  0  0  0  0  0  0  0  # atno 17395 bound_to 11000

$$$$
