AV-unprocessed.smi:2296|AV-procd|sdf|9220|dock6
  -GOLD-   2272012443D 1   1.00000     0.00000
 Structure written by MMmdl.
 24 24  0  0  0  0  0  0  0  0  2 V2000
  143.7845  134.1129  150.4363 N   0  3  0  0  0  0  0  0  0  0  0  0
  144.4477  133.0495  149.6569 C   0  0  2  0  0  0  0  0  0  0  0  0
  143.6410  132.7409  148.3840 C   0  0  0  0  0  0  0  0  0  0  0  0
  143.4968  133.9081  147.6023 O   0  0  0  0  0  0  0  0  0  0  0  0
  144.6422  131.7865  150.5183 C   0  0  0  0  0  0  0  0  0  0  0  0
  145.7909  131.9074  151.5047 C   0  0  0  0  0  0  0  0  0  0  0  0
  146.4977  133.1198  151.6457 C   0  0  0  0  0  0  0  0  0  0  0  0
  147.5583  133.1753  152.5727 C   0  0  0  0  0  0  0  0  0  0  0  0
  147.9350  132.1242  153.3316 N   0  0  0  0  0  0  0  0  0  0  0  0
  147.2526  130.9671  153.1935 C   0  0  0  0  0  0  0  0  0  0  0  0
  146.1770  130.8064  152.2967 C   0  0  0  0  0  0  0  0  0  0  0  0
  142.8057  134.1527  150.1912 H   0  0  0  0  0  0  0  0  0  0  0  0
  144.2205  134.9992  150.2246 H   0  0  0  0  0  0  0  0  0  0  0  0
  145.4313  133.4188  149.3617 H   0  0  0  0  0  0  0  0  0  0  0  0
  144.1556  131.9930  147.7797 H   0  0  0  0  0  0  0  0  0  0  0  0
  142.6570  132.3375  148.6265 H   0  0  0  0  0  0  0  0  0  0  0  0
  144.3573  134.2339  147.3836 H   0  0  0  0  0  0  0  0  0  0  0  0
  143.7228  131.5529  151.0572 H   0  0  0  0  0  0  0  0  0  0  0  0
  144.8413  130.9280  149.8751 H   0  0  0  0  0  0  0  0  0  0  0  0
  146.2368  133.9905  151.0619 H   0  0  0  0  0  0  0  0  0  0  0  0
  148.1203  134.0878  152.7054 H   0  0  0  0  0  0  0  0  0  0  0  0
  147.5742  130.1441  153.8145 H   0  0  0  0  0  0  0  0  0  0  0  0
  145.6634  129.8589  152.2222 H   0  0  0  0  0  0  0  0  0  0  0  0
  143.8788  133.9170  151.4228 H   0  0  0  0  0  0  0  0  0  0  0  0
  1  2  1  0  0  0  0
  1 12  1  0  0  0  0
  1 13  1  0  0  0  0
  1 24  1  0  0  0  0
  2  3  1  0  0  0  0
  2  5  1  0  0  0  0
  2 14  1  0  0  0  0
  3  4  1  0  0  0  0
  3 15  1  0  0  0  0
  3 16  1  0  0  0  0
  4 17  1  0  0  0  0
  5  6  1  0  0  0  0
  5 18  1  0  0  0  0
  5 19  1  0  0  0  0
  6 11  1  0  0  0  0
  6  7  2  0  0  0  0
  7  8  1  0  0  0  0
  7 20  1  0  0  0  0
  8  9  2  0  0  0  0
  8 21  1  0  0  0  0
  9 10  1  0  0  0  0
 10 11  2  0  0  0  0
 10 22  1  0  0  0  0
 11 23  1  0  0  0  0
M  CHG  1   1   1
M  END
> <s_m_source_file>
AV-unprocessed.smi

> <i_m_source_file_index>
2296

> <i_lp_mmshare_version>
43012

> <i_f3d_flags>
0

> <s_epik_input>
W09IXVtDSDJdW0NAQEhdKFtOSDJdKVtDSDJdYzFbY0hdW2NIXW5bY0hdW2NIXTE=

> <s_epik_cmdline>
J2VwaWtfcHl0aG9uJywgJy1waCcsICc3LjAnLCAnLXRuJywgJzgnLCAnLW1hJywgJzIwMCcsICctbWV0YWxfYmluZGluZycsICctaW1hZScsICc8aW5maWxlLm1hZT4nLCAnLW9tYWUnLCAnPG91dGZpbGUubWFlPic=

> <r_epik_Ionization_Penalty>
0.0199414

> <r_epik_Ionization_Penalty_Charging>
0.0188044

> <r_epik_Ionization_Penalty_Neutral>
0.00113699

> <r_epik_State_Penalty>
0.00788343

> <r_epik_Charging_Adjusted_Penalty>
0.0266878

> <i_epik_Tot_Q>
1

> <i_epik_Tot_abs_Q>
1

> <r_epik_Metal_State_Penalty>
-0

> <b_epik_Metal_Only>
0

> <s_lp_Force_Field>
OPLS_2005

> <r_lp_Energy>
8.03463

> <b_lp_Chiralities_Consistent>
1

> <s_lp_Variant>
AV-unprocessed.smi:2296-1

> <Gold.Version>
5.8.1

> <Gold.Id.Protein>
6NUR|6NUR_protein|mol2

> <Gold.PLP.Fitness>
42.9391

> <Gold.PLP.PLP>
-28.2974

> <Gold.PLP.part.hbond>
-4.7467

> <Gold.PLP.part.metal>
0.0000

> <Gold.PLP.part.buried>
-4.5944

> <Gold.PLP.part.nonpolar>
-19.3939

> <Gold.PLP.part.repulsive>
0.1208

> <Gold.PLP.ligand.clash>
0.0000

> <Gold.PLP.ligand.torsion>
0.1821

> <Gold.PLP.Chemscore.Hbond>
4.0000

> <Gold.PLP.Chemscore.CHOScore>
1.0000

> <Gold.PLP.Chemscore.Metal>
0.0000

> <Gold.Chemscore.Hbonds>
donor molecule, donor type, donor heavy atom, donor atom, acceptor molecule, acceptor atom, score
      L1  H     1    12       P1 10186  2.00
      L1  H     4    17       P1  7921  1.00
      P1  H 10192 10197       L1     4  1.00
      L1  C     8    21       P1  7948  0.93

> <Gold.PLP.Chemscore.Internal.Correction>
0.0060

> <Gold.Rescore>
     Score         DG    S(hbond)    S(metal)    S(lipo)     H(rot)  DE(clash)    DE(int)     intcor
     18.08     -18.28       2.95        0.00      71.93       2.14       0.03       0.17       ----

> <Gold.Chemscore.Fitness>
18.0799

> <Gold.Chemscore.DG>
-18.2803

> <Gold.Chemscore.ZeroCoef>
-5.4800

> <Gold.Chemscore.Hbond>
2.9533

> <Gold.Chemscore.Metal>
0.0000

> <Gold.Chemscore.Lipo>
71.9326

> <Gold.Chemscore.Internal_Hbond>
0.0000

> <Gold.Chemscore.DEClash>
0.0255

> <Gold.Chemscore.DEInternal>
0.1749

> <Gold.Chemscore.Rot>
2.1405

> <Gold.Chemscore.Internal.Correction>
   9.000000E+99

> <Gold.Chemscore.Hbonds>
donor molecule, donor type, donor heavy atom, donor atom, acceptor molecule, acceptor atom, score
      L1  H     1    12       P1 10186  0.94
      L1  H     4    17       P1  7921  1.00
      P1  H 10192 10197       L1     4  0.86

> <Gold.Chemscore.Hbond.Weighted>
-9.8639

> <Gold.Chemscore.Metal.Weighted>
-0.0000

> <Gold.Chemscore.Lipo.Weighted>
-8.4161

> <Gold.Chemscore.Internal_Hbond.Weighted>
0.0000

> <Gold.Chemscore.DEClash.Weighted>
0.0255

> <Gold.Chemscore.DEInternal.Weighted>
0.1749

> <Gold.Chemscore.Rot.Weighted>
5.4797

> <Gold.Chemscore.Internal.Correction.Weighted>
   9.000000E+99

> <Gold.Protein.RotatedTorsions>
[ 6907 6896 6895 6894 ] final -117.25 input  -60.11 | X-H torsion
[ 7974 7965 7964 7962 ] final   13.35 input  175.53 | X-H torsion
[ 8008 7997 7996 7995 ] final  168.05 input   59.86 | X-H torsion
[ 10167 10162 10161 10158 ] final  162.71 input  -65.29 | X-H torsion
[ 10718 10713 10712 10709 ] final   95.24 input   66.30 | X-H torsion
[ 10763 10752 10751 10750 ] final  173.94 input  -60.55 | X-H torsion
[ 11005 11000 10999 10996 ] final -126.98 input  -57.11 | X-H torsion

> <Gold.Protein.ActiveResidues>
 VAL166  LYS551  ARG553  GLY616  TRP617  ASP618  TYR619  PRO620  LYS621  CYS622 
 ASP623  PHE694  ASN695  SER759  ASP760  ASP761  ALA762  ILE779  LEU786  VAL792 
 PHE793  MET794  SER795  GLU796  ALA797  LYS798  CYS799  TRP800  GLU811  SER814 

> <Gold.Protein.RotatedAtoms>
  150.8121  133.8403  159.3177 H   0  0  0  0  0  0  0  0  0  0  0  0  # atno 6907 bound_to 6896
  151.6185  135.1032  160.0106 H   0  0  0  0  0  0  0  0  0  0  0  0  # atno 6908 bound_to 6896
  152.4213  133.7080  159.6519 H   0  0  0  0  0  0  0  0  0  0  0  0  # atno 6909 bound_to 6896
  146.2331  139.9201  142.8511 H   0  0  0  0  0  0  0  0  0  0  0  0  # atno 7974 bound_to 7965
  156.1581  140.1601  156.8658 H   0  0  0  0  0  0  0  0  0  0  0  0  # atno 8008 bound_to 7997
  154.5134  140.0795  156.8070 H   0  0  0  0  0  0  0  0  0  0  0  0  # atno 8009 bound_to 7997
  155.3763  140.3403  155.4247 H   0  0  0  0  0  0  0  0  0  0  0  0  # atno 8010 bound_to 7997
  139.4864  144.4410  151.8951 H   0  0  0  0  0  0  0  0  0  0  0  0  # atno 10167 bound_to 10162
  157.6940  131.0539  150.4309 H   0  0  0  0  0  0  0  0  0  0  0  0  # atno 10718 bound_to 10713
  154.4471  135.2763  155.1807 H   0  0  0  0  0  0  0  0  0  0  0  0  # atno 10763 bound_to 10752
  154.3650  135.6121  153.5713 H   0  0  0  0  0  0  0  0  0  0  0  0  # atno 10764 bound_to 10752
  152.9844  135.5843  154.4809 H   0  0  0  0  0  0  0  0  0  0  0  0  # atno 10765 bound_to 10752
  140.9637  134.0901  157.3942 H   0  0  0  0  0  0  0  0  0  0  0  0  # atno 11005 bound_to 11000
  145.2145  140.9909  143.4081 LP  0  0  0  0  0  0  0  0  0  0  0  0  # atno 17320 bound_to 7965
  144.9663  139.3927  143.6331 LP  0  0  0  0  0  0  0  0  0  0  0  0  # atno 17321 bound_to 7965
  140.3862  144.2673  150.5904 LP  0  0  0  0  0  0  0  0  0  0  0  0  # atno 17342 bound_to 10162
  140.5188  143.2271  151.8421 LP  0  0  0  0  0  0  0  0  0  0  0  0  # atno 17343 bound_to 10162
  156.4675  130.4045  149.6538 LP  0  0  0  0  0  0  0  0  0  0  0  0  # atno 17370 bound_to 10713
  156.3630  130.7491  151.2466 LP  0  0  0  0  0  0  0  0  0  0  0  0  # atno 17371 bound_to 10713
  139.8887  135.0099  156.6636 LP  0  0  0  0  0  0  0  0  0  0  0  0  # atno 17394 bound_to 11000
  140.7430  133.8962  155.8291 LP  0  0  0  0  0  0  0  0  0  0  0  0  # atno 17395 bound_to 11000

$$$$
