AV-unprocessed.smi:213|AV-procd|sdf|1635|dock5
  -GOLD-   2262019593D 1   1.00000     0.00000
 Structure written by MMmdl.
 59 62  0  0  0  0  0  0  0  0  2 V2000
  145.3533  136.9200  155.3624 C   0  0  0  0  0  0  0  0  0  0  0  0
  145.2034  137.7148  154.0553 C   0  0  2  0  0  0  0  0  0  0  0  0
  144.1686  137.0568  153.1107 C   0  0  0  0  0  0  0  0  0  0  0  0
  144.5521  135.6830  152.6979 N   0  3  0  0  0  0  0  0  0  0  0  0
  143.3904  134.8337  152.3493 C   0  0  0  0  0  0  0  0  0  0  0  0
  143.8584  133.4040  152.0281 C   0  0  0  0  0  0  0  0  0  0  0  0
  144.8128  133.4374  150.9737 O   0  0  0  0  0  0  0  0  0  0  0  0
  145.9696  134.1876  151.3237 C   0  0  0  0  0  0  0  0  0  0  0  0
  145.5688  135.6422  151.6184 C   0  0  0  0  0  0  0  0  0  0  0  0
  146.5047  137.9309  153.4047 N   0  0  0  0  0  0  0  0  0  0  0  0
  146.5552  138.5318  152.0720 C   0  0  0  0  0  0  0  0  0  0  0  0
  147.5619  138.1694  154.2253 C   0  0  0  0  0  0  0  0  0  0  0  0
  148.0993  137.1409  154.9358 N   0  0  0  0  0  0  0  0  0  0  0  0
  149.1640  137.3421  155.7174 C   0  0  0  0  0  0  0  0  0  0  0  0
  149.8418  138.4714  155.9271 N   0  0  0  0  0  0  0  0  0  0  0  0
  149.3035  139.5094  155.2263 C   0  0  0  0  0  0  0  0  0  0  0  0
  148.1744  139.4478  154.3613 C   0  0  0  0  0  0  0  0  0  0  0  0
  147.9193  140.7066  153.8296 N   0  0  0  0  0  0  0  0  0  0  0  0
  148.8451  141.4672  154.3469 C   0  0  0  0  0  0  0  0  0  0  0  0
  149.7176  140.8292  155.1983 N   0  0  0  0  0  0  0  0  0  0  0  0
  150.8284  141.4344  155.9118 C   0  0  0  0  0  0  0  0  0  0  0  0
  150.3927  142.0421  157.2621 C   0  0  1  0  0  0  0  0  0  0  0  0
  149.6552  141.0998  158.0153 O   0  0  0  0  0  0  0  0  0  0  0  0
  151.5543  142.5696  158.1301 C   0  0  2  0  0  0  0  0  0  0  0  0
  152.5306  141.4908  158.6029 C   0  0  0  0  0  0  0  0  0  0  0  0
  153.1415  142.0849  159.8632 C   0  0  0  0  0  0  0  0  0  0  0  0
  152.2287  143.2664  160.2031 C   0  0  0  0  0  0  0  0  0  0  0  0
  151.0968  143.1153  159.3585 O   0  0  0  0  0  0  0  0  0  0  0  0
  144.4032  136.8686  155.8949 H   0  0  0  0  0  0  0  0  0  0  0  0
  146.0748  137.3947  156.0283 H   0  0  0  0  0  0  0  0  0  0  0  0
  145.6813  135.8958  155.1855 H   0  0  0  0  0  0  0  0  0  0  0  0
  144.7954  138.6780  154.3539 H   0  0  0  0  0  0  0  0  0  0  0  0
  143.2049  137.0218  153.6210 H   0  0  0  0  0  0  0  0  0  0  0  0
  144.0157  137.6714  152.2222 H   0  0  0  0  0  0  0  0  0  0  0  0
  142.6857  134.8089  153.1812 H   0  0  0  0  0  0  0  0  0  0  0  0
  142.8655  135.2613  151.4936 H   0  0  0  0  0  0  0  0  0  0  0  0
  144.2910  132.9288  152.9103 H   0  0  0  0  0  0  0  0  0  0  0  0
  143.0110  132.7916  151.7190 H   0  0  0  0  0  0  0  0  0  0  0  0
  146.4644  133.7374  152.1857 H   0  0  0  0  0  0  0  0  0  0  0  0
  146.6784  134.1531  150.4964 H   0  0  0  0  0  0  0  0  0  0  0  0
  145.1679  136.1100  150.7179 H   0  0  0  0  0  0  0  0  0  0  0  0
  146.4557  136.2068  151.9040 H   0  0  0  0  0  0  0  0  0  0  0  0
  147.5465  138.4150  151.6321 H   0  0  0  0  0  0  0  0  0  0  0  0
  146.3229  139.5962  152.1147 H   0  0  0  0  0  0  0  0  0  0  0  0
  145.8453  138.0565  151.3967 H   0  0  0  0  0  0  0  0  0  0  0  0
  149.5280  136.4736  156.2467 H   0  0  0  0  0  0  0  0  0  0  0  0
  148.9154  142.5222  154.1244 H   0  0  0  0  0  0  0  0  0  0  0  0
  151.6008  140.6785  156.0595 H   0  0  0  0  0  0  0  0  0  0  0  0
  151.2635  142.1997  155.2691 H   0  0  0  0  0  0  0  0  0  0  0  0
  149.7103  142.8714  157.0716 H   0  0  0  0  0  0  0  0  0  0  0  0
  150.2575  140.4729  158.3855 H   0  0  0  0  0  0  0  0  0  0  0  0
  152.1167  143.3331  157.5879 H   0  0  0  0  0  0  0  0  0  0  0  0
  152.0003  140.5730  158.8577 H   0  0  0  0  0  0  0  0  0  0  0  0
  153.2772  141.2439  157.8473 H   0  0  0  0  0  0  0  0  0  0  0  0
  153.1623  141.3490  160.6676 H   0  0  0  0  0  0  0  0  0  0  0  0
  154.1637  142.4247  159.6932 H   0  0  0  0  0  0  0  0  0  0  0  0
  151.9365  143.2823  161.2533 H   0  0  0  0  0  0  0  0  0  0  0  0
  152.7237  144.2110  159.9736 H   0  0  0  0  0  0  0  0  0  0  0  0
  144.9728  135.2544  153.5108 H   0  0  0  0  0  0  0  0  0  0  0  0
  1  2  1  0  0  0  0
  1 29  1  0  0  0  0
  1 30  1  0  0  0  0
  1 31  1  0  0  0  0
  2  3  1  0  0  0  0
  2 10  1  0  0  0  0
  2 32  1  0  0  0  0
  3  4  1  0  0  0  0
  3 33  1  0  0  0  0
  3 34  1  0  0  0  0
  4  9  1  0  0  0  0
  4  5  1  0  0  0  0
  4 59  1  0  0  0  0
  5  6  1  0  0  0  0
  5 35  1  0  0  0  0
  5 36  1  0  0  0  0
  6  7  1  0  0  0  0
  6 37  1  0  0  0  0
  6 38  1  0  0  0  0
  7  8  1  0  0  0  0
  8  9  1  0  0  0  0
  8 39  1  0  0  0  0
  8 40  1  0  0  0  0
  9 41  1  0  0  0  0
  9 42  1  0  0  0  0
 10 11  1  0  0  0  0
 10 12  1  0  0  0  0
 11 43  1  0  0  0  0
 11 44  1  0  0  0  0
 11 45  1  0  0  0  0
 12 17  1  0  0  0  0
 12 13  2  0  0  0  0
 13 14  1  0  0  0  0
 14 15  2  0  0  0  0
 14 46  1  0  0  0  0
 15 16  1  0  0  0  0
 16 20  1  0  0  0  0
 16 17  2  0  0  0  0
 17 18  1  0  0  0  0
 18 19  2  0  0  0  0
 19 20  1  0  0  0  0
 19 47  1  0  0  0  0
 20 21  1  0  0  0  0
 21 22  1  0  0  0  0
 21 48  1  0  0  0  0
 21 49  1  0  0  0  0
 22 23  1  0  0  0  0
 22 24  1  0  0  0  0
 22 50  1  0  0  0  0
 23 51  1  0  0  0  0
 24 28  1  0  0  0  0
 24 25  1  0  0  0  0
 24 52  1  0  0  0  0
 25 26  1  0  0  0  0
 25 53  1  0  0  0  0
 25 54  1  0  0  0  0
 26 27  1  0  0  0  0
 26 55  1  0  0  0  0
 26 56  1  0  0  0  0
 27 28  1  0  0  0  0
 27 57  1  0  0  0  0
 27 58  1  0  0  0  0
M  CHG  1   4   1
M  END
> <s_m_source_file>
AV-unprocessed.smi

> <i_m_source_file_index>
213

> <i_lp_mmshare_version>
43012

> <i_f3d_flags>
0

> <s_epik_input>
W0NIMl0xW0NIMl1PW0NIMl1bQ0gyXU4xW0NIMl1bQ0BASF0oW0NIM10pTihbQ0gzXSljKG5bY0hdbjIpYyhjMjMpbltjSF1uM1tDSDJdW0NASF0oW09IXSlbQ0BASF00W0NIMl1bQ0gyXVtDSDJdTzQ=

> <s_epik_cmdline>
J2VwaWtfcHl0aG9uJywgJy1waCcsICc3LjAnLCAnLXRuJywgJzgnLCAnLW1hJywgJzIwMCcsICctbWV0YWxfYmluZGluZycsICctaW1hZScsICc8aW5maWxlLm1hZT4nLCAnLW9tYWUnLCAnPG91dGZpbGUubWFlPic=

> <r_lp_tautomer_probability>
1

> <r_epik_Ionization_Penalty>
0.399679

> <r_epik_Ionization_Penalty_Charging>
0.399433

> <r_epik_Ionization_Penalty_Neutral>
0.000246213

> <r_epik_State_Penalty>
0.286032

> <r_epik_Charging_Adjusted_Penalty>
0.685465

> <i_epik_Tot_Q>
1

> <i_epik_Tot_abs_Q>
1

> <r_epik_Metal_State_Penalty>
0.286072

> <b_epik_Metal_Only>
0

> <s_lp_Force_Field>
OPLS_2005

> <r_lp_Energy>
46.8913

> <b_lp_Chiralities_Consistent>
1

> <s_lp_Variant>
AV-unprocessed.smi:213-3

> <Gold.Version>
5.8.1

> <Gold.Id.Protein>
6NUR|6NUR_protein|mol2

> <Gold.PLP.Fitness>
44.4339

> <Gold.PLP.PLP>
-44.3547

> <Gold.PLP.part.hbond>
-0.2144

> <Gold.PLP.part.metal>
0.0000

> <Gold.PLP.part.buried>
-7.2477

> <Gold.PLP.part.nonpolar>
-38.4696

> <Gold.PLP.part.repulsive>
0.5253

> <Gold.PLP.ligand.clash>
0.0000

> <Gold.PLP.ligand.torsion>
2.0686

> <Gold.PLP.Chemscore.Hbond>
0.0000

> <Gold.PLP.Chemscore.CHOScore>
1.0000

> <Gold.PLP.Chemscore.Metal>
0.0000

> <Gold.Chemscore.Hbonds>
donor molecule, donor type, donor heavy atom, donor atom, acceptor molecule, acceptor atom, score
      L1  C    19    47       P1  8028  0.69

> <Gold.PLP.Chemscore.Internal.Correction>
1.2165

> <Gold.Rescore>
     Score         DG    S(hbond)    S(metal)    S(lipo)     H(rot)  DE(clash)    DE(int)     intcor
      6.48      -9.96       0.00        0.00     100.09       2.83       0.02       3.46       ----

> <Gold.Chemscore.Fitness>
6.4831

> <Gold.Chemscore.DG>
-9.9572

> <Gold.Chemscore.ZeroCoef>
-5.4800

> <Gold.Chemscore.Hbond>
0.0000

> <Gold.Chemscore.Metal>
0.0000

> <Gold.Chemscore.Lipo>
100.0864

> <Gold.Chemscore.Internal_Hbond>
0.0000

> <Gold.Chemscore.DEClash>
0.0180

> <Gold.Chemscore.DEInternal>
3.4561

> <Gold.Chemscore.Rot>
2.8254

> <Gold.Chemscore.Internal.Correction>
   9.000000E+99

> <Gold.Chemscore.Hbond.Weighted>
-0.0000

> <Gold.Chemscore.Metal.Weighted>
-0.0000

> <Gold.Chemscore.Lipo.Weighted>
-11.7101

> <Gold.Chemscore.Internal_Hbond.Weighted>
0.0000

> <Gold.Chemscore.DEClash.Weighted>
0.0180

> <Gold.Chemscore.DEInternal.Weighted>
3.4561

> <Gold.Chemscore.Rot.Weighted>
7.2330

> <Gold.Chemscore.Internal.Correction.Weighted>
   9.000000E+99

> <Gold.Protein.RotatedTorsions>
[ 6907 6896 6895 6894 ] final    7.50 input  -60.11 | X-H torsion
[ 7974 7965 7964 7962 ] final  162.09 input  175.53 | X-H torsion
[ 8008 7997 7996 7995 ] final  -86.19 input   59.86 | X-H torsion
[ 10167 10162 10161 10158 ] final   -5.12 input  -65.29 | X-H torsion
[ 10718 10713 10712 10709 ] final -157.54 input   66.30 | X-H torsion
[ 10763 10752 10751 10750 ] final   49.84 input  -60.55 | X-H torsion
[ 11005 11000 10999 10996 ] final  135.55 input  -57.11 | X-H torsion

> <Gold.Protein.ActiveResidues>
 VAL166  LYS551  ARG553  GLY616  TRP617  ASP618  TYR619  PRO620  LYS621  CYS622 
 ASP623  PHE694  ASN695  SER759  ASP760  ASP761  ALA762  ILE779  LEU786  VAL792 
 PHE793  MET794  SER795  GLU796  ALA797  LYS798  CYS799  TRP800  GLU811  SER814 

> <Gold.Protein.RotatedAtoms>
  151.6908  135.0946  160.0233 H   0  0  0  0  0  0  0  0  0  0  0  0  # atno 6907 bound_to 6896
  152.3779  133.6502  159.6147 H   0  0  0  0  0  0  0  0  0  0  0  0  # atno 6908 bound_to 6896
  150.7724  133.9079  159.3402 H   0  0  0  0  0  0  0  0  0  0  0  0  # atno 6909 bound_to 6896
  144.7654  139.7990  143.6317 H   0  0  0  0  0  0  0  0  0  0  0  0  # atno 7974 bound_to 7965
  154.6491  140.0581  156.9935 H   0  0  0  0  0  0  0  0  0  0  0  0  # atno 8008 bound_to 7997
  155.1398  140.3264  155.4436 H   0  0  0  0  0  0  0  0  0  0  0  0  # atno 8009 bound_to 7997
  156.2568  140.1966  156.6514 H   0  0  0  0  0  0  0  0  0  0  0  0  # atno 8010 bound_to 7997
  140.6952  143.6345  150.8492 H   0  0  0  0  0  0  0  0  0  0  0  0  # atno 10167 bound_to 10162
  156.5417  130.8566  151.2751 H   0  0  0  0  0  0  0  0  0  0  0  0  # atno 10718 bound_to 10713
  152.9785  135.5898  154.4154 H   0  0  0  0  0  0  0  0  0  0  0  0  # atno 10763 bound_to 10752
  154.3785  135.2767  155.2227 H   0  0  0  0  0  0  0  0  0  0  0  0  # atno 10764 bound_to 10752
  154.4151  135.6072  153.6030 H   0  0  0  0  0  0  0  0  0  0  0  0  # atno 10765 bound_to 10752
  139.9987  134.9487  157.0022 H   0  0  0  0  0  0  0  0  0  0  0  0  # atno 11005 bound_to 11000
  146.1756  139.4925  142.9900 LP  0  0  0  0  0  0  0  0  0  0  0  0  # atno 17320 bound_to 7965
  145.6488  141.0268  143.1771 LP  0  0  0  0  0  0  0  0  0  0  0  0  # atno 17321 bound_to 7965
  140.0062  143.5691  152.2856 LP  0  0  0  0  0  0  0  0  0  0  0  0  # atno 17342 bound_to 10162
  139.6398  144.7653  151.2362 LP  0  0  0  0  0  0  0  0  0  0  0  0  # atno 17343 bound_to 10162
  157.7404  130.9850  150.2376 LP  0  0  0  0  0  0  0  0  0  0  0  0  # atno 17370 bound_to 10713
  156.2966  130.3752  149.7791 LP  0  0  0  0  0  0  0  0  0  0  0  0  # atno 17371 bound_to 10713
  140.4769  134.1329  155.7211 LP  0  0  0  0  0  0  0  0  0  0  0  0  # atno 17394 bound_to 11000
  141.1625  133.8766  157.1809 LP  0  0  0  0  0  0  0  0  0  0  0  0  # atno 17395 bound_to 11000

$$$$
