AV-unprocessed.smi:1502|AV-procd|sdf|6067|dock2
  -GOLD-   22720 6183D 1   1.00000     0.00000
 Structure written by MMmdl.
 40 41  0  0  0  0  0  0  0  0  1 V2000
  148.4318  140.4304  158.0027 O   0  0  0  0  0  0  0  0  0  0  0  0
  148.6082  141.0321  156.9440 C   0  0  0  0  0  0  0  0  0  0  0  0
  147.6581  140.7612  155.7636 C   0  0  0  0  0  0  0  0  0  0  0  0
  146.7277  141.8589  155.4495 N   0  0  0  0  0  0  0  0  0  0  0  0
  146.7388  142.2433  154.1200 N   0  0  0  0  0  0  0  0  0  0  0  0
  145.9753  143.2055  153.7313 C   0  0  0  0  0  0  0  0  0  0  0  0
  145.0956  143.9062  154.6405 C   0  0  0  0  0  0  0  0  0  0  0  0
  144.0944  145.1903  154.0611 Cl  0  0  0  0  0  0  0  0  0  0  0  0
  145.0896  143.5197  155.9410 C   0  0  0  0  0  0  0  0  0  0  0  0
  144.0651  144.3117  157.0886 Cl  0  0  0  0  0  0  0  0  0  0  0  0
  145.9475  142.4273  156.4204 C   0  0  0  0  0  0  0  0  0  0  0  0
  145.9778  142.0534  157.5932 O   0  0  0  0  0  0  0  0  0  0  0  0
  149.6007  141.9217  156.7673 N   0  0  0  0  0  0  0  0  0  0  0  0
  150.5859  142.3241  157.7681 C   0  0  0  0  0  0  0  0  0  0  0  0
  151.4398  143.4868  157.2108 C   0  0  0  0  0  0  0  0  0  0  0  0
  151.4417  144.7610  158.0770 C   0  0  0  0  0  0  0  0  0  0  0  0
  151.6073  144.5881  159.6015 C   0  0  0  0  0  0  0  0  0  0  0  0
  152.8020  143.7386  160.0691 C   0  0  0  0  0  0  0  0  0  0  0  0
  152.5053  142.2371  160.2769 C   0  0  0  0  0  0  0  0  0  0  0  0
  152.6868  141.3544  159.0296 C   0  0  0  0  0  0  0  0  0  0  0  0
  151.4224  141.0932  158.1852 C   0  0  0  0  0  0  0  0  0  0  0  0
  148.2712  140.5358  154.8891 H   0  0  0  0  0  0  0  0  0  0  0  0
  147.1033  139.8435  155.9668 H   0  0  0  0  0  0  0  0  0  0  0  0
  145.9516  143.5434  152.6952 H   0  0  0  0  0  0  0  0  0  0  0  0
  149.6714  142.3658  155.8634 H   0  0  0  0  0  0  0  0  0  0  0  0
  150.0292  142.6709  158.6375 H   0  0  0  0  0  0  0  0  0  0  0  0
  152.4665  143.1651  157.0438 H   0  0  0  0  0  0  0  0  0  0  0  0
  151.0913  143.7691  156.2159 H   0  0  0  0  0  0  0  0  0  0  0  0
  152.2269  145.4221  157.7087 H   0  0  0  0  0  0  0  0  0  0  0  0
  150.5073  145.2960  157.9035 H   0  0  0  0  0  0  0  0  0  0  0  0
  151.7296  145.5896  160.0159 H   0  0  0  0  0  0  0  0  0  0  0  0
  150.6874  144.2199  160.0550 H   0  0  0  0  0  0  0  0  0  0  0  0
  153.6656  143.8878  159.4204 H   0  0  0  0  0  0  0  0  0  0  0  0
  153.1049  144.1334  161.0399 H   0  0  0  0  0  0  0  0  0  0  0  0
  153.2179  141.8787  161.0209 H   0  0  0  0  0  0  0  0  0  0  0  0
  151.5240  142.0832  160.7272 H   0  0  0  0  0  0  0  0  0  0  0  0
  153.4936  141.7459  158.4105 H   0  0  0  0  0  0  0  0  0  0  0  0
  153.0481  140.3797  159.3598 H   0  0  0  0  0  0  0  0  0  0  0  0
  150.7762  140.4073  158.7345 H   0  0  0  0  0  0  0  0  0  0  0  0
  151.7305  140.5501  157.2907 H   0  0  0  0  0  0  0  0  0  0  0  0
  1  2  2  0  0  0  0
  2  3  1  0  0  0  0
  2 13  1  0  0  0  0
  3  4  1  0  0  0  0
  3 22  1  0  0  0  0
  3 23  1  0  0  0  0
  4 11  1  0  0  0  0
  4  5  1  0  0  0  0
  5  6  2  0  0  0  0
  6  7  1  0  0  0  0
  6 24  1  0  0  0  0
  7  8  1  0  0  0  0
  7  9  2  0  0  0  0
  9 10  1  0  0  0  0
  9 11  1  0  0  0  0
 11 12  2  0  0  0  0
 13 14  1  0  0  0  0
 13 25  1  0  0  0  0
 14 21  1  0  0  0  0
 14 15  1  0  0  0  0
 14 26  1  0  0  0  0
 15 16  1  0  0  0  0
 15 27  1  0  0  0  0
 15 28  1  0  0  0  0
 16 17  1  0  0  0  0
 16 29  1  0  0  0  0
 16 30  1  0  0  0  0
 17 18  1  0  0  0  0
 17 31  1  0  0  0  0
 17 32  1  0  0  0  0
 18 19  1  0  0  0  0
 18 33  1  0  0  0  0
 18 34  1  0  0  0  0
 19 20  1  0  0  0  0
 19 35  1  0  0  0  0
 19 36  1  0  0  0  0
 20 21  1  0  0  0  0
 20 37  1  0  0  0  0
 20 38  1  0  0  0  0
 21 39  1  0  0  0  0
 21 40  1  0  0  0  0
M  END
> <s_m_source_file>
AV-unprocessed.smi

> <i_m_source_file_index>
1502

> <i_lp_mmshare_version>
43012

> <i_f3d_flags>
0

> <s_epik_input>
Tz1jMWMoQ2wpYyhDbClbY0hdbm4xW0NIMl1DKD1PKVtOSF1bQ0hdMltDSDJdW0NIMl1bQ0gyXVtDSDJdW0NIMl1bQ0gyXVtDSDJdMg==

> <s_epik_cmdline>
J2VwaWtfcHl0aG9uJywgJy1waCcsICc3LjAnLCAnLXRuJywgJzgnLCAnLW1hJywgJzIwMCcsICctbWV0YWxfYmluZGluZycsICctaW1hZScsICc8aW5maWxlLm1hZT4nLCAnLW9tYWUnLCAnPG91dGZpbGUubWFlPic=

> <r_lp_tautomer_probability>
1

> <r_epik_Ionization_Penalty>
2.0245e-08

> <r_epik_Ionization_Penalty_Charging>
3.01779e-11

> <r_epik_Ionization_Penalty_Neutral>
2.02148e-08

> <r_epik_State_Penalty>
-0

> <r_epik_Charging_Adjusted_Penalty>
3.01779e-11

> <i_epik_Tot_Q>
0

> <i_epik_Tot_abs_Q>
0

> <r_epik_Metal_State_Penalty>
-0

> <b_epik_Metal_Only>
0

> <s_lp_Force_Field>
OPLS_2005

> <r_lp_Energy>
35.729

> <b_lp_Chiralities_Consistent>
1

> <s_lp_Variant>
AV-unprocessed.smi:1502-1

> <Gold.Version>
5.8.1

> <Gold.Id.Protein>
6NUR|6NUR_protein|mol2

> <Gold.PLP.Fitness>
40.7523

> <Gold.PLP.PLP>
-41.1561

> <Gold.PLP.part.hbond>
-1.3429

> <Gold.PLP.part.metal>
0.0000

> <Gold.PLP.part.buried>
-7.4202

> <Gold.PLP.part.nonpolar>
-32.5186

> <Gold.PLP.part.repulsive>
0.2600

> <Gold.PLP.ligand.clash>
0.0000

> <Gold.PLP.ligand.torsion>
0.2122

> <Gold.PLP.Chemscore.Hbond>
0.0000

> <Gold.PLP.Chemscore.CHOScore>
0.0000

> <Gold.PLP.Chemscore.Metal>
0.0000

> <Gold.PLP.Chemscore.Internal.Correction>
0.0206

> <Gold.Rescore>
     Score         DG    S(hbond)    S(metal)    S(lipo)     H(rot)  DE(clash)    DE(int)     intcor
     12.02     -14.92       0.01        0.00     113.01       1.49       0.17       2.73       ----

> <Gold.Chemscore.Fitness>
12.0226

> <Gold.Chemscore.DG>
-14.9207

> <Gold.Chemscore.ZeroCoef>
-5.4800

> <Gold.Chemscore.Hbond>
0.0073

> <Gold.Chemscore.Metal>
0.0000

> <Gold.Chemscore.Lipo>
113.0085

> <Gold.Chemscore.Internal_Hbond>
0.0000

> <Gold.Chemscore.DEClash>
0.1723

> <Gold.Chemscore.DEInternal>
2.7258

> <Gold.Chemscore.Rot>
1.4866

> <Gold.Chemscore.Internal.Correction>
   9.000000E+99

> <Gold.Chemscore.Hbonds>
donor molecule, donor type, donor heavy atom, donor atom, acceptor molecule, acceptor atom, score
      L1  H    13    25       P1  8028  0.01

> <Gold.Chemscore.Hbond.Weighted>
-0.0244

> <Gold.Chemscore.Metal.Weighted>
-0.0000

> <Gold.Chemscore.Lipo.Weighted>
-13.2220

> <Gold.Chemscore.Internal_Hbond.Weighted>
0.0000

> <Gold.Chemscore.DEClash.Weighted>
0.1723

> <Gold.Chemscore.DEInternal.Weighted>
2.7258

> <Gold.Chemscore.Rot.Weighted>
3.8057

> <Gold.Chemscore.Internal.Correction.Weighted>
   9.000000E+99

> <Gold.Protein.RotatedTorsions>
[ 6907 6896 6895 6894 ] final  177.09 input  -60.11 | X-H torsion
[ 7974 7965 7964 7962 ] final  159.80 input  175.53 | X-H torsion
[ 8008 7997 7996 7995 ] final  144.13 input   59.86 | X-H torsion
[ 10167 10162 10161 10158 ] final  -59.84 input  -65.29 | X-H torsion
[ 10718 10713 10712 10709 ] final  -47.53 input   66.30 | X-H torsion
[ 10763 10752 10751 10750 ] final   18.47 input  -60.55 | X-H torsion
[ 11005 11000 10999 10996 ] final -117.64 input  -57.11 | X-H torsion

> <Gold.Protein.ActiveResidues>
 VAL166  LYS551  ARG553  GLY616  TRP617  ASP618  TYR619  PRO620  LYS621  CYS622 
 ASP623  PHE694  ASN695  SER759  ASP760  ASP761  ALA762  ILE779  LEU786  VAL792 
 PHE793  MET794  SER795  GLU796  ALA797  LYS798  CYS799  TRP800  GLU811  SER814 

> <Gold.Protein.RotatedAtoms>
  151.7096  133.3312  159.3286 H   0  0  0  0  0  0  0  0  0  0  0  0  # atno 6907 bound_to 6896
  150.7700  134.6544  159.6315 H   0  0  0  0  0  0  0  0  0  0  0  0  # atno 6908 bound_to 6896
  152.3720  134.6723  160.0225 H   0  0  0  0  0  0  0  0  0  0  0  0  # atno 6909 bound_to 6896
  144.7771  139.7668  143.6274 H   0  0  0  0  0  0  0  0  0  0  0  0  # atno 7974 bound_to 7965
  156.2915  140.2244  156.5004 H   0  0  0  0  0  0  0  0  0  0  0  0  # atno 8008 bound_to 7997
  154.7694  140.0467  157.1061 H   0  0  0  0  0  0  0  0  0  0  0  0  # atno 8009 bound_to 7997
  154.9892  140.3088  155.4917 H   0  0  0  0  0  0  0  0  0  0  0  0  # atno 8010 bound_to 7997
  140.6109  143.2387  151.5711 H   0  0  0  0  0  0  0  0  0  0  0  0  # atno 10167 bound_to 10162
  156.2075  130.4159  149.9158 H   0  0  0  0  0  0  0  0  0  0  0  0  # atno 10718 bound_to 10713
  153.1246  135.6727  153.9278 H   0  0  0  0  0  0  0  0  0  0  0  0  # atno 10763 bound_to 10752
  153.8783  135.3061  155.3446 H   0  0  0  0  0  0  0  0  0  0  0  0  # atno 10764 bound_to 10752
  154.7653  135.4967  153.9622 H   0  0  0  0  0  0  0  0  0  0  0  0  # atno 10765 bound_to 10752
  141.0340  133.9937  157.3099 H   0  0  0  0  0  0  0  0  0  0  0  0  # atno 11005 bound_to 11000
  146.1956  139.5221  142.9776 LP  0  0  0  0  0  0  0  0  0  0  0  0  # atno 17320 bound_to 7965
  145.6156  141.0332  143.1943 LP  0  0  0  0  0  0  0  0  0  0  0  0  # atno 17321 bound_to 7965
  139.5360  144.2778  152.1253 LP  0  0  0  0  0  0  0  0  0  0  0  0  # atno 17342 bound_to 10162
  140.1978  144.4688  150.6447 LP  0  0  0  0  0  0  0  0  0  0  0  0  # atno 17343 bound_to 10162
  156.6847  130.8872  151.3580 LP  0  0  0  0  0  0  0  0  0  0  0  0  # atno 17370 bound_to 10713
  157.7020  130.9344  150.0815 LP  0  0  0  0  0  0  0  0  0  0  0  0  # atno 17371 bound_to 10713
  139.9228  135.0201  156.8126 LP  0  0  0  0  0  0  0  0  0  0  0  0  # atno 17394 bound_to 11000
  140.6355  133.9866  155.7682 LP  0  0  0  0  0  0  0  0  0  0  0  0  # atno 17395 bound_to 11000

$$$$
