AV-unprocessed.smi:2886|AV-procd|sdf|11094|dock4
  -GOLD-   2272015563D 1   1.00000     0.00000
 Structure written by MMmdl.
 28 30  0  0  0  0  0  0  0  0  3 V2000
  147.8870  139.4910  153.4757 O   0  0  0  0  0  0  0  0  0  0  0  0
  148.8758  139.6483  154.1892 C   0  0  0  0  0  0  0  0  0  0  0  0
  149.8160  138.6774  154.3903 N   0  5  0  0  0  0  0  0  0  0  0  0
  150.8641  138.8733  155.1591 N   0  3  0  0  0  0  0  0  0  0  0  0
  151.1035  140.0125  155.8009 C   0  0  0  0  0  0  0  0  0  0  0  0
  150.1981  141.1036  155.6816 C   0  0  0  0  0  0  0  0  0  0  0  0
  150.4079  142.3137  156.3310 N   0  0  0  0  0  0  0  0  0  0  0  0
  151.5086  142.6992  157.2034 C   0  0  1  0  0  0  0  0  0  0  0  0
  151.6091  144.2151  157.3912 C   0  0  0  0  0  0  0  0  0  0  0  0
  151.5417  144.3454  158.9183 C   0  0  2  0  0  0  0  0  0  0  0  0
  152.7962  143.7888  159.6068 C   0  0  0  0  0  0  0  0  0  0  0  0
  152.5963  142.2812  159.4510 C   0  0  0  0  0  0  0  0  0  0  0  0
  151.2908  142.2176  158.6472 C   0  0  1  0  0  0  0  0  0  0  0  0
  150.6052  143.3239  159.2118 O   0  0  0  0  0  0  0  0  0  0  0  0
  149.1046  140.9283  154.8848 C   0  0  0  0  0  0  0  0  0  0  0  0
  147.9481  142.2010  154.6720 Cl  0  0  0  0  0  0  0  0  0  0  0  0
  151.5647  138.1270  155.2915 H   0  0  0  0  0  0  0  0  0  0  0  0
  152.0049  140.0601  156.3985 H   0  0  0  0  0  0  0  0  0  0  0  0
  149.6369  142.9671  156.3218 H   0  0  0  0  0  0  0  0  0  0  0  0
  152.4436  142.2852  156.8261 H   0  0  0  0  0  0  0  0  0  0  0  0
  152.5282  144.6305  156.9768 H   0  0  0  0  0  0  0  0  0  0  0  0
  150.7660  144.7324  156.9308 H   0  0  0  0  0  0  0  0  0  0  0  0
  151.2485  145.3368  159.2644 H   0  0  0  0  0  0  0  0  0  0  0  0
  153.7156  144.1448  159.1407 H   0  0  0  0  0  0  0  0  0  0  0  0
  152.8177  144.0647  160.6619 H   0  0  0  0  0  0  0  0  0  0  0  0
  153.4269  141.7921  158.9413 H   0  0  0  0  0  0  0  0  0  0  0  0
  152.4703  141.8104  160.4267 H   0  0  0  0  0  0  0  0  0  0  0  0
  150.7691  141.2637  158.7339 H   0  0  0  0  0  0  0  0  0  0  0  0
  1  2  2  0  0  0  0
  2  3  1  0  0  0  0
  2 15  1  0  0  0  0
  3  4  1  0  0  0  0
  4  5  2  0  0  0  0
  4 17  1  0  0  0  0
  5  6  1  0  0  0  0
  5 18  1  0  0  0  0
  6 15  2  0  0  0  0
  6  7  1  0  0  0  0
  7  8  1  0  0  0  0
  7 19  1  0  0  0  0
  8 13  1  0  0  0  0
  8  9  1  0  0  0  0
  8 20  1  0  0  0  0
  9 10  1  0  0  0  0
  9 21  1  0  0  0  0
  9 22  1  0  0  0  0
 10 14  1  0  0  0  0
 10 11  1  0  0  0  0
 10 23  1  0  0  0  0
 11 12  1  0  0  0  0
 11 24  1  0  0  0  0
 11 25  1  0  0  0  0
 12 13  1  0  0  0  0
 12 26  1  0  0  0  0
 12 27  1  0  0  0  0
 13 14  1  0  0  0  0
 13 28  1  0  0  0  0
 15 16  1  0  0  0  0
M  CHG  1   3  -1
M  CHG  1   4   1
M  END
> <s_m_source_file>
AV-unprocessed.smi

> <i_m_source_file_index>
2886

> <i_lp_mmshare_version>
43012

> <i_f3d_flags>
0

> <s_epik_input>
Tz1jMVtuSF1uW2NIXWMoYzFDbClbTkhdW0NASF0oW0NIMl1bQ0BASF0yMylbQ0BASF0oTzMpW0NIMl1bQ0gyXTI=

> <s_epik_cmdline>
J2VwaWtfcHl0aG9uJywgJy1waCcsICc3LjAnLCAnLXRuJywgJzgnLCAnLW1hJywgJzIwMCcsICctbWV0YWxfYmluZGluZycsICctaW1hZScsICc8aW5maWxlLm1hZT4nLCAnLW9tYWUnLCAnPG91dGZpbGUubWFlPic=

> <r_lp_tautomer_probability>
0.0138196

> <r_epik_Ionization_Penalty>
2.43027

> <r_epik_Ionization_Penalty_Charging>
2.43027

> <r_epik_Ionization_Penalty_Neutral>
1.33267e-06

> <r_epik_State_Penalty>
2.7044

> <r_epik_Charging_Adjusted_Penalty>
5.13467

> <i_epik_Tot_Q>
0

> <i_epik_Tot_abs_Q>
2

> <r_epik_Metal_State_Penalty>
2.98589

> <b_epik_Metal_Only>
0

> <s_lp_Force_Field>
OPLS_2005

> <r_lp_Energy>
57.4962

> <b_lp_Chiralities_Consistent>
1

> <s_lp_Variant>
AV-unprocessed.smi:2886-8

> <Gold.Version>
5.8.1

> <Gold.Id.Protein>
6NUR|6NUR_protein|mol2

> <Gold.PLP.Fitness>
33.7286

> <Gold.PLP.PLP>
-31.5266

> <Gold.PLP.part.hbond>
-1.0000

> <Gold.PLP.part.metal>
0.0000

> <Gold.PLP.part.buried>
-2.1222

> <Gold.PLP.part.nonpolar>
-29.7151

> <Gold.PLP.part.repulsive>
1.7983

> <Gold.PLP.ligand.clash>
0.0000

> <Gold.PLP.ligand.torsion>
0.2764

> <Gold.PLP.Chemscore.Hbond>
0.9120

> <Gold.PLP.Chemscore.CHOScore>
0.0000

> <Gold.PLP.Chemscore.Metal>
0.0000

> <Gold.Chemscore.Hbonds>
donor molecule, donor type, donor heavy atom, donor atom, acceptor molecule, acceptor atom, score
      L1  H     7    19       P1  8028  0.96

> <Gold.PLP.Chemscore.Internal.Correction>
0.0188

> <Gold.Rescore>
     Score         DG    S(hbond)    S(metal)    S(lipo)     H(rot)  DE(clash)    DE(int)     intcor
     16.27     -17.20       0.99        0.00      93.70       1.00       0.70       0.23       ----

> <Gold.Chemscore.Fitness>
16.2726

> <Gold.Chemscore.DG>
-17.2016

> <Gold.Chemscore.ZeroCoef>
-5.4800

> <Gold.Chemscore.Hbond>
0.9937

> <Gold.Chemscore.Metal>
0.0000

> <Gold.Chemscore.Lipo>
93.6973

> <Gold.Chemscore.Internal_Hbond>
0.0000

> <Gold.Chemscore.DEClash>
0.6975

> <Gold.Chemscore.DEInternal>
0.2316

> <Gold.Chemscore.Rot>
1.0000

> <Gold.Chemscore.Internal.Correction>
   9.000000E+99

> <Gold.Chemscore.Hbonds>
donor molecule, donor type, donor heavy atom, donor atom, acceptor molecule, acceptor atom, score
      L1  H     7    19       P1  8028  0.87

> <Gold.Chemscore.Hbond.Weighted>
-3.3190

> <Gold.Chemscore.Metal.Weighted>
-0.0000

> <Gold.Chemscore.Lipo.Weighted>
-10.9626

> <Gold.Chemscore.Internal_Hbond.Weighted>
0.0000

> <Gold.Chemscore.DEClash.Weighted>
0.6975

> <Gold.Chemscore.DEInternal.Weighted>
0.2316

> <Gold.Chemscore.Rot.Weighted>
2.5600

> <Gold.Chemscore.Internal.Correction.Weighted>
   9.000000E+99

> <Gold.Protein.RotatedTorsions>
[ 6907 6896 6895 6894 ] final    5.61 input  -60.11 | X-H torsion
[ 7974 7965 7964 7962 ] final  129.52 input  175.53 | X-H torsion
[ 8008 7997 7996 7995 ] final   86.96 input   59.86 | X-H torsion
[ 10167 10162 10161 10158 ] final  -15.86 input  -65.29 | X-H torsion
[ 10718 10713 10712 10709 ] final  169.53 input   66.30 | X-H torsion
[ 10763 10752 10751 10750 ] final -127.73 input  -60.55 | X-H torsion
[ 11005 11000 10999 10996 ] final  138.72 input  -57.11 | X-H torsion

> <Gold.Protein.ActiveResidues>
 VAL166  LYS551  ARG553  GLY616  TRP617  ASP618  TYR619  PRO620  LYS621  CYS622 
 ASP623  PHE694  ASN695  SER759  ASP760  ASP761  ALA762  ILE779  LEU786  VAL792 
 PHE793  MET794  SER795  GLU796  ALA797  LYS798  CYS799  TRP800  GLU811  SER814 

> <Gold.Protein.RotatedAtoms>
  151.6603  135.0990  160.0177 H   0  0  0  0  0  0  0  0  0  0  0  0  # atno 6907 bound_to 6896
  152.3950  133.6730  159.6277 H   0  0  0  0  0  0  0  0  0  0  0  0  # atno 6908 bound_to 6896
  150.7859  133.8806  159.3326 H   0  0  0  0  0  0  0  0  0  0  0  0  # atno 6909 bound_to 6896
  145.0278  139.4073  143.5165 H   0  0  0  0  0  0  0  0  0  0  0  0  # atno 7974 bound_to 7965
  155.9693  140.3387  155.6561 H   0  0  0  0  0  0  0  0  0  0  0  0  # atno 8008 bound_to 7997
  155.6695  140.0725  157.2543 H   0  0  0  0  0  0  0  0  0  0  0  0  # atno 8009 bound_to 7997
  154.4162  140.1694  156.1851 H   0  0  0  0  0  0  0  0  0  0  0  0  # atno 8010 bound_to 7997
  140.7225  143.5175  150.9674 H   0  0  0  0  0  0  0  0  0  0  0  0  # atno 10167 bound_to 10162
  157.0213  131.0233  151.2773 H   0  0  0  0  0  0  0  0  0  0  0  0  # atno 10718 bound_to 10713
  154.8754  135.3952  154.3641 H   0  0  0  0  0  0  0  0  0  0  0  0  # atno 10763 bound_to 10752
  153.4410  135.7027  153.6174 H   0  0  0  0  0  0  0  0  0  0  0  0  # atno 10764 bound_to 10752
  153.4755  135.3781  155.2383 H   0  0  0  0  0  0  0  0  0  0  0  0  # atno 10765 bound_to 10752
  140.0204  134.9399  157.0462 H   0  0  0  0  0  0  0  0  0  0  0  0  # atno 11005 bound_to 11000
  146.3494  139.9811  142.8695 LP  0  0  0  0  0  0  0  0  0  0  0  0  # atno 17320 bound_to 7965
  145.1810  140.9767  143.4266 LP  0  0  0  0  0  0  0  0  0  0  0  0  # atno 17321 bound_to 7965
  139.8891  143.6975  152.3147 LP  0  0  0  0  0  0  0  0  0  0  0  0  # atno 17342 bound_to 10162
  139.7285  144.7587  151.0840 LP  0  0  0  0  0  0  0  0  0  0  0  0  # atno 17343 bound_to 10162
  157.5247  130.8020  149.7849 LP  0  0  0  0  0  0  0  0  0  0  0  0  # atno 17370 bound_to 10713
  156.0101  130.3837  150.2294 LP  0  0  0  0  0  0  0  0  0  0  0  0  # atno 17371 bound_to 10713
  140.4398  134.1693  155.7173 LP  0  0  0  0  0  0  0  0  0  0  0  0  # atno 17394 bound_to 11000
  141.1770  133.8494  157.1388 LP  0  0  0  0  0  0  0  0  0  0  0  0  # atno 17395 bound_to 11000

$$$$
