AV-unprocessed.smi:2804|AV-procd|sdf|10809|dock7
  -GOLD-   2272015243D 1   1.00000     0.00000
 Structure written by MMmdl.
 35 36  0  0  0  0  0  0  0  0  1 V2000
  154.5460  138.1563  161.2348 C   0  0  0  0  0  0  0  0  0  0  0  0
  153.5611  138.9719  160.3914 C   0  0  0  0  0  0  0  0  0  0  0  0
  154.0456  140.4097  160.1487 C   0  0  0  0  0  0  0  0  0  0  0  0
  153.0466  141.1861  159.4193 N   0  0  0  0  0  0  0  0  0  0  0  0
  152.5041  140.8775  158.2182 C   0  0  0  0  0  0  0  0  0  0  0  0
  152.7532  139.8763  157.5468 O   0  0  0  0  0  0  0  0  0  0  0  0
  151.6523  141.8719  157.8733 N   0  0  0  0  0  0  0  0  0  0  0  0
  150.8682  141.9542  156.6418 C   0  0  0  0  0  0  0  0  0  0  0  0
  150.5217  140.5548  156.0908 C   0  0  2  0  0  0  0  0  0  0  0  0
  151.5332  140.1697  155.1799 O   0  0  0  0  0  0  0  0  0  0  0  0
  149.1733  140.5268  155.3448 C   0  0  0  0  0  0  0  0  0  0  0  0
  149.0011  139.3457  154.7508 F   0  0  0  0  0  0  0  0  0  0  0  0
  148.1775  140.6973  156.2144 F   0  0  0  0  0  0  0  0  0  0  0  0
  149.1143  141.4981  154.4329 F   0  0  0  0  0  0  0  0  0  0  0  0
  151.6633  142.8539  158.8748 C   0  0  0  0  0  0  0  0  0  0  0  0
  150.9785  144.0774  158.9819 C   0  0  0  0  0  0  0  0  0  0  0  0
  151.2250  144.8578  160.1358 C   0  0  0  0  0  0  0  0  0  0  0  0
  152.1300  144.4137  161.1346 C   0  0  0  0  0  0  0  0  0  0  0  0
  152.8071  143.1790  161.0014 C   0  0  0  0  0  0  0  0  0  0  0  0
  152.5422  142.4224  159.8465 C   0  0  0  0  0  0  0  0  0  0  0  0
  154.1790  137.1411  161.3868 H   0  0  0  0  0  0  0  0  0  0  0  0
  154.6914  138.6084  162.2163 H   0  0  0  0  0  0  0  0  0  0  0  0
  155.5191  138.0892  160.7476 H   0  0  0  0  0  0  0  0  0  0  0  0
  153.4076  138.4694  159.4357 H   0  0  0  0  0  0  0  0  0  0  0  0
  152.5913  138.9893  160.8901 H   0  0  0  0  0  0  0  0  0  0  0  0
  154.2681  140.8952  161.1003 H   0  0  0  0  0  0  0  0  0  0  0  0
  154.9804  140.4040  159.5872 H   0  0  0  0  0  0  0  0  0  0  0  0
  149.9498  142.4957  156.8727 H   0  0  0  0  0  0  0  0  0  0  0  0
  151.3799  142.5568  155.8908 H   0  0  0  0  0  0  0  0  0  0  0  0
  150.4870  139.8251  156.9010 H   0  0  0  0  0  0  0  0  0  0  0  0
  152.0710  139.5107  155.5917 H   0  0  0  0  0  0  0  0  0  0  0  0
  150.2950  144.4150  158.2172 H   0  0  0  0  0  0  0  0  0  0  0  0
  150.7203  145.8049  160.2565 H   0  0  0  0  0  0  0  0  0  0  0  0
  152.3057  145.0268  162.0063 H   0  0  0  0  0  0  0  0  0  0  0  0
  153.5001  142.8376  161.7561 H   0  0  0  0  0  0  0  0  0  0  0  0
  1  2  1  0  0  0  0
  1 21  1  0  0  0  0
  1 22  1  0  0  0  0
  1 23  1  0  0  0  0
  2  3  1  0  0  0  0
  2 24  1  0  0  0  0
  2 25  1  0  0  0  0
  3  4  1  0  0  0  0
  3 26  1  0  0  0  0
  3 27  1  0  0  0  0
  4 20  1  0  0  0  0
  4  5  1  0  0  0  0
  5  6  2  0  0  0  0
  5  7  1  0  0  0  0
  7  8  1  0  0  0  0
  7 15  1  0  0  0  0
  8  9  1  0  0  0  0
  8 28  1  0  0  0  0
  8 29  1  0  0  0  0
  9 10  1  0  0  0  0
  9 11  1  0  0  0  0
  9 30  1  0  0  0  0
 10 31  1  0  0  0  0
 11 12  1  0  0  0  0
 11 13  1  0  0  0  0
 11 14  1  0  0  0  0
 15 20  2  0  0  0  0
 15 16  1  0  0  0  0
 16 17  2  0  0  0  0
 16 32  1  0  0  0  0
 17 18  1  0  0  0  0
 17 33  1  0  0  0  0
 18 19  2  0  0  0  0
 18 34  1  0  0  0  0
 19 20  1  0  0  0  0
 19 35  1  0  0  0  0
M  END
> <s_m_source_file>
AV-unprocessed.smi

> <i_m_source_file_index>
2804

> <i_lp_mmshare_version>
43012

> <i_f3d_flags>
0

> <s_epik_input>
W2NIXTFbY0hdW2NIXVtjSF1jKGMxMiluKFtDSDJdW0NIMl1bQ0gzXSljKD1PKW4yW0NIMl1bQ0BIXShbT0hdKUMoRikoRilG

> <s_epik_cmdline>
J2VwaWtfcHl0aG9uJywgJy1waCcsICc3LjAnLCAnLXRuJywgJzgnLCAnLW1hJywgJzIwMCcsICctbWV0YWxfYmluZGluZycsICctaW1hZScsICc8aW5maWxlLm1hZT4nLCAnLW9tYWUnLCAnPG91dGZpbGUubWFlPic=

> <r_epik_Ionization_Penalty>
0.0117937

> <r_epik_Ionization_Penalty_Charging>
3.30828e-09

> <r_epik_Ionization_Penalty_Neutral>
0.0117937

> <r_epik_State_Penalty>
0.00909547

> <r_epik_Charging_Adjusted_Penalty>
0.00909547

> <i_epik_Tot_Q>
0

> <i_epik_Tot_abs_Q>
0

> <r_epik_Metal_State_Penalty>
0.00909547

> <b_epik_Metal_Only>
0

> <s_lp_Force_Field>
OPLS_2005

> <r_lp_Energy>
41.5992

> <b_lp_Chiralities_Consistent>
1

> <s_lp_Variant>
AV-unprocessed.smi:2804-1

> <Gold.Version>
5.8.1

> <Gold.Id.Protein>
6NUR|6NUR_protein|mol2

> <Gold.PLP.Fitness>
48.5906

> <Gold.PLP.PLP>
-44.4879

> <Gold.PLP.part.hbond>
-2.0000

> <Gold.PLP.part.metal>
0.0000

> <Gold.PLP.part.buried>
-4.8026

> <Gold.PLP.part.nonpolar>
-36.7902

> <Gold.PLP.part.repulsive>
0.0000

> <Gold.PLP.ligand.clash>
0.0159

> <Gold.PLP.ligand.torsion>
0.9196

> <Gold.PLP.Chemscore.Hbond>
1.9760

> <Gold.PLP.Chemscore.CHOScore>
0.0000

> <Gold.PLP.Chemscore.Metal>
0.0000

> <Gold.Chemscore.Hbonds>
donor molecule, donor type, donor heavy atom, donor atom, acceptor molecule, acceptor atom, score
      P1  H  7989  7998       L1    10  0.99
      P1  H  7997  8010       L1     6  1.00

> <Gold.PLP.Chemscore.Internal.Correction>
0.0298

> <Gold.Rescore>
     Score         DG    S(hbond)    S(metal)    S(lipo)     H(rot)  DE(clash)    DE(int)     intcor
     15.89     -18.26       1.81        0.00     108.13       2.32       0.11       2.26       ----

> <Gold.Chemscore.Fitness>
15.8899

> <Gold.Chemscore.DG>
-18.2582

> <Gold.Chemscore.ZeroCoef>
-5.4800

> <Gold.Chemscore.Hbond>
1.8126

> <Gold.Chemscore.Metal>
0.0000

> <Gold.Chemscore.Lipo>
108.1265

> <Gold.Chemscore.Internal_Hbond>
0.0000

> <Gold.Chemscore.DEClash>
0.1076

> <Gold.Chemscore.DEInternal>
2.2606

> <Gold.Chemscore.Rot>
2.3152

> <Gold.Chemscore.Internal.Correction>
   9.000000E+99

> <Gold.Chemscore.Hbonds>
donor molecule, donor type, donor heavy atom, donor atom, acceptor molecule, acceptor atom, score
      P1  H  7989  7998       L1    10  0.93
      P1  H  7997  8010       L1     6  0.75

> <Gold.Chemscore.Hbond.Weighted>
-6.0542

> <Gold.Chemscore.Metal.Weighted>
-0.0000

> <Gold.Chemscore.Lipo.Weighted>
-12.6508

> <Gold.Chemscore.Internal_Hbond.Weighted>
0.0000

> <Gold.Chemscore.DEClash.Weighted>
0.1076

> <Gold.Chemscore.DEInternal.Weighted>
2.2606

> <Gold.Chemscore.Rot.Weighted>
5.9268

> <Gold.Chemscore.Internal.Correction.Weighted>
   9.000000E+99

> <Gold.Protein.RotatedTorsions>
[ 6907 6896 6895 6894 ] final   96.41 input  -60.11 | X-H torsion
[ 7974 7965 7964 7962 ] final  -33.78 input  175.53 | X-H torsion
[ 8008 7997 7996 7995 ] final   65.53 input   59.86 | X-H torsion
[ 10167 10162 10161 10158 ] final -138.94 input  -65.29 | X-H torsion
[ 10718 10713 10712 10709 ] final  -15.55 input   66.30 | X-H torsion
[ 10763 10752 10751 10750 ] final  138.55 input  -60.55 | X-H torsion
[ 11005 11000 10999 10996 ] final   33.09 input  -57.11 | X-H torsion

> <Gold.Protein.ActiveResidues>
 VAL166  LYS551  ARG553  GLY616  TRP617  ASP618  TYR619  PRO620  LYS621  CYS622 
 ASP623  PHE694  ASN695  SER759  ASP760  ASP761  ALA762  ILE779  LEU786  VAL792 
 PHE793  MET794  SER795  GLU796  ALA797  LYS798  CYS799  TRP800  GLU811  SER814 

> <Gold.Protein.RotatedAtoms>
  152.5435  134.0890  159.8268 H   0  0  0  0  0  0  0  0  0  0  0  0  # atno 6907 bound_to 6896
  151.0982  133.5256  159.2618 H   0  0  0  0  0  0  0  0  0  0  0  0  # atno 6908 bound_to 6896
  151.2021  135.0456  159.8931 H   0  0  0  0  0  0  0  0  0  0  0  0  # atno 6909 bound_to 6896
  146.0883  140.5958  142.8876 H   0  0  0  0  0  0  0  0  0  0  0  0  # atno 7974 bound_to 7965
  155.6632  140.3497  155.4790 H   0  0  0  0  0  0  0  0  0  0  0  0  # atno 8008 bound_to 7997
  155.9751  140.1163  157.0800 H   0  0  0  0  0  0  0  0  0  0  0  0  # atno 8009 bound_to 7997
  154.4176  140.1149  156.5345 H   0  0  0  0  0  0  0  0  0  0  0  0  # atno 8010 bound_to 7997
  139.8428  143.7299  152.2662 H   0  0  0  0  0  0  0  0  0  0  0  0  # atno 10167 bound_to 10162
  156.6002  130.4822  149.6243 H   0  0  0  0  0  0  0  0  0  0  0  0  # atno 10718 bound_to 10713
  153.8914  135.3032  155.3447 H   0  0  0  0  0  0  0  0  0  0  0  0  # atno 10763 bound_to 10752
  154.7714  135.4884  153.9660 H   0  0  0  0  0  0  0  0  0  0  0  0  # atno 10764 bound_to 10752
  153.1295  135.6801  153.9299 H   0  0  0  0  0  0  0  0  0  0  0  0  # atno 10765 bound_to 10752
  140.2667  134.3130  155.7840 H   0  0  0  0  0  0  0  0  0  0  0  0  # atno 11005 bound_to 11000
  144.7341  140.4758  143.6916 LP  0  0  0  0  0  0  0  0  0  0  0  0  # atno 17320 bound_to 7965
  145.6088  139.1511  143.3087 LP  0  0  0  0  0  0  0  0  0  0  0  0  # atno 17321 bound_to 7965
  139.7542  144.7525  151.0461 LP  0  0  0  0  0  0  0  0  0  0  0  0  # atno 17342 bound_to 10162
  140.7796  143.4825  150.9999 LP  0  0  0  0  0  0  0  0  0  0  0  0  # atno 17343 bound_to 10162
  156.2475  130.6888  151.1614 LP  0  0  0  0  0  0  0  0  0  0  0  0  # atno 17370 bound_to 10713
  157.7281  131.0634  150.5834 LP  0  0  0  0  0  0  0  0  0  0  0  0  # atno 17371 bound_to 10713
  141.2183  133.7442  156.9271 LP  0  0  0  0  0  0  0  0  0  0  0  0  # atno 17394 bound_to 11000
  140.1412  134.9292  157.2470 LP  0  0  0  0  0  0  0  0  0  0  0  0  # atno 17395 bound_to 11000

$$$$
