AV-unprocessed.smi:1047|AV-procd|sdf|4601|dock5
  -GOLD-   22720 3 93D 1   1.00000     0.00000
 Structure written by MMmdl.
 57 59  0  0  0  0  0  0  0  0  3 V2000
  156.8734  130.9395  166.1831 C   0  0  0  0  0  0  0  0  0  0  0  0
  156.5957  132.4184  165.8768 C   0  0  0  0  0  0  0  0  0  0  0  0
  155.2094  132.6491  165.3898 N   0  3  2  0  0  0  0  0  0  0  0  0
  154.9854  132.1834  163.9994 C   0  0  0  0  0  0  0  0  0  0  0  0
  155.5640  133.1799  162.9790 C   0  0  0  0  0  0  0  0  0  0  0  0
  154.9944  134.4657  163.1954 O   0  0  0  0  0  0  0  0  0  0  0  0
  155.2986  134.9889  164.4838 C   0  0  1  0  0  0  0  0  0  0  0  0
  154.6983  136.4008  164.5671 C   0  0  0  0  0  0  0  0  0  0  0  0
  155.4790  137.3548  163.7854 N   0  0  0  0  0  0  0  0  0  0  0  0
  154.7037  138.0323  162.7512 C   0  0  0  0  0  0  0  0  0  0  0  0
  155.5673  139.0370  161.9707 C   0  0  1  0  0  0  0  0  0  0  0  0
  156.4119  138.3027  161.1084 O   0  0  0  0  0  0  0  0  0  0  0  0
  154.7256  140.0328  161.1447 C   0  0  0  0  0  0  0  0  0  0  0  0
  154.2993  141.2020  161.9268 N   0  0  0  0  0  0  0  0  0  0  0  0
  154.6856  141.5998  163.1692 C   0  0  0  0  0  0  0  0  0  0  0  0
  154.0094  142.7442  163.4635 N   0  3  0  0  0  0  0  0  0  0  0  0
  153.1818  143.0851  162.3915 C   0  0  0  0  0  0  0  0  0  0  0  0
  152.3117  144.1550  162.2193 C   0  0  0  0  0  0  0  0  0  0  0  0
  151.6058  144.2220  160.9971 C   0  0  0  0  0  0  0  0  0  0  0  0
  150.6466  145.3791  160.7764 C   0  0  0  0  0  0  0  0  0  0  0  0
  151.7853  143.2331  159.9954 C   0  0  0  0  0  0  0  0  0  0  0  0
  151.0221  143.3158  158.6842 C   0  0  0  0  0  0  0  0  0  0  0  0
  152.6745  142.1521  160.1904 C   0  0  0  0  0  0  0  0  0  0  0  0
  153.3623  142.1000  161.4009 C   0  0  0  0  0  0  0  0  0  0  0  0
  154.7123  134.0391  165.5545 C   0  0  0  0  0  0  0  0  0  0  0  0
  157.9240  130.7928  166.4354 H   0  0  0  0  0  0  0  0  0  0  0  0
  156.6506  130.3096  165.3213 H   0  0  0  0  0  0  0  0  0  0  0  0
  156.2873  130.5771  167.0273 H   0  0  0  0  0  0  0  0  0  0  0  0
  156.8114  133.0338  166.7500 H   0  0  0  0  0  0  0  0  0  0  0  0
  157.2978  132.7314  165.1030 H   0  0  0  0  0  0  0  0  0  0  0  0
  155.4049  131.1875  163.8519 H   0  0  0  0  0  0  0  0  0  0  0  0
  153.9106  132.0887  163.8384 H   0  0  0  0  0  0  0  0  0  0  0  0
  156.6517  133.2305  163.0456 H   0  0  0  0  0  0  0  0  0  0  0  0
  155.3245  132.8564  161.9659 H   0  0  0  0  0  0  0  0  0  0  0  0
  156.3828  135.0637  164.5832 H   0  0  0  0  0  0  0  0  0  0  0  0
  153.6763  136.3764  164.1870 H   0  0  0  0  0  0  0  0  0  0  0  0
  154.6339  136.7192  165.6084 H   0  0  0  0  0  0  0  0  0  0  0  0
  156.2700  136.8815  163.3602 H   0  0  0  0  0  0  0  0  0  0  0  0
  154.3009  137.2909  162.0592 H   0  0  0  0  0  0  0  0  0  0  0  0
  153.8468  138.5421  163.1937 H   0  0  0  0  0  0  0  0  0  0  0  0
  156.2060  139.5852  162.6648 H   0  0  0  0  0  0  0  0  0  0  0  0
  156.3942  138.7060  160.2542 H   0  0  0  0  0  0  0  0  0  0  0  0
  155.2608  140.3651  160.2551 H   0  0  0  0  0  0  0  0  0  0  0  0
  153.8171  139.5474  160.7865 H   0  0  0  0  0  0  0  0  0  0  0  0
  155.3996  141.0988  163.8068 H   0  0  0  0  0  0  0  0  0  0  0  0
  152.1819  144.9047  162.9861 H   0  0  0  0  0  0  0  0  0  0  0  0
  149.6322  145.0107  160.6204 H   0  0  0  0  0  0  0  0  0  0  0  0
  150.9426  145.9619  159.9037 H   0  0  0  0  0  0  0  0  0  0  0  0
  150.6284  146.0515  161.6347 H   0  0  0  0  0  0  0  0  0  0  0  0
  151.2748  142.4867  158.0223 H   0  0  0  0  0  0  0  0  0  0  0  0
  151.2581  144.2426  158.1611 H   0  0  0  0  0  0  0  0  0  0  0  0
  149.9473  143.2824  158.8644 H   0  0  0  0  0  0  0  0  0  0  0  0
  152.8114  141.4037  159.4245 H   0  0  0  0  0  0  0  0  0  0  0  0
  153.6257  134.0189  165.4603 H   0  0  0  0  0  0  0  0  0  0  0  0
  154.9169  134.4097  166.5578 H   0  0  0  0  0  0  0  0  0  0  0  0
  154.6267  132.0648  165.9727 H   0  0  0  0  0  0  0  0  0  0  0  0
  154.1078  143.2532  164.3325 H   0  0  0  0  0  0  0  0  0  0  0  0
  1  2  1  0  0  0  0
  1 26  1  0  0  0  0
  1 27  1  0  0  0  0
  1 28  1  0  0  0  0
  2  3  1  0  0  0  0
  2 29  1  0  0  0  0
  2 30  1  0  0  0  0
  3 25  1  0  0  0  0
  3  4  1  0  0  0  0
  3 56  1  0  0  0  0
  4  5  1  0  0  0  0
  4 31  1  0  0  0  0
  4 32  1  0  0  0  0
  5  6  1  0  0  0  0
  5 33  1  0  0  0  0
  5 34  1  0  0  0  0
  6  7  1  0  0  0  0
  7  8  1  0  0  0  0
  7 25  1  0  0  0  0
  7 35  1  0  0  0  0
  8  9  1  0  0  0  0
  8 36  1  0  0  0  0
  8 37  1  0  0  0  0
  9 10  1  0  0  0  0
  9 38  1  0  0  0  0
 10 11  1  0  0  0  0
 10 39  1  0  0  0  0
 10 40  1  0  0  0  0
 11 12  1  0  0  0  0
 11 13  1  0  0  0  0
 11 41  1  0  0  0  0
 12 42  1  0  0  0  0
 13 14  1  0  0  0  0
 13 43  1  0  0  0  0
 13 44  1  0  0  0  0
 14 24  1  0  0  0  0
 14 15  1  0  0  0  0
 15 16  2  0  0  0  0
 15 45  1  0  0  0  0
 16 17  1  0  0  0  0
 16 57  1  0  0  0  0
 17 24  2  0  0  0  0
 17 18  1  0  0  0  0
 18 19  2  0  0  0  0
 18 46  1  0  0  0  0
 19 20  1  0  0  0  0
 19 21  1  0  0  0  0
 20 47  1  0  0  0  0
 20 48  1  0  0  0  0
 20 49  1  0  0  0  0
 21 22  1  0  0  0  0
 21 23  2  0  0  0  0
 22 50  1  0  0  0  0
 22 51  1  0  0  0  0
 22 52  1  0  0  0  0
 23 24  1  0  0  0  0
 23 53  1  0  0  0  0
 25 54  1  0  0  0  0
 25 55  1  0  0  0  0
M  CHG  1   3   1
M  CHG  1  16   1
M  END
> <s_m_source_file>
AV-unprocessed.smi

> <i_m_source_file_index>
1047

> <i_lp_mmshare_version>
43012

> <i_f3d_flags>
0

> <s_epik_input>
W0NIM11bQ0gyXU4xW0NIMl1bQ0gyXU9bQ0BIXShbQ0gyXTEpW0NIMl1bTkhdW0NIMl1bQ0BIXShbT0hdKVtDSDJdbihbY0hdbjIpYyhjMjMpW2NIXWMoW0NIM10pYyhbY0hdMylbQ0gzXQ==

> <s_epik_cmdline>
J2VwaWtfcHl0aG9uJywgJy1waCcsICc3LjAnLCAnLXRuJywgJzgnLCAnLW1hJywgJzIwMCcsICctbWV0YWxfYmluZGluZycsICctaW1hZScsICc8aW5maWxlLm1hZT4nLCAnLW9tYWUnLCAnPG91dGZpbGUubWFlPic=

> <r_epik_Ionization_Penalty>
2.03028

> <r_epik_Ionization_Penalty_Charging>
1.21256

> <r_epik_Ionization_Penalty_Neutral>
0.817715

> <r_epik_State_Penalty>
2.54959

> <r_epik_Charging_Adjusted_Penalty>
3.76215

> <i_epik_Tot_Q>
2

> <i_epik_Tot_abs_Q>
2

> <r_epik_Metal_State_Penalty>
6.52811

> <b_epik_Metal_Only>
0

> <s_lp_Force_Field>
OPLS_2005

> <r_lp_Energy>
33.7029

> <b_lp_Chiralities_Consistent>
1

> <s_lp_Variant>
AV-unprocessed.smi:1047-42

> <Gold.Version>
5.8.1

> <Gold.Id.Protein>
6NUR|6NUR_protein|mol2

> <Gold.PLP.Fitness>
54.1204

> <Gold.PLP.PLP>
-56.2634

> <Gold.PLP.part.hbond>
0.0000

> <Gold.PLP.part.metal>
0.0000

> <Gold.PLP.part.buried>
-4.7430

> <Gold.PLP.part.nonpolar>
-50.6893

> <Gold.PLP.part.repulsive>
0.0741

> <Gold.PLP.ligand.clash>
0.0000

> <Gold.PLP.ligand.torsion>
1.1152

> <Gold.PLP.Chemscore.Hbond>
0.0000

> <Gold.PLP.Chemscore.CHOScore>
0.0000

> <Gold.PLP.Chemscore.Metal>
0.0000

> <Gold.PLP.Chemscore.Internal.Correction>
0.0874

> <Gold.Rescore>
     Score         DG    S(hbond)    S(metal)    S(lipo)     H(rot)  DE(clash)    DE(int)     intcor
     16.02     -17.57       0.00        0.00     162.57       2.71       0.39       1.16       ----

> <Gold.Chemscore.Fitness>
16.0195

> <Gold.Chemscore.DG>
-17.5663

> <Gold.Chemscore.ZeroCoef>
-5.4800

> <Gold.Chemscore.Hbond>
0.0000

> <Gold.Chemscore.Metal>
0.0000

> <Gold.Chemscore.Lipo>
162.5724

> <Gold.Chemscore.Internal_Hbond>
0.0000

> <Gold.Chemscore.DEClash>
0.3876

> <Gold.Chemscore.DEInternal>
1.1592

> <Gold.Chemscore.Rot>
2.7088

> <Gold.Chemscore.Internal.Correction>
   9.000000E+99

> <Gold.Chemscore.Hbond.Weighted>
-0.0000

> <Gold.Chemscore.Metal.Weighted>
-0.0000

> <Gold.Chemscore.Lipo.Weighted>
-19.0210

> <Gold.Chemscore.Internal_Hbond.Weighted>
0.0000

> <Gold.Chemscore.DEClash.Weighted>
0.3876

> <Gold.Chemscore.DEInternal.Weighted>
1.1592

> <Gold.Chemscore.Rot.Weighted>
6.9346

> <Gold.Chemscore.Internal.Correction.Weighted>
   9.000000E+99

> <Gold.Protein.RotatedTorsions>
[ 6907 6896 6895 6894 ] final   -8.27 input  -60.11 | X-H torsion
[ 7974 7965 7964 7962 ] final -151.77 input  175.53 | X-H torsion
[ 8008 7997 7996 7995 ] final  155.39 input   59.86 | X-H torsion
[ 10167 10162 10161 10158 ] final   97.03 input  -65.29 | X-H torsion
[ 10718 10713 10712 10709 ] final  158.56 input   66.30 | X-H torsion
[ 10763 10752 10751 10750 ] final  -60.21 input  -60.55 | X-H torsion
[ 11005 11000 10999 10996 ] final   28.10 input  -57.11 | X-H torsion

> <Gold.Protein.ActiveResidues>
 VAL166  LYS551  ARG553  GLY616  TRP617  ASP618  TYR619  PRO620  LYS621  CYS622 
 ASP623  PHE694  ASN695  SER759  ASP760  ASP761  ALA762  ILE779  LEU786  VAL792 
 PHE793  MET794  SER795  GLU796  ALA797  LYS798  CYS799  TRP800  GLU811  SER814 

> <Gold.Protein.RotatedAtoms>
  151.4362  135.1015  159.9656 H   0  0  0  0  0  0  0  0  0  0  0  0  # atno 6907 bound_to 6896
  152.4938  133.8571  159.7241 H   0  0  0  0  0  0  0  0  0  0  0  0  # atno 6908 bound_to 6896
  150.9120  133.6927  159.2880 H   0  0  0  0  0  0  0  0  0  0  0  0  # atno 6909 bound_to 6896
  144.7831  140.4753  143.5825 H   0  0  0  0  0  0  0  0  0  0  0  0  # atno 7974 bound_to 7965
  156.2481  140.1941  156.6793 H   0  0  0  0  0  0  0  0  0  0  0  0  # atno 8008 bound_to 7997
  154.6334  140.0593  156.9785 H   0  0  0  0  0  0  0  0  0  0  0  0  # atno 8009 bound_to 7997
  155.1675  140.3265  155.4402 H   0  0  0  0  0  0  0  0  0  0  0  0  # atno 8010 bound_to 7997
  139.7839  144.6878  150.9984 H   0  0  0  0  0  0  0  0  0  0  0  0  # atno 10167 bound_to 10162
  157.1763  131.0622  151.2156 H   0  0  0  0  0  0  0  0  0  0  0  0  # atno 10718 bound_to 10713
  154.2657  135.6300  153.5291 H   0  0  0  0  0  0  0  0  0  0  0  0  # atno 10763 bound_to 10752
  152.9888  135.5598  154.5655 H   0  0  0  0  0  0  0  0  0  0  0  0  # atno 10764 bound_to 10752
  154.5214  135.2882  155.1234 H   0  0  0  0  0  0  0  0  0  0  0  0  # atno 10765 bound_to 10752
  140.3192  134.2562  155.7720 H   0  0  0  0  0  0  0  0  0  0  0  0  # atno 11005 bound_to 11000
  145.5995  139.1502  143.3137 LP  0  0  0  0  0  0  0  0  0  0  0  0  # atno 17320 bound_to 7965
  146.2049  140.6117  142.9085 LP  0  0  0  0  0  0  0  0  0  0  0  0  # atno 17321 bound_to 7965
  140.7819  143.4453  151.0491 LP  0  0  0  0  0  0  0  0  0  0  0  0  # atno 17342 bound_to 10162
  139.8132  143.7921  152.3172 LP  0  0  0  0  0  0  0  0  0  0  0  0  # atno 17343 bound_to 10162
  157.3996  130.7326  149.6757 LP  0  0  0  0  0  0  0  0  0  0  0  0  # atno 17370 bound_to 10713
  155.9731  130.4124  150.4032 LP  0  0  0  0  0  0  0  0  0  0  0  0  # atno 17371 bound_to 10713
  141.2090  133.7760  157.0022 LP  0  0  0  0  0  0  0  0  0  0  0  0  # atno 17394 bound_to 11000
  140.0956  134.9566  157.1845 LP  0  0  0  0  0  0  0  0  0  0  0  0  # atno 17395 bound_to 11000

$$$$
