AV-unprocessed.smi:3058|AV-procd|sdf|11673|dock10
  -GOLD-   2272017 73D 1   1.00000     0.00000
 Structure written by MMmdl.
 39 41  0  0  0  0  0  0  0  0  2 V2000
  152.6891  140.4619  159.8693 O   0  0  0  0  0  0  0  0  0  0  0  0
  152.4904  141.3380  159.0272 C   0  0  0  0  0  0  0  0  0  0  0  0
  152.0801  141.0663  157.7785 N   0  0  0  0  0  0  0  0  0  0  0  0
  151.8092  139.7307  157.2595 C   0  0  0  0  0  0  0  0  0  0  0  0
  151.6617  139.7325  155.7282 C   0  0  0  0  0  0  0  0  0  0  0  0
  150.3701  140.3862  155.2774 C   0  0  0  0  0  0  0  0  0  0  0  0
  149.4354  139.6649  154.5019 C   0  0  0  0  0  0  0  0  0  0  0  0
  148.2407  140.2955  154.0959 C   0  0  0  0  0  0  0  0  0  0  0  0
  148.0084  141.6338  154.4734 C   0  0  0  0  0  0  0  0  0  0  0  0
  148.9258  142.2921  155.2157 N   0  3  0  0  0  0  0  0  0  0  0  0
  150.0813  141.7236  155.6252 C   0  0  0  0  0  0  0  0  0  0  0  0
  152.7064  142.8242  159.3643 C   0  0  2  0  0  0  0  0  0  0  0  0
  152.1475  143.2246  160.7522 C   0  0  0  0  0  0  0  0  0  0  0  0
  151.2003  144.3968  160.4280 C   0  0  1  0  0  0  0  0  0  0  0  0
  152.0274  145.6172  159.9803 C   0  0  0  0  0  0  0  0  0  0  0  0
  152.5131  145.2022  158.5779 C   0  0  0  0  0  0  0  0  0  0  0  0
  151.9306  143.7838  158.4262 C   0  0  2  0  0  0  0  0  0  0  0  0
  150.5758  143.9464  159.1153 C   0  0  0  0  0  0  0  0  0  0  0  0
  151.9369  141.8415  157.1473 H   0  0  0  0  0  0  0  0  0  0  0  0
  152.6021  139.0477  157.5695 H   0  0  0  0  0  0  0  0  0  0  0  0
  150.8898  139.3689  157.7209 H   0  0  0  0  0  0  0  0  0  0  0  0
  152.5064  140.2512  155.2727 H   0  0  0  0  0  0  0  0  0  0  0  0
  151.6839  138.7125  155.3419 H   0  0  0  0  0  0  0  0  0  0  0  0
  149.6303  138.6395  154.2225 H   0  0  0  0  0  0  0  0  0  0  0  0
  147.5137  139.7600  153.5028 H   0  0  0  0  0  0  0  0  0  0  0  0
  147.1237  142.1932  154.2064 H   0  0  0  0  0  0  0  0  0  0  0  0
  150.7336  142.3522  156.2141 H   0  0  0  0  0  0  0  0  0  0  0  0
  153.7754  143.0397  159.3148 H   0  0  0  0  0  0  0  0  0  0  0  0
  151.5950  142.4112  161.2254 H   0  0  0  0  0  0  0  0  0  0  0  0
  152.9392  143.5211  161.4412 H   0  0  0  0  0  0  0  0  0  0  0  0
  150.4897  144.6183  161.2247 H   0  0  0  0  0  0  0  0  0  0  0  0
  151.4038  146.5101  159.9208 H   0  0  0  0  0  0  0  0  0  0  0  0
  152.8523  145.8295  160.6615 H   0  0  0  0  0  0  0  0  0  0  0  0
  152.1050  145.8707  157.8187 H   0  0  0  0  0  0  0  0  0  0  0  0
  153.5998  145.2221  158.4888 H   0  0  0  0  0  0  0  0  0  0  0  0
  151.8754  143.4481  157.3897 H   0  0  0  0  0  0  0  0  0  0  0  0
  150.0012  143.0243  159.2045 H   0  0  0  0  0  0  0  0  0  0  0  0
  149.9451  144.7085  158.6539 H   0  0  0  0  0  0  0  0  0  0  0  0
  148.7376  143.2601  155.4779 H   0  0  0  0  0  0  0  0  0  0  0  0
  1  2  2  0  0  0  0
  2  3  1  0  0  0  0
  2 12  1  0  0  0  0
  3  4  1  0  0  0  0
  3 19  1  0  0  0  0
  4  5  1  0  0  0  0
  4 20  1  0  0  0  0
  4 21  1  0  0  0  0
  5  6  1  0  0  0  0
  5 22  1  0  0  0  0
  5 23  1  0  0  0  0
  6 11  1  0  0  0  0
  6  7  2  0  0  0  0
  7  8  1  0  0  0  0
  7 24  1  0  0  0  0
  8  9  2  0  0  0  0
  8 25  1  0  0  0  0
  9 10  1  0  0  0  0
  9 26  1  0  0  0  0
 10 11  2  0  0  0  0
 10 39  1  0  0  0  0
 11 27  1  0  0  0  0
 12 17  1  0  0  0  0
 12 13  1  0  0  0  0
 12 28  1  0  0  0  0
 13 14  1  0  0  0  0
 13 29  1  0  0  0  0
 13 30  1  0  0  0  0
 14 18  1  0  0  0  0
 14 15  1  0  0  0  0
 14 31  1  0  0  0  0
 15 16  1  0  0  0  0
 15 32  1  0  0  0  0
 15 33  1  0  0  0  0
 16 17  1  0  0  0  0
 16 34  1  0  0  0  0
 16 35  1  0  0  0  0
 17 18  1  0  0  0  0
 17 36  1  0  0  0  0
 18 37  1  0  0  0  0
 18 38  1  0  0  0  0
M  CHG  1  10   1
M  END
> <s_m_source_file>
AV-unprocessed.smi

> <i_m_source_file_index>
3058

> <i_lp_mmshare_version>
43012

> <i_f3d_flags>
0

> <s_epik_input>
W0NIMl0xW0NIMl1bQ0BIXShbQ0gyXTIpW0NAQEhdKFtDSDJdW0NAQEhdMTIpQyg9TylbTkhdW0NIMl1bQ0gyXWMzW2NIXVtjSF1bY0hdbltjSF0z

> <s_epik_cmdline>
J2VwaWtfcHl0aG9uJywgJy1waCcsICc3LjAnLCAnLXRuJywgJzgnLCAnLW1hJywgJzIwMCcsICctbWV0YWxfYmluZGluZycsICctaW1hZScsICc8aW5maWxlLm1hZT4nLCAnLW9tYWUnLCAnPG91dGZpbGUubWFlPic=

> <r_epik_Ionization_Penalty>
2.24375

> <r_epik_Ionization_Penalty_Charging>
2.24375

> <r_epik_Ionization_Penalty_Neutral>
1.89995e-08

> <r_epik_State_Penalty>
2.39035

> <r_epik_Charging_Adjusted_Penalty>
4.63411

> <i_epik_Tot_Q>
1

> <i_epik_Tot_abs_Q>
1

> <r_epik_Metal_State_Penalty>
2.40369

> <b_epik_Metal_Only>
0

> <s_lp_Force_Field>
OPLS_2005

> <r_lp_Energy>
53.6325

> <b_lp_Chiralities_Consistent>
1

> <s_lp_Variant>
AV-unprocessed.smi:3058-5

> <Gold.Version>
5.8.1

> <Gold.Id.Protein>
6NUR|6NUR_protein|mol2

> <Gold.PLP.Fitness>
50.3040

> <Gold.PLP.PLP>
-45.5519

> <Gold.PLP.part.hbond>
-0.9749

> <Gold.PLP.part.metal>
0.0000

> <Gold.PLP.part.buried>
-3.3420

> <Gold.PLP.part.nonpolar>
-39.5139

> <Gold.PLP.part.repulsive>
0.2708

> <Gold.PLP.ligand.clash>
0.0000

> <Gold.PLP.ligand.torsion>
0.6378

> <Gold.PLP.Chemscore.Hbond>
2.0000

> <Gold.PLP.Chemscore.CHOScore>
0.0000

> <Gold.PLP.Chemscore.Metal>
0.0000

> <Gold.Chemscore.Hbonds>
donor molecule, donor type, donor heavy atom, donor atom, acceptor molecule, acceptor atom, score
      L1  H    10    39       P1  8028  1.69

> <Gold.PLP.Chemscore.Internal.Correction>
0.0275

> <Gold.Rescore>
     Score         DG    S(hbond)    S(metal)    S(lipo)     H(rot)  DE(clash)    DE(int)     intcor
     18.81     -20.39       1.00        0.00     130.69       1.45       0.18       1.40       ----

> <Gold.Chemscore.Fitness>
18.8078

> <Gold.Chemscore.DG>
-20.3866

> <Gold.Chemscore.ZeroCoef>
-5.4800

> <Gold.Chemscore.Hbond>
1.0000

> <Gold.Chemscore.Metal>
0.0000

> <Gold.Chemscore.Lipo>
130.6912

> <Gold.Chemscore.Internal_Hbond>
0.0000

> <Gold.Chemscore.DEClash>
0.1829

> <Gold.Chemscore.DEInternal>
1.3959

> <Gold.Chemscore.Rot>
1.4548

> <Gold.Chemscore.Internal.Correction>
   9.000000E+99

> <Gold.Chemscore.Hbonds>
donor molecule, donor type, donor heavy atom, donor atom, acceptor molecule, acceptor atom, score
      L1  H    10    39       P1  8028  0.82

> <Gold.Chemscore.Hbond.Weighted>
-3.3399

> <Gold.Chemscore.Metal.Weighted>
-0.0000

> <Gold.Chemscore.Lipo.Weighted>
-15.2909

> <Gold.Chemscore.Internal_Hbond.Weighted>
0.0000

> <Gold.Chemscore.DEClash.Weighted>
0.1829

> <Gold.Chemscore.DEInternal.Weighted>
1.3959

> <Gold.Chemscore.Rot.Weighted>
3.7242

> <Gold.Chemscore.Internal.Correction.Weighted>
   9.000000E+99

> <Gold.Protein.RotatedTorsions>
[ 6907 6896 6895 6894 ] final  127.69 input  -60.11 | X-H torsion
[ 7974 7965 7964 7962 ] final  -21.13 input  175.53 | X-H torsion
[ 8008 7997 7996 7995 ] final   50.40 input   59.86 | X-H torsion
[ 10167 10162 10161 10158 ] final   65.18 input  -65.29 | X-H torsion
[ 10718 10713 10712 10709 ] final  -95.37 input   66.30 | X-H torsion
[ 10763 10752 10751 10750 ] final -121.43 input  -60.55 | X-H torsion
[ 11005 11000 10999 10996 ] final  -39.50 input  -57.11 | X-H torsion

> <Gold.Protein.ActiveResidues>
 VAL166  LYS551  ARG553  GLY616  TRP617  ASP618  TYR619  PRO620  LYS621  CYS622 
 ASP623  PHE694  ASN695  SER759  ASP760  ASP761  ALA762  ILE779  LEU786  VAL792 
 PHE793  MET794  SER795  GLU796  ALA797  LYS798  CYS799  TRP800  GLU811  SER814 

> <Gold.Protein.RotatedAtoms>
  152.3789  133.6518  159.6144 H   0  0  0  0  0  0  0  0  0  0  0  0  # atno 6907 bound_to 6896
  150.7725  133.9147  159.3389 H   0  0  0  0  0  0  0  0  0  0  0  0  # atno 6908 bound_to 6896
  151.6957  135.0940  160.0293 H   0  0  0  0  0  0  0  0  0  0  0  0  # atno 6909 bound_to 6896
  146.1750  140.4298  142.8517 H   0  0  0  0  0  0  0  0  0  0  0  0  # atno 7974 bound_to 7965
  155.4181  140.3445  155.4269 H   0  0  0  0  0  0  0  0  0  0  0  0  # atno 8008 bound_to 7997
  156.1409  140.1542  156.8953 H   0  0  0  0  0  0  0  0  0  0  0  0  # atno 8009 bound_to 7997
  154.4970  140.0825  156.7698 H   0  0  0  0  0  0  0  0  0  0  0  0  # atno 8010 bound_to 7997
  140.1141  144.4791  150.6960 H   0  0  0  0  0  0  0  0  0  0  0  0  # atno 10167 bound_to 10162
  156.0042  130.5106  150.6066 H   0  0  0  0  0  0  0  0  0  0  0  0  # atno 10718 bound_to 10713
  154.8668  135.4168  154.2620 H   0  0  0  0  0  0  0  0  0  0  0  0  # atno 10763 bound_to 10752
  153.3546  135.7000  153.6766 H   0  0  0  0  0  0  0  0  0  0  0  0  # atno 10764 bound_to 10752
  153.5692  135.3594  155.2803 H   0  0  0  0  0  0  0  0  0  0  0  0  # atno 10765 bound_to 10752
  141.0106  133.6910  156.2195 H   0  0  0  0  0  0  0  0  0  0  0  0  # atno 11005 bound_to 11000
  144.8222  140.6569  143.6345 LP  0  0  0  0  0  0  0  0  0  0  0  0  # atno 17320 bound_to 7965
  145.4236  139.1560  143.4061 LP  0  0  0  0  0  0  0  0  0  0  0  0  # atno 17321 bound_to 7965
  140.6909  143.2375  151.5133 LP  0  0  0  0  0  0  0  0  0  0  0  0  # atno 17342 bound_to 10162
  139.5603  144.2172  152.1681 LP  0  0  0  0  0  0  0  0  0  0  0  0  # atno 17343 bound_to 10162
  157.3906  131.0795  151.1397 LP  0  0  0  0  0  0  0  0  0  0  0  0  # atno 17370 bound_to 10713
  157.2090  130.6429  149.5767 LP  0  0  0  0  0  0  0  0  0  0  0  0  # atno 17371 bound_to 10713
  140.6740  134.4838  157.5588 LP  0  0  0  0  0  0  0  0  0  0  0  0  # atno 17394 bound_to 11000
  139.9088  134.8391  156.1606 LP  0  0  0  0  0  0  0  0  0  0  0  0  # atno 17395 bound_to 11000

$$$$
