AV-unprocessed.smi:2631|AV-procd|sdf|10249|dock4
  -GOLD-   2272014263D 1   1.00000     0.00000
 Structure written by MMmdl.
 34 35  0  0  0  0  0  0  0  0  2 V2000
  148.5156  133.8635  158.2839 C   0  0  0  0  0  0  0  0  0  0  0  0
  148.9282  135.0817  158.8761 O   0  0  0  0  0  0  0  0  0  0  0  0
  148.2138  136.2004  158.3778 C   0  0  0  0  0  0  0  0  0  0  0  0
  148.7772  137.4956  158.9869 C   0  0  0  0  0  0  0  0  0  0  0  0
  149.9103  138.0263  158.1988 N   0  0  0  0  0  0  0  0  0  0  0  0
  149.7500  139.2586  157.5115 C   0  0  0  0  0  0  0  0  0  0  0  0
  148.5458  139.9404  157.5794 N   0  0  0  0  0  0  0  0  0  0  0  0
  150.7843  139.7595  156.7992 C   0  0  0  0  0  0  0  0  0  0  0  0
  150.7834  141.2941  155.8993 S   0  0  0  0  0  0  0  0  0  0  0  0
  151.1953  142.4293  157.1832 C   0  0  0  0  0  0  0  0  0  0  0  0
  151.6664  141.9496  158.4213 C   0  0  0  0  0  0  0  0  0  0  0  0
  152.0050  142.8581  159.4430 C   0  0  0  0  0  0  0  0  0  0  0  0
  151.8717  144.2442  159.2269 C   0  0  0  0  0  0  0  0  0  0  0  0
  152.2895  145.3560  160.4782 Cl  0  0  0  0  0  0  0  0  0  0  0  0
  151.3974  144.7222  157.9891 C   0  0  0  0  0  0  0  0  0  0  0  0
  151.0578  143.8149  156.9667 C   0  0  0  0  0  0  0  0  0  0  0  0
  152.0568  139.0387  156.7284 C   0  0  0  0  0  0  0  0  0  0  0  0
  153.0041  139.4760  156.0735 O   0  0  0  0  0  0  0  0  0  0  0  0
  152.1344  137.8705  157.4219 N   0  5  0  0  0  0  0  0  0  0  0  0
  151.1037  137.3530  158.1550 C   0  0  0  0  0  0  0  0  0  0  0  0
  151.2233  136.2965  158.7768 O   0  0  0  0  0  0  0  0  0  0  0  0
  149.0941  133.0395  158.7016 H   0  0  0  0  0  0  0  0  0  0  0  0
  148.6756  133.8752  157.2050 H   0  0  0  0  0  0  0  0  0  0  0  0
  147.4608  133.6678  158.4808 H   0  0  0  0  0  0  0  0  0  0  0  0
  148.3143  136.2366  157.2922 H   0  0  0  0  0  0  0  0  0  0  0  0
  147.1502  136.1023  158.6001 H   0  0  0  0  0  0  0  0  0  0  0  0
  147.9735  138.2253  159.0964 H   0  0  0  0  0  0  0  0  0  0  0  0
  149.0932  137.3088  160.0134 H   0  0  0  0  0  0  0  0  0  0  0  0
  147.7659  139.5820  158.1113 H   0  0  0  0  0  0  0  0  0  0  0  0
  148.4470  140.8765  157.2143 H   0  0  0  0  0  0  0  0  0  0  0  0
  151.7721  140.8878  158.5883 H   0  0  0  0  0  0  0  0  0  0  0  0
  152.3683  142.4901  160.3913 H   0  0  0  0  0  0  0  0  0  0  0  0
  151.2948  145.7841  157.8210 H   0  0  0  0  0  0  0  0  0  0  0  0
  150.6978  144.1842  156.0174 H   0  0  0  0  0  0  0  0  0  0  0  0
  1  2  1  0  0  0  0
  1 22  1  0  0  0  0
  1 23  1  0  0  0  0
  1 24  1  0  0  0  0
  2  3  1  0  0  0  0
  3  4  1  0  0  0  0
  3 25  1  0  0  0  0
  3 26  1  0  0  0  0
  4  5  1  0  0  0  0
  4 27  1  0  0  0  0
  4 28  1  0  0  0  0
  5 20  1  0  0  0  0
  5  6  1  0  0  0  0
  6  7  1  0  0  0  0
  6  8  2  0  0  0  0
  7 29  1  0  0  0  0
  7 30  1  0  0  0  0
  8  9  1  0  0  0  0
  8 17  1  0  0  0  0
  9 10  1  0  0  0  0
 10 16  1  0  0  0  0
 10 11  2  0  0  0  0
 11 12  1  0  0  0  0
 11 31  1  0  0  0  0
 12 13  2  0  0  0  0
 12 32  1  0  0  0  0
 13 14  1  0  0  0  0
 13 15  1  0  0  0  0
 15 16  2  0  0  0  0
 15 33  1  0  0  0  0
 16 34  1  0  0  0  0
 17 18  2  0  0  0  0
 17 19  1  0  0  0  0
 19 20  1  0  0  0  0
 20 21  2  0  0  0  0
M  CHG  1  19  -1
M  END
> <s_m_source_file>
AV-unprocessed.smi

> <i_m_source_file_index>
2631

> <i_lp_mmshare_version>
43012

> <i_f3d_flags>
0

> <s_epik_input>
W0NIM11PW0NIMl1bQ0gyXW4xYyhbTkgyXSljKGMoPU8pW25IXWMxPU8pU2MyW2NIXVtjSF1jKENsKVtjSF1bY0hdMg==

> <s_epik_cmdline>
J2VwaWtfcHl0aG9uJywgJy1waCcsICc3LjAnLCAnLXRuJywgJzgnLCAnLW1hJywgJzIwMCcsICctbWV0YWxfYmluZGluZycsICctaW1hZScsICc8aW5maWxlLm1hZT4nLCAnLW9tYWUnLCAnPG91dGZpbGUubWFlPic=

> <r_lp_tautomer_probability>
1

> <r_epik_Ionization_Penalty>
5.35309

> <r_epik_Ionization_Penalty_Charging>
0.0281434

> <r_epik_Ionization_Penalty_Neutral>
5.32495

> <r_epik_State_Penalty>
5.32488

> <r_epik_Charging_Adjusted_Penalty>
5.35302

> <i_epik_Tot_Q>
-1

> <i_epik_Tot_abs_Q>
1

> <r_epik_Metal_State_Penalty>
1.30191

> <b_epik_Metal_Only>
1

> <s_epik_Chemistry_Notes>
This compound has an imine and may undergo hydrolysis.

> <s_lp_Force_Field>
OPLS_2005

> <r_lp_Energy>
29.1443

> <b_lp_Chiralities_Consistent>
1

> <s_lp_Variant>
AV-unprocessed.smi:2631-2

> <Gold.Version>
5.8.1

> <Gold.Id.Protein>
6NUR|6NUR_protein|mol2

> <Gold.PLP.Fitness>
36.9401

> <Gold.PLP.PLP>
-32.2722

> <Gold.PLP.part.hbond>
-2.6020

> <Gold.PLP.part.metal>
0.0000

> <Gold.PLP.part.buried>
-1.7219

> <Gold.PLP.part.nonpolar>
-28.1042

> <Gold.PLP.part.repulsive>
0.1188

> <Gold.PLP.ligand.clash>
0.0000

> <Gold.PLP.ligand.torsion>
0.7012

> <Gold.PLP.Chemscore.Hbond>
2.0000

> <Gold.PLP.Chemscore.CHOScore>
0.0000

> <Gold.PLP.Chemscore.Metal>
0.0000

> <Gold.Chemscore.Hbonds>
donor molecule, donor type, donor heavy atom, donor atom, acceptor molecule, acceptor atom, score
      P1  H  6896  6907       L1     2  1.00
      P1  H  7997  8008       L1    18  1.00

> <Gold.PLP.Chemscore.Internal.Correction>
0.0703

> <Gold.Rescore>
     Score         DG    S(hbond)    S(metal)    S(lipo)     H(rot)  DE(clash)    DE(int)     intcor
     14.72     -17.48       1.97        0.00      90.65       2.02       0.48       2.28       ----

> <Gold.Chemscore.Fitness>
14.7171

> <Gold.Chemscore.DG>
-17.4812

> <Gold.Chemscore.ZeroCoef>
-5.4800

> <Gold.Chemscore.Hbond>
1.9686

> <Gold.Chemscore.Metal>
0.0000

> <Gold.Chemscore.Lipo>
90.6472

> <Gold.Chemscore.Internal_Hbond>
0.0000

> <Gold.Chemscore.DEClash>
0.4813

> <Gold.Chemscore.DEInternal>
2.2827

> <Gold.Chemscore.Rot>
2.0234

> <Gold.Chemscore.Internal.Correction>
   9.000000E+99

> <Gold.Chemscore.Hbonds>
donor molecule, donor type, donor heavy atom, donor atom, acceptor molecule, acceptor atom, score
      P1  H  6896  6907       L1     2  0.47
      P1  H  7997  8008       L1    18  0.93

> <Gold.Chemscore.Hbond.Weighted>
-6.5752

> <Gold.Chemscore.Metal.Weighted>
-0.0000

> <Gold.Chemscore.Lipo.Weighted>
-10.6057

> <Gold.Chemscore.Internal_Hbond.Weighted>
0.0000

> <Gold.Chemscore.DEClash.Weighted>
0.4813

> <Gold.Chemscore.DEInternal.Weighted>
2.2827

> <Gold.Chemscore.Rot.Weighted>
5.1798

> <Gold.Chemscore.Internal.Correction.Weighted>
   9.000000E+99

> <Gold.Protein.RotatedTorsions>
[ 6907 6896 6895 6894 ] final  -59.53 input  -60.11 | X-H torsion
[ 7974 7965 7964 7962 ] final -120.57 input  175.53 | X-H torsion
[ 8008 7997 7996 7995 ] final  -55.47 input   59.86 | X-H torsion
[ 10167 10162 10161 10158 ] final -128.34 input  -65.29 | X-H torsion
[ 10718 10713 10712 10709 ] final   82.48 input   66.30 | X-H torsion
[ 10763 10752 10751 10750 ] final   94.20 input  -60.55 | X-H torsion
[ 11005 11000 10999 10996 ] final -129.76 input  -57.11 | X-H torsion

> <Gold.Protein.ActiveResidues>
 VAL166  LYS551  ARG553  GLY616  TRP617  ASP618  TYR619  PRO620  LYS621  CYS622 
 ASP623  PHE694  ASN695  SER759  ASP760  ASP761  ALA762  ILE779  LEU786  VAL792 
 PHE793  MET794  SER795  GLU796  ALA797  LYS798  CYS799  TRP800  GLU811  SER814 

> <Gold.Protein.RotatedAtoms>
  150.7924  134.6957  159.6521 H   0  0  0  0  0  0  0  0  0  0  0  0  # atno 6907 bound_to 6896
  152.4031  134.6249  160.0070 H   0  0  0  0  0  0  0  0  0  0  0  0  # atno 6908 bound_to 6896
  151.6515  133.3284  159.3189 H   0  0  0  0  0  0  0  0  0  0  0  0  # atno 6909 bound_to 6896
  145.0499  140.8210  143.4215 H   0  0  0  0  0  0  0  0  0  0  0  0  # atno 7974 bound_to 7965
  154.4196  140.1152  156.5481 H   0  0  0  0  0  0  0  0  0  0  0  0  # atno 8008 bound_to 7997
  155.6438  140.3496  155.4705 H   0  0  0  0  0  0  0  0  0  0  0  0  # atno 8009 bound_to 7997
  155.9849  140.1167  157.0682 H   0  0  0  0  0  0  0  0  0  0  0  0  # atno 8010 bound_to 7997
  139.9513  143.6052  152.2474 H   0  0  0  0  0  0  0  0  0  0  0  0  # atno 10167 bound_to 10162
  157.6858  131.0050  150.2382 H   0  0  0  0  0  0  0  0  0  0  0  0  # atno 10718 bound_to 10713
  153.2390  135.4298  155.0677 H   0  0  0  0  0  0  0  0  0  0  0  0  # atno 10763 bound_to 10752
  154.8332  135.3398  154.6677 H   0  0  0  0  0  0  0  0  0  0  0  0  # atno 10764 bound_to 10752
  153.7102  135.7023  153.5096 H   0  0  0  0  0  0  0  0  0  0  0  0  # atno 10765 bound_to 10752
  140.9404  134.1201  157.4156 H   0  0  0  0  0  0  0  0  0  0  0  0  # atno 11005 bound_to 11000
  145.1540  139.2497  143.5426 LP  0  0  0  0  0  0  0  0  0  0  0  0  # atno 17320 bound_to 7965
  146.3517  140.1250  142.8599 LP  0  0  0  0  0  0  0  0  0  0  0  0  # atno 17321 bound_to 7965
  139.6626  144.7662  151.1934 LP  0  0  0  0  0  0  0  0  0  0  0  0  # atno 17342 bound_to 10162
  140.7582  143.5987  150.8722 LP  0  0  0  0  0  0  0  0  0  0  0  0  # atno 17343 bound_to 10162
  156.3001  130.3757  149.7758 LP  0  0  0  0  0  0  0  0  0  0  0  0  # atno 17370 bound_to 10713
  156.5391  130.8292  151.3263 LP  0  0  0  0  0  0  0  0  0  0  0  0  # atno 17371 bound_to 10713
  139.8819  135.0034  156.6188 LP  0  0  0  0  0  0  0  0  0  0  0  0  # atno 17394 bound_to 11000
  140.7742  133.8713  155.8516 LP  0  0  0  0  0  0  0  0  0  0  0  0  # atno 17395 bound_to 11000

$$$$
