AV-unprocessed.smi:2024|AV-procd|sdf|8191|dock8
  -GOLD-   2272010443D 1   1.00000     0.00000
 Structure written by MMmdl.
 44 45  0  0  0  0  0  0  0  0  2 V2000
  146.7050  139.3182  151.5150 C   0  0  0  0  0  0  0  0  0  0  0  0
  146.5084  139.6889  152.9356 N   0  3  0  0  0  0  0  0  0  0  0  0
  147.4605  140.7103  153.4279 C   0  0  0  0  0  0  0  0  0  0  0  0
  148.8527  140.1031  153.6938 C   0  0  0  0  0  0  0  0  0  0  0  0
  148.7617  139.0187  154.6860 N   0  0  0  0  0  0  0  0  0  0  0  0
  150.0738  138.5318  155.1934 C   0  0  0  0  0  0  0  0  0  0  0  0
  150.9982  138.1795  153.9999 C   0  0  0  0  0  0  0  0  0  0  0  0
  150.7842  139.5967  156.0634 C   0  0  0  0  0  0  0  0  0  0  0  0
  149.8832  137.2408  156.0456 C   0  0  0  0  0  0  0  0  0  0  0  0
  149.1646  137.4759  157.2989 N   0  0  0  0  0  0  0  0  0  0  0  0
  149.1129  136.6343  158.3417 C   0  0  0  0  0  0  0  0  0  0  0  0
  149.6872  135.5456  158.3670 O   0  0  0  0  0  0  0  0  0  0  0  0
  148.3519  137.1343  159.3309 N   0  0  0  0  0  0  0  0  0  0  0  0
  148.0489  136.5474  160.5876 C   0  0  0  0  0  0  0  0  0  0  0  0
  147.8023  137.2406  161.7052 N   0  0  0  0  0  0  0  0  0  0  0  0
  147.5324  136.4049  162.7918 C   0  0  0  0  0  0  0  0  0  0  0  0
  147.5793  135.0685  162.4815 C   0  0  0  0  0  0  0  0  0  0  0  0
  147.9638  134.8049  160.8016 S   0  0  0  0  0  0  0  0  0  0  0  0
  147.8916  137.9752  154.1178 C   0  0  0  0  0  0  0  0  0  0  0  0
  146.4772  138.5327  153.8597 C   0  0  0  0  0  0  0  0  0  0  0  0
  147.6745  138.8503  151.3441 H   0  0  0  0  0  0  0  0  0  0  0  0
  146.6379  140.2010  150.8788 H   0  0  0  0  0  0  0  0  0  0  0  0
  145.9311  138.6206  151.1932 H   0  0  0  0  0  0  0  0  0  0  0  0
  147.5315  141.5298  152.7118 H   0  0  0  0  0  0  0  0  0  0  0  0
  147.0673  141.1407  154.3501 H   0  0  0  0  0  0  0  0  0  0  0  0
  149.2924  139.7418  152.7642 H   0  0  0  0  0  0  0  0  0  0  0  0
  149.4898  140.9095  154.0492 H   0  0  0  0  0  0  0  0  0  0  0  0
  151.8713  137.6169  154.3330 H   0  0  0  0  0  0  0  0  0  0  0  0
  151.3886  139.0640  153.4972 H   0  0  0  0  0  0  0  0  0  0  0  0
  150.4867  137.5698  153.2541 H   0  0  0  0  0  0  0  0  0  0  0  0
  151.7512  139.2277  156.4073 H   0  0  0  0  0  0  0  0  0  0  0  0
  150.2135  139.8517  156.9560 H   0  0  0  0  0  0  0  0  0  0  0  0
  150.9792  140.5183  155.5155 H   0  0  0  0  0  0  0  0  0  0  0  0
  149.3691  136.4814  155.4535 H   0  0  0  0  0  0  0  0  0  0  0  0
  150.8393  136.7787  156.2883 H   0  0  0  0  0  0  0  0  0  0  0  0
  148.6565  138.3449  157.3691 H   0  0  0  0  0  0  0  0  0  0  0  0
  147.9370  138.0390  159.1654 H   0  0  0  0  0  0  0  0  0  0  0  0
  147.3164  136.8473  163.7530 H   0  0  0  0  0  0  0  0  0  0  0  0
  147.4112  134.2266  163.1367 H   0  0  0  0  0  0  0  0  0  0  0  0
  148.3170  137.5744  153.1977 H   0  0  0  0  0  0  0  0  0  0  0  0
  147.7802  137.1382  154.8036 H   0  0  0  0  0  0  0  0  0  0  0  0
  146.0315  138.8508  154.8033 H   0  0  0  0  0  0  0  0  0  0  0  0
  145.8262  137.7543  153.4599 H   0  0  0  0  0  0  0  0  0  0  0  0
  145.5917  140.1108  152.9758 H   0  0  0  0  0  0  0  0  0  0  0  0
  1  2  1  0  0  0  0
  1 21  1  0  0  0  0
  1 22  1  0  0  0  0
  1 23  1  0  0  0  0
  2 20  1  0  0  0  0
  2  3  1  0  0  0  0
  2 44  1  0  0  0  0
  3  4  1  0  0  0  0
  3 24  1  0  0  0  0
  3 25  1  0  0  0  0
  4  5  1  0  0  0  0
  4 26  1  0  0  0  0
  4 27  1  0  0  0  0
  5  6  1  0  0  0  0
  5 19  1  0  0  0  0
  6  7  1  0  0  0  0
  6  8  1  0  0  0  0
  6  9  1  0  0  0  0
  7 28  1  0  0  0  0
  7 29  1  0  0  0  0
  7 30  1  0  0  0  0
  8 31  1  0  0  0  0
  8 32  1  0  0  0  0
  8 33  1  0  0  0  0
  9 10  1  0  0  0  0
  9 34  1  0  0  0  0
  9 35  1  0  0  0  0
 10 11  1  0  0  0  0
 10 36  1  0  0  0  0
 11 12  2  0  0  0  0
 11 13  1  0  0  0  0
 13 14  1  0  0  0  0
 13 37  1  0  0  0  0
 14 18  1  0  0  0  0
 14 15  2  0  0  0  0
 15 16  1  0  0  0  0
 16 17  2  0  0  0  0
 16 38  1  0  0  0  0
 17 18  1  0  0  0  0
 17 39  1  0  0  0  0
 19 20  1  0  0  0  0
 19 40  1  0  0  0  0
 19 41  1  0  0  0  0
 20 42  1  0  0  0  0
 20 43  1  0  0  0  0
M  CHG  1   2   1
M  END
> <s_m_source_file>
AV-unprocessed.smi

> <i_m_source_file_index>
2024

> <i_lp_mmshare_version>
43012

> <i_f3d_flags>
0

> <s_epik_input>
W0NIM11OMVtDSDJdW0NIMl1OKFtDSDJdW0NIMl0xKUMoW0NIM10pKFtDSDNdKVtDSDJdW05IXUMoPU8pW05IXWMybltjSF1bY0hdczI=

> <s_epik_cmdline>
J2VwaWtfcHl0aG9uJywgJy1waCcsICc3LjAnLCAnLXRuJywgJzgnLCAnLW1hJywgJzIwMCcsICctbWV0YWxfYmluZGluZycsICctaW1hZScsICc8aW5maWxlLm1hZT4nLCAnLW9tYWUnLCAnPG91dGZpbGUubWFlPic=

> <r_lp_tautomer_probability>
0.999

> <r_epik_Ionization_Penalty>
0.025257

> <r_epik_Ionization_Penalty_Charging>
0.0242302

> <r_epik_Ionization_Penalty_Neutral>
0.00102675

> <r_epik_State_Penalty>
0.128805

> <r_epik_Charging_Adjusted_Penalty>
0.153036

> <i_epik_Tot_Q>
1

> <i_epik_Tot_abs_Q>
1

> <r_epik_Metal_State_Penalty>
0.161314

> <b_epik_Metal_Only>
0

> <s_lp_Force_Field>
OPLS_2005

> <r_lp_Energy>
25.0383

> <b_lp_Chiralities_Consistent>
1

> <s_lp_Variant>
AV-unprocessed.smi:2024-1

> <Gold.Version>
5.8.1

> <Gold.Id.Protein>
6NUR|6NUR_protein|mol2

> <Gold.PLP.Fitness>
45.3009

> <Gold.PLP.PLP>
-32.1154

> <Gold.PLP.part.hbond>
-4.0000

> <Gold.PLP.part.metal>
0.0000

> <Gold.PLP.part.buried>
1.2188

> <Gold.PLP.part.nonpolar>
-28.8756

> <Gold.PLP.part.repulsive>
0.3242

> <Gold.PLP.ligand.clash>
0.0000

> <Gold.PLP.ligand.torsion>
0.5129

> <Gold.PLP.Chemscore.Hbond>
4.7280

> <Gold.PLP.Chemscore.CHOScore>
0.0000

> <Gold.PLP.Chemscore.Metal>
0.0000

> <Gold.Chemscore.Hbonds>
donor molecule, donor type, donor heavy atom, donor atom, acceptor molecule, acceptor atom, score
      L1  H     2    44       P1 10175  2.00
      P1  H  6896  6908       L1    12  1.00
      P1  H  6931  6943       L1    15  1.00
      P1  H  6934  6947       L1    15  0.66

> <Gold.PLP.Chemscore.Internal.Correction>
0.0273

> <Gold.Rescore>
     Score         DG    S(hbond)    S(metal)    S(lipo)     H(rot)  DE(clash)    DE(int)     intcor
     18.00     -20.18       2.84        0.00      79.52       1.60       1.49       0.69       ----

> <Gold.Chemscore.Fitness>
18.0024

> <Gold.Chemscore.DG>
-20.1795

> <Gold.Chemscore.ZeroCoef>
-5.4800

> <Gold.Chemscore.Hbond>
2.8410

> <Gold.Chemscore.Metal>
0.0000

> <Gold.Chemscore.Lipo>
79.5215

> <Gold.Chemscore.Internal_Hbond>
0.0000

> <Gold.Chemscore.DEClash>
1.4895

> <Gold.Chemscore.DEInternal>
0.6876

> <Gold.Chemscore.Rot>
1.5991

> <Gold.Chemscore.Internal.Correction>
   9.000000E+99

> <Gold.Chemscore.Hbonds>
donor molecule, donor type, donor heavy atom, donor atom, acceptor molecule, acceptor atom, score
      L1  H     2    44       P1 10175  0.94
      P1  H  6896  6908       L1    12  0.95
      P1  H  6931  6943       L1    15  0.52
      P1  H  6934  6947       L1    15  0.21

> <Gold.Chemscore.Hbond.Weighted>
-9.4891

> <Gold.Chemscore.Metal.Weighted>
-0.0000

> <Gold.Chemscore.Lipo.Weighted>
-9.3040

> <Gold.Chemscore.Internal_Hbond.Weighted>
0.0000

> <Gold.Chemscore.DEClash.Weighted>
1.4895

> <Gold.Chemscore.DEInternal.Weighted>
0.6876

> <Gold.Chemscore.Rot.Weighted>
4.0936

> <Gold.Chemscore.Internal.Correction.Weighted>
   9.000000E+99

> <Gold.Protein.RotatedTorsions>
[ 6907 6896 6895 6894 ] final  156.52 input  -60.11 | X-H torsion
[ 7974 7965 7964 7962 ] final   -0.72 input  175.53 | X-H torsion
[ 8008 7997 7996 7995 ] final   34.68 input   59.86 | X-H torsion
[ 10167 10162 10161 10158 ] final  -57.34 input  -65.29 | X-H torsion
[ 10718 10713 10712 10709 ] final   92.83 input   66.30 | X-H torsion
[ 10763 10752 10751 10750 ] final -122.01 input  -60.55 | X-H torsion
[ 11005 11000 10999 10996 ] final   42.45 input  -57.11 | X-H torsion

> <Gold.Protein.ActiveResidues>
 VAL166  LYS551  ARG553  GLY616  TRP617  ASP618  TYR619  PRO620  LYS621  CYS622 
 ASP623  PHE694  ASN695  SER759  ASP760  ASP761  ALA762  ILE779  LEU786  VAL792 
 PHE793  MET794  SER795  GLU796  ALA797  LYS798  CYS799  TRP800  GLU811  SER814 

> <Gold.Protein.RotatedAtoms>
  152.0285  133.3927  159.4287 H   0  0  0  0  0  0  0  0  0  0  0  0  # atno 6907 bound_to 6896
  150.6884  134.3547  159.4933 H   0  0  0  0  0  0  0  0  0  0  0  0  # atno 6908 bound_to 6896
  152.1330  134.9120  160.0608 H   0  0  0  0  0  0  0  0  0  0  0  0  # atno 6909 bound_to 6896
  146.2424  140.1313  142.8338 H   0  0  0  0  0  0  0  0  0  0  0  0  # atno 7974 bound_to 7965
  155.1587  140.3281  155.4416 H   0  0  0  0  0  0  0  0  0  0  0  0  # atno 8008 bound_to 7997
  156.2550  140.1964  156.6646 H   0  0  0  0  0  0  0  0  0  0  0  0  # atno 8009 bound_to 7997
  154.6421  140.0569  156.9843 H   0  0  0  0  0  0  0  0  0  0  0  0  # atno 8010 bound_to 7997
  140.6263  143.2440  151.5354 H   0  0  0  0  0  0  0  0  0  0  0  0  # atno 10167 bound_to 10162
  157.6957  131.0457  150.3941 H   0  0  0  0  0  0  0  0  0  0  0  0  # atno 10718 bound_to 10713
  154.8680  135.4148  154.2712 H   0  0  0  0  0  0  0  0  0  0  0  0  # atno 10763 bound_to 10752
  153.3622  135.7004  153.6709 H   0  0  0  0  0  0  0  0  0  0  0  0  # atno 10764 bound_to 10752
  153.5605  135.3611  155.2769 H   0  0  0  0  0  0  0  0  0  0  0  0  # atno 10765 bound_to 10752
  140.1738  134.4189  155.8241 H   0  0  0  0  0  0  0  0  0  0  0  0  # atno 11005 bound_to 11000
  145.0324  140.8881  143.5101 LP  0  0  0  0  0  0  0  0  0  0  0  0  # atno 17320 bound_to 7965
  145.1379  139.2590  143.5505 LP  0  0  0  0  0  0  0  0  0  0  0  0  # atno 17321 bound_to 7965
  139.5483  144.2462  152.1484 LP  0  0  0  0  0  0  0  0  0  0  0  0  # atno 17342 bound_to 10162
  140.1694  144.4950  150.6588 LP  0  0  0  0  0  0  0  0  0  0  0  0  # atno 17343 bound_to 10162
  156.4341  130.3978  149.6741 LP  0  0  0  0  0  0  0  0  0  0  0  0  # atno 17370 bound_to 10713
  156.3947  130.7645  151.2648 LP  0  0  0  0  0  0  0  0  0  0  0  0  # atno 17371 bound_to 10713
  141.2219  133.6968  156.7810 LP  0  0  0  0  0  0  0  0  0  0  0  0  # atno 17394 bound_to 11000
  140.2346  134.8660  157.3512 LP  0  0  0  0  0  0  0  0  0  0  0  0  # atno 17395 bound_to 11000

$$$$
