AV-unprocessed.smi:1143|AV-procd|sdf|4875|dock2
  -GOLD-   22720 3443D 1   1.00000     0.00000
 Structure written by MMmdl.
 35 36  0  0  0  0  0  0  0  0  1 V2000
  150.8737  130.3865  155.9195 C   0  0  0  0  0  0  0  0  0  0  0  0
  150.6136  131.8182  155.7465 N   0  0  0  0  0  0  0  0  0  0  0  0
  149.7592  132.2087  154.6970 C   0  0  0  0  0  0  0  0  0  0  0  0
  149.4577  133.5036  154.4568 C   0  0  0  0  0  0  0  0  0  0  0  0
  148.6037  133.9657  153.4455 N   0  0  0  0  0  0  0  0  0  0  0  0
  147.5794  133.3362  152.8322 C   0  0  0  0  0  0  0  0  0  0  0  0
  147.2456  132.1692  153.0263 O   0  0  0  0  0  0  0  0  0  0  0  0
  146.9355  134.0965  151.9274 N   0  0  0  0  0  0  0  0  0  0  0  0
  145.7906  133.7358  151.0877 C   0  0  0  0  0  0  0  0  0  0  0  0
  144.6551  133.1912  151.9665 C   0  0  0  0  0  0  0  0  0  0  0  0
  143.4945  132.6772  151.0989 C   0  0  0  0  0  0  0  0  0  0  0  0
  143.9653  131.6858  150.1920 O   0  0  0  0  0  0  0  0  0  0  0  0
  144.9375  132.1846  149.2797 C   0  0  0  0  0  0  0  0  0  0  0  0
  146.1784  132.6705  150.0462 C   0  0  0  0  0  0  0  0  0  0  0  0
  150.0464  134.4879  155.3396 C   0  0  0  0  0  0  0  0  0  0  0  0
  150.8641  134.1229  156.3459 C   0  0  0  0  0  0  0  0  0  0  0  0
  151.1924  132.7172  156.5943 C   0  0  0  0  0  0  0  0  0  0  0  0
  151.9400  132.3689  157.5085 O   0  0  0  0  0  0  0  0  0  0  0  0
  150.3374  129.7676  155.1996 H   0  0  0  0  0  0  0  0  0  0  0  0
  150.5704  130.0597  156.9153 H   0  0  0  0  0  0  0  0  0  0  0  0
  151.9374  130.1748  155.8019 H   0  0  0  0  0  0  0  0  0  0  0  0
  149.3693  131.3805  154.1272 H   0  0  0  0  0  0  0  0  0  0  0  0
  148.7918  134.9070  153.1333 H   0  0  0  0  0  0  0  0  0  0  0  0
  147.3153  135.0191  151.7707 H   0  0  0  0  0  0  0  0  0  0  0  0
  145.4164  134.6233  150.5735 H   0  0  0  0  0  0  0  0  0  0  0  0
  145.0248  132.3746  152.5883 H   0  0  0  0  0  0  0  0  0  0  0  0
  144.2977  133.9654  152.6465 H   0  0  0  0  0  0  0  0  0  0  0  0
  142.7221  132.2378  151.7302 H   0  0  0  0  0  0  0  0  0  0  0  0
  143.0273  133.4957  150.5489 H   0  0  0  0  0  0  0  0  0  0  0  0
  145.2135  131.3882  148.5885 H   0  0  0  0  0  0  0  0  0  0  0  0
  144.5107  132.9906  148.6808 H   0  0  0  0  0  0  0  0  0  0  0  0
  146.9136  133.0657  149.3446 H   0  0  0  0  0  0  0  0  0  0  0  0
  146.6480  131.8203  150.5430 H   0  0  0  0  0  0  0  0  0  0  0  0
  149.8311  135.5362  155.1912 H   0  0  0  0  0  0  0  0  0  0  0  0
  151.2879  134.8831  156.9852 H   0  0  0  0  0  0  0  0  0  0  0  0
  1  2  1  0  0  0  0
  1 19  1  0  0  0  0
  1 20  1  0  0  0  0
  1 21  1  0  0  0  0
  2 17  1  0  0  0  0
  2  3  1  0  0  0  0
  3  4  2  0  0  0  0
  3 22  1  0  0  0  0
  4  5  1  0  0  0  0
  4 15  1  0  0  0  0
  5  6  1  0  0  0  0
  5 23  1  0  0  0  0
  6  7  2  0  0  0  0
  6  8  1  0  0  0  0
  8  9  1  0  0  0  0
  8 24  1  0  0  0  0
  9 14  1  0  0  0  0
  9 10  1  0  0  0  0
  9 25  1  0  0  0  0
 10 11  1  0  0  0  0
 10 26  1  0  0  0  0
 10 27  1  0  0  0  0
 11 12  1  0  0  0  0
 11 28  1  0  0  0  0
 11 29  1  0  0  0  0
 12 13  1  0  0  0  0
 13 14  1  0  0  0  0
 13 30  1  0  0  0  0
 13 31  1  0  0  0  0
 14 32  1  0  0  0  0
 14 33  1  0  0  0  0
 15 16  2  0  0  0  0
 15 34  1  0  0  0  0
 16 17  1  0  0  0  0
 16 35  1  0  0  0  0
 17 18  2  0  0  0  0
M  END
> <s_m_source_file>
AV-unprocessed.smi

> <i_m_source_file_index>
1143

> <i_lp_mmshare_version>
43012

> <i_f3d_flags>
0

> <s_epik_input>
Tz1jMVtjSF1bY0hdYyhbY0hdbjFbQ0gzXSlbTkhdQyg9TylbTkhdW0NIXTJbQ0gyXVtDSDJdT1tDSDJdW0NIMl0y

> <s_epik_cmdline>
J2VwaWtfcHl0aG9uJywgJy1waCcsICc3LjAnLCAnLXRuJywgJzgnLCAnLW1hJywgJzIwMCcsICctbWV0YWxfYmluZGluZycsICctaW1hZScsICc8aW5maWxlLm1hZT4nLCAnLW9tYWUnLCAnPG91dGZpbGUubWFlPic=

> <r_lp_tautomer_probability>
1

> <r_epik_Ionization_Penalty>
2.54991e-05

> <r_epik_Ionization_Penalty_Charging>
5.93057e-06

> <r_epik_Ionization_Penalty_Neutral>
1.95685e-05

> <r_epik_State_Penalty>
-0

> <r_epik_Charging_Adjusted_Penalty>
5.93057e-06

> <i_epik_Tot_Q>
0

> <i_epik_Tot_abs_Q>
0

> <r_epik_Metal_State_Penalty>
-0

> <b_epik_Metal_Only>
0

> <s_lp_Force_Field>
OPLS_2005

> <r_lp_Energy>
32.4408

> <b_lp_Chiralities_Consistent>
1

> <s_lp_Variant>
AV-unprocessed.smi:1143-1

> <Gold.Version>
5.8.1

> <Gold.Id.Protein>
6NUR|6NUR_protein|mol2

> <Gold.PLP.Fitness>
43.1138

> <Gold.PLP.PLP>
-33.7805

> <Gold.PLP.part.hbond>
-4.0000

> <Gold.PLP.part.metal>
0.0000

> <Gold.PLP.part.buried>
-4.4168

> <Gold.PLP.part.nonpolar>
-26.5406

> <Gold.PLP.part.repulsive>
0.2953

> <Gold.PLP.ligand.clash>
0.0000

> <Gold.PLP.ligand.torsion>
0.1997

> <Gold.PLP.Chemscore.Hbond>
3.2439

> <Gold.PLP.Chemscore.CHOScore>
0.0000

> <Gold.PLP.Chemscore.Metal>
0.0000

> <Gold.Chemscore.Hbonds>
donor molecule, donor type, donor heavy atom, donor atom, acceptor molecule, acceptor atom, score
      L1  H     5    23       P1  7948  1.00
      L1  H     8    24       P1  7948  0.93
      P1  H  6896  6908       L1    18  1.00
      P1  H 10785 10796       L1    12  0.22

> <Gold.PLP.Chemscore.Internal.Correction>
0.0011

> <Gold.Rescore>
     Score         DG    S(hbond)    S(metal)    S(lipo)     H(rot)  DE(clash)    DE(int)     intcor
     17.42     -18.89       2.34        0.00      69.76       1.00       0.02       1.45       ----

> <Gold.Chemscore.Fitness>
17.4209

> <Gold.Chemscore.DG>
-18.8874

> <Gold.Chemscore.ZeroCoef>
-5.4800

> <Gold.Chemscore.Hbond>
2.3371

> <Gold.Chemscore.Metal>
0.0000

> <Gold.Chemscore.Lipo>
69.7558

> <Gold.Chemscore.Internal_Hbond>
0.0000

> <Gold.Chemscore.DEClash>
0.0162

> <Gold.Chemscore.DEInternal>
1.4503

> <Gold.Chemscore.Rot>
1.0000

> <Gold.Chemscore.Internal.Correction>
   9.000000E+99

> <Gold.Chemscore.Hbonds>
donor molecule, donor type, donor heavy atom, donor atom, acceptor molecule, acceptor atom, score
      L1  H     5    23       P1  7948  0.29
      L1  H     8    24       P1  7948  0.76
      P1  H  6896  6908       L1    18  0.88
      P1  H 10785 10796       L1    12  0.02

> <Gold.Chemscore.Hbond.Weighted>
-7.8060

> <Gold.Chemscore.Metal.Weighted>
-0.0000

> <Gold.Chemscore.Lipo.Weighted>
-8.1614

> <Gold.Chemscore.Internal_Hbond.Weighted>
0.0000

> <Gold.Chemscore.DEClash.Weighted>
0.0162

> <Gold.Chemscore.DEInternal.Weighted>
1.4503

> <Gold.Chemscore.Rot.Weighted>
2.5600

> <Gold.Chemscore.Internal.Correction.Weighted>
   9.000000E+99

> <Gold.Protein.RotatedTorsions>
[ 6907 6896 6895 6894 ] final   48.24 input  -60.11 | X-H torsion
[ 7974 7965 7964 7962 ] final  -70.15 input  175.53 | X-H torsion
[ 8008 7997 7996 7995 ] final  -17.51 input   59.86 | X-H torsion
[ 10167 10162 10161 10158 ] final  111.90 input  -65.29 | X-H torsion
[ 10718 10713 10712 10709 ] final -161.20 input   66.30 | X-H torsion
[ 10763 10752 10751 10750 ] final -178.07 input  -60.55 | X-H torsion
[ 11005 11000 10999 10996 ] final -126.00 input  -57.11 | X-H torsion

> <Gold.Protein.ActiveResidues>
 VAL166  LYS551  ARG553  GLY616  TRP617  ASP618  TYR619  PRO620  LYS621  CYS622 
 ASP623  PHE694  ASN695  SER759  ASP760  ASP761  ALA762  ILE779  LEU786  VAL792 
 PHE793  MET794  SER795  GLU796  ALA797  LYS798  CYS799  TRP800  GLU811  SER814 

> <Gold.Protein.RotatedAtoms>
  152.2773  134.7868  160.0403 H   0  0  0  0  0  0  0  0  0  0  0  0  # atno 6907 bound_to 6896
  151.8459  133.3426  159.3666 H   0  0  0  0  0  0  0  0  0  0  0  0  # atno 6908 bound_to 6896
  150.7175  134.5274  159.5728 H   0  0  0  0  0  0  0  0  0  0  0  0  # atno 6909 bound_to 6896
  145.6946  140.9140  143.0763 H   0  0  0  0  0  0  0  0  0  0  0  0  # atno 7974 bound_to 7965
  154.4973  140.2140  155.9421 H   0  0  0  0  0  0  0  0  0  0  0  0  # atno 8008 bound_to 7997
  156.1387  140.3183  155.8429 H   0  0  0  0  0  0  0  0  0  0  0  0  # atno 8009 bound_to 7997
  155.4161  140.0494  157.3019 H   0  0  0  0  0  0  0  0  0  0  0  0  # atno 8010 bound_to 7997
  139.6576  144.7129  151.1927 H   0  0  0  0  0  0  0  0  0  0  0  0  # atno 10167 bound_to 10162
  156.5929  130.8778  151.2894 H   0  0  0  0  0  0  0  0  0  0  0  0  # atno 10718 bound_to 10713
  154.5523  135.2814  155.0997 H   0  0  0  0  0  0  0  0  0  0  0  0  # atno 10763 bound_to 10752
  154.2438  135.6352  153.5220 H   0  0  0  0  0  0  0  0  0  0  0  0  # atno 10764 bound_to 10752
  153.0006  135.5566  154.6093 H   0  0  0  0  0  0  0  0  0  0  0  0  # atno 10765 bound_to 10752
  140.9717  134.0797  157.3862 H   0  0  0  0  0  0  0  0  0  0  0  0  # atno 11005 bound_to 11000
  144.6986  139.8867  143.7450 LP  0  0  0  0  0  0  0  0  0  0  0  0  # atno 17320 bound_to 7965
  146.0851  139.3840  143.0440 LP  0  0  0  0  0  0  0  0  0  0  0  0  # atno 17321 bound_to 7965
  140.7566  143.6047  150.8665 LP  0  0  0  0  0  0  0  0  0  0  0  0  # atno 17342 bound_to 10162
  139.9701  143.6066  152.2976 LP  0  0  0  0  0  0  0  0  0  0  0  0  # atno 17343 bound_to 10162
  157.7299  130.9678  150.1809 LP  0  0  0  0  0  0  0  0  0  0  0  0  # atno 17370 bound_to 10713
  156.2534  130.3703  149.8207 LP  0  0  0  0  0  0  0  0  0  0  0  0  # atno 17371 bound_to 10713
  139.8915  135.0118  156.6793 LP  0  0  0  0  0  0  0  0  0  0  0  0  # atno 17394 bound_to 11000
  140.7319  133.9051  155.8217 LP  0  0  0  0  0  0  0  0  0  0  0  0  # atno 17395 bound_to 11000

$$$$
