AV-unprocessed.smi:916|AV-procd|sdf|4159|dock9
  -GOLD-   22720 2 63D 1   1.00000     0.00000
 Structure written by MMmdl.
 43 44  0  0  0  0  0  0  0  0  1 V2000
  145.4296  132.0840  149.2641 C   0  0  0  0  0  0  0  0  0  0  0  0
  144.5747  131.9908  150.5329 C   0  0  0  0  0  0  0  0  0  0  0  0
  144.4775  133.3024  151.2514 C   0  0  0  0  0  0  0  0  0  0  0  0
  143.3307  133.9247  151.6809 C   0  0  0  0  0  0  0  0  0  0  0  0
  143.6662  135.4405  152.4740 S   0  0  0  0  0  0  0  0  0  0  0  0
  145.3771  135.1688  152.1837 C   0  0  0  0  0  0  0  0  0  0  0  0
  146.3669  136.0958  152.6027 N   0  0  0  0  0  0  0  0  0  0  0  0
  146.2407  137.1034  153.4842 C   0  0  0  0  0  0  0  0  0  0  0  0
  145.2138  137.3855  154.1023 O   0  0  0  0  0  0  0  0  0  0  0  0
  147.3896  137.7794  153.6167 N   0  0  0  0  0  0  0  0  0  0  0  0
  147.5700  138.9316  154.4913 C   0  0  0  0  0  0  0  0  0  0  0  0
  148.1515  140.1391  153.7206 C   0  0  1  0  0  0  0  0  0  0  0  0
  147.0673  141.0506  153.1602 C   0  0  0  0  0  0  0  0  0  0  0  0
  146.7812  142.0171  154.3119 C   0  0  0  0  0  0  0  0  0  0  0  0
  147.8715  141.8845  155.2192 O   0  0  0  0  0  0  0  0  0  0  0  0
  148.9159  141.1478  154.5962 C   0  0  1  0  0  0  0  0  0  0  0  0
  149.9089  140.5821  155.6371 C   0  0  0  0  0  0  0  0  0  0  0  0
  150.6382  141.7160  156.3760 C   0  0  0  0  0  0  0  0  0  0  0  0
  150.9340  139.6341  154.9915 C   0  0  0  0  0  0  0  0  0  0  0  0
  145.6393  134.0225  151.5461 N   0  0  0  0  0  0  0  0  0  0  0  0
  145.4798  131.1198  148.7580 H   0  0  0  0  0  0  0  0  0  0  0  0
  146.4497  132.3901  149.4980 H   0  0  0  0  0  0  0  0  0  0  0  0
  145.0151  132.8082  148.5624 H   0  0  0  0  0  0  0  0  0  0  0  0
  143.5785  131.6351  150.2676 H   0  0  0  0  0  0  0  0  0  0  0  0
  144.9950  131.2333  151.1954 H   0  0  0  0  0  0  0  0  0  0  0  0
  142.3113  133.5835  151.5789 H   0  0  0  0  0  0  0  0  0  0  0  0
  147.2770  135.9774  152.1827 H   0  0  0  0  0  0  0  0  0  0  0  0
  148.1884  137.4840  153.0751 H   0  0  0  0  0  0  0  0  0  0  0  0
  146.6170  139.1976  154.9520 H   0  0  0  0  0  0  0  0  0  0  0  0
  148.2397  138.6324  155.2975 H   0  0  0  0  0  0  0  0  0  0  0  0
  148.7916  139.7697  152.9183 H   0  0  0  0  0  0  0  0  0  0  0  0
  147.4644  141.6070  152.3099 H   0  0  0  0  0  0  0  0  0  0  0  0
  146.1737  140.5285  152.8179 H   0  0  0  0  0  0  0  0  0  0  0  0
  146.6959  143.0443  153.9570 H   0  0  0  0  0  0  0  0  0  0  0  0
  145.8567  141.7578  154.8282 H   0  0  0  0  0  0  0  0  0  0  0  0
  149.4523  141.8378  153.9412 H   0  0  0  0  0  0  0  0  0  0  0  0
  149.3518  140.0209  156.3876 H   0  0  0  0  0  0  0  0  0  0  0  0
  151.2130  142.3344  155.6861 H   0  0  0  0  0  0  0  0  0  0  0  0
  151.3282  141.3193  157.1213 H   0  0  0  0  0  0  0  0  0  0  0  0
  149.9357  142.3656  156.8987 H   0  0  0  0  0  0  0  0  0  0  0  0
  151.5246  140.1492  154.2332 H   0  0  0  0  0  0  0  0  0  0  0  0
  150.4520  138.7821  154.5127 H   0  0  0  0  0  0  0  0  0  0  0  0
  151.6244  139.2377  155.7361 H   0  0  0  0  0  0  0  0  0  0  0  0
  1  2  1  0  0  0  0
  1 21  1  0  0  0  0
  1 22  1  0  0  0  0
  1 23  1  0  0  0  0
  2  3  1  0  0  0  0
  2 24  1  0  0  0  0
  2 25  1  0  0  0  0
  3 20  1  0  0  0  0
  3  4  2  0  0  0  0
  4  5  1  0  0  0  0
  4 26  1  0  0  0  0
  5  6  1  0  0  0  0
  6  7  1  0  0  0  0
  6 20  2  0  0  0  0
  7  8  1  0  0  0  0
  7 27  1  0  0  0  0
  8  9  2  0  0  0  0
  8 10  1  0  0  0  0
 10 11  1  0  0  0  0
 10 28  1  0  0  0  0
 11 12  1  0  0  0  0
 11 29  1  0  0  0  0
 11 30  1  0  0  0  0
 12 16  1  0  0  0  0
 12 13  1  0  0  0  0
 12 31  1  0  0  0  0
 13 14  1  0  0  0  0
 13 32  1  0  0  0  0
 13 33  1  0  0  0  0
 14 15  1  0  0  0  0
 14 34  1  0  0  0  0
 14 35  1  0  0  0  0
 15 16  1  0  0  0  0
 16 17  1  0  0  0  0
 16 36  1  0  0  0  0
 17 18  1  0  0  0  0
 17 19  1  0  0  0  0
 17 37  1  0  0  0  0
 18 38  1  0  0  0  0
 18 39  1  0  0  0  0
 18 40  1  0  0  0  0
 19 41  1  0  0  0  0
 19 42  1  0  0  0  0
 19 43  1  0  0  0  0
M  END
> <s_m_source_file>
AV-unprocessed.smi

> <i_m_source_file_index>
916

> <i_lp_mmshare_version>
43012

> <i_f3d_flags>
0

> <s_epik_input>
W0NIM11bQ0gyXWMxW2NIXXNjKG4xKVtOSF1DKD1PKVtOSF1bQ0gyXVtDQEBIXTJbQ0gyXVtDSDJdT1tDQEhdMltDSF0oW0NIM10pW0NIM10=

> <s_epik_cmdline>
J2VwaWtfcHl0aG9uJywgJy1waCcsICc3LjAnLCAnLXRuJywgJzgnLCAnLW1hJywgJzIwMCcsICctbWV0YWxfYmluZGluZycsICctaW1hZScsICc8aW5maWxlLm1hZT4nLCAnLW9tYWUnLCAnPG91dGZpbGUubWFlPic=

> <r_lp_tautomer_probability>
0.999

> <r_epik_Ionization_Penalty>
0.000518907

> <r_epik_Ionization_Penalty_Charging>
0

> <r_epik_Ionization_Penalty_Neutral>
0.000518907

> <r_epik_State_Penalty>
0.000177984

> <r_epik_Charging_Adjusted_Penalty>
0.000177984

> <i_epik_Tot_Q>
0

> <i_epik_Tot_abs_Q>
0

> <r_epik_Metal_State_Penalty>
-0

> <b_epik_Metal_Only>
0

> <s_lp_Force_Field>
OPLS_2005

> <r_lp_Energy>
19.5432

> <b_lp_Chiralities_Consistent>
1

> <s_lp_Variant>
AV-unprocessed.smi:916-2

> <Gold.Version>
5.8.1

> <Gold.Id.Protein>
6NUR|6NUR_protein|mol2

> <Gold.PLP.Fitness>
41.9117

> <Gold.PLP.PLP>
-34.6764

> <Gold.PLP.part.hbond>
-2.0000

> <Gold.PLP.part.metal>
0.0000

> <Gold.PLP.part.buried>
-2.4231

> <Gold.PLP.part.nonpolar>
-30.6406

> <Gold.PLP.part.repulsive>
1.0498

> <Gold.PLP.ligand.clash>
0.0000

> <Gold.PLP.ligand.torsion>
0.5320

> <Gold.PLP.Chemscore.Hbond>
1.9920

> <Gold.PLP.Chemscore.CHOScore>
0.7515

> <Gold.PLP.Chemscore.Metal>
0.0000

> <Gold.Chemscore.Hbonds>
donor molecule, donor type, donor heavy atom, donor atom, acceptor molecule, acceptor atom, score
      L1  H     7    27       P1  7948  1.00
      L1  H    10    28       P1  7948  0.99
      L1  C     4    26       P1 10186  0.74

> <Gold.PLP.Chemscore.Internal.Correction>
0.0689

> <Gold.Rescore>
     Score         DG    S(hbond)    S(metal)    S(lipo)     H(rot)  DE(clash)    DE(int)     intcor
     16.80     -18.56       1.94        0.00      89.90       1.52       0.23       1.53       ----

> <Gold.Chemscore.Fitness>
16.8045

> <Gold.Chemscore.DG>
-18.5648

> <Gold.Chemscore.ZeroCoef>
-5.4800

> <Gold.Chemscore.Hbond>
1.9362

> <Gold.Chemscore.Metal>
0.0000

> <Gold.Chemscore.Lipo>
89.9025

> <Gold.Chemscore.Internal_Hbond>
0.0000

> <Gold.Chemscore.DEClash>
0.2268

> <Gold.Chemscore.DEInternal>
1.5335

> <Gold.Chemscore.Rot>
1.5238

> <Gold.Chemscore.Internal.Correction>
   9.000000E+99

> <Gold.Chemscore.Hbonds>
donor molecule, donor type, donor heavy atom, donor atom, acceptor molecule, acceptor atom, score
      L1  H     7    27       P1  7948  1.00
      L1  H    10    28       P1  7948  0.93

> <Gold.Chemscore.Hbond.Weighted>
-6.4670

> <Gold.Chemscore.Metal.Weighted>
-0.0000

> <Gold.Chemscore.Lipo.Weighted>
-10.5186

> <Gold.Chemscore.Internal_Hbond.Weighted>
0.0000

> <Gold.Chemscore.DEClash.Weighted>
0.2268

> <Gold.Chemscore.DEInternal.Weighted>
1.5335

> <Gold.Chemscore.Rot.Weighted>
3.9008

> <Gold.Chemscore.Internal.Correction.Weighted>
   9.000000E+99

> <Gold.Protein.RotatedTorsions>
[ 6907 6896 6895 6894 ] final  -58.21 input  -60.11 | X-H torsion
[ 7974 7965 7964 7962 ] final  -11.61 input  175.53 | X-H torsion
[ 8008 7997 7996 7995 ] final   52.35 input   59.86 | X-H torsion
[ 10167 10162 10161 10158 ] final -143.30 input  -65.29 | X-H torsion
[ 10718 10713 10712 10709 ] final  153.47 input   66.30 | X-H torsion
[ 10763 10752 10751 10750 ] final  -35.24 input  -60.55 | X-H torsion
[ 11005 11000 10999 10996 ] final  -47.77 input  -57.11 | X-H torsion

> <Gold.Protein.ActiveResidues>
 VAL166  LYS551  ARG553  GLY616  TRP617  ASP618  TYR619  PRO620  LYS621  CYS622 
 ASP623  PHE694  ASN695  SER759  ASP760  ASP761  ALA762  ILE779  LEU786  VAL792 
 PHE793  MET794  SER795  GLU796  ALA797  LYS798  CYS799  TRP800  GLU811  SER814 

> <Gold.Protein.RotatedAtoms>
  150.8025  134.7128  159.6612 H   0  0  0  0  0  0  0  0  0  0  0  0  # atno 6907 bound_to 6896
  152.4142  134.6067  160.0024 H   0  0  0  0  0  0  0  0  0  0  0  0  # atno 6908 bound_to 6896
  151.6301  133.3295  159.3143 H   0  0  0  0  0  0  0  0  0  0  0  0  # atno 6909 bound_to 6896
  146.2181  140.2936  142.8370 H   0  0  0  0  0  0  0  0  0  0  0  0  # atno 7974 bound_to 7965
  155.4503  140.3458  155.4300 H   0  0  0  0  0  0  0  0  0  0  0  0  # atno 8008 bound_to 7997
  156.1224  140.1491  156.9215 H   0  0  0  0  0  0  0  0  0  0  0  0  # atno 8009 bound_to 7997
  154.4833  140.0863  156.7408 H   0  0  0  0  0  0  0  0  0  0  0  0  # atno 8010 bound_to 7997
  139.8006  143.7838  152.2658 H   0  0  0  0  0  0  0  0  0  0  0  0  # atno 10167 bound_to 10162
  157.2443  131.0765  151.1772 H   0  0  0  0  0  0  0  0  0  0  0  0  # atno 10718 bound_to 10713
  153.8599  135.6841  153.4784 H   0  0  0  0  0  0  0  0  0  0  0  0  # atno 10763 bound_to 10752
  153.1348  135.4682  154.9402 H   0  0  0  0  0  0  0  0  0  0  0  0  # atno 10764 bound_to 10752
  154.7763  135.3254  154.8034 H   0  0  0  0  0  0  0  0  0  0  0  0  # atno 10765 bound_to 10752
  141.0660  133.6693  156.3345 H   0  0  0  0  0  0  0  0  0  0  0  0  # atno 11005 bound_to 11000
  144.9109  140.7755  143.5808 LP  0  0  0  0  0  0  0  0  0  0  0  0  # atno 17320 bound_to 7965
  145.2867  139.1898  143.4762 LP  0  0  0  0  0  0  0  0  0  0  0  0  # atno 17321 bound_to 7965
  139.7957  144.7393  150.9893 LP  0  0  0  0  0  0  0  0  0  0  0  0  # atno 17342 bound_to 10162
  140.7820  143.4396  151.0572 LP  0  0  0  0  0  0  0  0  0  0  0  0  # atno 17343 bound_to 10162
  157.3346  130.7002  149.6345 LP  0  0  0  0  0  0  0  0  0  0  0  0  # atno 17370 bound_to 10713
  155.9668  130.4297  150.4846 LP  0  0  0  0  0  0  0  0  0  0  0  0  # atno 17371 bound_to 10713
  140.5771  134.5782  157.5471 LP  0  0  0  0  0  0  0  0  0  0  0  0  # atno 17394 bound_to 11000
  139.9477  134.7672  156.0522 LP  0  0  0  0  0  0  0  0  0  0  0  0  # atno 17395 bound_to 11000

$$$$
