AV-unprocessed.smi:3075|AV-procd|sdf|11723|dock3
  -GOLD-   2272017123D 1   1.00000     0.00000
 Structure written by MMmdl.
 30 31  0  0  0  0  0  0  0  0  2 V2000
  149.2710  142.8977  157.4972 N   0  3  0  0  0  0  0  0  0  0  0  0
  149.9869  141.7203  156.9786 C   0  0  0  0  0  0  0  0  0  0  0  0
  151.2376  141.4387  157.7981 C   0  0  0  0  0  0  0  0  0  0  0  0
  151.6588  142.3767  158.7651 C   0  0  0  0  0  0  0  0  0  0  0  0
  152.8055  142.1048  159.5326 C   0  0  0  0  0  0  0  0  0  0  0  0
  153.4904  140.8976  159.3039 C   0  0  0  0  0  0  0  0  0  0  0  0
  153.0997  139.9912  158.3841 N   0  0  0  0  0  0  0  0  0  0  0  0
  151.9965  140.2487  157.6404 C   0  0  0  0  0  0  0  0  0  0  0  0
  151.6247  139.2925  156.6791 N   0  0  0  0  0  0  0  0  0  0  0  0
  152.5002  139.2940  155.5138 C   0  0  0  0  0  0  0  0  0  0  0  0
  151.9221  138.3776  154.4217 C   0  0  0  0  0  0  0  0  0  0  0  0
  151.7204  137.0696  154.9500 O   0  0  0  0  0  0  0  0  0  0  0  0
  150.8110  137.0660  156.0470 C   0  0  0  0  0  0  0  0  0  0  0  0
  151.3683  137.9455  157.1791 C   0  0  0  0  0  0  0  0  0  0  0  0
  149.7417  143.2433  158.3214 H   0  0  0  0  0  0  0  0  0  0  0  0
  148.3236  142.6397  157.7333 H   0  0  0  0  0  0  0  0  0  0  0  0
  149.3186  140.8597  156.9781 H   0  0  0  0  0  0  0  0  0  0  0  0
  150.2578  141.9041  155.9384 H   0  0  0  0  0  0  0  0  0  0  0  0
  151.1099  143.2940  158.9208 H   0  0  0  0  0  0  0  0  0  0  0  0
  153.1520  142.8039  160.2796 H   0  0  0  0  0  0  0  0  0  0  0  0
  154.3743  140.6529  159.8737 H   0  0  0  0  0  0  0  0  0  0  0  0
  152.6209  140.3065  155.1278 H   0  0  0  0  0  0  0  0  0  0  0  0
  153.4913  138.9446  155.8072 H   0  0  0  0  0  0  0  0  0  0  0  0
  150.9805  138.7750  154.0393 H   0  0  0  0  0  0  0  0  0  0  0  0
  152.6092  138.3180  153.5778 H   0  0  0  0  0  0  0  0  0  0  0  0
  149.8320  137.4225  155.7227 H   0  0  0  0  0  0  0  0  0  0  0  0
  150.6784  136.0419  156.3958 H   0  0  0  0  0  0  0  0  0  0  0  0
  152.2916  137.5071  157.5607 H   0  0  0  0  0  0  0  0  0  0  0  0
  150.6605  137.9861  158.0077 H   0  0  0  0  0  0  0  0  0  0  0  0
  149.2567  143.6192  156.7904 H   0  0  0  0  0  0  0  0  0  0  0  0
  1  2  1  0  0  0  0
  1 15  1  0  0  0  0
  1 16  1  0  0  0  0
  1 30  1  0  0  0  0
  2  3  1  0  0  0  0
  2 17  1  0  0  0  0
  2 18  1  0  0  0  0
  3  8  1  0  0  0  0
  3  4  2  0  0  0  0
  4  5  1  0  0  0  0
  4 19  1  0  0  0  0
  5  6  2  0  0  0  0
  5 20  1  0  0  0  0
  6  7  1  0  0  0  0
  6 21  1  0  0  0  0
  7  8  2  0  0  0  0
  8  9  1  0  0  0  0
  9 14  1  0  0  0  0
  9 10  1  0  0  0  0
 10 11  1  0  0  0  0
 10 22  1  0  0  0  0
 10 23  1  0  0  0  0
 11 12  1  0  0  0  0
 11 24  1  0  0  0  0
 11 25  1  0  0  0  0
 12 13  1  0  0  0  0
 13 14  1  0  0  0  0
 13 26  1  0  0  0  0
 13 27  1  0  0  0  0
 14 28  1  0  0  0  0
 14 29  1  0  0  0  0
M  CHG  1   1   1
M  END
> <s_m_source_file>
AV-unprocessed.smi

> <i_m_source_file_index>
3075

> <i_lp_mmshare_version>
43012

> <i_f3d_flags>
0

> <s_epik_input>
W05IMl1bQ0gyXWMxW2NIXVtjSF1bY0hdbmMxTjJbQ0gyXVtDSDJdT1tDSDJdW0NIMl0y

> <s_epik_cmdline>
J2VwaWtfcHl0aG9uJywgJy1waCcsICc3LjAnLCAnLXRuJywgJzgnLCAnLW1hJywgJzIwMCcsICctbWV0YWxfYmluZGluZycsICctaW1hZScsICc8aW5maWxlLm1hZT4nLCAnLW9tYWUnLCAnPG91dGZpbGUubWFlPic=

> <r_lp_tautomer_probability>
1

> <r_epik_Ionization_Penalty>
0.0619672

> <r_epik_Ionization_Penalty_Charging>
0.0611992

> <r_epik_Ionization_Penalty_Neutral>
0.000768062

> <r_epik_State_Penalty>
0.0535001

> <r_epik_Charging_Adjusted_Penalty>
0.114699

> <i_epik_Tot_Q>
1

> <i_epik_Tot_abs_Q>
1

> <r_epik_Metal_State_Penalty>
0.053574

> <b_epik_Metal_Only>
0

> <s_lp_Force_Field>
OPLS_2005

> <r_lp_Energy>
18.0321

> <b_lp_Chiralities_Consistent>
1

> <s_lp_Variant>
AV-unprocessed.smi:3075-1

> <Gold.Version>
5.8.1

> <Gold.Id.Protein>
6NUR|6NUR_protein|mol2

> <Gold.PLP.Fitness>
35.4709

> <Gold.PLP.PLP>
-23.8508

> <Gold.PLP.part.hbond>
-3.0000

> <Gold.PLP.part.metal>
0.0000

> <Gold.PLP.part.buried>
-3.0260

> <Gold.PLP.part.nonpolar>
-17.2897

> <Gold.PLP.part.repulsive>
0.1455

> <Gold.PLP.ligand.clash>
0.0000

> <Gold.PLP.ligand.torsion>
0.2589

> <Gold.PLP.Chemscore.Hbond>
4.0000

> <Gold.PLP.Chemscore.CHOScore>
0.0000

> <Gold.PLP.Chemscore.Metal>
0.0000

> <Gold.Chemscore.Hbonds>
donor molecule, donor type, donor heavy atom, donor atom, acceptor molecule, acceptor atom, score
      L1  H     1    30       P1  8028  2.00
      P1  H  7997  8009       L1     7  1.00
      P1  H 10752 10763       L1    12  1.00

> <Gold.PLP.Chemscore.Internal.Correction>
0.1380

> <Gold.Rescore>
     Score         DG    S(hbond)    S(metal)    S(lipo)     H(rot)  DE(clash)    DE(int)     intcor
     16.71     -16.98       2.17        0.00      65.18       1.32       0.08       0.19       ----

> <Gold.Chemscore.Fitness>
16.7054

> <Gold.Chemscore.DG>
-16.9788

> <Gold.Chemscore.ZeroCoef>
-5.4800

> <Gold.Chemscore.Hbond>
2.1680

> <Gold.Chemscore.Metal>
0.0000

> <Gold.Chemscore.Lipo>
65.1819

> <Gold.Chemscore.Internal_Hbond>
0.0000

> <Gold.Chemscore.DEClash>
0.0803

> <Gold.Chemscore.DEInternal>
0.1931

> <Gold.Chemscore.Rot>
1.3158

> <Gold.Chemscore.Internal.Correction>
   9.000000E+99

> <Gold.Chemscore.Hbonds>
donor molecule, donor type, donor heavy atom, donor atom, acceptor molecule, acceptor atom, score
      L1  H     1    30       P1  8028  0.90
      P1  H  7997  8009       L1     7  0.14
      P1  H 10752 10763       L1    12  0.93

> <Gold.Chemscore.Hbond.Weighted>
-7.2410

> <Gold.Chemscore.Metal.Weighted>
-0.0000

> <Gold.Chemscore.Lipo.Weighted>
-7.6263

> <Gold.Chemscore.Internal_Hbond.Weighted>
0.0000

> <Gold.Chemscore.DEClash.Weighted>
0.0803

> <Gold.Chemscore.DEInternal.Weighted>
0.1931

> <Gold.Chemscore.Rot.Weighted>
3.3684

> <Gold.Chemscore.Internal.Correction.Weighted>
   9.000000E+99

> <Gold.Protein.RotatedTorsions>
[ 6907 6896 6895 6894 ] final   68.14 input  -60.11 | X-H torsion
[ 7974 7965 7964 7962 ] final  106.35 input  175.53 | X-H torsion
[ 8008 7997 7996 7995 ] final  150.27 input   59.86 | X-H torsion
[ 10167 10162 10161 10158 ] final  139.62 input  -65.29 | X-H torsion
[ 10718 10713 10712 10709 ] final   26.35 input   66.30 | X-H torsion
[ 10763 10752 10751 10750 ] final   49.38 input  -60.55 | X-H torsion
[ 11005 11000 10999 10996 ] final  128.97 input  -57.11 | X-H torsion

> <Gold.Protein.ActiveResidues>
 VAL166  LYS551  ARG553  GLY616  TRP617  ASP618  TYR619  PRO620  LYS621  CYS622 
 ASP623  PHE694  ASN695  SER759  ASP760  ASP761  ALA762  ILE779  LEU786  VAL792 
 PHE793  MET794  SER795  GLU796  ALA797  LYS798  CYS799  TRP800  GLU811  SER814 

> <Gold.Protein.RotatedAtoms>
  152.4600  134.5205  159.9780 H   0  0  0  0  0  0  0  0  0  0  0  0  # atno 6907 bound_to 6896
  151.5256  133.3452  159.2917 H   0  0  0  0  0  0  0  0  0  0  0  0  # atno 6908 bound_to 6896
  150.8559  134.7928  159.7108 H   0  0  0  0  0  0  0  0  0  0  0  0  # atno 6909 bound_to 6896
  145.3078  139.2549  143.3779 H   0  0  0  0  0  0  0  0  0  0  0  0  # atno 7974 bound_to 7965
  156.2722  140.2079  156.5991 H   0  0  0  0  0  0  0  0  0  0  0  0  # atno 8008 bound_to 7997
  154.6921  140.0529  157.0397 H   0  0  0  0  0  0  0  0  0  0  0  0  # atno 8009 bound_to 7997
  155.0852  140.3191  155.4593 H   0  0  0  0  0  0  0  0  0  0  0  0  # atno 8010 bound_to 7997
  139.5073  144.6284  151.5880 H   0  0  0  0  0  0  0  0  0  0  0  0  # atno 10167 bound_to 10162
  157.2056  130.6910  149.6207 H   0  0  0  0  0  0  0  0  0  0  0  0  # atno 10718 bound_to 10713
  152.9787  135.5913  154.4080 H   0  0  0  0  0  0  0  0  0  0  0  0  # atno 10763 bound_to 10752
  154.3718  135.2767  155.2264 H   0  0  0  0  0  0  0  0  0  0  0  0  # atno 10764 bound_to 10752
  154.4215  135.6058  153.6068 H   0  0  0  0  0  0  0  0  0  0  0  0  # atno 10765 bound_to 10752
  139.9590  134.9607  156.9080 H   0  0  0  0  0  0  0  0  0  0  0  0  # atno 11005 bound_to 11000
  146.3129  140.3607  142.8664 LP  0  0  0  0  0  0  0  0  0  0  0  0  # atno 17320 bound_to 7965
  144.9040  140.7677  143.5849 LP  0  0  0  0  0  0  0  0  0  0  0  0  # atno 17321 bound_to 7965
  140.6008  143.9613  150.6385 LP  0  0  0  0  0  0  0  0  0  0  0  0  # atno 17342 bound_to 10162
  140.2824  143.3380  152.1139 LP  0  0  0  0  0  0  0  0  0  0  0  0  # atno 17343 bound_to 10162
  155.9696  130.4568  150.5939 LP  0  0  0  0  0  0  0  0  0  0  0  0  # atno 17370 bound_to 10713
  157.3723  131.0767  151.1547 LP  0  0  0  0  0  0  0  0  0  0  0  0  # atno 17371 bound_to 10713
  140.5544  134.0596  155.7379 LP  0  0  0  0  0  0  0  0  0  0  0  0  # atno 17394 bound_to 11000
  141.1265  133.9375  157.2625 LP  0  0  0  0  0  0  0  0  0  0  0  0  # atno 17395 bound_to 11000

$$$$
