AV-unprocessed.smi:3337|AV-procd|sdf|12862|dock5
  -GOLD-   2272019263D 1   1.00000     0.00000
 Structure written by MMmdl.
 46 47  0  0  0  0  0  0  0  0  2 V2000
  145.6104  136.6378  151.8226 C   0  0  0  0  0  0  0  0  0  0  0  0
  144.5163  135.5917  151.5669 C   0  0  1  0  0  0  0  0  0  0  0  0
  144.8396  134.7334  150.3317 C   0  0  0  0  0  0  0  0  0  0  0  0
  143.7595  133.6605  150.1082 C   0  0  1  0  0  0  0  0  0  0  0  0
  144.0862  132.7845  148.8906 C   0  0  0  0  0  0  0  0  0  0  0  0
  143.5872  132.8098  151.3843 C   0  0  0  0  0  0  0  0  0  0  0  0
  143.2687  133.6413  152.5749 N   0  3  2  0  0  0  0  0  0  0  0  0
  141.8642  134.1305  152.5996 C   0  0  0  0  0  0  0  0  0  0  0  0
  141.6488  135.2479  153.6395 C   0  0  0  0  0  0  0  0  0  0  0  0
  140.5286  136.1087  153.2788 N   0  0  0  0  0  0  0  0  0  0  0  0
  139.5808  136.5299  154.1317 C   0  0  0  0  0  0  0  0  0  0  0  0
  139.5822  136.2396  155.3287 O   0  0  0  0  0  0  0  0  0  0  0  0
  138.4682  137.4085  153.5383 C   0  0  2  0  0  0  0  0  0  0  0  0
  138.9975  138.7554  153.0058 C   0  0  0  0  0  0  0  0  0  0  0  0
  137.3930  137.5845  154.5067 N   0  0  0  0  0  0  0  0  0  0  0  0
  136.1160  137.1999  154.4502 C   0  0  0  0  0  0  0  0  0  0  0  0
  135.4172  137.4899  155.5384 N   0  0  0  0  0  0  0  0  0  0  0  0
  136.3934  138.0871  156.2842 C   0  0  0  0  0  0  0  0  0  0  0  0
  137.5977  138.1600  155.7180 N   0  0  0  0  0  0  0  0  0  0  0  0
  144.2998  134.6912  152.8035 C   0  0  0  0  0  0  0  0  0  0  0  0
  146.5705  136.1665  152.0353 H   0  0  0  0  0  0  0  0  0  0  0  0
  145.3553  137.2724  152.6720 H   0  0  0  0  0  0  0  0  0  0  0  0
  145.7431  137.2872  150.9567 H   0  0  0  0  0  0  0  0  0  0  0  0
  143.5958  136.1401  151.3664 H   0  0  0  0  0  0  0  0  0  0  0  0
  144.9207  135.3689  149.4488 H   0  0  0  0  0  0  0  0  0  0  0  0
  145.8122  134.2553  150.4590 H   0  0  0  0  0  0  0  0  0  0  0  0
  142.8159  134.1659  149.8985 H   0  0  0  0  0  0  0  0  0  0  0  0
  145.0177  132.2358  149.0335 H   0  0  0  0  0  0  0  0  0  0  0  0
  144.1920  133.3889  147.9890 H   0  0  0  0  0  0  0  0  0  0  0  0
  143.2956  132.0565  148.7066 H   0  0  0  0  0  0  0  0  0  0  0  0
  142.8168  132.0509  151.2415 H   0  0  0  0  0  0  0  0  0  0  0  0
  144.5109  132.2653  151.5868 H   0  0  0  0  0  0  0  0  0  0  0  0
  141.5580  134.4577  151.6064 H   0  0  0  0  0  0  0  0  0  0  0  0
  141.2040  133.3020  152.8598 H   0  0  0  0  0  0  0  0  0  0  0  0
  141.4394  134.8111  154.6163 H   0  0  0  0  0  0  0  0  0  0  0  0
  142.5407  135.8629  153.7612 H   0  0  0  0  0  0  0  0  0  0  0  0
  140.4571  136.3891  152.3112 H   0  0  0  0  0  0  0  0  0  0  0  0
  138.0464  136.8710  152.6869 H   0  0  0  0  0  0  0  0  0  0  0  0
  139.7653  138.6025  152.2466 H   0  0  0  0  0  0  0  0  0  0  0  0
  139.4326  139.3681  153.7963 H   0  0  0  0  0  0  0  0  0  0  0  0
  138.1948  139.3330  152.5466 H   0  0  0  0  0  0  0  0  0  0  0  0
  135.6883  136.6949  153.5966 H   0  0  0  0  0  0  0  0  0  0  0  0
  136.2126  138.4736  157.2765 H   0  0  0  0  0  0  0  0  0  0  0  0
  145.2365  134.1901  153.0522 H   0  0  0  0  0  0  0  0  0  0  0  0
  144.0488  135.2958  153.6740 H   0  0  0  0  0  0  0  0  0  0  0  0
  143.3339  133.0112  153.3616 H   0  0  0  0  0  0  0  0  0  0  0  0
  1  2  1  0  0  0  0
  1 21  1  0  0  0  0
  1 22  1  0  0  0  0
  1 23  1  0  0  0  0
  2 20  1  0  0  0  0
  2  3  1  0  0  0  0
  2 24  1  0  0  0  0
  3  4  1  0  0  0  0
  3 25  1  0  0  0  0
  3 26  1  0  0  0  0
  4  5  1  0  0  0  0
  4  6  1  0  0  0  0
  4 27  1  0  0  0  0
  5 28  1  0  0  0  0
  5 29  1  0  0  0  0
  5 30  1  0  0  0  0
  6  7  1  0  0  0  0
  6 31  1  0  0  0  0
  6 32  1  0  0  0  0
  7  8  1  0  0  0  0
  7 20  1  0  0  0  0
  7 46  1  0  0  0  0
  8  9  1  0  0  0  0
  8 33  1  0  0  0  0
  8 34  1  0  0  0  0
  9 10  1  0  0  0  0
  9 35  1  0  0  0  0
  9 36  1  0  0  0  0
 10 11  1  0  0  0  0
 10 37  1  0  0  0  0
 11 12  2  0  0  0  0
 11 13  1  0  0  0  0
 13 14  1  0  0  0  0
 13 15  1  0  0  0  0
 13 38  1  0  0  0  0
 14 39  1  0  0  0  0
 14 40  1  0  0  0  0
 14 41  1  0  0  0  0
 15 19  1  0  0  0  0
 15 16  1  0  0  0  0
 16 17  2  0  0  0  0
 16 42  1  0  0  0  0
 17 18  1  0  0  0  0
 18 19  2  0  0  0  0
 18 43  1  0  0  0  0
 20 44  1  0  0  0  0
 20 45  1  0  0  0  0
M  CHG  1   7   1
M  END
> <s_m_source_file>
AV-unprocessed.smi

> <i_m_source_file_index>
3337

> <i_lp_mmshare_version>
43012

> <i_f3d_flags>
0

> <s_epik_input>
W0NIM11bQ0BASF0xW0NIMl1bQ0BASF0oW0NIM10pW0NIMl1OKFtDSDJdMSlbQ0gyXVtDSDJdW05IXUMoPU8pW0NASF0oW0NIM10pbjJbY0hdbltjSF1uMg==

> <s_epik_cmdline>
J2VwaWtfcHl0aG9uJywgJy1waCcsICc3LjAnLCAnLXRuJywgJzgnLCAnLW1hJywgJzIwMCcsICctbWV0YWxfYmluZGluZycsICctaW1hZScsICc8aW5maWxlLm1hZT4nLCAnLW9tYWUnLCAnPG91dGZpbGUubWFlPic=

> <r_lp_tautomer_probability>
1

> <r_epik_Ionization_Penalty>
0.00175613

> <r_epik_Ionization_Penalty_Charging>
0.00174812

> <r_epik_Ionization_Penalty_Neutral>
8.01354e-06

> <r_epik_State_Penalty>
0.00118332

> <r_epik_Charging_Adjusted_Penalty>
0.00293143

> <i_epik_Tot_Q>
1

> <i_epik_Tot_abs_Q>
1

> <r_epik_Metal_State_Penalty>
-0

> <b_epik_Metal_Only>
0

> <s_lp_Force_Field>
OPLS_2005

> <r_lp_Energy>
24.5444

> <b_lp_Chiralities_Consistent>
1

> <s_lp_Variant>
AV-unprocessed.smi:3337-2

> <Gold.Version>
5.8.1

> <Gold.Id.Protein>
6NUR|6NUR_protein|mol2

> <Gold.PLP.Fitness>
45.9301

> <Gold.PLP.PLP>
-37.9318

> <Gold.PLP.part.hbond>
-3.0000

> <Gold.PLP.part.metal>
0.0000

> <Gold.PLP.part.buried>
1.5004

> <Gold.PLP.part.nonpolar>
-34.3632

> <Gold.PLP.part.repulsive>
0.2140

> <Gold.PLP.ligand.clash>
0.0000

> <Gold.PLP.ligand.torsion>
0.5675

> <Gold.PLP.Chemscore.Hbond>
3.0000

> <Gold.PLP.Chemscore.CHOScore>
0.0000

> <Gold.PLP.Chemscore.Metal>
0.0000

> <Gold.Chemscore.Hbonds>
donor molecule, donor type, donor heavy atom, donor atom, acceptor molecule, acceptor atom, score
      L1  H     7    46       P1 10957  2.00
      P1  H 11000 11005       L1    12  1.00

> <Gold.PLP.Chemscore.Internal.Correction>
0.1332

> <Gold.Rescore>
     Score         DG    S(hbond)    S(metal)    S(lipo)     H(rot)  DE(clash)    DE(int)     intcor
     12.98     -14.83       1.95        0.00      79.13       2.51       0.32       1.53       ----

> <Gold.Chemscore.Fitness>
12.9800

> <Gold.Chemscore.DG>
-14.8324

> <Gold.Chemscore.ZeroCoef>
-5.4800

> <Gold.Chemscore.Hbond>
1.9544

> <Gold.Chemscore.Metal>
0.0000

> <Gold.Chemscore.Lipo>
79.1276

> <Gold.Chemscore.Internal_Hbond>
0.0000

> <Gold.Chemscore.DEClash>
0.3179

> <Gold.Chemscore.DEInternal>
1.5345

> <Gold.Chemscore.Rot>
2.5129

> <Gold.Chemscore.Internal.Correction>
   9.000000E+99

> <Gold.Chemscore.Hbonds>
donor molecule, donor type, donor heavy atom, donor atom, acceptor molecule, acceptor atom, score
      L1  H     7    46       P1 10957  0.78
      P1  H 11000 11005       L1    12  1.00

> <Gold.Chemscore.Hbond.Weighted>
-6.5275

> <Gold.Chemscore.Metal.Weighted>
-0.0000

> <Gold.Chemscore.Lipo.Weighted>
-9.2579

> <Gold.Chemscore.Internal_Hbond.Weighted>
0.0000

> <Gold.Chemscore.DEClash.Weighted>
0.3179

> <Gold.Chemscore.DEInternal.Weighted>
1.5345

> <Gold.Chemscore.Rot.Weighted>
6.4331

> <Gold.Chemscore.Internal.Correction.Weighted>
   9.000000E+99

> <Gold.Protein.RotatedTorsions>
[ 6907 6896 6895 6894 ] final  -17.82 input  -60.11 | X-H torsion
[ 7974 7965 7964 7962 ] final  -35.87 input  175.53 | X-H torsion
[ 8008 7997 7996 7995 ] final  -93.13 input   59.86 | X-H torsion
[ 10167 10162 10161 10158 ] final   41.72 input  -65.29 | X-H torsion
[ 10718 10713 10712 10709 ] final   25.41 input   66.30 | X-H torsion
[ 10763 10752 10751 10750 ] final  -66.81 input  -60.55 | X-H torsion
[ 11005 11000 10999 10996 ] final   75.93 input  -57.11 | X-H torsion

> <Gold.Protein.ActiveResidues>
 VAL166  LYS551  ARG553  GLY616  TRP617  ASP618  TYR619  PRO620  LYS621  CYS622 
 ASP623  PHE694  ASN695  SER759  ASP760  ASP761  ALA762  ILE779  LEU786  VAL792 
 PHE793  MET794  SER795  GLU796  ALA797  LYS798  CYS799  TRP800  GLU811  SER814 

> <Gold.Protein.RotatedAtoms>
  151.2876  135.0732  159.9191 H   0  0  0  0  0  0  0  0  0  0  0  0  # atno 6907 bound_to 6896
  152.5322  133.9966  159.7885 H   0  0  0  0  0  0  0  0  0  0  0  0  # atno 6908 bound_to 6896
  151.0230  133.5808  159.2700 H   0  0  0  0  0  0  0  0  0  0  0  0  # atno 6909 bound_to 6896
  146.0710  140.6211  142.8953 H   0  0  0  0  0  0  0  0  0  0  0  0  # atno 7974 bound_to 7965
  154.7318  140.0502  157.0733 H   0  0  0  0  0  0  0  0  0  0  0  0  # atno 8008 bound_to 7997
  155.0292  140.3156  155.4745 H   0  0  0  0  0  0  0  0  0  0  0  0  # atno 8009 bound_to 7997
  156.2843  140.2153  156.5413 H   0  0  0  0  0  0  0  0  0  0  0  0  # atno 8010 bound_to 7997
  140.3615  144.2222  150.6138 H   0  0  0  0  0  0  0  0  0  0  0  0  # atno 10167 bound_to 10162
  157.1929  130.6854  149.6157 H   0  0  0  0  0  0  0  0  0  0  0  0  # atno 10718 bound_to 10713
  154.3652  135.6107  153.5711 H   0  0  0  0  0  0  0  0  0  0  0  0  # atno 10763 bound_to 10752
  152.9792  135.5825  154.4586 H   0  0  0  0  0  0  0  0  0  0  0  0  # atno 10764 bound_to 10752
  154.4330  135.2848  155.1877 H   0  0  0  0  0  0  0  0  0  0  0  0  # atno 10765 bound_to 10752
  139.9321  134.7558  156.1332 H   0  0  0  0  0  0  0  0  0  0  0  0  # atno 11005 bound_to 11000
  144.7231  140.4439  143.6993 LP  0  0  0  0  0  0  0  0  0  0  0  0  # atno 17320 bound_to 7965
  145.6392  139.1547  143.2925 LP  0  0  0  0  0  0  0  0  0  0  0  0  # atno 17321 bound_to 7965
  140.5122  143.2287  151.8518 LP  0  0  0  0  0  0  0  0  0  0  0  0  # atno 17342 bound_to 10162
  139.4813  144.4936  151.9153 LP  0  0  0  0  0  0  0  0  0  0  0  0  # atno 17343 bound_to 10162
  155.9709  130.4608  150.6087 LP  0  0  0  0  0  0  0  0  0  0  0  0  # atno 17370 bound_to 10713
  157.3842  131.0786  151.1450 LP  0  0  0  0  0  0  0  0  0  0  0  0  # atno 17371 bound_to 10713
  141.0916  133.6712  156.2552 LP  0  0  0  0  0  0  0  0  0  0  0  0  # atno 17394 bound_to 11000
  140.6173  134.5397  157.5542 LP  0  0  0  0  0  0  0  0  0  0  0  0  # atno 17395 bound_to 11000

$$$$
