AV-unprocessed.smi:786|AV-procd|sdf|3722|dock7
  -GOLD-   22720 1153D 1   1.00000     0.00000
 Structure written by MMmdl.
 40 41  0  0  0  0  0  0  0  0  2 V2000
  148.1923  142.0370  154.0316 O   0  0  0  0  0  0  0  0  0  0  0  0
  148.8329  141.2768  155.1151 S   0  0  0  0  0  0  0  0  0  0  0  0
  148.0246  140.7405  156.2207 O   0  0  0  0  0  0  0  0  0  0  0  0
  149.8636  139.9316  154.3713 C   0  0  0  0  0  0  0  0  0  0  0  0
  150.5732  139.0535  155.4220 C   0  0  0  0  0  0  0  0  0  0  0  0
  152.1009  139.2089  155.3420 C   0  0  0  0  0  0  0  0  0  0  0  0
  152.7998  138.2899  156.3575 C   0  0  0  0  0  0  0  0  0  0  0  0
  152.4153  136.9379  156.1353 O   0  0  0  0  0  0  0  0  0  0  0  0
  151.0192  136.7231  156.3096 C   0  0  0  0  0  0  0  0  0  0  0  0
  150.2277  137.5578  155.2897 C   0  0  0  0  0  0  0  0  0  0  0  0
  150.0331  142.3125  155.8010 N   0  0  0  0  0  0  0  0  0  0  0  0
  150.7420  141.8654  157.0005 C   0  0  0  0  0  0  0  0  0  0  0  0
  151.9920  142.7235  157.2523 C   0  0  0  0  0  0  0  0  0  0  0  0
  152.1167  143.1411  158.7047 C   0  0  0  0  0  0  0  0  0  0  0  0
  151.8913  144.4703  159.1237 C   0  0  0  0  0  0  0  0  0  0  0  0
  152.0305  144.7956  160.4890 C   0  0  0  0  0  0  0  0  0  0  0  0
  152.3921  143.7864  161.4056 C   0  0  0  0  0  0  0  0  0  0  0  0
  152.6071  142.4759  160.9323 C   0  0  0  0  0  0  0  0  0  0  0  0
  152.4639  142.2039  159.6164 N   0  3  0  0  0  0  0  0  0  0  0  0
  149.2157  139.3168  153.7461 H   0  0  0  0  0  0  0  0  0  0  0  0
  150.5820  140.4057  153.7024 H   0  0  0  0  0  0  0  0  0  0  0  0
  150.2661  139.3957  156.4115 H   0  0  0  0  0  0  0  0  0  0  0  0
  152.4462  138.9648  154.3365 H   0  0  0  0  0  0  0  0  0  0  0  0
  152.3862  140.2450  155.5271 H   0  0  0  0  0  0  0  0  0  0  0  0
  153.8817  138.3695  156.2513 H   0  0  0  0  0  0  0  0  0  0  0  0
  152.5581  138.5843  157.3799 H   0  0  0  0  0  0  0  0  0  0  0  0
  150.8073  135.6629  156.1706 H   0  0  0  0  0  0  0  0  0  0  0  0
  150.7262  136.9750  157.3299 H   0  0  0  0  0  0  0  0  0  0  0  0
  149.1620  137.3836  155.4287 H   0  0  0  0  0  0  0  0  0  0  0  0
  150.4655  137.2115  154.2831 H   0  0  0  0  0  0  0  0  0  0  0  0
  149.6648  143.2553  155.9272 H   0  0  0  0  0  0  0  0  0  0  0  0
  150.0632  141.9381  157.8505 H   0  0  0  0  0  0  0  0  0  0  0  0
  151.0058  140.8123  156.8940 H   0  0  0  0  0  0  0  0  0  0  0  0
  152.8944  142.1836  156.9657 H   0  0  0  0  0  0  0  0  0  0  0  0
  151.9621  143.6179  156.6283 H   0  0  0  0  0  0  0  0  0  0  0  0
  151.6169  145.2328  158.4088 H   0  0  0  0  0  0  0  0  0  0  0  0
  151.8623  145.8072  160.8284 H   0  0  0  0  0  0  0  0  0  0  0  0
  152.5035  144.0147  162.4557 H   0  0  0  0  0  0  0  0  0  0  0  0
  152.8872  141.6438  161.5615 H   0  0  0  0  0  0  0  0  0  0  0  0
  152.6248  141.2486  159.2963 H   0  0  0  0  0  0  0  0  0  0  0  0
  1  2  2  0  0  0  0
  2  3  2  0  0  0  0
  2  4  1  0  0  0  0
  2 11  1  0  0  0  0
  4  5  1  0  0  0  0
  4 20  1  0  0  0  0
  4 21  1  0  0  0  0
  5 10  1  0  0  0  0
  5  6  1  0  0  0  0
  5 22  1  0  0  0  0
  6  7  1  0  0  0  0
  6 23  1  0  0  0  0
  6 24  1  0  0  0  0
  7  8  1  0  0  0  0
  7 25  1  0  0  0  0
  7 26  1  0  0  0  0
  8  9  1  0  0  0  0
  9 10  1  0  0  0  0
  9 27  1  0  0  0  0
  9 28  1  0  0  0  0
 10 29  1  0  0  0  0
 10 30  1  0  0  0  0
 11 12  1  0  0  0  0
 11 31  1  0  0  0  0
 12 13  1  0  0  0  0
 12 32  1  0  0  0  0
 12 33  1  0  0  0  0
 13 14  1  0  0  0  0
 13 34  1  0  0  0  0
 13 35  1  0  0  0  0
 14 19  1  0  0  0  0
 14 15  2  0  0  0  0
 15 16  1  0  0  0  0
 15 36  1  0  0  0  0
 16 17  2  0  0  0  0
 16 37  1  0  0  0  0
 17 18  1  0  0  0  0
 17 38  1  0  0  0  0
 18 19  2  0  0  0  0
 18 39  1  0  0  0  0
 19 40  1  0  0  0  0
M  CHG  1  19   1
M  END
> <s_m_source_file>
AV-unprocessed.smi

> <i_m_source_file_index>
786

> <i_lp_mmshare_version>
43012

> <i_f3d_flags>
0

> <s_epik_input>
W0NIMl0xW0NIMl1PW0NIMl1bQ0gyXVtDSF0xW0NIMl1TKD1PKSg9TylbTkhdW0NIMl1bQ0gyXWMyW2NIXVtjSF1bY0hdW2NIXW4y

> <s_epik_cmdline>
J2VwaWtfcHl0aG9uJywgJy1waCcsICc3LjAnLCAnLXRuJywgJzgnLCAnLW1hJywgJzIwMCcsICctbWV0YWxfYmluZGluZycsICctaW1hZScsICc8aW5maWxlLm1hZT4nLCAnLW9tYWUnLCAnPG91dGZpbGUubWFlPic=

> <r_epik_Ionization_Penalty>
1.99786

> <r_epik_Ionization_Penalty_Charging>
1.99784

> <r_epik_Ionization_Penalty_Neutral>
1.9654e-05

> <r_epik_State_Penalty>
2.12638

> <r_epik_Charging_Adjusted_Penalty>
4.12422

> <i_epik_Tot_Q>
1

> <i_epik_Tot_abs_Q>
1

> <r_epik_Metal_State_Penalty>
2.17464

> <b_epik_Metal_Only>
0

> <s_lp_Force_Field>
OPLS_2005

> <r_lp_Energy>
11.1046

> <b_lp_Chiralities_Consistent>
1

> <s_lp_Variant>
AV-unprocessed.smi:786-2

> <Gold.Version>
5.8.1

> <Gold.Id.Protein>
6NUR|6NUR_protein|mol2

> <Gold.PLP.Fitness>
41.1872

> <Gold.PLP.PLP>
-38.0188

> <Gold.PLP.part.hbond>
-3.0000

> <Gold.PLP.part.metal>
0.0000

> <Gold.PLP.part.buried>
-4.4790

> <Gold.PLP.part.nonpolar>
-30.8443

> <Gold.PLP.part.repulsive>
0.2947

> <Gold.PLP.ligand.clash>
0.0000

> <Gold.PLP.ligand.torsion>
1.5628

> <Gold.PLP.Chemscore.Hbond>
2.0216

> <Gold.PLP.Chemscore.CHOScore>
0.0000

> <Gold.PLP.Chemscore.Metal>
0.0000

> <Gold.Chemscore.Hbonds>
donor molecule, donor type, donor heavy atom, donor atom, acceptor molecule, acceptor atom, score
      L1  H    11    31       P1  8028  1.00
      P1  H  8011  8017       L1     1  0.07
      P1  H 10752 10763       L1     8  0.94

> <Gold.PLP.Chemscore.Internal.Correction>
0.2292

> <Gold.Rescore>
     Score         DG    S(hbond)    S(metal)    S(lipo)     H(rot)  DE(clash)    DE(int)     intcor
     17.57     -20.50       2.09        0.00     111.11       1.94       1.62       1.31       ----

> <Gold.Chemscore.Fitness>
17.5691

> <Gold.Chemscore.DG>
-20.4977

> <Gold.Chemscore.ZeroCoef>
-5.4800

> <Gold.Chemscore.Hbond>
2.0930

> <Gold.Chemscore.Metal>
0.0000

> <Gold.Chemscore.Lipo>
111.1114

> <Gold.Chemscore.Internal_Hbond>
0.0000

> <Gold.Chemscore.DEClash>
1.6163

> <Gold.Chemscore.DEInternal>
1.3122

> <Gold.Chemscore.Rot>
1.9426

> <Gold.Chemscore.Internal.Correction>
   9.000000E+99

> <Gold.Chemscore.Hbonds>
donor molecule, donor type, donor heavy atom, donor atom, acceptor molecule, acceptor atom, score
      L1  H    11    31       P1  8028  1.00
      P1  H  8011  8017       L1     1  0.06
      P1  H 10752 10763       L1     8  0.71

> <Gold.Chemscore.Hbond.Weighted>
-6.9907

> <Gold.Chemscore.Metal.Weighted>
-0.0000

> <Gold.Chemscore.Lipo.Weighted>
-13.0000

> <Gold.Chemscore.Internal_Hbond.Weighted>
0.0000

> <Gold.Chemscore.DEClash.Weighted>
1.6163

> <Gold.Chemscore.DEInternal.Weighted>
1.3122

> <Gold.Chemscore.Rot.Weighted>
4.9731

> <Gold.Chemscore.Internal.Correction.Weighted>
   9.000000E+99

> <Gold.Protein.RotatedTorsions>
[ 6907 6896 6895 6894 ] final    8.34 input  -60.11 | X-H torsion
[ 7974 7965 7964 7962 ] final   58.48 input  175.53 | X-H torsion
[ 8008 7997 7996 7995 ] final  -93.15 input   59.86 | X-H torsion
[ 10167 10162 10161 10158 ] final   -0.90 input  -65.29 | X-H torsion
[ 10718 10713 10712 10709 ] final -172.49 input   66.30 | X-H torsion
[ 10763 10752 10751 10750 ] final   93.98 input  -60.55 | X-H torsion
[ 11005 11000 10999 10996 ] final  -28.21 input  -57.11 | X-H torsion

> <Gold.Protein.ActiveResidues>
 VAL166  LYS551  ARG553  GLY616  TRP617  ASP618  TYR619  PRO620  LYS621  CYS622 
 ASP623  PHE694  ASN695  SER759  ASP760  ASP761  ALA762  ILE779  LEU786  VAL792 
 PHE793  MET794  SER795  GLU796  ALA797  LYS798  CYS799  TRP800  GLU811  SER814 

> <Gold.Protein.RotatedAtoms>
  151.7044  135.0924  160.0256 H   0  0  0  0  0  0  0  0  0  0  0  0  # atno 6907 bound_to 6896
  152.3701  133.6403  159.6088 H   0  0  0  0  0  0  0  0  0  0  0  0  # atno 6908 bound_to 6896
  150.7666  133.9201  159.3437 H   0  0  0  0  0  0  0  0  0  0  0  0  # atno 6909 bound_to 6896
  145.9177  139.3704  143.0497 H   0  0  0  0  0  0  0  0  0  0  0  0  # atno 7974 bound_to 7965
  154.7320  140.0502  157.0735 H   0  0  0  0  0  0  0  0  0  0  0  0  # atno 8008 bound_to 7997
  155.0289  140.3155  155.4746 H   0  0  0  0  0  0  0  0  0  0  0  0  # atno 8009 bound_to 7997
  156.2844  140.2153  156.5410 H   0  0  0  0  0  0  0  0  0  0  0  0  # atno 8010 bound_to 7997
  140.6787  143.6840  150.8082 H   0  0  0  0  0  0  0  0  0  0  0  0  # atno 10167 bound_to 10162
  156.7564  130.9397  151.3116 H   0  0  0  0  0  0  0  0  0  0  0  0  # atno 10718 bound_to 10713
  153.2364  135.4306  155.0651 H   0  0  0  0  0  0  0  0  0  0  0  0  # atno 10763 bound_to 10752
  154.8321  135.3392  154.6712 H   0  0  0  0  0  0  0  0  0  0  0  0  # atno 10764 bound_to 10752
  153.7138  135.7021  153.5087 H   0  0  0  0  0  0  0  0  0  0  0  0  # atno 10765 bound_to 10752
  140.9188  133.7412  156.0772 H   0  0  0  0  0  0  0  0  0  0  0  0  # atno 11005 bound_to 11000
  145.8590  140.9486  143.0710 LP  0  0  0  0  0  0  0  0  0  0  0  0  # atno 17320 bound_to 7965
  144.6749  140.0506  143.7479 LP  0  0  0  0  0  0  0  0  0  0  0  0  # atno 17321 bound_to 7965
  140.0537  143.5224  152.2661 LP  0  0  0  0  0  0  0  0  0  0  0  0  # atno 17342 bound_to 10162
  139.6095  144.7605  151.2984 LP  0  0  0  0  0  0  0  0  0  0  0  0  # atno 17343 bound_to 10162
  157.6754  130.9090  150.0138 LP  0  0  0  0  0  0  0  0  0  0  0  0  # atno 17370 bound_to 10713
  156.1368  130.3642  149.9645 LP  0  0  0  0  0  0  0  0  0  0  0  0  # atno 17371 bound_to 10713
  140.8015  134.3503  157.5438 LP  0  0  0  0  0  0  0  0  0  0  0  0  # atno 17394 bound_to 11000
  139.8771  134.9200  156.3242 LP  0  0  0  0  0  0  0  0  0  0  0  0  # atno 17395 bound_to 11000

$$$$
