AV-unprocessed.smi:2529|AV-procd|sdf|9960|dock7
  -GOLD-   2272014 03D 1   1.00000     0.00000
 Structure written by MMmdl.
 44 46  0  0  0  0  0  0  0  0  1 V2000
  148.2635  134.5223  157.5963 C   0  0  0  0  0  0  0  0  0  0  0  0
  149.1275  135.7132  157.1575 C   0  0  2  0  0  0  0  0  0  0  0  0
  148.6828  136.2592  155.7897 C   0  0  0  0  0  0  0  0  0  0  0  0
  149.5388  137.4598  155.3479 C   0  0  0  0  0  0  0  0  0  0  0  0
  151.0575  137.1507  155.3293 C   0  0  1  0  0  0  0  0  0  0  0  0
  151.3195  136.1738  154.3368 O   0  0  0  0  0  0  0  0  0  0  0  0
  151.9594  138.3798  155.0100 C   0  0  0  0  0  0  0  0  0  0  0  0
  151.7132  139.5697  155.8488 N   0  0  0  0  0  0  0  0  0  0  0  0
  152.5932  139.7545  156.9327 C   0  0  0  0  0  0  0  0  0  0  0  0
  152.4726  140.7510  157.7504 N   0  0  0  0  0  0  0  0  0  0  0  0
  151.4408  141.6783  157.5691 C   0  0  0  0  0  0  0  0  0  0  0  0
  151.3666  142.8466  158.5423 C   0  0  0  0  0  0  0  0  0  0  0  0
  151.6197  144.2392  157.9425 C   0  0  0  0  0  0  0  0  0  0  0  0
  152.3774  144.5846  159.2292 C   0  0  0  0  0  0  0  0  0  0  0  0
  152.6106  143.0814  159.4159 C   0  0  0  0  0  0  0  0  0  0  0  0
  150.5661  141.5433  156.5442 C   0  0  0  0  0  0  0  0  0  0  0  0
  150.6726  140.4225  155.6096 C   0  0  0  0  0  0  0  0  0  0  0  0
  149.8858  140.2661  154.6759 O   0  0  0  0  0  0  0  0  0  0  0  0
  151.4895  136.5360  156.6827 C   0  0  0  0  0  0  0  0  0  0  0  0
  150.6199  135.3423  157.1170 C   0  0  0  0  0  0  0  0  0  0  0  0
  148.3490  133.6904  156.8963 H   0  0  0  0  0  0  0  0  0  0  0  0
  147.2110  134.8014  157.6539 H   0  0  0  0  0  0  0  0  0  0  0  0
  148.5623  134.1617  158.5808 H   0  0  0  0  0  0  0  0  0  0  0  0
  148.9958  136.5052  157.8964 H   0  0  0  0  0  0  0  0  0  0  0  0
  148.7428  135.4697  155.0394 H   0  0  0  0  0  0  0  0  0  0  0  0
  147.6351  136.5592  155.8327 H   0  0  0  0  0  0  0  0  0  0  0  0
  149.2012  137.7898  154.3649 H   0  0  0  0  0  0  0  0  0  0  0  0
  149.3498  138.2881  156.0314 H   0  0  0  0  0  0  0  0  0  0  0  0
  150.8278  136.3937  153.5604 H   0  0  0  0  0  0  0  0  0  0  0  0
  153.0045  138.0852  155.1164 H   0  0  0  0  0  0  0  0  0  0  0  0
  151.8775  138.6404  153.9524 H   0  0  0  0  0  0  0  0  0  0  0  0
  153.3773  139.0020  157.0314 H   0  0  0  0  0  0  0  0  0  0  0  0
  150.4519  142.8198  159.1374 H   0  0  0  0  0  0  0  0  0  0  0  0
  152.2712  144.2248  157.0667 H   0  0  0  0  0  0  0  0  0  0  0  0
  150.7212  144.8317  157.7679 H   0  0  0  0  0  0  0  0  0  0  0  0
  153.2836  145.1735  159.0841 H   0  0  0  0  0  0  0  0  0  0  0  0
  151.7330  145.0128  159.9989 H   0  0  0  0  0  0  0  0  0  0  0  0
  152.5204  142.7279  160.4431 H   0  0  0  0  0  0  0  0  0  0  0  0
  153.5410  142.7462  158.9532 H   0  0  0  0  0  0  0  0  0  0  0  0
  149.7765  142.2675  156.4069 H   0  0  0  0  0  0  0  0  0  0  0  0
  152.5360  136.2304  156.6437 H   0  0  0  0  0  0  0  0  0  0  0  0
  151.4300  137.3003  157.4591 H   0  0  0  0  0  0  0  0  0  0  0  0
  150.9431  134.9985  158.1002 H   0  0  0  0  0  0  0  0  0  0  0  0
  150.7753  134.5048  156.4358 H   0  0  0  0  0  0  0  0  0  0  0  0
  1  2  1  0  0  0  0
  1 21  1  0  0  0  0
  1 22  1  0  0  0  0
  1 23  1  0  0  0  0
  2 20  1  0  0  0  0
  2  3  1  0  0  0  0
  2 24  1  0  0  0  0
  3  4  1  0  0  0  0
  3 25  1  0  0  0  0
  3 26  1  0  0  0  0
  4  5  1  0  0  0  0
  4 27  1  0  0  0  0
  4 28  1  0  0  0  0
  5  6  1  0  0  0  0
  5  7  1  0  0  0  0
  5 19  1  0  0  0  0
  6 29  1  0  0  0  0
  7  8  1  0  0  0  0
  7 30  1  0  0  0  0
  7 31  1  0  0  0  0
  8 17  1  0  0  0  0
  8  9  1  0  0  0  0
  9 10  2  0  0  0  0
  9 32  1  0  0  0  0
 10 11  1  0  0  0  0
 11 12  1  0  0  0  0
 11 16  2  0  0  0  0
 12 15  1  0  0  0  0
 12 13  1  0  0  0  0
 12 33  1  0  0  0  0
 13 14  1  0  0  0  0
 13 34  1  0  0  0  0
 13 35  1  0  0  0  0
 14 15  1  0  0  0  0
 14 36  1  0  0  0  0
 14 37  1  0  0  0  0
 15 38  1  0  0  0  0
 15 39  1  0  0  0  0
 16 17  1  0  0  0  0
 16 40  1  0  0  0  0
 17 18  2  0  0  0  0
 19 20  1  0  0  0  0
 19 41  1  0  0  0  0
 19 42  1  0  0  0  0
 20 43  1  0  0  0  0
 20 44  1  0  0  0  0
M  END
> <s_m_source_file>
AV-unprocessed.smi

> <i_m_source_file_index>
2529

> <i_lp_mmshare_version>
43012

> <i_f3d_flags>
0

> <s_epik_input>
W0NIMl0xW0NIMl1bQ0BIXShbQ0gzXSlbQ0gyXVtDSDJdW0NAQF0xKFtPSF0pW0NIMl1uMltjSF1uYyhbY0hdYzI9TylbQ0hdM1tDSDJdW0NIMl1bQ0gyXTM=

> <s_epik_cmdline>
J2VwaWtfcHl0aG9uJywgJy1waCcsICc3LjAnLCAnLXRuJywgJzgnLCAnLW1hJywgJzIwMCcsICctbWV0YWxfYmluZGluZycsICctaW1hZScsICc8aW5maWxlLm1hZT4nLCAnLW9tYWUnLCAnPG91dGZpbGUubWFlPic=

> <r_lp_tautomer_probability>
1

> <r_epik_Ionization_Penalty>
9.15498e-05

> <r_epik_Ionization_Penalty_Charging>
1.67865e-07

> <r_epik_Ionization_Penalty_Neutral>
9.13819e-05

> <r_epik_State_Penalty>
-0

> <r_epik_Charging_Adjusted_Penalty>
1.67865e-07

> <i_epik_Tot_Q>
0

> <i_epik_Tot_abs_Q>
0

> <r_epik_Metal_State_Penalty>
-0

> <b_epik_Metal_Only>
0

> <s_lp_Force_Field>
OPLS_2005

> <r_lp_Energy>
32.8679

> <b_lp_Chiralities_Consistent>
1

> <s_lp_Variant>
AV-unprocessed.smi:2529-1

> <Gold.Version>
5.8.1

> <Gold.Id.Protein>
6NUR|6NUR_protein|mol2

> <Gold.PLP.Fitness>
43.7919

> <Gold.PLP.PLP>
-36.1508

> <Gold.PLP.part.hbond>
-3.0024

> <Gold.PLP.part.metal>
0.0000

> <Gold.PLP.part.buried>
-1.9920

> <Gold.PLP.part.nonpolar>
-31.1010

> <Gold.PLP.part.repulsive>
0.1144

> <Gold.PLP.ligand.clash>
0.0000

> <Gold.PLP.ligand.torsion>
0.5593

> <Gold.PLP.Chemscore.Hbond>
2.7760

> <Gold.PLP.Chemscore.CHOScore>
0.0000

> <Gold.PLP.Chemscore.Metal>
0.0000

> <Gold.Chemscore.Hbonds>
donor molecule, donor type, donor heavy atom, donor atom, acceptor molecule, acceptor atom, score
      L1  H     6    29       P1  7949  0.36
      P1  H  7989  7998       L1    18  0.09
      P1  H 10752 10765       L1     6  1.00

> <Gold.PLP.Chemscore.Internal.Correction>
0.4317

> <Gold.Rescore>
     Score         DG    S(hbond)    S(metal)    S(lipo)     H(rot)  DE(clash)    DE(int)     intcor
     15.48     -17.71       1.94        0.00      88.56       1.80       0.12       2.11       ----

> <Gold.Chemscore.Fitness>
15.4808

> <Gold.Chemscore.DG>
-17.7110

> <Gold.Chemscore.ZeroCoef>
-5.4800

> <Gold.Chemscore.Hbond>
1.9370

> <Gold.Chemscore.Metal>
0.0000

> <Gold.Chemscore.Lipo>
88.5582

> <Gold.Chemscore.Internal_Hbond>
0.0000

> <Gold.Chemscore.DEClash>
0.1192

> <Gold.Chemscore.DEInternal>
2.1110

> <Gold.Chemscore.Rot>
1.7968

> <Gold.Chemscore.Internal.Correction>
   9.000000E+99

> <Gold.Chemscore.Hbonds>
donor molecule, donor type, donor heavy atom, donor atom, acceptor molecule, acceptor atom, score
      L1  H     6    29       P1  7949  0.04
      P1  H 10752 10765       L1     6  0.70

> <Gold.Chemscore.Hbond.Weighted>
-6.4694

> <Gold.Chemscore.Metal.Weighted>
-0.0000

> <Gold.Chemscore.Lipo.Weighted>
-10.3613

> <Gold.Chemscore.Internal_Hbond.Weighted>
0.0000

> <Gold.Chemscore.DEClash.Weighted>
0.1192

> <Gold.Chemscore.DEInternal.Weighted>
2.1110

> <Gold.Chemscore.Rot.Weighted>
4.5997

> <Gold.Chemscore.Internal.Correction.Weighted>
   9.000000E+99

> <Gold.Protein.RotatedTorsions>
[ 6907 6896 6895 6894 ] final -121.35 input  -60.11 | X-H torsion
[ 7974 7965 7964 7962 ] final  -35.35 input  175.53 | X-H torsion
[ 8008 7997 7996 7995 ] final    2.11 input   59.86 | X-H torsion
[ 10167 10162 10161 10158 ] final -133.67 input  -65.29 | X-H torsion
[ 10718 10713 10712 10709 ] final  118.27 input   66.30 | X-H torsion
[ 10763 10752 10751 10750 ] final  176.46 input  -60.55 | X-H torsion
[ 11005 11000 10999 10996 ] final   54.45 input  -57.11 | X-H torsion

> <Gold.Protein.ActiveResidues>
 VAL166  LYS551  ARG553  GLY616  TRP617  ASP618  TYR619  PRO620  LYS621  CYS622 
 ASP623  PHE694  ASN695  SER759  ASP760  ASP761  ALA762  ILE779  LEU786  VAL792 
 PHE793  MET794  SER795  GLU796  ALA797  LYS798  CYS799  TRP800  GLU811  SER814 

> <Gold.Protein.RotatedAtoms>
  150.8475  133.7838  159.3037 H   0  0  0  0  0  0  0  0  0  0  0  0  # atno 6907 bound_to 6896
  151.5521  135.1065  159.9961 H   0  0  0  0  0  0  0  0  0  0  0  0  # atno 6908 bound_to 6896
  152.4526  133.7615  159.6805 H   0  0  0  0  0  0  0  0  0  0  0  0  # atno 6909 bound_to 6896
  146.0754  140.6148  142.8933 H   0  0  0  0  0  0  0  0  0  0  0  0  # atno 7974 bound_to 7965
  154.6877  140.2646  155.6844 H   0  0  0  0  0  0  0  0  0  0  0  0  # atno 8008 bound_to 7997
  156.2720  140.2797  156.1366 H   0  0  0  0  0  0  0  0  0  0  0  0  # atno 8009 bound_to 7997
  155.0941  140.0374  157.2667 H   0  0  0  0  0  0  0  0  0  0  0  0  # atno 8010 bound_to 7997
  139.8959  143.6666  152.2604 H   0  0  0  0  0  0  0  0  0  0  0  0  # atno 10167 bound_to 10162
  157.6041  131.1046  150.7732 H   0  0  0  0  0  0  0  0  0  0  0  0  # atno 10718 bound_to 10713
  154.4814  135.2775  155.1567 H   0  0  0  0  0  0  0  0  0  0  0  0  # atno 10763 bound_to 10752
  154.3276  135.6196  153.5540 H   0  0  0  0  0  0  0  0  0  0  0  0  # atno 10764 bound_to 10752
  152.9876  135.5758  154.5216 H   0  0  0  0  0  0  0  0  0  0  0  0  # atno 10765 bound_to 10752
  140.0685  134.5502  155.9072 H   0  0  0  0  0  0  0  0  0  0  0  0  # atno 11005 bound_to 11000
  144.7258  140.4520  143.6974 LP  0  0  0  0  0  0  0  0  0  0  0  0  # atno 17320 bound_to 7965
  145.6316  139.1537  143.2966 LP  0  0  0  0  0  0  0  0  0  0  0  0  # atno 17321 bound_to 7965
  139.7068  144.7626  151.1179 LP  0  0  0  0  0  0  0  0  0  0  0  0  # atno 17342 bound_to 10162
  140.7717  143.5383  150.9342 LP  0  0  0  0  0  0  0  0  0  0  0  0  # atno 17343 bound_to 10162
  156.8124  130.4957  149.5354 LP  0  0  0  0  0  0  0  0  0  0  0  0  # atno 17370 bound_to 10713
  156.1123  130.6049  151.0066 LP  0  0  0  0  0  0  0  0  0  0  0  0  # atno 17371 bound_to 10713
  141.2002  133.6611  156.5887 LP  0  0  0  0  0  0  0  0  0  0  0  0  # atno 17394 bound_to 11000
  140.3662  134.7645  157.4567 LP  0  0  0  0  0  0  0  0  0  0  0  0  # atno 17395 bound_to 11000

$$$$
