AV-unprocessed.smi:460|AV-procd|sdf|2626|dock6
  -GOLD-   2262023 33D 1   1.00000     0.00000
 Structure written by MMmdl.
 46 48  0  0  0  0  0  0  0  0  1 V2000
  153.4102  137.5356  160.7585 C   0  0  0  0  0  0  0  0  0  0  0  0
  152.6107  137.8470  159.4861 C   0  0  0  0  0  0  0  0  0  0  0  0
  153.1983  139.0083  158.6616 C   0  0  2  0  0  0  0  0  0  0  0  0
  154.5800  138.7811  158.4642 O   0  0  0  0  0  0  0  0  0  0  0  0
  152.9387  140.3402  159.3145 C   0  0  0  0  0  0  0  0  0  0  0  0
  153.4019  140.6208  160.5349 N   0  0  0  0  0  0  0  0  0  0  0  0
  152.9335  141.8997  160.7564 C   0  0  0  0  0  0  0  0  0  0  0  0
  153.0873  142.7519  161.8734 C   0  0  0  0  0  0  0  0  0  0  0  0
  152.5071  144.0370  161.8759 C   0  0  0  0  0  0  0  0  0  0  0  0
  151.7654  144.4867  160.7646 C   0  0  0  0  0  0  0  0  0  0  0  0
  151.6002  143.6531  159.6416 C   0  0  0  0  0  0  0  0  0  0  0  0
  152.1834  142.3711  159.6427 C   0  0  0  0  0  0  0  0  0  0  0  0
  152.2146  141.3269  158.7219 N   0  0  0  0  0  0  0  0  0  0  0  0
  151.5885  141.3345  157.4071 C   0  0  0  0  0  0  0  0  0  0  0  0
  150.4436  140.3188  157.3094 C   0  0  0  0  0  0  0  0  0  0  0  0
  149.2116  141.0136  157.4361 O   0  0  0  0  0  0  0  0  0  0  0  0
  148.4807  141.2706  156.2942 C   0  0  0  0  0  0  0  0  0  0  0  0
  148.9297  140.9549  154.9864 C   0  0  0  0  0  0  0  0  0  0  0  0
  148.1300  141.2460  153.8665 C   0  0  0  0  0  0  0  0  0  0  0  0
  146.8755  141.8543  154.0389 C   0  0  0  0  0  0  0  0  0  0  0  0
  146.4201  142.1723  155.3312 C   0  0  0  0  0  0  0  0  0  0  0  0
  147.2174  141.8832  156.4678 C   0  0  0  0  0  0  0  0  0  0  0  0
  146.8321  142.1661  157.7625 O   0  0  0  0  0  0  0  0  0  0  0  0
  145.5755  142.7947  157.9694 C   0  0  0  0  0  0  0  0  0  0  0  0
  152.9783  136.6859  161.2876 H   0  0  0  0  0  0  0  0  0  0  0  0
  153.4153  138.3834  161.4438 H   0  0  0  0  0  0  0  0  0  0  0  0
  154.4454  137.2875  160.5219 H   0  0  0  0  0  0  0  0  0  0  0  0
  152.5951  136.9452  158.8730 H   0  0  0  0  0  0  0  0  0  0  0  0
  151.5702  138.0545  159.7399 H   0  0  0  0  0  0  0  0  0  0  0  0
  152.7450  138.9922  157.6726 H   0  0  0  0  0  0  0  0  0  0  0  0
  154.9945  138.7055  159.3097 H   0  0  0  0  0  0  0  0  0  0  0  0
  153.6532  142.4155  162.7296 H   0  0  0  0  0  0  0  0  0  0  0  0
  152.6317  144.6807  162.7344 H   0  0  0  0  0  0  0  0  0  0  0  0
  151.3239  145.4726  160.7743 H   0  0  0  0  0  0  0  0  0  0  0  0
  151.0318  143.9977  158.7906 H   0  0  0  0  0  0  0  0  0  0  0  0
  151.2070  142.3360  157.2072 H   0  0  0  0  0  0  0  0  0  0  0  0
  152.3447  141.1493  156.6444 H   0  0  0  0  0  0  0  0  0  0  0  0
  150.4826  139.8034  156.3498 H   0  0  0  0  0  0  0  0  0  0  0  0
  150.5408  139.5757  158.1028 H   0  0  0  0  0  0  0  0  0  0  0  0
  149.8867  140.4871  154.8132 H   0  0  0  0  0  0  0  0  0  0  0  0
  148.4798  141.0015  152.8743 H   0  0  0  0  0  0  0  0  0  0  0  0
  146.2608  142.0776  153.1792 H   0  0  0  0  0  0  0  0  0  0  0  0
  145.4513  142.6389  155.4234 H   0  0  0  0  0  0  0  0  0  0  0  0
  145.4188  142.9421  159.0378 H   0  0  0  0  0  0  0  0  0  0  0  0
  144.7548  142.1794  157.5987 H   0  0  0  0  0  0  0  0  0  0  0  0
  145.5375  143.7751  157.4928 H   0  0  0  0  0  0  0  0  0  0  0  0
  1  2  1  0  0  0  0
  1 25  1  0  0  0  0
  1 26  1  0  0  0  0
  1 27  1  0  0  0  0
  2  3  1  0  0  0  0
  2 28  1  0  0  0  0
  2 29  1  0  0  0  0
  3  4  1  0  0  0  0
  3  5  1  0  0  0  0
  3 30  1  0  0  0  0
  4 31  1  0  0  0  0
  5 13  1  0  0  0  0
  5  6  2  0  0  0  0
  6  7  1  0  0  0  0
  7 12  2  0  0  0  0
  7  8  1  0  0  0  0
  8  9  2  0  0  0  0
  8 32  1  0  0  0  0
  9 10  1  0  0  0  0
  9 33  1  0  0  0  0
 10 11  2  0  0  0  0
 10 34  1  0  0  0  0
 11 12  1  0  0  0  0
 11 35  1  0  0  0  0
 12 13  1  0  0  0  0
 13 14  1  0  0  0  0
 14 15  1  0  0  0  0
 14 36  1  0  0  0  0
 14 37  1  0  0  0  0
 15 16  1  0  0  0  0
 15 38  1  0  0  0  0
 15 39  1  0  0  0  0
 16 17  1  0  0  0  0
 17 22  1  0  0  0  0
 17 18  2  0  0  0  0
 18 19  1  0  0  0  0
 18 40  1  0  0  0  0
 19 20  2  0  0  0  0
 19 41  1  0  0  0  0
 20 21  1  0  0  0  0
 20 42  1  0  0  0  0
 21 22  2  0  0  0  0
 21 43  1  0  0  0  0
 22 23  1  0  0  0  0
 23 24  1  0  0  0  0
 24 44  1  0  0  0  0
 24 45  1  0  0  0  0
 24 46  1  0  0  0  0
M  END
> <s_m_source_file>
AV-unprocessed.smi

> <i_m_source_file_index>
460

> <i_lp_mmshare_version>
43012

> <i_f3d_flags>
0

> <s_epik_input>
W2NIXTFbY0hdW2NIXVtjSF1jKGMxMiluKGMobjIpW0NAQEhdKFtPSF0pW0NIMl1bQ0gzXSlbQ0gyXVtDSDJdT2MzW2NIXVtjSF1bY0hdW2NIXWMzT1tDSDNd

> <s_epik_cmdline>
J2VwaWtfcHl0aG9uJywgJy1waCcsICc3LjAnLCAnLXRuJywgJzgnLCAnLW1hJywgJzIwMCcsICctbWV0YWxfYmluZGluZycsICctaW1hZScsICc8aW5maWxlLm1hZT4nLCAnLW9tYWUnLCAnPG91dGZpbGUubWFlPic=

> <r_lp_tautomer_probability>
1

> <r_epik_Ionization_Penalty>
0.0507825

> <r_epik_Ionization_Penalty_Charging>
0

> <r_epik_Ionization_Penalty_Neutral>
0.0507825

> <r_epik_State_Penalty>
0.0434615

> <r_epik_Charging_Adjusted_Penalty>
0.0434615

> <i_epik_Tot_Q>
0

> <i_epik_Tot_abs_Q>
0

> <r_epik_Metal_State_Penalty>
4.50935e-05

> <b_epik_Metal_Only>
0

> <s_lp_Force_Field>
OPLS_2005

> <r_lp_Energy>
20.8142

> <b_lp_Chiralities_Consistent>
1

> <s_lp_Variant>
AV-unprocessed.smi:460-1

> <Gold.Version>
5.8.1

> <Gold.Id.Protein>
6NUR|6NUR_protein|mol2

> <Gold.PLP.Fitness>
50.9890

> <Gold.PLP.PLP>
-49.2996

> <Gold.PLP.part.hbond>
-1.0000

> <Gold.PLP.part.metal>
0.0000

> <Gold.PLP.part.buried>
-6.5555

> <Gold.PLP.part.nonpolar>
-40.2304

> <Gold.PLP.part.repulsive>
0.1778

> <Gold.PLP.ligand.clash>
0.0000

> <Gold.PLP.ligand.torsion>
0.7229

> <Gold.PLP.Chemscore.Hbond>
1.0000

> <Gold.PLP.Chemscore.CHOScore>
0.0000

> <Gold.PLP.Chemscore.Metal>
0.0000

> <Gold.Chemscore.Hbonds>
donor molecule, donor type, donor heavy atom, donor atom, acceptor molecule, acceptor atom, score
      P1  H  7997  8009       L1     4  1.00

> <Gold.PLP.Chemscore.Internal.Correction>
0.1351

> <Gold.Rescore>
     Score         DG    S(hbond)    S(metal)    S(lipo)     H(rot)  DE(clash)    DE(int)     intcor
     16.21     -16.98       0.79        0.00     127.45       2.36       0.00       0.77       ----

> <Gold.Chemscore.Fitness>
16.2138

> <Gold.Chemscore.DG>
-16.9847

> <Gold.Chemscore.ZeroCoef>
-5.4800

> <Gold.Chemscore.Hbond>
0.7879

> <Gold.Chemscore.Metal>
0.0000

> <Gold.Chemscore.Lipo>
127.4479

> <Gold.Chemscore.Internal_Hbond>
0.0000

> <Gold.Chemscore.DEClash>
0.0029

> <Gold.Chemscore.DEInternal>
0.7680

> <Gold.Chemscore.Rot>
2.3587

> <Gold.Chemscore.Internal.Correction>
   9.000000E+99

> <Gold.Chemscore.Hbonds>
donor molecule, donor type, donor heavy atom, donor atom, acceptor molecule, acceptor atom, score
      P1  H  7997  8009       L1     4  0.26

> <Gold.Chemscore.Hbond.Weighted>
-2.6317

> <Gold.Chemscore.Metal.Weighted>
-0.0000

> <Gold.Chemscore.Lipo.Weighted>
-14.9114

> <Gold.Chemscore.Internal_Hbond.Weighted>
0.0000

> <Gold.Chemscore.DEClash.Weighted>
0.0029

> <Gold.Chemscore.DEInternal.Weighted>
0.7680

> <Gold.Chemscore.Rot.Weighted>
6.0384

> <Gold.Chemscore.Internal.Correction.Weighted>
   9.000000E+99

> <Gold.Protein.RotatedTorsions>
[ 6907 6896 6895 6894 ] final   60.14 input  -60.11 | X-H torsion
[ 7974 7965 7964 7962 ] final -120.94 input  175.53 | X-H torsion
[ 8008 7997 7996 7995 ] final  131.72 input   59.86 | X-H torsion
[ 10167 10162 10161 10158 ] final   73.70 input  -65.29 | X-H torsion
[ 10718 10713 10712 10709 ] final -143.48 input   66.30 | X-H torsion
[ 10763 10752 10751 10750 ] final  146.88 input  -60.55 | X-H torsion
[ 11005 11000 10999 10996 ] final   28.13 input  -57.11 | X-H torsion

> <Gold.Protein.ActiveResidues>
 VAL166  LYS551  ARG553  GLY616  TRP617  ASP618  TYR619  PRO620  LYS621  CYS622 
 ASP623  PHE694  ASN695  SER759  ASP760  ASP761  ALA762  ILE779  LEU786  VAL792 
 PHE793  MET794  SER795  GLU796  ALA797  LYS798  CYS799  TRP800  GLU811  SER814 

> <Gold.Protein.RotatedAtoms>
  152.3977  134.6338  160.0082 H   0  0  0  0  0  0  0  0  0  0  0  0  # atno 6907 bound_to 6896
  151.6553  133.3313  159.3169 H   0  0  0  0  0  0  0  0  0  0  0  0  # atno 6908 bound_to 6896
  150.7882  134.6927  159.6551 H   0  0  0  0  0  0  0  0  0  0  0  0  # atno 6909 bound_to 6896
  145.0458  140.8180  143.4239 H   0  0  0  0  0  0  0  0  0  0  0  0  # atno 7974 bound_to 7965
  156.2973  140.2564  156.2971 H   0  0  0  0  0  0  0  0  0  0  0  0  # atno 8008 bound_to 7997
  154.9453  140.0395  157.2136 H   0  0  0  0  0  0  0  0  0  0  0  0  # atno 8009 bound_to 7997
  154.8087  140.2840  155.5873 H   0  0  0  0  0  0  0  0  0  0  0  0  # atno 8010 bound_to 7997
  140.0217  144.5535  150.7577 H   0  0  0  0  0  0  0  0  0  0  0  0  # atno 10167 bound_to 10162
  156.3584  130.7725  151.1889 H   0  0  0  0  0  0  0  0  0  0  0  0  # atno 10718 bound_to 10713
  154.0292  135.2899  155.3371 H   0  0  0  0  0  0  0  0  0  0  0  0  # atno 10763 bound_to 10752
  154.6999  135.5193  153.8514 H   0  0  0  0  0  0  0  0  0  0  0  0  # atno 10764 bound_to 10752
  153.0647  135.6627  154.0506 H   0  0  0  0  0  0  0  0  0  0  0  0  # atno 10765 bound_to 10752
  140.3188  134.2566  155.7721 H   0  0  0  0  0  0  0  0  0  0  0  0  # atno 11005 bound_to 11000
  145.1590  139.2469  143.5401 LP  0  0  0  0  0  0  0  0  0  0  0  0  # atno 17320 bound_to 7965
  146.3513  140.1312  142.8597 LP  0  0  0  0  0  0  0  0  0  0  0  0  # atno 17321 bound_to 7965
  140.7340  143.2723  151.3849 LP  0  0  0  0  0  0  0  0  0  0  0  0  # atno 17342 bound_to 10162
  139.6135  144.1049  152.2323 LP  0  0  0  0  0  0  0  0  0  0  0  0  # atno 17343 bound_to 10162
  157.7470  131.0407  150.4611 LP  0  0  0  0  0  0  0  0  0  0  0  0  # atno 17370 bound_to 10713
  156.4818  130.4075  149.6457 LP  0  0  0  0  0  0  0  0  0  0  0  0  # atno 17371 bound_to 10713
  141.2091  133.7758  157.0016 LP  0  0  0  0  0  0  0  0  0  0  0  0  # atno 17394 bound_to 11000
  140.0960  134.9564  157.1850 LP  0  0  0  0  0  0  0  0  0  0  0  0  # atno 17395 bound_to 11000

$$$$
