AV-unprocessed.smi:1222|AV-procd|sdf|5122|dock6
  -GOLD-   22720 4183D 1   1.00000     0.00000
 Structure written by MMmdl.
 36 38  0  0  0  0  0  0  0  0  1 V2000
  145.9928  136.8447  153.9398 O   0  0  0  0  0  0  0  0  0  0  0  0
  145.4035  137.8552  153.5545 C   0  0  0  0  0  0  0  0  0  0  0  0
  144.1002  137.9196  153.2314 N   0  0  0  0  0  0  0  0  0  0  0  0
  143.1361  136.8780  153.2602 C   0  0  0  0  0  0  0  0  0  0  0  0
  143.4197  135.5819  153.0861 N   0  0  0  0  0  0  0  0  0  0  0  0
  142.2784  134.7801  153.1657 C   0  0  0  0  0  0  0  0  0  0  0  0
  141.1258  135.4877  153.4020 C   0  0  0  0  0  0  0  0  0  0  0  0
  141.4302  137.1991  153.5353 S   0  0  0  0  0  0  0  0  0  0  0  0
  145.9990  139.0476  153.4064 N   0  0  0  0  0  0  0  0  0  0  0  0
  147.4071  139.3228  153.6756 C   0  0  0  0  0  0  0  0  0  0  0  0
  147.8558  138.6662  154.9935 C   0  0  0  0  0  0  0  0  0  0  0  0
  149.2922  139.0812  155.3551 C   0  0  0  0  0  0  0  0  0  0  0  0
  149.3824  140.5365  155.4735 N   0  0  0  0  0  0  0  0  0  0  0  0
  150.7365  140.8927  155.8648 C   0  0  0  0  0  0  0  0  0  0  0  0
  151.0404  140.9664  157.3438 C   0  0  0  0  0  0  0  0  0  0  0  0
  150.9416  142.2343  156.5306 C   0  0  0  0  0  0  0  0  0  0  0  0
  149.0820  141.1586  154.1838 C   0  0  0  0  0  0  0  0  0  0  0  0
  147.6360  140.8402  153.7642 C   0  0  0  0  0  0  0  0  0  0  0  0
  143.7568  138.8197  152.9306 H   0  0  0  0  0  0  0  0  0  0  0  0
  142.3779  133.7119  153.0415 H   0  0  0  0  0  0  0  0  0  0  0  0
  140.1206  135.1070  153.5052 H   0  0  0  0  0  0  0  0  0  0  0  0
  145.4385  139.8230  153.0847 H   0  0  0  0  0  0  0  0  0  0  0  0
  148.0137  138.9309  152.8567 H   0  0  0  0  0  0  0  0  0  0  0  0
  147.1823  138.9525  155.8028 H   0  0  0  0  0  0  0  0  0  0  0  0
  147.7988  137.5802  154.9134 H   0  0  0  0  0  0  0  0  0  0  0  0
  149.5741  138.6201  156.3024 H   0  0  0  0  0  0  0  0  0  0  0  0
  149.9935  138.7188  154.6015 H   0  0  0  0  0  0  0  0  0  0  0  0
  151.5618  140.5529  155.2412 H   0  0  0  0  0  0  0  0  0  0  0  0
  150.2326  140.7535  158.0417 H   0  0  0  0  0  0  0  0  0  0  0  0
  152.0304  140.6514  157.6675 H   0  0  0  0  0  0  0  0  0  0  0  0
  151.8662  142.7655  156.3144 H   0  0  0  0  0  0  0  0  0  0  0  0
  150.0682  142.8642  156.6893 H   0  0  0  0  0  0  0  0  0  0  0  0
  149.2074  142.2390  154.2625 H   0  0  0  0  0  0  0  0  0  0  0  0
  149.7828  140.8095  153.4236 H   0  0  0  0  0  0  0  0  0  0  0  0
  147.4204  141.3077  152.8029 H   0  0  0  0  0  0  0  0  0  0  0  0
  146.9465  141.2824  154.4851 H   0  0  0  0  0  0  0  0  0  0  0  0
  1  2  2  0  0  0  0
  2  3  1  0  0  0  0
  2  9  1  0  0  0  0
  3  4  1  0  0  0  0
  3 19  1  0  0  0  0
  4  8  1  0  0  0  0
  4  5  2  0  0  0  0
  5  6  1  0  0  0  0
  6  7  2  0  0  0  0
  6 20  1  0  0  0  0
  7  8  1  0  0  0  0
  7 21  1  0  0  0  0
  9 10  1  0  0  0  0
  9 22  1  0  0  0  0
 10 18  1  0  0  0  0
 10 11  1  0  0  0  0
 10 23  1  0  0  0  0
 11 12  1  0  0  0  0
 11 24  1  0  0  0  0
 11 25  1  0  0  0  0
 12 13  1  0  0  0  0
 12 26  1  0  0  0  0
 12 27  1  0  0  0  0
 13 14  1  0  0  0  0
 13 17  1  0  0  0  0
 14 16  1  0  0  0  0
 14 15  1  0  0  0  0
 14 28  1  0  0  0  0
 15 16  1  0  0  0  0
 15 29  1  0  0  0  0
 15 30  1  0  0  0  0
 16 31  1  0  0  0  0
 16 32  1  0  0  0  0
 17 18  1  0  0  0  0
 17 33  1  0  0  0  0
 17 34  1  0  0  0  0
 18 35  1  0  0  0  0
 18 36  1  0  0  0  0
M  END
> <s_m_source_file>
AV-unprocessed.smi

> <i_m_source_file_index>
1222

> <i_lp_mmshare_version>
43012

> <i_f3d_flags>
0

> <s_epik_input>
czFbY0hdW2NIXW5jMVtOSF1DKD1PKVtOSF1bQ0hdMltDSDJdW0NIMl1OKFtDSDJdW0NIMl0yKVtDSF0zW0NIMl1bQ0gyXTM=

> <s_epik_cmdline>
J2VwaWtfcHl0aG9uJywgJy1waCcsICc3LjAnLCAnLXRuJywgJzgnLCAnLW1hJywgJzIwMCcsICctbWV0YWxfYmluZGluZycsICctaW1hZScsICc8aW5maWxlLm1hZT4nLCAnLW9tYWUnLCAnPG91dGZpbGUubWFlPic=

> <r_lp_tautomer_probability>
0.999

> <r_epik_Ionization_Penalty>
0.985554

> <r_epik_Ionization_Penalty_Charging>
0

> <r_epik_Ionization_Penalty_Neutral>
0.985554

> <r_epik_State_Penalty>
1.03262

> <r_epik_Charging_Adjusted_Penalty>
1.03262

> <i_epik_Tot_Q>
0

> <i_epik_Tot_abs_Q>
0

> <r_epik_Metal_State_Penalty>
1.07929

> <b_epik_Metal_Only>
0

> <s_lp_Force_Field>
OPLS_2005

> <r_lp_Energy>
20.1195

> <b_lp_Chiralities_Consistent>
1

> <s_lp_Variant>
AV-unprocessed.smi:1222-3

> <Gold.Version>
5.8.1

> <Gold.Id.Protein>
6NUR|6NUR_protein|mol2

> <Gold.PLP.Fitness>
36.2522

> <Gold.PLP.PLP>
-28.0798

> <Gold.PLP.part.hbond>
-2.0000

> <Gold.PLP.part.metal>
0.0000

> <Gold.PLP.part.buried>
-3.8729

> <Gold.PLP.part.nonpolar>
-22.8570

> <Gold.PLP.part.repulsive>
0.2561

> <Gold.PLP.ligand.clash>
0.0000

> <Gold.PLP.ligand.torsion>
0.9621

> <Gold.PLP.Chemscore.Hbond>
1.9760

> <Gold.PLP.Chemscore.CHOScore>
1.0000

> <Gold.PLP.Chemscore.Metal>
0.0000

> <Gold.Chemscore.Hbonds>
donor molecule, donor type, donor heavy atom, donor atom, acceptor molecule, acceptor atom, score
      L1  H     3    19       P1 10175  1.00
      L1  H     9    22       P1 10175  0.96
      L1  C     6    20       P1 10957  0.79
      L1  C     7    21       P1 10187  0.03

> <Gold.PLP.Chemscore.Internal.Correction>
1.1686

> <Gold.Rescore>
     Score         DG    S(hbond)    S(metal)    S(lipo)     H(rot)  DE(clash)    DE(int)     intcor
     13.58     -16.91       1.97        0.00      68.75       1.25       0.12       3.21       ----

> <Gold.Chemscore.Fitness>
13.5803

> <Gold.Chemscore.DG>
-16.9129

> <Gold.Chemscore.ZeroCoef>
-5.4800

> <Gold.Chemscore.Hbond>
1.9690

> <Gold.Chemscore.Metal>
0.0000

> <Gold.Chemscore.Lipo>
68.7506

> <Gold.Chemscore.Internal_Hbond>
0.0000

> <Gold.Chemscore.DEClash>
0.1232

> <Gold.Chemscore.DEInternal>
3.2094

> <Gold.Chemscore.Rot>
1.2451

> <Gold.Chemscore.Internal.Correction>
   9.000000E+99

> <Gold.Chemscore.Hbonds>
donor molecule, donor type, donor heavy atom, donor atom, acceptor molecule, acceptor atom, score
      L1  H     3    19       P1 10175  1.00
      L1  H     9    22       P1 10175  0.91

> <Gold.Chemscore.Hbond.Weighted>
-6.5765

> <Gold.Chemscore.Metal.Weighted>
-0.0000

> <Gold.Chemscore.Lipo.Weighted>
-8.0438

> <Gold.Chemscore.Internal_Hbond.Weighted>
0.0000

> <Gold.Chemscore.DEClash.Weighted>
0.1232

> <Gold.Chemscore.DEInternal.Weighted>
3.2094

> <Gold.Chemscore.Rot.Weighted>
3.1874

> <Gold.Chemscore.Internal.Correction.Weighted>
   9.000000E+99

> <Gold.Protein.RotatedTorsions>
[ 6907 6896 6895 6894 ] final  -99.66 input  -60.11 | X-H torsion
[ 7974 7965 7964 7962 ] final -126.56 input  175.53 | X-H torsion
[ 8008 7997 7996 7995 ] final  -79.19 input   59.86 | X-H torsion
[ 10167 10162 10161 10158 ] final   74.88 input  -65.29 | X-H torsion
[ 10718 10713 10712 10709 ] final  -42.46 input   66.30 | X-H torsion
[ 10763 10752 10751 10750 ] final  -70.72 input  -60.55 | X-H torsion
[ 11005 11000 10999 10996 ] final  -13.41 input  -57.11 | X-H torsion

> <Gold.Protein.ActiveResidues>
 VAL166  LYS551  ARG553  GLY616  TRP617  ASP618  TYR619  PRO620  LYS621  CYS622 
 ASP623  PHE694  ASN695  SER759  ASP760  ASP761  ALA762  ILE779  LEU786  VAL792 
 PHE793  MET794  SER795  GLU796  ALA797  LYS798  CYS799  TRP800  GLU811  SER814 

> <Gold.Protein.RotatedAtoms>
  150.7088  134.1006  159.3964 H   0  0  0  0  0  0  0  0  0  0  0  0  # atno 6907 bound_to 6896
  151.8992  135.0383  160.0514 H   0  0  0  0  0  0  0  0  0  0  0  0  # atno 6908 bound_to 6896
  152.2428  133.5114  159.5316 H   0  0  0  0  0  0  0  0  0  0  0  0  # atno 6909 bound_to 6896
  144.9860  140.7687  143.4583 H   0  0  0  0  0  0  0  0  0  0  0  0  # atno 7974 bound_to 7965
  154.5761  140.0682  156.9036 H   0  0  0  0  0  0  0  0  0  0  0  0  # atno 8008 bound_to 7997
  155.2547  140.3354  155.4260 H   0  0  0  0  0  0  0  0  0  0  0  0  # atno 8009 bound_to 7997
  156.2155  140.1776  156.7584 H   0  0  0  0  0  0  0  0  0  0  0  0  # atno 8010 bound_to 7997
  140.0090  144.5629  150.7674 H   0  0  0  0  0  0  0  0  0  0  0  0  # atno 10167 bound_to 10162
  156.2594  130.4195  149.8560 H   0  0  0  0  0  0  0  0  0  0  0  0  # atno 10718 bound_to 10713
  154.4216  135.5985  153.6013 H   0  0  0  0  0  0  0  0  0  0  0  0  # atno 10763 bound_to 10752
  152.9794  135.5953  154.3947 H   0  0  0  0  0  0  0  0  0  0  0  0  # atno 10764 bound_to 10752
  154.3774  135.2841  155.2210 H   0  0  0  0  0  0  0  0  0  0  0  0  # atno 10765 bound_to 10752
  140.7758  133.8402  155.9247 H   0  0  0  0  0  0  0  0  0  0  0  0  # atno 11005 bound_to 11000
  145.2352  139.2097  143.5021 LP  0  0  0  0  0  0  0  0  0  0  0  0  # atno 17320 bound_to 7965
  146.3420  140.2237  142.8592 LP  0  0  0  0  0  0  0  0  0  0  0  0  # atno 17321 bound_to 7965
  140.7389  143.2784  151.3671 LP  0  0  0  0  0  0  0  0  0  0  0  0  # atno 17342 bound_to 10162
  139.6218  144.0891  152.2398 LP  0  0  0  0  0  0  0  0  0  0  0  0  # atno 17343 bound_to 10162
  156.6080  130.8575  151.3448 LP  0  0  0  0  0  0  0  0  0  0  0  0  # atno 17370 bound_to 10713
  157.7245  130.9603  150.1575 LP  0  0  0  0  0  0  0  0  0  0  0  0  # atno 17371 bound_to 10713
  140.9530  134.1754  157.4713 LP  0  0  0  0  0  0  0  0  0  0  0  0  # atno 17394 bound_to 11000
  139.8749  134.9916  156.5558 LP  0  0  0  0  0  0  0  0  0  0  0  0  # atno 17395 bound_to 11000

$$$$
