AV-unprocessed.smi:2352|AV-procd|sdf|9378|dock5
  -GOLD-   2272013 03D 1   1.00000     0.00000
 Structure written by MMmdl.
 37 38  0  0  0  0  0  0  0  0  1 V2000
  147.4699  134.7880  156.5682 C   0  0  0  0  0  0  0  0  0  0  0  0
  148.6971  135.5783  156.9868 C   0  0  0  0  0  0  0  0  0  0  0  0
  148.5640  136.3210  158.1636 N   0  0  0  0  0  0  0  0  0  0  0  0
  149.5566  137.0277  158.5957 C   0  0  0  0  0  0  0  0  0  0  0  0
  150.7818  137.0756  157.9107 N   0  0  0  0  0  0  0  0  0  0  0  0
  151.8308  137.9197  158.5079 C   0  0  0  0  0  0  0  0  0  0  0  0
  152.3576  138.9863  157.5221 C   0  0  2  0  0  0  0  0  0  0  0  0
  153.7160  138.7111  157.2403 O   0  0  0  0  0  0  0  0  0  0  0  0
  152.1825  140.3868  158.0903 C   0  0  0  0  0  0  0  0  0  0  0  0
  152.8750  140.7870  159.2539 C   0  0  0  0  0  0  0  0  0  0  0  0
  152.7008  142.0839  159.7747 C   0  0  0  0  0  0  0  0  0  0  0  0
  151.8328  142.9979  159.1388 C   0  0  0  0  0  0  0  0  0  0  0  0
  151.6348  144.3976  159.7023 C   0  0  0  0  0  0  0  0  0  0  0  0
  152.2075  145.3077  158.9136 F   0  0  0  0  0  0  0  0  0  0  0  0
  150.3304  144.6580  159.7815 F   0  0  0  0  0  0  0  0  0  0  0  0
  152.1684  144.5069  160.9196 F   0  0  0  0  0  0  0  0  0  0  0  0
  151.1315  142.5922  157.9831 C   0  0  0  0  0  0  0  0  0  0  0  0
  151.3053  141.2954  157.4619 C   0  0  0  0  0  0  0  0  0  0  0  0
  150.9995  136.3737  156.7609 C   0  0  0  0  0  0  0  0  0  0  0  0
  152.0840  136.4111  156.1761 O   0  0  0  0  0  0  0  0  0  0  0  0
  149.8594  135.5775  156.2787 C   0  0  0  0  0  0  0  0  0  0  0  0
  150.0626  134.7887  154.9912 C   0  0  0  0  0  0  0  0  0  0  0  0
  147.1264  135.1080  155.5841 H   0  0  0  0  0  0  0  0  0  0  0  0
  146.6476  134.9289  157.2709 H   0  0  0  0  0  0  0  0  0  0  0  0
  147.6964  133.7222  156.5294 H   0  0  0  0  0  0  0  0  0  0  0  0
  149.5059  137.6207  159.5106 H   0  0  0  0  0  0  0  0  0  0  0  0
  151.4021  138.4188  159.3793 H   0  0  0  0  0  0  0  0  0  0  0  0
  152.6569  137.3325  158.9151 H   0  0  0  0  0  0  0  0  0  0  0  0
  151.8103  138.9327  156.5800 H   0  0  0  0  0  0  0  0  0  0  0  0
  153.9835  137.9665  157.7574 H   0  0  0  0  0  0  0  0  0  0  0  0
  153.5407  140.0990  159.7544 H   0  0  0  0  0  0  0  0  0  0  0  0
  153.2359  142.3711  160.6678 H   0  0  0  0  0  0  0  0  0  0  0  0
  150.4535  143.2747  157.4921 H   0  0  0  0  0  0  0  0  0  0  0  0
  150.7589  141.0005  156.5779 H   0  0  0  0  0  0  0  0  0  0  0  0
  150.8736  134.0702  155.1146 H   0  0  0  0  0  0  0  0  0  0  0  0
  150.3281  135.4619  154.1753 H   0  0  0  0  0  0  0  0  0  0  0  0
  149.1776  134.2345  154.6830 H   0  0  0  0  0  0  0  0  0  0  0  0
  1  2  1  0  0  0  0
  1 23  1  0  0  0  0
  1 24  1  0  0  0  0
  1 25  1  0  0  0  0
  2 21  2  0  0  0  0
  2  3  1  0  0  0  0
  3  4  2  0  0  0  0
  4  5  1  0  0  0  0
  4 26  1  0  0  0  0
  5  6  1  0  0  0  0
  5 19  1  0  0  0  0
  6  7  1  0  0  0  0
  6 27  1  0  0  0  0
  6 28  1  0  0  0  0
  7  8  1  0  0  0  0
  7  9  1  0  0  0  0
  7 29  1  0  0  0  0
  8 30  1  0  0  0  0
  9 18  1  0  0  0  0
  9 10  2  0  0  0  0
 10 11  1  0  0  0  0
 10 31  1  0  0  0  0
 11 12  2  0  0  0  0
 11 32  1  0  0  0  0
 12 13  1  0  0  0  0
 12 17  1  0  0  0  0
 13 14  1  0  0  0  0
 13 15  1  0  0  0  0
 13 16  1  0  0  0  0
 17 18  2  0  0  0  0
 17 33  1  0  0  0  0
 18 34  1  0  0  0  0
 19 20  2  0  0  0  0
 19 21  1  0  0  0  0
 21 22  1  0  0  0  0
 22 35  1  0  0  0  0
 22 36  1  0  0  0  0
 22 37  1  0  0  0  0
M  END
> <s_m_source_file>
AV-unprocessed.smi

> <i_m_source_file_index>
2352

> <i_lp_mmshare_version>
43012

> <i_f3d_flags>
0

> <s_epik_input>
W0NIM11jMW5bY0hdbihjKD1PKWMxW0NIM10pW0NIMl1bQ0BIXShbT0hdKWMyW2NIXVtjSF1jKEMoRikoRilGKVtjSF1bY0hdMg==

> <s_epik_cmdline>
J2VwaWtfcHl0aG9uJywgJy1waCcsICc3LjAnLCAnLXRuJywgJzgnLCAnLW1hJywgJzIwMCcsICctbWV0YWxfYmluZGluZycsICctaW1hZScsICc8aW5maWxlLm1hZT4nLCAnLW9tYWUnLCAnPG91dGZpbGUubWFlPic=

> <r_lp_tautomer_probability>
1

> <r_epik_Ionization_Penalty>
5.07001e-05

> <r_epik_Ionization_Penalty_Charging>
7.56727e-08

> <r_epik_Ionization_Penalty_Neutral>
5.06244e-05

> <r_epik_State_Penalty>
-0

> <r_epik_Charging_Adjusted_Penalty>
7.56727e-08

> <i_epik_Tot_Q>
0

> <i_epik_Tot_abs_Q>
0

> <r_epik_Metal_State_Penalty>
-0

> <b_epik_Metal_Only>
0

> <s_lp_Force_Field>
OPLS_2005

> <r_lp_Energy>
21.4473

> <b_lp_Chiralities_Consistent>
1

> <s_lp_Variant>
AV-unprocessed.smi:2352-1

> <Gold.Version>
5.8.1

> <Gold.Id.Protein>
6NUR|6NUR_protein|mol2

> <Gold.PLP.Fitness>
44.3131

> <Gold.PLP.PLP>
-40.6321

> <Gold.PLP.part.hbond>
-1.9827

> <Gold.PLP.part.metal>
0.0000

> <Gold.PLP.part.buried>
-6.7824

> <Gold.PLP.part.nonpolar>
-31.8677

> <Gold.PLP.part.repulsive>
0.0065

> <Gold.PLP.ligand.clash>
0.6422

> <Gold.PLP.ligand.torsion>
1.1570

> <Gold.PLP.Chemscore.Hbond>
1.8720

> <Gold.PLP.Chemscore.CHOScore>
0.0000

> <Gold.PLP.Chemscore.Metal>
0.0000

> <Gold.Chemscore.Hbonds>
donor molecule, donor type, donor heavy atom, donor atom, acceptor molecule, acceptor atom, score
      P1  H  7997  8009       L1     8  0.98
      P1  H 10752 10763       L1    20  0.86

> <Gold.PLP.Chemscore.Internal.Correction>
1.0211

> <Gold.Rescore>
     Score         DG    S(hbond)    S(metal)    S(lipo)     H(rot)  DE(clash)    DE(int)     intcor
     14.14     -14.98       1.83        0.00      75.70       2.13       0.01       0.83       ----

> <Gold.Chemscore.Fitness>
14.1369

> <Gold.Chemscore.DG>
-14.9769

> <Gold.Chemscore.ZeroCoef>
-5.4800

> <Gold.Chemscore.Hbond>
1.8277

> <Gold.Chemscore.Metal>
0.0000

> <Gold.Chemscore.Lipo>
75.7036

> <Gold.Chemscore.Internal_Hbond>
0.0000

> <Gold.Chemscore.DEClash>
0.0101

> <Gold.Chemscore.DEInternal>
0.8299

> <Gold.Chemscore.Rot>
2.1347

> <Gold.Chemscore.Internal.Correction>
   9.000000E+99

> <Gold.Chemscore.Hbonds>
donor molecule, donor type, donor heavy atom, donor atom, acceptor molecule, acceptor atom, score
      P1  H  7997  8009       L1     8  0.68
      P1  H 10752 10763       L1    20  0.86

> <Gold.Chemscore.Hbond.Weighted>
-6.1045

> <Gold.Chemscore.Metal.Weighted>
-0.0000

> <Gold.Chemscore.Lipo.Weighted>
-8.8573

> <Gold.Chemscore.Internal_Hbond.Weighted>
0.0000

> <Gold.Chemscore.DEClash.Weighted>
0.0101

> <Gold.Chemscore.DEInternal.Weighted>
0.8299

> <Gold.Chemscore.Rot.Weighted>
5.4649

> <Gold.Chemscore.Internal.Correction.Weighted>
   9.000000E+99

> <Gold.Protein.RotatedTorsions>
[ 6907 6896 6895 6894 ] final   36.03 input  -60.11 | X-H torsion
[ 7974 7965 7964 7962 ] final  117.86 input  175.53 | X-H torsion
[ 8008 7997 7996 7995 ] final  170.39 input   59.86 | X-H torsion
[ 10167 10162 10161 10158 ] final  165.07 input  -65.29 | X-H torsion
[ 10718 10713 10712 10709 ] final -179.86 input   66.30 | X-H torsion
[ 10763 10752 10751 10750 ] final   64.43 input  -60.55 | X-H torsion
[ 11005 11000 10999 10996 ] final  109.74 input  -57.11 | X-H torsion

> <Gold.Protein.ActiveResidues>
 VAL166  LYS551  ARG553  GLY616  TRP617  ASP618  TYR619  PRO620  LYS621  CYS622 
 ASP623  PHE694  ASN695  SER759  ASP760  ASP761  ALA762  ILE779  LEU786  VAL792 
 PHE793  MET794  SER795  GLU796  ALA797  LYS798  CYS799  TRP800  GLU811  SER814 

> <Gold.Protein.RotatedAtoms>
  152.1242  134.9183  160.0561 H   0  0  0  0  0  0  0  0  0  0  0  0  # atno 6907 bound_to 6896
  152.0312  133.3933  159.4306 H   0  0  0  0  0  0  0  0  0  0  0  0  # atno 6908 bound_to 6896
  150.6851  134.3440  159.4924 H   0  0  0  0  0  0  0  0  0  0  0  0  # atno 6909 bound_to 6896
  145.1622  139.3148  143.4511 H   0  0  0  0  0  0  0  0  0  0  0  0  # atno 7974 bound_to 7965
  156.1370  140.1539  156.8980 H   0  0  0  0  0  0  0  0  0  0  0  0  # atno 8008 bound_to 7997
  154.4955  140.0839  156.7726 H   0  0  0  0  0  0  0  0  0  0  0  0  # atno 8009 bound_to 7997
  155.4151  140.3420  155.4269 H   0  0  0  0  0  0  0  0  0  0  0  0  # atno 8010 bound_to 7997
  139.4899  144.4170  151.9231 H   0  0  0  0  0  0  0  0  0  0  0  0  # atno 10167 bound_to 10162
  156.8654  130.9766  151.3079 H   0  0  0  0  0  0  0  0  0  0  0  0  # atno 10718 bound_to 10713
  153.0055  135.5393  154.6508 H   0  0  0  0  0  0  0  0  0  0  0  0  # atno 10763 bound_to 10752
  154.5741  135.2844  155.0800 H   0  0  0  0  0  0  0  0  0  0  0  0  # atno 10764 bound_to 10752
  154.1955  135.6493  153.5124 H   0  0  0  0  0  0  0  0  0  0  0  0  # atno 10765 bound_to 10752
  139.8868  134.9466  156.6173 H   0  0  0  0  0  0  0  0  0  0  0  0  # atno 11005 bound_to 11000
  146.3481  140.1737  142.8589 LP  0  0  0  0  0  0  0  0  0  0  0  0  # atno 17320 bound_to 7965
  145.0319  140.8877  143.5104 LP  0  0  0  0  0  0  0  0  0  0  0  0  # atno 17321 bound_to 7965
  140.3613  144.2969  150.5933 LP  0  0  0  0  0  0  0  0  0  0  0  0  # atno 17342 bound_to 10162
  140.5400  143.2225  151.8100 LP  0  0  0  0  0  0  0  0  0  0  0  0  # atno 17343 bound_to 10162
  157.6226  130.8667  149.9135 LP  0  0  0  0  0  0  0  0  0  0  0  0  # atno 17370 bound_to 10713
  156.0754  130.3679  150.0688 LP  0  0  0  0  0  0  0  0  0  0  0  0  # atno 17371 bound_to 10713
  140.7766  133.8694  155.8534 LP  0  0  0  0  0  0  0  0  0  0  0  0  # atno 17394 bound_to 11000
  140.9796  134.1423  157.4506 LP  0  0  0  0  0  0  0  0  0  0  0  0  # atno 17395 bound_to 11000

$$$$
