AV-unprocessed.smi:1034|AV-procd|sdf|4514|dock5
  -GOLD-   22720 2523D 1   1.00000     0.00000
 Structure written by MMmdl.
 39 40  0  0  0  0  0  0  0  0  1 V2000
  151.3344  136.6478  155.8716 O   0  0  0  0  0  0  0  0  0  0  0  0
  150.6533  136.5772  154.8482 C   0  0  0  0  0  0  0  0  0  0  0  0
  150.2704  137.6499  154.1410 N   0  0  0  0  0  0  0  0  0  0  0  0
  150.6106  139.0307  154.4625 C   0  0  0  0  0  0  0  0  0  0  0  0
  150.1189  139.4235  155.8654 C   0  0  0  0  0  0  0  0  0  0  0  0
  151.4986  139.4412  157.0952 S   0  0  0  0  0  0  0  0  0  0  0  0
  151.4202  138.2064  157.8906 O   0  0  0  0  0  0  0  0  0  0  0  0
  152.7494  139.7842  156.4003 O   0  0  0  0  0  0  0  0  0  0  0  0
  151.1085  140.7698  158.1540 N   0  0  0  0  0  0  0  0  0  0  0  0
  150.3403  141.9315  157.6574 C   0  0  0  0  0  0  0  0  0  0  0  0
  151.2311  143.1378  157.3184 C   0  0  0  0  0  0  0  0  0  0  0  0
  152.1672  143.7002  158.7625 S   0  0  0  0  0  0  0  0  0  0  0  0
  152.9564  142.1225  159.1653 C   0  0  0  0  0  0  0  0  0  0  0  0
  151.9165  141.0071  159.3661 C   0  0  0  0  0  0  0  0  0  0  0  0
  150.1973  135.4411  154.2919 N   0  0  0  0  0  0  0  0  0  0  0  0
  150.4008  134.1054  154.7298 C   0  0  0  0  0  0  0  0  0  0  0  0
  149.7893  133.1143  153.9290 C   0  0  0  0  0  0  0  0  0  0  0  0
  149.9344  131.7571  154.2754 C   0  0  0  0  0  0  0  0  0  0  0  0
  150.6864  131.4251  155.4163 C   0  0  0  0  0  0  0  0  0  0  0  0
  151.2602  132.4728  156.1600 C   0  0  0  0  0  0  0  0  0  0  0  0
  151.1236  133.7743  155.8290 N   0  0  0  0  0  0  0  0  0  0  0  0
  149.7122  137.4998  153.3133 H   0  0  0  0  0  0  0  0  0  0  0  0
  151.6881  139.1825  154.3781 H   0  0  0  0  0  0  0  0  0  0  0  0
  150.1503  139.6695  153.7095 H   0  0  0  0  0  0  0  0  0  0  0  0
  149.6247  140.3913  155.8663 H   0  0  0  0  0  0  0  0  0  0  0  0
  149.3870  138.6930  156.2107 H   0  0  0  0  0  0  0  0  0  0  0  0
  149.7518  141.6493  156.7856 H   0  0  0  0  0  0  0  0  0  0  0  0
  149.6190  142.2192  158.4232 H   0  0  0  0  0  0  0  0  0  0  0  0
  151.9194  142.9032  156.5088 H   0  0  0  0  0  0  0  0  0  0  0  0
  150.6142  143.9655  156.9684 H   0  0  0  0  0  0  0  0  0  0  0  0
  153.6579  141.8680  158.3727 H   0  0  0  0  0  0  0  0  0  0  0  0
  153.5437  142.2525  160.0743 H   0  0  0  0  0  0  0  0  0  0  0  0
  151.2474  141.2720  160.1855 H   0  0  0  0  0  0  0  0  0  0  0  0
  152.4136  140.0848  159.6658 H   0  0  0  0  0  0  0  0  0  0  0  0
  149.6485  135.5426  153.4510 H   0  0  0  0  0  0  0  0  0  0  0  0
  149.2154  133.3861  153.0549 H   0  0  0  0  0  0  0  0  0  0  0  0
  149.4770  130.9847  153.6752 H   0  0  0  0  0  0  0  0  0  0  0  0
  150.8205  130.3957  155.7139 H   0  0  0  0  0  0  0  0  0  0  0  0
  151.8450  132.2608  157.0428 H   0  0  0  0  0  0  0  0  0  0  0  0
  1  2  2  0  0  0  0
  2  3  1  0  0  0  0
  2 15  1  0  0  0  0
  3  4  1  0  0  0  0
  3 22  1  0  0  0  0
  4  5  1  0  0  0  0
  4 23  1  0  0  0  0
  4 24  1  0  0  0  0
  5  6  1  0  0  0  0
  5 25  1  0  0  0  0
  5 26  1  0  0  0  0
  6  7  2  0  0  0  0
  6  8  2  0  0  0  0
  6  9  1  0  0  0  0
  9 14  1  0  0  0  0
  9 10  1  0  0  0  0
 10 11  1  0  0  0  0
 10 27  1  0  0  0  0
 10 28  1  0  0  0  0
 11 12  1  0  0  0  0
 11 29  1  0  0  0  0
 11 30  1  0  0  0  0
 12 13  1  0  0  0  0
 13 14  1  0  0  0  0
 13 31  1  0  0  0  0
 13 32  1  0  0  0  0
 14 33  1  0  0  0  0
 14 34  1  0  0  0  0
 15 16  1  0  0  0  0
 15 35  1  0  0  0  0
 16 21  1  0  0  0  0
 16 17  2  0  0  0  0
 17 18  1  0  0  0  0
 17 36  1  0  0  0  0
 18 19  2  0  0  0  0
 18 37  1  0  0  0  0
 19 20  1  0  0  0  0
 19 38  1  0  0  0  0
 20 21  2  0  0  0  0
 20 39  1  0  0  0  0
M  END
> <s_m_source_file>
AV-unprocessed.smi

> <i_m_source_file_index>
1034

> <i_lp_mmshare_version>
43012

> <i_f3d_flags>
0

> <s_epik_input>
bjFbY0hdW2NIXVtjSF1bY0hdYzFbTkhdQyg9TylbTkhdW0NIMl1bQ0gyXVMoPU8pKD1PKU4yW0NIMl1bQ0gyXVNbQ0gyXVtDSDJdMg==

> <s_epik_cmdline>
J2VwaWtfcHl0aG9uJywgJy1waCcsICc3LjAnLCAnLXRuJywgJzgnLCAnLW1hJywgJzIwMCcsICctbWV0YWxfYmluZGluZycsICctaW1hZScsICc8aW5maWxlLm1hZT4nLCAnLW9tYWUnLCAnPG91dGZpbGUubWFlPic=

> <r_lp_tautomer_probability>
1

> <r_epik_Ionization_Penalty>
3.90463e-05

> <r_epik_Ionization_Penalty_Charging>
0

> <r_epik_Ionization_Penalty_Neutral>
3.90463e-05

> <r_epik_State_Penalty>
-0

> <r_epik_Charging_Adjusted_Penalty>
0

> <i_epik_Tot_Q>
0

> <i_epik_Tot_abs_Q>
0

> <r_epik_Metal_State_Penalty>
-0

> <b_epik_Metal_Only>
0

> <s_lp_Force_Field>
OPLS_2005

> <r_lp_Energy>
-0.604615

> <b_lp_Chiralities_Consistent>
1

> <s_lp_Variant>
AV-unprocessed.smi:1034-1

> <Gold.Version>
5.8.1

> <Gold.Id.Protein>
6NUR|6NUR_protein|mol2

> <Gold.PLP.Fitness>
44.5215

> <Gold.PLP.PLP>
-37.5915

> <Gold.PLP.part.hbond>
-3.6375

> <Gold.PLP.part.metal>
0.0000

> <Gold.PLP.part.buried>
-5.3507

> <Gold.PLP.part.nonpolar>
-29.9414

> <Gold.PLP.part.repulsive>
0.1530

> <Gold.PLP.ligand.clash>
0.0000

> <Gold.PLP.ligand.torsion>
1.9969

> <Gold.PLP.Chemscore.Hbond>
2.9333

> <Gold.PLP.Chemscore.CHOScore>
0.0000

> <Gold.PLP.Chemscore.Metal>
0.0000

> <Gold.Chemscore.Hbonds>
donor molecule, donor type, donor heavy atom, donor atom, acceptor molecule, acceptor atom, score
      L1  H     3    22       P1  7948  0.98
      L1  H    15    35       P1  7948  0.65
      P1  H  7997  8010       L1     8  1.00
      P1  H 10752 10764       L1     1  0.14

> <Gold.PLP.Chemscore.Internal.Correction>
2.1237

> <Gold.Rescore>
     Score         DG    S(hbond)    S(metal)    S(lipo)     H(rot)  DE(clash)    DE(int)     intcor
     14.04     -19.07       2.44        0.00      82.12       1.63       0.11       4.92       ----

> <Gold.Chemscore.Fitness>
14.0413

> <Gold.Chemscore.DG>
-19.0726

> <Gold.Chemscore.ZeroCoef>
-5.4800

> <Gold.Chemscore.Hbond>
2.4432

> <Gold.Chemscore.Metal>
0.0000

> <Gold.Chemscore.Lipo>
82.1236

> <Gold.Chemscore.Internal_Hbond>
0.0000

> <Gold.Chemscore.DEClash>
0.1107

> <Gold.Chemscore.DEInternal>
4.9206

> <Gold.Chemscore.Rot>
1.6313

> <Gold.Chemscore.Internal.Correction>
   9.000000E+99

> <Gold.Chemscore.Hbonds>
donor molecule, donor type, donor heavy atom, donor atom, acceptor molecule, acceptor atom, score
      L1  H     3    22       P1  7948  0.61
      L1  H    15    35       P1  7948  0.06
      P1  H  7997  8010       L1     8  0.99

> <Gold.Chemscore.Hbond.Weighted>
-8.1603

> <Gold.Chemscore.Metal.Weighted>
-0.0000

> <Gold.Chemscore.Lipo.Weighted>
-9.6085

> <Gold.Chemscore.Internal_Hbond.Weighted>
0.0000

> <Gold.Chemscore.DEClash.Weighted>
0.1107

> <Gold.Chemscore.DEInternal.Weighted>
4.9206

> <Gold.Chemscore.Rot.Weighted>
4.1761

> <Gold.Chemscore.Internal.Correction.Weighted>
   9.000000E+99

> <Gold.Protein.RotatedTorsions>
[ 6907 6896 6895 6894 ] final -110.93 input  -60.11 | X-H torsion
[ 7974 7965 7964 7962 ] final   21.82 input  175.53 | X-H torsion
[ 8008 7997 7996 7995 ] final   86.16 input   59.86 | X-H torsion
[ 10167 10162 10161 10158 ] final -170.87 input  -65.29 | X-H torsion
[ 10718 10713 10712 10709 ] final  104.11 input   66.30 | X-H torsion
[ 10763 10752 10751 10750 ] final  -52.35 input  -60.55 | X-H torsion
[ 11005 11000 10999 10996 ] final -171.79 input  -57.11 | X-H torsion

> <Gold.Protein.ActiveResidues>
 VAL166  LYS551  ARG553  GLY616  TRP617  ASP618  TYR619  PRO620  LYS621  CYS622 
 ASP623  PHE694  ASN695  SER759  ASP760  ASP761  ALA762  ILE779  LEU786  VAL792 
 PHE793  MET794  SER795  GLU796  ALA797  LYS798  CYS799  TRP800  GLU811  SER814 

> <Gold.Protein.RotatedAtoms>
  150.7657  133.9309  159.3426 H   0  0  0  0  0  0  0  0  0  0  0  0  # atno 6907 bound_to 6896
  151.7207  135.0893  160.0293 H   0  0  0  0  0  0  0  0  0  0  0  0  # atno 6908 bound_to 6896
  152.3651  133.6309  159.6080 H   0  0  0  0  0  0  0  0  0  0  0  0  # atno 6909 bound_to 6896
  146.2055  139.7973  142.8729 H   0  0  0  0  0  0  0  0  0  0  0  0  # atno 7974 bound_to 7965
  155.9592  140.3395  155.6475 H   0  0  0  0  0  0  0  0  0  0  0  0  # atno 8008 bound_to 7997
  155.6820  140.0739  157.2499 H   0  0  0  0  0  0  0  0  0  0  0  0  # atno 8009 bound_to 7997
  154.4139  140.1672  156.1980 H   0  0  0  0  0  0  0  0  0  0  0  0  # atno 8010 bound_to 7997
  139.5836  144.1368  152.1547 H   0  0  0  0  0  0  0  0  0  0  0  0  # atno 10167 bound_to 10162
  157.6751  131.0796  150.5657 H   0  0  0  0  0  0  0  0  0  0  0  0  # atno 10718 bound_to 10713
  154.1413  135.6504  153.4943 H   0  0  0  0  0  0  0  0  0  0  0  0  # atno 10763 bound_to 10752
  153.0165  135.5316  154.6902 H   0  0  0  0  0  0  0  0  0  0  0  0  # atno 10764 bound_to 10752
  154.6164  135.2959  155.0346 H   0  0  0  0  0  0  0  0  0  0  0  0  # atno 10765 bound_to 10752
  140.5043  134.5864  157.4998 H   0  0  0  0  0  0  0  0  0  0  0  0  # atno 11005 bound_to 11000
  145.3334  141.0271  143.3433 LP  0  0  0  0  0  0  0  0  0  0  0  0  # atno 17320 bound_to 7965
  144.8783  139.4940  143.6735 LP  0  0  0  0  0  0  0  0  0  0  0  0  # atno 17321 bound_to 7965
  140.0927  144.5607  150.7044 LP  0  0  0  0  0  0  0  0  0  0  0  0  # atno 17342 bound_to 10162
  140.7111  143.2506  151.4578 LP  0  0  0  0  0  0  0  0  0  0  0  0  # atno 17343 bound_to 10162
  156.5959  130.4341  149.5917 LP  0  0  0  0  0  0  0  0  0  0  0  0  # atno 17370 bound_to 10713
  156.2545  130.6926  151.1675 LP  0  0  0  0  0  0  0  0  0  0  0  0  # atno 17371 bound_to 10713
  139.9695  134.7316  156.0069 LP  0  0  0  0  0  0  0  0  0  0  0  0  # atno 17394 bound_to 11000
  141.1419  133.6563  156.3755 LP  0  0  0  0  0  0  0  0  0  0  0  0  # atno 17395 bound_to 11000

$$$$
