AV-unprocessed.smi:503|AV-procd|sdf|2746|dock2
  -GOLD-   2262023213D 1   1.00000     0.00000
 Structure written by MMmdl.
 44 45  0  0  0  0  0  0  0  0  1 V2000
  151.0155  140.7425  158.2811 O   0  0  0  0  0  0  0  0  0  0  0  0
  151.0099  141.8358  157.7133 C   0  0  0  0  0  0  0  0  0  0  0  0
  151.8302  143.0135  158.2591 C   0  0  0  0  0  0  0  0  0  0  0  0
  152.5163  142.7126  159.5269 N   0  0  0  0  0  0  0  0  0  0  0  0
  153.5177  141.7222  159.4939 C   0  0  0  0  0  0  0  0  0  0  0  0
  154.2146  141.3475  160.5840 C   0  0  0  0  0  0  0  0  0  0  0  0
  155.3328  140.3195  160.5055 C   0  0  0  0  0  0  0  0  0  0  0  0
  155.8844  140.1187  161.7027 F   0  0  0  0  0  0  0  0  0  0  0  0
  154.8480  139.1568  160.0715 F   0  0  0  0  0  0  0  0  0  0  0  0
  156.2903  140.7097  159.6632 F   0  0  0  0  0  0  0  0  0  0  0  0
  153.9066  142.0446  161.8172 C   0  0  0  0  0  0  0  0  0  0  0  0
  152.9611  143.0037  161.8635 C   0  0  0  0  0  0  0  0  0  0  0  0
  152.1992  143.3872  160.6727 C   0  0  0  0  0  0  0  0  0  0  0  0
  151.3318  144.2604  160.7031 O   0  0  0  0  0  0  0  0  0  0  0  0
  150.2894  142.0877  156.6097 N   0  0  0  0  0  0  0  0  0  0  0  0
  149.4298  141.1309  155.9157 C   0  0  0  0  0  0  0  0  0  0  0  0
  148.8431  141.8019  154.6549 C   0  0  0  0  0  0  0  0  0  0  0  0
  147.7351  141.0087  153.9328 C   0  0  0  0  0  0  0  0  0  0  0  0
  146.3052  141.5279  154.1890 C   0  0  0  0  0  0  0  0  0  0  0  0
  145.7322  141.3238  155.6066 C   0  0  0  0  0  0  0  0  0  0  0  0
  146.4003  142.1782  156.7036 C   0  0  0  0  0  0  0  0  0  0  0  0
  147.4162  141.4374  157.5948 C   0  0  0  0  0  0  0  0  0  0  0  0
  148.4080  140.4931  156.8868 C   0  0  0  0  0  0  0  0  0  0  0  0
  152.5540  143.3274  157.5043 H   0  0  0  0  0  0  0  0  0  0  0  0
  151.1608  143.8661  158.3821 H   0  0  0  0  0  0  0  0  0  0  0  0
  153.6909  141.2925  158.5179 H   0  0  0  0  0  0  0  0  0  0  0  0
  154.4413  141.7916  162.7208 H   0  0  0  0  0  0  0  0  0  0  0  0
  152.7579  143.5015  162.8005 H   0  0  0  0  0  0  0  0  0  0  0  0
  150.3406  143.0163  156.2161 H   0  0  0  0  0  0  0  0  0  0  0  0
  150.0586  140.3148  155.5540 H   0  0  0  0  0  0  0  0  0  0  0  0
  148.5032  142.8143  154.8688 H   0  0  0  0  0  0  0  0  0  0  0  0
  149.6675  141.9409  153.9540 H   0  0  0  0  0  0  0  0  0  0  0  0
  147.9152  141.0990  152.8609 H   0  0  0  0  0  0  0  0  0  0  0  0
  147.8086  139.9408  154.1375 H   0  0  0  0  0  0  0  0  0  0  0  0
  146.2494  142.5843  153.9233 H   0  0  0  0  0  0  0  0  0  0  0  0
  145.6403  141.0207  153.4891 H   0  0  0  0  0  0  0  0  0  0  0  0
  144.6812  141.6117  155.5645 H   0  0  0  0  0  0  0  0  0  0  0  0
  145.7207  140.2678  155.8765 H   0  0  0  0  0  0  0  0  0  0  0  0
  146.8456  143.0736  156.2729 H   0  0  0  0  0  0  0  0  0  0  0  0
  145.6185  142.5589  157.3616 H   0  0  0  0  0  0  0  0  0  0  0  0
  147.9625  142.1649  158.1961 H   0  0  0  0  0  0  0  0  0  0  0  0
  146.8533  140.8371  158.3105 H   0  0  0  0  0  0  0  0  0  0  0  0
  147.8660  139.6933  156.3853 H   0  0  0  0  0  0  0  0  0  0  0  0
  148.9693  139.9753  157.6658 H   0  0  0  0  0  0  0  0  0  0  0  0
  1  2  2  0  0  0  0
  2  3  1  0  0  0  0
  2 15  1  0  0  0  0
  3  4  1  0  0  0  0
  3 24  1  0  0  0  0
  3 25  1  0  0  0  0
  4 13  1  0  0  0  0
  4  5  1  0  0  0  0
  5  6  2  0  0  0  0
  5 26  1  0  0  0  0
  6  7  1  0  0  0  0
  6 11  1  0  0  0  0
  7  8  1  0  0  0  0
  7  9  1  0  0  0  0
  7 10  1  0  0  0  0
 11 12  2  0  0  0  0
 11 27  1  0  0  0  0
 12 13  1  0  0  0  0
 12 28  1  0  0  0  0
 13 14  2  0  0  0  0
 15 16  1  0  0  0  0
 15 29  1  0  0  0  0
 16 23  1  0  0  0  0
 16 17  1  0  0  0  0
 16 30  1  0  0  0  0
 17 18  1  0  0  0  0
 17 31  1  0  0  0  0
 17 32  1  0  0  0  0
 18 19  1  0  0  0  0
 18 33  1  0  0  0  0
 18 34  1  0  0  0  0
 19 20  1  0  0  0  0
 19 35  1  0  0  0  0
 19 36  1  0  0  0  0
 20 21  1  0  0  0  0
 20 37  1  0  0  0  0
 20 38  1  0  0  0  0
 21 22  1  0  0  0  0
 21 39  1  0  0  0  0
 21 40  1  0  0  0  0
 22 23  1  0  0  0  0
 22 41  1  0  0  0  0
 22 42  1  0  0  0  0
 23 43  1  0  0  0  0
 23 44  1  0  0  0  0
M  END
> <s_m_source_file>
AV-unprocessed.smi

> <i_m_source_file_index>
503

> <i_lp_mmshare_version>
43012

> <i_f3d_flags>
0

> <s_epik_input>
Tz1jMVtjSF1bY0hdYyhDKEYpKEYpRilbY0hdbjFbQ0gyXUMoPU8pW05IXVtDSF0yW0NIMl1bQ0gyXVtDSDJdW0NIMl1bQ0gyXVtDSDJdW0NIMl0y

> <s_epik_cmdline>
J2VwaWtfcHl0aG9uJywgJy1waCcsICc3LjAnLCAnLXRuJywgJzgnLCAnLW1hJywgJzIwMCcsICctbWV0YWxfYmluZGluZycsICctaW1hZScsICc8aW5maWxlLm1hZT4nLCAnLW9tYWUnLCAnPG91dGZpbGUubWFlPic=

> <r_lp_tautomer_probability>
1

> <r_epik_Ionization_Penalty>
3.93819e-08

> <r_epik_Ionization_Penalty_Charging>
1.9167e-08

> <r_epik_Ionization_Penalty_Neutral>
2.02148e-08

> <r_epik_State_Penalty>
-0

> <r_epik_Charging_Adjusted_Penalty>
1.9167e-08

> <i_epik_Tot_Q>
0

> <i_epik_Tot_abs_Q>
0

> <r_epik_Metal_State_Penalty>
-0

> <b_epik_Metal_Only>
0

> <s_lp_Force_Field>
OPLS_2005

> <r_lp_Energy>
31.4462

> <b_lp_Chiralities_Consistent>
1

> <s_lp_Variant>
AV-unprocessed.smi:503-1

> <Gold.Version>
5.8.1

> <Gold.Id.Protein>
6NUR|6NUR_protein|mol2

> <Gold.PLP.Fitness>
50.4813

> <Gold.PLP.PLP>
-50.5321

> <Gold.PLP.part.hbond>
-0.6091

> <Gold.PLP.part.metal>
0.0000

> <Gold.PLP.part.buried>
-3.6951

> <Gold.PLP.part.nonpolar>
-46.0604

> <Gold.PLP.part.repulsive>
0.2061

> <Gold.PLP.ligand.clash>
0.0000

> <Gold.PLP.ligand.torsion>
0.0795

> <Gold.PLP.Chemscore.Hbond>
0.0000

> <Gold.PLP.Chemscore.CHOScore>
0.0000

> <Gold.PLP.Chemscore.Metal>
0.0000

> <Gold.Chemscore.Hbonds>
donor molecule, donor type, donor heavy atom, donor atom, acceptor molecule, acceptor atom, score
      L1  H    15    29       P1  8028  0.24

> <Gold.PLP.Chemscore.Internal.Correction>
0.1082

> <Gold.Rescore>
     Score         DG    S(hbond)    S(metal)    S(lipo)     H(rot)  DE(clash)    DE(int)     intcor
     12.06     -13.40       0.03        0.00      99.83       1.51       0.03       1.31       ----

> <Gold.Chemscore.Fitness>
12.0610

> <Gold.Chemscore.DG>
-13.3986

> <Gold.Chemscore.ZeroCoef>
-5.4800

> <Gold.Chemscore.Hbond>
0.0334

> <Gold.Chemscore.Metal>
0.0000

> <Gold.Chemscore.Lipo>
99.8345

> <Gold.Chemscore.Internal_Hbond>
0.0000

> <Gold.Chemscore.DEClash>
0.0268

> <Gold.Chemscore.DEInternal>
1.3108

> <Gold.Chemscore.Rot>
1.5131

> <Gold.Chemscore.Internal.Correction>
   9.000000E+99

> <Gold.Chemscore.Hbonds>
donor molecule, donor type, donor heavy atom, donor atom, acceptor molecule, acceptor atom, score
      L1  H    15    29       P1  8028  0.23

> <Gold.Chemscore.Hbond.Weighted>
-0.1114

> <Gold.Chemscore.Metal.Weighted>
-0.0000

> <Gold.Chemscore.Lipo.Weighted>
-11.6806

> <Gold.Chemscore.Internal_Hbond.Weighted>
0.0000

> <Gold.Chemscore.DEClash.Weighted>
0.0268

> <Gold.Chemscore.DEInternal.Weighted>
1.3108

> <Gold.Chemscore.Rot.Weighted>
3.8734

> <Gold.Chemscore.Internal.Correction.Weighted>
   9.000000E+99

> <Gold.Protein.RotatedTorsions>
[ 6907 6896 6895 6894 ] final  -19.40 input  -60.11 | X-H torsion
[ 7974 7965 7964 7962 ] final   38.89 input  175.53 | X-H torsion
[ 8008 7997 7996 7995 ] final  162.37 input   59.86 | X-H torsion
[ 10167 10162 10161 10158 ] final -106.94 input  -65.29 | X-H torsion
[ 10718 10713 10712 10709 ] final   54.13 input   66.30 | X-H torsion
[ 10763 10752 10751 10750 ] final  168.75 input  -60.55 | X-H torsion
[ 11005 11000 10999 10996 ] final -131.49 input  -57.11 | X-H torsion

> <Gold.Protein.ActiveResidues>
 VAL166  LYS551  ARG553  GLY616  TRP617  ASP618  TYR619  PRO620  LYS621  CYS622 
 ASP623  PHE694  ASN695  SER759  ASP760  ASP761  ALA762  ILE779  LEU786  VAL792 
 PHE793  MET794  SER795  GLU796  ALA797  LYS798  CYS799  TRP800  GLU811  SER814 

> <Gold.Protein.RotatedAtoms>
  151.2637  135.0662  159.9107 H   0  0  0  0  0  0  0  0  0  0  0  0  # atno 6907 bound_to 6896
  152.5362  134.0204  159.7989 H   0  0  0  0  0  0  0  0  0  0  0  0  # atno 6908 bound_to 6896
  151.0431  133.5639  159.2680 H   0  0  0  0  0  0  0  0  0  0  0  0  # atno 6909 bound_to 6896
  146.1026  139.5717  142.9404 H   0  0  0  0  0  0  0  0  0  0  0  0  # atno 7974 bound_to 7965
  156.2036  140.1752  156.7847 H   0  0  0  0  0  0  0  0  0  0  0  0  # atno 8008 bound_to 7997
  154.5625  140.0697  156.8871 H   0  0  0  0  0  0  0  0  0  0  0  0  # atno 8009 bound_to 7997
  155.2822  140.3350  155.4260 H   0  0  0  0  0  0  0  0  0  0  0  0  # atno 8010 bound_to 7997
  140.1824  143.3956  152.1271 H   0  0  0  0  0  0  0  0  0  0  0  0  # atno 10167 bound_to 10162
  157.5229  130.8577  149.8582 H   0  0  0  0  0  0  0  0  0  0  0  0  # atno 10718 bound_to 10713
  154.3732  135.2753  155.2254 H   0  0  0  0  0  0  0  0  0  0  0  0  # atno 10763 bound_to 10752
  154.4393  135.5958  153.6122 H   0  0  0  0  0  0  0  0  0  0  0  0  # atno 10764 bound_to 10752
  152.9837  135.6015  154.3965 H   0  0  0  0  0  0  0  0  0  0  0  0  # atno 10765 bound_to 10752
  140.9254  134.1390  157.4280 H   0  0  0  0  0  0  0  0  0  0  0  0  # atno 11005 bound_to 11000
  145.5823  141.0381  143.2115 LP  0  0  0  0  0  0  0  0  0  0  0  0  # atno 17320 bound_to 7965
  144.7445  139.7357  143.7297 LP  0  0  0  0  0  0  0  0  0  0  0  0  # atno 17321 bound_to 7965
  139.5291  144.7137  151.5122 LP  0  0  0  0  0  0  0  0  0  0  0  0  # atno 17342 bound_to 10162
  140.6511  143.8695  150.6786 LP  0  0  0  0  0  0  0  0  0  0  0  0  # atno 17343 bound_to 10162
  156.0366  130.3750  150.1544 LP  0  0  0  0  0  0  0  0  0  0  0  0  # atno 17370 bound_to 10713
  156.9731  130.9841  151.3454 LP  0  0  0  0  0  0  0  0  0  0  0  0  # atno 17371 bound_to 10713
  139.8784  134.9986  156.5910 LP  0  0  0  0  0  0  0  0  0  0  0  0  # atno 17394 bound_to 11000
  140.7933  133.8564  155.8664 LP  0  0  0  0  0  0  0  0  0  0  0  0  # atno 17395 bound_to 11000

$$$$
