AV-unprocessed.smi:3284|AV-procd|sdf|12575|dock1
  -GOLD-   2272018493D 1   1.00000     0.00000
 Structure written by MMmdl.
 44 45  0  0  0  0  0  0  0  0  2 V2000
  152.8712  140.4628  159.8284 C   0  0  0  0  0  0  0  0  0  0  0  0
  152.6379  141.9258  160.1640 C   0  0  0  0  0  0  0  0  0  0  0  0
  152.6869  142.3689  161.4357 C   0  0  0  0  0  0  0  0  0  0  0  0
  152.5087  143.8173  161.8536 C   0  0  0  0  0  0  0  0  0  0  0  0
  152.0612  144.7260  160.6974 C   0  0  0  0  0  0  0  0  0  0  0  0
  152.7351  144.3282  159.3717 C   0  0  2  0  0  0  0  0  0  0  0  0
  152.4957  145.3762  158.2719 C   0  0  0  0  0  0  0  0  0  0  0  0
  152.3884  142.8599  158.9774 C   0  0  2  0  0  0  0  0  0  0  0  0
  150.9495  142.6542  158.4378 C   0  0  0  0  0  0  0  0  0  0  0  0
  150.8030  143.1007  157.0385 N   0  3  0  0  0  0  0  0  0  0  0  0
  150.5636  142.0083  156.0739 C   0  0  0  0  0  0  0  0  0  0  0  0
  151.3523  140.7436  156.4461 C   0  0  0  0  0  0  0  0  0  0  0  0
  151.0847  139.5904  155.5257 C   0  0  0  0  0  0  0  0  0  0  0  0
  150.3697  139.6908  154.4090 N   0  0  0  0  0  0  0  0  0  0  0  0
  150.3921  138.4146  153.8564 C   0  0  0  0  0  0  0  0  0  0  0  0
  151.1333  137.5834  154.6611 C   0  0  0  0  0  0  0  0  0  0  0  0
  151.5768  138.3530  155.7285 N   0  0  0  0  0  0  0  0  0  0  0  0
  152.4034  137.8895  156.8260 C   0  0  0  0  0  0  0  0  0  0  0  0
  153.7139  140.3623  159.1440 H   0  0  0  0  0  0  0  0  0  0  0  0
  151.9944  140.0173  159.3602 H   0  0  0  0  0  0  0  0  0  0  0  0
  153.0986  139.8828  160.7236 H   0  0  0  0  0  0  0  0  0  0  0  0
  152.8914  141.6732  162.2365 H   0  0  0  0  0  0  0  0  0  0  0  0
  151.7926  143.8737  162.6741 H   0  0  0  0  0  0  0  0  0  0  0  0
  153.4649  144.1646  162.2459 H   0  0  0  0  0  0  0  0  0  0  0  0
  150.9775  144.6778  160.5917 H   0  0  0  0  0  0  0  0  0  0  0  0
  152.2911  145.7626  160.9472 H   0  0  0  0  0  0  0  0  0  0  0  0
  153.8109  144.3467  159.5554 H   0  0  0  0  0  0  0  0  0  0  0  0
  151.4333  145.5476  158.0989 H   0  0  0  0  0  0  0  0  0  0  0  0
  152.9535  145.0731  157.3300 H   0  0  0  0  0  0  0  0  0  0  0  0
  152.9327  146.3353  158.5514 H   0  0  0  0  0  0  0  0  0  0  0  0
  153.0892  142.5584  158.1970 H   0  0  0  0  0  0  0  0  0  0  0  0
  150.6778  141.5995  158.4602 H   0  0  0  0  0  0  0  0  0  0  0  0
  150.2241  143.1689  159.0677 H   0  0  0  0  0  0  0  0  0  0  0  0
  150.0265  143.7446  156.9895 H   0  0  0  0  0  0  0  0  0  0  0  0
  149.4967  141.7848  156.0312 H   0  0  0  0  0  0  0  0  0  0  0  0
  150.8612  142.3447  155.0800 H   0  0  0  0  0  0  0  0  0  0  0  0
  152.4199  140.9636  156.4533 H   0  0  0  0  0  0  0  0  0  0  0  0
  151.1051  140.4396  157.4642 H   0  0  0  0  0  0  0  0  0  0  0  0
  149.8799  138.1955  152.9310 H   0  0  0  0  0  0  0  0  0  0  0  0
  151.3763  136.5353  154.5633 H   0  0  0  0  0  0  0  0  0  0  0  0
  152.6925  136.8502  156.6668 H   0  0  0  0  0  0  0  0  0  0  0  0
  151.8479  137.9598  157.7616 H   0  0  0  0  0  0  0  0  0  0  0  0
  153.3049  138.4991  156.8946 H   0  0  0  0  0  0  0  0  0  0  0  0
  151.6434  143.5919  156.7667 H   0  0  0  0  0  0  0  0  0  0  0  0
  1  2  1  0  0  0  0
  1 19  1  0  0  0  0
  1 20  1  0  0  0  0
  1 21  1  0  0  0  0
  2  8  1  0  0  0  0
  2  3  2  0  0  0  0
  3  4  1  0  0  0  0
  3 22  1  0  0  0  0
  4  5  1  0  0  0  0
  4 23  1  0  0  0  0
  4 24  1  0  0  0  0
  5  6  1  0  0  0  0
  5 25  1  0  0  0  0
  5 26  1  0  0  0  0
  6  7  1  0  0  0  0
  6  8  1  0  0  0  0
  6 27  1  0  0  0  0
  7 28  1  0  0  0  0
  7 29  1  0  0  0  0
  7 30  1  0  0  0  0
  8  9  1  0  0  0  0
  8 31  1  0  0  0  0
  9 10  1  0  0  0  0
  9 32  1  0  0  0  0
  9 33  1  0  0  0  0
 10 11  1  0  0  0  0
 10 34  1  0  0  0  0
 10 44  1  0  0  0  0
 11 12  1  0  0  0  0
 11 35  1  0  0  0  0
 11 36  1  0  0  0  0
 12 13  1  0  0  0  0
 12 37  1  0  0  0  0
 12 38  1  0  0  0  0
 13 17  1  0  0  0  0
 13 14  2  0  0  0  0
 14 15  1  0  0  0  0
 15 16  2  0  0  0  0
 15 39  1  0  0  0  0
 16 17  1  0  0  0  0
 16 40  1  0  0  0  0
 17 18  1  0  0  0  0
 18 41  1  0  0  0  0
 18 42  1  0  0  0  0
 18 43  1  0  0  0  0
M  CHG  1  10   1
M  END
> <s_m_source_file>
AV-unprocessed.smi

> <i_m_source_file_index>
3284

> <i_lp_mmshare_version>
43012

> <i_f3d_flags>
0

> <s_epik_input>
W0NIM11DMT1bQ0hdW0NIMl1bQ0gyXVtDQEBIXShbQ0gzXSlbQ0BIXTFbQ0gyXVtOSF1bQ0gyXVtDSDJdYzJuW2NIXVtjSF1uMltDSDNd

> <s_epik_cmdline>
J2VwaWtfcHl0aG9uJywgJy1waCcsICc3LjAnLCAnLXRuJywgJzgnLCAnLW1hJywgJzIwMCcsICctbWV0YWxfYmluZGluZycsICctaW1hZScsICc8aW5maWxlLm1hZT4nLCAnLW9tYWUnLCAnPG91dGZpbGUubWFlPic=

> <r_lp_tautomer_probability>
1

> <r_epik_Ionization_Penalty>
0.150779

> <r_epik_Ionization_Penalty_Charging>
0.150779

> <r_epik_Ionization_Penalty_Neutral>
1.39452e-13

> <r_epik_State_Penalty>
0.349447

> <r_epik_Charging_Adjusted_Penalty>
0.500226

> <i_epik_Tot_Q>
1

> <i_epik_Tot_abs_Q>
1

> <r_epik_Metal_State_Penalty>
0.000470967

> <b_epik_Metal_Only>
0

> <s_lp_Force_Field>
OPLS_2005

> <r_lp_Energy>
16.0755

> <b_lp_Chiralities_Consistent>
1

> <s_lp_Variant>
AV-unprocessed.smi:3284-4

> <Gold.Version>
5.8.1

> <Gold.Id.Protein>
6NUR|6NUR_protein|mol2

> <Gold.PLP.Fitness>
58.5422

> <Gold.PLP.PLP>
-46.5704

> <Gold.PLP.part.hbond>
-2.0000

> <Gold.PLP.part.metal>
0.0000

> <Gold.PLP.part.buried>
-6.3998

> <Gold.PLP.part.nonpolar>
-36.5700

> <Gold.PLP.part.repulsive>
0.1489

> <Gold.PLP.ligand.clash>
0.0000

> <Gold.PLP.ligand.torsion>
0.7157

> <Gold.PLP.Chemscore.Hbond>
2.5960

> <Gold.PLP.Chemscore.CHOScore>
1.8097

> <Gold.PLP.Chemscore.Metal>
0.0000

> <Gold.Chemscore.Hbonds>
donor molecule, donor type, donor heavy atom, donor atom, acceptor molecule, acceptor atom, score
      L1  H    10    34       P1  8028  1.66
      P1  H  7989  7998       L1    14  0.80
      L1  C    15    39       P1  7948  1.00
      L1  C    15    39       P1  7957  0.77

> <Gold.PLP.Chemscore.Internal.Correction>
0.1860

> <Gold.Rescore>
     Score         DG    S(hbond)    S(metal)    S(lipo)     H(rot)  DE(clash)    DE(int)     intcor
     21.50     -23.74       1.89        0.00     137.39       1.61       1.38       0.87       ----

> <Gold.Chemscore.Fitness>
21.4961

> <Gold.Chemscore.DG>
-23.7422

> <Gold.Chemscore.ZeroCoef>
-5.4800

> <Gold.Chemscore.Hbond>
1.8893

> <Gold.Chemscore.Metal>
0.0000

> <Gold.Chemscore.Lipo>
137.3917

> <Gold.Chemscore.Internal_Hbond>
0.0000

> <Gold.Chemscore.DEClash>
1.3777

> <Gold.Chemscore.DEInternal>
0.8685

> <Gold.Chemscore.Rot>
1.6105

> <Gold.Chemscore.Internal.Correction>
   9.000000E+99

> <Gold.Chemscore.Hbonds>
donor molecule, donor type, donor heavy atom, donor atom, acceptor molecule, acceptor atom, score
      L1  H    10    34       P1  8028  0.79
      P1  H  7989  7998       L1    14  0.09

> <Gold.Chemscore.Hbond.Weighted>
-6.3104

> <Gold.Chemscore.Metal.Weighted>
-0.0000

> <Gold.Chemscore.Lipo.Weighted>
-16.0748

> <Gold.Chemscore.Internal_Hbond.Weighted>
0.0000

> <Gold.Chemscore.DEClash.Weighted>
1.3777

> <Gold.Chemscore.DEInternal.Weighted>
0.8685

> <Gold.Chemscore.Rot.Weighted>
4.1230

> <Gold.Chemscore.Internal.Correction.Weighted>
   9.000000E+99

> <Gold.Protein.RotatedTorsions>
[ 6907 6896 6895 6894 ] final   89.26 input  -60.11 | X-H torsion
[ 7974 7965 7964 7962 ] final  162.15 input  175.53 | X-H torsion
[ 8008 7997 7996 7995 ] final -178.19 input   59.86 | X-H torsion
[ 10167 10162 10161 10158 ] final  118.11 input  -65.29 | X-H torsion
[ 10718 10713 10712 10709 ] final  119.74 input   66.30 | X-H torsion
[ 10763 10752 10751 10750 ] final  149.17 input  -60.55 | X-H torsion
[ 11005 11000 10999 10996 ] final  -87.24 input  -57.11 | X-H torsion

> <Gold.Protein.ActiveResidues>
 VAL166  LYS551  ARG553  GLY616  TRP617  ASP618  TYR619  PRO620  LYS621  CYS622 
 ASP623  PHE694  ASN695  SER759  ASP760  ASP761  ALA762  ILE779  LEU786  VAL792 
 PHE793  MET794  SER795  GLU796  ALA797  LYS798  CYS799  TRP800  GLU811  SER814 

> <Gold.Protein.RotatedAtoms>
  152.5434  134.1994  159.8705 H   0  0  0  0  0  0  0  0  0  0  0  0  # atno 6907 bound_to 6896
  151.1983  133.4619  159.2603 H   0  0  0  0  0  0  0  0  0  0  0  0  # atno 6908 bound_to 6896
  151.1014  134.9987  159.8506 H   0  0  0  0  0  0  0  0  0  0  0  0  # atno 6909 bound_to 6896
  144.7651  139.7999  143.6318 H   0  0  0  0  0  0  0  0  0  0  0  0  # atno 7974 bound_to 7965
  156.0159  140.1250  157.0407 H   0  0  0  0  0  0  0  0  0  0  0  0  # atno 8008 bound_to 7997
  154.4293  140.1078  156.5964 H   0  0  0  0  0  0  0  0  0  0  0  0  # atno 8009 bound_to 7997
  155.6014  140.3470  155.4597 H   0  0  0  0  0  0  0  0  0  0  0  0  # atno 8010 bound_to 7997
  139.6133  144.7086  151.2795 H   0  0  0  0  0  0  0  0  0  0  0  0  # atno 10167 bound_to 10162
  157.5940  131.1060  150.7938 H   0  0  0  0  0  0  0  0  0  0  0  0  # atno 10718 bound_to 10713
  154.0668  135.2870  155.3315 H   0  0  0  0  0  0  0  0  0  0  0  0  # atno 10763 bound_to 10752
  154.6772  135.5277  153.8219 H   0  0  0  0  0  0  0  0  0  0  0  0  # atno 10764 bound_to 10752
  153.0501  135.6572  154.0852 H   0  0  0  0  0  0  0  0  0  0  0  0  # atno 10765 bound_to 10752
  141.1619  133.7500  156.9279 H   0  0  0  0  0  0  0  0  0  0  0  0  # atno 11005 bound_to 11000
  146.1750  139.4917  142.9903 LP  0  0  0  0  0  0  0  0  0  0  0  0  # atno 17320 bound_to 7965
  145.6497  141.0266  143.1767 LP  0  0  0  0  0  0  0  0  0  0  0  0  # atno 17321 bound_to 7965
  140.7334  143.6796  150.8012 LP  0  0  0  0  0  0  0  0  0  0  0  0  # atno 17342 bound_to 10162
  140.0394  143.5361  152.2724 LP  0  0  0  0  0  0  0  0  0  0  0  0  # atno 17343 bound_to 10162
  156.8353  130.5029  149.5327 LP  0  0  0  0  0  0  0  0  0  0  0  0  # atno 17370 bound_to 10713
  156.1000  130.5961  150.9877 LP  0  0  0  0  0  0  0  0  0  0  0  0  # atno 17371 bound_to 10713
  140.1407  134.9296  157.2462 LP  0  0  0  0  0  0  0  0  0  0  0  0  # atno 17394 bound_to 11000
  140.2840  134.3316  155.7334 LP  0  0  0  0  0  0  0  0  0  0  0  0  # atno 17395 bound_to 11000

$$$$
