AV-unprocessed.smi:72|AV-procd|sdf|730|dock6
  -GOLD-   2262017 63D 1   1.00000     0.00000
 Structure written by MMmdl.
 28 29  0  0  0  0  0  0  0  0  2 V2000
  154.7419  137.9334  157.2709 N   0  0  0  0  0  0  0  0  0  0  0  0
  153.5016  138.0645  157.0836 C   0  0  0  0  0  0  0  0  0  0  0  0
  152.5635  137.4035  157.9644 N   0  0  0  0  0  0  0  0  0  0  0  0
  151.2976  137.5636  157.7287 C   0  0  0  0  0  0  0  0  0  0  0  0
  150.8181  138.3747  156.6182 N   0  0  0  0  0  0  0  0  0  0  0  0
  149.3326  138.5551  156.3672 C   0  0  1  0  0  0  0  0  0  0  0  0
  149.0861  139.8886  156.0292 O   0  0  0  0  0  0  0  0  0  0  0  0
  148.1414  139.9479  154.9656 C   0  0  1  0  0  0  0  0  0  0  0  0
  148.2345  141.2860  154.2112 C   0  0  0  0  0  0  0  0  0  0  0  0
  147.6164  142.3109  154.9602 O   0  0  0  0  0  0  0  0  0  0  0  0
  148.4623  138.6973  154.1362 C   0  0  1  0  0  0  0  0  0  0  0  0
  149.5468  138.9362  153.2536 O   0  0  0  0  0  0  0  0  0  0  0  0
  148.8003  137.6742  155.2157 C   0  0  1  0  0  0  0  0  0  0  0  0
  149.6700  136.6510  154.7615 O   0  0  0  0  0  0  0  0  0  0  0  0
  151.7614  139.0257  155.7786 C   0  0  0  0  0  0  0  0  0  0  0  0
  151.3380  139.7332  154.8644 O   0  0  0  0  0  0  0  0  0  0  0  0
  153.0892  138.8487  156.0287 N   0  5  0  0  0  0  0  0  0  0  0  0
  148.8309  138.3565  157.3151 H   0  0  0  0  0  0  0  0  0  0  0  0
  147.1421  139.8237  155.3877 H   0  0  0  0  0  0  0  0  0  0  0  0
  147.6064  138.3812  153.5391 H   0  0  0  0  0  0  0  0  0  0  0  0
  147.8768  137.2118  155.5666 H   0  0  0  0  0  0  0  0  0  0  0  0
  154.9570  137.3445  158.0622 H   0  0  0  0  0  0  0  0  0  0  0  0
  150.5200  137.1083  158.3429 H   0  0  0  0  0  0  0  0  0  0  0  0
  149.2705  141.5481  153.9932 H   0  0  0  0  0  0  0  0  0  0  0  0
  147.7079  141.2173  153.2590 H   0  0  0  0  0  0  0  0  0  0  0  0
  148.1023  143.1112  154.8322 H   0  0  0  0  0  0  0  0  0  0  0  0
  149.2174  139.4000  152.4987 H   0  0  0  0  0  0  0  0  0  0  0  0
  149.5051  136.5088  153.8415 H   0  0  0  0  0  0  0  0  0  0  0  0
  1  2  2  0  0  0  0
  1 22  1  0  0  0  0
  2 17  1  0  0  0  0
  2  3  1  0  0  0  0
  3  4  2  0  0  0  0
  4  5  1  0  0  0  0
  4 23  1  0  0  0  0
  5  6  1  0  0  0  0
  5 15  1  0  0  0  0
  6 18  1  0  0  0  0
  6 13  1  0  0  0  0
  6  7  1  0  0  0  0
  7  8  1  0  0  0  0
  8 19  1  0  0  0  0
  8  9  1  0  0  0  0
  8 11  1  0  0  0  0
  9 10  1  0  0  0  0
  9 24  1  0  0  0  0
  9 25  1  0  0  0  0
 10 26  1  0  0  0  0
 11 20  1  0  0  0  0
 11 12  1  0  0  0  0
 11 13  1  0  0  0  0
 12 27  1  0  0  0  0
 13 21  1  0  0  0  0
 13 14  1  0  0  0  0
 14 28  1  0  0  0  0
 15 16  2  0  0  0  0
 15 17  1  0  0  0  0
M  CHG  1  17  -1
M  END
> <s_m_source_file>
AV-unprocessed.smi

> <i_m_source_file_index>
72

> <i_lp_mmshare_version>
43012

> <i_f3d_flags>
0

> <s_epik_input>
W05IMl1jMW5bY0hdbihjKD1PKW4xKVtDQEBIXTJPW0NASF0oW0NIMl1bT0hdKVtDQEBIXShbT0hdKVtDQEhdMltPSF0=

> <s_epik_cmdline>
J2VwaWtfcHl0aG9uJywgJy1waCcsICc3LjAnLCAnLXRuJywgJzgnLCAnLW1hJywgJzIwMCcsICctbWV0YWxfYmluZGluZycsICctaW1hZScsICc8aW5maWxlLm1hZT4nLCAnLW9tYWUnLCAnPG91dGZpbGUubWFlPic=

> <r_lp_tautomer_probability>
7.17554e-07

> <r_epik_Ionization_Penalty>
12.8705

> <r_epik_Ionization_Penalty_Charging>
5.64144

> <r_epik_Ionization_Penalty_Neutral>
7.22905

> <r_epik_State_Penalty>
3.30104

> <r_epik_Charging_Adjusted_Penalty>
8.94249

> <i_epik_Tot_Q>
-1

> <i_epik_Tot_abs_Q>
1

> <r_epik_Metal_State_Penalty>
0.529074

> <b_epik_Metal_Only>
1

> <s_epik_Chemistry_Notes>
This compound contains an acetal/aminal-like group ( X-CH(R)-Y where X, Y are N, S, or O) that may be acid/base labile, releasing an aldehyde.

> <s_lp_Force_Field>
OPLS_2005

> <r_lp_Energy>
43.5676

> <b_lp_Chiralities_Consistent>
1

> <s_lp_Variant>
AV-unprocessed.smi:72-68

> <Gold.Version>
5.8.1

> <Gold.Id.Protein>
6NUR|6NUR_protein|mol2

> <Gold.PLP.Fitness>
34.6273

> <Gold.PLP.PLP>
-18.0769

> <Gold.PLP.part.hbond>
-6.2182

> <Gold.PLP.part.metal>
0.0000

> <Gold.PLP.part.buried>
-3.3670

> <Gold.PLP.part.nonpolar>
-8.1360

> <Gold.PLP.part.repulsive>
0.0576

> <Gold.PLP.ligand.clash>
0.0000

> <Gold.PLP.ligand.torsion>
0.6439

> <Gold.PLP.Chemscore.Hbond>
5.9442

> <Gold.PLP.Chemscore.CHOScore>
0.0000

> <Gold.PLP.Chemscore.Metal>
0.0000

> <Gold.Chemscore.Hbonds>
donor molecule, donor type, donor heavy atom, donor atom, acceptor molecule, acceptor atom, score
      L1  H    10    26       P1  8028  0.96
      L1  H    12    27       P1  7957  0.87
      L1  H    14    28       P1  7948  0.96
      P1  H  7989  7998       L1    16  1.00
      P1  H  7997  8008       L1    17  1.98
      P1  H  7997  8010       L1     1  0.12

> <Gold.PLP.Chemscore.Internal.Correction>
0.0055

> <Gold.Rescore>
     Score         DG    S(hbond)    S(metal)    S(lipo)     H(rot)  DE(clash)    DE(int)     intcor
      7.61     -11.70       4.31        0.00      18.41       4.04       0.00       4.09       ----

> <Gold.Chemscore.Fitness>
7.6074

> <Gold.Chemscore.DG>
-11.6974

> <Gold.Chemscore.ZeroCoef>
-5.4800

> <Gold.Chemscore.Hbond>
4.3132

> <Gold.Chemscore.Metal>
0.0000

> <Gold.Chemscore.Lipo>
18.4130

> <Gold.Chemscore.Internal_Hbond>
0.0000

> <Gold.Chemscore.DEClash>
0.0000

> <Gold.Chemscore.DEInternal>
4.0900

> <Gold.Chemscore.Rot>
4.0403

> <Gold.Chemscore.Internal.Correction>
   9.000000E+99

> <Gold.Chemscore.Hbonds>
donor molecule, donor type, donor heavy atom, donor atom, acceptor molecule, acceptor atom, score
      L1  H    10    26       P1  8028  0.88
      L1  H    12    27       P1  7957  0.80
      L1  H    14    28       P1  7948  0.72
      P1  H  7989  7998       L1    16  1.00
      P1  H  7997  8008       L1    17  0.24
      P1  H  7997  8010       L1     1  0.06

> <Gold.Chemscore.Hbond.Weighted>
-14.4061

> <Gold.Chemscore.Metal.Weighted>
-0.0000

> <Gold.Chemscore.Lipo.Weighted>
-2.1543

> <Gold.Chemscore.Internal_Hbond.Weighted>
0.0000

> <Gold.Chemscore.DEClash.Weighted>
0.0000

> <Gold.Chemscore.DEInternal.Weighted>
4.0900

> <Gold.Chemscore.Rot.Weighted>
10.3431

> <Gold.Chemscore.Internal.Correction.Weighted>
   9.000000E+99

> <Gold.Protein.RotatedTorsions>
[ 6907 6896 6895 6894 ] final  114.16 input  -60.11 | X-H torsion
[ 7974 7965 7964 7962 ] final  -80.25 input  175.53 | X-H torsion
[ 8008 7997 7996 7995 ] final  -25.58 input   59.86 | X-H torsion
[ 10167 10162 10161 10158 ] final  -42.31 input  -65.29 | X-H torsion
[ 10718 10713 10712 10709 ] final  -33.19 input   66.30 | X-H torsion
[ 10763 10752 10751 10750 ] final -169.68 input  -60.55 | X-H torsion
[ 11005 11000 10999 10996 ] final -100.00 input  -57.11 | X-H torsion

> <Gold.Protein.ActiveResidues>
 VAL166  LYS551  ARG553  GLY616  TRP617  ASP618  TYR619  PRO620  LYS621  CYS622 
 ASP623  PHE694  ASN695  SER759  ASP760  ASP761  ALA762  ILE779  LEU786  VAL792 
 PHE793  MET794  SER795  GLU796  ALA797  LYS798  CYS799  TRP800  GLU811  SER814 

> <Gold.Protein.RotatedAtoms>
  152.4818  133.8274  159.7085 H   0  0  0  0  0  0  0  0  0  0  0  0  # atno 6907 bound_to 6896
  150.8874  133.7279  159.2921 H   0  0  0  0  0  0  0  0  0  0  0  0  # atno 6908 bound_to 6896
  151.4763  135.1053  159.9817 H   0  0  0  0  0  0  0  0  0  0  0  0  # atno 6909 bound_to 6896
  145.5625  140.9480  143.1440 H   0  0  0  0  0  0  0  0  0  0  0  0  # atno 7974 bound_to 7965
  154.4468  140.1922  156.0641 H   0  0  0  0  0  0  0  0  0  0  0  0  # atno 8008 bound_to 7997
  156.0560  140.3302  155.7379 H   0  0  0  0  0  0  0  0  0  0  0  0  # atno 8009 bound_to 7997
  155.5484  140.0592  157.2846 H   0  0  0  0  0  0  0  0  0  0  0  0  # atno 8010 bound_to 7997
  140.6973  143.3045  151.3191 H   0  0  0  0  0  0  0  0  0  0  0  0  # atno 10167 bound_to 10162
  156.3657  130.4331  149.7586 H   0  0  0  0  0  0  0  0  0  0  0  0  # atno 10718 bound_to 10713
  154.6497  135.2909  155.0002 H   0  0  0  0  0  0  0  0  0  0  0  0  # atno 10763 bound_to 10752
  154.1099  135.6564  153.4887 H   0  0  0  0  0  0  0  0  0  0  0  0  # atno 10764 bound_to 10752
  153.0370  135.5262  154.7400 H   0  0  0  0  0  0  0  0  0  0  0  0  # atno 10765 bound_to 10752
  141.1287  133.8365  157.1045 H   0  0  0  0  0  0  0  0  0  0  0  0  # atno 11005 bound_to 11000
  144.7476  139.7278  143.7286 LP  0  0  0  0  0  0  0  0  0  0  0  0  # atno 17320 bound_to 7965
  146.1841  139.5048  142.9847 LP  0  0  0  0  0  0  0  0  0  0  0  0  # atno 17321 bound_to 7965
  139.6445  144.0477  152.2580 LP  0  0  0  0  0  0  0  0  0  0  0  0  # atno 17342 bound_to 10162
  139.9993  144.6305  150.7744 LP  0  0  0  0  0  0  0  0  0  0  0  0  # atno 17343 bound_to 10162
  156.4733  130.8007  151.3024 LP  0  0  0  0  0  0  0  0  0  0  0  0  # atno 17370 bound_to 10713
  157.7478  131.0029  150.3017 LP  0  0  0  0  0  0  0  0  0  0  0  0  # atno 17371 bound_to 10713
  140.0313  134.9900  157.0785 LP  0  0  0  0  0  0  0  0  0  0  0  0  # atno 17394 bound_to 11000
  140.4281  134.1810  155.7167 LP  0  0  0  0  0  0  0  0  0  0  0  0  # atno 17395 bound_to 11000

$$$$
