AV-unprocessed.smi:805|AV-procd|sdf|3798|dock5
  -GOLD-   22720 1233D 1   1.00000     0.00000
 Structure written by MMmdl.
 40 41  0  0  0  0  0  0  0  0  1 V2000
  144.2342  132.3044  149.4616 C   0  0  0  0  0  0  0  0  0  0  0  0
  143.5883  132.0826  150.8309 C   0  0  0  0  0  0  0  0  0  0  0  0
  144.1682  132.9806  151.7618 O   0  0  0  0  0  0  0  0  0  0  0  0
  144.0741  134.3355  151.3516 C   0  0  2  0  0  0  0  0  0  0  0  0
  145.3009  134.8660  150.6022 C   0  0  0  0  0  0  0  0  0  0  0  0
  145.0604  136.1696  151.3647 C   0  0  2  0  0  0  0  0  0  0  0  0
  146.2998  136.8318  151.7567 N   0  0  0  0  0  0  0  0  0  0  0  0
  146.3558  137.9983  152.4126 C   0  0  0  0  0  0  0  0  0  0  0  0
  145.3572  138.6350  152.7477 O   0  0  0  0  0  0  0  0  0  0  0  0
  147.6269  138.3529  152.6671 N   0  0  0  0  0  0  0  0  0  0  0  0
  148.1051  139.5210  153.3200 C   0  0  0  0  0  0  0  0  0  0  0  0
  147.3908  140.7416  153.3938 C   0  0  0  0  0  0  0  0  0  0  0  0
  147.9821  141.8358  154.0543 C   0  0  0  0  0  0  0  0  0  0  0  0
  149.2664  141.6734  154.6090 C   0  0  0  0  0  0  0  0  0  0  0  0
  149.9642  140.5205  154.5343 N   0  0  0  0  0  0  0  0  0  0  0  0
  149.3910  139.4755  153.8995 C   0  0  0  0  0  0  0  0  0  0  0  0
  144.3815  135.3411  152.4887 C   0  0  0  0  0  0  0  0  0  0  0  0
  143.1633  135.9867  153.1489 C   0  0  0  0  0  0  0  0  0  0  0  0
  145.2828  134.8241  153.6239 C   0  0  0  0  0  0  0  0  0  0  0  0
  143.8141  131.6264  148.7184 H   0  0  0  0  0  0  0  0  0  0  0  0
  145.3094  132.1294  149.5043 H   0  0  0  0  0  0  0  0  0  0  0  0
  144.0735  133.3250  149.1131 H   0  0  0  0  0  0  0  0  0  0  0  0
  142.5119  132.2464  150.7652 H   0  0  0  0  0  0  0  0  0  0  0  0
  143.7472  131.0525  151.1538 H   0  0  0  0  0  0  0  0  0  0  0  0
  143.1365  134.5654  150.8397 H   0  0  0  0  0  0  0  0  0  0  0  0
  146.2274  134.3558  150.8719 H   0  0  0  0  0  0  0  0  0  0  0  0
  145.1785  134.9402  149.5214 H   0  0  0  0  0  0  0  0  0  0  0  0
  144.3582  136.8183  150.8348 H   0  0  0  0  0  0  0  0  0  0  0  0
  147.1649  136.3679  151.5207 H   0  0  0  0  0  0  0  0  0  0  0  0
  148.3353  137.6822  152.4078 H   0  0  0  0  0  0  0  0  0  0  0  0
  146.4159  140.8658  152.9490 H   0  0  0  0  0  0  0  0  0  0  0  0
  147.4637  142.7802  154.1297 H   0  0  0  0  0  0  0  0  0  0  0  0
  149.7479  142.4934  155.1209 H   0  0  0  0  0  0  0  0  0  0  0  0
  149.9790  138.5702  153.8572 H   0  0  0  0  0  0  0  0  0  0  0  0
  143.4519  136.8160  153.7953 H   0  0  0  0  0  0  0  0  0  0  0  0
  142.6109  135.2694  153.7566 H   0  0  0  0  0  0  0  0  0  0  0  0
  142.4691  136.3836  152.4078 H   0  0  0  0  0  0  0  0  0  0  0  0
  145.5914  135.6304  154.2901 H   0  0  0  0  0  0  0  0  0  0  0  0
  146.1909  134.3532  153.2471 H   0  0  0  0  0  0  0  0  0  0  0  0
  144.7686  134.0797  154.2326 H   0  0  0  0  0  0  0  0  0  0  0  0
  1  2  1  0  0  0  0
  1 20  1  0  0  0  0
  1 21  1  0  0  0  0
  1 22  1  0  0  0  0
  2  3  1  0  0  0  0
  2 23  1  0  0  0  0
  2 24  1  0  0  0  0
  3  4  1  0  0  0  0
  4 17  1  0  0  0  0
  4  5  1  0  0  0  0
  4 25  1  0  0  0  0
  5  6  1  0  0  0  0
  5 26  1  0  0  0  0
  5 27  1  0  0  0  0
  6  7  1  0  0  0  0
  6 17  1  0  0  0  0
  6 28  1  0  0  0  0
  7  8  1  0  0  0  0
  7 29  1  0  0  0  0
  8  9  2  0  0  0  0
  8 10  1  0  0  0  0
 10 11  1  0  0  0  0
 10 30  1  0  0  0  0
 11 16  1  0  0  0  0
 11 12  2  0  0  0  0
 12 13  1  0  0  0  0
 12 31  1  0  0  0  0
 13 14  2  0  0  0  0
 13 32  1  0  0  0  0
 14 15  1  0  0  0  0
 14 33  1  0  0  0  0
 15 16  2  0  0  0  0
 16 34  1  0  0  0  0
 17 18  1  0  0  0  0
 17 19  1  0  0  0  0
 18 35  1  0  0  0  0
 18 36  1  0  0  0  0
 18 37  1  0  0  0  0
 19 38  1  0  0  0  0
 19 39  1  0  0  0  0
 19 40  1  0  0  0  0
M  END
> <s_m_source_file>
AV-unprocessed.smi

> <i_m_source_file_index>
805

> <i_lp_mmshare_version>
43012

> <i_f3d_flags>
0

> <s_epik_input>
W0NIM11bQ0gyXU9bQ0BASF0oQzEoW0NIM10pW0NIM10pW0NIMl1bQ0BIXTFbTkhdQyg9TylbTkhdYzJbY0hdW2NIXVtjSF1uW2NIXTI=

> <s_epik_cmdline>
J2VwaWtfcHl0aG9uJywgJy1waCcsICc3LjAnLCAnLXRuJywgJzgnLCAnLW1hJywgJzIwMCcsICctbWV0YWxfYmluZGluZycsICctaW1hZScsICc8aW5maWxlLm1hZT4nLCAnLW9tYWUnLCAnPG91dGZpbGUubWFlPic=

> <r_epik_Ionization_Penalty>
0.00485231

> <r_epik_Ionization_Penalty_Charging>
0

> <r_epik_Ionization_Penalty_Neutral>
0.00485231

> <r_epik_State_Penalty>
0.00349213

> <r_epik_Charging_Adjusted_Penalty>
0.00349213

> <i_epik_Tot_Q>
0

> <i_epik_Tot_abs_Q>
0

> <r_epik_Metal_State_Penalty>
-0

> <b_epik_Metal_Only>
0

> <s_lp_Force_Field>
OPLS_2005

> <r_lp_Energy>
21.5129

> <b_lp_Chiralities_Consistent>
1

> <s_lp_Variant>
AV-unprocessed.smi:805-3

> <Gold.Version>
5.8.1

> <Gold.Id.Protein>
6NUR|6NUR_protein|mol2

> <Gold.PLP.Fitness>
41.4162

> <Gold.PLP.PLP>
-30.7896

> <Gold.PLP.part.hbond>
-4.0000

> <Gold.PLP.part.metal>
0.0000

> <Gold.PLP.part.buried>
2.2511

> <Gold.PLP.part.nonpolar>
-33.0577

> <Gold.PLP.part.repulsive>
4.3640

> <Gold.PLP.ligand.clash>
0.0000

> <Gold.PLP.ligand.torsion>
0.5560

> <Gold.PLP.Chemscore.Hbond>
2.8720

> <Gold.PLP.Chemscore.CHOScore>
0.9395

> <Gold.PLP.Chemscore.Metal>
0.0000

> <Gold.Chemscore.Hbonds>
donor molecule, donor type, donor heavy atom, donor atom, acceptor molecule, acceptor atom, score
      L1  H     7    29       P1  7948  0.96
      L1  H    10    30       P1  7948  1.00
      P1  H  7989  7998       L1    15  0.85
      L1  C    14    33       P1  8028  0.99

> <Gold.PLP.Chemscore.Internal.Correction>
0.3040

> <Gold.Rescore>
     Score         DG    S(hbond)    S(metal)    S(lipo)     H(rot)  DE(clash)    DE(int)     intcor
     15.11     -18.43       2.13        0.00      79.41       1.36       1.57       1.75       ----

> <Gold.Chemscore.Fitness>
15.1053

> <Gold.Chemscore.DG>
-18.4285

> <Gold.Chemscore.ZeroCoef>
-5.4800

> <Gold.Chemscore.Hbond>
2.1337

> <Gold.Chemscore.Metal>
0.0000

> <Gold.Chemscore.Lipo>
79.4106

> <Gold.Chemscore.Internal_Hbond>
0.0000

> <Gold.Chemscore.DEClash>
1.5749

> <Gold.Chemscore.DEInternal>
1.7483

> <Gold.Chemscore.Rot>
1.3551

> <Gold.Chemscore.Internal.Correction>
   9.000000E+99

> <Gold.Chemscore.Hbonds>
donor molecule, donor type, donor heavy atom, donor atom, acceptor molecule, acceptor atom, score
      L1  H     7    29       P1  7948  0.92
      L1  H    10    30       P1  7948  0.99
      P1  H  7989  7998       L1    15  0.22

> <Gold.Chemscore.Hbond.Weighted>
-7.1266

> <Gold.Chemscore.Metal.Weighted>
-0.0000

> <Gold.Chemscore.Lipo.Weighted>
-9.2910

> <Gold.Chemscore.Internal_Hbond.Weighted>
0.0000

> <Gold.Chemscore.DEClash.Weighted>
1.5749

> <Gold.Chemscore.DEInternal.Weighted>
1.7483

> <Gold.Chemscore.Rot.Weighted>
3.4691

> <Gold.Chemscore.Internal.Correction.Weighted>
   9.000000E+99

> <Gold.Protein.RotatedTorsions>
[ 6907 6896 6895 6894 ] final  131.02 input  -60.11 | X-H torsion
[ 7974 7965 7964 7962 ] final -138.97 input  175.53 | X-H torsion
[ 8008 7997 7996 7995 ] final   88.26 input   59.86 | X-H torsion
[ 10167 10162 10161 10158 ] final -103.26 input  -65.29 | X-H torsion
[ 10718 10713 10712 10709 ] final -169.35 input   66.30 | X-H torsion
[ 10763 10752 10751 10750 ] final -156.02 input  -60.55 | X-H torsion
[ 11005 11000 10999 10996 ] final   29.53 input  -57.11 | X-H torsion

> <Gold.Protein.ActiveResidues>
 VAL166  LYS551  ARG553  GLY616  TRP617  ASP618  TYR619  PRO620  LYS621  CYS622 
 ASP623  PHE694  ASN695  SER759  ASP760  ASP761  ALA762  ILE779  LEU786  VAL792 
 PHE793  MET794  SER795  GLU796  ALA797  LYS798  CYS799  TRP800  GLU811  SER814 

> <Gold.Protein.RotatedAtoms>
  152.3468  133.6132  159.5915 H   0  0  0  0  0  0  0  0  0  0  0  0  # atno 6907 bound_to 6896
  150.7513  133.9636  159.3532 H   0  0  0  0  0  0  0  0  0  0  0  0  # atno 6908 bound_to 6896
  151.7493  135.0837  160.0379 H   0  0  0  0  0  0  0  0  0  0  0  0  # atno 6909 bound_to 6896
  144.8714  140.6373  143.5264 H   0  0  0  0  0  0  0  0  0  0  0  0  # atno 7974 bound_to 7965
  155.9855  140.3373  155.6703 H   0  0  0  0  0  0  0  0  0  0  0  0  # atno 8008 bound_to 7997
  155.6491  140.0703  157.2611 H   0  0  0  0  0  0  0  0  0  0  0  0  # atno 8009 bound_to 7997
  154.4204  140.1729  156.1642 H   0  0  0  0  0  0  0  0  0  0  0  0  # atno 8010 bound_to 7997
  140.2219  143.3670  152.0962 H   0  0  0  0  0  0  0  0  0  0  0  0  # atno 10167 bound_to 10162
  156.7103  130.9231  151.3088 H   0  0  0  0  0  0  0  0  0  0  0  0  # atno 10718 bound_to 10713
  154.7744  135.3155  154.8123 H   0  0  0  0  0  0  0  0  0  0  0  0  # atno 10763 bound_to 10752
  153.8851  135.6831  153.4768 H   0  0  0  0  0  0  0  0  0  0  0  0  # atno 10764 bound_to 10752
  153.1364  135.4758  154.9364 H   0  0  0  0  0  0  0  0  0  0  0  0  # atno 10765 bound_to 10752
  140.3039  134.2725  155.7748 H   0  0  0  0  0  0  0  0  0  0  0  0  # atno 11005 bound_to 11000
  145.4123  139.1578  143.4119 LP  0  0  0  0  0  0  0  0  0  0  0  0  # atno 17320 bound_to 7965
  146.2933  140.4227  142.8731 LP  0  0  0  0  0  0  0  0  0  0  0  0  # atno 17321 bound_to 7965
  139.5141  144.6943  151.5674 LP  0  0  0  0  0  0  0  0  0  0  0  0  # atno 17342 bound_to 10162
  140.6249  143.9188  150.6556 LP  0  0  0  0  0  0  0  0  0  0  0  0  # atno 17343 bound_to 10162
  157.6939  130.9261  150.0589 LP  0  0  0  0  0  0  0  0  0  0  0  0  # atno 17370 bound_to 10713
  156.1666  130.3645  149.9224 LP  0  0  0  0  0  0  0  0  0  0  0  0  # atno 17371 bound_to 10713
  141.2122  133.7664  156.9808 LP  0  0  0  0  0  0  0  0  0  0  0  0  # atno 17394 bound_to 11000
  140.1084  134.9492  157.2029 LP  0  0  0  0  0  0  0  0  0  0  0  0  # atno 17395 bound_to 11000

$$$$
