AV-unprocessed.smi:546|AV-procd|sdf|2883|dock6
  -GOLD-   2262023373D 1   1.00000     0.00000
 Structure written by MMmdl.
 52 54  0  0  0  0  0  0  0  0  1 V2000
  154.1692  134.9596  159.6507 C   0  0  0  0  0  0  0  0  0  0  0  0
  153.4917  135.8990  158.6508 C   0  0  0  0  0  0  0  0  0  0  0  0
  152.3236  136.4438  159.2410 O   0  0  0  0  0  0  0  0  0  0  0  0
  152.5428  137.7319  159.7939 C   0  0  0  0  0  0  0  0  0  0  0  0
  153.0139  138.6952  158.6958 C   0  0  0  0  0  0  0  0  0  0  0  0
  152.6722  140.0824  159.0059 N   0  0  0  0  0  0  0  0  0  0  0  0
  151.9882  140.9970  158.2608 C   0  0  0  0  0  0  0  0  0  0  0  0
  151.5267  140.7329  156.9687 N   0  0  0  0  0  0  0  0  0  0  0  0
  150.5959  141.6061  156.2547 C   0  0  0  0  0  0  0  0  0  0  0  0
  149.4189  140.8139  155.6529 C   0  0  1  0  0  0  0  0  0  0  0  0
  148.4215  141.7392  154.9440 C   0  0  0  0  0  0  0  0  0  0  0  0
  149.9451  139.7188  154.7099 C   0  0  0  0  0  0  0  0  0  0  0  0
  150.9980  138.8555  155.4246 C   0  0  1  0  0  0  0  0  0  0  0  0
  151.5997  137.8028  154.4848 C   0  0  0  0  0  0  0  0  0  0  0  0
  152.0882  139.7646  156.0264 C   0  0  0  0  0  0  0  0  0  0  0  0
  151.7627  142.1584  158.8829 N   0  0  0  0  0  0  0  0  0  0  0  0
  152.3787  141.9868  160.1115 C   0  0  0  0  0  0  0  0  0  0  0  0
  152.9291  140.7505  160.2050 C   0  0  0  0  0  0  0  0  0  0  0  0
  153.6235  140.2886  161.4152 C   0  0  0  0  0  0  0  0  0  0  0  0
  154.1241  139.1717  161.5263 O   0  0  0  0  0  0  0  0  0  0  0  0
  153.6530  141.2192  162.3998 N   0  0  0  0  0  0  0  0  0  0  0  0
  153.1201  142.4786  162.3696 C   0  0  0  0  0  0  0  0  0  0  0  0
  153.2216  143.2130  163.3522 O   0  0  0  0  0  0  0  0  0  0  0  0
  152.4819  142.8730  161.2217 N   0  0  0  0  0  0  0  0  0  0  0  0
  151.8886  144.2088  161.1355 C   0  0  0  0  0  0  0  0  0  0  0  0
  154.1195  140.9522  163.2543 H   0  0  0  0  0  0  0  0  0  0  0  0
  155.0906  134.5496  159.2369 H   0  0  0  0  0  0  0  0  0  0  0  0
  153.5175  134.1232  159.9037 H   0  0  0  0  0  0  0  0  0  0  0  0
  154.4197  135.4835  160.5735 H   0  0  0  0  0  0  0  0  0  0  0  0
  154.1771  136.7007  158.3721 H   0  0  0  0  0  0  0  0  0  0  0  0
  153.2363  135.3508  157.7427 H   0  0  0  0  0  0  0  0  0  0  0  0
  151.6241  138.1055  160.2484 H   0  0  0  0  0  0  0  0  0  0  0  0
  153.2945  137.6740  160.5820 H   0  0  0  0  0  0  0  0  0  0  0  0
  154.0916  138.6172  158.5567 H   0  0  0  0  0  0  0  0  0  0  0  0
  152.5850  138.3929  157.7475 H   0  0  0  0  0  0  0  0  0  0  0  0
  150.2091  142.3602  156.9415 H   0  0  0  0  0  0  0  0  0  0  0  0
  151.1333  142.1458  155.4738 H   0  0  0  0  0  0  0  0  0  0  0  0
  148.8916  140.3268  156.4730 H   0  0  0  0  0  0  0  0  0  0  0  0
  148.8906  142.2636  154.1109 H   0  0  0  0  0  0  0  0  0  0  0  0
  148.0270  142.4889  155.6304 H   0  0  0  0  0  0  0  0  0  0  0  0
  147.5755  141.1754  154.5498 H   0  0  0  0  0  0  0  0  0  0  0  0
  149.1213  139.0947  154.3617 H   0  0  0  0  0  0  0  0  0  0  0  0
  150.3860  140.1787  153.8241 H   0  0  0  0  0  0  0  0  0  0  0  0
  150.5017  138.3250  156.2382 H   0  0  0  0  0  0  0  0  0  0  0  0
  152.1156  138.2693  153.6449 H   0  0  0  0  0  0  0  0  0  0  0  0
  150.8257  137.1502  154.0802 H   0  0  0  0  0  0  0  0  0  0  0  0
  152.3192  137.1746  155.0108 H   0  0  0  0  0  0  0  0  0  0  0  0
  152.5941  140.3097  155.2281 H   0  0  0  0  0  0  0  0  0  0  0  0
  152.8671  139.1754  156.5089 H   0  0  0  0  0  0  0  0  0  0  0  0
  152.6237  144.9759  161.3832 H   0  0  0  0  0  0  0  0  0  0  0  0
  151.0543  144.2986  161.8324 H   0  0  0  0  0  0  0  0  0  0  0  0
  151.5109  144.4362  160.1388 H   0  0  0  0  0  0  0  0  0  0  0  0
  1  2  1  0  0  0  0
  1 27  1  0  0  0  0
  1 28  1  0  0  0  0
  1 29  1  0  0  0  0
  2  3  1  0  0  0  0
  2 30  1  0  0  0  0
  2 31  1  0  0  0  0
  3  4  1  0  0  0  0
  4  5  1  0  0  0  0
  4 32  1  0  0  0  0
  4 33  1  0  0  0  0
  5  6  1  0  0  0  0
  5 34  1  0  0  0  0
  5 35  1  0  0  0  0
  6 18  1  0  0  0  0
  6  7  1  0  0  0  0
  7  8  1  0  0  0  0
  7 16  2  0  0  0  0
  8 15  1  0  0  0  0
  8  9  1  0  0  0  0
  9 10  1  0  0  0  0
  9 36  1  0  0  0  0
  9 37  1  0  0  0  0
 10 11  1  0  0  0  0
 10 12  1  0  0  0  0
 10 38  1  0  0  0  0
 11 39  1  0  0  0  0
 11 40  1  0  0  0  0
 11 41  1  0  0  0  0
 12 13  1  0  0  0  0
 12 42  1  0  0  0  0
 12 43  1  0  0  0  0
 13 14  1  0  0  0  0
 13 15  1  0  0  0  0
 13 44  1  0  0  0  0
 14 45  1  0  0  0  0
 14 46  1  0  0  0  0
 14 47  1  0  0  0  0
 15 48  1  0  0  0  0
 15 49  1  0  0  0  0
 16 17  1  0  0  0  0
 17 24  1  0  0  0  0
 17 18  2  0  0  0  0
 18 19  1  0  0  0  0
 19 20  2  0  0  0  0
 19 21  1  0  0  0  0
 21 26  1  0  0  0  0
 21 22  1  0  0  0  0
 22 23  2  0  0  0  0
 22 24  1  0  0  0  0
 24 25  1  0  0  0  0
 25 50  1  0  0  0  0
 25 51  1  0  0  0  0
 25 52  1  0  0  0  0
M  END
> <s_m_source_file>
AV-unprocessed.smi

> <i_m_source_file_index>
546

> <i_lp_mmshare_version>
43012

> <i_f3d_flags>
0

> <s_epik_input>
W0NIM11uMWMoPU8pW25IXWMoPU8pYyhjMTIpbihbQ0gyXVtDSDJdT1tDSDJdW0NIM10pYyhuMilOM1tDSDJdW0NAQEhdKFtDSDNdKVtDSDJdW0NAQEhdKFtDSDNdKVtDSDJdMw==

> <s_epik_cmdline>
J2VwaWtfcHl0aG9uJywgJy1waCcsICc3LjAnLCAnLXRuJywgJzgnLCAnLW1hJywgJzIwMCcsICctbWV0YWxfYmluZGluZycsICctaW1hZScsICc8aW5maWxlLm1hZT4nLCAnLW9tYWUnLCAnPG91dGZpbGUubWFlPic=

> <r_lp_tautomer_probability>
1

> <r_epik_Ionization_Penalty>
0.000576472

> <r_epik_Ionization_Penalty_Charging>
0.000118943

> <r_epik_Ionization_Penalty_Neutral>
0.000457529

> <r_epik_State_Penalty>
-0

> <r_epik_Charging_Adjusted_Penalty>
0.000118943

> <i_epik_Tot_Q>
0

> <i_epik_Tot_abs_Q>
0

> <r_epik_Metal_State_Penalty>
0.0916165

> <b_epik_Metal_Only>
0

> <s_lp_Force_Field>
OPLS_2005

> <r_lp_Energy>
35.568

> <b_lp_Chiralities_Consistent>
1

> <s_lp_Variant>
AV-unprocessed.smi:546-1

> <Gold.Version>
5.8.1

> <Gold.Id.Protein>
6NUR|6NUR_protein|mol2

> <Gold.PLP.Fitness>
50.3568

> <Gold.PLP.PLP>
-48.8417

> <Gold.PLP.part.hbond>
-1.1352

> <Gold.PLP.part.metal>
0.0000

> <Gold.PLP.part.buried>
-5.3303

> <Gold.PLP.part.nonpolar>
-42.7193

> <Gold.PLP.part.repulsive>
0.1269

> <Gold.PLP.ligand.clash>
0.0000

> <Gold.PLP.ligand.torsion>
0.6301

> <Gold.PLP.Chemscore.Hbond>
0.8247

> <Gold.PLP.Chemscore.CHOScore>
0.0000

> <Gold.PLP.Chemscore.Metal>
0.0000

> <Gold.Chemscore.Hbonds>
donor molecule, donor type, donor heavy atom, donor atom, acceptor molecule, acceptor atom, score
      P1  H  6896  6907       L1     3  0.13

> <Gold.PLP.Chemscore.Internal.Correction>
0.3012

> <Gold.Rescore>
     Score         DG    S(hbond)    S(metal)    S(lipo)     H(rot)  DE(clash)    DE(int)     intcor
      9.80     -13.13       0.96        0.00      71.88       1.55       0.47       2.87       ----

> <Gold.Chemscore.Fitness>
9.7995

> <Gold.Chemscore.DG>
-13.1339

> <Gold.Chemscore.ZeroCoef>
-5.4800

> <Gold.Chemscore.Hbond>
0.9589

> <Gold.Chemscore.Metal>
0.0000

> <Gold.Chemscore.Lipo>
71.8843

> <Gold.Chemscore.Internal_Hbond>
0.0000

> <Gold.Chemscore.DEClash>
0.4694

> <Gold.Chemscore.DEInternal>
2.8650

> <Gold.Chemscore.Rot>
1.5465

> <Gold.Chemscore.Internal.Correction>
   9.000000E+99

> <Gold.Chemscore.Hbond.Weighted>
-3.2026

> <Gold.Chemscore.Metal.Weighted>
-0.0000

> <Gold.Chemscore.Lipo.Weighted>
-8.4105

> <Gold.Chemscore.Internal_Hbond.Weighted>
0.0000

> <Gold.Chemscore.DEClash.Weighted>
0.4694

> <Gold.Chemscore.DEInternal.Weighted>
2.8650

> <Gold.Chemscore.Rot.Weighted>
3.9591

> <Gold.Chemscore.Internal.Correction.Weighted>
   9.000000E+99

> <Gold.Protein.RotatedTorsions>
[ 6907 6896 6895 6894 ] final   42.95 input  -60.11 | X-H torsion
[ 7974 7965 7964 7962 ] final  115.59 input  175.53 | X-H torsion
[ 8008 7997 7996 7995 ] final   23.38 input   59.86 | X-H torsion
[ 10167 10162 10161 10158 ] final -146.04 input  -65.29 | X-H torsion
[ 10718 10713 10712 10709 ] final  159.70 input   66.30 | X-H torsion
[ 10763 10752 10751 10750 ] final   56.21 input  -60.55 | X-H torsion
[ 11005 11000 10999 10996 ] final  -96.42 input  -57.11 | X-H torsion

> <Gold.Protein.ActiveResidues>
 VAL166  LYS551  ARG553  GLY616  TRP617  ASP618  TYR619  PRO620  LYS621  CYS622 
 ASP623  PHE694  ASN695  SER759  ASP760  ASP761  ALA762  ILE779  LEU786  VAL792 
 PHE793  MET794  SER795  GLU796  ALA797  LYS798  CYS799  TRP800  GLU811  SER814 

> <Gold.Protein.RotatedAtoms>
  152.2143  134.8472  160.0493 H   0  0  0  0  0  0  0  0  0  0  0  0  # atno 6907 bound_to 6896
  151.9279  133.3598  159.3928 H   0  0  0  0  0  0  0  0  0  0  0  0  # atno 6908 bound_to 6896
  150.6984  134.4492  159.5372 H   0  0  0  0  0  0  0  0  0  0  0  0  # atno 6909 bound_to 6896
  145.1901  139.3004  143.4372 H   0  0  0  0  0  0  0  0  0  0  0  0  # atno 7974 bound_to 7965
  154.9801  140.3101  155.4950 H   0  0  0  0  0  0  0  0  0  0  0  0  # atno 8008 bound_to 7997
  156.2954  140.2268  156.4839 H   0  0  0  0  0  0  0  0  0  0  0  0  # atno 8009 bound_to 7997
  154.7797  140.0447  157.1105 H   0  0  0  0  0  0  0  0  0  0  0  0  # atno 8010 bound_to 7997
  139.7750  143.8182  152.2630 H   0  0  0  0  0  0  0  0  0  0  0  0  # atno 10167 bound_to 10162
  157.1606  131.0586  151.2234 H   0  0  0  0  0  0  0  0  0  0  0  0  # atno 10718 bound_to 10713
  152.9828  135.5684  154.5193 H   0  0  0  0  0  0  0  0  0  0  0  0  # atno 10763 bound_to 10752
  154.4683  135.2784  155.1663 H   0  0  0  0  0  0  0  0  0  0  0  0  # atno 10764 bound_to 10752
  154.3222  135.6266  153.5566 H   0  0  0  0  0  0  0  0  0  0  0  0  # atno 10765 bound_to 10752
  141.1412  133.8096  157.0568 H   0  0  0  0  0  0  0  0  0  0  0  0  # atno 11005 bound_to 11000
  146.3437  140.2111  142.8590 LP  0  0  0  0  0  0  0  0  0  0  0  0  # atno 17320 bound_to 7965
  145.0049  140.8664  143.5259 LP  0  0  0  0  0  0  0  0  0  0  0  0  # atno 17321 bound_to 7965
  139.8228  144.7288  150.9550 LP  0  0  0  0  0  0  0  0  0  0  0  0  # atno 17342 bound_to 10162
  140.7816  143.4143  151.0943 LP  0  0  0  0  0  0  0  0  0  0  0  0  # atno 17343 bound_to 10162
  157.4136  130.7398  149.6858 LP  0  0  0  0  0  0  0  0  0  0  0  0  # atno 17370 bound_to 10713
  155.9754  130.4089  150.3849 LP  0  0  0  0  0  0  0  0  0  0  0  0  # atno 17371 bound_to 10713
  140.0596  134.9762  157.1282 LP  0  0  0  0  0  0  0  0  0  0  0  0  # atno 17394 bound_to 11000
  140.3867  134.2228  155.7168 LP  0  0  0  0  0  0  0  0  0  0  0  0  # atno 17395 bound_to 11000

$$$$
