AV-unprocessed.smi:2198|AV-procd|sdf|8916|dock1
  -GOLD-   2272012133D 1   1.00000     0.00000
 Structure written by MMmdl.
 43 44  0  0  0  0  0  0  0  0  1 V2000
  150.5113  134.6903  155.1316 C   0  0  0  0  0  0  0  0  0  0  0  0
  150.6702  136.1948  155.1029 C   0  0  0  0  0  0  0  0  0  0  0  0
  149.5315  136.8676  154.6915 N   0  0  0  0  0  0  0  0  0  0  0  0
  149.5832  138.2487  154.6276 C   0  0  0  0  0  0  0  0  0  0  0  0
  148.2959  138.9078  154.1642 C   0  0  0  0  0  0  0  0  0  0  0  0
  150.7104  138.9258  154.9643 C   0  0  0  0  0  0  0  0  0  0  0  0
  150.8079  140.4502  154.9120 C   0  0  0  0  0  0  0  0  0  0  0  0
  150.6631  141.1861  156.2469 C   0  0  0  0  0  0  0  0  0  0  0  0
  149.7225  141.9564  156.4421 O   0  0  0  0  0  0  0  0  0  0  0  0
  151.6165  140.9409  157.1582 N   0  0  0  0  0  0  0  0  0  0  0  0
  151.6935  141.5479  158.4837 C   0  0  1  0  0  0  0  0  0  0  0  0
  152.9414  141.0265  159.2189 C   0  0  0  0  0  0  0  0  0  0  0  0
  153.0978  141.6894  160.5961 C   0  0  0  0  0  0  0  0  0  0  0  0
  153.1293  143.2212  160.4780 C   0  0  0  0  0  0  0  0  0  0  0  0
  151.8801  143.7571  159.7529 C   0  0  1  0  0  0  0  0  0  0  0  0
  151.9139  145.2873  159.6298 C   0  0  0  0  0  0  0  0  0  0  0  0
  151.7271  143.0867  158.3738 C   0  0  0  0  0  0  0  0  0  0  0  0
  151.8929  138.1514  155.4094 C   0  0  0  0  0  0  0  0  0  0  0  0
  152.9381  138.7076  155.7445 O   0  0  0  0  0  0  0  0  0  0  0  0
  151.7921  136.7512  155.4459 N   0  0  0  0  0  0  0  0  0  0  0  0
  148.6713  136.4043  154.4366 H   0  0  0  0  0  0  0  0  0  0  0  0
  151.4718  134.2005  155.2971 H   0  0  0  0  0  0  0  0  0  0  0  0
  150.1050  134.3297  154.1862 H   0  0  0  0  0  0  0  0  0  0  0  0
  149.8348  134.3970  155.9350 H   0  0  0  0  0  0  0  0  0  0  0  0
  148.4600  139.4501  153.2331 H   0  0  0  0  0  0  0  0  0  0  0  0
  147.9357  139.6116  154.9147 H   0  0  0  0  0  0  0  0  0  0  0  0
  147.5084  138.1738  153.9897 H   0  0  0  0  0  0  0  0  0  0  0  0
  150.0316  140.8213  154.2425 H   0  0  0  0  0  0  0  0  0  0  0  0
  151.7451  140.7571  154.4466 H   0  0  0  0  0  0  0  0  0  0  0  0
  152.3496  140.2916  156.9123 H   0  0  0  0  0  0  0  0  0  0  0  0
  150.8136  141.2539  159.0597 H   0  0  0  0  0  0  0  0  0  0  0  0
  152.8809  139.9440  159.3373 H   0  0  0  0  0  0  0  0  0  0  0  0
  153.8330  141.2235  158.6214 H   0  0  0  0  0  0  0  0  0  0  0  0
  152.2720  141.3894  161.2424 H   0  0  0  0  0  0  0  0  0  0  0  0
  154.0101  141.3351  161.0764 H   0  0  0  0  0  0  0  0  0  0  0  0
  153.2020  143.6621  161.4729 H   0  0  0  0  0  0  0  0  0  0  0  0
  154.0280  143.5252  159.9395 H   0  0  0  0  0  0  0  0  0  0  0  0
  151.0061  143.4956  160.3512 H   0  0  0  0  0  0  0  0  0  0  0  0
  152.7689  145.6187  159.0396 H   0  0  0  0  0  0  0  0  0  0  0  0
  151.9823  145.7595  160.6101 H   0  0  0  0  0  0  0  0  0  0  0  0
  151.0109  145.6615  159.1469 H   0  0  0  0  0  0  0  0  0  0  0  0
  152.5525  143.3901  157.7277 H   0  0  0  0  0  0  0  0  0  0  0  0
  150.8150  143.4439  157.8941 H   0  0  0  0  0  0  0  0  0  0  0  0
  1 22  1  0  0  0  0
  1 23  1  0  0  0  0
  1 24  1  0  0  0  0
  1  2  1  0  0  0  0
  2  3  1  0  0  0  0
  2 20  2  0  0  0  0
  3  4  1  0  0  0  0
  3 21  1  0  0  0  0
  4  6  2  0  0  0  0
  4  5  1  0  0  0  0
  5 25  1  0  0  0  0
  5 26  1  0  0  0  0
  5 27  1  0  0  0  0
  6 18  1  0  0  0  0
  6  7  1  0  0  0  0
  7  8  1  0  0  0  0
  7 28  1  0  0  0  0
  7 29  1  0  0  0  0
  8  9  2  0  0  0  0
  8 10  1  0  0  0  0
 10 11  1  0  0  0  0
 10 30  1  0  0  0  0
 11 17  1  0  0  0  0
 11 12  1  0  0  0  0
 11 31  1  0  0  0  0
 12 13  1  0  0  0  0
 12 32  1  0  0  0  0
 12 33  1  0  0  0  0
 13 14  1  0  0  0  0
 13 34  1  0  0  0  0
 13 35  1  0  0  0  0
 14 15  1  0  0  0  0
 14 36  1  0  0  0  0
 14 37  1  0  0  0  0
 15 16  1  0  0  0  0
 15 17  1  0  0  0  0
 15 38  1  0  0  0  0
 16 39  1  0  0  0  0
 16 40  1  0  0  0  0
 16 41  1  0  0  0  0
 17 42  1  0  0  0  0
 17 43  1  0  0  0  0
 18 19  2  0  0  0  0
 18 20  1  0  0  0  0
M  END
> <s_m_source_file>
AV-unprocessed.smi

> <i_m_source_file_index>
2198

> <i_lp_mmshare_version>
43012

> <i_f3d_flags>
0

> <s_epik_input>
W0NIM11jMW5jKFtDSDNdKWMoYyg9TylbbkhdMSlbQ0gyXUMoPU8pW05IXVtDQEBIXTJbQ0gyXVtDSDJdW0NIMl1bQ0BASF0oW0NIM10pW0NIMl0y

> <s_epik_cmdline>
J2VwaWtfcHl0aG9uJywgJy1waCcsICc3LjAnLCAnLXRuJywgJzgnLCAnLW1hJywgJzIwMCcsICctbWV0YWxfYmluZGluZycsICctaW1hZScsICc8aW5maWxlLm1hZT4nLCAnLW9tYWUnLCAnPG91dGZpbGUubWFlPic=

> <r_lp_tautomer_probability>
0.156392

> <r_epik_Ionization_Penalty>
0.0136514

> <r_epik_Ionization_Penalty_Charging>
0.0135207

> <r_epik_Ionization_Penalty_Neutral>
0.000130657

> <r_epik_State_Penalty>
1.15342

> <r_epik_Charging_Adjusted_Penalty>
1.16694

> <i_epik_Tot_Q>
0

> <i_epik_Tot_abs_Q>
0

> <r_epik_Metal_State_Penalty>
1.31404

> <b_epik_Metal_Only>
0

> <s_lp_Force_Field>
OPLS_2005

> <r_lp_Energy>
13.5708

> <b_lp_Chiralities_Consistent>
1

> <s_lp_Variant>
AV-unprocessed.smi:2198-6

> <Gold.Version>
5.8.1

> <Gold.Id.Protein>
6NUR|6NUR_protein|mol2

> <Gold.PLP.Fitness>
44.3529

> <Gold.PLP.PLP>
-39.2458

> <Gold.PLP.part.hbond>
-3.0000

> <Gold.PLP.part.metal>
0.0000

> <Gold.PLP.part.buried>
-3.4230

> <Gold.PLP.part.nonpolar>
-34.3480

> <Gold.PLP.part.repulsive>
1.1836

> <Gold.PLP.ligand.clash>
0.0000

> <Gold.PLP.ligand.torsion>
0.2882

> <Gold.PLP.Chemscore.Hbond>
1.8925

> <Gold.PLP.Chemscore.CHOScore>
0.0000

> <Gold.PLP.Chemscore.Metal>
0.0000

> <Gold.Chemscore.Hbonds>
donor molecule, donor type, donor heavy atom, donor atom, acceptor molecule, acceptor atom, score
      P1  H  7997  8010       L1    19  0.89
      P1  H 10752 10765       L1    20  1.00

> <Gold.PLP.Chemscore.Internal.Correction>
0.0060

> <Gold.Rescore>
     Score         DG    S(hbond)    S(metal)    S(lipo)     H(rot)  DE(clash)    DE(int)     intcor
     16.02     -17.69       1.38        0.00      97.48       1.48       0.40       1.26       ----

> <Gold.Chemscore.Fitness>
16.0236

> <Gold.Chemscore.DG>
-17.6897

> <Gold.Chemscore.ZeroCoef>
-5.4800

> <Gold.Chemscore.Hbond>
1.3755

> <Gold.Chemscore.Metal>
0.0000

> <Gold.Chemscore.Lipo>
97.4762

> <Gold.Chemscore.Internal_Hbond>
0.0000

> <Gold.Chemscore.DEClash>
0.4020

> <Gold.Chemscore.DEInternal>
1.2642

> <Gold.Chemscore.Rot>
1.4801

> <Gold.Chemscore.Internal.Correction>
   9.000000E+99

> <Gold.Chemscore.Hbonds>
donor molecule, donor type, donor heavy atom, donor atom, acceptor molecule, acceptor atom, score
      P1  H  7997  8010       L1    19  0.85
      P1  H 10752 10765       L1    20  0.25

> <Gold.Chemscore.Hbond.Weighted>
-4.5942

> <Gold.Chemscore.Metal.Weighted>
-0.0000

> <Gold.Chemscore.Lipo.Weighted>
-11.4047

> <Gold.Chemscore.Internal_Hbond.Weighted>
0.0000

> <Gold.Chemscore.DEClash.Weighted>
0.4020

> <Gold.Chemscore.DEInternal.Weighted>
1.2642

> <Gold.Chemscore.Rot.Weighted>
3.7891

> <Gold.Chemscore.Internal.Correction.Weighted>
   9.000000E+99

> <Gold.Protein.RotatedTorsions>
[ 6907 6896 6895 6894 ] final -178.08 input  -60.11 | X-H torsion
[ 7974 7965 7964 7962 ] final  155.65 input  175.53 | X-H torsion
[ 8008 7997 7996 7995 ] final   75.32 input   59.86 | X-H torsion
[ 10167 10162 10161 10158 ] final   41.77 input  -65.29 | X-H torsion
[ 10718 10713 10712 10709 ] final -127.45 input   66.30 | X-H torsion
[ 10763 10752 10751 10750 ] final -177.47 input  -60.55 | X-H torsion
[ 11005 11000 10999 10996 ] final -142.03 input  -57.11 | X-H torsion

> <Gold.Protein.ActiveResidues>
 VAL166  LYS551  ARG553  GLY616  TRP617  ASP618  TYR619  PRO620  LYS621  CYS622 
 ASP623  PHE694  ASN695  SER759  ASP760  ASP761  ALA762  ILE779  LEU786  VAL792 
 PHE793  MET794  SER795  GLU796  ALA797  LYS798  CYS799  TRP800  GLU811  SER814 

> <Gold.Protein.RotatedAtoms>
  151.6315  133.3332  159.3109 H   0  0  0  0  0  0  0  0  0  0  0  0  # atno 6907 bound_to 6896
  150.8054  134.7179  159.6651 H   0  0  0  0  0  0  0  0  0  0  0  0  # atno 6908 bound_to 6896
  152.4149  134.6064  160.0065 H   0  0  0  0  0  0  0  0  0  0  0  0  # atno 6909 bound_to 6896
  144.8012  139.7097  143.6181 H   0  0  0  0  0  0  0  0  0  0  0  0  # atno 7974 bound_to 7965
  155.8113  140.3473  155.5459 H   0  0  0  0  0  0  0  0  0  0  0  0  # atno 8008 bound_to 7997
  155.8438  140.0945  157.1738 H   0  0  0  0  0  0  0  0  0  0  0  0  # atno 8009 bound_to 7997
  154.4006  140.1389  156.3748 H   0  0  0  0  0  0  0  0  0  0  0  0  # atno 8010 bound_to 7997
  140.3611  144.2228  150.6138 H   0  0  0  0  0  0  0  0  0  0  0  0  # atno 10167 bound_to 10162
  156.1858  130.6762  151.0363 H   0  0  0  0  0  0  0  0  0  0  0  0  # atno 10718 bound_to 10713
  154.5597  135.2819  155.0930 H   0  0  0  0  0  0  0  0  0  0  0  0  # atno 10763 bound_to 10752
  154.2344  135.6368  153.5190 H   0  0  0  0  0  0  0  0  0  0  0  0  # atno 10764 bound_to 10752
  153.0026  135.5545  154.6188 H   0  0  0  0  0  0  0  0  0  0  0  0  # atno 10765 bound_to 10752
  140.8265  134.2568  157.4876 H   0  0  0  0  0  0  0  0  0  0  0  0  # atno 11005 bound_to 11000
  146.2293  139.5783  142.9566 LP  0  0  0  0  0  0  0  0  0  0  0  0  # atno 17320 bound_to 7965
  145.5549  141.0410  143.2258 LP  0  0  0  0  0  0  0  0  0  0  0  0  # atno 17321 bound_to 7965
  140.5126  143.2286  151.8511 LP  0  0  0  0  0  0  0  0  0  0  0  0  # atno 17342 bound_to 10162
  139.4814  144.4931  151.9159 LP  0  0  0  0  0  0  0  0  0  0  0  0  # atno 17343 bound_to 10162
  157.6898  131.0813  150.7140 LP  0  0  0  0  0  0  0  0  0  0  0  0  # atno 17370 bound_to 10713
  156.7197  130.4677  149.5526 LP  0  0  0  0  0  0  0  0  0  0  0  0  # atno 17371 bound_to 10713
  139.8706  134.9563  156.4235 LP  0  0  0  0  0  0  0  0  0  0  0  0  # atno 17394 bound_to 11000
  140.9043  133.7757  155.9717 LP  0  0  0  0  0  0  0  0  0  0  0  0  # atno 17395 bound_to 11000

$$$$
