AV-unprocessed.smi:287|AV-procd|sdf|2201|dock3
  -GOLD-   2262022 13D 1   1.00000     0.00000
 Structure written by MMmdl.
 55 58  0  0  0  0  0  0  0  0  1 V2000
  145.5263  145.0087  152.0505 C   0  0  0  0  0  0  0  0  0  0  0  0
  145.3841  144.2306  153.3134 C   0  0  0  0  0  0  0  0  0  0  0  0
  145.9743  143.0998  153.7974 C   0  0  0  0  0  0  0  0  0  0  0  0
  145.4107  142.8411  155.0825 C   0  0  0  0  0  0  0  0  0  0  0  0
  145.7715  141.6781  155.9969 C   0  0  1  0  0  0  0  0  0  0  0  0
  146.4506  142.2077  157.2709 C   0  0  0  0  0  0  0  0  0  0  0  0
  144.6390  140.9601  156.4482 O   0  0  0  0  0  0  0  0  0  0  0  0
  146.6849  140.6442  155.2998 C   0  0  0  0  0  0  0  0  0  0  0  0
  145.9777  139.8347  154.3157 N   0  0  0  0  0  0  0  0  0  0  0  0
  146.2613  138.5251  154.1565 C   0  0  0  0  0  0  0  0  0  0  0  0
  147.1159  138.0016  155.0674 N   0  0  0  0  0  0  0  0  0  0  0  0
  147.4595  136.7129  155.0028 C   0  0  0  0  0  0  0  0  0  0  0  0
  147.0692  135.7899  154.1230 N   0  0  0  0  0  0  0  0  0  0  0  0
  146.2102  136.3074  153.1979 C   0  0  0  0  0  0  0  0  0  0  0  0
  145.7566  137.6573  153.1421 C   0  0  0  0  0  0  0  0  0  0  0  0
  144.8927  137.8045  152.0615 N   0  0  0  0  0  0  0  0  0  0  0  0
  144.8414  136.6178  151.5213 C   0  0  0  0  0  0  0  0  0  0  0  0
  145.6083  135.6569  152.1389 N   0  0  0  0  0  0  0  0  0  0  0  0
  145.7552  134.2183  151.7495 C   0  0  2  0  0  0  0  0  0  0  0  0
  145.4241  134.0916  150.4028 O   0  0  0  0  0  0  0  0  0  0  0  0
  144.7859  132.8373  150.1975 C   0  0  2  0  0  0  0  0  0  0  0  0
  144.0087  132.8206  148.8691 C   0  0  0  0  0  0  0  0  0  0  0  0
  142.7894  132.1275  149.0297 O   0  0  0  0  0  0  0  0  0  0  0  0
  143.9376  132.6667  151.4663 C   0  0  2  0  0  0  0  0  0  0  0  0
  142.6936  133.3352  151.3429 O   0  0  0  0  0  0  0  0  0  0  0  0
  144.8316  133.2729  152.5480 C   0  0  2  0  0  0  0  0  0  0  0  0
  144.1144  133.8680  153.6176 O   0  0  0  0  0  0  0  0  0  0  0  0
  144.5126  143.8621  155.2832 C   0  0  0  0  0  0  0  0  0  0  0  0
  143.5874  144.2277  156.3971 C   0  0  0  0  0  0  0  0  0  0  0  0
  144.4886  144.7066  154.2144 O   0  0  0  0  0  0  0  0  0  0  0  0
  146.8129  133.9973  151.8994 H   0  0  0  0  0  0  0  0  0  0  0  0
  145.5508  132.0580  150.1944 H   0  0  0  0  0  0  0  0  0  0  0  0
  143.7287  131.6151  151.6643 H   0  0  0  0  0  0  0  0  0  0  0  0
  145.4664  132.4890  152.9629 H   0  0  0  0  0  0  0  0  0  0  0  0
  146.1183  144.4584  151.3191 H   0  0  0  0  0  0  0  0  0  0  0  0
  146.0210  145.9619  152.2383 H   0  0  0  0  0  0  0  0  0  0  0  0
  144.5508  145.2137  151.6091 H   0  0  0  0  0  0  0  0  0  0  0  0
  146.7258  142.5176  153.2848 H   0  0  0  0  0  0  0  0  0  0  0  0
  147.3668  142.7500  157.0349 H   0  0  0  0  0  0  0  0  0  0  0  0
  146.7178  141.3961  157.9489 H   0  0  0  0  0  0  0  0  0  0  0  0
  145.7967  142.8909  157.8145 H   0  0  0  0  0  0  0  0  0  0  0  0
  143.9633  141.0218  155.7908 H   0  0  0  0  0  0  0  0  0  0  0  0
  147.4698  141.1830  154.7673 H   0  0  0  0  0  0  0  0  0  0  0  0
  147.1786  140.0059  156.0338 H   0  0  0  0  0  0  0  0  0  0  0  0
  145.3038  140.3285  153.7481 H   0  0  0  0  0  0  0  0  0  0  0  0
  148.1454  136.3724  155.7644 H   0  0  0  0  0  0  0  0  0  0  0  0
  144.2405  136.4110  150.6477 H   0  0  0  0  0  0  0  0  0  0  0  0
  143.7660  133.8385  148.5629 H   0  0  0  0  0  0  0  0  0  0  0  0
  144.5974  132.3703  148.0690 H   0  0  0  0  0  0  0  0  0  0  0  0
  142.1137  132.7541  149.2396 H   0  0  0  0  0  0  0  0  0  0  0  0
  142.6107  133.6468  150.4534 H   0  0  0  0  0  0  0  0  0  0  0  0
  143.4288  133.2758  153.8861 H   0  0  0  0  0  0  0  0  0  0  0  0
  144.1325  144.3238  157.3363 H   0  0  0  0  0  0  0  0  0  0  0  0
  142.8190  143.4654  156.5267 H   0  0  0  0  0  0  0  0  0  0  0  0
  143.0888  145.1775  156.2018 H   0  0  0  0  0  0  0  0  0  0  0  0
  1  2  1  0  0  0  0
  1 35  1  0  0  0  0
  1 36  1  0  0  0  0
  1 37  1  0  0  0  0
  2 30  1  0  0  0  0
  2  3  2  0  0  0  0
  3  4  1  0  0  0  0
  3 38  1  0  0  0  0
  4  5  1  0  0  0  0
  4 28  2  0  0  0  0
  5  6  1  0  0  0  0
  5  7  1  0  0  0  0
  5  8  1  0  0  0  0
  6 39  1  0  0  0  0
  6 40  1  0  0  0  0
  6 41  1  0  0  0  0
  7 42  1  0  0  0  0
  8  9  1  0  0  0  0
  8 43  1  0  0  0  0
  8 44  1  0  0  0  0
  9 10  1  0  0  0  0
  9 45  1  0  0  0  0
 10 15  1  0  0  0  0
 10 11  2  0  0  0  0
 11 12  1  0  0  0  0
 12 13  2  0  0  0  0
 12 46  1  0  0  0  0
 13 14  1  0  0  0  0
 14 18  1  0  0  0  0
 14 15  2  0  0  0  0
 15 16  1  0  0  0  0
 16 17  2  0  0  0  0
 17 18  1  0  0  0  0
 17 47  1  0  0  0  0
 18 19  1  0  0  0  0
 19 31  1  0  0  0  0
 19 26  1  0  0  0  0
 19 20  1  0  0  0  0
 20 21  1  0  0  0  0
 21 32  1  0  0  0  0
 21 22  1  0  0  0  0
 21 24  1  0  0  0  0
 22 23  1  0  0  0  0
 22 48  1  0  0  0  0
 22 49  1  0  0  0  0
 23 50  1  0  0  0  0
 24 33  1  0  0  0  0
 24 25  1  0  0  0  0
 24 26  1  0  0  0  0
 25 51  1  0  0  0  0
 26 34  1  0  0  0  0
 26 27  1  0  0  0  0
 27 52  1  0  0  0  0
 28 29  1  0  0  0  0
 28 30  1  0  0  0  0
 29 53  1  0  0  0  0
 29 54  1  0  0  0  0
 29 55  1  0  0  0  0
M  END
> <s_m_source_file>
AV-unprocessed.smi

> <i_m_source_file_index>
287

> <i_lp_mmshare_version>
43012

> <i_f3d_flags>
0

> <s_epik_input>
W0NIM11jMVtjSF1jKGMobzEpW0NIM10pW0NAQF0oW0NIM10pKFtPSF0pW0NIMl1bTkhdYyhuW2NIXW4yKWMoYzIzKW5bY0hdbjNbQ0BASF00T1tDQEhdKFtDSDJdW09IXSlbQ0BASF0oW09IXSlbQ0BIXTRbT0hd

> <s_epik_cmdline>
J2VwaWtfcHl0aG9uJywgJy1waCcsICc3LjAnLCAnLXRuJywgJzgnLCAnLW1hJywgJzIwMCcsICctbWV0YWxfYmluZGluZycsICctaW1hZScsICc8aW5maWxlLm1hZT4nLCAnLW9tYWUnLCAnPG91dGZpbGUubWFlPic=

> <r_lp_tautomer_probability>
1

> <r_epik_Ionization_Penalty>
0.000992612

> <r_epik_Ionization_Penalty_Charging>
0

> <r_epik_Ionization_Penalty_Neutral>
0.000992612

> <r_epik_State_Penalty>
-0

> <r_epik_Charging_Adjusted_Penalty>
0

> <i_epik_Tot_Q>
0

> <i_epik_Tot_abs_Q>
0

> <r_epik_Metal_State_Penalty>
-0

> <b_epik_Metal_Only>
0

> <s_epik_Chemistry_Notes>
This compound contains an acetal/aminal-like group ( X-CH(R)-Y where X, Y are N, S, or O) that may be acid/base labile, releasing an aldehyde.

> <s_lp_Force_Field>
OPLS_2005

> <r_lp_Energy>
50.9422

> <b_lp_Chiralities_Consistent>
1

> <s_lp_Variant>
AV-unprocessed.smi:287-25

> <Gold.Version>
5.8.1

> <Gold.Id.Protein>
6NUR|6NUR_protein|mol2

> <Gold.PLP.Fitness>
49.7150

> <Gold.PLP.PLP>
-37.7500

> <Gold.PLP.part.hbond>
-6.0000

> <Gold.PLP.part.metal>
0.0000

> <Gold.PLP.part.buried>
-5.6680

> <Gold.PLP.part.nonpolar>
-32.3016

> <Gold.PLP.part.repulsive>
7.2782

> <Gold.PLP.ligand.clash>
0.1079

> <Gold.PLP.ligand.torsion>
1.6324

> <Gold.PLP.Chemscore.Hbond>
4.5988

> <Gold.PLP.Chemscore.CHOScore>
0.4421

> <Gold.PLP.Chemscore.Metal>
0.0000

> <Gold.Chemscore.Hbonds>
donor molecule, donor type, donor heavy atom, donor atom, acceptor molecule, acceptor atom, score
      L1  H     9    45       P1 10175  0.91
      L1  H    23    50       P1 10186  1.00
      L1  H    25    51       P1 10186  0.56
      L1  H    27    52       P1 10957  1.00
      P1  H 10785 10796       L1    23  0.96
      L1  C    17    47       P1 10171  0.45

> <Gold.PLP.Chemscore.Internal.Correction>
0.2152

> <Gold.Rescore>
     Score         DG    S(hbond)    S(metal)    S(lipo)     H(rot)  DE(clash)    DE(int)     intcor
      9.12     -13.36       3.75        0.00      75.49       5.27       2.17       2.07       ----

> <Gold.Chemscore.Fitness>
9.1182

> <Gold.Chemscore.DG>
-13.3589

> <Gold.Chemscore.ZeroCoef>
-5.4800

> <Gold.Chemscore.Hbond>
3.7518

> <Gold.Chemscore.Metal>
0.0000

> <Gold.Chemscore.Lipo>
75.4853

> <Gold.Chemscore.Internal_Hbond>
0.0000

> <Gold.Chemscore.DEClash>
2.1680

> <Gold.Chemscore.DEInternal>
2.0727

> <Gold.Chemscore.Rot>
5.2672

> <Gold.Chemscore.Internal.Correction>
   9.000000E+99

> <Gold.Chemscore.Hbonds>
donor molecule, donor type, donor heavy atom, donor atom, acceptor molecule, acceptor atom, score
      L1  H     9    45       P1 10175  0.87
      L1  H    23    50       P1 10186  0.95
      L1  H    25    51       P1 10186  0.53
      L1  H    27    52       P1 10957  0.98
      P1  H 10785 10796       L1    23  0.55

> <Gold.Chemscore.Hbond.Weighted>
-12.5310

> <Gold.Chemscore.Metal.Weighted>
-0.0000

> <Gold.Chemscore.Lipo.Weighted>
-8.8318

> <Gold.Chemscore.Internal_Hbond.Weighted>
0.0000

> <Gold.Chemscore.DEClash.Weighted>
2.1680

> <Gold.Chemscore.DEInternal.Weighted>
2.0727

> <Gold.Chemscore.Rot.Weighted>
13.4839

> <Gold.Chemscore.Internal.Correction.Weighted>
   9.000000E+99

> <Gold.Protein.RotatedTorsions>
[ 6907 6896 6895 6894 ] final    7.44 input  -60.11 | X-H torsion
[ 7974 7965 7964 7962 ] final  -21.29 input  175.53 | X-H torsion
[ 8008 7997 7996 7995 ] final   10.93 input   59.86 | X-H torsion
[ 10167 10162 10161 10158 ] final -141.09 input  -65.29 | X-H torsion
[ 10718 10713 10712 10709 ] final -135.42 input   66.30 | X-H torsion
[ 10763 10752 10751 10750 ] final   -3.65 input  -60.55 | X-H torsion
[ 11005 11000 10999 10996 ] final  101.97 input  -57.11 | X-H torsion

> <Gold.Protein.ActiveResidues>
 VAL166  LYS551  ARG553  GLY616  TRP617  ASP618  TYR619  PRO620  LYS621  CYS622 
 ASP623  PHE694  ASN695  SER759  ASP760  ASP761  ALA762  ILE779  LEU786  VAL792 
 PHE793  MET794  SER795  GLU796  ALA797  LYS798  CYS799  TRP800  GLU811  SER814 

> <Gold.Protein.RotatedAtoms>
  151.6900  135.0948  160.0231 H   0  0  0  0  0  0  0  0  0  0  0  0  # atno 6907 bound_to 6896
  152.3784  133.6508  159.6150 H   0  0  0  0  0  0  0  0  0  0  0  0  # atno 6908 bound_to 6896
  150.7727  133.9071  159.3400 H   0  0  0  0  0  0  0  0  0  0  0  0  # atno 6909 bound_to 6896
  146.1741  140.4320  142.8520 H   0  0  0  0  0  0  0  0  0  0  0  0  # atno 7974 bound_to 7965
  154.8000  140.2850  155.5928 H   0  0  0  0  0  0  0  0  0  0  0  0  # atno 8008 bound_to 7997
  156.2976  140.2588  156.2795 H   0  0  0  0  0  0  0  0  0  0  0  0  # atno 8009 bound_to 7997
  154.9569  140.0378  157.2161 H   0  0  0  0  0  0  0  0  0  0  0  0  # atno 8010 bound_to 7997
  139.8218  143.7564  152.2666 H   0  0  0  0  0  0  0  0  0  0  0  0  # atno 10167 bound_to 10162
  156.2660  130.7238  151.1188 H   0  0  0  0  0  0  0  0  0  0  0  0  # atno 10718 bound_to 10713
  153.3742  135.6996  153.6615 H   0  0  0  0  0  0  0  0  0  0  0  0  # atno 10763 bound_to 10752
  153.5252  135.3603  155.2651 H   0  0  0  0  0  0  0  0  0  0  0  0  # atno 10764 bound_to 10752
  154.8685  135.4167  154.3026 H   0  0  0  0  0  0  0  0  0  0  0  0  # atno 10765 bound_to 10752
  139.8775  134.9205  156.4987 H   0  0  0  0  0  0  0  0  0  0  0  0  # atno 11005 bound_to 11000
  144.8209  140.6548  143.6354 LP  0  0  0  0  0  0  0  0  0  0  0  0  # atno 17320 bound_to 7965
  145.4259  139.1556  143.4048 LP  0  0  0  0  0  0  0  0  0  0  0  0  # atno 17321 bound_to 7965
  139.7744  144.7466  151.0178 LP  0  0  0  0  0  0  0  0  0  0  0  0  # atno 17342 bound_to 10162
  140.7813  143.4609  151.0279 LP  0  0  0  0  0  0  0  0  0  0  0  0  # atno 17343 bound_to 10162
  157.7267  131.0644  150.5896 LP  0  0  0  0  0  0  0  0  0  0  0  0  # atno 17370 bound_to 10713
  156.5988  130.4349  149.5906 LP  0  0  0  0  0  0  0  0  0  0  0  0  # atno 17371 bound_to 10713
  140.8605  133.8063  155.9260 LP  0  0  0  0  0  0  0  0  0  0  0  0  # atno 17394 bound_to 11000
  140.9054  134.2327  157.5017 LP  0  0  0  0  0  0  0  0  0  0  0  0  # atno 17395 bound_to 11000

$$$$
