AV-unprocessed.smi:2043|AV-procd|sdf|8296|dock1
  -GOLD-   2272010563D 1   1.00000     0.00000
 Structure written by MMmdl.
 29 30  0  0  0  0  0  0  0  0  1 V2000
  143.2123  143.5021  162.5338 C   0  0  0  0  0  0  0  0  0  0  0  0
  144.2111  144.0018  161.5466 C   0  0  0  0  0  0  0  0  0  0  0  0
  143.8684  144.4451  160.3310 N   0  0  0  0  0  0  0  0  0  0  0  0
  144.9690  144.8536  159.5904 N   0  0  0  0  0  0  0  0  0  0  0  0
  146.1133  144.7035  160.2717 C   0  0  0  0  0  0  0  0  0  0  0  0
  147.3914  145.0400  159.7530 N   0  0  0  0  0  0  0  0  0  0  0  0
  148.5952  144.8735  160.3286 C   0  0  0  0  0  0  0  0  0  0  0  0
  148.7914  144.3735  161.4365 O   0  0  0  0  0  0  0  0  0  0  0  0
  149.5774  145.3252  159.5351 N   0  0  0  0  0  0  0  0  0  0  0  0
  151.0008  145.2918  159.8516 C   0  0  0  0  0  0  0  0  0  0  0  0
  151.6258  143.9529  159.4676 C   0  0  0  0  0  0  0  0  0  0  0  0
  152.4338  143.1506  160.5003 C   0  0  0  0  0  0  0  0  0  0  0  0
  153.3521  142.6976  159.3623 C   0  0  0  0  0  0  0  0  0  0  0  0
  152.8848  143.9326  158.5878 C   0  0  0  0  0  0  0  0  0  0  0  0
  145.9361  144.0456  161.8895 S   0  0  0  0  0  0  0  0  0  0  0  0
  142.2167  143.8770  162.2947 H   0  0  0  0  0  0  0  0  0  0  0  0
  143.4776  143.8357  163.5372 H   0  0  0  0  0  0  0  0  0  0  0  0
  143.1899  142.4125  162.5203 H   0  0  0  0  0  0  0  0  0  0  0  0
  147.3882  145.4619  158.8363 H   0  0  0  0  0  0  0  0  0  0  0  0
  149.3226  145.7202  158.6417 H   0  0  0  0  0  0  0  0  0  0  0  0
  151.4834  146.0994  159.3009 H   0  0  0  0  0  0  0  0  0  0  0  0
  151.1639  145.5096  160.9084 H   0  0  0  0  0  0  0  0  0  0  0  0
  150.8804  143.2940  159.0167 H   0  0  0  0  0  0  0  0  0  0  0  0
  152.9462  143.7858  161.2250 H   0  0  0  0  0  0  0  0  0  0  0  0
  151.8801  142.3492  160.9905 H   0  0  0  0  0  0  0  0  0  0  0  0
  154.4144  142.6863  159.6077 H   0  0  0  0  0  0  0  0  0  0  0  0
  153.0291  141.7619  158.9035 H   0  0  0  0  0  0  0  0  0  0  0  0
  152.6980  143.7632  157.5269 H   0  0  0  0  0  0  0  0  0  0  0  0
  153.5298  144.7982  158.7493 H   0  0  0  0  0  0  0  0  0  0  0  0
  1  2  1  0  0  0  0
  1 16  1  0  0  0  0
  1 17  1  0  0  0  0
  1 18  1  0  0  0  0
  2 15  1  0  0  0  0
  2  3  2  0  0  0  0
  3  4  1  0  0  0  0
  4  5  2  0  0  0  0
  5  6  1  0  0  0  0
  5 15  1  0  0  0  0
  6  7  1  0  0  0  0
  6 19  1  0  0  0  0
  7  8  2  0  0  0  0
  7  9  1  0  0  0  0
  9 10  1  0  0  0  0
  9 20  1  0  0  0  0
 10 11  1  0  0  0  0
 10 21  1  0  0  0  0
 10 22  1  0  0  0  0
 11 14  1  0  0  0  0
 11 12  1  0  0  0  0
 11 23  1  0  0  0  0
 12 13  1  0  0  0  0
 12 24  1  0  0  0  0
 12 25  1  0  0  0  0
 13 14  1  0  0  0  0
 13 26  1  0  0  0  0
 13 27  1  0  0  0  0
 14 28  1  0  0  0  0
 14 29  1  0  0  0  0
M  END
> <s_m_source_file>
AV-unprocessed.smi

> <i_m_source_file_index>
2043

> <i_lp_mmshare_version>
43012

> <i_f3d_flags>
0

> <s_epik_input>
W0NIM11jMW5uYyhzMSlbTkhdQyg9TylbTkhdW0NIMl1bQ0hdMltDSDJdW0NIMl1bQ0gyXTI=

> <s_epik_cmdline>
J2VwaWtfcHl0aG9uJywgJy1waCcsICc3LjAnLCAnLXRuJywgJzgnLCAnLW1hJywgJzIwMCcsICctbWV0YWxfYmluZGluZycsICctaW1hZScsICc8aW5maWxlLm1hZT4nLCAnLW9tYWUnLCAnPG91dGZpbGUubWFlPic=

> <r_lp_tautomer_probability>
1

> <r_epik_Ionization_Penalty>
0.000387707

> <r_epik_Ionization_Penalty_Charging>
0

> <r_epik_Ionization_Penalty_Neutral>
0.000387707

> <r_epik_State_Penalty>
-0

> <r_epik_Charging_Adjusted_Penalty>
0

> <i_epik_Tot_Q>
0

> <i_epik_Tot_abs_Q>
0

> <r_epik_Metal_State_Penalty>
0.190371

> <b_epik_Metal_Only>
0

> <s_lp_Force_Field>
OPLS_2005

> <r_lp_Energy>
11.3872

> <b_lp_Chiralities_Consistent>
1

> <s_lp_Variant>
AV-unprocessed.smi:2043-1

> <Gold.Version>
5.8.1

> <Gold.Id.Protein>
6NUR|6NUR_protein|mol2

> <Gold.PLP.Fitness>
41.9753

> <Gold.PLP.PLP>
-35.7757

> <Gold.PLP.part.hbond>
-3.0000

> <Gold.PLP.part.metal>
0.0000

> <Gold.PLP.part.buried>
-6.4498

> <Gold.PLP.part.nonpolar>
-28.5696

> <Gold.PLP.part.repulsive>
1.0057

> <Gold.PLP.ligand.clash>
0.0000

> <Gold.PLP.ligand.torsion>
0.9012

> <Gold.PLP.Chemscore.Hbond>
2.6480

> <Gold.PLP.Chemscore.CHOScore>
0.0000

> <Gold.PLP.Chemscore.Metal>
0.0000

> <Gold.Chemscore.Hbonds>
donor molecule, donor type, donor heavy atom, donor atom, acceptor molecule, acceptor atom, score
      L1  H     6    19       P1  8029  1.00
      L1  H     9    20       P1  8029  0.94
      P1  H  6933  6944       L1     8  0.69

> <Gold.PLP.Chemscore.Internal.Correction>
0.0580

> <Gold.Rescore>
     Score         DG    S(hbond)    S(metal)    S(lipo)     H(rot)  DE(clash)    DE(int)     intcor
     18.73     -20.89       2.67        0.00      83.50       1.27       0.01       2.15       ----

> <Gold.Chemscore.Fitness>
18.7272

> <Gold.Chemscore.DG>
-20.8896

> <Gold.Chemscore.ZeroCoef>
-5.4800

> <Gold.Chemscore.Hbond>
2.6660

> <Gold.Chemscore.Metal>
0.0000

> <Gold.Chemscore.Lipo>
83.4982

> <Gold.Chemscore.Internal_Hbond>
0.0000

> <Gold.Chemscore.DEClash>
0.0149

> <Gold.Chemscore.DEInternal>
2.1476

> <Gold.Chemscore.Rot>
1.2750

> <Gold.Chemscore.Internal.Correction>
   9.000000E+99

> <Gold.Chemscore.Hbonds>
donor molecule, donor type, donor heavy atom, donor atom, acceptor molecule, acceptor atom, score
      L1  H     6    19       P1  8029  1.00
      L1  H     9    20       P1  8029  0.89
      P1  H  6933  6944       L1     8  0.57

> <Gold.Chemscore.Hbond.Weighted>
-8.9043

> <Gold.Chemscore.Metal.Weighted>
-0.0000

> <Gold.Chemscore.Lipo.Weighted>
-9.7693

> <Gold.Chemscore.Internal_Hbond.Weighted>
0.0000

> <Gold.Chemscore.DEClash.Weighted>
0.0149

> <Gold.Chemscore.DEInternal.Weighted>
2.1476

> <Gold.Chemscore.Rot.Weighted>
3.2640

> <Gold.Chemscore.Internal.Correction.Weighted>
   9.000000E+99

> <Gold.Protein.RotatedTorsions>
[ 6907 6896 6895 6894 ] final  168.14 input  -60.11 | X-H torsion
[ 7974 7965 7964 7962 ] final   28.19 input  175.53 | X-H torsion
[ 8008 7997 7996 7995 ] final -173.39 input   59.86 | X-H torsion
[ 10167 10162 10161 10158 ] final  -74.81 input  -65.29 | X-H torsion
[ 10718 10713 10712 10709 ] final   54.54 input   66.30 | X-H torsion
[ 10763 10752 10751 10750 ] final  120.66 input  -60.55 | X-H torsion
[ 11005 11000 10999 10996 ] final  -68.72 input  -57.11 | X-H torsion

> <Gold.Protein.ActiveResidues>
 VAL166  LYS551  ARG553  GLY616  TRP617  ASP618  TYR619  PRO620  LYS621  CYS622 
 ASP623  PHE694  ASN695  SER759  ASP760  ASP761  ALA762  ILE779  LEU786  VAL792 
 PHE793  MET794  SER795  GLU796  ALA797  LYS798  CYS799  TRP800  GLU811  SER814 

> <Gold.Protein.RotatedAtoms>
  151.8524  133.3442  159.3677 H   0  0  0  0  0  0  0  0  0  0  0  0  # atno 6907 bound_to 6896
  150.7202  134.5286  159.5698 H   0  0  0  0  0  0  0  0  0  0  0  0  # atno 6908 bound_to 6896
  152.2783  134.7858  160.0452 H   0  0  0  0  0  0  0  0  0  0  0  0  # atno 6909 bound_to 6896
  146.1742  139.7089  142.8946 H   0  0  0  0  0  0  0  0  0  0  0  0  # atno 7974 bound_to 7965
  155.9568  140.1137  157.0930 H   0  0  0  0  0  0  0  0  0  0  0  0  # atno 8008 bound_to 7997
  154.4122  140.1190  156.5192 H   0  0  0  0  0  0  0  0  0  0  0  0  # atno 8009 bound_to 7997
  155.6772  140.3473  155.4843 H   0  0  0  0  0  0  0  0  0  0  0  0  # atno 8010 bound_to 7997
  140.4995  143.2364  151.7775 H   0  0  0  0  0  0  0  0  0  0  0  0  # atno 10167 bound_to 10162
  157.5266  130.8601  149.8630 H   0  0  0  0  0  0  0  0  0  0  0  0  # atno 10718 bound_to 10713
  153.6020  135.3446  155.2948 H   0  0  0  0  0  0  0  0  0  0  0  0  # atno 10763 bound_to 10752
  154.8634  135.4230  154.2402 H   0  0  0  0  0  0  0  0  0  0  0  0  # atno 10764 bound_to 10752
  153.3233  135.7039  153.7083 H   0  0  0  0  0  0  0  0  0  0  0  0  # atno 10765 bound_to 10752
  141.1538  133.6747  156.6490 H   0  0  0  0  0  0  0  0  0  0  0  0  # atno 11005 bound_to 11000
  145.4256  141.0410  143.2939 LP  0  0  0  0  0  0  0  0  0  0  0  0  # atno 17320 bound_to 7965
  144.8211  139.5791  143.6986 LP  0  0  0  0  0  0  0  0  0  0  0  0  # atno 17321 bound_to 7965
  139.4869  144.4541  151.9620 LP  0  0  0  0  0  0  0  0  0  0  0  0  # atno 17342 bound_to 10162
  140.3629  144.2950  150.5931 LP  0  0  0  0  0  0  0  0  0  0  0  0  # atno 17343 bound_to 10162
  156.0391  130.3743  150.1481 LP  0  0  0  0  0  0  0  0  0  0  0  0  # atno 17370 bound_to 10713
  156.9667  130.9822  151.3467 LP  0  0  0  0  0  0  0  0  0  0  0  0  # atno 17371 bound_to 10713
  140.3335  134.7909  157.4344 LP  0  0  0  0  0  0  0  0  0  0  0  0  # atno 17394 bound_to 11000
  140.0997  134.5489  155.8365 LP  0  0  0  0  0  0  0  0  0  0  0  0  # atno 17395 bound_to 11000

$$$$
