AV-unprocessed.smi:3303|AV-procd|sdf|12689|dock2
  -GOLD-   2272019 23D 1   1.00000     0.00000
 Structure written by MMmdl.
 44 45  0  0  0  0  0  0  0  0  2 V2000
  152.1664  137.8381  155.1472 C   0  0  0  0  0  0  0  0  0  0  0  0
  150.7481  137.4347  154.7101 C   0  0  2  0  0  0  0  0  0  0  0  0
  149.9371  138.6357  154.1893 C   0  0  0  0  0  0  0  0  0  0  0  0
  148.6092  138.2211  153.6674 N   0  3  2  0  0  0  0  0  0  0  0  0
  147.9182  139.3598  153.0149 C   0  0  0  0  0  0  0  0  0  0  0  0
  147.7913  137.5270  154.7065 C   0  0  1  0  0  0  0  0  0  0  0  0
  146.4188  137.0688  154.1752 C   0  0  0  0  0  0  0  0  0  0  0  0
  148.5529  136.3082  155.2752 C   0  0  0  0  0  0  0  0  0  0  0  0
  149.9636  136.6487  155.7850 C   0  0  2  0  0  0  0  0  0  0  0  0
  149.8581  137.3771  157.0473 N   0  0  0  0  0  0  0  0  0  0  0  0
  149.4563  136.4989  158.1366 C   0  0  0  0  0  0  0  0  0  0  0  0
  148.3844  137.1857  158.9926 C   0  0  0  0  0  0  0  0  0  0  0  0
  147.9687  136.3281  160.1726 C   0  0  0  0  0  0  0  0  0  0  0  0
  147.5460  134.9951  159.9821 C   0  0  0  0  0  0  0  0  0  0  0  0
  147.1570  134.2474  161.1106 C   0  0  0  0  0  0  0  0  0  0  0  0
  147.2046  134.8581  162.3786 C   0  0  0  0  0  0  0  0  0  0  0  0
  147.6401  136.1956  162.4622 C   0  0  0  0  0  0  0  0  0  0  0  0
  148.0137  136.9221  161.3866 N   0  0  0  0  0  0  0  0  0  0  0  0
  152.1468  138.5590  155.9650 H   0  0  0  0  0  0  0  0  0  0  0  0
  152.7149  138.2944  154.3228 H   0  0  0  0  0  0  0  0  0  0  0  0
  152.7365  136.9697  155.4779 H   0  0  0  0  0  0  0  0  0  0  0  0
  150.8762  136.7564  153.8650 H   0  0  0  0  0  0  0  0  0  0  0  0
  149.8056  139.3789  154.9776 H   0  0  0  0  0  0  0  0  0  0  0  0
  150.4992  139.1229  153.3912 H   0  0  0  0  0  0  0  0  0  0  0  0
  147.5866  140.0917  153.7525 H   0  0  0  0  0  0  0  0  0  0  0  0
  147.0539  139.0279  152.4405 H   0  0  0  0  0  0  0  0  0  0  0  0
  148.5820  139.8645  152.3120 H   0  0  0  0  0  0  0  0  0  0  0  0
  147.6148  138.2335  155.5193 H   0  0  0  0  0  0  0  0  0  0  0  0
  145.8882  136.4833  154.9267 H   0  0  0  0  0  0  0  0  0  0  0  0
  146.5232  136.4453  153.2867 H   0  0  0  0  0  0  0  0  0  0  0  0
  145.7720  137.9099  153.9264 H   0  0  0  0  0  0  0  0  0  0  0  0
  147.9739  135.8368  156.0709 H   0  0  0  0  0  0  0  0  0  0  0  0
  148.6448  135.5551  154.4912 H   0  0  0  0  0  0  0  0  0  0  0  0
  150.4766  135.7021  155.9649 H   0  0  0  0  0  0  0  0  0  0  0  0
  149.1690  138.1106  156.9591 H   0  0  0  0  0  0  0  0  0  0  0  0
  149.0651  135.5674  157.7250 H   0  0  0  0  0  0  0  0  0  0  0  0
  150.3179  136.2468  158.7550 H   0  0  0  0  0  0  0  0  0  0  0  0
  148.7542  138.1444  159.3592 H   0  0  0  0  0  0  0  0  0  0  0  0
  147.5030  137.4070  158.3885 H   0  0  0  0  0  0  0  0  0  0  0  0
  147.5163  134.5553  158.9960 H   0  0  0  0  0  0  0  0  0  0  0  0
  146.8261  133.2247  161.0052 H   0  0  0  0  0  0  0  0  0  0  0  0
  146.9135  134.3155  163.2658 H   0  0  0  0  0  0  0  0  0  0  0  0
  147.6879  136.6961  163.4179 H   0  0  0  0  0  0  0  0  0  0  0  0
  148.7887  137.5434  152.9403 H   0  0  0  0  0  0  0  0  0  0  0  0
  1  2  1  0  0  0  0
  1 19  1  0  0  0  0
  1 20  1  0  0  0  0
  1 21  1  0  0  0  0
  2  9  1  0  0  0  0
  2  3  1  0  0  0  0
  2 22  1  0  0  0  0
  3  4  1  0  0  0  0
  3 23  1  0  0  0  0
  3 24  1  0  0  0  0
  4  5  1  0  0  0  0
  4  6  1  0  0  0  0
  4 44  1  0  0  0  0
  5 25  1  0  0  0  0
  5 26  1  0  0  0  0
  5 27  1  0  0  0  0
  6  7  1  0  0  0  0
  6  8  1  0  0  0  0
  6 28  1  0  0  0  0
  7 29  1  0  0  0  0
  7 30  1  0  0  0  0
  7 31  1  0  0  0  0
  8  9  1  0  0  0  0
  8 32  1  0  0  0  0
  8 33  1  0  0  0  0
  9 10  1  0  0  0  0
  9 34  1  0  0  0  0
 10 11  1  0  0  0  0
 10 35  1  0  0  0  0
 11 12  1  0  0  0  0
 11 36  1  0  0  0  0
 11 37  1  0  0  0  0
 12 13  1  0  0  0  0
 12 38  1  0  0  0  0
 12 39  1  0  0  0  0
 13 18  1  0  0  0  0
 13 14  2  0  0  0  0
 14 15  1  0  0  0  0
 14 40  1  0  0  0  0
 15 16  2  0  0  0  0
 15 41  1  0  0  0  0
 16 17  1  0  0  0  0
 16 42  1  0  0  0  0
 17 18  2  0  0  0  0
 17 43  1  0  0  0  0
M  CHG  1   4   1
M  END
> <s_m_source_file>
AV-unprocessed.smi

> <i_m_source_file_index>
3303

> <i_lp_mmshare_version>
43012

> <i_f3d_flags>
0

> <s_epik_input>
W0NIM11bQ0BASF0xW0NIMl1OKFtDSDNdKVtDQEBIXShbQ0gzXSlbQ0gyXVtDQEhdMVtOSF1bQ0gyXVtDSDJdYzJbY0hdW2NIXVtjSF1bY0hdbjI=

> <s_epik_cmdline>
J2VwaWtfcHl0aG9uJywgJy1waCcsICc3LjAnLCAnLXRuJywgJzgnLCAnLW1hJywgJzIwMCcsICctbWV0YWxfYmluZGluZycsICctaW1hZScsICc8aW5maWxlLm1hZT4nLCAnLW9tYWUnLCAnPG91dGZpbGUubWFlPic=

> <r_epik_Ionization_Penalty>
2.31085

> <r_epik_Ionization_Penalty_Charging>
0.000313057

> <r_epik_Ionization_Penalty_Neutral>
2.31054

> <r_epik_State_Penalty>
2.4087

> <r_epik_Charging_Adjusted_Penalty>
2.40902

> <i_epik_Tot_Q>
1

> <i_epik_Tot_abs_Q>
1

> <r_epik_Metal_State_Penalty>
2.30979

> <b_epik_Metal_Only>
0

> <s_lp_Force_Field>
OPLS_2005

> <r_lp_Energy>
26.9633

> <b_lp_Chiralities_Consistent>
1

> <s_lp_Variant>
AV-unprocessed.smi:3303-33

> <Gold.Version>
5.8.1

> <Gold.Id.Protein>
6NUR|6NUR_protein|mol2

> <Gold.PLP.Fitness>
41.6968

> <Gold.PLP.PLP>
-31.1750

> <Gold.PLP.part.hbond>
-3.0000

> <Gold.PLP.part.metal>
0.0000

> <Gold.PLP.part.buried>
-3.3755

> <Gold.PLP.part.nonpolar>
-24.3841

> <Gold.PLP.part.repulsive>
0.0191

> <Gold.PLP.ligand.clash>
0.0000

> <Gold.PLP.ligand.torsion>
0.4667

> <Gold.PLP.Chemscore.Hbond>
3.8160

> <Gold.PLP.Chemscore.CHOScore>
0.0000

> <Gold.PLP.Chemscore.Metal>
0.0000

> <Gold.Chemscore.Hbonds>
donor molecule, donor type, donor heavy atom, donor atom, acceptor molecule, acceptor atom, score
      L1  H     4    44       P1  7948  2.00
      P1  H  6931  6943       L1    18  1.00
      P1  H  6934  6947       L1    18  0.23

> <Gold.PLP.Chemscore.Internal.Correction>
0.0071

> <Gold.Rescore>
     Score         DG    S(hbond)    S(metal)    S(lipo)     H(rot)  DE(clash)    DE(int)     intcor
     17.09     -17.54       1.92        0.00      77.26       1.33       0.01       0.44       ----

> <Gold.Chemscore.Fitness>
17.0889

> <Gold.Chemscore.DG>
-17.5366

> <Gold.Chemscore.ZeroCoef>
-5.4800

> <Gold.Chemscore.Hbond>
1.9204

> <Gold.Chemscore.Metal>
0.0000

> <Gold.Chemscore.Lipo>
77.2645

> <Gold.Chemscore.Internal_Hbond>
0.0000

> <Gold.Chemscore.DEClash>
0.0106

> <Gold.Chemscore.DEInternal>
0.4371

> <Gold.Chemscore.Rot>
1.3272

> <Gold.Chemscore.Internal.Correction>
   9.000000E+99

> <Gold.Chemscore.Hbonds>
donor molecule, donor type, donor heavy atom, donor atom, acceptor molecule, acceptor atom, score
      L1  H     4    44       P1  7948  1.00
      P1  H  6931  6943       L1    18  0.70
      P1  H  6934  6947       L1    18  0.09

> <Gold.Chemscore.Hbond.Weighted>
-6.4143

> <Gold.Chemscore.Metal.Weighted>
-0.0000

> <Gold.Chemscore.Lipo.Weighted>
-9.0399

> <Gold.Chemscore.Internal_Hbond.Weighted>
0.0000

> <Gold.Chemscore.DEClash.Weighted>
0.0106

> <Gold.Chemscore.DEInternal.Weighted>
0.4371

> <Gold.Chemscore.Rot.Weighted>
3.3976

> <Gold.Chemscore.Internal.Correction.Weighted>
   9.000000E+99

> <Gold.Protein.RotatedTorsions>
[ 6907 6896 6895 6894 ] final   47.31 input  -60.11 | X-H torsion
[ 7974 7965 7964 7962 ] final -145.39 input  175.53 | X-H torsion
[ 8008 7997 7996 7995 ] final   28.07 input   59.86 | X-H torsion
[ 10167 10162 10161 10158 ] final  -85.26 input  -65.29 | X-H torsion
[ 10718 10713 10712 10709 ] final  -87.45 input   66.30 | X-H torsion
[ 10763 10752 10751 10750 ] final  -47.29 input  -60.55 | X-H torsion
[ 11005 11000 10999 10996 ] final  -54.95 input  -57.11 | X-H torsion

> <Gold.Protein.ActiveResidues>
 VAL166  LYS551  ARG553  GLY616  TRP617  ASP618  TYR619  PRO620  LYS621  CYS622 
 ASP623  PHE694  ASN695  SER759  ASP760  ASP761  ALA762  ILE779  LEU786  VAL792 
 PHE793  MET794  SER795  GLU796  ALA797  LYS798  CYS799  TRP800  GLU811  SER814 

> <Gold.Protein.RotatedAtoms>
  152.2666  134.7978  160.0421 H   0  0  0  0  0  0  0  0  0  0  0  0  # atno 6907 bound_to 6896
  151.8605  133.3451  159.3710 H   0  0  0  0  0  0  0  0  0  0  0  0  # atno 6908 bound_to 6896
  150.7136  134.5138  159.5664 H   0  0  0  0  0  0  0  0  0  0  0  0  # atno 6909 bound_to 6896
  144.8231  140.5589  143.5565 H   0  0  0  0  0  0  0  0  0  0  0  0  # atno 7974 bound_to 7965
  155.0529  140.3182  155.4686 H   0  0  0  0  0  0  0  0  0  0  0  0  # atno 8008 bound_to 7997
  156.2830  140.2143  156.5599 H   0  0  0  0  0  0  0  0  0  0  0  0  # atno 8009 bound_to 7997
  154.7196  140.0491  157.0614 H   0  0  0  0  0  0  0  0  0  0  0  0  # atno 8010 bound_to 7997
  140.4054  143.2645  151.9087 H   0  0  0  0  0  0  0  0  0  0  0  0  # atno 10167 bound_to 10162
  155.9985  130.4800  150.4869 H   0  0  0  0  0  0  0  0  0  0  0  0  # atno 10718 bound_to 10713
  154.0589  135.6621  153.4809 H   0  0  0  0  0  0  0  0  0  0  0  0  # atno 10763 bound_to 10752
  153.0434  135.5130  154.7678 H   0  0  0  0  0  0  0  0  0  0  0  0  # atno 10764 bound_to 10752
  154.6708  135.3029  154.9711 H   0  0  0  0  0  0  0  0  0  0  0  0  # atno 10765 bound_to 10752
  141.1051  133.6614  156.4397 H   0  0  0  0  0  0  0  0  0  0  0  0  # atno 11005 bound_to 11000
  145.5061  139.1481  143.3630 LP  0  0  0  0  0  0  0  0  0  0  0  0  # atno 17320 bound_to 7965
  146.2536  140.5202  142.8883 LP  0  0  0  0  0  0  0  0  0  0  0  0  # atno 17321 bound_to 7965
  139.4783  144.5591  151.8267 LP  0  0  0  0  0  0  0  0  0  0  0  0  # atno 17342 bound_to 10162
  140.4695  144.1607  150.5916 LP  0  0  0  0  0  0  0  0  0  0  0  0  # atno 17343 bound_to 10162
  157.2869  131.0618  151.2160 LP  0  0  0  0  0  0  0  0  0  0  0  0  # atno 17370 bound_to 10713
  157.3187  130.6926  149.6256 LP  0  0  0  0  0  0  0  0  0  0  0  0  # atno 17371 bound_to 10713
  140.4924  134.6563  157.5216 LP  0  0  0  0  0  0  0  0  0  0  0  0  # atno 17394 bound_to 11000
  139.9917  134.6974  155.9678 LP  0  0  0  0  0  0  0  0  0  0  0  0  # atno 17395 bound_to 11000

$$$$
