AV-unprocessed.smi:1101|AV-procd|sdf|4765|dock4
  -GOLD-   22720 3303D 1   1.00000     0.00000
 Structure written by MMmdl.
 41 42  0  0  0  0  0  0  0  0  1 V2000
  145.2802  143.9516  153.7989 C   0  0  0  0  0  0  0  0  0  0  0  0
  145.6330  143.4751  155.2134 C   0  0  0  0  0  0  0  0  0  0  0  0
  146.6593  142.3313  155.2222 C   0  0  2  0  0  0  0  0  0  0  0  0
  147.9424  142.6979  154.4476 C   0  0  0  0  0  0  0  0  0  0  0  0
  148.8455  141.5379  154.4755 N   0  0  0  0  0  0  0  0  0  0  0  0
  150.0053  141.4288  155.1701 C   0  0  0  0  0  0  0  0  0  0  0  0
  150.7649  140.4639  155.0727 O   0  0  0  0  0  0  0  0  0  0  0  0
  150.2866  142.4800  155.9547 N   0  0  0  0  0  0  0  0  0  0  0  0
  151.4931  142.6263  156.7589 C   0  0  0  0  0  0  0  0  0  0  0  0
  151.6193  144.0528  157.3181 C   0  0  0  0  0  0  0  0  0  0  0  0
  151.8801  144.0693  158.8015 C   0  0  0  0  0  0  0  0  0  0  0  0
  151.7748  145.1735  159.6947 C   0  0  0  0  0  0  0  0  0  0  0  0
  152.0600  144.8522  160.9460 N   0  0  0  0  0  0  0  0  0  0  0  0
  152.3576  143.5377  160.8957 N   0  0  0  0  0  0  0  0  0  0  0  0
  152.7230  142.8426  162.1114 C   0  0  0  0  0  0  0  0  0  0  0  0
  152.2598  143.0387  159.6147 C   0  0  0  0  0  0  0  0  0  0  0  0
  148.2143  140.3941  153.8137 C   0  0  0  0  0  0  0  0  0  0  0  0
  146.9258  140.0468  154.5791 C   0  0  0  0  0  0  0  0  0  0  0  0
  146.0675  141.1850  154.6093 O   0  0  0  0  0  0  0  0  0  0  0  0
  144.5438  144.7547  153.8330 H   0  0  0  0  0  0  0  0  0  0  0  0
  144.8611  143.1408  153.2028 H   0  0  0  0  0  0  0  0  0  0  0  0
  146.1596  144.3310  153.2780 H   0  0  0  0  0  0  0  0  0  0  0  0
  146.0122  144.3145  155.7972 H   0  0  0  0  0  0  0  0  0  0  0  0
  144.7191  143.1450  155.7085 H   0  0  0  0  0  0  0  0  0  0  0  0
  146.9161  142.0938  156.2565 H   0  0  0  0  0  0  0  0  0  0  0  0
  147.7004  142.9371  153.4109 H   0  0  0  0  0  0  0  0  0  0  0  0
  148.3783  143.6068  154.8623 H   0  0  0  0  0  0  0  0  0  0  0  0
  149.6269  143.2439  155.9787 H   0  0  0  0  0  0  0  0  0  0  0  0
  151.4819  141.9028  157.5755 H   0  0  0  0  0  0  0  0  0  0  0  0
  152.3614  142.3963  156.1392 H   0  0  0  0  0  0  0  0  0  0  0  0
  152.4196  144.5691  156.7866 H   0  0  0  0  0  0  0  0  0  0  0  0
  150.7095  144.6064  157.0836 H   0  0  0  0  0  0  0  0  0  0  0  0
  151.4957  146.1926  159.4710 H   0  0  0  0  0  0  0  0  0  0  0  0
  152.8619  141.7803  161.9079 H   0  0  0  0  0  0  0  0  0  0  0  0
  151.9350  142.9604  162.8559 H   0  0  0  0  0  0  0  0  0  0  0  0
  153.6534  143.2535  162.5051 H   0  0  0  0  0  0  0  0  0  0  0  0
  152.4614  142.0017  159.3898 H   0  0  0  0  0  0  0  0  0  0  0  0
  147.9799  140.6559  152.7809 H   0  0  0  0  0  0  0  0  0  0  0  0
  148.8655  139.5206  153.7620 H   0  0  0  0  0  0  0  0  0  0  0  0
  146.4048  139.2241  154.0891 H   0  0  0  0  0  0  0  0  0  0  0  0
  147.1518  139.7228  155.5963 H   0  0  0  0  0  0  0  0  0  0  0  0
  1  2  1  0  0  0  0
  1 20  1  0  0  0  0
  1 21  1  0  0  0  0
  1 22  1  0  0  0  0
  2  3  1  0  0  0  0
  2 23  1  0  0  0  0
  2 24  1  0  0  0  0
  3 19  1  0  0  0  0
  3  4  1  0  0  0  0
  3 25  1  0  0  0  0
  4  5  1  0  0  0  0
  4 26  1  0  0  0  0
  4 27  1  0  0  0  0
  5  6  1  0  0  0  0
  5 17  1  0  0  0  0
  6  7  2  0  0  0  0
  6  8  1  0  0  0  0
  8  9  1  0  0  0  0
  8 28  1  0  0  0  0
  9 10  1  0  0  0  0
  9 29  1  0  0  0  0
  9 30  1  0  0  0  0
 10 11  1  0  0  0  0
 10 31  1  0  0  0  0
 10 32  1  0  0  0  0
 11 16  2  0  0  0  0
 11 12  1  0  0  0  0
 12 13  2  0  0  0  0
 12 33  1  0  0  0  0
 13 14  1  0  0  0  0
 14 15  1  0  0  0  0
 14 16  1  0  0  0  0
 15 34  1  0  0  0  0
 15 35  1  0  0  0  0
 15 36  1  0  0  0  0
 16 37  1  0  0  0  0
 17 18  1  0  0  0  0
 17 38  1  0  0  0  0
 17 39  1  0  0  0  0
 18 19  1  0  0  0  0
 18 40  1  0  0  0  0
 18 41  1  0  0  0  0
M  END
> <s_m_source_file>
AV-unprocessed.smi

> <i_m_source_file_index>
1101

> <i_lp_mmshare_version>
43012

> <i_f3d_flags>
0

> <s_epik_input>
W0NIM11bQ0gyXVtDQEBIXTFbQ0gyXU4oW0NIMl1bQ0gyXU8xKUMoPU8pW05IXVtDSDJdW0NIMl1jMltjSF1ubihbQ0gzXSlbY0hdMg==

> <s_epik_cmdline>
J2VwaWtfcHl0aG9uJywgJy1waCcsICc3LjAnLCAnLXRuJywgJzgnLCAnLW1hJywgJzIwMCcsICctbWV0YWxfYmluZGluZycsICctaW1hZScsICc8aW5maWxlLm1hZT4nLCAnLW9tYWUnLCAnPG91dGZpbGUubWFlPic=

> <r_lp_tautomer_probability>
1

> <r_epik_Ionization_Penalty>
0.000536373

> <r_epik_Ionization_Penalty_Charging>
0

> <r_epik_Ionization_Penalty_Neutral>
0.000536373

> <r_epik_State_Penalty>
-0

> <r_epik_Charging_Adjusted_Penalty>
0

> <i_epik_Tot_Q>
0

> <i_epik_Tot_abs_Q>
0

> <r_epik_Metal_State_Penalty>
-0

> <b_epik_Metal_Only>
0

> <s_lp_Force_Field>
OPLS_2005

> <r_lp_Energy>
25.5817

> <b_lp_Chiralities_Consistent>
1

> <s_lp_Variant>
AV-unprocessed.smi:1101-1

> <Gold.Version>
5.8.1

> <Gold.Id.Protein>
6NUR|6NUR_protein|mol2

> <Gold.PLP.Fitness>
47.4766

> <Gold.PLP.PLP>
-42.6955

> <Gold.PLP.part.hbond>
-2.0000

> <Gold.PLP.part.metal>
0.0000

> <Gold.PLP.part.buried>
-2.1052

> <Gold.PLP.part.nonpolar>
-39.7750

> <Gold.PLP.part.repulsive>
0.4863

> <Gold.PLP.ligand.clash>
0.0000

> <Gold.PLP.ligand.torsion>
0.6459

> <Gold.PLP.Chemscore.Hbond>
2.0000

> <Gold.PLP.Chemscore.CHOScore>
0.0000

> <Gold.PLP.Chemscore.Metal>
0.0000

> <Gold.Chemscore.Hbonds>
donor molecule, donor type, donor heavy atom, donor atom, acceptor molecule, acceptor atom, score
      L1  H     8    28       P1  8028  1.00
      P1  H  7989  7998       L1     7  1.00

> <Gold.PLP.Chemscore.Internal.Correction>
0.0728

> <Gold.Rescore>
     Score         DG    S(hbond)    S(metal)    S(lipo)     H(rot)  DE(clash)    DE(int)     intcor
     16.05     -18.72       1.63        0.00      99.46       1.51       1.92       0.75       ----

> <Gold.Chemscore.Fitness>
16.0496

> <Gold.Chemscore.DG>
-18.7168

> <Gold.Chemscore.ZeroCoef>
-5.4800

> <Gold.Chemscore.Hbond>
1.6334

> <Gold.Chemscore.Metal>
0.0000

> <Gold.Chemscore.Lipo>
99.4637

> <Gold.Chemscore.Internal_Hbond>
0.0000

> <Gold.Chemscore.DEClash>
1.9208

> <Gold.Chemscore.DEInternal>
0.7464

> <Gold.Chemscore.Rot>
1.5062

> <Gold.Chemscore.Internal.Correction>
   9.000000E+99

> <Gold.Chemscore.Hbonds>
donor molecule, donor type, donor heavy atom, donor atom, acceptor molecule, acceptor atom, score
      L1  H     8    28       P1  8028  1.00
      P1  H  7989  7998       L1     7  0.25

> <Gold.Chemscore.Hbond.Weighted>
-5.4554

> <Gold.Chemscore.Metal.Weighted>
-0.0000

> <Gold.Chemscore.Lipo.Weighted>
-11.6373

> <Gold.Chemscore.Internal_Hbond.Weighted>
0.0000

> <Gold.Chemscore.DEClash.Weighted>
1.9208

> <Gold.Chemscore.DEInternal.Weighted>
0.7464

> <Gold.Chemscore.Rot.Weighted>
3.8558

> <Gold.Chemscore.Internal.Correction.Weighted>
   9.000000E+99

> <Gold.Protein.RotatedTorsions>
[ 6907 6896 6895 6894 ] final  -22.03 input  -60.11 | X-H torsion
[ 7974 7965 7964 7962 ] final  162.92 input  175.53 | X-H torsion
[ 8008 7997 7996 7995 ] final  -87.38 input   59.86 | X-H torsion
[ 10167 10162 10161 10158 ] final  163.21 input  -65.29 | X-H torsion
[ 10718 10713 10712 10709 ] final  -72.28 input   66.30 | X-H torsion
[ 10763 10752 10751 10750 ] final   11.34 input  -60.55 | X-H torsion
[ 11005 11000 10999 10996 ] final   86.50 input  -57.11 | X-H torsion

> <Gold.Protein.ActiveResidues>
 VAL166  LYS551  ARG553  GLY616  TRP617  ASP618  TYR619  PRO620  LYS621  CYS622 
 ASP623  PHE694  ASN695  SER759  ASP760  ASP761  ALA762  ILE779  LEU786  VAL792 
 PHE793  MET794  SER795  GLU796  ALA797  LYS798  CYS799  TRP800  GLU811  SER814 

> <Gold.Protein.RotatedAtoms>
  151.2246  135.0531  159.8962 H   0  0  0  0  0  0  0  0  0  0  0  0  # atno 6907 bound_to 6896
  152.5412  134.0603  159.8159 H   0  0  0  0  0  0  0  0  0  0  0  0  # atno 6908 bound_to 6896
  151.0774  133.5368  159.2654 H   0  0  0  0  0  0  0  0  0  0  0  0  # atno 6909 bound_to 6896
  144.7614  139.8108  143.6331 H   0  0  0  0  0  0  0  0  0  0  0  0  # atno 7974 bound_to 7965
  154.6626  140.0566  157.0079 H   0  0  0  0  0  0  0  0  0  0  0  0  # atno 8008 bound_to 7997
  155.1206  140.3247  155.4480 H   0  0  0  0  0  0  0  0  0  0  0  0  # atno 8009 bound_to 7997
  156.2624  140.1998  156.6328 H   0  0  0  0  0  0  0  0  0  0  0  0  # atno 8010 bound_to 7997
  139.4871  144.4360  151.9012 H   0  0  0  0  0  0  0  0  0  0  0  0  # atno 10167 bound_to 10162
  156.0327  130.4369  150.2569 H   0  0  0  0  0  0  0  0  0  0  0  0  # atno 10718 bound_to 10713
  153.1937  135.6846  153.8320 H   0  0  0  0  0  0  0  0  0  0  0  0  # atno 10763 bound_to 10752
  153.7610  135.3210  155.3338 H   0  0  0  0  0  0  0  0  0  0  0  0  # atno 10764 bound_to 10752
  154.8132  135.4703  154.0671 H   0  0  0  0  0  0  0  0  0  0  0  0  # atno 10765 bound_to 10752
  139.8943  134.8359  156.2730 H   0  0  0  0  0  0  0  0  0  0  0  0  # atno 11005 bound_to 11000
  146.1680  139.4819  142.9946 LP  0  0  0  0  0  0  0  0  0  0  0  0  # atno 17320 bound_to 7965
  145.6608  141.0241  143.1710 LP  0  0  0  0  0  0  0  0  0  0  0  0  # atno 17321 bound_to 7965
  140.3809  144.2737  150.5909 LP  0  0  0  0  0  0  0  0  0  0  0  0  # atno 17342 bound_to 10162
  140.5234  143.2260  151.8353 LP  0  0  0  0  0  0  0  0  0  0  0  0  # atno 17343 bound_to 10162
  157.0670  131.0106  151.3203 LP  0  0  0  0  0  0  0  0  0  0  0  0  # atno 17370 bound_to 10713
  157.5028  130.7890  149.7622 LP  0  0  0  0  0  0  0  0  0  0  0  0  # atno 17371 bound_to 10713
  141.0089  133.7107  156.1079 LP  0  0  0  0  0  0  0  0  0  0  0  0  # atno 17394 bound_to 11000
  140.7396  134.4165  157.5556 LP  0  0  0  0  0  0  0  0  0  0  0  0  # atno 17395 bound_to 11000

$$$$
