AV-unprocessed.smi:630|AV-procd|sdf|3119|dock1
  -GOLD-   22720 0 43D 1   1.00000     0.00000
 Structure written by MMmdl.
 37 38  0  0  0  0  0  0  0  0  1 V2000
  145.2962  133.2671  155.3145 N   0  0  0  0  0  0  0  0  0  0  0  0
  146.0662  133.8399  154.3852 C   0  0  0  0  0  0  0  0  0  0  0  0
  147.1043  134.4324  154.6768 O   0  0  0  0  0  0  0  0  0  0  0  0
  145.6110  133.7157  152.9160 C   0  0  2  0  0  0  0  0  0  0  0  0
  146.5622  132.8017  152.1047 C   0  0  0  0  0  0  0  0  0  0  0  0
  145.8077  131.9010  151.1089 C   0  0  0  0  0  0  0  0  0  0  0  0
  145.2386  132.6299  149.8809 C   0  0  0  0  0  0  0  0  0  0  0  0
  144.3204  133.8248  150.1964 C   0  0  0  0  0  0  0  0  0  0  0  0
  145.0972  135.0464  150.7160 C   0  0  0  0  0  0  0  0  0  0  0  0
  145.3403  135.0953  152.2434 C   0  0  2  0  0  0  0  0  0  0  0  0
  146.3999  136.0701  152.5184 N   0  0  0  0  0  0  0  0  0  0  0  0
  146.2198  137.2972  153.0281 C   0  0  0  0  0  0  0  0  0  0  0  0
  145.1151  137.7589  153.3144 O   0  0  0  0  0  0  0  0  0  0  0  0
  147.3912  137.9359  153.1783 N   0  0  0  0  0  0  0  0  0  0  0  0
  147.6075  139.2453  153.6740 C   0  0  0  0  0  0  0  0  0  0  0  0
  146.6153  140.1345  153.6022 N   0  0  0  0  0  0  0  0  0  0  0  0
  146.9828  141.3747  154.1324 C   0  0  0  0  0  0  0  0  0  0  0  0
  148.2706  141.4126  154.6068 C   0  0  0  0  0  0  0  0  0  0  0  0
  149.0813  139.8825  154.4081 S   0  0  0  0  0  0  0  0  0  0  0  0
  145.5569  133.3294  156.2881 H   0  0  0  0  0  0  0  0  0  0  0  0
  144.4555  132.7783  155.0431 H   0  0  0  0  0  0  0  0  0  0  0  0
  144.6501  133.2005  152.9650 H   0  0  0  0  0  0  0  0  0  0  0  0
  147.3231  133.3894  151.5899 H   0  0  0  0  0  0  0  0  0  0  0  0
  147.1110  132.1404  152.7775 H   0  0  0  0  0  0  0  0  0  0  0  0
  146.4885  131.1257  150.7562 H   0  0  0  0  0  0  0  0  0  0  0  0
  145.0063  131.3708  151.6248 H   0  0  0  0  0  0  0  0  0  0  0  0
  146.0587  132.9592  149.2415 H   0  0  0  0  0  0  0  0  0  0  0  0
  144.6782  131.9073  149.2869 H   0  0  0  0  0  0  0  0  0  0  0  0
  143.8281  134.1131  149.2671 H   0  0  0  0  0  0  0  0  0  0  0  0
  143.5187  133.5432  150.8799 H   0  0  0  0  0  0  0  0  0  0  0  0
  146.0462  135.1146  150.1816 H   0  0  0  0  0  0  0  0  0  0  0  0
  144.5504  135.9477  150.4352 H   0  0  0  0  0  0  0  0  0  0  0  0
  144.4204  135.4652  152.7015 H   0  0  0  0  0  0  0  0  0  0  0  0
  147.3447  135.7751  152.3191 H   0  0  0  0  0  0  0  0  0  0  0  0
  148.2212  137.4315  152.9035 H   0  0  0  0  0  0  0  0  0  0  0  0
  146.2624  142.1792  154.1317 H   0  0  0  0  0  0  0  0  0  0  0  0
  148.7895  142.2443  155.0595 H   0  0  0  0  0  0  0  0  0  0  0  0
  1  2  1  0  0  0  0
  1 20  1  0  0  0  0
  1 21  1  0  0  0  0
  2  3  2  0  0  0  0
  2  4  1  0  0  0  0
  4 10  1  0  0  0  0
  4  5  1  0  0  0  0
  4 22  1  0  0  0  0
  5  6  1  0  0  0  0
  5 23  1  0  0  0  0
  5 24  1  0  0  0  0
  6  7  1  0  0  0  0
  6 25  1  0  0  0  0
  6 26  1  0  0  0  0
  7  8  1  0  0  0  0
  7 27  1  0  0  0  0
  7 28  1  0  0  0  0
  8  9  1  0  0  0  0
  8 29  1  0  0  0  0
  8 30  1  0  0  0  0
  9 10  1  0  0  0  0
  9 31  1  0  0  0  0
  9 32  1  0  0  0  0
 10 11  1  0  0  0  0
 10 33  1  0  0  0  0
 11 12  1  0  0  0  0
 11 34  1  0  0  0  0
 12 13  2  0  0  0  0
 12 14  1  0  0  0  0
 14 15  1  0  0  0  0
 14 35  1  0  0  0  0
 15 19  1  0  0  0  0
 15 16  2  0  0  0  0
 16 17  1  0  0  0  0
 17 18  2  0  0  0  0
 17 36  1  0  0  0  0
 18 19  1  0  0  0  0
 18 37  1  0  0  0  0
M  END
> <s_m_source_file>
AV-unprocessed.smi

> <i_m_source_file_index>
630

> <i_lp_mmshare_version>
43012

> <i_f3d_flags>
0

> <s_epik_input>
W05IMl1DKD1PKVtDQEBIXTFbQ0gyXVtDSDJdW0NIMl1bQ0gyXVtDSDJdW0NASF0xW05IXUMoPU8pW05IXWMybltjSF1bY0hdczI=

> <s_epik_cmdline>
J2VwaWtfcHl0aG9uJywgJy1waCcsICc3LjAnLCAnLXRuJywgJzgnLCAnLW1hJywgJzIwMCcsICctbWV0YWxfYmluZGluZycsICctaW1hZScsICc8aW5maWxlLm1hZT4nLCAnLW9tYWUnLCAnPG91dGZpbGUubWFlPic=

> <r_lp_tautomer_probability>
0.999

> <r_epik_Ionization_Penalty>
0.000342689

> <r_epik_Ionization_Penalty_Charging>
0

> <r_epik_Ionization_Penalty_Neutral>
0.000342689

> <r_epik_State_Penalty>
0.000177984

> <r_epik_Charging_Adjusted_Penalty>
0.000177984

> <i_epik_Tot_Q>
0

> <i_epik_Tot_abs_Q>
0

> <r_epik_Metal_State_Penalty>
0.00743087

> <b_epik_Metal_Only>
0

> <s_lp_Force_Field>
OPLS_2005

> <r_lp_Energy>
11.6017

> <b_lp_Chiralities_Consistent>
1

> <s_lp_Variant>
AV-unprocessed.smi:630-3

> <Gold.Version>
5.8.1

> <Gold.Id.Protein>
6NUR|6NUR_protein|mol2

> <Gold.PLP.Fitness>
39.6222

> <Gold.PLP.PLP>
-28.3492

> <Gold.PLP.part.hbond>
-3.0000

> <Gold.PLP.part.metal>
0.0000

> <Gold.PLP.part.buried>
-4.0220

> <Gold.PLP.part.nonpolar>
-23.0538

> <Gold.PLP.part.repulsive>
0.5502

> <Gold.PLP.ligand.clash>
0.0000

> <Gold.PLP.ligand.torsion>
0.3104

> <Gold.PLP.Chemscore.Hbond>
2.9200

> <Gold.PLP.Chemscore.CHOScore>
1.0000

> <Gold.PLP.Chemscore.Metal>
0.0000

> <Gold.Chemscore.Hbonds>
donor molecule, donor type, donor heavy atom, donor atom, acceptor molecule, acceptor atom, score
      L1  H     1    21       P1 10957  0.93
      L1  H    11    34       P1  7948  0.96
      L1  H    14    35       P1  7948  0.98
      L1  C    18    37       P1  8028  0.98

> <Gold.PLP.Chemscore.Internal.Correction>
0.1340

> <Gold.Rescore>
     Score         DG    S(hbond)    S(metal)    S(lipo)     H(rot)  DE(clash)    DE(int)     intcor
     17.16     -18.84       2.89        0.00      65.03       1.52       0.05       1.63       ----

> <Gold.Chemscore.Fitness>
17.1550

> <Gold.Chemscore.DG>
-18.8376

> <Gold.Chemscore.ZeroCoef>
-5.4800

> <Gold.Chemscore.Hbond>
2.8851

> <Gold.Chemscore.Metal>
0.0000

> <Gold.Chemscore.Lipo>
65.0298

> <Gold.Chemscore.Internal_Hbond>
0.0000

> <Gold.Chemscore.DEClash>
0.0541

> <Gold.Chemscore.DEInternal>
1.6284

> <Gold.Chemscore.Rot>
1.5184

> <Gold.Chemscore.Internal.Correction>
   9.000000E+99

> <Gold.Chemscore.Hbonds>
donor molecule, donor type, donor heavy atom, donor atom, acceptor molecule, acceptor atom, score
      L1  H     1    21       P1 10957  0.88
      L1  H    11    34       P1  7948  0.92
      L1  H    14    35       P1  7948  0.92

> <Gold.Chemscore.Hbond.Weighted>
-9.6363

> <Gold.Chemscore.Metal.Weighted>
-0.0000

> <Gold.Chemscore.Lipo.Weighted>
-7.6085

> <Gold.Chemscore.Internal_Hbond.Weighted>
0.0000

> <Gold.Chemscore.DEClash.Weighted>
0.0541

> <Gold.Chemscore.DEInternal.Weighted>
1.6284

> <Gold.Chemscore.Rot.Weighted>
3.8872

> <Gold.Chemscore.Internal.Correction.Weighted>
   9.000000E+99

> <Gold.Protein.RotatedTorsions>
[ 6907 6896 6895 6894 ] final   46.16 input  -60.11 | X-H torsion
[ 7974 7965 7964 7962 ] final -114.08 input  175.53 | X-H torsion
[ 8008 7997 7996 7995 ] final  135.56 input   59.86 | X-H torsion
[ 10167 10162 10161 10158 ] final -136.69 input  -65.29 | X-H torsion
[ 10718 10713 10712 10709 ] final  -40.01 input   66.30 | X-H torsion
[ 10763 10752 10751 10750 ] final  -51.53 input  -60.55 | X-H torsion
[ 11005 11000 10999 10996 ] final  -84.85 input  -57.11 | X-H torsion

> <Gold.Protein.ActiveResidues>
 VAL166  LYS551  ARG553  GLY616  TRP617  ASP618  TYR619  PRO620  LYS621  CYS622 
 ASP623  PHE694  ASN695  SER759  ASP760  ASP761  ALA762  ILE779  LEU786  VAL792 
 PHE793  MET794  SER795  GLU796  ALA797  LYS798  CYS799  TRP800  GLU811  SER814 

> <Gold.Protein.RotatedAtoms>
  152.2531  134.8112  160.0442 H   0  0  0  0  0  0  0  0  0  0  0  0  # atno 6907 bound_to 6896
  151.8785  133.3485  159.3766 H   0  0  0  0  0  0  0  0  0  0  0  0  # atno 6908 bound_to 6896
  150.7091  134.4969  159.5587 H   0  0  0  0  0  0  0  0  0  0  0  0  # atno 6909 bound_to 6896
  145.1244  140.8688  143.3795 H   0  0  0  0  0  0  0  0  0  0  0  0  # atno 7974 bound_to 7965
  156.3003  140.2467  156.3602 H   0  0  0  0  0  0  0  0  0  0  0  0  # atno 8008 bound_to 7997
  154.8884  140.0410  157.1843 H   0  0  0  0  0  0  0  0  0  0  0  0  # atno 8009 bound_to 7997
  154.8623  140.2922  155.5536 H   0  0  0  0  0  0  0  0  0  0  0  0  # atno 8010 bound_to 7997
  139.8652  143.7026  152.2646 H   0  0  0  0  0  0  0  0  0  0  0  0  # atno 10167 bound_to 10162
  156.2861  130.4223  149.8286 H   0  0  0  0  0  0  0  0  0  0  0  0  # atno 10718 bound_to 10713
  154.1280  135.6524  153.4916 H   0  0  0  0  0  0  0  0  0  0  0  0  # atno 10763 bound_to 10752
  153.0204  135.5286  154.7030 H   0  0  0  0  0  0  0  0  0  0  0  0  # atno 10764 bound_to 10752
  154.6256  135.2970  155.0246 H   0  0  0  0  0  0  0  0  0  0  0  0  # atno 10765 bound_to 10752
  141.1647  133.7368  156.8929 H   0  0  0  0  0  0  0  0  0  0  0  0  # atno 11005 bound_to 11000
  145.0705  139.3035  143.5834 LP  0  0  0  0  0  0  0  0  0  0  0  0  # atno 17320 bound_to 7965
  146.3519  140.0178  142.8661 LP  0  0  0  0  0  0  0  0  0  0  0  0  # atno 17321 bound_to 7965
  139.7335  144.7577  151.0764 LP  0  0  0  0  0  0  0  0  0  0  0  0  # atno 17342 bound_to 10162
  140.7769  143.5059  150.9713 LP  0  0  0  0  0  0  0  0  0  0  0  0  # atno 17343 bound_to 10162
  156.5716  130.8427  151.3358 LP  0  0  0  0  0  0  0  0  0  0  0  0  # atno 17370 bound_to 10713
  157.7329  130.9722  150.1950 LP  0  0  0  0  0  0  0  0  0  0  0  0  # atno 17371 bound_to 10713
  140.1636  134.9149  157.2745 LP  0  0  0  0  0  0  0  0  0  0  0  0  # atno 17394 bound_to 11000
  140.2583  134.3601  155.7416 LP  0  0  0  0  0  0  0  0  0  0  0  0  # atno 17395 bound_to 11000

$$$$
