AV-unprocessed.smi:754|AV-procd|sdf|3608|dock5
  -GOLD-   22720 1 03D 1   1.00000     0.00000
 Structure written by MMmdl.
 37 38  0  0  0  0  0  0  0  0  1 V2000
  153.6996  141.9918  162.4716 C   0  0  0  0  0  0  0  0  0  0  0  0
  152.8032  143.2103  162.7015 C   0  0  0  0  0  0  0  0  0  0  0  0
  151.9194  143.3399  161.6011 O   0  0  0  0  0  0  0  0  0  0  0  0
  152.5940  143.4195  160.3555 C   0  0  1  0  0  0  0  0  0  0  0  0
  152.7086  142.0890  159.6050 C   0  0  0  0  0  0  0  0  0  0  0  0
  152.4502  142.9067  158.3386 C   0  0  1  0  0  0  0  0  0  0  0  0
  151.6226  142.1944  157.3706 N   0  0  0  0  0  0  0  0  0  0  0  0
  151.7777  140.9031  157.0436 C   0  0  0  0  0  0  0  0  0  0  0  0
  152.6507  140.1838  157.5303 O   0  0  0  0  0  0  0  0  0  0  0  0
  150.8050  140.3414  156.0035 C   0  0  0  0  0  0  0  0  0  0  0  0
  151.1416  138.9767  155.6427 N   0  0  0  0  0  0  0  0  0  0  0  0
  151.5209  138.4449  154.4791 C   0  0  0  0  0  0  0  0  0  0  0  0
  151.7427  137.1437  154.5852 N   0  0  0  0  0  0  0  0  0  0  0  0
  151.4740  136.8867  155.9195 N   0  0  0  0  0  0  0  0  0  0  0  0
  151.1172  137.9708  156.5522 N   0  0  0  0  0  0  0  0  0  0  0  0
  151.6944  143.9466  159.2103 C   0  0  0  0  0  0  0  0  0  0  0  0
  150.1802  143.7447  159.3964 C   0  0  0  0  0  0  0  0  0  0  0  0
  151.9032  145.4122  158.8294 C   0  0  0  0  0  0  0  0  0  0  0  0
  154.3938  141.8562  163.3010 H   0  0  0  0  0  0  0  0  0  0  0  0
  154.2854  142.1050  161.5591 H   0  0  0  0  0  0  0  0  0  0  0  0
  153.1060  141.0821  162.3789 H   0  0  0  0  0  0  0  0  0  0  0  0
  152.2371  143.0871  163.6260 H   0  0  0  0  0  0  0  0  0  0  0  0
  153.4151  144.1074  162.8053 H   0  0  0  0  0  0  0  0  0  0  0  0
  153.5455  143.9537  160.4147 H   0  0  0  0  0  0  0  0  0  0  0  0
  153.6925  141.6218  159.6548 H   0  0  0  0  0  0  0  0  0  0  0  0
  151.9117  141.3849  159.8510 H   0  0  0  0  0  0  0  0  0  0  0  0
  153.3795  143.3012  157.9205 H   0  0  0  0  0  0  0  0  0  0  0  0
  150.8837  142.7177  156.9237 H   0  0  0  0  0  0  0  0  0  0  0  0
  149.7789  140.3682  156.3744 H   0  0  0  0  0  0  0  0  0  0  0  0
  150.8405  140.9604  155.1065 H   0  0  0  0  0  0  0  0  0  0  0  0
  151.6365  139.0070  153.5640 H   0  0  0  0  0  0  0  0  0  0  0  0
  149.6285  143.9763  158.4848 H   0  0  0  0  0  0  0  0  0  0  0  0
  149.7870  144.3883  160.1839 H   0  0  0  0  0  0  0  0  0  0  0  0
  149.9325  142.7193  159.6713 H   0  0  0  0  0  0  0  0  0  0  0  0
  151.3788  145.6653  157.9076 H   0  0  0  0  0  0  0  0  0  0  0  0
  152.9579  145.6384  158.6711 H   0  0  0  0  0  0  0  0  0  0  0  0
  151.5429  146.0832  159.6096 H   0  0  0  0  0  0  0  0  0  0  0  0
  1  2  1  0  0  0  0
  1 19  1  0  0  0  0
  1 20  1  0  0  0  0
  1 21  1  0  0  0  0
  2  3  1  0  0  0  0
  2 22  1  0  0  0  0
  2 23  1  0  0  0  0
  3  4  1  0  0  0  0
  4 16  1  0  0  0  0
  4  5  1  0  0  0  0
  4 24  1  0  0  0  0
  5  6  1  0  0  0  0
  5 25  1  0  0  0  0
  5 26  1  0  0  0  0
  6  7  1  0  0  0  0
  6 16  1  0  0  0  0
  6 27  1  0  0  0  0
  7  8  1  0  0  0  0
  7 28  1  0  0  0  0
  8  9  2  0  0  0  0
  8 10  1  0  0  0  0
 10 11  1  0  0  0  0
 10 29  1  0  0  0  0
 10 30  1  0  0  0  0
 11 15  1  0  0  0  0
 11 12  1  0  0  0  0
 12 13  2  0  0  0  0
 12 31  1  0  0  0  0
 13 14  1  0  0  0  0
 14 15  2  0  0  0  0
 16 17  1  0  0  0  0
 16 18  1  0  0  0  0
 17 32  1  0  0  0  0
 17 33  1  0  0  0  0
 17 34  1  0  0  0  0
 18 35  1  0  0  0  0
 18 36  1  0  0  0  0
 18 37  1  0  0  0  0
M  END
> <s_m_source_file>
AV-unprocessed.smi

> <i_m_source_file_index>
754

> <i_lp_mmshare_version>
43012

> <i_f3d_flags>
0

> <s_epik_input>
W0NIM11bQ0gyXU9bQ0BASF0oQzEoW0NIM10pW0NIM10pW0NIMl1bQ0BIXTFbTkhdQyg9TylbQ0gyXW4yW2NIXW5ubjI=

> <s_epik_cmdline>
J2VwaWtfcHl0aG9uJywgJy1waCcsICc3LjAnLCAnLXRuJywgJzgnLCAnLW1hJywgJzIwMCcsICctbWV0YWxfYmluZGluZycsICctaW1hZScsICc8aW5maWxlLm1hZT4nLCAnLW9tYWUnLCAnPG91dGZpbGUubWFlPic=

> <r_lp_tautomer_probability>
1

> <r_epik_Ionization_Penalty>
8.28422e-07

> <r_epik_Ionization_Penalty_Charging>
0

> <r_epik_Ionization_Penalty_Neutral>
8.28422e-07

> <r_epik_State_Penalty>
-0

> <r_epik_Charging_Adjusted_Penalty>
0

> <i_epik_Tot_Q>
0

> <i_epik_Tot_abs_Q>
0

> <r_epik_Metal_State_Penalty>
-0

> <b_epik_Metal_Only>
0

> <s_lp_Force_Field>
OPLS_2005

> <r_lp_Energy>
20.8169

> <b_lp_Chiralities_Consistent>
1

> <s_lp_Variant>
AV-unprocessed.smi:754-2

> <Gold.Version>
5.8.1

> <Gold.Id.Protein>
6NUR|6NUR_protein|mol2

> <Gold.PLP.Fitness>
41.9386

> <Gold.PLP.PLP>
-36.8200

> <Gold.PLP.part.hbond>
-2.3182

> <Gold.PLP.part.metal>
0.0000

> <Gold.PLP.part.buried>
-2.6759

> <Gold.PLP.part.nonpolar>
-31.5456

> <Gold.PLP.part.repulsive>
0.3883

> <Gold.PLP.ligand.clash>
0.0000

> <Gold.PLP.ligand.torsion>
0.6186

> <Gold.PLP.Chemscore.Hbond>
2.0000

> <Gold.PLP.Chemscore.CHOScore>
0.0000

> <Gold.PLP.Chemscore.Metal>
0.0000

> <Gold.Chemscore.Hbonds>
donor molecule, donor type, donor heavy atom, donor atom, acceptor molecule, acceptor atom, score
      P1  H  7997  8009       L1     9  1.00
      P1  H 10752 10765       L1    13  0.95

> <Gold.PLP.Chemscore.Internal.Correction>
0.3557

> <Gold.Rescore>
     Score         DG    S(hbond)    S(metal)    S(lipo)     H(rot)  DE(clash)    DE(int)     intcor
     12.63     -16.14       1.72        0.00      95.89       2.46       0.22       3.29       ----

> <Gold.Chemscore.Fitness>
12.6267

> <Gold.Chemscore.DG>
-16.1395

> <Gold.Chemscore.ZeroCoef>
-5.4800

> <Gold.Chemscore.Hbond>
1.7191

> <Gold.Chemscore.Metal>
0.0000

> <Gold.Chemscore.Lipo>
95.8904

> <Gold.Chemscore.Internal_Hbond>
0.0000

> <Gold.Chemscore.DEClash>
0.2197

> <Gold.Chemscore.DEInternal>
3.2931

> <Gold.Chemscore.Rot>
2.4616

> <Gold.Chemscore.Internal.Correction>
   9.000000E+99

> <Gold.Chemscore.Hbonds>
donor molecule, donor type, donor heavy atom, donor atom, acceptor molecule, acceptor atom, score
      P1  H  7997  8009       L1     9  0.93
      P1  H 10752 10765       L1    13  0.21

> <Gold.Chemscore.Hbond.Weighted>
-5.7419

> <Gold.Chemscore.Metal.Weighted>
-0.0000

> <Gold.Chemscore.Lipo.Weighted>
-11.2192

> <Gold.Chemscore.Internal_Hbond.Weighted>
0.0000

> <Gold.Chemscore.DEClash.Weighted>
0.2197

> <Gold.Chemscore.DEInternal.Weighted>
3.2931

> <Gold.Chemscore.Rot.Weighted>
6.3016

> <Gold.Chemscore.Internal.Correction.Weighted>
   9.000000E+99

> <Gold.Protein.RotatedTorsions>
[ 6907 6896 6895 6894 ] final -155.38 input  -60.11 | X-H torsion
[ 7974 7965 7964 7962 ] final   39.99 input  175.53 | X-H torsion
[ 8008 7997 7996 7995 ] final  172.86 input   59.86 | X-H torsion
[ 10167 10162 10161 10158 ] final   36.44 input  -65.29 | X-H torsion
[ 10718 10713 10712 10709 ] final  -80.59 input   66.30 | X-H torsion
[ 10763 10752 10751 10750 ] final  157.70 input  -60.55 | X-H torsion
[ 11005 11000 10999 10996 ] final -123.07 input  -57.11 | X-H torsion

> <Gold.Protein.ActiveResidues>
 VAL166  LYS551  ARG553  GLY616  TRP617  ASP618  TYR619  PRO620  LYS621  CYS622 
 ASP623  PHE694  ASN695  SER759  ASP760  ASP761  ALA762  ILE779  LEU786  VAL792 
 PHE793  MET794  SER795  GLU796  ALA797  LYS798  CYS799  TRP800  GLU811  SER814 

> <Gold.Protein.RotatedAtoms>
  151.2717  133.4252  159.2621 H   0  0  0  0  0  0  0  0  0  0  0  0  # atno 6907 bound_to 6896
  151.0439  134.9627  159.8186 H   0  0  0  0  0  0  0  0  0  0  0  0  # atno 6908 bound_to 6896
  152.5370  134.2674  159.9011 H   0  0  0  0  0  0  0  0  0  0  0  0  # atno 6909 bound_to 6896
  146.0940  139.5585  142.9457 H   0  0  0  0  0  0  0  0  0  0  0  0  # atno 7974 bound_to 7965
  156.1133  140.1475  156.9309 H   0  0  0  0  0  0  0  0  0  0  0  0  # atno 8008 bound_to 7997
  154.4782  140.0887  156.7356 H   0  0  0  0  0  0  0  0  0  0  0  0  # atno 8009 bound_to 7997
  155.4559  140.3436  155.4309 H   0  0  0  0  0  0  0  0  0  0  0  0  # atno 8010 bound_to 7997
  140.4127  144.1569  150.6141 H   0  0  0  0  0  0  0  0  0  0  0  0  # atno 10167 bound_to 10162
  156.0067  130.4579  150.3824 H   0  0  0  0  0  0  0  0  0  0  0  0  # atno 10718 bound_to 10713
  154.2044  135.2789  155.2980 H   0  0  0  0  0  0  0  0  0  0  0  0  # atno 10763 bound_to 10752
  154.5828  135.5584  153.7205 H   0  0  0  0  0  0  0  0  0  0  0  0  # atno 10764 bound_to 10752
  153.0079  135.6349  154.2183 H   0  0  0  0  0  0  0  0  0  0  0  0  # atno 10765 bound_to 10752
  140.9947  134.0488  157.3611 H   0  0  0  0  0  0  0  0  0  0  0  0  # atno 11005 bound_to 11000
  145.5984  141.0359  143.2032 LP  0  0  0  0  0  0  0  0  0  0  0  0  # atno 17320 bound_to 7965
  144.7381  139.7526  143.7321 LP  0  0  0  0  0  0  0  0  0  0  0  0  # atno 17321 bound_to 7965
  140.4620  143.2445  151.9207 LP  0  0  0  0  0  0  0  0  0  0  0  0  # atno 17342 bound_to 10162
  139.4782  144.5458  151.8460 LP  0  0  0  0  0  0  0  0  0  0  0  0  # atno 17343 bound_to 10162
  157.1903  131.0413  151.2703 LP  0  0  0  0  0  0  0  0  0  0  0  0  # atno 17370 bound_to 10713
  157.4067  130.7363  149.6808 LP  0  0  0  0  0  0  0  0  0  0  0  0  # atno 17371 bound_to 10713
  139.9009  135.0164  156.7263 LP  0  0  0  0  0  0  0  0  0  0  0  0  # atno 17394 bound_to 11000
  140.6984  133.9328  155.8009 LP  0  0  0  0  0  0  0  0  0  0  0  0  # atno 17395 bound_to 11000

$$$$
