AV-unprocessed.smi:260|AV-procd|sdf|1975|dock2
  -GOLD-   2262021143D 1   1.00000     0.00000
 Structure written by MMmdl.
 53 56  0  0  0  0  0  0  0  0  1 V2000
  147.2607  133.1395  158.9483 C   0  0  0  0  0  0  0  0  0  0  0  0
  147.9280  133.1442  157.6556 N   0  0  0  0  0  0  0  0  0  0  0  0
  149.0091  133.8840  157.3606 C   0  0  0  0  0  0  0  0  0  0  0  0
  149.5288  134.6320  158.1906 O   0  0  0  0  0  0  0  0  0  0  0  0
  149.5995  133.7781  155.9266 C   0  0  1  0  0  0  0  0  0  0  0  0
  149.9837  132.3261  155.5573 C   0  0  0  0  0  0  0  0  0  0  0  0
  148.6129  134.3780  154.9031 C   0  0  0  0  0  0  0  0  0  0  0  0
  148.9096  135.8793  154.8930 C   0  0  0  0  0  0  0  0  0  0  0  0
  150.3106  135.9844  155.2610 N   0  0  0  0  0  0  0  0  0  0  0  0
  150.9427  137.1681  155.4724 C   0  0  0  0  0  0  0  0  0  0  0  0
  151.9359  137.5268  154.6165 N   0  0  0  0  0  0  0  0  0  0  0  0
  152.5899  138.6800  154.7765 C   0  0  0  0  0  0  0  0  0  0  0  0
  152.4157  139.6136  155.7121 N   0  0  0  0  0  0  0  0  0  0  0  0
  151.4180  139.2674  156.5745 C   0  0  0  0  0  0  0  0  0  0  0  0
  150.6332  138.0784  156.5275 C   0  0  0  0  0  0  0  0  0  0  0  0
  149.7116  138.0918  157.5695 N   0  0  0  0  0  0  0  0  0  0  0  0
  149.9410  139.2130  158.1946 C   0  0  0  0  0  0  0  0  0  0  0  0
  150.9638  139.9726  157.6757 N   0  0  0  0  0  0  0  0  0  0  0  0
  151.4269  141.2584  158.1687 C   0  0  0  0  0  0  0  0  0  0  0  0
  150.3051  142.3133  158.3078 C   0  0  2  0  0  0  0  0  0  0  0  0
  149.8039  142.5117  157.0013 O   0  0  0  0  0  0  0  0  0  0  0  0
  150.7533  143.6951  158.8383 C   0  0  2  0  0  0  0  0  0  0  0  0
  152.0402  144.2659  158.2358 C   0  0  0  0  0  0  0  0  0  0  0  0
  152.5725  145.1939  159.3151 C   0  0  0  0  0  0  0  0  0  0  0  0
  151.8177  144.7639  160.5731 C   0  0  0  0  0  0  0  0  0  0  0  0
  151.1365  143.5747  160.2012 O   0  0  0  0  0  0  0  0  0  0  0  0
  150.8188  134.7170  155.7767 C   0  0  0  0  0  0  0  0  0  0  0  0
  146.4312  132.4326  158.9352 H   0  0  0  0  0  0  0  0  0  0  0  0
  146.8634  134.1277  159.1830 H   0  0  0  0  0  0  0  0  0  0  0  0
  147.9482  132.8426  159.7413 H   0  0  0  0  0  0  0  0  0  0  0  0
  147.5449  132.5488  156.9356 H   0  0  0  0  0  0  0  0  0  0  0  0
  150.4406  132.2793  154.5683 H   0  0  0  0  0  0  0  0  0  0  0  0
  149.1121  131.6706  155.5348 H   0  0  0  0  0  0  0  0  0  0  0  0
  150.7038  131.9093  156.2628 H   0  0  0  0  0  0  0  0  0  0  0  0
  148.8101  133.9692  153.9112 H   0  0  0  0  0  0  0  0  0  0  0  0
  147.5671  134.1692  155.1329 H   0  0  0  0  0  0  0  0  0  0  0  0
  148.7173  136.3154  153.9125 H   0  0  0  0  0  0  0  0  0  0  0  0
  148.2965  136.3988  155.6302 H   0  0  0  0  0  0  0  0  0  0  0  0
  153.3644  138.8826  154.0515 H   0  0  0  0  0  0  0  0  0  0  0  0
  149.3712  139.5138  159.0617 H   0  0  0  0  0  0  0  0  0  0  0  0
  151.9356  141.1178  159.1234 H   0  0  0  0  0  0  0  0  0  0  0  0
  152.1837  141.6105  157.4661 H   0  0  0  0  0  0  0  0  0  0  0  0
  149.4963  141.9193  158.9243 H   0  0  0  0  0  0  0  0  0  0  0  0
  149.7139  143.4405  156.8526 H   0  0  0  0  0  0  0  0  0  0  0  0
  149.9489  144.4280  158.7459 H   0  0  0  0  0  0  0  0  0  0  0  0
  152.7622  143.4675  158.0603 H   0  0  0  0  0  0  0  0  0  0  0  0
  151.8710  144.7859  157.2933 H   0  0  0  0  0  0  0  0  0  0  0  0
  153.6513  145.0826  159.4291 H   0  0  0  0  0  0  0  0  0  0  0  0
  152.3644  146.2388  159.0816 H   0  0  0  0  0  0  0  0  0  0  0  0
  152.4802  144.5874  161.4206 H   0  0  0  0  0  0  0  0  0  0  0  0
  151.0883  145.5220  160.8621 H   0  0  0  0  0  0  0  0  0  0  0  0
  151.3405  134.8460  156.7266 H   0  0  0  0  0  0  0  0  0  0  0  0
  151.5407  134.3192  155.0628 H   0  0  0  0  0  0  0  0  0  0  0  0
  1  2  1  0  0  0  0
  1 28  1  0  0  0  0
  1 29  1  0  0  0  0
  1 30  1  0  0  0  0
  2  3  1  0  0  0  0
  2 31  1  0  0  0  0
  3  4  2  0  0  0  0
  3  5  1  0  0  0  0
  5 27  1  0  0  0  0
  5  6  1  0  0  0  0
  5  7  1  0  0  0  0
  6 32  1  0  0  0  0
  6 33  1  0  0  0  0
  6 34  1  0  0  0  0
  7  8  1  0  0  0  0
  7 35  1  0  0  0  0
  7 36  1  0  0  0  0
  8  9  1  0  0  0  0
  8 37  1  0  0  0  0
  8 38  1  0  0  0  0
  9 10  1  0  0  0  0
  9 27  1  0  0  0  0
 10 15  1  0  0  0  0
 10 11  2  0  0  0  0
 11 12  1  0  0  0  0
 12 13  2  0  0  0  0
 12 39  1  0  0  0  0
 13 14  1  0  0  0  0
 14 18  1  0  0  0  0
 14 15  2  0  0  0  0
 15 16  1  0  0  0  0
 16 17  2  0  0  0  0
 17 18  1  0  0  0  0
 17 40  1  0  0  0  0
 18 19  1  0  0  0  0
 19 20  1  0  0  0  0
 19 41  1  0  0  0  0
 19 42  1  0  0  0  0
 20 21  1  0  0  0  0
 20 22  1  0  0  0  0
 20 43  1  0  0  0  0
 21 44  1  0  0  0  0
 22 26  1  0  0  0  0
 22 23  1  0  0  0  0
 22 45  1  0  0  0  0
 23 24  1  0  0  0  0
 23 46  1  0  0  0  0
 23 47  1  0  0  0  0
 24 25  1  0  0  0  0
 24 48  1  0  0  0  0
 24 49  1  0  0  0  0
 25 26  1  0  0  0  0
 25 50  1  0  0  0  0
 25 51  1  0  0  0  0
 27 52  1  0  0  0  0
 27 53  1  0  0  0  0
M  END
> <s_m_source_file>
AV-unprocessed.smi

> <i_m_source_file_index>
260

> <i_lp_mmshare_version>
43012

> <i_f3d_flags>
0

> <s_epik_input>
W0NIM11bTkhdQyg9TylbQ0BAXTEoW0NIM10pW0NIMl1bQ0gyXU4oW0NIMl0xKWMobltjSF1uMiljKGMyMyluW2NIXW4zW0NIMl1bQ0BIXShbT0hdKVtDQEBIXTRbQ0gyXVtDSDJdW0NIMl1PNA==

> <s_epik_cmdline>
J2VwaWtfcHl0aG9uJywgJy1waCcsICc3LjAnLCAnLXRuJywgJzgnLCAnLW1hJywgJzIwMCcsICctbWV0YWxfYmluZGluZycsICctaW1hZScsICc8aW5maWxlLm1hZT4nLCAnLW9tYWUnLCAnPG91dGZpbGUubWFlPic=

> <r_lp_tautomer_probability>
1

> <r_epik_Ionization_Penalty>
0.00115068

> <r_epik_Ionization_Penalty_Charging>
0

> <r_epik_Ionization_Penalty_Neutral>
0.00115068

> <r_epik_State_Penalty>
0.000668876

> <r_epik_Charging_Adjusted_Penalty>
0.000668876

> <i_epik_Tot_Q>
0

> <i_epik_Tot_abs_Q>
0

> <r_epik_Metal_State_Penalty>
-0

> <b_epik_Metal_Only>
0

> <s_lp_Force_Field>
OPLS_2005

> <r_lp_Energy>
51.9197

> <b_lp_Chiralities_Consistent>
1

> <s_lp_Variant>
AV-unprocessed.smi:260-1

> <Gold.Version>
5.8.1

> <Gold.Id.Protein>
6NUR|6NUR_protein|mol2

> <Gold.PLP.Fitness>
50.8959

> <Gold.PLP.PLP>
-42.7321

> <Gold.PLP.part.hbond>
-4.2817

> <Gold.PLP.part.metal>
0.0000

> <Gold.PLP.part.buried>
-6.1078

> <Gold.PLP.part.nonpolar>
-33.7085

> <Gold.PLP.part.repulsive>
0.2286

> <Gold.PLP.ligand.clash>
0.0000

> <Gold.PLP.ligand.torsion>
1.5960

> <Gold.PLP.Chemscore.Hbond>
3.6960

> <Gold.PLP.Chemscore.CHOScore>
0.0000

> <Gold.PLP.Chemscore.Metal>
0.0000

> <Gold.Chemscore.Hbonds>
donor molecule, donor type, donor heavy atom, donor atom, acceptor molecule, acceptor atom, score
      L1  H    21    44       P1  8028  0.86
      P1  H  6896  6907       L1     4  0.86
      P1  H  7997  8008       L1    13  0.93
      P1  H 10752 10765       L1    11  0.66

> <Gold.PLP.Chemscore.Internal.Correction>
0.2678

> <Gold.Rescore>
     Score         DG    S(hbond)    S(metal)    S(lipo)     H(rot)  DE(clash)    DE(int)     intcor
     18.53     -20.38       3.29        0.00      88.54       2.53       0.26       1.58       ----

> <Gold.Chemscore.Fitness>
18.5347

> <Gold.Chemscore.DG>
-20.3763

> <Gold.Chemscore.ZeroCoef>
-5.4800

> <Gold.Chemscore.Hbond>
3.2946

> <Gold.Chemscore.Metal>
0.0000

> <Gold.Chemscore.Lipo>
88.5365

> <Gold.Chemscore.Internal_Hbond>
0.0000

> <Gold.Chemscore.DEClash>
0.2647

> <Gold.Chemscore.DEInternal>
1.5768

> <Gold.Chemscore.Rot>
2.5259

> <Gold.Chemscore.Internal.Correction>
   9.000000E+99

> <Gold.Chemscore.Hbonds>
donor molecule, donor type, donor heavy atom, donor atom, acceptor molecule, acceptor atom, score
      L1  H    21    44       P1  8028  0.84
      P1  H  6896  6907       L1     4  0.80
      P1  H  7997  8008       L1    13  0.35
      P1  H 10752 10765       L1    11  0.16

> <Gold.Chemscore.Hbond.Weighted>
-11.0038

> <Gold.Chemscore.Metal.Weighted>
-0.0000

> <Gold.Chemscore.Lipo.Weighted>
-10.3588

> <Gold.Chemscore.Internal_Hbond.Weighted>
0.0000

> <Gold.Chemscore.DEClash.Weighted>
0.2647

> <Gold.Chemscore.DEInternal.Weighted>
1.5768

> <Gold.Chemscore.Rot.Weighted>
6.4663

> <Gold.Chemscore.Internal.Correction.Weighted>
   9.000000E+99

> <Gold.Protein.RotatedTorsions>
[ 6907 6896 6895 6894 ] final -115.04 input  -60.11 | X-H torsion
[ 7974 7965 7964 7962 ] final  -41.35 input  175.53 | X-H torsion
[ 8008 7997 7996 7995 ] final  -35.73 input   59.86 | X-H torsion
[ 10167 10162 10161 10158 ] final -170.77 input  -65.29 | X-H torsion
[ 10718 10713 10712 10709 ] final  -15.63 input   66.30 | X-H torsion
[ 10763 10752 10751 10750 ] final  169.85 input  -60.55 | X-H torsion
[ 11005 11000 10999 10996 ] final  -31.17 input  -57.11 | X-H torsion

> <Gold.Protein.ActiveResidues>
 VAL166  LYS551  ARG553  GLY616  TRP617  ASP618  TYR619  PRO620  LYS621  CYS622 
 ASP623  PHE694  ASN695  SER759  ASP760  ASP761  ALA762  ILE779  LEU786  VAL792 
 PHE793  MET794  SER795  GLU796  ALA797  LYS798  CYS799  TRP800  GLU811  SER814 

> <Gold.Protein.RotatedAtoms>
  150.7948  133.8715  159.3259 H   0  0  0  0  0  0  0  0  0  0  0  0  # atno 6907 bound_to 6896
  151.6543  135.0996  160.0176 H   0  0  0  0  0  0  0  0  0  0  0  0  # atno 6908 bound_to 6896
  152.4028  133.6804  159.6366 H   0  0  0  0  0  0  0  0  0  0  0  0  # atno 6909 bound_to 6896
  146.0219  140.6840  142.9174 H   0  0  0  0  0  0  0  0  0  0  0  0  # atno 7974 bound_to 7965
  154.4089  140.1649  156.2259 H   0  0  0  0  0  0  0  0  0  0  0  0  # atno 8008 bound_to 7997
  155.9324  140.3414  155.6237 H   0  0  0  0  0  0  0  0  0  0  0  0  # atno 8009 bound_to 7997
  155.7090  140.0754  157.2369 H   0  0  0  0  0  0  0  0  0  0  0  0  # atno 8010 bound_to 7997
  139.5842  144.1356  152.1554 H   0  0  0  0  0  0  0  0  0  0  0  0  # atno 10167 bound_to 10162
  156.5991  130.4819  149.6247 H   0  0  0  0  0  0  0  0  0  0  0  0  # atno 10718 bound_to 10713
  154.3891  135.2754  155.2166 H   0  0  0  0  0  0  0  0  0  0  0  0  # atno 10763 bound_to 10752
  154.4240  135.5993  153.6031 H   0  0  0  0  0  0  0  0  0  0  0  0  # atno 10764 bound_to 10752
  152.9832  135.5979  154.4143 H   0  0  0  0  0  0  0  0  0  0  0  0  # atno 10765 bound_to 10752
  140.9445  133.7258  156.1126 H   0  0  0  0  0  0  0  0  0  0  0  0  # atno 11005 bound_to 11000
  144.6993  140.3581  143.7169 LP  0  0  0  0  0  0  0  0  0  0  0  0  # atno 17320 bound_to 7965
  145.7180  139.1702  143.2501 LP  0  0  0  0  0  0  0  0  0  0  0  0  # atno 17321 bound_to 7965
  140.0916  144.5616  150.7051 LP  0  0  0  0  0  0  0  0  0  0  0  0  # atno 17342 bound_to 10162
  140.7116  143.2510  151.4563 LP  0  0  0  0  0  0  0  0  0  0  0  0  # atno 17343 bound_to 10162
  156.2485  130.6893  151.1622 LP  0  0  0  0  0  0  0  0  0  0  0  0  # atno 17370 bound_to 10713
  157.7284  131.0632  150.5821 LP  0  0  0  0  0  0  0  0  0  0  0  0  # atno 17371 bound_to 10713
  140.7688  134.3856  157.5512 LP  0  0  0  0  0  0  0  0  0  0  0  0  # atno 17394 bound_to 11000
  139.8829  134.9009  156.2798 LP  0  0  0  0  0  0  0  0  0  0  0  0  # atno 17395 bound_to 11000

$$$$
