AV-unprocessed.smi:113|AV-procd|sdf|1105|dock2
  -GOLD-   2262018213D 1   1.00000     0.00000
 Structure written by MMmdl.
 53 56  0  0  0  0  0  0  0  0  2 V2000
  148.6406  141.7928  154.5039 C   0  0  0  0  0  0  0  0  0  0  0  0
  149.5811  141.3811  155.6166 C   0  0  0  0  0  0  0  0  0  0  0  0
  149.8541  140.0309  155.9098 C   0  0  0  0  0  0  0  0  0  0  0  0
  150.7460  139.7016  156.9607 C   0  0  0  0  0  0  0  0  0  0  0  0
  151.0621  138.2416  157.3029 C   0  0  0  0  0  0  0  0  0  0  0  0
  149.9306  137.3744  157.5998 N   0  0  0  0  0  0  0  0  0  0  0  0
  149.0983  136.9821  156.5233 C   0  0  0  0  0  0  0  0  0  0  0  0
  149.3178  137.3574  155.3697 O   0  0  0  0  0  0  0  0  0  0  0  0
  147.9932  136.0908  156.8840 C   0  0  0  0  0  0  0  0  0  0  0  0
  147.0588  135.6241  155.7789 C   0  0  0  0  0  0  0  0  0  0  0  0
  147.8341  135.7042  158.1729 C   0  0  0  0  0  0  0  0  0  0  0  0
  148.6595  136.1073  159.2077 N   0  0  0  0  0  0  0  0  0  0  0  0
  148.4264  135.5703  160.6027 C   0  0  2  0  0  0  0  0  0  0  0  0
  147.1986  134.6489  160.7130 C   0  0  0  0  0  0  0  0  0  0  0  0
  146.4535  135.1983  161.9253 C   0  0  2  0  0  0  0  0  0  0  0  0
  145.2431  135.8127  161.5265 O   0  0  0  0  0  0  0  0  0  0  0  0
  147.4467  136.1913  162.5566 C   0  0  2  0  0  0  0  0  0  0  0  0
  146.8533  137.3789  163.3352 C   0  0  0  0  0  0  0  0  0  0  0  0
  146.1187  138.2175  162.4688 O   0  0  0  0  0  0  0  0  0  0  0  0
  148.2258  136.6465  161.4616 O   0  0  0  0  0  0  0  0  0  0  0  0
  149.7659  136.9411  158.9342 C   0  0  0  0  0  0  0  0  0  0  0  0
  150.5631  137.2576  159.8194 O   0  0  0  0  0  0  0  0  0  0  0  0
  151.3453  140.7630  157.6935 C   0  0  0  0  0  0  0  0  0  0  0  0
  152.2502  140.5287  158.7567 C   0  0  0  0  0  0  0  0  0  0  0  0
  152.8225  141.6071  159.4599 C   0  0  0  0  0  0  0  0  0  0  0  0
  152.5002  142.9323  159.1128 C   0  0  0  0  0  0  0  0  0  0  0  0
  151.6033  143.1834  158.0579 C   0  0  0  0  0  0  0  0  0  0  0  0
  151.0304  142.1061  157.3525 C   0  0  0  0  0  0  0  0  0  0  0  0
  150.1726  142.3533  156.3401 N   0  3  0  0  0  0  0  0  0  0  0  0
  148.0880  140.9351  154.1193 H   0  0  0  0  0  0  0  0  0  0  0  0
  149.2012  142.2350  153.6800 H   0  0  0  0  0  0  0  0  0  0  0  0
  147.9192  142.5270  154.8638 H   0  0  0  0  0  0  0  0  0  0  0  0
  149.3752  139.2626  155.3216 H   0  0  0  0  0  0  0  0  0  0  0  0
  151.6225  137.7780  156.4892 H   0  0  0  0  0  0  0  0  0  0  0  0
  151.7396  138.1929  158.1567 H   0  0  0  0  0  0  0  0  0  0  0  0
  146.2733  134.9705  156.1597 H   0  0  0  0  0  0  0  0  0  0  0  0
  147.6123  135.0715  155.0187 H   0  0  0  0  0  0  0  0  0  0  0  0
  146.5779  136.4781  155.3001 H   0  0  0  0  0  0  0  0  0  0  0  0
  147.0113  135.0424  158.4031 H   0  0  0  0  0  0  0  0  0  0  0  0
  149.3429  135.0556  160.8940 H   0  0  0  0  0  0  0  0  0  0  0  0
  146.5964  134.6498  159.8036 H   0  0  0  0  0  0  0  0  0  0  0  0
  147.5440  133.6289  160.8839 H   0  0  0  0  0  0  0  0  0  0  0  0
  146.2035  134.4037  162.6290 H   0  0  0  0  0  0  0  0  0  0  0  0
  144.9735  136.4124  162.2058 H   0  0  0  0  0  0  0  0  0  0  0  0
  148.1226  135.6379  163.2118 H   0  0  0  0  0  0  0  0  0  0  0  0
  146.1795  137.0147  164.1109 H   0  0  0  0  0  0  0  0  0  0  0  0
  147.6293  137.9560  163.8386 H   0  0  0  0  0  0  0  0  0  0  0  0
  145.3274  138.4870  162.9096 H   0  0  0  0  0  0  0  0  0  0  0  0
  152.5219  139.5265  159.0514 H   0  0  0  0  0  0  0  0  0  0  0  0
  153.5121  141.4156  160.2691 H   0  0  0  0  0  0  0  0  0  0  0  0
  152.9418  143.7557  159.6554 H   0  0  0  0  0  0  0  0  0  0  0  0
  151.3602  144.2029  157.7952 H   0  0  0  0  0  0  0  0  0  0  0  0
  149.9614  143.3241  156.1101 H   0  0  0  0  0  0  0  0  0  0  0  0
  1  2  1  0  0  0  0
  1 30  1  0  0  0  0
  1 31  1  0  0  0  0
  1 32  1  0  0  0  0
  2 29  1  0  0  0  0
  2  3  2  0  0  0  0
  3  4  1  0  0  0  0
  3 33  1  0  0  0  0
  4  5  1  0  0  0  0
  4 23  2  0  0  0  0
  5  6  1  0  0  0  0
  5 34  1  0  0  0  0
  5 35  1  0  0  0  0
  6 21  1  0  0  0  0
  6  7  1  0  0  0  0
  7  8  2  0  0  0  0
  7  9  1  0  0  0  0
  9 10  1  0  0  0  0
  9 11  2  0  0  0  0
 10 36  1  0  0  0  0
 10 37  1  0  0  0  0
 10 38  1  0  0  0  0
 11 12  1  0  0  0  0
 11 39  1  0  0  0  0
 12 13  1  0  0  0  0
 12 21  1  0  0  0  0
 13 20  1  0  0  0  0
 13 14  1  0  0  0  0
 13 40  1  0  0  0  0
 14 15  1  0  0  0  0
 14 41  1  0  0  0  0
 14 42  1  0  0  0  0
 15 16  1  0  0  0  0
 15 17  1  0  0  0  0
 15 43  1  0  0  0  0
 16 44  1  0  0  0  0
 17 18  1  0  0  0  0
 17 20  1  0  0  0  0
 17 45  1  0  0  0  0
 18 19  1  0  0  0  0
 18 46  1  0  0  0  0
 18 47  1  0  0  0  0
 19 48  1  0  0  0  0
 21 22  2  0  0  0  0
 23 28  1  0  0  0  0
 23 24  1  0  0  0  0
 24 25  2  0  0  0  0
 24 49  1  0  0  0  0
 25 26  1  0  0  0  0
 25 50  1  0  0  0  0
 26 27  2  0  0  0  0
 26 51  1  0  0  0  0
 27 28  1  0  0  0  0
 27 52  1  0  0  0  0
 28 29  2  0  0  0  0
 29 53  1  0  0  0  0
M  CHG  1  29   1
M  END
> <s_m_source_file>
AV-unprocessed.smi

> <i_m_source_file_index>
113

> <i_lp_mmshare_version>
43012

> <i_f3d_flags>
0

> <s_epik_input>
W2NIXTFbY0hdW2NIXVtjSF1jKGMxMiluYyhbQ0gzXSlbY0hdYzJbQ0gyXW4zYyg9TyljKFtDSDNdKVtjSF1uKGMzPU8pW0NAQEhdNFtDSDJdW0NAQEhdKFtPSF0pW0NASF0oTzQpW0NIMl1bT0hd

> <s_epik_cmdline>
J2VwaWtfcHl0aG9uJywgJy1waCcsICc3LjAnLCAnLXRuJywgJzgnLCAnLW1hJywgJzIwMCcsICctbWV0YWxfYmluZGluZycsICctaW1hZScsICc8aW5maWxlLm1hZT4nLCAnLW9tYWUnLCAnPG91dGZpbGUubWFlPic=

> <r_lp_tautomer_probability>
1

> <r_epik_Ionization_Penalty>
0.705471

> <r_epik_Ionization_Penalty_Charging>
0.70547

> <r_epik_Ionization_Penalty_Neutral>
1.19947e-07

> <r_epik_State_Penalty>
0.728574

> <r_epik_Charging_Adjusted_Penalty>
1.43404

> <i_epik_Tot_Q>
1

> <i_epik_Tot_abs_Q>
1

> <r_epik_Metal_State_Penalty>
4.61665

> <b_epik_Metal_Only>
0

> <s_epik_Chemistry_Notes>
This compound contains an acetal/aminal-like group ( X-CH(R)-Y where X, Y are N, S, or O) that may be acid/base labile, releasing an aldehyde.

> <s_lp_Force_Field>
OPLS_2005

> <r_lp_Energy>
39.3678

> <b_lp_Chiralities_Consistent>
1

> <s_lp_Variant>
AV-unprocessed.smi:113-15

> <Gold.Version>
5.8.1

> <Gold.Id.Protein>
6NUR|6NUR_protein|mol2

> <Gold.PLP.Fitness>
55.2822

> <Gold.PLP.PLP>
-44.9387

> <Gold.PLP.part.hbond>
-4.0248

> <Gold.PLP.part.metal>
0.0000

> <Gold.PLP.part.buried>
-7.1310

> <Gold.PLP.part.nonpolar>
-34.5053

> <Gold.PLP.part.repulsive>
0.1991

> <Gold.PLP.ligand.clash>
0.0000

> <Gold.PLP.ligand.torsion>
0.1607

> <Gold.PLP.Chemscore.Hbond>
3.5397

> <Gold.PLP.Chemscore.CHOScore>
0.0000

> <Gold.PLP.Chemscore.Metal>
0.0000

> <Gold.Chemscore.Hbonds>
donor molecule, donor type, donor heavy atom, donor atom, acceptor molecule, acceptor atom, score
      L1  H    29    53       P1  8028  2.00
      P1  H  6896  6909       L1    22  0.26
      P1  H  6931  6943       L1    20  1.00
      P1  H  6934  6947       L1    19  0.35

> <Gold.PLP.Chemscore.Internal.Correction>
0.0460

> <Gold.Rescore>
     Score         DG    S(hbond)    S(metal)    S(lipo)     H(rot)  DE(clash)    DE(int)     intcor
     15.75     -18.66       2.22        0.00     115.25       3.01       0.17       2.73       ----

> <Gold.Chemscore.Fitness>
15.7494

> <Gold.Chemscore.DG>
-18.6553

> <Gold.Chemscore.ZeroCoef>
-5.4800

> <Gold.Chemscore.Hbond>
2.2162

> <Gold.Chemscore.Metal>
0.0000

> <Gold.Chemscore.Lipo>
115.2459

> <Gold.Chemscore.Internal_Hbond>
0.0000

> <Gold.Chemscore.DEClash>
0.1731

> <Gold.Chemscore.DEInternal>
2.7327

> <Gold.Chemscore.Rot>
3.0120

> <Gold.Chemscore.Internal.Correction>
   9.000000E+99

> <Gold.Chemscore.Hbonds>
donor molecule, donor type, donor heavy atom, donor atom, acceptor molecule, acceptor atom, score
      L1  H    29    53       P1  8028  0.99
      P1  H  6896  6909       L1    22  0.02
      P1  H  6931  6943       L1    20  0.70
      P1  H  6934  6947       L1    19  0.32

> <Gold.Chemscore.Hbond.Weighted>
-7.4023

> <Gold.Chemscore.Metal.Weighted>
-0.0000

> <Gold.Chemscore.Lipo.Weighted>
-13.4838

> <Gold.Chemscore.Internal_Hbond.Weighted>
0.0000

> <Gold.Chemscore.DEClash.Weighted>
0.1731

> <Gold.Chemscore.DEInternal.Weighted>
2.7327

> <Gold.Chemscore.Rot.Weighted>
7.7108

> <Gold.Chemscore.Internal.Correction.Weighted>
   9.000000E+99

> <Gold.Protein.RotatedTorsions>
[ 6907 6896 6895 6894 ] final  110.31 input  -60.11 | X-H torsion
[ 7974 7965 7964 7962 ] final    6.05 input  175.53 | X-H torsion
[ 8008 7997 7996 7995 ] final  105.28 input   59.86 | X-H torsion
[ 10167 10162 10161 10158 ] final  -84.42 input  -65.29 | X-H torsion
[ 10718 10713 10712 10709 ] final  120.58 input   66.30 | X-H torsion
[ 10763 10752 10751 10750 ] final  -17.77 input  -60.55 | X-H torsion
[ 11005 11000 10999 10996 ] final  171.68 input  -57.11 | X-H torsion

> <Gold.Protein.ActiveResidues>
 VAL166  LYS551  ARG553  GLY616  TRP617  ASP618  TYR619  PRO620  LYS621  CYS622 
 ASP623  PHE694  ASN695  SER759  ASP760  ASP761  ALA762  ILE779  LEU786  VAL792 
 PHE793  MET794  SER795  GLU796  ALA797  LYS798  CYS799  TRP800  GLU811  SER814 

> <Gold.Protein.RotatedAtoms>
  152.5026  133.8819  159.7350 H   0  0  0  0  0  0  0  0  0  0  0  0  # atno 6907 bound_to 6896
  150.9279  133.6793  159.2824 H   0  0  0  0  0  0  0  0  0  0  0  0  # atno 6908 bound_to 6896
  151.4147  135.0994  159.9648 H   0  0  0  0  0  0  0  0  0  0  0  0  # atno 6909 bound_to 6896
  146.2437  140.0291  142.8391 H   0  0  0  0  0  0  0  0  0  0  0  0  # atno 7974 bound_to 7965
  156.1646  140.3133  155.8866 H   0  0  0  0  0  0  0  0  0  0  0  0  # atno 8008 bound_to 7997
  155.3713  140.0482  157.3062 H   0  0  0  0  0  0  0  0  0  0  0  0  # atno 8009 bound_to 7997
  154.5179  140.2188  155.9041 H   0  0  0  0  0  0  0  0  0  0  0  0  # atno 8010 bound_to 7997
  140.4134  143.2613  151.8987 H   0  0  0  0  0  0  0  0  0  0  0  0  # atno 10167 bound_to 10162
  157.5881  131.1067  150.8054 H   0  0  0  0  0  0  0  0  0  0  0  0  # atno 10718 bound_to 10713
  153.5789  135.7005  153.5472 H   0  0  0  0  0  0  0  0  0  0  0  0  # atno 10763 bound_to 10752
  153.3278  135.4056  155.1470 H   0  0  0  0  0  0  0  0  0  0  0  0  # atno 10764 bound_to 10752
  154.8621  135.3711  154.5316 H   0  0  0  0  0  0  0  0  0  0  0  0  # atno 10765 bound_to 10752
  140.3216  134.7432  157.4068 H   0  0  0  0  0  0  0  0  0  0  0  0  # atno 11005 bound_to 11000
  145.1171  140.9440  143.4622 LP  0  0  0  0  0  0  0  0  0  0  0  0  # atno 17320 bound_to 7965
  145.0518  139.3175  143.5925 LP  0  0  0  0  0  0  0  0  0  0  0  0  # atno 17321 bound_to 7965
  139.4782  144.5513  151.8381 LP  0  0  0  0  0  0  0  0  0  0  0  0  # atno 17342 bound_to 10162
  140.4613  144.1718  150.5906 LP  0  0  0  0  0  0  0  0  0  0  0  0  # atno 17343 bound_to 10162
  156.8483  130.5072  149.5314 LP  0  0  0  0  0  0  0  0  0  0  0  0  # atno 17370 bound_to 10713
  156.0932  130.5912  150.9768 LP  0  0  0  0  0  0  0  0  0  0  0  0  # atno 17371 bound_to 10713
  140.0937  134.5567  155.8419 LP  0  0  0  0  0  0  0  0  0  0  0  0  # atno 17394 bound_to 11000
  141.2085  133.6674  156.6376 LP  0  0  0  0  0  0  0  0  0  0  0  0  # atno 17395 bound_to 11000

$$$$
