AV-unprocessed.smi:1931|AV-procd|sdf|7813|dock2
  -GOLD-   22720 9553D 1   1.00000     0.00000
 Structure written by MMmdl.
 48 49  0  0  0  0  0  0  0  0  1 V2000
  143.4763  133.7149  151.5228 C   0  0  0  0  0  0  0  0  0  0  0  0
  144.4171  134.7050  151.1460 O   0  0  0  0  0  0  0  0  0  0  0  0
  144.3288  135.8709  151.9477 C   0  0  0  0  0  0  0  0  0  0  0  0
  145.4676  136.8246  151.5738 C   0  0  0  0  0  0  0  0  0  0  0  0
  145.7440  137.6702  152.6776 O   0  0  0  0  0  0  0  0  0  0  0  0
  146.4871  138.8233  152.3113 C   0  0  0  0  0  0  0  0  0  0  0  0
  146.8523  139.6145  153.5679 C   0  0  0  0  0  0  0  0  0  0  0  0
  145.9538  140.0277  154.2997 O   0  0  0  0  0  0  0  0  0  0  0  0
  148.1669  139.8061  153.7859 N   0  0  0  0  0  0  0  0  0  0  0  0
  148.7985  140.4951  154.8561 C   0  0  0  0  0  0  0  0  0  0  0  0
  148.1083  141.1555  155.8981 C   0  0  0  0  0  0  0  0  0  0  0  0
  148.8486  141.8202  156.8948 C   0  0  0  0  0  0  0  0  0  0  0  0
  150.2650  141.8160  156.8274 C   0  0  0  0  0  0  0  0  0  0  0  0
  151.0680  142.4649  157.7925 N   0  0  0  0  0  0  0  0  0  0  0  0
  151.9838  141.6636  158.5977 C   0  0  0  0  0  0  0  0  0  0  0  0
  152.4747  142.4629  159.8182 C   0  0  1  0  0  0  0  0  0  0  0  0
  153.5514  141.7048  160.6021 C   0  0  0  0  0  0  0  0  0  0  0  0
  153.0342  143.7027  159.3889 O   0  0  0  0  0  0  0  0  0  0  0  0
  152.1419  144.5324  158.6423 C   0  0  2  0  0  0  0  0  0  0  0  0
  151.0309  145.1353  159.5209 C   0  0  0  0  0  0  0  0  0  0  0  0
  151.6062  143.7706  157.4143 C   0  0  0  0  0  0  0  0  0  0  0  0
  150.9182  141.1942  155.8165 N   0  0  0  0  0  0  0  0  0  0  0  0
  150.2051  140.5600  154.8629 C   0  0  0  0  0  0  0  0  0  0  0  0
  143.5854  132.8420  150.8792 H   0  0  0  0  0  0  0  0  0  0  0  0
  142.4545  134.0829  151.4200 H   0  0  0  0  0  0  0  0  0  0  0  0
  143.6313  133.3943  152.5538 H   0  0  0  0  0  0  0  0  0  0  0  0
  143.3627  136.3621  151.8209 H   0  0  0  0  0  0  0  0  0  0  0  0
  144.4189  135.5908  152.9983 H   0  0  0  0  0  0  0  0  0  0  0  0
  146.3612  136.2464  151.3337 H   0  0  0  0  0  0  0  0  0  0  0  0
  145.2053  137.4068  150.6891 H   0  0  0  0  0  0  0  0  0  0  0  0
  147.4034  138.5394  151.7920 H   0  0  0  0  0  0  0  0  0  0  0  0
  145.9012  139.4525  151.6389 H   0  0  0  0  0  0  0  0  0  0  0  0
  148.7896  139.3394  153.1419 H   0  0  0  0  0  0  0  0  0  0  0  0
  147.0310  141.1774  155.9483 H   0  0  0  0  0  0  0  0  0  0  0  0
  148.3120  142.3123  157.6915 H   0  0  0  0  0  0  0  0  0  0  0  0
  151.4854  140.7599  158.9501 H   0  0  0  0  0  0  0  0  0  0  0  0
  152.8284  141.3561  157.9795 H   0  0  0  0  0  0  0  0  0  0  0  0
  151.6387  142.6508  160.4921 H   0  0  0  0  0  0  0  0  0  0  0  0
  153.1728  140.7491  160.9656 H   0  0  0  0  0  0  0  0  0  0  0  0
  153.8822  142.2816  161.4662 H   0  0  0  0  0  0  0  0  0  0  0  0
  154.4249  141.5049  159.9811 H   0  0  0  0  0  0  0  0  0  0  0  0
  152.7402  145.3676  158.2771 H   0  0  0  0  0  0  0  0  0  0  0  0
  150.4519  145.8690  158.9597 H   0  0  0  0  0  0  0  0  0  0  0  0
  151.4530  145.6428  160.3884 H   0  0  0  0  0  0  0  0  0  0  0  0
  150.3312  144.3810  159.8802 H   0  0  0  0  0  0  0  0  0  0  0  0
  152.4164  143.6082  156.7025 H   0  0  0  0  0  0  0  0  0  0  0  0
  150.8648  144.3890  156.9082 H   0  0  0  0  0  0  0  0  0  0  0  0
  150.7802  140.0828  154.0830 H   0  0  0  0  0  0  0  0  0  0  0  0
  1  2  1  0  0  0  0
  1 24  1  0  0  0  0
  1 25  1  0  0  0  0
  1 26  1  0  0  0  0
  2  3  1  0  0  0  0
  3  4  1  0  0  0  0
  3 27  1  0  0  0  0
  3 28  1  0  0  0  0
  4  5  1  0  0  0  0
  4 29  1  0  0  0  0
  4 30  1  0  0  0  0
  5  6  1  0  0  0  0
  6  7  1  0  0  0  0
  6 31  1  0  0  0  0
  6 32  1  0  0  0  0
  7  8  2  0  0  0  0
  7  9  1  0  0  0  0
  9 10  1  0  0  0  0
  9 33  1  0  0  0  0
 10 23  1  0  0  0  0
 10 11  2  0  0  0  0
 11 12  1  0  0  0  0
 11 34  1  0  0  0  0
 12 13  2  0  0  0  0
 12 35  1  0  0  0  0
 13 14  1  0  0  0  0
 13 22  1  0  0  0  0
 14 21  1  0  0  0  0
 14 15  1  0  0  0  0
 15 16  1  0  0  0  0
 15 36  1  0  0  0  0
 15 37  1  0  0  0  0
 16 17  1  0  0  0  0
 16 18  1  0  0  0  0
 16 38  1  0  0  0  0
 17 39  1  0  0  0  0
 17 40  1  0  0  0  0
 17 41  1  0  0  0  0
 18 19  1  0  0  0  0
 19 20  1  0  0  0  0
 19 21  1  0  0  0  0
 19 42  1  0  0  0  0
 20 43  1  0  0  0  0
 20 44  1  0  0  0  0
 20 45  1  0  0  0  0
 21 46  1  0  0  0  0
 21 47  1  0  0  0  0
 22 23  2  0  0  0  0
 23 48  1  0  0  0  0
M  END
> <s_m_source_file>
AV-unprocessed.smi

> <i_m_source_file_index>
1931

> <i_lp_mmshare_version>
43012

> <i_f3d_flags>
0

> <s_epik_input>
W0NIM11PW0NIMl1bQ0gyXU9bQ0gyXUMoPU8pW05IXWMxW2NIXVtjSF1jKG5bY0hdMSlOMltDSDJdW0NAQEhdKFtDSDNdKU9bQ0BASF0oW0NIM10pW0NIMl0y

> <s_epik_cmdline>
J2VwaWtfcHl0aG9uJywgJy1waCcsICc3LjAnLCAnLXRuJywgJzgnLCAnLW1hJywgJzIwMCcsICctbWV0YWxfYmluZGluZycsICctaW1hZScsICc8aW5maWxlLm1hZT4nLCAnLW9tYWUnLCAnPG91dGZpbGUubWFlPic=

> <r_lp_tautomer_probability>
1

> <r_epik_Ionization_Penalty>
0.000582342

> <r_epik_Ionization_Penalty_Charging>
0

> <r_epik_Ionization_Penalty_Neutral>
0.000582342

> <r_epik_State_Penalty>
0.00036524

> <r_epik_Charging_Adjusted_Penalty>
0.00036524

> <i_epik_Tot_Q>
0

> <i_epik_Tot_abs_Q>
0

> <r_epik_Metal_State_Penalty>
-0

> <b_epik_Metal_Only>
0

> <s_lp_Force_Field>
OPLS_2005

> <r_lp_Energy>
26.0102

> <b_lp_Chiralities_Consistent>
1

> <s_lp_Variant>
AV-unprocessed.smi:1931-3

> <Gold.Version>
5.8.1

> <Gold.Id.Protein>
6NUR|6NUR_protein|mol2

> <Gold.PLP.Fitness>
45.4304

> <Gold.PLP.PLP>
-44.2219

> <Gold.PLP.part.hbond>
-1.9627

> <Gold.PLP.part.metal>
0.0000

> <Gold.PLP.part.buried>
-1.3029

> <Gold.PLP.part.nonpolar>
-41.5064

> <Gold.PLP.part.repulsive>
1.2544

> <Gold.PLP.ligand.clash>
0.0000

> <Gold.PLP.ligand.torsion>
0.4964

> <Gold.PLP.Chemscore.Hbond>
0.5440

> <Gold.PLP.Chemscore.CHOScore>
0.0000

> <Gold.PLP.Chemscore.Metal>
0.0000

> <Gold.Chemscore.Hbonds>
donor molecule, donor type, donor heavy atom, donor atom, acceptor molecule, acceptor atom, score
      L1  H     9    33       P1  7957  0.27

> <Gold.PLP.Chemscore.Internal.Correction>
0.5694

> <Gold.Rescore>
     Score         DG    S(hbond)    S(metal)    S(lipo)     H(rot)  DE(clash)    DE(int)     intcor
     12.50     -15.93       0.54        0.00     116.18       1.93       1.54       1.89       ----

> <Gold.Chemscore.Fitness>
12.5020

> <Gold.Chemscore.DG>
-15.9307

> <Gold.Chemscore.ZeroCoef>
-5.4800

> <Gold.Chemscore.Hbond>
0.5421

> <Gold.Chemscore.Metal>
0.0000

> <Gold.Chemscore.Lipo>
116.1831

> <Gold.Chemscore.Internal_Hbond>
0.0000

> <Gold.Chemscore.DEClash>
1.5393

> <Gold.Chemscore.DEInternal>
1.8894

> <Gold.Chemscore.Rot>
1.9349

> <Gold.Chemscore.Internal.Correction>
   9.000000E+99

> <Gold.Chemscore.Hbonds>
donor molecule, donor type, donor heavy atom, donor atom, acceptor molecule, acceptor atom, score
      L1  H     9    33       P1  7957  0.27

> <Gold.Chemscore.Hbond.Weighted>
-1.8106

> <Gold.Chemscore.Metal.Weighted>
-0.0000

> <Gold.Chemscore.Lipo.Weighted>
-13.5934

> <Gold.Chemscore.Internal_Hbond.Weighted>
0.0000

> <Gold.Chemscore.DEClash.Weighted>
1.5393

> <Gold.Chemscore.DEInternal.Weighted>
1.8894

> <Gold.Chemscore.Rot.Weighted>
4.9534

> <Gold.Chemscore.Internal.Correction.Weighted>
   9.000000E+99

> <Gold.Protein.RotatedTorsions>
[ 6907 6896 6895 6894 ] final   99.25 input  -60.11 | X-H torsion
[ 7974 7965 7964 7962 ] final -104.25 input  175.53 | X-H torsion
[ 8008 7997 7996 7995 ] final  128.86 input   59.86 | X-H torsion
[ 10167 10162 10161 10158 ] final -134.59 input  -65.29 | X-H torsion
[ 10718 10713 10712 10709 ] final   82.81 input   66.30 | X-H torsion
[ 10763 10752 10751 10750 ] final   65.37 input  -60.55 | X-H torsion
[ 11005 11000 10999 10996 ] final -136.65 input  -57.11 | X-H torsion

> <Gold.Protein.ActiveResidues>
 VAL166  LYS551  ARG553  GLY616  TRP617  ASP618  TYR619  PRO620  LYS621  CYS622 
 ASP623  PHE694  ASN695  SER759  ASP760  ASP761  ALA762  ILE779  LEU786  VAL792 
 PHE793  MET794  SER795  GLU796  ALA797  LYS798  CYS799  TRP800  GLU811  SER814 

> <Gold.Protein.RotatedAtoms>
  152.5395  134.0458  159.8087 H   0  0  0  0  0  0  0  0  0  0  0  0  # atno 6907 bound_to 6896
  151.0607  133.5539  159.2642 H   0  0  0  0  0  0  0  0  0  0  0  0  # atno 6908 bound_to 6896
  151.2439  135.0606  159.9089 H   0  0  0  0  0  0  0  0  0  0  0  0  # atno 6909 bound_to 6896
  145.2455  140.9220  143.3125 H   0  0  0  0  0  0  0  0  0  0  0  0  # atno 7974 bound_to 7965
  156.2924  140.2634  156.2504 H   0  0  0  0  0  0  0  0  0  0  0  0  # atno 8008 bound_to 7997
  154.9888  140.0389  157.2329 H   0  0  0  0  0  0  0  0  0  0  0  0  # atno 8009 bound_to 7997
  154.7705  140.2777  155.6147 H   0  0  0  0  0  0  0  0  0  0  0  0  # atno 8010 bound_to 7997
  139.8865  143.6775  152.2619 H   0  0  0  0  0  0  0  0  0  0  0  0  # atno 10167 bound_to 10162
  157.6865  131.0064  150.2429 H   0  0  0  0  0  0  0  0  0  0  0  0  # atno 10718 bound_to 10713
  153.0094  135.5359  154.6657 H   0  0  0  0  0  0  0  0  0  0  0  0  # atno 10763 bound_to 10752
  154.5854  135.2854  155.0692 H   0  0  0  0  0  0  0  0  0  0  0  0  # atno 10764 bound_to 10752
  154.1805  135.6517  153.5085 H   0  0  0  0  0  0  0  0  0  0  0  0  # atno 10765 bound_to 10752
  140.8785  134.1962  157.4606 H   0  0  0  0  0  0  0  0  0  0  0  0  # atno 11005 bound_to 11000
  144.9550  139.4041  143.6384 LP  0  0  0  0  0  0  0  0  0  0  0  0  # atno 17320 bound_to 7965
  146.3317  139.8576  142.8862 LP  0  0  0  0  0  0  0  0  0  0  0  0  # atno 17321 bound_to 7965
  139.7148  144.7614  151.1052 LP  0  0  0  0  0  0  0  0  0  0  0  0  # atno 17342 bound_to 10162
  140.7735  143.5283  150.9453 LP  0  0  0  0  0  0  0  0  0  0  0  0  # atno 17343 bound_to 10162
  156.3040  130.3762  149.7723 LP  0  0  0  0  0  0  0  0  0  0  0  0  # atno 17370 bound_to 10713
  156.5344  130.8272  151.3248 LP  0  0  0  0  0  0  0  0  0  0  0  0  # atno 17371 bound_to 10713
  139.8717  134.9806  156.5084 LP  0  0  0  0  0  0  0  0  0  0  0  0  # atno 17394 bound_to 11000
  140.8490  133.8147  155.9149 LP  0  0  0  0  0  0  0  0  0  0  0  0  # atno 17395 bound_to 11000

$$$$
