AV-unprocessed.smi:2795|AV-procd|sdf|10779|dock8
  -GOLD-   2272015213D 1   1.00000     0.00000
 Structure written by MMmdl.
 37 38  0  0  0  0  0  0  0  0  2 V2000
  151.6893  145.0705  161.2801 C   0  0  0  0  0  0  0  0  0  0  0  0
  151.4920  144.6468  159.8909 N   0  0  0  0  0  0  0  0  0  0  0  0
  150.4367  145.0576  159.1767 C   0  0  0  0  0  0  0  0  0  0  0  0
  150.5447  144.5013  157.9685 N   0  3  0  0  0  0  0  0  0  0  0  0
  151.6714  143.7290  157.9072 C   0  0  0  0  0  0  0  0  0  0  0  0
  152.2888  143.8172  159.1308 C   0  0  0  0  0  0  0  0  0  0  0  0
  153.5674  143.2016  159.6152 C   0  0  0  0  0  0  0  0  0  0  0  0
  153.4173  141.7096  159.9769 C   0  0  0  0  0  0  0  0  0  0  0  0
  153.0578  140.8877  158.8236 N   0  0  0  0  0  0  0  0  0  0  0  0
  151.8227  140.7502  158.3130 C   0  0  0  0  0  0  0  0  0  0  0  0
  150.8274  141.2676  158.8215 O   0  0  0  0  0  0  0  0  0  0  0  0
  151.7002  139.9195  157.0271 C   0  0  1  0  0  0  0  0  0  0  0  0
  151.0457  140.7125  155.8720 C   0  0  0  0  0  0  0  0  0  0  0  0
  151.0282  139.8824  154.5839 C   0  0  0  0  0  0  0  0  0  0  0  0
  152.4387  139.3705  154.2769 C   0  0  0  0  0  0  0  0  0  0  0  0
  153.0151  138.6391  155.4984 C   0  0  0  0  0  0  0  0  0  0  0  0
  153.0083  139.5058  156.6277 O   0  0  0  0  0  0  0  0  0  0  0  0
  151.1014  145.9665  161.4847 H   0  0  0  0  0  0  0  0  0  0  0  0
  152.7422  145.2929  161.4510 H   0  0  0  0  0  0  0  0  0  0  0  0
  151.3736  144.2663  161.9449 H   0  0  0  0  0  0  0  0  0  0  0  0
  149.6507  145.7118  159.5092 H   0  0  0  0  0  0  0  0  0  0  0  0
  151.9529  143.1918  157.0132 H   0  0  0  0  0  0  0  0  0  0  0  0
  154.3463  143.3284  158.8631 H   0  0  0  0  0  0  0  0  0  0  0  0
  153.9050  143.7546  160.4921 H   0  0  0  0  0  0  0  0  0  0  0  0
  154.3602  141.3365  160.3769 H   0  0  0  0  0  0  0  0  0  0  0  0
  152.6834  141.5900  160.7757 H   0  0  0  0  0  0  0  0  0  0  0  0
  153.8142  140.4183  158.3464 H   0  0  0  0  0  0  0  0  0  0  0  0
  151.1005  139.0377  157.2598 H   0  0  0  0  0  0  0  0  0  0  0  0
  150.0258  140.9988  156.1322 H   0  0  0  0  0  0  0  0  0  0  0  0
  151.5963  141.6386  155.6978 H   0  0  0  0  0  0  0  0  0  0  0  0
  150.3487  139.0374  154.7012 H   0  0  0  0  0  0  0  0  0  0  0  0
  150.6490  140.4773  153.7524 H   0  0  0  0  0  0  0  0  0  0  0  0
  152.4191  138.7063  153.4125 H   0  0  0  0  0  0  0  0  0  0  0  0
  153.0858  140.2086  154.0150 H   0  0  0  0  0  0  0  0  0  0  0  0
  152.4447  137.7351  155.7171 H   0  0  0  0  0  0  0  0  0  0  0  0
  154.0410  138.3284  155.3001 H   0  0  0  0  0  0  0  0  0  0  0  0
  149.8888  144.6362  157.2093 H   0  0  0  0  0  0  0  0  0  0  0  0
  1  2  1  0  0  0  0
  1 18  1  0  0  0  0
  1 19  1  0  0  0  0
  1 20  1  0  0  0  0
  2  6  1  0  0  0  0
  2  3  1  0  0  0  0
  3  4  2  0  0  0  0
  3 21  1  0  0  0  0
  4  5  1  0  0  0  0
  4 37  1  0  0  0  0
  5  6  2  0  0  0  0
  5 22  1  0  0  0  0
  6  7  1  0  0  0  0
  7  8  1  0  0  0  0
  7 23  1  0  0  0  0
  7 24  1  0  0  0  0
  8  9  1  0  0  0  0
  8 25  1  0  0  0  0
  8 26  1  0  0  0  0
  9 10  1  0  0  0  0
  9 27  1  0  0  0  0
 10 11  2  0  0  0  0
 10 12  1  0  0  0  0
 12 17  1  0  0  0  0
 12 13  1  0  0  0  0
 12 28  1  0  0  0  0
 13 14  1  0  0  0  0
 13 29  1  0  0  0  0
 13 30  1  0  0  0  0
 14 15  1  0  0  0  0
 14 31  1  0  0  0  0
 14 32  1  0  0  0  0
 15 16  1  0  0  0  0
 15 33  1  0  0  0  0
 15 34  1  0  0  0  0
 16 17  1  0  0  0  0
 16 35  1  0  0  0  0
 16 36  1  0  0  0  0
M  CHG  1   4   1
M  END
> <s_m_source_file>
AV-unprocessed.smi

> <i_m_source_file_index>
2795

> <i_lp_mmshare_version>
43012

> <i_f3d_flags>
0

> <s_epik_input>
W0NIM11uMVtjSF1uW2NIXWMxW0NIMl1bQ0gyXVtOSF1DKD1PKVtDQEBIXTJbQ0gyXVtDSDJdW0NIMl1bQ0gyXU8y

> <s_epik_cmdline>
J2VwaWtfcHl0aG9uJywgJy1waCcsICc3LjAnLCAnLXRuJywgJzgnLCAnLW1hJywgJzIwMCcsICctbWV0YWxfYmluZGluZycsICctaW1hZScsICc8aW5maWxlLm1hZT4nLCAnLW9tYWUnLCAnPG91dGZpbGUubWFlPic=

> <r_lp_tautomer_probability>
1

> <r_epik_Ionization_Penalty>
0.154825

> <r_epik_Ionization_Penalty_Charging>
0

> <r_epik_Ionization_Penalty_Neutral>
0.154825

> <r_epik_State_Penalty>
0.144119

> <r_epik_Charging_Adjusted_Penalty>
0.144119

> <i_epik_Tot_Q>
1

> <i_epik_Tot_abs_Q>
1

> <r_epik_Metal_State_Penalty>
0.465431

> <b_epik_Metal_Only>
0

> <s_lp_Force_Field>
OPLS_2005

> <r_lp_Energy>
10.0187

> <b_lp_Chiralities_Consistent>
1

> <s_lp_Variant>
AV-unprocessed.smi:2795-2

> <Gold.Version>
5.8.1

> <Gold.Id.Protein>
6NUR|6NUR_protein|mol2

> <Gold.PLP.Fitness>
50.2315

> <Gold.PLP.PLP>
-39.6507

> <Gold.PLP.part.hbond>
-2.0246

> <Gold.PLP.part.metal>
0.0000

> <Gold.PLP.part.buried>
-2.1353

> <Gold.PLP.part.nonpolar>
-34.0591

> <Gold.PLP.part.repulsive>
0.1430

> <Gold.PLP.ligand.clash>
0.0000

> <Gold.PLP.ligand.torsion>
0.3966

> <Gold.PLP.Chemscore.Hbond>
3.0000

> <Gold.PLP.Chemscore.CHOScore>
0.7874

> <Gold.PLP.Chemscore.Metal>
0.0000

> <Gold.Chemscore.Hbonds>
donor molecule, donor type, donor heavy atom, donor atom, acceptor molecule, acceptor atom, score
      L1  H     4    37       P1  8028  1.80
      P1  H  7997  8008       L1    17  0.93
      L1  C     3    21       P1  8029  0.12

> <Gold.PLP.Chemscore.Internal.Correction>
0.0120

> <Gold.Rescore>
     Score         DG    S(hbond)    S(metal)    S(lipo)     H(rot)  DE(clash)    DE(int)     intcor
     14.26     -17.74       1.68        0.00      96.60       1.82       0.48       2.99       ----

> <Gold.Chemscore.Fitness>
14.2648

> <Gold.Chemscore.DG>
-17.7353

> <Gold.Chemscore.ZeroCoef>
-5.4800

> <Gold.Chemscore.Hbond>
1.6826

> <Gold.Chemscore.Metal>
0.0000

> <Gold.Chemscore.Lipo>
96.5954

> <Gold.Chemscore.Internal_Hbond>
0.0000

> <Gold.Chemscore.DEClash>
0.4758

> <Gold.Chemscore.DEInternal>
2.9946

> <Gold.Chemscore.Rot>
1.8227

> <Gold.Chemscore.Internal.Correction>
   9.000000E+99

> <Gold.Chemscore.Hbonds>
donor molecule, donor type, donor heavy atom, donor atom, acceptor molecule, acceptor atom, score
      L1  H     4    37       P1  8028  0.18
      P1  H  7997  8008       L1    17  0.44

> <Gold.Chemscore.Hbond.Weighted>
-5.6198

> <Gold.Chemscore.Metal.Weighted>
-0.0000

> <Gold.Chemscore.Lipo.Weighted>
-11.3017

> <Gold.Chemscore.Internal_Hbond.Weighted>
0.0000

> <Gold.Chemscore.DEClash.Weighted>
0.4758

> <Gold.Chemscore.DEInternal.Weighted>
2.9946

> <Gold.Chemscore.Rot.Weighted>
4.6662

> <Gold.Chemscore.Internal.Correction.Weighted>
   9.000000E+99

> <Gold.Protein.RotatedTorsions>
[ 6907 6896 6895 6894 ] final  150.92 input  -60.11 | X-H torsion
[ 7974 7965 7964 7962 ] final   -4.93 input  175.53 | X-H torsion
[ 8008 7997 7996 7995 ] final  -65.01 input   59.86 | X-H torsion
[ 10167 10162 10161 10158 ] final  167.94 input  -65.29 | X-H torsion
[ 10718 10713 10712 10709 ] final  -57.33 input   66.30 | X-H torsion
[ 10763 10752 10751 10750 ] final  -13.98 input  -60.55 | X-H torsion
[ 11005 11000 10999 10996 ] final   49.47 input  -57.11 | X-H torsion

> <Gold.Protein.ActiveResidues>
 VAL166  LYS551  ARG553  GLY616  TRP617  ASP618  TYR619  PRO620  LYS621  CYS622 
 ASP623  PHE694  ASN695  SER759  ASP760  ASP761  ALA762  ILE779  LEU786  VAL792 
 PHE793  MET794  SER795  GLU796  ALA797  LYS798  CYS799  TRP800  GLU811  SER814 

> <Gold.Protein.RotatedAtoms>
  152.1077  133.4284  159.4616 H   0  0  0  0  0  0  0  0  0  0  0  0  # atno 6907 bound_to 6896
  150.6866  134.2685  159.4587 H   0  0  0  0  0  0  0  0  0  0  0  0  # atno 6908 bound_to 6896
  152.0551  134.9629  160.0625 H   0  0  0  0  0  0  0  0  0  0  0  0  # atno 6909 bound_to 6896
  146.2363  140.1945  142.8333 H   0  0  0  0  0  0  0  0  0  0  0  0  # atno 7974 bound_to 7965
  154.4646  140.0942  156.6985 H   0  0  0  0  0  0  0  0  0  0  0  0  # atno 8008 bound_to 7997
  155.4895  140.3470  155.4334 H   0  0  0  0  0  0  0  0  0  0  0  0  # atno 8009 bound_to 7997
  156.0933  140.1403  156.9553 H   0  0  0  0  0  0  0  0  0  0  0  0  # atno 8010 bound_to 7997
  139.4956  144.3868  151.9562 H   0  0  0  0  0  0  0  0  0  0  0  0  # atno 10167 bound_to 10162
  156.1219  130.4165  150.0426 H   0  0  0  0  0  0  0  0  0  0  0  0  # atno 10718 bound_to 10713
  153.5215  135.7015  153.5729 H   0  0  0  0  0  0  0  0  0  0  0  0  # atno 10763 bound_to 10752
  153.3776  135.3928  155.1833 H   0  0  0  0  0  0  0  0  0  0  0  0  # atno 10764 bound_to 10752
  154.8694  135.3827  154.4704 H   0  0  0  0  0  0  0  0  0  0  0  0  # atno 10765 bound_to 10752
  140.1101  134.4966  155.8685 H   0  0  0  0  0  0  0  0  0  0  0  0  # atno 11005 bound_to 11000
  144.9831  140.8477  143.5385 LP  0  0  0  0  0  0  0  0  0  0  0  0  # atno 17320 bound_to 7965
  145.1941  139.2285  143.5227 LP  0  0  0  0  0  0  0  0  0  0  0  0  # atno 17321 bound_to 7965
  140.3305  144.3322  150.5988 LP  0  0  0  0  0  0  0  0  0  0  0  0  # atno 17342 bound_to 10162
  140.5649  143.2187  151.7701 LP  0  0  0  0  0  0  0  0  0  0  0  0  # atno 17343 bound_to 10162
  156.8362  130.9409  151.3634 LP  0  0  0  0  0  0  0  0  0  0  0  0  # atno 17370 bound_to 10713
  157.6402  130.8799  149.9434 LP  0  0  0  0  0  0  0  0  0  0  0  0  # atno 17371 bound_to 10713
  141.2128  133.6724  156.6688 LP  0  0  0  0  0  0  0  0  0  0  0  0  # atno 17394 bound_to 11000
  140.3103  134.8092  157.4170 LP  0  0  0  0  0  0  0  0  0  0  0  0  # atno 17395 bound_to 11000

$$$$
