AV-unprocessed.smi:876|AV-procd|sdf|4024|dock9
  -GOLD-   22720 1513D 1   1.00000     0.00000
 Structure written by MMmdl.
 40 41  0  0  0  0  0  0  0  0  1 V2000
  153.6905  142.2737  162.4312 C   0  0  0  0  0  0  0  0  0  0  0  0
  153.7493  141.6781  161.1019 N   0  0  0  0  0  0  0  0  0  0  0  0
  154.8799  140.8321  160.7335 C   0  0  0  0  0  0  0  0  0  0  0  0
  152.7384  141.9543  160.1530 C   0  0  0  0  0  0  0  0  0  0  0  0
  152.0151  143.1728  160.1754 C   0  0  0  0  0  0  0  0  0  0  0  0
  151.0180  143.4031  159.2081 C   0  0  0  0  0  0  0  0  0  0  0  0
  150.7677  142.4124  158.2309 C   0  0  0  0  0  0  0  0  0  0  0  0
  149.7801  142.5138  157.2136 N   0  0  0  0  0  0  0  0  0  0  0  0
  149.0012  141.5475  156.6975 C   0  0  0  0  0  0  0  0  0  0  0  0
  148.9960  140.3684  157.0504 O   0  0  0  0  0  0  0  0  0  0  0  0
  148.1985  142.0338  155.7406 N   0  0  0  0  0  0  0  0  0  0  0  0
  147.2257  141.2477  154.9903 C   0  0  1  0  0  0  0  0  0  0  0  0
  146.7827  141.9887  153.7590 C   0  0  0  0  0  0  0  0  0  0  0  0
  147.0070  141.3055  152.6392 C   0  0  0  0  0  0  0  0  0  0  0  0
  147.6688  139.9738  152.8871 C   0  0  2  0  0  0  0  0  0  0  0  0
  146.8593  138.7932  152.3235 C   0  0  0  0  0  0  0  0  0  0  0  0
  146.8404  138.8306  150.9117 O   0  0  0  0  0  0  0  0  0  0  0  0
  147.8187  139.9279  154.4294 C   0  0  0  0  0  0  0  0  0  0  0  0
  151.5272  141.2282  158.2964 C   0  0  0  0  0  0  0  0  0  0  0  0
  152.4835  141.0037  159.2210 N   0  0  0  0  0  0  0  0  0  0  0  0
  146.3473  141.0480  155.6065 H   0  0  0  0  0  0  0  0  0  0  0  0
  148.6577  139.9948  152.4266 H   0  0  0  0  0  0  0  0  0  0  0  0
  152.7995  141.9378  162.9624 H   0  0  0  0  0  0  0  0  0  0  0  0
  153.6691  143.3619  162.3636 H   0  0  0  0  0  0  0  0  0  0  0  0
  154.5584  141.9960  163.0295 H   0  0  0  0  0  0  0  0  0  0  0  0
  155.4417  141.2804  159.9133 H   0  0  0  0  0  0  0  0  0  0  0  0
  154.5354  139.8463  160.4195 H   0  0  0  0  0  0  0  0  0  0  0  0
  155.5637  140.6938  161.5709 H   0  0  0  0  0  0  0  0  0  0  0  0
  152.2002  143.9341  160.9177 H   0  0  0  0  0  0  0  0  0  0  0  0
  150.4613  144.3260  159.2476 H   0  0  0  0  0  0  0  0  0  0  0  0
  149.6123  143.4477  156.8688 H   0  0  0  0  0  0  0  0  0  0  0  0
  148.2636  143.0155  155.5145 H   0  0  0  0  0  0  0  0  0  0  0  0
  146.3219  142.9644  153.8088 H   0  0  0  0  0  0  0  0  0  0  0  0
  146.7644  141.6493  151.6441 H   0  0  0  0  0  0  0  0  0  0  0  0
  147.3019  137.8472  152.6371 H   0  0  0  0  0  0  0  0  0  0  0  0
  145.8349  138.8106  152.6973 H   0  0  0  0  0  0  0  0  0  0  0  0
  145.9428  138.9058  150.6254 H   0  0  0  0  0  0  0  0  0  0  0  0
  148.8691  139.8091  154.6989 H   0  0  0  0  0  0  0  0  0  0  0  0
  147.2916  139.0732  154.8554 H   0  0  0  0  0  0  0  0  0  0  0  0
  151.3673  140.4337  157.5820 H   0  0  0  0  0  0  0  0  0  0  0  0
  1  2  1  0  0  0  0
  1 23  1  0  0  0  0
  1 24  1  0  0  0  0
  1 25  1  0  0  0  0
  2  3  1  0  0  0  0
  2  4  1  0  0  0  0
  3 26  1  0  0  0  0
  3 27  1  0  0  0  0
  3 28  1  0  0  0  0
  4 20  1  0  0  0  0
  4  5  2  0  0  0  0
  5  6  1  0  0  0  0
  5 29  1  0  0  0  0
  6  7  2  0  0  0  0
  6 30  1  0  0  0  0
  7  8  1  0  0  0  0
  7 19  1  0  0  0  0
  8  9  1  0  0  0  0
  8 31  1  0  0  0  0
  9 10  2  0  0  0  0
  9 11  1  0  0  0  0
 11 12  1  0  0  0  0
 11 32  1  0  0  0  0
 12 21  1  0  0  0  0
 12 18  1  0  0  0  0
 12 13  1  0  0  0  0
 13 14  2  0  0  0  0
 13 33  1  0  0  0  0
 14 15  1  0  0  0  0
 14 34  1  0  0  0  0
 15 22  1  0  0  0  0
 15 16  1  0  0  0  0
 15 18  1  0  0  0  0
 16 17  1  0  0  0  0
 16 35  1  0  0  0  0
 16 36  1  0  0  0  0
 17 37  1  0  0  0  0
 18 38  1  0  0  0  0
 18 39  1  0  0  0  0
 19 20  2  0  0  0  0
 19 40  1  0  0  0  0
M  END
> <s_m_source_file>
AV-unprocessed.smi

> <i_m_source_file_index>
876

> <i_lp_mmshare_version>
43012

> <i_f3d_flags>
0

> <s_epik_input>
W0NIM11OKFtDSDNdKWMxW2NIXVtjSF1jKFtjSF1uMSlbTkhdQyg9TylbTkhdW0NAQEhdMltDSF09W0NIXVtDQEBIXShbQ0gyXTIpW0NIMl1bT0hd

> <s_epik_cmdline>
J2VwaWtfcHl0aG9uJywgJy1waCcsICc3LjAnLCAnLXRuJywgJzgnLCAnLW1hJywgJzIwMCcsICctbWV0YWxfYmluZGluZycsICctaW1hZScsICc8aW5maWxlLm1hZT4nLCAnLW9tYWUnLCAnPG91dGZpbGUubWFlPic=

> <r_lp_tautomer_probability>
1

> <r_epik_Ionization_Penalty>
0.617998

> <r_epik_Ionization_Penalty_Charging>
0

> <r_epik_Ionization_Penalty_Neutral>
0.617998

> <r_epik_State_Penalty>
0.632637

> <r_epik_Charging_Adjusted_Penalty>
0.632637

> <i_epik_Tot_Q>
0

> <i_epik_Tot_abs_Q>
0

> <r_epik_Metal_State_Penalty>
0.305596

> <b_epik_Metal_Only>
0

> <s_lp_Force_Field>
OPLS_2005

> <r_lp_Energy>
20.6708

> <b_lp_Chiralities_Consistent>
1

> <s_lp_Variant>
AV-unprocessed.smi:876-6

> <Gold.Version>
5.8.1

> <Gold.Id.Protein>
6NUR|6NUR_protein|mol2

> <Gold.PLP.Fitness>
49.1055

> <Gold.PLP.PLP>
-39.7829

> <Gold.PLP.part.hbond>
-4.6020

> <Gold.PLP.part.metal>
0.0000

> <Gold.PLP.part.buried>
-2.9894

> <Gold.PLP.part.nonpolar>
-31.7643

> <Gold.PLP.part.repulsive>
0.1021

> <Gold.PLP.ligand.clash>
0.0000

> <Gold.PLP.ligand.torsion>
0.7982

> <Gold.PLP.Chemscore.Hbond>
3.6349

> <Gold.PLP.Chemscore.CHOScore>
0.0000

> <Gold.PLP.Chemscore.Metal>
0.0000

> <Gold.Chemscore.Hbonds>
donor molecule, donor type, donor heavy atom, donor atom, acceptor molecule, acceptor atom, score
      L1  H     8    31       P1  8028  1.00
      L1  H    11    32       P1  8028  1.00
      L1  H    17    37       P1 10171  0.52
      P1  H  7954  7966       L1    17  0.85

> <Gold.PLP.Chemscore.Internal.Correction>
0.0144

> <Gold.Rescore>
     Score         DG    S(hbond)    S(metal)    S(lipo)     H(rot)  DE(clash)    DE(int)     intcor
     19.01     -24.09       3.65        0.00      94.29       1.80       1.72       3.36       ----

> <Gold.Chemscore.Fitness>
19.0128

> <Gold.Chemscore.DG>
-24.0884

> <Gold.Chemscore.ZeroCoef>
-5.4800

> <Gold.Chemscore.Hbond>
3.6465

> <Gold.Chemscore.Metal>
0.0000

> <Gold.Chemscore.Lipo>
94.2908

> <Gold.Chemscore.Internal_Hbond>
0.0000

> <Gold.Chemscore.DEClash>
1.7161

> <Gold.Chemscore.DEInternal>
3.3596

> <Gold.Chemscore.Rot>
1.7980

> <Gold.Chemscore.Internal.Correction>
   9.000000E+99

> <Gold.Chemscore.Hbonds>
donor molecule, donor type, donor heavy atom, donor atom, acceptor molecule, acceptor atom, score
      L1  H     8    31       P1  8028  0.97
      L1  H    11    32       P1  8028  0.96
      L1  H    17    37       P1 10171  0.52
      P1  H  7954  7966       L1    17  0.82

> <Gold.Chemscore.Hbond.Weighted>
-12.1793

> <Gold.Chemscore.Metal.Weighted>
-0.0000

> <Gold.Chemscore.Lipo.Weighted>
-11.0320

> <Gold.Chemscore.Internal_Hbond.Weighted>
0.0000

> <Gold.Chemscore.DEClash.Weighted>
1.7161

> <Gold.Chemscore.DEInternal.Weighted>
3.3596

> <Gold.Chemscore.Rot.Weighted>
4.6029

> <Gold.Chemscore.Internal.Correction.Weighted>
   9.000000E+99

> <Gold.Protein.RotatedTorsions>
[ 6907 6896 6895 6894 ] final   14.23 input  -60.11 | X-H torsion
[ 7974 7965 7964 7962 ] final   30.43 input  175.53 | X-H torsion
[ 8008 7997 7996 7995 ] final  -13.78 input   59.86 | X-H torsion
[ 10167 10162 10161 10158 ] final -104.54 input  -65.29 | X-H torsion
[ 10718 10713 10712 10709 ] final  -79.36 input   66.30 | X-H torsion
[ 10763 10752 10751 10750 ] final -168.77 input  -60.55 | X-H torsion
[ 11005 11000 10999 10996 ] final   55.02 input  -57.11 | X-H torsion

> <Gold.Protein.ActiveResidues>
 VAL166  LYS551  ARG553  GLY616  TRP617  ASP618  TYR619  PRO620  LYS621  CYS622 
 ASP623  PHE694  ASN695  SER759  ASP760  ASP761  ALA762  ILE779  LEU786  VAL792 
 PHE793  MET794  SER795  GLU796  ALA797  LYS798  CYS799  TRP800  GLU811  SER814 

> <Gold.Protein.RotatedAtoms>
  151.7989  135.0714  160.0397 H   0  0  0  0  0  0  0  0  0  0  0  0  # atno 6907 bound_to 6896
  152.3103  133.5741  159.5685 H   0  0  0  0  0  0  0  0  0  0  0  0  # atno 6908 bound_to 6896
  150.7316  134.0078  159.3701 H   0  0  0  0  0  0  0  0  0  0  0  0  # atno 6909 bound_to 6896
  146.1612  139.6789  142.9032 H   0  0  0  0  0  0  0  0  0  0  0  0  # atno 7974 bound_to 7965
  154.5264  140.2240  155.8882 H   0  0  0  0  0  0  0  0  0  0  0  0  # atno 8008 bound_to 7997
  156.1718  140.3120  155.8951 H   0  0  0  0  0  0  0  0  0  0  0  0  # atno 8009 bound_to 7997
  155.3543  140.0457  157.3037 H   0  0  0  0  0  0  0  0  0  0  0  0  # atno 8010 bound_to 7997
  140.2082  143.3766  152.1073 H   0  0  0  0  0  0  0  0  0  0  0  0  # atno 10167 bound_to 10162
  156.0094  130.4543  150.3637 H   0  0  0  0  0  0  0  0  0  0  0  0  # atno 10718 bound_to 10713
  154.6594  135.2922  154.9886 H   0  0  0  0  0  0  0  0  0  0  0  0  # atno 10763 bound_to 10752
  154.0951  135.6585  153.4863 H   0  0  0  0  0  0  0  0  0  0  0  0  # atno 10764 bound_to 10752
  153.0421  135.5229  154.7538 H   0  0  0  0  0  0  0  0  0  0  0  0  # atno 10765 bound_to 10752
  140.0640  134.5563  155.9120 H   0  0  0  0  0  0  0  0  0  0  0  0  # atno 11005 bound_to 11000
  145.4583  141.0431  143.2766 LP  0  0  0  0  0  0  0  0  0  0  0  0  # atno 17320 bound_to 7965
  144.8030  139.6105  143.7063 LP  0  0  0  0  0  0  0  0  0  0  0  0  # atno 17321 bound_to 7965
  139.5190  144.7014  151.5483 LP  0  0  0  0  0  0  0  0  0  0  0  0  # atno 17342 bound_to 10162
  140.6342  143.9016  150.6632 LP  0  0  0  0  0  0  0  0  0  0  0  0  # atno 17343 bound_to 10162
  157.1724  131.0372  151.2789 LP  0  0  0  0  0  0  0  0  0  0  0  0  # atno 17370 bound_to 10713
  157.4217  130.7441  149.6918 LP  0  0  0  0  0  0  0  0  0  0  0  0  # atno 17371 bound_to 10713
  141.1985  133.6602  156.5795 LP  0  0  0  0  0  0  0  0  0  0  0  0  # atno 17394 bound_to 11000
  140.3727  134.7592  157.4609 LP  0  0  0  0  0  0  0  0  0  0  0  0  # atno 17395 bound_to 11000

$$$$
