AV-unprocessed.smi:658|AV-procd|sdf|3234|dock7
  -GOLD-   22720 0183D 1   1.00000     0.00000
 Structure written by MMmdl.
 37 37  0  0  0  0  0  0  0  0  3 V2000
  146.3879  137.6300  151.4033 C   0  0  0  0  0  0  0  0  0  0  0  0
  145.6146  136.7802  152.4250 C   0  0  2  0  0  0  0  0  0  0  0  0
  146.5672  135.9609  153.2093 N   0  3  0  0  0  0  0  0  0  0  0  0
  146.7301  136.3686  154.6179 C   0  0  0  0  0  0  0  0  0  0  0  0
  147.6381  135.3864  155.3648 C   0  0  0  0  0  0  0  0  0  0  0  0
  149.1127  135.8052  155.3271 C   0  0  0  0  0  0  0  0  0  0  0  0
  150.1467  134.6477  156.3171 S   0  0  0  0  0  0  0  0  0  0  0  0
  151.6061  135.3083  156.1314 N   0  5  0  0  0  0  0  0  0  0  0  0
  149.6497  134.7498  157.6977 O   0  0  0  0  0  0  0  0  0  0  0  0
  150.0340  133.3398  155.6542 O   0  0  0  0  0  0  0  0  0  0  0  0
  144.5181  135.9017  151.7677 C   0  0  2  0  0  0  0  0  0  0  0  0
  143.3470  135.5938  152.7199 C   0  0  0  0  0  0  0  0  0  0  0  0
  145.0464  134.6890  151.1490 N   0  0  0  0  0  0  0  0  0  0  0  0
  144.3694  133.7567  150.3888 C   0  0  0  0  0  0  0  0  0  0  0  0
  145.2702  132.8026  150.0110 C   0  0  0  0  0  0  0  0  0  0  0  0
  146.4920  133.2427  150.5905 C   0  0  0  0  0  0  0  0  0  0  0  0
  146.3567  134.3725  151.2652 N   0  0  0  0  0  0  0  0  0  0  0  0
  145.7097  138.2484  150.8149 H   0  0  0  0  0  0  0  0  0  0  0  0
  146.9598  137.0116  150.7106 H   0  0  0  0  0  0  0  0  0  0  0  0
  147.0897  138.2982  151.9035 H   0  0  0  0  0  0  0  0  0  0  0  0
  145.1097  137.4735  153.1001 H   0  0  0  0  0  0  0  0  0  0  0  0
  146.2419  135.0042  153.1932 H   0  0  0  0  0  0  0  0  0  0  0  0
  147.1522  137.3738  154.6550 H   0  0  0  0  0  0  0  0  0  0  0  0
  145.7505  136.4071  155.0963 H   0  0  0  0  0  0  0  0  0  0  0  0
  147.3119  135.3058  156.4026 H   0  0  0  0  0  0  0  0  0  0  0  0
  147.5333  134.3921  154.9293 H   0  0  0  0  0  0  0  0  0  0  0  0
  149.4925  135.8059  154.3051 H   0  0  0  0  0  0  0  0  0  0  0  0
  149.2440  136.8081  155.7338 H   0  0  0  0  0  0  0  0  0  0  0  0
  151.8409  135.8117  156.9950 H   0  0  0  0  0  0  0  0  0  0  0  0
  144.0930  136.4931  150.9551 H   0  0  0  0  0  0  0  0  0  0  0  0
  142.9024  136.5127  153.1028 H   0  0  0  0  0  0  0  0  0  0  0  0
  143.6620  134.9988  153.5777 H   0  0  0  0  0  0  0  0  0  0  0  0
  142.5614  135.0395  152.2054 H   0  0  0  0  0  0  0  0  0  0  0  0
  143.3130  133.8471  150.1823 H   0  0  0  0  0  0  0  0  0  0  0  0
  145.0844  131.9234  149.4118 H   0  0  0  0  0  0  0  0  0  0  0  0
  147.4665  132.7798  150.5396 H   0  0  0  0  0  0  0  0  0  0  0  0
  147.4694  135.9949  152.7568 H   0  0  0  0  0  0  0  0  0  0  0  0
  1  2  1  0  0  0  0
  1 18  1  0  0  0  0
  1 19  1  0  0  0  0
  1 20  1  0  0  0  0
  2  3  1  0  0  0  0
  2 11  1  0  0  0  0
  2 21  1  0  0  0  0
  3  4  1  0  0  0  0
  3 22  1  0  0  0  0
  3 37  1  0  0  0  0
  4  5  1  0  0  0  0
  4 23  1  0  0  0  0
  4 24  1  0  0  0  0
  5  6  1  0  0  0  0
  5 25  1  0  0  0  0
  5 26  1  0  0  0  0
  6  7  1  0  0  0  0
  6 27  1  0  0  0  0
  6 28  1  0  0  0  0
  7  8  1  0  0  0  0
  7  9  2  0  0  0  0
  7 10  2  0  0  0  0
  8 29  1  0  0  0  0
 11 12  1  0  0  0  0
 11 13  1  0  0  0  0
 11 30  1  0  0  0  0
 12 31  1  0  0  0  0
 12 32  1  0  0  0  0
 12 33  1  0  0  0  0
 13 17  1  0  0  0  0
 13 14  1  0  0  0  0
 14 15  2  0  0  0  0
 14 34  1  0  0  0  0
 15 16  1  0  0  0  0
 15 35  1  0  0  0  0
 16 17  2  0  0  0  0
 16 36  1  0  0  0  0
M  CHG  1   3   1
M  CHG  1   8  -1
M  END
> <s_m_source_file>
AV-unprocessed.smi

> <i_m_source_file_index>
658

> <i_lp_mmshare_version>
43012

> <i_f3d_flags>
0

> <s_epik_input>
bjFbY0hdW2NIXVtjSF1uMVtDQEBIXShbQ0gzXSlbQ0BIXShbQ0gzXSlbTkhdW0NIMl1bQ0gyXVtDSDJdUyg9TykoPU8pW05IMl0=

> <s_epik_cmdline>
J2VwaWtfcHl0aG9uJywgJy1waCcsICc3LjAnLCAnLXRuJywgJzgnLCAnLW1hJywgJzIwMCcsICctbWV0YWxfYmluZGluZycsICctaW1hZScsICc8aW5maWxlLm1hZT4nLCAnLW9tYWUnLCAnPG91dGZpbGUubWFlPic=

> <r_lp_tautomer_probability>
1

> <r_epik_Ionization_Penalty>
4.63642

> <r_epik_Ionization_Penalty_Charging>
4.63641

> <r_epik_Ionization_Penalty_Neutral>
1.08396e-05

> <r_epik_State_Penalty>
4.63466

> <r_epik_Charging_Adjusted_Penalty>
9.27106

> <i_epik_Tot_Q>
0

> <i_epik_Tot_abs_Q>
2

> <r_epik_Metal_State_Penalty>
0.890424

> <b_epik_Metal_Only>
1

> <s_lp_Force_Field>
OPLS_2005

> <r_lp_Energy>
0.307927

> <b_lp_Chiralities_Consistent>
1

> <s_lp_Variant>
AV-unprocessed.smi:658-5

> <Gold.Version>
5.8.1

> <Gold.Id.Protein>
6NUR|6NUR_protein|mol2

> <Gold.PLP.Fitness>
41.9586

> <Gold.PLP.PLP>
-23.5657

> <Gold.PLP.part.hbond>
-3.0000

> <Gold.PLP.part.metal>
0.0000

> <Gold.PLP.part.buried>
-2.0609

> <Gold.PLP.part.nonpolar>
-19.6678

> <Gold.PLP.part.repulsive>
0.1932

> <Gold.PLP.ligand.clash>
0.0000

> <Gold.PLP.ligand.torsion>
1.4110

> <Gold.PLP.Chemscore.Hbond>
5.0000

> <Gold.PLP.Chemscore.CHOScore>
2.0000

> <Gold.PLP.Chemscore.Metal>
0.0000

> <Gold.Chemscore.Hbonds>
donor molecule, donor type, donor heavy atom, donor atom, acceptor molecule, acceptor atom, score
      L1  H     3    37       P1  7948  2.00
      P1  H  6896  6907       L1     9  1.00
      P1  H 10752 10764       L1     8  2.00
      L1  C    14    34       P1 10186  1.00
      L1  C    16    36       P1 10747  1.00

> <Gold.PLP.Chemscore.Internal.Correction>
0.2148

> <Gold.Rescore>
     Score         DG    S(hbond)    S(metal)    S(lipo)     H(rot)  DE(clash)    DE(int)     intcor
      9.99     -13.60       2.91        0.00      52.73       3.04       0.51       3.10       ----

> <Gold.Chemscore.Fitness>
9.9868

> <Gold.Chemscore.DG>
-13.5961

> <Gold.Chemscore.ZeroCoef>
-5.4800

> <Gold.Chemscore.Hbond>
2.9136

> <Gold.Chemscore.Metal>
0.0000

> <Gold.Chemscore.Lipo>
52.7320

> <Gold.Chemscore.Internal_Hbond>
0.0000

> <Gold.Chemscore.DEClash>
0.5088

> <Gold.Chemscore.DEInternal>
3.1005

> <Gold.Chemscore.Rot>
3.0409

> <Gold.Chemscore.Internal.Correction>
   9.000000E+99

> <Gold.Chemscore.Hbonds>
donor molecule, donor type, donor heavy atom, donor atom, acceptor molecule, acceptor atom, score
      L1  H     3    37       P1  7948  1.00
      P1  H  6896  6907       L1     9  0.90
      P1  H 10752 10764       L1     8  0.64

> <Gold.Chemscore.Hbond.Weighted>
-9.7313

> <Gold.Chemscore.Metal.Weighted>
-0.0000

> <Gold.Chemscore.Lipo.Weighted>
-6.1696

> <Gold.Chemscore.Internal_Hbond.Weighted>
0.0000

> <Gold.Chemscore.DEClash.Weighted>
0.5088

> <Gold.Chemscore.DEInternal.Weighted>
3.1005

> <Gold.Chemscore.Rot.Weighted>
7.7848

> <Gold.Chemscore.Internal.Correction.Weighted>
   9.000000E+99

> <Gold.Protein.RotatedTorsions>
[ 6907 6896 6895 6894 ] final  -90.34 input  -60.11 | X-H torsion
[ 7974 7965 7964 7962 ] final  178.97 input  175.53 | X-H torsion
[ 8008 7997 7996 7995 ] final  -86.29 input   59.86 | X-H torsion
[ 10167 10162 10161 10158 ] final  -95.75 input  -65.29 | X-H torsion
[ 10718 10713 10712 10709 ] final -144.69 input   66.30 | X-H torsion
[ 10763 10752 10751 10750 ] final  -38.74 input  -60.55 | X-H torsion
[ 11005 11000 10999 10996 ] final   27.27 input  -57.11 | X-H torsion

> <Gold.Protein.ActiveResidues>
 VAL166  LYS551  ARG553  GLY616  TRP617  ASP618  TYR619  PRO620  LYS621  CYS622 
 ASP623  PHE694  ASN695  SER759  ASP760  ASP761  ALA762  ILE779  LEU786  VAL792 
 PHE793  MET794  SER795  GLU796  ALA797  LYS798  CYS799  TRP800  GLU811  SER814 

> <Gold.Protein.RotatedAtoms>
  150.6881  134.2447  159.4486 H   0  0  0  0  0  0  0  0  0  0  0  0  # atno 6907 bound_to 6896
  152.0389  134.9721  160.0583 H   0  0  0  0  0  0  0  0  0  0  0  0  # atno 6908 bound_to 6896
  152.1231  133.4330  159.4722 H   0  0  0  0  0  0  0  0  0  0  0  0  # atno 6909 bound_to 6896
  144.7150  140.0478  143.6436 H   0  0  0  0  0  0  0  0  0  0  0  0  # atno 7974 bound_to 7965
  154.6503  140.0580  156.9947 H   0  0  0  0  0  0  0  0  0  0  0  0  # atno 8008 bound_to 7997
  155.1382  140.3263  155.4440 H   0  0  0  0  0  0  0  0  0  0  0  0  # atno 8009 bound_to 7997
  156.2573  140.1969  156.6498 H   0  0  0  0  0  0  0  0  0  0  0  0  # atno 8010 bound_to 7997
  140.3009  143.3163  152.0249 H   0  0  0  0  0  0  0  0  0  0  0  0  # atno 10167 bound_to 10162
  156.3732  130.7798  151.1982 H   0  0  0  0  0  0  0  0  0  0  0  0  # atno 10718 bound_to 10713
  153.9179  135.6785  153.4748 H   0  0  0  0  0  0  0  0  0  0  0  0  # atno 10763 bound_to 10752
  153.1044  135.4812  154.8922 H   0  0  0  0  0  0  0  0  0  0  0  0  # atno 10764 bound_to 10752
  154.7493  135.3180  154.8542 H   0  0  0  0  0  0  0  0  0  0  0  0  # atno 10765 bound_to 10752
  140.3281  134.2468  155.7706 H   0  0  0  0  0  0  0  0  0  0  0  0  # atno 11005 bound_to 11000
  145.9969  139.3060  143.0951 LP  0  0  0  0  0  0  0  0  0  0  0  0  # atno 17320 bound_to 7965
  145.8838  140.9346  143.0587 LP  0  0  0  0  0  0  0  0  0  0  0  0  # atno 17321 bound_to 7965
  139.4915  144.6456  151.6785 LP  0  0  0  0  0  0  0  0  0  0  0  0  # atno 17342 bound_to 10162
  140.5652  144.0202  150.6189 LP  0  0  0  0  0  0  0  0  0  0  0  0  # atno 17343 bound_to 10162
  157.7486  131.0366  150.4417 LP  0  0  0  0  0  0  0  0  0  0  0  0  # atno 17370 bound_to 10713
  156.4648  130.4040  149.6554 LP  0  0  0  0  0  0  0  0  0  0  0  0  # atno 17371 bound_to 10713
  141.2070  133.7817  157.0143 LP  0  0  0  0  0  0  0  0  0  0  0  0  # atno 17394 bound_to 11000
  140.0884  134.9607  157.1737 LP  0  0  0  0  0  0  0  0  0  0  0  0  # atno 17395 bound_to 11000

$$$$
