AV-unprocessed.smi:1406|AV-procd|sdf|5711|dock8
  -GOLD-   22720 5343D 1   1.00000     0.00000
 Structure written by MMmdl.
 41 43  0  0  0  0  0  0  0  0  2 V2000
  148.6306  132.7004  157.4238 C   0  0  0  0  0  0  0  0  0  0  0  0
  148.6674  133.5198  156.1176 C   0  0  2  0  0  0  0  0  0  0  0  0
  148.7111  132.6384  154.8600 C   0  0  0  0  0  0  0  0  0  0  0  0
  149.7612  132.1113  154.4916 O   0  0  0  0  0  0  0  0  0  0  0  0
  147.5570  132.5132  154.1865 N   0  0  0  0  0  0  0  0  0  0  0  0
  147.4125  131.8368  152.9012 C   0  0  1  0  0  0  0  0  0  0  0  0
  146.4594  130.6348  152.9525 C   0  0  0  0  0  0  0  0  0  0  0  0
  145.7937  130.5894  151.5651 C   0  0  0  0  0  0  0  0  0  0  0  0
  146.3477  131.7317  150.8045 N   0  3  1  0  0  0  0  0  0  0  0  0
  145.5080  132.2619  149.6999 C   0  0  0  0  0  0  0  0  0  0  0  0
  144.3674  133.1639  150.2007 C   0  0  0  0  0  0  0  0  0  0  0  0
  144.9140  134.2791  151.0980 C   0  0  0  0  0  0  0  0  0  0  0  0
  145.6800  133.6640  152.2735 C   0  0  0  0  0  0  0  0  0  0  0  0
  146.8193  132.7260  151.7937 C   0  0  1  0  0  0  0  0  0  0  0  0
  149.7749  134.4682  156.0914 N   0  0  0  0  0  0  0  0  0  0  0  0
  150.1621  135.3080  155.1286 C   0  0  0  0  0  0  0  0  0  0  0  0
  151.2644  135.9856  155.4153 N   0  0  0  0  0  0  0  0  0  0  0  0
  151.5280  135.4784  156.6557 C   0  0  0  0  0  0  0  0  0  0  0  0
  150.6765  134.5549  157.1012 N   0  0  0  0  0  0  0  0  0  0  0  0
  147.7612  132.0428  157.4500 H   0  0  0  0  0  0  0  0  0  0  0  0
  148.5688  133.3573  158.2919 H   0  0  0  0  0  0  0  0  0  0  0  0
  149.5187  132.0785  157.5449 H   0  0  0  0  0  0  0  0  0  0  0  0
  147.7454  134.1020  156.0748 H   0  0  0  0  0  0  0  0  0  0  0  0
  146.7367  132.9679  154.5608 H   0  0  0  0  0  0  0  0  0  0  0  0
  148.3901  131.4759  152.5741 H   0  0  0  0  0  0  0  0  0  0  0  0
  146.9912  129.7113  153.1834 H   0  0  0  0  0  0  0  0  0  0  0  0
  145.6960  130.7736  153.7195 H   0  0  0  0  0  0  0  0  0  0  0  0
  146.0013  129.6555  151.0421 H   0  0  0  0  0  0  0  0  0  0  0  0
  144.7119  130.6783  151.6700 H   0  0  0  0  0  0  0  0  0  0  0  0
  146.1544  132.8395  149.0381 H   0  0  0  0  0  0  0  0  0  0  0  0
  145.1154  131.4366  149.1048 H   0  0  0  0  0  0  0  0  0  0  0  0
  143.8386  133.5970  149.3510 H   0  0  0  0  0  0  0  0  0  0  0  0
  143.6330  132.5739  150.7500 H   0  0  0  0  0  0  0  0  0  0  0  0
  145.5727  134.9327  150.5246 H   0  0  0  0  0  0  0  0  0  0  0  0
  144.0972  134.9004  151.4664 H   0  0  0  0  0  0  0  0  0  0  0  0
  146.0860  134.4628  152.8951 H   0  0  0  0  0  0  0  0  0  0  0  0
  144.9787  133.1149  152.9030 H   0  0  0  0  0  0  0  0  0  0  0  0
  147.6012  133.3329  151.3348 H   0  0  0  0  0  0  0  0  0  0  0  0
  149.6329  135.4174  154.1935 H   0  0  0  0  0  0  0  0  0  0  0  0
  152.3787  135.7906  157.2436 H   0  0  0  0  0  0  0  0  0  0  0  0
  147.1851  131.3688  150.3711 H   0  0  0  0  0  0  0  0  0  0  0  0
  1  2  1  0  0  0  0
  1 20  1  0  0  0  0
  1 21  1  0  0  0  0
  1 22  1  0  0  0  0
  2  3  1  0  0  0  0
  2 15  1  0  0  0  0
  2 23  1  0  0  0  0
  3  4  2  0  0  0  0
  3  5  1  0  0  0  0
  5  6  1  0  0  0  0
  5 24  1  0  0  0  0
  6 14  1  0  0  0  0
  6  7  1  0  0  0  0
  6 25  1  0  0  0  0
  7  8  1  0  0  0  0
  7 26  1  0  0  0  0
  7 27  1  0  0  0  0
  8  9  1  0  0  0  0
  8 28  1  0  0  0  0
  8 29  1  0  0  0  0
  9 14  1  0  0  0  0
  9 10  1  0  0  0  0
  9 41  1  0  0  0  0
 10 11  1  0  0  0  0
 10 30  1  0  0  0  0
 10 31  1  0  0  0  0
 11 12  1  0  0  0  0
 11 32  1  0  0  0  0
 11 33  1  0  0  0  0
 12 13  1  0  0  0  0
 12 34  1  0  0  0  0
 12 35  1  0  0  0  0
 13 14  1  0  0  0  0
 13 36  1  0  0  0  0
 13 37  1  0  0  0  0
 14 38  1  0  0  0  0
 15 19  1  0  0  0  0
 15 16  1  0  0  0  0
 16 17  2  0  0  0  0
 16 39  1  0  0  0  0
 17 18  1  0  0  0  0
 18 19  2  0  0  0  0
 18 40  1  0  0  0  0
M  CHG  1   9   1
M  END
> <s_m_source_file>
AV-unprocessed.smi

> <i_m_source_file_index>
1406

> <i_lp_mmshare_version>
43012

> <i_f3d_flags>
0

> <s_epik_input>
bjFbY0hdbltjSF1uMVtDQEhdKFtDSDNdKUMoPU8pW05IXVtDQEhdKFtDSDJdW0NIMl0yKVtDQEBIXShOMjMpW0NIMl1bQ0gyXVtDSDJdW0NIMl0z

> <s_epik_cmdline>
J2VwaWtfcHl0aG9uJywgJy1waCcsICc3LjAnLCAnLXRuJywgJzgnLCAnLW1hJywgJzIwMCcsICctbWV0YWxfYmluZGluZycsICctaW1hZScsICc8aW5maWxlLm1hZT4nLCAnLW9tYWUnLCAnPG91dGZpbGUubWFlPic=

> <r_lp_tautomer_probability>
1

> <r_epik_Ionization_Penalty>
0.00197066

> <r_epik_Ionization_Penalty_Charging>
0.00196223

> <r_epik_Ionization_Penalty_Neutral>
8.43107e-06

> <r_epik_State_Penalty>
0.00133866

> <r_epik_Charging_Adjusted_Penalty>
0.00330089

> <i_epik_Tot_Q>
1

> <i_epik_Tot_abs_Q>
1

> <r_epik_Metal_State_Penalty>
-0

> <b_epik_Metal_Only>
0

> <s_lp_Force_Field>
OPLS_2005

> <r_lp_Energy>
41.142

> <b_lp_Chiralities_Consistent>
1

> <s_lp_Variant>
AV-unprocessed.smi:1406-3

> <Gold.Version>
5.8.1

> <Gold.Id.Protein>
6NUR|6NUR_protein|mol2

> <Gold.PLP.Fitness>
37.6995

> <Gold.PLP.PLP>
-28.8024

> <Gold.PLP.part.hbond>
-3.0000

> <Gold.PLP.part.metal>
0.0000

> <Gold.PLP.part.buried>
-4.4511

> <Gold.PLP.part.nonpolar>
-22.1032

> <Gold.PLP.part.repulsive>
0.1812

> <Gold.PLP.ligand.clash>
0.0000

> <Gold.PLP.ligand.torsion>
0.4289

> <Gold.PLP.Chemscore.Hbond>
2.2163

> <Gold.PLP.Chemscore.CHOScore>
1.0000

> <Gold.PLP.Chemscore.Metal>
0.0000

> <Gold.Chemscore.Hbonds>
donor molecule, donor type, donor heavy atom, donor atom, acceptor molecule, acceptor atom, score
      L1  H     9    41       P1 10747  1.00
      P1  H  6896  6907       L1    19  0.22
      P1  H 10752 10764       L1    17  1.00
      L1  C    16    39       P1  7948  1.00

> <Gold.PLP.Chemscore.Internal.Correction>
0.1061

> <Gold.Rescore>
     Score         DG    S(hbond)    S(metal)    S(lipo)     H(rot)  DE(clash)    DE(int)     intcor
     14.91     -15.53       2.33        0.00      60.62       1.89       0.02       0.60       ----

> <Gold.Chemscore.Fitness>
14.9149

> <Gold.Chemscore.DG>
-15.5305

> <Gold.Chemscore.ZeroCoef>
-5.4800

> <Gold.Chemscore.Hbond>
2.3315

> <Gold.Chemscore.Metal>
0.0000

> <Gold.Chemscore.Lipo>
60.6223

> <Gold.Chemscore.Internal_Hbond>
0.0000

> <Gold.Chemscore.DEClash>
0.0202

> <Gold.Chemscore.DEInternal>
0.5954

> <Gold.Chemscore.Rot>
1.8865

> <Gold.Chemscore.Internal.Correction>
   9.000000E+99

> <Gold.Chemscore.Hbonds>
donor molecule, donor type, donor heavy atom, donor atom, acceptor molecule, acceptor atom, score
      L1  H     9    41       P1 10747  0.99
      P1  H  6896  6907       L1    19  0.21
      P1  H 10752 10764       L1    17  0.32

> <Gold.Chemscore.Hbond.Weighted>
-7.7872

> <Gold.Chemscore.Metal.Weighted>
-0.0000

> <Gold.Chemscore.Lipo.Weighted>
-7.0928

> <Gold.Chemscore.Internal_Hbond.Weighted>
0.0000

> <Gold.Chemscore.DEClash.Weighted>
0.0202

> <Gold.Chemscore.DEInternal.Weighted>
0.5954

> <Gold.Chemscore.Rot.Weighted>
4.8295

> <Gold.Chemscore.Internal.Correction.Weighted>
   9.000000E+99

> <Gold.Protein.RotatedTorsions>
[ 6907 6896 6895 6894 ] final -111.48 input  -60.11 | X-H torsion
[ 7974 7965 7964 7962 ] final  175.90 input  175.53 | X-H torsion
[ 8008 7997 7996 7995 ] final  -70.51 input   59.86 | X-H torsion
[ 10167 10162 10161 10158 ] final  134.02 input  -65.29 | X-H torsion
[ 10718 10713 10712 10709 ] final -102.32 input   66.30 | X-H torsion
[ 10763 10752 10751 10750 ] final  -69.36 input  -60.55 | X-H torsion
[ 11005 11000 10999 10996 ] final  -18.90 input  -57.11 | X-H torsion

> <Gold.Protein.ActiveResidues>
 VAL166  LYS551  ARG553  GLY616  TRP617  ASP618  TYR619  PRO620  LYS621  CYS622 
 ASP623  PHE694  ASN695  SER759  ASP760  ASP761  ALA762  ILE779  LEU786  VAL792 
 PHE793  MET794  SER795  GLU796  ALA797  LYS798  CYS799  TRP800  GLU811  SER814 

> <Gold.Protein.RotatedAtoms>
  150.7693  133.9228  159.3403 H   0  0  0  0  0  0  0  0  0  0  0  0  # atno 6907 bound_to 6896
  151.7118  135.0909  160.0278 H   0  0  0  0  0  0  0  0  0  0  0  0  # atno 6908 bound_to 6896
  152.3704  133.6374  159.6118 H   0  0  0  0  0  0  0  0  0  0  0  0  # atno 6909 bound_to 6896
  144.7193  140.0016  143.6440 H   0  0  0  0  0  0  0  0  0  0  0  0  # atno 7974 bound_to 7965
  154.5018  140.0833  156.7812 H   0  0  0  0  0  0  0  0  0  0  0  0  # atno 8008 bound_to 7997
  155.3986  140.3436  155.4237 H   0  0  0  0  0  0  0  0  0  0  0  0  # atno 8009 bound_to 7997
  156.1465  140.1545  156.8825 H   0  0  0  0  0  0  0  0  0  0  0  0  # atno 8010 bound_to 7997
  139.5273  144.6588  151.5079 H   0  0  0  0  0  0  0  0  0  0  0  0  # atno 10167 bound_to 10162
  156.0224  130.5414  150.7091 H   0  0  0  0  0  0  0  0  0  0  0  0  # atno 10718 bound_to 10713
  154.4023  135.6028  153.5904 H   0  0  0  0  0  0  0  0  0  0  0  0  # atno 10763 bound_to 10752
  152.9788  135.5909  154.4169 H   0  0  0  0  0  0  0  0  0  0  0  0  # atno 10764 bound_to 10752
  154.3969  135.2842  155.2098 H   0  0  0  0  0  0  0  0  0  0  0  0  # atno 10765 bound_to 10752
  140.8313  133.7995  155.9762 H   0  0  0  0  0  0  0  0  0  0  0  0  # atno 11005 bound_to 11000
  146.0331  139.3353  143.0743 LP  0  0  0  0  0  0  0  0  0  0  0  0  # atno 17320 bound_to 7965
  145.8428  140.9571  143.0790 LP  0  0  0  0  0  0  0  0  0  0  0  0  # atno 17321 bound_to 7965
  140.6426  143.8859  150.6706 LP  0  0  0  0  0  0  0  0  0  0  0  0  # atno 17342 bound_to 10162
  140.2198  143.3817  152.1652 LP  0  0  0  0  0  0  0  0  0  0  0  0  # atno 17343 bound_to 10162
  157.4733  131.0895  151.0618 LP  0  0  0  0  0  0  0  0  0  0  0  0  # atno 17370 bound_to 10713
  157.1072  130.6006  149.5473 LP  0  0  0  0  0  0  0  0  0  0  0  0  # atno 17371 bound_to 10713
  140.8995  134.2396  157.5050 LP  0  0  0  0  0  0  0  0  0  0  0  0  # atno 17394 bound_to 11000
  139.8705  134.9700  156.4684 LP  0  0  0  0  0  0  0  0  0  0  0  0  # atno 17395 bound_to 11000

$$$$
