AV-unprocessed.smi:2519|AV-procd|sdf|9903|dock6
  -GOLD-   2272013543D 1   1.00000     0.00000
 Structure written by MMmdl.
 43 44  0  0  0  0  0  0  0  0  1 V2000
  151.2529  141.6724  156.9496 C   0  0  0  0  0  0  0  0  0  0  0  0
  150.7553  140.3105  156.8342 N   0  0  0  0  0  0  0  0  0  0  0  0
  151.0917  139.4576  155.8525 C   0  0  0  0  0  0  0  0  0  0  0  0
  151.8750  139.7523  154.9483 O   0  0  0  0  0  0  0  0  0  0  0  0
  150.4595  138.0909  155.9171 C   0  0  0  0  0  0  0  0  0  0  0  0
  150.7711  137.1198  154.9395 C   0  0  0  0  0  0  0  0  0  0  0  0
  150.1601  135.8561  155.0220 C   0  0  0  0  0  0  0  0  0  0  0  0
  149.2609  135.6026  156.0741 C   0  0  0  0  0  0  0  0  0  0  0  0
  148.9960  136.6193  157.0164 C   0  0  0  0  0  0  0  0  0  0  0  0
  148.0809  136.2679  158.0429 N   0  0  0  0  0  0  0  0  0  0  0  0
  148.0625  136.6848  159.3248 C   0  0  0  0  0  0  0  0  0  0  0  0
  148.8355  137.5133  159.8031 O   0  0  0  0  0  0  0  0  0  0  0  0
  147.0994  136.1201  160.0763 N   0  0  0  0  0  0  0  0  0  0  0  0
  146.7942  136.3393  161.4944 C   0  0  2  0  0  0  0  0  0  0  0  0
  147.5107  135.2823  162.3565 C   0  0  0  0  0  0  0  0  0  0  0  0
  146.9002  133.8810  162.1837 C   0  0  0  0  0  0  0  0  0  0  0  0
  145.3880  133.8883  162.4571 C   0  0  0  0  0  0  0  0  0  0  0  0
  144.6515  134.9164  161.5731 C   0  0  1  0  0  0  0  0  0  0  0  0
  143.1312  134.9193  161.8332 C   0  0  0  0  0  0  0  0  0  0  0  0
  142.5918  133.7439  161.5088 F   0  0  0  0  0  0  0  0  0  0  0  0
  142.8890  135.1640  163.1211 F   0  0  0  0  0  0  0  0  0  0  0  0
  142.5466  135.8758  161.1116 F   0  0  0  0  0  0  0  0  0  0  0  0
  145.2722  136.3187  161.7640 C   0  0  0  0  0  0  0  0  0  0  0  0
  149.5908  137.8334  156.9251 N   0  0  0  0  0  0  0  0  0  0  0  0
  150.8868  142.1242  157.8716 H   0  0  0  0  0  0  0  0  0  0  0  0
  150.9107  142.2807  156.1116 H   0  0  0  0  0  0  0  0  0  0  0  0
  152.3432  141.6899  156.9712 H   0  0  0  0  0  0  0  0  0  0  0  0
  150.1080  139.9886  157.5402 H   0  0  0  0  0  0  0  0  0  0  0  0
  151.4639  137.3302  154.1376 H   0  0  0  0  0  0  0  0  0  0  0  0
  150.3771  135.0926  154.2897 H   0  0  0  0  0  0  0  0  0  0  0  0
  148.7831  134.6368  156.1528 H   0  0  0  0  0  0  0  0  0  0  0  0
  147.3718  135.5988  157.7818 H   0  0  0  0  0  0  0  0  0  0  0  0
  146.4901  135.4713  159.5994 H   0  0  0  0  0  0  0  0  0  0  0  0
  147.1897  137.3147  161.7830 H   0  0  0  0  0  0  0  0  0  0  0  0
  148.5752  135.2584  162.1198 H   0  0  0  0  0  0  0  0  0  0  0  0
  147.4416  135.5717  163.4058 H   0  0  0  0  0  0  0  0  0  0  0  0
  147.0873  133.5173  161.1726 H   0  0  0  0  0  0  0  0  0  0  0  0
  147.3931  133.1788  162.8564 H   0  0  0  0  0  0  0  0  0  0  0  0
  144.9864  132.8895  162.2849 H   0  0  0  0  0  0  0  0  0  0  0  0
  145.2117  134.1133  163.5097 H   0  0  0  0  0  0  0  0  0  0  0  0
  144.7982  134.6235  160.5322 H   0  0  0  0  0  0  0  0  0  0  0  0
  145.0932  136.6522  162.7870 H   0  0  0  0  0  0  0  0  0  0  0  0
  144.7651  137.0420  161.1255 H   0  0  0  0  0  0  0  0  0  0  0  0
  1  2  1  0  0  0  0
  1 25  1  0  0  0  0
  1 26  1  0  0  0  0
  1 27  1  0  0  0  0
  2  3  1  0  0  0  0
  2 28  1  0  0  0  0
  3  4  2  0  0  0  0
  3  5  1  0  0  0  0
  5 24  1  0  0  0  0
  5  6  2  0  0  0  0
  6  7  1  0  0  0  0
  6 29  1  0  0  0  0
  7  8  2  0  0  0  0
  7 30  1  0  0  0  0
  8  9  1  0  0  0  0
  8 31  1  0  0  0  0
  9 10  1  0  0  0  0
  9 24  2  0  0  0  0
 10 11  1  0  0  0  0
 10 32  1  0  0  0  0
 11 12  2  0  0  0  0
 11 13  1  0  0  0  0
 13 14  1  0  0  0  0
 13 33  1  0  0  0  0
 14 23  1  0  0  0  0
 14 15  1  0  0  0  0
 14 34  1  0  0  0  0
 15 16  1  0  0  0  0
 15 35  1  0  0  0  0
 15 36  1  0  0  0  0
 16 17  1  0  0  0  0
 16 37  1  0  0  0  0
 16 38  1  0  0  0  0
 17 18  1  0  0  0  0
 17 39  1  0  0  0  0
 17 40  1  0  0  0  0
 18 19  1  0  0  0  0
 18 23  1  0  0  0  0
 18 41  1  0  0  0  0
 19 20  1  0  0  0  0
 19 21  1  0  0  0  0
 19 22  1  0  0  0  0
 23 42  1  0  0  0  0
 23 43  1  0  0  0  0
M  END
> <s_m_source_file>
AV-unprocessed.smi

> <i_m_source_file_index>
2519

> <i_lp_mmshare_version>
43012

> <i_f3d_flags>
0

> <s_epik_input>
W0NIM11bTkhdQyg9TyljMVtjSF1bY0hdW2NIXWMobjEpW05IXUMoPU8pW05IXVtDQEBIXTJbQ0gyXVtDSDJdW0NIMl1bQ0BASF0oQyhGKShGKUYpW0NIMl0y

> <s_epik_cmdline>
J2VwaWtfcHl0aG9uJywgJy1waCcsICc3LjAnLCAnLXRuJywgJzgnLCAnLW1hJywgJzIwMCcsICctbWV0YWxfYmluZGluZycsICctaW1hZScsICc8aW5maWxlLm1hZT4nLCAnLW9tYWUnLCAnPG91dGZpbGUubWFlPic=

> <r_lp_tautomer_probability>
1

> <r_epik_Ionization_Penalty>
3.74915e-05

> <r_epik_Ionization_Penalty_Charging>
0

> <r_epik_Ionization_Penalty_Neutral>
3.74915e-05

> <r_epik_State_Penalty>
-0

> <r_epik_Charging_Adjusted_Penalty>
0

> <i_epik_Tot_Q>
0

> <i_epik_Tot_abs_Q>
0

> <r_epik_Metal_State_Penalty>
-0

> <b_epik_Metal_Only>
0

> <s_lp_Force_Field>
OPLS_2005

> <r_lp_Energy>
26.8043

> <b_lp_Chiralities_Consistent>
1

> <s_lp_Variant>
AV-unprocessed.smi:2519-1

> <Gold.Version>
5.8.1

> <Gold.Id.Protein>
6NUR|6NUR_protein|mol2

> <Gold.PLP.Fitness>
38.8152

> <Gold.PLP.PLP>
-36.4577

> <Gold.PLP.part.hbond>
-2.9091

> <Gold.PLP.part.metal>
0.0000

> <Gold.PLP.part.buried>
-6.1902

> <Gold.PLP.part.nonpolar>
-28.0090

> <Gold.PLP.part.repulsive>
0.2398

> <Gold.PLP.ligand.clash>
0.0000

> <Gold.PLP.ligand.torsion>
0.6107

> <Gold.PLP.Chemscore.Hbond>
1.1820

> <Gold.PLP.Chemscore.CHOScore>
0.0000

> <Gold.PLP.Chemscore.Metal>
0.0000

> <Gold.Chemscore.Hbonds>
donor molecule, donor type, donor heavy atom, donor atom, acceptor molecule, acceptor atom, score
      P1  H  6931  6943       L1    12  0.19
      P1  H  7989  7998       L1     4  0.98

> <Gold.PLP.Chemscore.Internal.Correction>
0.0329

> <Gold.Rescore>
     Score         DG    S(hbond)    S(metal)    S(lipo)     H(rot)  DE(clash)    DE(int)     intcor
     14.55     -16.14       1.36        0.00      74.16       1.00       0.02       1.57       ----

> <Gold.Chemscore.Fitness>
14.5504

> <Gold.Chemscore.DG>
-16.1440

> <Gold.Chemscore.ZeroCoef>
-5.4800

> <Gold.Chemscore.Hbond>
1.3616

> <Gold.Chemscore.Metal>
0.0000

> <Gold.Chemscore.Lipo>
74.1554

> <Gold.Chemscore.Internal_Hbond>
0.0000

> <Gold.Chemscore.DEClash>
0.0226

> <Gold.Chemscore.DEInternal>
1.5710

> <Gold.Chemscore.Rot>
1.0000

> <Gold.Chemscore.Internal.Correction>
   9.000000E+99

> <Gold.Chemscore.Hbonds>
donor molecule, donor type, donor heavy atom, donor atom, acceptor molecule, acceptor atom, score
      P1  H  6931  6943       L1    12  0.19
      P1  H  7989  7998       L1     4  0.92

> <Gold.Chemscore.Hbond.Weighted>
-4.5478

> <Gold.Chemscore.Metal.Weighted>
-0.0000

> <Gold.Chemscore.Lipo.Weighted>
-8.6762

> <Gold.Chemscore.Internal_Hbond.Weighted>
0.0000

> <Gold.Chemscore.DEClash.Weighted>
0.0226

> <Gold.Chemscore.DEInternal.Weighted>
1.5710

> <Gold.Chemscore.Rot.Weighted>
2.5600

> <Gold.Chemscore.Internal.Correction.Weighted>
   9.000000E+99

> <Gold.Protein.RotatedTorsions>
[ 6907 6896 6895 6894 ] final  -81.48 input  -60.11 | X-H torsion
[ 7974 7965 7964 7962 ] final   46.66 input  175.53 | X-H torsion
[ 8008 7997 7996 7995 ] final   15.34 input   59.86 | X-H torsion
[ 10167 10162 10161 10158 ] final  111.45 input  -65.29 | X-H torsion
[ 10718 10713 10712 10709 ] final -130.17 input   66.30 | X-H torsion
[ 10763 10752 10751 10750 ] final -149.11 input  -60.55 | X-H torsion
[ 11005 11000 10999 10996 ] final   41.70 input  -57.11 | X-H torsion

> <Gold.Protein.ActiveResidues>
 VAL166  LYS551  ARG553  GLY616  TRP617  ASP618  TYR619  PRO620  LYS621  CYS622 
 ASP623  PHE694  ASN695  SER759  ASP760  ASP761  ALA762  ILE779  LEU786  VAL792 
 PHE793  MET794  SER795  GLU796  ALA797  LYS798  CYS799  TRP800  GLU811  SER814 

> <Gold.Protein.RotatedAtoms>
  150.6911  134.3811  159.5034 H   0  0  0  0  0  0  0  0  0  0  0  0  # atno 6907 bound_to 6896
  152.1613  134.8907  160.0550 H   0  0  0  0  0  0  0  0  0  0  0  0  # atno 6908 bound_to 6896
  151.9967  133.3776  159.4202 H   0  0  0  0  0  0  0  0  0  0  0  0  # atno 6909 bound_to 6896
  146.0370  139.4832  142.9802 H   0  0  0  0  0  0  0  0  0  0  0  0  # atno 7974 bound_to 7965
  154.8612  140.2944  155.5538 H   0  0  0  0  0  0  0  0  0  0  0  0  # atno 8008 bound_to 7997
  156.3020  140.2477  156.3519 H   0  0  0  0  0  0  0  0  0  0  0  0  # atno 8009 bound_to 7997
  154.8916  140.0394  157.1831 H   0  0  0  0  0  0  0  0  0  0  0  0  # atno 8010 bound_to 7997
  139.6611  144.7128  151.1864 H   0  0  0  0  0  0  0  0  0  0  0  0  # atno 10167 bound_to 10162
  156.2118  130.6923  151.0658 H   0  0  0  0  0  0  0  0  0  0  0  0  # atno 10718 bound_to 10713
  154.8196  135.3317  154.7078 H   0  0  0  0  0  0  0  0  0  0  0  0  # atno 10763 bound_to 10752
  153.7713  135.6925  153.4910 H   0  0  0  0  0  0  0  0  0  0  0  0  # atno 10764 bound_to 10752
  153.2043  135.4505  155.0252 H   0  0  0  0  0  0  0  0  0  0  0  0  # atno 10765 bound_to 10752
  140.1809  134.4105  155.8201 H   0  0  0  0  0  0  0  0  0  0  0  0  # atno 11005 bound_to 11000
  145.6948  141.0153  143.1536 LP  0  0  0  0  0  0  0  0  0  0  0  0  # atno 17320 bound_to 7965
  144.7056  139.8575  143.7431 LP  0  0  0  0  0  0  0  0  0  0  0  0  # atno 17321 bound_to 7965
  140.7580  143.5993  150.8716 LP  0  0  0  0  0  0  0  0  0  0  0  0  # atno 17342 bound_to 10162
  139.9651  143.6120  152.2991 LP  0  0  0  0  0  0  0  0  0  0  0  0  # atno 17343 bound_to 10162
  157.7042  131.0763  150.6720 LP  0  0  0  0  0  0  0  0  0  0  0  0  # atno 17370 bound_to 10713
  156.6780  130.4559  149.5636 LP  0  0  0  0  0  0  0  0  0  0  0  0  # atno 17371 bound_to 10713
  141.2223  133.7000  156.7929 LP  0  0  0  0  0  0  0  0  0  0  0  0  # atno 17394 bound_to 11000
  140.2269  134.8715  157.3435 LP  0  0  0  0  0  0  0  0  0  0  0  0  # atno 17395 bound_to 11000

$$$$
