AV-unprocessed.smi:653|AV-procd|sdf|3205|dock2
  -GOLD-   22720 0143D 1   1.00000     0.00000
 Structure written by MMmdl.
 44 45  0  0  0  0  0  0  0  0  1 V2000
  153.2913  143.2153  163.3291 C   0  0  0  0  0  0  0  0  0  0  0  0
  152.8941  143.2209  161.8676 C   0  0  0  0  0  0  0  0  0  0  0  0
  153.2485  142.1489  161.0218 C   0  0  0  0  0  0  0  0  0  0  0  0
  152.8503  142.1996  159.6723 C   0  0  0  0  0  0  0  0  0  0  0  0
  152.1150  143.3155  159.2213 C   0  0  0  0  0  0  0  0  0  0  0  0
  151.6595  143.4165  157.7773 C   0  0  0  0  0  0  0  0  0  0  0  0
  150.6875  142.2833  157.4470 C   0  0  0  0  0  0  0  0  0  0  0  0
  150.9558  141.1282  157.7775 O   0  0  0  0  0  0  0  0  0  0  0  0
  149.5657  142.6280  156.7959 N   0  0  0  0  0  0  0  0  0  0  0  0
  148.4958  141.7149  156.4041 C   0  0  0  0  0  0  0  0  0  0  0  0
  148.2490  141.7217  154.8748 C   0  0  1  0  0  0  0  0  0  0  0  0
  149.1842  140.7941  154.1109 C   0  0  0  0  0  0  0  0  0  0  0  0
  148.4871  139.4363  154.2094 C   0  0  0  0  0  0  0  0  0  0  0  0
  147.1267  139.7166  154.5288 O   0  0  0  0  0  0  0  0  0  0  0  0
  146.8979  141.1188  154.4485 C   0  0  1  0  0  0  0  0  0  0  0  0
  145.6422  141.5363  155.2478 C   0  0  0  0  0  0  0  0  0  0  0  0
  145.5522  143.0658  155.3736 C   0  0  0  0  0  0  0  0  0  0  0  0
  145.6171  140.8957  156.6461 C   0  0  0  0  0  0  0  0  0  0  0  0
  151.8119  144.3341  160.1497 C   0  0  0  0  0  0  0  0  0  0  0  0
  152.1892  144.2939  161.4455 N   0  0  0  0  0  0  0  0  0  0  0  0
  154.1857  142.6117  163.4859 H   0  0  0  0  0  0  0  0  0  0  0  0
  152.4861  142.8001  163.9356 H   0  0  0  0  0  0  0  0  0  0  0  0
  153.5010  144.2263  163.6808 H   0  0  0  0  0  0  0  0  0  0  0  0
  153.8102  141.3057  161.3963 H   0  0  0  0  0  0  0  0  0  0  0  0
  153.1027  141.3943  158.9982 H   0  0  0  0  0  0  0  0  0  0  0  0
  151.1913  144.3869  157.6043 H   0  0  0  0  0  0  0  0  0  0  0  0
  152.5211  143.3594  157.1110 H   0  0  0  0  0  0  0  0  0  0  0  0
  149.4357  143.6027  156.5661 H   0  0  0  0  0  0  0  0  0  0  0  0
  148.6883  140.7021  156.7619 H   0  0  0  0  0  0  0  0  0  0  0  0
  147.6028  142.0516  156.9290 H   0  0  0  0  0  0  0  0  0  0  0  0
  148.3434  142.7441  154.5067 H   0  0  0  0  0  0  0  0  0  0  0  0
  149.2255  141.1042  153.0658 H   0  0  0  0  0  0  0  0  0  0  0  0
  150.2089  140.7739  154.4793 H   0  0  0  0  0  0  0  0  0  0  0  0
  148.5630  138.8772  153.2767 H   0  0  0  0  0  0  0  0  0  0  0  0
  148.9181  138.8293  155.0062 H   0  0  0  0  0  0  0  0  0  0  0  0
  146.7324  141.3560  153.3954 H   0  0  0  0  0  0  0  0  0  0  0  0
  144.7545  141.2089  154.7064 H   0  0  0  0  0  0  0  0  0  0  0  0
  146.4164  143.4723  155.9005 H   0  0  0  0  0  0  0  0  0  0  0  0
  144.6582  143.3629  155.9227 H   0  0  0  0  0  0  0  0  0  0  0  0
  145.5047  143.5432  154.3946 H   0  0  0  0  0  0  0  0  0  0  0  0
  146.4845  141.1981  157.2340 H   0  0  0  0  0  0  0  0  0  0  0  0
  145.6170  139.8074  156.5938 H   0  0  0  0  0  0  0  0  0  0  0  0
  144.7241  141.1927  157.1967 H   0  0  0  0  0  0  0  0  0  0  0  0
  151.2493  145.2044  159.8451 H   0  0  0  0  0  0  0  0  0  0  0  0
  1  2  1  0  0  0  0
  1 21  1  0  0  0  0
  1 22  1  0  0  0  0
  1 23  1  0  0  0  0
  2 20  1  0  0  0  0
  2  3  2  0  0  0  0
  3  4  1  0  0  0  0
  3 24  1  0  0  0  0
  4  5  2  0  0  0  0
  4 25  1  0  0  0  0
  5  6  1  0  0  0  0
  5 19  1  0  0  0  0
  6  7  1  0  0  0  0
  6 26  1  0  0  0  0
  6 27  1  0  0  0  0
  7  8  2  0  0  0  0
  7  9  1  0  0  0  0
  9 10  1  0  0  0  0
  9 28  1  0  0  0  0
 10 11  1  0  0  0  0
 10 29  1  0  0  0  0
 10 30  1  0  0  0  0
 11 15  1  0  0  0  0
 11 12  1  0  0  0  0
 11 31  1  0  0  0  0
 12 13  1  0  0  0  0
 12 32  1  0  0  0  0
 12 33  1  0  0  0  0
 13 14  1  0  0  0  0
 13 34  1  0  0  0  0
 13 35  1  0  0  0  0
 14 15  1  0  0  0  0
 15 16  1  0  0  0  0
 15 36  1  0  0  0  0
 16 17  1  0  0  0  0
 16 18  1  0  0  0  0
 16 37  1  0  0  0  0
 17 38  1  0  0  0  0
 17 39  1  0  0  0  0
 17 40  1  0  0  0  0
 18 41  1  0  0  0  0
 18 42  1  0  0  0  0
 18 43  1  0  0  0  0
 19 20  2  0  0  0  0
 19 44  1  0  0  0  0
M  END
> <s_m_source_file>
AV-unprocessed.smi

> <i_m_source_file_index>
653

> <i_lp_mmshare_version>
43012

> <i_f3d_flags>
0

> <s_epik_input>
W0NIM11jMVtjSF1bY0hdYyhbY0hdbjEpW0NIMl1DKD1PKVtOSF1bQ0gyXVtDQEBIXTJbQ0gyXVtDSDJdT1tDQEhdMltDSF0oW0NIM10pW0NIM10=

> <s_epik_cmdline>
J2VwaWtfcHl0aG9uJywgJy1waCcsICc3LjAnLCAnLXRuJywgJzgnLCAnLW1hJywgJzIwMCcsICctbWV0YWxfYmluZGluZycsICctaW1hZScsICc8aW5maWxlLm1hZT4nLCAnLW9tYWUnLCAnPG91dGZpbGUubWFlPic=

> <r_epik_Ionization_Penalty>
0.0166429

> <r_epik_Ionization_Penalty_Charging>
0

> <r_epik_Ionization_Penalty_Neutral>
0.0166429

> <r_epik_State_Penalty>
0.0131478

> <r_epik_Charging_Adjusted_Penalty>
0.0131478

> <i_epik_Tot_Q>
0

> <i_epik_Tot_abs_Q>
0

> <r_epik_Metal_State_Penalty>
0.012786

> <b_epik_Metal_Only>
0

> <s_lp_Force_Field>
OPLS_2005

> <r_lp_Energy>
21.9695

> <b_lp_Chiralities_Consistent>
1

> <s_lp_Variant>
AV-unprocessed.smi:653-2

> <Gold.Version>
5.8.1

> <Gold.Id.Protein>
6NUR|6NUR_protein|mol2

> <Gold.PLP.Fitness>
44.4574

> <Gold.PLP.PLP>
-42.3617

> <Gold.PLP.part.hbond>
-0.9492

> <Gold.PLP.part.metal>
0.0000

> <Gold.PLP.part.buried>
-2.5707

> <Gold.PLP.part.nonpolar>
-37.8572

> <Gold.PLP.part.repulsive>
0.2924

> <Gold.PLP.ligand.clash>
0.0000

> <Gold.PLP.ligand.torsion>
0.5058

> <Gold.PLP.Chemscore.Hbond>
1.0000

> <Gold.PLP.Chemscore.CHOScore>
0.0000

> <Gold.PLP.Chemscore.Metal>
0.0000

> <Gold.Chemscore.Hbonds>
donor molecule, donor type, donor heavy atom, donor atom, acceptor molecule, acceptor atom, score
      L1  H     9    28       P1  8028  1.00

> <Gold.PLP.Chemscore.Internal.Correction>
0.1074

> <Gold.Rescore>
     Score         DG    S(hbond)    S(metal)    S(lipo)     H(rot)  DE(clash)    DE(int)     intcor
     16.73     -18.63       0.96        0.00     117.49       1.48       0.13       1.77       ----

> <Gold.Chemscore.Fitness>
16.7330

> <Gold.Chemscore.DG>
-18.6288

> <Gold.Chemscore.ZeroCoef>
-5.4800

> <Gold.Chemscore.Hbond>
0.9592

> <Gold.Chemscore.Metal>
0.0000

> <Gold.Chemscore.Lipo>
117.4908

> <Gold.Chemscore.Internal_Hbond>
0.0000

> <Gold.Chemscore.DEClash>
0.1291

> <Gold.Chemscore.DEInternal>
1.7667

> <Gold.Chemscore.Rot>
1.4850

> <Gold.Chemscore.Internal.Correction>
   9.000000E+99

> <Gold.Chemscore.Hbonds>
donor molecule, donor type, donor heavy atom, donor atom, acceptor molecule, acceptor atom, score
      L1  H     9    28       P1  8028  0.90

> <Gold.Chemscore.Hbond.Weighted>
-3.2039

> <Gold.Chemscore.Metal.Weighted>
-0.0000

> <Gold.Chemscore.Lipo.Weighted>
-13.7464

> <Gold.Chemscore.Internal_Hbond.Weighted>
0.0000

> <Gold.Chemscore.DEClash.Weighted>
0.1291

> <Gold.Chemscore.DEInternal.Weighted>
1.7667

> <Gold.Chemscore.Rot.Weighted>
3.8015

> <Gold.Chemscore.Internal.Correction.Weighted>
   9.000000E+99

> <Gold.Protein.RotatedTorsions>
[ 6907 6896 6895 6894 ] final -141.12 input  -60.11 | X-H torsion
[ 7974 7965 7964 7962 ] final   46.30 input  175.53 | X-H torsion
[ 8008 7997 7996 7995 ] final -125.45 input   59.86 | X-H torsion
[ 10167 10162 10161 10158 ] final -169.31 input  -65.29 | X-H torsion
[ 10718 10713 10712 10709 ] final -104.44 input   66.30 | X-H torsion
[ 10763 10752 10751 10750 ] final   18.37 input  -60.55 | X-H torsion
[ 11005 11000 10999 10996 ] final  -83.83 input  -57.11 | X-H torsion

> <Gold.Protein.ActiveResidues>
 VAL166  LYS551  ARG553  GLY616  TRP617  ASP618  TYR619  PRO620  LYS621  CYS622 
 ASP623  PHE694  ASN695  SER759  ASP760  ASP761  ALA762  ILE779  LEU786  VAL792 
 PHE793  MET794  SER795  GLU796  ALA797  LYS798  CYS799  TRP800  GLU811  SER814 

> <Gold.Protein.RotatedAtoms>
  151.0696  133.5477  159.2627 H   0  0  0  0  0  0  0  0  0  0  0  0  # atno 6907 bound_to 6896
  151.2422  135.0592  159.9039 H   0  0  0  0  0  0  0  0  0  0  0  0  # atno 6908 bound_to 6896
  152.5409  134.0469  159.8146 H   0  0  0  0  0  0  0  0  0  0  0  0  # atno 6909 bound_to 6896
  146.0402  139.4871  142.9783 H   0  0  0  0  0  0  0  0  0  0  0  0  # atno 7974 bound_to 7965
  155.2134  140.0419  157.2937 H   0  0  0  0  0  0  0  0  0  0  0  0  # atno 8008 bound_to 7997
  154.5996  140.2448  155.7781 H   0  0  0  0  0  0  0  0  0  0  0  0  # atno 8009 bound_to 7997
  156.2313  140.2937  156.0204 H   0  0  0  0  0  0  0  0  0  0  0  0  # atno 8010 bound_to 7997
  139.5931  144.1171  152.1657 H   0  0  0  0  0  0  0  0  0  0  0  0  # atno 10167 bound_to 10162
  156.0305  130.5515  150.7397 H   0  0  0  0  0  0  0  0  0  0  0  0  # atno 10718 bound_to 10713
  153.1255  135.6729  153.9264 H   0  0  0  0  0  0  0  0  0  0  0  0  # atno 10763 bound_to 10752
  153.8766  135.3063  155.3445 H   0  0  0  0  0  0  0  0  0  0  0  0  # atno 10764 bound_to 10752
  154.7661  135.4963  153.9637 H   0  0  0  0  0  0  0  0  0  0  0  0  # atno 10765 bound_to 10752
  141.1655  133.7314  156.8778 H   0  0  0  0  0  0  0  0  0  0  0  0  # atno 11005 bound_to 11000
  145.6897  141.0168  143.1562 LP  0  0  0  0  0  0  0  0  0  0  0  0  # atno 17320 bound_to 7965
  144.7071  139.8518  143.7426 LP  0  0  0  0  0  0  0  0  0  0  0  0  # atno 17321 bound_to 7965
  140.0750  144.5748  150.7164 LP  0  0  0  0  0  0  0  0  0  0  0  0  # atno 17342 bound_to 10162
  140.7189  143.2570  151.4343 LP  0  0  0  0  0  0  0  0  0  0  0  0  # atno 17343 bound_to 10162
  157.4969  131.0915  151.0361 LP  0  0  0  0  0  0  0  0  0  0  0  0  # atno 17370 bound_to 10713
  157.0752  130.5880  149.5410 LP  0  0  0  0  0  0  0  0  0  0  0  0  # atno 17371 bound_to 10713
  140.1736  134.9082  157.2864 LP  0  0  0  0  0  0  0  0  0  0  0  0  # atno 17394 bound_to 11000
  140.2474  134.3724  155.7456 LP  0  0  0  0  0  0  0  0  0  0  0  0  # atno 17395 bound_to 11000

$$$$
