AV-unprocessed.smi:2759|AV-procd|sdf|10626|dock3
  -GOLD-   2272015 73D 1   1.00000     0.00000
 Structure written by MMmdl.
 43 44  0  0  0  0  0  0  0  0  1 V2000
  147.6197  141.7171  155.6702 C   0  0  0  0  0  0  0  0  0  0  0  0
  146.6951  141.0758  154.6168 C   0  0  0  0  0  0  0  0  0  0  0  0
  145.8163  140.0142  155.3049 C   0  0  0  0  0  0  0  0  0  0  0  0
  147.4977  140.5036  153.4178 C   0  0  2  0  0  0  0  0  0  0  0  0
  146.5990  140.2277  152.3582 O   0  0  0  0  0  0  0  0  0  0  0  0
  148.2549  139.1929  153.7277 C   0  0  0  0  0  0  0  0  0  0  0  0
  149.2749  139.3557  154.8069 C   0  0  0  0  0  0  0  0  0  0  0  0
  149.0987  139.1675  156.1123 N   0  0  0  0  0  0  0  0  0  0  0  0
  150.3640  139.3623  156.5783 C   0  0  0  0  0  0  0  0  0  0  0  0
  150.7221  139.2362  158.0252 C   0  0  0  0  0  0  0  0  0  0  0  0
  151.9045  140.1451  158.3700 C   0  0  0  0  0  0  0  0  0  0  0  0
  153.0390  139.8479  157.9970 O   0  0  0  0  0  0  0  0  0  0  0  0
  151.6254  141.2509  159.0787 N   0  0  0  0  0  0  0  0  0  0  0  0
  152.6082  142.2230  159.5478 C   0  0  0  0  0  0  0  0  0  0  0  0
  152.5754  142.3315  161.0844 C   0  0  0  0  0  0  0  0  0  0  0  0
  152.5337  143.8271  161.4025 C   0  0  0  0  0  0  0  0  0  0  0  0
  151.8137  144.4467  160.2091 C   0  0  0  0  0  0  0  0  0  0  0  0
  152.3094  143.6368  159.0107 C   0  0  0  0  0  0  0  0  0  0  0  0
  151.2790  139.6578  155.6619 N   0  0  0  0  0  0  0  0  0  0  0  0
  150.5540  139.6385  154.4619 O   0  0  0  0  0  0  0  0  0  0  0  0
  148.3329  140.9924  156.0641 H   0  0  0  0  0  0  0  0  0  0  0  0
  147.0463  142.1077  156.5115 H   0  0  0  0  0  0  0  0  0  0  0  0
  148.1866  142.5526  155.2593 H   0  0  0  0  0  0  0  0  0  0  0  0
  146.0328  141.8581  154.2430 H   0  0  0  0  0  0  0  0  0  0  0  0
  146.4070  139.1523  155.6168 H   0  0  0  0  0  0  0  0  0  0  0  0
  145.0168  139.6587  154.6562 H   0  0  0  0  0  0  0  0  0  0  0  0
  145.3340  140.4215  156.1939 H   0  0  0  0  0  0  0  0  0  0  0  0
  148.2076  141.2603  153.0801 H   0  0  0  0  0  0  0  0  0  0  0  0
  145.7196  140.4076  152.6545 H   0  0  0  0  0  0  0  0  0  0  0  0
  147.5687  138.4186  154.0657 H   0  0  0  0  0  0  0  0  0  0  0  0
  148.7371  138.8023  152.8306 H   0  0  0  0  0  0  0  0  0  0  0  0
  149.8605  139.4947  158.6426 H   0  0  0  0  0  0  0  0  0  0  0  0
  150.9778  138.2006  158.2533 H   0  0  0  0  0  0  0  0  0  0  0  0
  150.6627  141.4185  159.3338 H   0  0  0  0  0  0  0  0  0  0  0  0
  153.6062  141.9167  159.2286 H   0  0  0  0  0  0  0  0  0  0  0  0
  151.6766  141.8597  161.4852 H   0  0  0  0  0  0  0  0  0  0  0  0
  153.4299  141.8399  161.5504 H   0  0  0  0  0  0  0  0  0  0  0  0
  152.0386  144.0417  162.3499 H   0  0  0  0  0  0  0  0  0  0  0  0
  153.5501  144.2189  161.4612 H   0  0  0  0  0  0  0  0  0  0  0  0
  150.7365  144.3160  160.3212 H   0  0  0  0  0  0  0  0  0  0  0  0
  152.0120  145.5138  160.1050 H   0  0  0  0  0  0  0  0  0  0  0  0
  153.2334  144.0790  158.6363 H   0  0  0  0  0  0  0  0  0  0  0  0
  151.5943  143.6485  158.1870 H   0  0  0  0  0  0  0  0  0  0  0  0
  1  2  1  0  0  0  0
  1 21  1  0  0  0  0
  1 22  1  0  0  0  0
  1 23  1  0  0  0  0
  2  3  1  0  0  0  0
  2  4  1  0  0  0  0
  2 24  1  0  0  0  0
  3 25  1  0  0  0  0
  3 26  1  0  0  0  0
  3 27  1  0  0  0  0
  4  5  1  0  0  0  0
  4  6  1  0  0  0  0
  4 28  1  0  0  0  0
  5 29  1  0  0  0  0
  6  7  1  0  0  0  0
  6 30  1  0  0  0  0
  6 31  1  0  0  0  0
  7 20  1  0  0  0  0
  7  8  2  0  0  0  0
  8  9  1  0  0  0  0
  9 10  1  0  0  0  0
  9 19  2  0  0  0  0
 10 11  1  0  0  0  0
 10 32  1  0  0  0  0
 10 33  1  0  0  0  0
 11 12  2  0  0  0  0
 11 13  1  0  0  0  0
 13 14  1  0  0  0  0
 13 34  1  0  0  0  0
 14 18  1  0  0  0  0
 14 15  1  0  0  0  0
 14 35  1  0  0  0  0
 15 16  1  0  0  0  0
 15 36  1  0  0  0  0
 15 37  1  0  0  0  0
 16 17  1  0  0  0  0
 16 38  1  0  0  0  0
 16 39  1  0  0  0  0
 17 18  1  0  0  0  0
 17 40  1  0  0  0  0
 17 41  1  0  0  0  0
 18 42  1  0  0  0  0
 18 43  1  0  0  0  0
 19 20  1  0  0  0  0
M  END
> <s_m_source_file>
AV-unprocessed.smi

> <i_m_source_file_index>
2759

> <i_lp_mmshare_version>
43012

> <i_f3d_flags>
0

> <s_epik_input>
W0NIM11bQ0hdKFtDSDNdKVtDQEhdKFtPSF0pW0NIMl1jMW5jKG5vMSlbQ0gyXUMoPU8pW05IXVtDSF0yW0NIMl1bQ0gyXVtDSDJdW0NIMl0y

> <s_epik_cmdline>
J2VwaWtfcHl0aG9uJywgJy1waCcsICc3LjAnLCAnLXRuJywgJzgnLCAnLW1hJywgJzIwMCcsICctbWV0YWxfYmluZGluZycsICctaW1hZScsICc8aW5maWxlLm1hZT4nLCAnLW9tYWUnLCAnPG91dGZpbGUubWFlPic=

> <r_lp_tautomer_probability>
1

> <r_epik_Ionization_Penalty>
1.20032e-07

> <r_epik_Ionization_Penalty_Charging>
0

> <r_epik_Ionization_Penalty_Neutral>
1.20032e-07

> <r_epik_State_Penalty>
-0

> <r_epik_Charging_Adjusted_Penalty>
0

> <i_epik_Tot_Q>
0

> <i_epik_Tot_abs_Q>
0

> <r_epik_Metal_State_Penalty>
-0

> <b_epik_Metal_Only>
0

> <s_lp_Force_Field>
OPLS_2005

> <r_lp_Energy>
19.5735

> <b_lp_Chiralities_Consistent>
1

> <s_lp_Variant>
AV-unprocessed.smi:2759-1

> <Gold.Version>
5.8.1

> <Gold.Id.Protein>
6NUR|6NUR_protein|mol2

> <Gold.PLP.Fitness>
41.8313

> <Gold.PLP.PLP>
-35.0322

> <Gold.PLP.part.hbond>
-3.3930

> <Gold.PLP.part.metal>
0.0000

> <Gold.PLP.part.buried>
-4.1901

> <Gold.PLP.part.nonpolar>
-28.0893

> <Gold.PLP.part.repulsive>
0.2770

> <Gold.PLP.ligand.clash>
0.0000

> <Gold.PLP.ligand.torsion>
1.0674

> <Gold.PLP.Chemscore.Hbond>
2.9250

> <Gold.PLP.Chemscore.CHOScore>
0.0000

> <Gold.PLP.Chemscore.Metal>
0.0000

> <Gold.Chemscore.Hbonds>
donor molecule, donor type, donor heavy atom, donor atom, acceptor molecule, acceptor atom, score
      L1  H     5    29       P1 10175  0.98
      P1  H  7989  7998       L1    20  0.90
      P1  H  7997  8008       L1    12  1.00

> <Gold.PLP.Chemscore.Internal.Correction>
0.1588

> <Gold.Rescore>
     Score         DG    S(hbond)    S(metal)    S(lipo)     H(rot)  DE(clash)    DE(int)     intcor
     13.05     -15.62       2.13        0.00      83.86       2.65       0.01       2.56       ----

> <Gold.Chemscore.Fitness>
13.0525

> <Gold.Chemscore.DG>
-15.6152

> <Gold.Chemscore.ZeroCoef>
-5.4800

> <Gold.Chemscore.Hbond>
2.1315

> <Gold.Chemscore.Metal>
0.0000

> <Gold.Chemscore.Lipo>
83.8560

> <Gold.Chemscore.Internal_Hbond>
0.0000

> <Gold.Chemscore.DEClash>
0.0073

> <Gold.Chemscore.DEInternal>
2.5554

> <Gold.Chemscore.Rot>
2.6543

> <Gold.Chemscore.Internal.Correction>
   9.000000E+99

> <Gold.Chemscore.Hbonds>
donor molecule, donor type, donor heavy atom, donor atom, acceptor molecule, acceptor atom, score
      L1  H     5    29       P1 10175  0.63
      P1  H  7989  7998       L1    20  0.18
      P1  H  7997  8008       L1    12  0.99

> <Gold.Chemscore.Hbond.Weighted>
-7.1191

> <Gold.Chemscore.Metal.Weighted>
-0.0000

> <Gold.Chemscore.Lipo.Weighted>
-9.8112

> <Gold.Chemscore.Internal_Hbond.Weighted>
0.0000

> <Gold.Chemscore.DEClash.Weighted>
0.0073

> <Gold.Chemscore.DEInternal.Weighted>
2.5554

> <Gold.Chemscore.Rot.Weighted>
6.7950

> <Gold.Chemscore.Internal.Correction.Weighted>
   9.000000E+99

> <Gold.Protein.RotatedTorsions>
[ 6907 6896 6895 6894 ] final   36.06 input  -60.11 | X-H torsion
[ 7974 7965 7964 7962 ] final  146.75 input  175.53 | X-H torsion
[ 8008 7997 7996 7995 ] final  -74.00 input   59.86 | X-H torsion
[ 10167 10162 10161 10158 ] final  177.18 input  -65.29 | X-H torsion
[ 10718 10713 10712 10709 ] final  -93.69 input   66.30 | X-H torsion
[ 10763 10752 10751 10750 ] final   65.96 input  -60.55 | X-H torsion
[ 11005 11000 10999 10996 ] final  -83.28 input  -57.11 | X-H torsion

> <Gold.Protein.ActiveResidues>
 VAL166  LYS551  ARG553  GLY616  TRP617  ASP618  TYR619  PRO620  LYS621  CYS622 
 ASP623  PHE694  ASN695  SER759  ASP760  ASP761  ALA762  ILE779  LEU786  VAL792 
 PHE793  MET794  SER795  GLU796  ALA797  LYS798  CYS799  TRP800  GLU811  SER814 

> <Gold.Protein.RotatedAtoms>
  152.1246  134.9180  160.0561 H   0  0  0  0  0  0  0  0  0  0  0  0  # atno 6907 bound_to 6896
  152.0308  133.3931  159.4304 H   0  0  0  0  0  0  0  0  0  0  0  0  # atno 6908 bound_to 6896
  150.6851  134.3444  159.4925 H   0  0  0  0  0  0  0  0  0  0  0  0  # atno 6909 bound_to 6896
  144.8646  139.5943  143.5915 H   0  0  0  0  0  0  0  0  0  0  0  0  # atno 7974 bound_to 7965
  154.5294  140.0769  156.8318 H   0  0  0  0  0  0  0  0  0  0  0  0  # atno 8008 bound_to 7997
  155.3406  140.3407  155.4221 H   0  0  0  0  0  0  0  0  0  0  0  0  # atno 8009 bound_to 7997
  156.1766  140.1637  156.8339 H   0  0  0  0  0  0  0  0  0  0  0  0  # atno 8010 bound_to 7997
  139.5243  144.2828  152.0532 H   0  0  0  0  0  0  0  0  0  0  0  0  # atno 10167 bound_to 10162
  156.0016  130.5037  150.5813 H   0  0  0  0  0  0  0  0  0  0  0  0  # atno 10718 bound_to 10713
  153.0119  135.5338  154.6750 H   0  0  0  0  0  0  0  0  0  0  0  0  # atno 10763 bound_to 10752
  154.5924  135.2860  155.0623 H   0  0  0  0  0  0  0  0  0  0  0  0  # atno 10764 bound_to 10752
  154.1711  135.6532  153.5062 H   0  0  0  0  0  0  0  0  0  0  0  0  # atno 10765 bound_to 10752
  141.1658  133.7286  156.8696 H   0  0  0  0  0  0  0  0  0  0  0  0  # atno 11005 bound_to 11000
  146.2886  139.7074  142.9177 LP  0  0  0  0  0  0  0  0  0  0  0  0  # atno 17320 bound_to 7965
  145.4246  141.0410  143.2944 LP  0  0  0  0  0  0  0  0  0  0  0  0  # atno 17321 bound_to 7965
  140.2282  144.4395  150.6311 LP  0  0  0  0  0  0  0  0  0  0  0  0  # atno 17342 bound_to 10162
  140.6373  143.2197  151.6368 LP  0  0  0  0  0  0  0  0  0  0  0  0  # atno 17343 bound_to 10162
  157.3693  131.0763  151.1571 LP  0  0  0  0  0  0  0  0  0  0  0  0  # atno 17370 bound_to 10713
  157.2330  130.6534  149.5857 LP  0  0  0  0  0  0  0  0  0  0  0  0  # atno 17371 bound_to 10713
  140.1791  134.9046  157.2926 LP  0  0  0  0  0  0  0  0  0  0  0  0  # atno 17394 bound_to 11000
  140.2416  134.3789  155.7478 LP  0  0  0  0  0  0  0  0  0  0  0  0  # atno 17395 bound_to 11000

$$$$
