AV-unprocessed.smi:2784|AV-procd|sdf|10741|dock1
  -GOLD-   2272015173D 1   1.00000     0.00000
 Structure written by MMmdl.
 31 32  0  0  0  0  0  0  0  0  1 V2000
  153.8618  141.9494  159.8031 C   0  0  0  0  0  0  0  0  0  0  0  0
  152.4649  141.7048  159.7816 O   0  0  0  0  0  0  0  0  0  0  0  0
  151.6935  142.8345  159.3959 C   0  0  1  0  0  0  0  0  0  0  0  0
  152.0812  144.0908  160.1876 C   0  0  0  0  0  0  0  0  0  0  0  0
  151.8388  145.2416  159.2177 C   0  0  0  0  0  0  0  0  0  0  0  0
  152.2816  144.6801  157.8673 C   0  0  0  0  0  0  0  0  0  0  0  0
  151.9581  143.1758  157.9110 C   0  0  2  0  0  0  0  0  0  0  0  0
  150.7961  142.8858  157.0744 N   0  0  0  0  0  0  0  0  0  0  0  0
  150.4472  141.6694  156.6290 C   0  0  0  0  0  0  0  0  0  0  0  0
  151.1136  140.6628  156.8891 O   0  0  0  0  0  0  0  0  0  0  0  0
  149.3119  141.7467  155.8404 N   0  0  0  0  0  0  0  0  0  0  0  0
  149.0157  140.7263  155.0972 C   0  0  0  0  0  0  0  0  0  0  0  0
  147.9262  140.5761  154.2542 N   0  0  0  0  0  0  0  0  0  0  0  0
  148.0167  139.3487  153.6581 C   0  0  0  0  0  0  0  0  0  0  0  0
  149.1180  138.7513  154.1043 C   0  0  0  0  0  0  0  0  0  0  0  0
  149.7545  139.5701  154.9875 O   0  0  0  0  0  0  0  0  0  0  0  0
  154.3843  141.0464  160.1183 H   0  0  0  0  0  0  0  0  0  0  0  0
  154.1111  142.7432  160.5081 H   0  0  0  0  0  0  0  0  0  0  0  0
  154.2371  142.2252  158.8173 H   0  0  0  0  0  0  0  0  0  0  0  0
  150.6299  142.6338  159.5427 H   0  0  0  0  0  0  0  0  0  0  0  0
  151.5162  144.1961  161.1141 H   0  0  0  0  0  0  0  0  0  0  0  0
  153.1406  144.0555  160.4458 H   0  0  0  0  0  0  0  0  0  0  0  0
  150.7750  145.4814  159.1880 H   0  0  0  0  0  0  0  0  0  0  0  0
  152.3796  146.1468  159.4947 H   0  0  0  0  0  0  0  0  0  0  0  0
  151.8150  145.2018  157.0305 H   0  0  0  0  0  0  0  0  0  0  0  0
  153.3596  144.8113  157.7639 H   0  0  0  0  0  0  0  0  0  0  0  0
  152.8195  142.6228  157.5313 H   0  0  0  0  0  0  0  0  0  0  0  0
  150.2141  143.6688  156.8144 H   0  0  0  0  0  0  0  0  0  0  0  0
  147.1758  141.2289  154.0791 H   0  0  0  0  0  0  0  0  0  0  0  0
  147.2608  139.0243  152.9579 H   0  0  0  0  0  0  0  0  0  0  0  0
  149.5657  137.7898  153.9002 H   0  0  0  0  0  0  0  0  0  0  0  0
  1  2  1  0  0  0  0
  1 17  1  0  0  0  0
  1 18  1  0  0  0  0
  1 19  1  0  0  0  0
  2  3  1  0  0  0  0
  3  7  1  0  0  0  0
  3  4  1  0  0  0  0
  3 20  1  0  0  0  0
  4  5  1  0  0  0  0
  4 21  1  0  0  0  0
  4 22  1  0  0  0  0
  5  6  1  0  0  0  0
  5 23  1  0  0  0  0
  5 24  1  0  0  0  0
  6  7  1  0  0  0  0
  6 25  1  0  0  0  0
  6 26  1  0  0  0  0
  7  8  1  0  0  0  0
  7 27  1  0  0  0  0
  8 28  1  0  0  0  0
  8  9  1  0  0  0  0
  9 11  1  0  0  0  0
  9 10  2  0  0  0  0
 11 12  2  0  0  0  0
 12 16  1  0  0  0  0
 12 13  1  0  0  0  0
 13 29  1  0  0  0  0
 13 14  1  0  0  0  0
 14 30  1  0  0  0  0
 14 15  2  0  0  0  0
 15 31  1  0  0  0  0
 15 16  1  0  0  0  0
M  END
> <s_m_source_file>
AV-unprocessed.smi

> <i_m_source_file_index>
2784

> <i_lp_mmshare_version>
43012

> <i_f3d_flags>
0

> <s_epik_input>
W0NIM11PW0NAQEhdMVtDSDJdW0NIMl1bQ0gyXVtDQEhdMVtOSF1DKD1PKVtOSF1jMm5bY0hdW2NIXW8y

> <s_epik_cmdline>
J2VwaWtfcHl0aG9uJywgJy1waCcsICc3LjAnLCAnLXRuJywgJzgnLCAnLW1hJywgJzIwMCcsICctbWV0YWxfYmluZGluZycsICctaW1hZScsICc8aW5maWxlLm1hZT4nLCAnLW9tYWUnLCAnPG91dGZpbGUubWFlPic=

> <r_lp_tautomer_probability>
0.107061

> <r_epik_Ionization_Penalty>
1.29244

> <r_epik_Ionization_Penalty_Charging>
1.29208

> <r_epik_Ionization_Penalty_Neutral>
0.000359742

> <r_epik_State_Penalty>
2.59896

> <r_epik_Charging_Adjusted_Penalty>
3.89105

> <i_epik_Tot_Q>
0

> <i_epik_Tot_abs_Q>
0

> <r_epik_Metal_State_Penalty>
3.62496

> <b_epik_Metal_Only>
0

> <s_lp_Force_Field>
OPLS_2005

> <r_lp_Energy>
42.0799

> <b_lp_Chiralities_Consistent>
1

> <s_lp_Variant>
AV-unprocessed.smi:2784-16

> <Gold.Version>
5.8.1

> <Gold.Id.Protein>
6NUR|6NUR_protein|mol2

> <Gold.PLP.Fitness>
35.8538

> <Gold.PLP.PLP>
-31.3291

> <Gold.PLP.part.hbond>
-1.0000

> <Gold.PLP.part.metal>
0.0000

> <Gold.PLP.part.buried>
-4.5992

> <Gold.PLP.part.nonpolar>
-26.3994

> <Gold.PLP.part.repulsive>
1.0578

> <Gold.PLP.ligand.clash>
0.0000

> <Gold.PLP.ligand.torsion>
0.3361

> <Gold.PLP.Chemscore.Hbond>
0.9913

> <Gold.PLP.Chemscore.CHOScore>
0.7393

> <Gold.PLP.Chemscore.Metal>
0.0000

> <Gold.Chemscore.Hbonds>
donor molecule, donor type, donor heavy atom, donor atom, acceptor molecule, acceptor atom, score
      L1  H     8    28       P1  8028  0.98
      L1  C    15    31       P1  7948  0.73

> <Gold.PLP.Chemscore.Internal.Correction>
0.0050

> <Gold.Rescore>
     Score         DG    S(hbond)    S(metal)    S(lipo)     H(rot)  DE(clash)    DE(int)     intcor
     12.89     -15.13       1.00        0.00      82.95       1.32       0.29       1.95       ----

> <Gold.Chemscore.Fitness>
12.8937

> <Gold.Chemscore.DG>
-15.1314

> <Gold.Chemscore.ZeroCoef>
-5.4800

> <Gold.Chemscore.Hbond>
0.9985

> <Gold.Chemscore.Metal>
0.0000

> <Gold.Chemscore.Lipo>
82.9454

> <Gold.Chemscore.Internal_Hbond>
0.0000

> <Gold.Chemscore.DEClash>
0.2853

> <Gold.Chemscore.DEInternal>
1.9524

> <Gold.Chemscore.Rot>
1.3235

> <Gold.Chemscore.Internal.Correction>
   9.000000E+99

> <Gold.Chemscore.Hbonds>
donor molecule, donor type, donor heavy atom, donor atom, acceptor molecule, acceptor atom, score
      L1  H     8    28       P1  8028  0.91

> <Gold.Chemscore.Hbond.Weighted>
-3.3350

> <Gold.Chemscore.Metal.Weighted>
-0.0000

> <Gold.Chemscore.Lipo.Weighted>
-9.7046

> <Gold.Chemscore.Internal_Hbond.Weighted>
0.0000

> <Gold.Chemscore.DEClash.Weighted>
0.2853

> <Gold.Chemscore.DEInternal.Weighted>
1.9524

> <Gold.Chemscore.Rot.Weighted>
3.3882

> <Gold.Chemscore.Internal.Correction.Weighted>
   9.000000E+99

> <Gold.Protein.RotatedTorsions>
[ 6907 6896 6895 6894 ] final   -0.40 input  -60.11 | X-H torsion
[ 7974 7965 7964 7962 ] final -124.35 input  175.53 | X-H torsion
[ 8008 7997 7996 7995 ] final  -57.33 input   59.86 | X-H torsion
[ 10167 10162 10161 10158 ] final  -55.29 input  -65.29 | X-H torsion
[ 10718 10713 10712 10709 ] final -125.25 input   66.30 | X-H torsion
[ 10763 10752 10751 10750 ] final  -36.16 input  -60.55 | X-H torsion
[ 11005 11000 10999 10996 ] final  161.81 input  -57.11 | X-H torsion

> <Gold.Protein.ActiveResidues>
 VAL166  LYS551  ARG553  GLY616  TRP617  ASP618  TYR619  PRO620  LYS621  CYS622 
 ASP623  PHE694  ASN695  SER759  ASP760  ASP761  ALA762  ILE779  LEU786  VAL792 
 PHE793  MET794  SER795  GLU796  ALA797  LYS798  CYS799  TRP800  GLU811  SER814 

> <Gold.Protein.RotatedAtoms>
  151.5629  135.1065  159.9976 H   0  0  0  0  0  0  0  0  0  0  0  0  # atno 6907 bound_to 6896
  152.4438  133.7493  159.6696 H   0  0  0  0  0  0  0  0  0  0  0  0  # atno 6908 bound_to 6896
  150.8349  133.7962  159.3107 H   0  0  0  0  0  0  0  0  0  0  0  0  # atno 6909 bound_to 6896
  145.0090  140.7889  143.4450 H   0  0  0  0  0  0  0  0  0  0  0  0  # atno 7974 bound_to 7965
  154.4264  140.1109  156.5780 H   0  0  0  0  0  0  0  0  0  0  0  0  # atno 8008 bound_to 7997
  155.6142  140.3494  155.4613 H   0  0  0  0  0  0  0  0  0  0  0  0  # atno 8009 bound_to 7997
  156.0075  140.1212  157.0476 H   0  0  0  0  0  0  0  0  0  0  0  0  # atno 8010 bound_to 7997
  140.6383  143.2494  151.5059 H   0  0  0  0  0  0  0  0  0  0  0  0  # atno 10167 bound_to 10162
  156.1659  130.6634  151.0113 H   0  0  0  0  0  0  0  0  0  0  0  0  # atno 10718 bound_to 10713
  153.8752  135.6827  153.4771 H   0  0  0  0  0  0  0  0  0  0  0  0  # atno 10763 bound_to 10752
  153.1265  135.4717  154.9278 H   0  0  0  0  0  0  0  0  0  0  0  0  # atno 10764 bound_to 10752
  154.7695  135.3234  154.8169 H   0  0  0  0  0  0  0  0  0  0  0  0  # atno 10765 bound_to 10752
  140.2195  134.8207  157.3205 H   0  0  0  0  0  0  0  0  0  0  0  0  # atno 11005 bound_to 11000
  145.2049  139.2233  143.5173 LP  0  0  0  0  0  0  0  0  0  0  0  0  # atno 17320 bound_to 7965
  146.3466  140.1874  142.8589 LP  0  0  0  0  0  0  0  0  0  0  0  0  # atno 17321 bound_to 7965
  139.5592  144.2198  152.1664 LP  0  0  0  0  0  0  0  0  0  0  0  0  # atno 17342 bound_to 10162
  140.1461  144.5158  150.6715 LP  0  0  0  0  0  0  0  0  0  0  0  0  # atno 17343 bound_to 10162
  157.6767  131.0848  150.7476 LP  0  0  0  0  0  0  0  0  0  0  0  0  # atno 17370 bound_to 10713
  156.7537  130.4776  149.5451 LP  0  0  0  0  0  0  0  0  0  0  0  0  # atno 17371 bound_to 10713
  140.1865  134.4425  155.7741 LP  0  0  0  0  0  0  0  0  0  0  0  0  # atno 17394 bound_to 11000
  141.2223  133.7007  156.7955 LP  0  0  0  0  0  0  0  0  0  0  0  0  # atno 17395 bound_to 11000

$$$$
