AV-unprocessed.smi:2524|AV-procd|sdf|9923|dock3
  -GOLD-   2272013563D 1   1.00000     0.00000
 Structure written by MMmdl.
 37 38  0  0  0  0  0  0  0  0  2 V2000
  146.5413  134.2891  162.6195 C   0  0  0  0  0  0  0  0  0  0  0  0
  147.0587  135.5246  162.5464 C   0  0  0  0  0  0  0  0  0  0  0  0
  147.1873  136.3274  161.2690 C   0  0  0  0  0  0  0  0  0  0  0  0
  148.6458  136.4442  160.8108 C   0  0  0  0  0  0  0  0  0  0  0  0
  148.7484  136.5937  158.9791 S   0  0  0  0  0  0  0  0  0  0  0  0
  149.4531  135.4142  158.4540 O   0  0  0  0  0  0  0  0  0  0  0  0
  147.4229  136.9478  158.4503 O   0  0  0  0  0  0  0  0  0  0  0  0
  149.7741  137.9660  158.7719 N   0  0  0  0  0  0  0  0  0  0  0  0
  151.0799  137.7873  158.1309 C   0  0  0  0  0  0  0  0  0  0  0  0
  151.9982  138.9796  158.3740 C   0  0  0  0  0  0  0  0  0  0  0  0
  151.4525  140.2401  157.7630 C   0  0  0  0  0  0  0  0  0  0  0  0
  150.8950  140.2375  156.4637 C   0  0  0  0  0  0  0  0  0  0  0  0
  150.3704  141.4316  155.9291 C   0  0  0  0  0  0  0  0  0  0  0  0
  150.4076  142.5675  156.6585 N   0  3  0  0  0  0  0  0  0  0  0  0
  150.9337  142.6200  157.9009 C   0  0  0  0  0  0  0  0  0  0  0  0
  151.4711  141.4550  158.4848 C   0  0  0  0  0  0  0  0  0  0  0  0
  152.7202  139.0839  159.7020 C   0  0  0  0  0  0  0  0  0  0  0  0
  153.4971  138.7719  158.4491 C   0  0  0  0  0  0  0  0  0  0  0  0
  146.1754  133.7796  161.7402 H   0  0  0  0  0  0  0  0  0  0  0  0
  146.4770  133.7705  163.5648 H   0  0  0  0  0  0  0  0  0  0  0  0
  147.4129  136.0011  163.4490 H   0  0  0  0  0  0  0  0  0  0  0  0
  146.5853  135.8687  160.4837 H   0  0  0  0  0  0  0  0  0  0  0  0
  146.7724  137.3202  161.4452 H   0  0  0  0  0  0  0  0  0  0  0  0
  149.1201  137.3220  161.2501 H   0  0  0  0  0  0  0  0  0  0  0  0
  149.2189  135.5677  161.1139 H   0  0  0  0  0  0  0  0  0  0  0  0
  149.2658  138.7498  158.3626 H   0  0  0  0  0  0  0  0  0  0  0  0
  151.5562  136.8760  158.4951 H   0  0  0  0  0  0  0  0  0  0  0  0
  150.9238  137.6561  157.0598 H   0  0  0  0  0  0  0  0  0  0  0  0
  150.8583  139.3247  155.8870 H   0  0  0  0  0  0  0  0  0  0  0  0
  149.9225  141.5108  154.9494 H   0  0  0  0  0  0  0  0  0  0  0  0
  150.9065  143.5837  158.3880 H   0  0  0  0  0  0  0  0  0  0  0  0
  151.8864  141.4918  159.4815 H   0  0  0  0  0  0  0  0  0  0  0  0
  152.8553  140.0723  160.1370 H   0  0  0  0  0  0  0  0  0  0  0  0
  152.6025  138.2726  160.4179 H   0  0  0  0  0  0  0  0  0  0  0  0
  153.8798  137.7578  158.3513 H   0  0  0  0  0  0  0  0  0  0  0  0
  154.1442  139.5535  158.0559 H   0  0  0  0  0  0  0  0  0  0  0  0
  150.0207  143.4211  156.2551 H   0  0  0  0  0  0  0  0  0  0  0  0
  1  2  2  0  0  0  0
  1 19  1  0  0  0  0
  1 20  1  0  0  0  0
  2  3  1  0  0  0  0
  2 21  1  0  0  0  0
  3  4  1  0  0  0  0
  3 22  1  0  0  0  0
  3 23  1  0  0  0  0
  4  5  1  0  0  0  0
  4 24  1  0  0  0  0
  4 25  1  0  0  0  0
  5  6  2  0  0  0  0
  5  7  2  0  0  0  0
  5  8  1  0  0  0  0
  8  9  1  0  0  0  0
  8 26  1  0  0  0  0
  9 10  1  0  0  0  0
  9 27  1  0  0  0  0
  9 28  1  0  0  0  0
 10 18  1  0  0  0  0
 10 11  1  0  0  0  0
 10 17  1  0  0  0  0
 11 16  1  0  0  0  0
 11 12  2  0  0  0  0
 12 13  1  0  0  0  0
 12 29  1  0  0  0  0
 13 14  2  0  0  0  0
 13 30  1  0  0  0  0
 14 15  1  0  0  0  0
 14 37  1  0  0  0  0
 15 16  2  0  0  0  0
 15 31  1  0  0  0  0
 16 32  1  0  0  0  0
 17 18  1  0  0  0  0
 17 33  1  0  0  0  0
 17 34  1  0  0  0  0
 18 35  1  0  0  0  0
 18 36  1  0  0  0  0
M  CHG  1  14   1
M  END
> <s_m_source_file>
AV-unprocessed.smi

> <i_m_source_file_index>
2524

> <i_lp_mmshare_version>
43012

> <i_f3d_flags>
0

> <s_epik_input>
W0NIMl09W0NIXVtDSDJdW0NIMl1TKD1PKSg9TylbTkhdW0NIMl1DMShbQ0gyXVtDSDJdMSljMltjSF1bY0hdbltjSF1bY0hdMg==

> <s_epik_cmdline>
J2VwaWtfcHl0aG9uJywgJy1waCcsICc3LjAnLCAnLXRuJywgJzgnLCAnLW1hJywgJzIwMCcsICctbWV0YWxfYmluZGluZycsICctaW1hZScsICc8aW5maWxlLm1hZT4nLCAnLW9tYWUnLCAnPG91dGZpbGUubWFlPic=

> <r_epik_Ionization_Penalty>
1.70311

> <r_epik_Ionization_Penalty_Charging>
1.7031

> <r_epik_Ionization_Penalty_Neutral>
1.31612e-05

> <r_epik_State_Penalty>
1.80925

> <r_epik_Charging_Adjusted_Penalty>
3.51235

> <i_epik_Tot_Q>
1

> <i_epik_Tot_abs_Q>
1

> <r_epik_Metal_State_Penalty>
1.86078

> <b_epik_Metal_Only>
0

> <s_lp_Force_Field>
OPLS_2005

> <r_lp_Energy>
15.9515

> <b_lp_Chiralities_Consistent>
1

> <s_lp_Variant>
AV-unprocessed.smi:2524-2

> <Gold.Version>
5.8.1

> <Gold.Id.Protein>
6NUR|6NUR_protein|mol2

> <Gold.PLP.Fitness>
39.0489

> <Gold.PLP.PLP>
-31.0381

> <Gold.PLP.part.hbond>
-2.0000

> <Gold.PLP.part.metal>
0.0000

> <Gold.PLP.part.buried>
-4.0559

> <Gold.PLP.part.nonpolar>
-25.5479

> <Gold.PLP.part.repulsive>
0.0732

> <Gold.PLP.ligand.clash>
0.0000

> <Gold.PLP.ligand.torsion>
1.2810

> <Gold.PLP.Chemscore.Hbond>
3.0000

> <Gold.PLP.Chemscore.CHOScore>
0.0000

> <Gold.PLP.Chemscore.Metal>
0.0000

> <Gold.Chemscore.Hbonds>
donor molecule, donor type, donor heavy atom, donor atom, acceptor molecule, acceptor atom, score
      L1  H    14    37       P1  8028  2.00
      P1  H  6896  6907       L1     6  0.99

> <Gold.PLP.Chemscore.Internal.Correction>
1.5728

> <Gold.Rescore>
     Score         DG    S(hbond)    S(metal)    S(lipo)     H(rot)  DE(clash)    DE(int)     intcor
     15.74     -16.85       1.98        0.00      83.98       1.97       0.08       1.04       ----

> <Gold.Chemscore.Fitness>
15.7359

> <Gold.Chemscore.DG>
-16.8521

> <Gold.Chemscore.ZeroCoef>
-5.4800

> <Gold.Chemscore.Hbond>
1.9764

> <Gold.Chemscore.Metal>
0.0000

> <Gold.Chemscore.Lipo>
83.9797

> <Gold.Chemscore.Internal_Hbond>
0.0000

> <Gold.Chemscore.DEClash>
0.0801

> <Gold.Chemscore.DEInternal>
1.0361

> <Gold.Chemscore.Rot>
1.9744

> <Gold.Chemscore.Internal.Correction>
   9.000000E+99

> <Gold.Chemscore.Hbonds>
donor molecule, donor type, donor heavy atom, donor atom, acceptor molecule, acceptor atom, score
      L1  H    14    37       P1  8028  1.00
      P1  H  6896  6907       L1     6  0.94

> <Gold.Chemscore.Hbond.Weighted>
-6.6010

> <Gold.Chemscore.Metal.Weighted>
-0.0000

> <Gold.Chemscore.Lipo.Weighted>
-9.8256

> <Gold.Chemscore.Internal_Hbond.Weighted>
0.0000

> <Gold.Chemscore.DEClash.Weighted>
0.0801

> <Gold.Chemscore.DEInternal.Weighted>
1.0361

> <Gold.Chemscore.Rot.Weighted>
5.0546

> <Gold.Chemscore.Internal.Correction.Weighted>
   9.000000E+99

> <Gold.Protein.RotatedTorsions>
[ 6907 6896 6895 6894 ] final  -91.73 input  -60.11 | X-H torsion
[ 7974 7965 7964 7962 ] final -147.33 input  175.53 | X-H torsion
[ 8008 7997 7996 7995 ] final  107.71 input   59.86 | X-H torsion
[ 10167 10162 10161 10158 ] final   95.43 input  -65.29 | X-H torsion
[ 10718 10713 10712 10709 ] final  117.09 input   66.30 | X-H torsion
[ 10763 10752 10751 10750 ] final  112.44 input  -60.55 | X-H torsion
[ 11005 11000 10999 10996 ] final  106.40 input  -57.11 | X-H torsion

> <Gold.Protein.ActiveResidues>
 VAL166  LYS551  ARG553  GLY616  TRP617  ASP618  TYR619  PRO620  LYS621  CYS622 
 ASP623  PHE694  ASN695  SER759  ASP760  ASP761  ALA762  ILE779  LEU786  VAL792 
 PHE793  MET794  SER795  GLU796  ALA797  LYS798  CYS799  TRP800  GLU811  SER814 

> <Gold.Protein.RotatedAtoms>
  150.6896  134.2232  159.4404 H   0  0  0  0  0  0  0  0  0  0  0  0  # atno 6907 bound_to 6896
  152.0187  134.9833  160.0579 H   0  0  0  0  0  0  0  0  0  0  0  0  # atno 6908 bound_to 6896
  152.1418  133.4434  159.4807 H   0  0  0  0  0  0  0  0  0  0  0  0  # atno 6909 bound_to 6896
  144.8100  140.5341  143.5648 H   0  0  0  0  0  0  0  0  0  0  0  0  # atno 7974 bound_to 7965
  156.1846  140.3090  155.9213 H   0  0  0  0  0  0  0  0  0  0  0  0  # atno 8008 bound_to 7997
  155.3310  140.0460  157.3059 H   0  0  0  0  0  0  0  0  0  0  0  0  # atno 8009 bound_to 7997
  154.5381  140.2252  155.8698 H   0  0  0  0  0  0  0  0  0  0  0  0  # atno 8010 bound_to 7997
  139.7989  144.6822  150.9791 H   0  0  0  0  0  0  0  0  0  0  0  0  # atno 10167 bound_to 10162
  157.6119  131.1033  150.7565 H   0  0  0  0  0  0  0  0  0  0  0  0  # atno 10718 bound_to 10713
  153.4779  135.3686  155.2426 H   0  0  0  0  0  0  0  0  0  0  0  0  # atno 10763 bound_to 10752
  154.8756  135.3947  154.3735 H   0  0  0  0  0  0  0  0  0  0  0  0  # atno 10764 bound_to 10752
  153.4334  135.7083  153.6281 H   0  0  0  0  0  0  0  0  0  0  0  0  # atno 10765 bound_to 10752
  139.8814  134.9368  156.5661 H   0  0  0  0  0  0  0  0  0  0  0  0  # atno 11005 bound_to 11000
  145.5345  139.1475  143.3481 LP  0  0  0  0  0  0  0  0  0  0  0  0  # atno 17320 bound_to 7965
  146.2398  140.5486  142.8939 LP  0  0  0  0  0  0  0  0  0  0  0  0  # atno 17321 bound_to 7965
  140.7820  143.4302  151.0706 LP  0  0  0  0  0  0  0  0  0  0  0  0  # atno 17342 bound_to 10162
  139.7975  143.8131  152.3159 LP  0  0  0  0  0  0  0  0  0  0  0  0  # atno 17343 bound_to 10162
  156.7941  130.4899  149.5380 LP  0  0  0  0  0  0  0  0  0  0  0  0  # atno 17370 bound_to 10713
  156.1225  130.6120  151.0215 LP  0  0  0  0  0  0  0  0  0  0  0  0  # atno 17371 bound_to 10713
  140.8133  133.8412  155.8829 LP  0  0  0  0  0  0  0  0  0  0  0  0  # atno 17394 bound_to 11000
  140.9486  134.1808  157.4744 LP  0  0  0  0  0  0  0  0  0  0  0  0  # atno 17395 bound_to 11000

$$$$
