AV-unprocessed.smi:446|AV-procd|sdf|2595|dock2
  -GOLD-   2262022593D 1   1.00000     0.00000
 Structure written by MMmdl.
 36 38  0  0  0  0  0  0  0  0  2 V2000
  151.7998  137.8681  154.4844 C   0  0  0  0  0  0  0  0  0  0  0  0
  150.6155  138.7669  154.3609 C   0  0  0  0  0  0  0  0  0  0  0  0
  149.5042  138.5298  153.6081 N   0  3  0  0  0  0  0  0  0  0  0  0
  148.6077  139.5912  153.7415 C   0  0  0  0  0  0  0  0  0  0  0  0
  147.3535  139.8029  153.1771 C   0  0  0  0  0  0  0  0  0  0  0  0
  146.6971  141.0019  153.5256 C   0  0  0  0  0  0  0  0  0  0  0  0
  147.2888  141.9357  154.4012 C   0  0  0  0  0  0  0  0  0  0  0  0
  148.5614  141.7107  154.9662 C   0  0  0  0  0  0  0  0  0  0  0  0
  149.2018  140.5220  154.6180 C   0  0  0  0  0  0  0  0  0  0  0  0
  150.4375  139.9720  154.9742 N   0  0  0  0  0  0  0  0  0  0  0  0
  151.3121  140.7113  155.8967 C   0  0  0  0  0  0  0  0  0  0  0  0
  151.4870  140.0068  157.2571 C   0  0  2  0  0  0  0  0  0  0  0  0
  150.3627  139.1904  157.5215 O   0  0  0  0  0  0  0  0  0  0  0  0
  151.7404  141.0127  158.3684 C   0  0  0  0  0  0  0  0  0  0  0  0
  152.7777  140.7893  159.2993 C   0  0  0  0  0  0  0  0  0  0  0  0
  153.0255  141.7237  160.3238 C   0  0  0  0  0  0  0  0  0  0  0  0
  152.2392  142.8874  160.4220 C   0  0  0  0  0  0  0  0  0  0  0  0
  152.4792  143.7862  161.4058 F   0  0  0  0  0  0  0  0  0  0  0  0
  151.2044  143.1168  159.4951 C   0  0  0  0  0  0  0  0  0  0  0  0
  150.9559  142.1826  158.4706 C   0  0  0  0  0  0  0  0  0  0  0  0
  151.6751  136.9811  153.8628 H   0  0  0  0  0  0  0  0  0  0  0  0
  151.9255  137.5508  155.5197 H   0  0  0  0  0  0  0  0  0  0  0  0
  152.7034  138.3887  154.1672 H   0  0  0  0  0  0  0  0  0  0  0  0
  146.8986  139.0894  152.5058 H   0  0  0  0  0  0  0  0  0  0  0  0
  145.7205  141.2094  153.1128 H   0  0  0  0  0  0  0  0  0  0  0  0
  146.7557  142.8434  154.6448 H   0  0  0  0  0  0  0  0  0  0  0  0
  149.0075  142.4320  155.6349 H   0  0  0  0  0  0  0  0  0  0  0  0
  152.2765  140.8586  155.4089 H   0  0  0  0  0  0  0  0  0  0  0  0
  150.8851  141.7054  156.0345 H   0  0  0  0  0  0  0  0  0  0  0  0
  152.3469  139.3384  157.2015 H   0  0  0  0  0  0  0  0  0  0  0  0
  150.4595  138.3826  157.0404 H   0  0  0  0  0  0  0  0  0  0  0  0
  153.3891  139.9015  159.2313 H   0  0  0  0  0  0  0  0  0  0  0  0
  153.8203  141.5484  161.0336 H   0  0  0  0  0  0  0  0  0  0  0  0
  150.6023  144.0104  159.5684 H   0  0  0  0  0  0  0  0  0  0  0  0
  150.1630  142.3691  157.7609 H   0  0  0  0  0  0  0  0  0  0  0  0
  149.3710  137.6998  153.0449 H   0  0  0  0  0  0  0  0  0  0  0  0
  1  2  1  0  0  0  0
  1 21  1  0  0  0  0
  1 22  1  0  0  0  0
  1 23  1  0  0  0  0
  2 10  1  0  0  0  0
  2  3  2  0  0  0  0
  3  4  1  0  0  0  0
  3 36  1  0  0  0  0
  4  9  2  0  0  0  0
  4  5  1  0  0  0  0
  5  6  2  0  0  0  0
  5 24  1  0  0  0  0
  6  7  1  0  0  0  0
  6 25  1  0  0  0  0
  7  8  2  0  0  0  0
  7 26  1  0  0  0  0
  8  9  1  0  0  0  0
  8 27  1  0  0  0  0
  9 10  1  0  0  0  0
 10 11  1  0  0  0  0
 11 12  1  0  0  0  0
 11 28  1  0  0  0  0
 11 29  1  0  0  0  0
 12 13  1  0  0  0  0
 12 14  1  0  0  0  0
 12 30  1  0  0  0  0
 13 31  1  0  0  0  0
 14 20  1  0  0  0  0
 14 15  2  0  0  0  0
 15 16  1  0  0  0  0
 15 32  1  0  0  0  0
 16 17  2  0  0  0  0
 16 33  1  0  0  0  0
 17 18  1  0  0  0  0
 17 19  1  0  0  0  0
 19 20  2  0  0  0  0
 19 34  1  0  0  0  0
 20 35  1  0  0  0  0
M  CHG  1   3   1
M  END
> <s_m_source_file>
AV-unprocessed.smi

> <i_m_source_file_index>
446

> <i_lp_mmshare_version>
43012

> <i_f3d_flags>
0

> <s_epik_input>
W2NIXTFbY0hdW2NIXVtjSF1jKGMxMiluKGMobjIpW0NIM10pW0NIMl1bQ0BIXShbT0hdKWMzW2NIXVtjSF1jKEYpW2NIXVtjSF0z

> <s_epik_cmdline>
J2VwaWtfcHl0aG9uJywgJy1waCcsICc3LjAnLCAnLXRuJywgJzgnLCAnLW1hJywgJzIwMCcsICctbWV0YWxfYmluZGluZycsICctaW1hZScsICc8aW5maWxlLm1hZT4nLCAnLW9tYWUnLCAnPG91dGZpbGUubWFlPic=

> <r_epik_Ionization_Penalty>
0.963869

> <r_epik_Ionization_Penalty_Charging>
0.963868

> <r_epik_Ionization_Penalty_Neutral>
1.79538e-06

> <r_epik_State_Penalty>
1.00924

> <r_epik_Charging_Adjusted_Penalty>
1.9731

> <i_epik_Tot_Q>
1

> <i_epik_Tot_abs_Q>
1

> <r_epik_Metal_State_Penalty>
4.98304

> <b_epik_Metal_Only>
0

> <s_lp_Force_Field>
OPLS_2005

> <r_lp_Energy>
14.7156

> <b_lp_Chiralities_Consistent>
1

> <s_lp_Variant>
AV-unprocessed.smi:446-3

> <Gold.Version>
5.8.1

> <Gold.Id.Protein>
6NUR|6NUR_protein|mol2

> <Gold.PLP.Fitness>
50.3688

> <Gold.PLP.PLP>
-46.0517

> <Gold.PLP.part.hbond>
-2.0000

> <Gold.PLP.part.metal>
0.0000

> <Gold.PLP.part.buried>
1.3373

> <Gold.PLP.part.nonpolar>
-45.2093

> <Gold.PLP.part.repulsive>
0.0686

> <Gold.PLP.ligand.clash>
0.0000

> <Gold.PLP.ligand.torsion>
0.8532

> <Gold.PLP.Chemscore.Hbond>
2.0000

> <Gold.PLP.Chemscore.CHOScore>
0.0000

> <Gold.PLP.Chemscore.Metal>
0.0000

> <Gold.Chemscore.Hbonds>
donor molecule, donor type, donor heavy atom, donor atom, acceptor molecule, acceptor atom, score
      L1  H     3    36       P1  7948  2.00

> <Gold.PLP.Chemscore.Internal.Correction>
0.0236

> <Gold.Rescore>
     Score         DG    S(hbond)    S(metal)    S(lipo)     H(rot)  DE(clash)    DE(int)     intcor
     16.19     -16.87       0.93        0.00     111.16       1.85       0.11       0.57       ----

> <Gold.Chemscore.Fitness>
16.1907

> <Gold.Chemscore.DG>
-16.8692

> <Gold.Chemscore.ZeroCoef>
-5.4800

> <Gold.Chemscore.Hbond>
0.9313

> <Gold.Chemscore.Metal>
0.0000

> <Gold.Chemscore.Lipo>
111.1586

> <Gold.Chemscore.Internal_Hbond>
0.0000

> <Gold.Chemscore.DEClash>
0.1074

> <Gold.Chemscore.DEInternal>
0.5711

> <Gold.Chemscore.Rot>
1.8465

> <Gold.Chemscore.Internal.Correction>
   9.000000E+99

> <Gold.Chemscore.Hbonds>
donor molecule, donor type, donor heavy atom, donor atom, acceptor molecule, acceptor atom, score
      L1  H     3    36       P1  7948  0.94

> <Gold.Chemscore.Hbond.Weighted>
-3.1107

> <Gold.Chemscore.Metal.Weighted>
-0.0000

> <Gold.Chemscore.Lipo.Weighted>
-13.0056

> <Gold.Chemscore.Internal_Hbond.Weighted>
0.0000

> <Gold.Chemscore.DEClash.Weighted>
0.1074

> <Gold.Chemscore.DEInternal.Weighted>
0.5711

> <Gold.Chemscore.Rot.Weighted>
4.7270

> <Gold.Chemscore.Internal.Correction.Weighted>
   9.000000E+99

> <Gold.Protein.RotatedTorsions>
[ 6907 6896 6895 6894 ] final   30.15 input  -60.11 | X-H torsion
[ 7974 7965 7964 7962 ] final   93.21 input  175.53 | X-H torsion
[ 8008 7997 7996 7995 ] final   70.31 input   59.86 | X-H torsion
[ 10167 10162 10161 10158 ] final   44.11 input  -65.29 | X-H torsion
[ 10718 10713 10712 10709 ] final   90.05 input   66.30 | X-H torsion
[ 10763 10752 10751 10750 ] final  -54.29 input  -60.55 | X-H torsion
[ 11005 11000 10999 10996 ] final  103.14 input  -57.11 | X-H torsion

> <Gold.Protein.ActiveResidues>
 VAL166  LYS551  ARG553  GLY616  TRP617  ASP618  TYR619  PRO620  LYS621  CYS622 
 ASP623  PHE694  ASN695  SER759  ASP760  ASP761  ALA762  ILE779  LEU786  VAL792 
 PHE793  MET794  SER795  GLU796  ALA797  LYS798  CYS799  TRP800  GLU811  SER814 

> <Gold.Protein.RotatedAtoms>
  152.0418  134.9707  160.0573 H   0  0  0  0  0  0  0  0  0  0  0  0  # atno 6907 bound_to 6896
  152.1142  133.4313  159.4653 H   0  0  0  0  0  0  0  0  0  0  0  0  # atno 6908 bound_to 6896
  150.6845  134.2530  159.4562 H   0  0  0  0  0  0  0  0  0  0  0  0  # atno 6909 bound_to 6896
  145.4819  139.2278  143.2877 H   0  0  0  0  0  0  0  0  0  0  0  0  # atno 7974 bound_to 7965
  155.7369  140.3491  155.5085 H   0  0  0  0  0  0  0  0  0  0  0  0  # atno 8008 bound_to 7997
  155.9131  140.1054  157.1286 H   0  0  0  0  0  0  0  0  0  0  0  0  # atno 8009 bound_to 7997
  154.4058  140.1264  156.4569 H   0  0  0  0  0  0  0  0  0  0  0  0  # atno 8010 bound_to 7997
  140.3376  144.2511  150.6159 H   0  0  0  0  0  0  0  0  0  0  0  0  # atno 10167 bound_to 10162
  157.6958  131.0356  150.3519 H   0  0  0  0  0  0  0  0  0  0  0  0  # atno 10718 bound_to 10713
  154.1725  135.6457  153.5013 H   0  0  0  0  0  0  0  0  0  0  0  0  # atno 10763 bound_to 10752
  153.0080  135.5387  154.6598 H   0  0  0  0  0  0  0  0  0  0  0  0  # atno 10764 bound_to 10752
  154.5941  135.2937  155.0577 H   0  0  0  0  0  0  0  0  0  0  0  0  # atno 10765 bound_to 10752
  139.8782  134.9251  156.5164 H   0  0  0  0  0  0  0  0  0  0  0  0  # atno 11005 bound_to 11000
  146.2336  140.5607  142.8965 LP  0  0  0  0  0  0  0  0  0  0  0  0  # atno 17320 bound_to 7965
  144.7884  140.5982  143.6558 LP  0  0  0  0  0  0  0  0  0  0  0  0  # atno 17321 bound_to 7965
  140.5339  143.2237  151.8194 LP  0  0  0  0  0  0  0  0  0  0  0  0  # atno 17342 bound_to 10162
  139.4846  144.4685  151.9454 LP  0  0  0  0  0  0  0  0  0  0  0  0  # atno 17343 bound_to 10162
  156.3967  130.3908  149.6990 LP  0  0  0  0  0  0  0  0  0  0  0  0  # atno 17370 bound_to 10713
  156.4321  130.7820  151.2840 LP  0  0  0  0  0  0  0  0  0  0  0  0  # atno 17371 bound_to 10713
  140.8482  133.8152  155.9142 LP  0  0  0  0  0  0  0  0  0  0  0  0  # atno 17394 bound_to 11000
  140.9170  134.2189  157.4950 LP  0  0  0  0  0  0  0  0  0  0  0  0  # atno 17395 bound_to 11000

$$$$
