AV-unprocessed.smi:287|AV-procd|sdf|2201|dock1
  -GOLD-   2262022 13D 1   1.00000     0.00000
 Structure written by MMmdl.
 55 58  0  0  0  0  0  0  0  0  1 V2000
  141.1095  130.1159  159.5944 C   0  0  0  0  0  0  0  0  0  0  0  0
  142.4967  129.5816  159.4905 C   0  0  0  0  0  0  0  0  0  0  0  0
  143.6923  129.9457  160.0378 C   0  0  0  0  0  0  0  0  0  0  0  0
  144.6788  129.0373  159.5502 C   0  0  0  0  0  0  0  0  0  0  0  0
  146.1613  129.0601  159.8973 C   0  0  1  0  0  0  0  0  0  0  0  0
  146.3385  129.1234  161.4236 C   0  0  0  0  0  0  0  0  0  0  0  0
  146.8405  127.8876  159.4908 O   0  0  0  0  0  0  0  0  0  0  0  0
  146.9033  130.2394  159.2280 C   0  0  0  0  0  0  0  0  0  0  0  0
  146.9352  130.1379  157.7745 N   0  0  0  0  0  0  0  0  0  0  0  0
  146.6380  131.1984  156.9948 C   0  0  0  0  0  0  0  0  0  0  0  0
  146.4026  132.3567  157.6557 N   0  0  0  0  0  0  0  0  0  0  0  0
  146.1039  133.4678  156.9781 C   0  0  0  0  0  0  0  0  0  0  0  0
  145.9917  133.6346  155.6598 N   0  0  0  0  0  0  0  0  0  0  0  0
  146.2236  132.4724  154.9836 C   0  0  0  0  0  0  0  0  0  0  0  0
  146.5511  131.2156  155.5704 C   0  0  0  0  0  0  0  0  0  0  0  0
  146.7132  130.2697  154.5630 N   0  0  0  0  0  0  0  0  0  0  0  0
  146.4975  130.9299  153.4583 C   0  0  0  0  0  0  0  0  0  0  0  0
  146.1912  132.2615  153.6193 N   0  0  0  0  0  0  0  0  0  0  0  0
  145.8918  133.2643  152.5480 C   0  0  2  0  0  0  0  0  0  0  0  0
  144.8437  132.7774  151.7710 O   0  0  0  0  0  0  0  0  0  0  0  0
  145.0404  133.1798  150.4212 C   0  0  2  0  0  0  0  0  0  0  0  0
  144.1967  132.3253  149.4584 C   0  0  0  0  0  0  0  0  0  0  0  0
  144.3535  132.7894  148.1345 O   0  0  0  0  0  0  0  0  0  0  0  0
  146.5623  133.0735  150.2448 C   0  0  2  0  0  0  0  0  0  0  0  0
  146.9477  131.7485  149.9201 O   0  0  0  0  0  0  0  0  0  0  0  0
  147.0875  133.5269  151.6069 C   0  0  2  0  0  0  0  0  0  0  0  0
  148.3131  132.9177  151.9805 O   0  0  0  0  0  0  0  0  0  0  0  0
  143.9867  128.1715  158.7375 C   0  0  0  0  0  0  0  0  0  0  0  0
  144.3716  126.9831  157.9190 C   0  0  0  0  0  0  0  0  0  0  0  0
  142.6643  128.4965  158.6939 O   0  0  0  0  0  0  0  0  0  0  0  0
  145.5769  134.1593  153.0865 H   0  0  0  0  0  0  0  0  0  0  0  0
  144.7619  134.2319  150.3313 H   0  0  0  0  0  0  0  0  0  0  0  0
  146.9144  133.7249  149.4444 H   0  0  0  0  0  0  0  0  0  0  0  0
  147.2405  134.6065  151.5859 H   0  0  0  0  0  0  0  0  0  0  0  0
  141.1019  131.0836  160.0961 H   0  0  0  0  0  0  0  0  0  0  0  0
  140.4755  129.4350  160.1626 H   0  0  0  0  0  0  0  0  0  0  0  0
  140.6685  130.2451  158.6058 H   0  0  0  0  0  0  0  0  0  0  0  0
  143.8452  130.7759  160.7115 H   0  0  0  0  0  0  0  0  0  0  0  0
  145.8797  130.0215  161.8385 H   0  0  0  0  0  0  0  0  0  0  0  0
  147.3926  129.1371  161.7038 H   0  0  0  0  0  0  0  0  0  0  0  0
  145.8775  128.2644  161.9127 H   0  0  0  0  0  0  0  0  0  0  0  0
  146.2206  127.3130  159.0687 H   0  0  0  0  0  0  0  0  0  0  0  0
  146.3749  131.1616  159.4734 H   0  0  0  0  0  0  0  0  0  0  0  0
  147.9146  130.3366  159.6251 H   0  0  0  0  0  0  0  0  0  0  0  0
  147.1521  129.2229  157.4060 H   0  0  0  0  0  0  0  0  0  0  0  0
  145.9292  134.3492  157.5774 H   0  0  0  0  0  0  0  0  0  0  0  0
  146.5523  130.4578  152.4882 H   0  0  0  0  0  0  0  0  0  0  0  0
  144.5344  131.2889  149.4816 H   0  0  0  0  0  0  0  0  0  0  0  0
  143.1429  132.3320  149.7395 H   0  0  0  0  0  0  0  0  0  0  0  0
  145.1205  133.3406  148.0988 H   0  0  0  0  0  0  0  0  0  0  0  0
  147.8111  131.5947  150.2753 H   0  0  0  0  0  0  0  0  0  0  0  0
  148.6312  132.4096  151.2501 H   0  0  0  0  0  0  0  0  0  0  0  0
  144.8756  126.2374  158.5340 H   0  0  0  0  0  0  0  0  0  0  0  0
  145.0467  127.2716  157.1132 H   0  0  0  0  0  0  0  0  0  0  0  0
  143.4968  126.5107  157.4713 H   0  0  0  0  0  0  0  0  0  0  0  0
  1  2  1  0  0  0  0
  1 35  1  0  0  0  0
  1 36  1  0  0  0  0
  1 37  1  0  0  0  0
  2 30  1  0  0  0  0
  2  3  2  0  0  0  0
  3  4  1  0  0  0  0
  3 38  1  0  0  0  0
  4  5  1  0  0  0  0
  4 28  2  0  0  0  0
  5  6  1  0  0  0  0
  5  7  1  0  0  0  0
  5  8  1  0  0  0  0
  6 39  1  0  0  0  0
  6 40  1  0  0  0  0
  6 41  1  0  0  0  0
  7 42  1  0  0  0  0
  8  9  1  0  0  0  0
  8 43  1  0  0  0  0
  8 44  1  0  0  0  0
  9 10  1  0  0  0  0
  9 45  1  0  0  0  0
 10 15  1  0  0  0  0
 10 11  2  0  0  0  0
 11 12  1  0  0  0  0
 12 13  2  0  0  0  0
 12 46  1  0  0  0  0
 13 14  1  0  0  0  0
 14 18  1  0  0  0  0
 14 15  2  0  0  0  0
 15 16  1  0  0  0  0
 16 17  2  0  0  0  0
 17 18  1  0  0  0  0
 17 47  1  0  0  0  0
 18 19  1  0  0  0  0
 19 31  1  0  0  0  0
 19 26  1  0  0  0  0
 19 20  1  0  0  0  0
 20 21  1  0  0  0  0
 21 32  1  0  0  0  0
 21 22  1  0  0  0  0
 21 24  1  0  0  0  0
 22 23  1  0  0  0  0
 22 48  1  0  0  0  0
 22 49  1  0  0  0  0
 23 50  1  0  0  0  0
 24 33  1  0  0  0  0
 24 25  1  0  0  0  0
 24 26  1  0  0  0  0
 25 51  1  0  0  0  0
 26 34  1  0  0  0  0
 26 27  1  0  0  0  0
 27 52  1  0  0  0  0
 28 29  1  0  0  0  0
 28 30  1  0  0  0  0
 29 53  1  0  0  0  0
 29 54  1  0  0  0  0
 29 55  1  0  0  0  0
M  END
> <s_m_source_file>
AV-unprocessed.smi

> <i_m_source_file_index>
287

> <i_lp_mmshare_version>
43012

> <i_f3d_flags>
0

> <s_epik_input>
W0NIM11jMVtjSF1jKGMobzEpW0NIM10pW0NAQF0oW0NIM10pKFtPSF0pW0NIMl1bTkhdYyhuW2NIXW4yKWMoYzIzKW5bY0hdbjNbQ0BASF00T1tDQEhdKFtDSDJdW09IXSlbQ0BASF0oW09IXSlbQ0BIXTRbT0hd

> <s_epik_cmdline>
J2VwaWtfcHl0aG9uJywgJy1waCcsICc3LjAnLCAnLXRuJywgJzgnLCAnLW1hJywgJzIwMCcsICctbWV0YWxfYmluZGluZycsICctaW1hZScsICc8aW5maWxlLm1hZT4nLCAnLW9tYWUnLCAnPG91dGZpbGUubWFlPic=

> <r_lp_tautomer_probability>
1

> <r_epik_Ionization_Penalty>
0.000992612

> <r_epik_Ionization_Penalty_Charging>
0

> <r_epik_Ionization_Penalty_Neutral>
0.000992612

> <r_epik_State_Penalty>
-0

> <r_epik_Charging_Adjusted_Penalty>
0

> <i_epik_Tot_Q>
0

> <i_epik_Tot_abs_Q>
0

> <r_epik_Metal_State_Penalty>
-0

> <b_epik_Metal_Only>
0

> <s_epik_Chemistry_Notes>
This compound contains an acetal/aminal-like group ( X-CH(R)-Y where X, Y are N, S, or O) that may be acid/base labile, releasing an aldehyde.

> <s_lp_Force_Field>
OPLS_2005

> <r_lp_Energy>
50.9422

> <b_lp_Chiralities_Consistent>
1

> <s_lp_Variant>
AV-unprocessed.smi:287-25

> <Gold.Version>
5.8.1

> <Gold.Id.Protein>
6NUR|6NUR_protein|mol2

> <Gold.PLP.Fitness>
42.4969

> <Gold.PLP.PLP>
-34.2488

> <Gold.PLP.part.hbond>
-3.6337

> <Gold.PLP.part.metal>
0.0000

> <Gold.PLP.part.buried>
-7.8381

> <Gold.PLP.part.nonpolar>
-22.2404

> <Gold.PLP.part.repulsive>
0.5258

> <Gold.PLP.ligand.clash>
0.0000

> <Gold.PLP.ligand.torsion>
0.4920

> <Gold.PLP.Chemscore.Hbond>
3.0000

> <Gold.PLP.Chemscore.CHOScore>
0.0000

> <Gold.PLP.Chemscore.Metal>
0.0000

> <Gold.Chemscore.Hbonds>
donor molecule, donor type, donor heavy atom, donor atom, acceptor molecule, acceptor atom, score
      L1  H    23    50       P1  7921  1.00
      L1  H    25    51       P1 10747  0.58
      L1  H    27    52       P1 10747  1.00

> <Gold.PLP.Chemscore.Internal.Correction>
0.2322

> <Gold.Rescore>
     Score         DG    S(hbond)    S(metal)    S(lipo)     H(rot)  DE(clash)    DE(int)     intcor
      8.09      -9.32       2.94        0.00      64.00       5.27       0.08       1.15       ----

> <Gold.Chemscore.Fitness>
8.0932

> <Gold.Chemscore.DG>
-9.3170

> <Gold.Chemscore.ZeroCoef>
-5.4800

> <Gold.Chemscore.Hbond>
2.9439

> <Gold.Chemscore.Metal>
0.0000

> <Gold.Chemscore.Lipo>
64.0018

> <Gold.Chemscore.Internal_Hbond>
0.0000

> <Gold.Chemscore.DEClash>
0.0781

> <Gold.Chemscore.DEInternal>
1.1458

> <Gold.Chemscore.Rot>
5.2672

> <Gold.Chemscore.Internal.Correction>
   9.000000E+99

> <Gold.Chemscore.Hbonds>
donor molecule, donor type, donor heavy atom, donor atom, acceptor molecule, acceptor atom, score
      L1  H    23    50       P1  7921  0.39
      L1  H    25    51       P1 10747  0.56
      L1  H    27    52       P1 10747  0.99

> <Gold.Chemscore.Hbond.Weighted>
-9.8327

> <Gold.Chemscore.Metal.Weighted>
-0.0000

> <Gold.Chemscore.Lipo.Weighted>
-7.4882

> <Gold.Chemscore.Internal_Hbond.Weighted>
0.0000

> <Gold.Chemscore.DEClash.Weighted>
0.0781

> <Gold.Chemscore.DEInternal.Weighted>
1.1458

> <Gold.Chemscore.Rot.Weighted>
13.4839

> <Gold.Chemscore.Internal.Correction.Weighted>
   9.000000E+99

> <Gold.Protein.RotatedTorsions>
[ 6907 6896 6895 6894 ] final  -92.43 input  -60.11 | X-H torsion
[ 7974 7965 7964 7962 ] final  -95.15 input  175.53 | X-H torsion
[ 8008 7997 7996 7995 ] final  172.65 input   59.86 | X-H torsion
[ 10167 10162 10161 10158 ] final   76.53 input  -65.29 | X-H torsion
[ 10718 10713 10712 10709 ] final -138.57 input   66.30 | X-H torsion
[ 10763 10752 10751 10750 ] final   22.79 input  -60.55 | X-H torsion
[ 11005 11000 10999 10996 ] final  156.11 input  -57.11 | X-H torsion

> <Gold.Protein.ActiveResidues>
 VAL166  LYS551  ARG553  GLY616  TRP617  ASP618  TYR619  PRO620  LYS621  CYS622 
 ASP623  PHE694  ASN695  SER759  ASP760  ASP761  ALA762  ILE779  LEU786  VAL792 
 PHE793  MET794  SER795  GLU796  ALA797  LYS798  CYS799  TRP800  GLU811  SER814 

> <Gold.Protein.RotatedAtoms>
  150.6906  134.2124  159.4364 H   0  0  0  0  0  0  0  0  0  0  0  0  # atno 6907 bound_to 6896
  152.0084  134.9887  160.0576 H   0  0  0  0  0  0  0  0  0  0  0  0  # atno 6908 bound_to 6896
  152.1512  133.4488  159.4851 H   0  0  0  0  0  0  0  0  0  0  0  0  # atno 6909 bound_to 6896
  145.3639  140.9496  143.2485 H   0  0  0  0  0  0  0  0  0  0  0  0  # atno 7974 bound_to 7965
  156.1153  140.1480  156.9281 H   0  0  0  0  0  0  0  0  0  0  0  0  # atno 8008 bound_to 7997
  154.4796  140.0883  156.7388 H   0  0  0  0  0  0  0  0  0  0  0  0  # atno 8009 bound_to 7997
  155.4524  140.3435  155.4304 H   0  0  0  0  0  0  0  0  0  0  0  0  # atno 8010 bound_to 7997
  139.9913  144.5755  150.7815 H   0  0  0  0  0  0  0  0  0  0  0  0  # atno 10167 bound_to 10162
  156.3008  130.7428  151.1479 H   0  0  0  0  0  0  0  0  0  0  0  0  # atno 10718 bound_to 10713
  153.0888  135.6641  153.9895 H   0  0  0  0  0  0  0  0  0  0  0  0  # atno 10763 bound_to 10752
  153.9497  135.2985  155.3440 H   0  0  0  0  0  0  0  0  0  0  0  0  # atno 10764 bound_to 10752
  154.7300  135.5127  153.9021 H   0  0  0  0  0  0  0  0  0  0  0  0  # atno 10765 bound_to 10752
  140.1644  134.8587  157.2614 H   0  0  0  0  0  0  0  0  0  0  0  0  # atno 11005 bound_to 11000
  144.8626  139.5155  143.6805 LP  0  0  0  0  0  0  0  0  0  0  0  0  # atno 17320 bound_to 7965
  146.2915  139.7154  142.9157 LP  0  0  0  0  0  0  0  0  0  0  0  0  # atno 17321 bound_to 7965
  140.7453  143.2874  151.3425 LP  0  0  0  0  0  0  0  0  0  0  0  0  # atno 17342 bound_to 10162
  139.6338  144.0670  152.2498 LP  0  0  0  0  0  0  0  0  0  0  0  0  # atno 17343 bound_to 10162
  157.7367  131.0559  150.5396 LP  0  0  0  0  0  0  0  0  0  0  0  0  # atno 17370 bound_to 10713
  156.5524  130.4235  149.6101 LP  0  0  0  0  0  0  0  0  0  0  0  0  # atno 17371 bound_to 10713
  140.2451  134.3749  155.7464 LP  0  0  0  0  0  0  0  0  0  0  0  0  # atno 17394 bound_to 11000
  141.2212  133.7286  156.8850 LP  0  0  0  0  0  0  0  0  0  0  0  0  # atno 17395 bound_to 11000

$$$$
