AV-unprocessed.smi:1964|AV-procd|sdf|7930|dock1
  -GOLD-   2272010103D 1   1.00000     0.00000
 Structure written by MMmdl.
 46 48  0  0  0  0  0  0  0  0  1 V2000
  147.1944  132.2425  161.4744 C   0  0  0  0  0  0  0  0  0  0  0  0
  146.6856  133.5505  162.1052 C   0  0  2  0  0  0  0  0  0  0  0  0
  145.2567  133.8874  161.6308 C   0  0  0  0  0  0  0  0  0  0  0  0
  144.7202  135.1582  162.3089 C   0  0  0  0  0  0  0  0  0  0  0  0
  145.6623  136.3506  162.0864 C   0  0  0  0  0  0  0  0  0  0  0  0
  147.0921  136.0268  162.5537 C   0  0  0  0  0  0  0  0  0  0  0  0
  147.6479  134.7486  161.8940 C   0  0  2  0  0  0  0  0  0  0  0  0
  147.9061  134.9953  160.4741 N   0  0  0  0  0  0  0  0  0  0  0  0
  148.4853  136.0873  159.9518 C   0  0  0  0  0  0  0  0  0  0  0  0
  148.8528  137.0496  160.6271 O   0  0  0  0  0  0  0  0  0  0  0  0
  148.6731  136.0786  158.4278 C   0  0  0  0  0  0  0  0  0  0  0  0
  149.4090  137.2603  157.9280 N   0  0  0  0  0  0  0  0  0  0  0  0
  150.7411  137.4607  158.3724 C   0  0  0  0  0  0  0  0  0  0  0  0
  151.2836  136.6574  159.1336 O   0  0  0  0  0  0  0  0  0  0  0  0
  151.3928  138.6720  157.8806 C   0  0  0  0  0  0  0  0  0  0  0  0
  152.7205  138.9260  158.3328 C   0  0  0  0  0  0  0  0  0  0  0  0
  153.8040  139.1418  158.6783 N   0  0  0  0  0  0  0  0  0  0  0  0
  150.7546  139.5120  157.0401 C   0  0  0  0  0  0  0  0  0  0  0  0
  149.4742  139.2778  156.5884 N   0  0  0  0  0  0  0  0  0  0  0  0
  148.7602  140.2591  155.8212 C   0  0  0  0  0  0  0  0  0  0  0  0
  149.0673  140.4525  154.3489 C   0  0  0  0  0  0  0  0  0  0  0  0
  149.4923  141.4973  155.3517 C   0  0  0  0  0  0  0  0  0  0  0  0
  148.7450  138.1668  157.0664 C   0  0  0  0  0  0  0  0  0  0  0  0
  147.5642  137.9962  156.7534 O   0  0  0  0  0  0  0  0  0  0  0  0
  147.2135  132.2979  160.3855 H   0  0  0  0  0  0  0  0  0  0  0  0
  146.5545  131.4034  161.7474 H   0  0  0  0  0  0  0  0  0  0  0  0
  148.2040  132.0098  161.8142 H   0  0  0  0  0  0  0  0  0  0  0  0
  146.6324  133.3744  163.1807 H   0  0  0  0  0  0  0  0  0  0  0  0
  145.2442  134.0178  160.5479 H   0  0  0  0  0  0  0  0  0  0  0  0
  144.5877  133.0535  161.8455 H   0  0  0  0  0  0  0  0  0  0  0  0
  143.7268  135.3927  161.9255 H   0  0  0  0  0  0  0  0  0  0  0  0
  144.6041  134.9799  163.3787 H   0  0  0  0  0  0  0  0  0  0  0  0
  145.6698  136.6190  161.0294 H   0  0  0  0  0  0  0  0  0  0  0  0
  145.2869  137.2236  162.6211 H   0  0  0  0  0  0  0  0  0  0  0  0
  147.7510  136.8724  162.3527 H   0  0  0  0  0  0  0  0  0  0  0  0
  147.0904  135.8972  163.6367 H   0  0  0  0  0  0  0  0  0  0  0  0
  148.5906  134.5164  162.3929 H   0  0  0  0  0  0  0  0  0  0  0  0
  147.6364  134.2599  159.8367 H   0  0  0  0  0  0  0  0  0  0  0  0
  149.1882  135.1621  158.1340 H   0  0  0  0  0  0  0  0  0  0  0  0
  147.6896  135.9891  157.9647 H   0  0  0  0  0  0  0  0  0  0  0  0
  151.2667  140.4016  156.7021 H   0  0  0  0  0  0  0  0  0  0  0  0
  147.7207  140.4053  156.1101 H   0  0  0  0  0  0  0  0  0  0  0  0
  149.8527  139.8463  153.9015 H   0  0  0  0  0  0  0  0  0  0  0  0
  148.2344  140.6936  153.6917 H   0  0  0  0  0  0  0  0  0  0  0  0
  148.9443  142.4372  155.3627 H   0  0  0  0  0  0  0  0  0  0  0  0
  150.5564  141.5768  155.5656 H   0  0  0  0  0  0  0  0  0  0  0  0
  1  2  1  0  0  0  0
  1 25  1  0  0  0  0
  1 26  1  0  0  0  0
  1 27  1  0  0  0  0
  2  7  1  0  0  0  0
  2  3  1  0  0  0  0
  2 28  1  0  0  0  0
  3  4  1  0  0  0  0
  3 29  1  0  0  0  0
  3 30  1  0  0  0  0
  4  5  1  0  0  0  0
  4 31  1  0  0  0  0
  4 32  1  0  0  0  0
  5  6  1  0  0  0  0
  5 33  1  0  0  0  0
  5 34  1  0  0  0  0
  6  7  1  0  0  0  0
  6 35  1  0  0  0  0
  6 36  1  0  0  0  0
  7  8  1  0  0  0  0
  7 37  1  0  0  0  0
  8  9  1  0  0  0  0
  8 38  1  0  0  0  0
  9 10  2  0  0  0  0
  9 11  1  0  0  0  0
 11 12  1  0  0  0  0
 11 39  1  0  0  0  0
 11 40  1  0  0  0  0
 12 23  1  0  0  0  0
 12 13  1  0  0  0  0
 13 14  2  0  0  0  0
 13 15  1  0  0  0  0
 15 16  1  0  0  0  0
 15 18  2  0  0  0  0
 16 17  3  0  0  0  0
 18 19  1  0  0  0  0
 18 41  1  0  0  0  0
 19 20  1  0  0  0  0
 19 23  1  0  0  0  0
 20 22  1  0  0  0  0
 20 21  1  0  0  0  0
 20 42  1  0  0  0  0
 21 22  1  0  0  0  0
 21 43  1  0  0  0  0
 21 44  1  0  0  0  0
 22 45  1  0  0  0  0
 22 46  1  0  0  0  0
 23 24  2  0  0  0  0
M  END
> <s_m_source_file>
AV-unprocessed.smi

> <i_m_source_file_index>
1964

> <i_lp_mmshare_version>
43012

> <i_f3d_flags>
0

> <s_epik_input>
W0NIM11bQ0BASF0xW0NIMl1bQ0gyXVtDSDJdW0NIMl1bQ0BIXTFbTkhdQyg9TylbQ0gyXW4yYyg9TyljKEMjTilbY0hdbihjMj1PKVtDSF0zW0NIMl1bQ0gyXTM=

> <s_epik_cmdline>
J2VwaWtfcHl0aG9uJywgJy1waCcsICc3LjAnLCAnLXRuJywgJzgnLCAnLW1hJywgJzIwMCcsICctbWV0YWxfYmluZGluZycsICctaW1hZScsICc8aW5maWxlLm1hZT4nLCAnLW9tYWUnLCAnPG91dGZpbGUubWFlPic=

> <r_lp_tautomer_probability>
1

> <r_epik_Ionization_Penalty>
1.91372e-08

> <r_epik_Ionization_Penalty_Charging>
9.0283e-11

> <r_epik_Ionization_Penalty_Neutral>
1.90469e-08

> <r_epik_State_Penalty>
-0

> <r_epik_Charging_Adjusted_Penalty>
9.0283e-11

> <i_epik_Tot_Q>
0

> <i_epik_Tot_abs_Q>
0

> <r_epik_Metal_State_Penalty>
-0

> <b_epik_Metal_Only>
0

> <s_lp_Force_Field>
OPLS_2005

> <r_lp_Energy>
35.1398

> <b_lp_Chiralities_Consistent>
1

> <s_lp_Variant>
AV-unprocessed.smi:1964-3

> <Gold.Version>
5.8.1

> <Gold.Id.Protein>
6NUR|6NUR_protein|mol2

> <Gold.PLP.Fitness>
45.8750

> <Gold.PLP.PLP>
-38.2530

> <Gold.PLP.part.hbond>
-3.2793

> <Gold.PLP.part.metal>
0.0000

> <Gold.PLP.part.buried>
-5.2186

> <Gold.PLP.part.nonpolar>
-29.8353

> <Gold.PLP.part.repulsive>
0.0943

> <Gold.PLP.ligand.clash>
0.0000

> <Gold.PLP.ligand.torsion>
0.3931

> <Gold.PLP.Chemscore.Hbond>
2.7200

> <Gold.PLP.Chemscore.CHOScore>
0.0000

> <Gold.PLP.Chemscore.Metal>
0.0000

> <Gold.Chemscore.Hbonds>
donor molecule, donor type, donor heavy atom, donor atom, acceptor molecule, acceptor atom, score
      P1  H  6896  6909       L1    14  1.00
      P1  H  6931  6943       L1    10  0.77
      P1  H  7997  8010       L1    17  0.99

> <Gold.PLP.Chemscore.Internal.Correction>
0.2483

> <Gold.Rescore>
     Score         DG    S(hbond)    S(metal)    S(lipo)     H(rot)  DE(clash)    DE(int)     intcor
     18.81     -21.23       3.17        0.00      81.48       1.70       0.54       1.88       ----

> <Gold.Chemscore.Fitness>
18.8095

> <Gold.Chemscore.DG>
-21.2303

> <Gold.Chemscore.ZeroCoef>
-5.4800

> <Gold.Chemscore.Hbond>
3.1674

> <Gold.Chemscore.Metal>
0.0000

> <Gold.Chemscore.Lipo>
81.4797

> <Gold.Chemscore.Internal_Hbond>
0.0000

> <Gold.Chemscore.DEClash>
0.5443

> <Gold.Chemscore.DEInternal>
1.8765

> <Gold.Chemscore.Rot>
1.7038

> <Gold.Chemscore.Internal.Correction>
   9.000000E+99

> <Gold.Chemscore.Hbonds>
donor molecule, donor type, donor heavy atom, donor atom, acceptor molecule, acceptor atom, score
      P1  H  6896  6909       L1    14  0.96
      P1  H  6931  6943       L1    10  0.76
      P1  H  7997  8010       L1    17  0.85

> <Gold.Chemscore.Hbond.Weighted>
-10.5790

> <Gold.Chemscore.Metal.Weighted>
-0.0000

> <Gold.Chemscore.Lipo.Weighted>
-9.5331

> <Gold.Chemscore.Internal_Hbond.Weighted>
0.0000

> <Gold.Chemscore.DEClash.Weighted>
0.5443

> <Gold.Chemscore.DEInternal.Weighted>
1.8765

> <Gold.Chemscore.Rot.Weighted>
4.3618

> <Gold.Chemscore.Internal.Correction.Weighted>
   9.000000E+99

> <Gold.Protein.RotatedTorsions>
[ 6907 6896 6895 6894 ] final  100.30 input  -60.11 | X-H torsion
[ 7974 7965 7964 7962 ] final   60.86 input  175.53 | X-H torsion
[ 8008 7997 7996 7995 ] final    3.69 input   59.86 | X-H torsion
[ 10167 10162 10161 10158 ] final  171.87 input  -65.29 | X-H torsion
[ 10718 10713 10712 10709 ] final  -69.88 input   66.30 | X-H torsion
[ 10763 10752 10751 10750 ] final  128.91 input  -60.55 | X-H torsion
[ 11005 11000 10999 10996 ] final  132.23 input  -57.11 | X-H torsion

> <Gold.Protein.ActiveResidues>
 VAL166  LYS551  ARG553  GLY616  TRP617  ASP618  TYR619  PRO620  LYS621  CYS622 
 ASP623  PHE694  ASN695  SER759  ASP760  ASP761  ALA762  ILE779  LEU786  VAL792 
 PHE793  MET794  SER795  GLU796  ALA797  LYS798  CYS799  TRP800  GLU811  SER814 

> <Gold.Protein.RotatedAtoms>
  152.5375  134.0298  159.8019 H   0  0  0  0  0  0  0  0  0  0  0  0  # atno 6907 bound_to 6896
  151.0471  133.5648  159.2653 H   0  0  0  0  0  0  0  0  0  0  0  0  # atno 6908 bound_to 6896
  151.2596  135.0657  159.9147 H   0  0  0  0  0  0  0  0  0  0  0  0  # atno 6909 bound_to 6896
  145.8913  139.3513  143.0648 H   0  0  0  0  0  0  0  0  0  0  0  0  # atno 7974 bound_to 7965
  154.7067  140.2684  155.6667 H   0  0  0  0  0  0  0  0  0  0  0  0  # atno 8008 bound_to 7997
  156.2782  140.2761  156.1620 H   0  0  0  0  0  0  0  0  0  0  0  0  # atno 8009 bound_to 7997
  155.0690  140.0372  157.2592 H   0  0  0  0  0  0  0  0  0  0  0  0  # atno 8010 bound_to 7997
  139.5059  144.3437  151.9992 H   0  0  0  0  0  0  0  0  0  0  0  0  # atno 10167 bound_to 10162
  156.0434  130.4321  150.2212 H   0  0  0  0  0  0  0  0  0  0  0  0  # atno 10718 bound_to 10713
  153.7332  135.3235  155.3290 H   0  0  0  0  0  0  0  0  0  0  0  0  # atno 10763 bound_to 10752
  154.8319  135.4527  154.1101 H   0  0  0  0  0  0  0  0  0  0  0  0  # atno 10764 bound_to 10752
  153.2254  135.6953  153.8032 H   0  0  0  0  0  0  0  0  0  0  0  0  # atno 10765 bound_to 10752
  139.9778  134.9558  156.9553 H   0  0  0  0  0  0  0  0  0  0  0  0  # atno 11005 bound_to 11000
  145.8905  140.9307  143.0554 LP  0  0  0  0  0  0  0  0  0  0  0  0  # atno 17320 bound_to 7965
  144.6730  140.0899  143.7465 LP  0  0  0  0  0  0  0  0  0  0  0  0  # atno 17321 bound_to 7965
  140.2875  144.3791  150.6099 LP  0  0  0  0  0  0  0  0  0  0  0  0  # atno 17342 bound_to 10162
  140.5972  143.2167  151.7142 LP  0  0  0  0  0  0  0  0  0  0  0  0  # atno 17343 bound_to 10162
  157.0305  131.0006  151.3313 LP  0  0  0  0  0  0  0  0  0  0  0  0  # atno 17370 bound_to 10713
  157.5281  130.8040  149.7885 LP  0  0  0  0  0  0  0  0  0  0  0  0  # atno 17371 bound_to 10713
  140.5159  134.0956  155.7281 LP  0  0  0  0  0  0  0  0  0  0  0  0  # atno 17394 bound_to 11000
  141.1453  133.9066  157.2230 LP  0  0  0  0  0  0  0  0  0  0  0  0  # atno 17395 bound_to 11000

$$$$
