AV-unprocessed.smi:234|AV-procd|sdf|1787|dock1
  -GOLD-   2262020343D 1   1.00000     0.00000
 Structure written by MMmdl.
 59 62  0  0  0  0  0  0  0  0  1 V2000
  153.8588  141.3108  160.6697 C   0  0  0  0  0  0  0  0  0  0  0  0
  154.3120  140.2561  159.6516 C   0  0  0  0  0  0  0  0  0  0  0  0
  153.3905  140.1162  158.5801 O   0  0  0  0  0  0  0  0  0  0  0  0
  152.0279  140.0239  158.9754 C   0  0  2  0  0  0  0  0  0  0  0  0
  151.5299  138.5802  158.9809 C   0  0  0  0  0  0  0  0  0  0  0  0
  150.2087  139.1453  158.4414 C   0  0  2  0  0  0  0  0  0  0  0  0
  149.5447  138.2844  157.4583 N   0  0  0  0  0  0  0  0  0  0  0  0
  148.3932  138.8144  156.7370 C   0  0  0  0  0  0  0  0  0  0  0  0
  149.3922  136.9743  157.7657 C   0  0  0  0  0  0  0  0  0  0  0  0
  149.8136  136.0717  156.8440 N   0  0  0  0  0  0  0  0  0  0  0  0
  149.6989  134.7625  157.0853 C   0  0  0  0  0  0  0  0  0  0  0  0
  149.1950  134.1525  158.1599 N   0  0  0  0  0  0  0  0  0  0  0  0
  148.7545  135.0557  159.0820 C   0  0  0  0  0  0  0  0  0  0  0  0
  148.8066  136.4739  158.9650 C   0  0  0  0  0  0  0  0  0  0  0  0
  148.2400  137.0597  160.0915 N   0  0  0  0  0  0  0  0  0  0  0  0
  147.8899  136.0484  160.8371 C   0  0  0  0  0  0  0  0  0  0  0  0
  148.1732  134.8073  160.3137 N   0  0  0  0  0  0  0  0  0  0  0  0
  147.9038  133.5183  160.9333 C   0  0  0  0  0  0  0  0  0  0  0  0
  146.5991  133.5024  161.7733 C   0  0  1  0  0  0  0  0  0  0  0  0
  146.8861  134.0726  163.0392 O   0  0  0  0  0  0  0  0  0  0  0  0
  145.4627  134.3078  161.1475 C   0  0  0  0  0  0  0  0  0  0  0  0
  144.2171  133.5972  161.6534 C   0  0  0  0  0  0  0  0  0  0  0  0
  144.5971  132.2346  161.5869 O   0  0  0  0  0  0  0  0  0  0  0  0
  145.9493  132.1111  162.0201 C   0  0  1  0  0  0  0  0  0  0  0  0
  146.5683  130.9139  161.2821 C   0  0  0  0  0  0  0  0  0  0  0  0
  151.0193  140.3266  157.8363 C   0  0  0  0  0  0  0  0  0  0  0  0
  150.3552  141.7029  157.9000 C   0  0  0  0  0  0  0  0  0  0  0  0
  151.5618  140.1538  156.4068 C   0  0  0  0  0  0  0  0  0  0  0  0
  154.6286  141.4746  161.4241 H   0  0  0  0  0  0  0  0  0  0  0  0
  152.9532  141.0023  161.1911 H   0  0  0  0  0  0  0  0  0  0  0  0
  153.6605  142.2655  160.1822 H   0  0  0  0  0  0  0  0  0  0  0  0
  155.2671  140.5627  159.2250 H   0  0  0  0  0  0  0  0  0  0  0  0
  154.4836  139.2931  160.1352 H   0  0  0  0  0  0  0  0  0  0  0  0
  151.7847  140.5287  159.9139 H   0  0  0  0  0  0  0  0  0  0  0  0
  152.0604  137.9368  158.2763 H   0  0  0  0  0  0  0  0  0  0  0  0
  151.4663  138.1282  159.9710 H   0  0  0  0  0  0  0  0  0  0  0  0
  149.5517  139.4803  159.2463 H   0  0  0  0  0  0  0  0  0  0  0  0
  147.4661  138.3290  157.0471 H   0  0  0  0  0  0  0  0  0  0  0  0
  148.5189  138.6557  155.6658 H   0  0  0  0  0  0  0  0  0  0  0  0
  148.2752  139.8833  156.9070 H   0  0  0  0  0  0  0  0  0  0  0  0
  150.0638  134.1101  156.3054 H   0  0  0  0  0  0  0  0  0  0  0  0
  147.4169  136.1820  161.7991 H   0  0  0  0  0  0  0  0  0  0  0  0
  147.8538  132.7763  160.1361 H   0  0  0  0  0  0  0  0  0  0  0  0
  148.7610  133.2502  161.5523 H   0  0  0  0  0  0  0  0  0  0  0  0
  147.5725  133.5678  163.4474 H   0  0  0  0  0  0  0  0  0  0  0  0
  145.4835  135.3698  161.3964 H   0  0  0  0  0  0  0  0  0  0  0  0
  145.4957  134.2210  160.0609 H   0  0  0  0  0  0  0  0  0  0  0  0
  143.9966  133.8717  162.6861 H   0  0  0  0  0  0  0  0  0  0  0  0
  143.3373  133.8009  161.0428 H   0  0  0  0  0  0  0  0  0  0  0  0
  145.9326  131.8836  163.0877 H   0  0  0  0  0  0  0  0  0  0  0  0
  147.6050  130.7555  161.5793 H   0  0  0  0  0  0  0  0  0  0  0  0
  146.5377  131.0494  160.2009 H   0  0  0  0  0  0  0  0  0  0  0  0
  146.0218  129.9988  161.5107 H   0  0  0  0  0  0  0  0  0  0  0  0
  149.5360  141.7911  157.1868 H   0  0  0  0  0  0  0  0  0  0  0  0
  151.0643  142.4995  157.6756 H   0  0  0  0  0  0  0  0  0  0  0  0
  149.9452  141.9033  158.8899 H   0  0  0  0  0  0  0  0  0  0  0  0
  150.7728  140.2541  155.6611 H   0  0  0  0  0  0  0  0  0  0  0  0
  152.0231  139.1777  156.2563 H   0  0  0  0  0  0  0  0  0  0  0  0
  152.3200  140.9032  156.1770 H   0  0  0  0  0  0  0  0  0  0  0  0
  1  2  1  0  0  0  0
  1 29  1  0  0  0  0
  1 30  1  0  0  0  0
  1 31  1  0  0  0  0
  2  3  1  0  0  0  0
  2 32  1  0  0  0  0
  2 33  1  0  0  0  0
  3  4  1  0  0  0  0
  4 26  1  0  0  0  0
  4  5  1  0  0  0  0
  4 34  1  0  0  0  0
  5  6  1  0  0  0  0
  5 35  1  0  0  0  0
  5 36  1  0  0  0  0
  6  7  1  0  0  0  0
  6 26  1  0  0  0  0
  6 37  1  0  0  0  0
  7  8  1  0  0  0  0
  7  9  1  0  0  0  0
  8 38  1  0  0  0  0
  8 39  1  0  0  0  0
  8 40  1  0  0  0  0
  9 14  1  0  0  0  0
  9 10  2  0  0  0  0
 10 11  1  0  0  0  0
 11 12  2  0  0  0  0
 11 41  1  0  0  0  0
 12 13  1  0  0  0  0
 13 17  1  0  0  0  0
 13 14  2  0  0  0  0
 14 15  1  0  0  0  0
 15 16  2  0  0  0  0
 16 17  1  0  0  0  0
 16 42  1  0  0  0  0
 17 18  1  0  0  0  0
 18 19  1  0  0  0  0
 18 43  1  0  0  0  0
 18 44  1  0  0  0  0
 19 24  1  0  0  0  0
 19 20  1  0  0  0  0
 19 21  1  0  0  0  0
 20 45  1  0  0  0  0
 21 22  1  0  0  0  0
 21 46  1  0  0  0  0
 21 47  1  0  0  0  0
 22 23  1  0  0  0  0
 22 48  1  0  0  0  0
 22 49  1  0  0  0  0
 23 24  1  0  0  0  0
 24 25  1  0  0  0  0
 24 50  1  0  0  0  0
 25 51  1  0  0  0  0
 25 52  1  0  0  0  0
 25 53  1  0  0  0  0
 26 27  1  0  0  0  0
 26 28  1  0  0  0  0
 27 54  1  0  0  0  0
 27 55  1  0  0  0  0
 27 56  1  0  0  0  0
 28 57  1  0  0  0  0
 28 58  1  0  0  0  0
 28 59  1  0  0  0  0
M  END
> <s_m_source_file>
AV-unprocessed.smi

> <i_m_source_file_index>
234

> <i_lp_mmshare_version>
43012

> <i_f3d_flags>
0

> <s_epik_input>
W0NIM11bQ0gyXU9bQ0BASF0oQzEoW0NIM10pW0NIM10pW0NIMl1bQ0BIXTFOKFtDSDNdKWMobltjSF1uMiljKGMyMyluW2NIXW4zW0NIMl1bQ0BAXTQoW09IXSlbQ0gyXVtDSDJdT1tDQEhdNFtDSDNd

> <s_epik_cmdline>
J2VwaWtfcHl0aG9uJywgJy1waCcsICc3LjAnLCAnLXRuJywgJzgnLCAnLW1hJywgJzIwMCcsICctbWV0YWxfYmluZGluZycsICctaW1hZScsICc8aW5maWxlLm1hZT4nLCAnLW9tYWUnLCAnPG91dGZpbGUubWFlPic=

> <r_lp_tautomer_probability>
1

> <r_epik_Ionization_Penalty>
0.00349132

> <r_epik_Ionization_Penalty_Charging>
0

> <r_epik_Ionization_Penalty_Neutral>
0.00349132

> <r_epik_State_Penalty>
0.00242418

> <r_epik_Charging_Adjusted_Penalty>
0.00242418

> <i_epik_Tot_Q>
0

> <i_epik_Tot_abs_Q>
0

> <r_epik_Metal_State_Penalty>
-0

> <b_epik_Metal_Only>
0

> <s_lp_Force_Field>
OPLS_2005

> <r_lp_Energy>
50.018

> <b_lp_Chiralities_Consistent>
1

> <s_lp_Variant>
AV-unprocessed.smi:234-3

> <Gold.Version>
5.8.1

> <Gold.Id.Protein>
6NUR|6NUR_protein|mol2

> <Gold.PLP.Fitness>
43.9700

> <Gold.PLP.PLP>
-38.9658

> <Gold.PLP.part.hbond>
-5.0000

> <Gold.PLP.part.metal>
0.0000

> <Gold.PLP.part.buried>
-4.3705

> <Gold.PLP.part.nonpolar>
-30.1378

> <Gold.PLP.part.repulsive>
0.0921

> <Gold.PLP.ligand.clash>
0.0000

> <Gold.PLP.ligand.torsion>
1.8066

> <Gold.PLP.Chemscore.Hbond>
2.4446

> <Gold.PLP.Chemscore.CHOScore>
0.0000

> <Gold.PLP.Chemscore.Metal>
0.0000

> <Gold.Chemscore.Hbonds>
donor molecule, donor type, donor heavy atom, donor atom, acceptor molecule, acceptor atom, score
      P1  H  6896  6908       L1    12  0.25
      P1  H  6931  6943       L1    15  0.14
      P1  H  6934  6947       L1    15  0.10
      P1  H  7997  8009       L1     3  0.94

> <Gold.PLP.Chemscore.Internal.Correction>
1.2835

> <Gold.Rescore>
     Score         DG    S(hbond)    S(metal)    S(lipo)     H(rot)  DE(clash)    DE(int)     intcor
     10.51     -12.01       1.04        0.00      83.36       2.62       0.02       1.48       ----

> <Gold.Chemscore.Fitness>
10.5072

> <Gold.Chemscore.DG>
-12.0077

> <Gold.Chemscore.ZeroCoef>
-5.4800

> <Gold.Chemscore.Hbond>
1.0439

> <Gold.Chemscore.Metal>
0.0000

> <Gold.Chemscore.Lipo>
83.3613

> <Gold.Chemscore.Internal_Hbond>
0.0000

> <Gold.Chemscore.DEClash>
0.0197

> <Gold.Chemscore.DEInternal>
1.4808

> <Gold.Chemscore.Rot>
2.6219

> <Gold.Chemscore.Internal.Correction>
   9.000000E+99

> <Gold.Chemscore.Hbonds>
donor molecule, donor type, donor heavy atom, donor atom, acceptor molecule, acceptor atom, score
      P1  H  6931  6943       L1    15  0.01
      P1  H  6934  6947       L1    15  0.08
      P1  H  7997  8009       L1     3  0.20

> <Gold.Chemscore.Hbond.Weighted>
-3.4866

> <Gold.Chemscore.Metal.Weighted>
-0.0000

> <Gold.Chemscore.Lipo.Weighted>
-9.7533

> <Gold.Chemscore.Internal_Hbond.Weighted>
0.0000

> <Gold.Chemscore.DEClash.Weighted>
0.0197

> <Gold.Chemscore.DEInternal.Weighted>
1.4808

> <Gold.Chemscore.Rot.Weighted>
6.7121

> <Gold.Chemscore.Internal.Correction.Weighted>
   9.000000E+99

> <Gold.Protein.RotatedTorsions>
[ 6907 6896 6895 6894 ] final  129.71 input  -60.11 | X-H torsion
[ 7974 7965 7964 7962 ] final   23.10 input  175.53 | X-H torsion
[ 8008 7997 7996 7995 ] final  150.82 input   59.86 | X-H torsion
[ 10167 10162 10161 10158 ] final  -91.57 input  -65.29 | X-H torsion
[ 10718 10713 10712 10709 ] final -100.09 input   66.30 | X-H torsion
[ 10763 10752 10751 10750 ] final    1.16 input  -60.55 | X-H torsion
[ 11005 11000 10999 10996 ] final -109.22 input  -57.11 | X-H torsion

> <Gold.Protein.ActiveResidues>
 VAL166  LYS551  ARG553  GLY616  TRP617  ASP618  TYR619  PRO620  LYS621  CYS622 
 ASP623  PHE694  ASN695  SER759  ASP760  ASP761  ALA762  ILE779  LEU786  VAL792 
 PHE793  MET794  SER795  GLU796  ALA797  LYS798  CYS799  TRP800  GLU811  SER814 

> <Gold.Protein.RotatedAtoms>
  152.3597  133.6282  159.6005 H   0  0  0  0  0  0  0  0  0  0  0  0  # atno 6907 bound_to 6896
  150.7593  133.9443  159.3474 H   0  0  0  0  0  0  0  0  0  0  0  0  # atno 6908 bound_to 6896
  151.7283  135.0881  160.0347 H   0  0  0  0  0  0  0  0  0  0  0  0  # atno 6909 bound_to 6896
  146.2000  139.7792  142.8769 H   0  0  0  0  0  0  0  0  0  0  0  0  # atno 7974 bound_to 7965
  156.2700  140.2064  156.6078 H   0  0  0  0  0  0  0  0  0  0  0  0  # atno 8008 bound_to 7997
  154.6855  140.0535  157.0334 H   0  0  0  0  0  0  0  0  0  0  0  0  # atno 8009 bound_to 7997
  155.0939  140.3199  155.4568 H   0  0  0  0  0  0  0  0  0  0  0  0  # atno 8010 bound_to 7997
  140.3435  143.2929  151.9808 H   0  0  0  0  0  0  0  0  0  0  0  0  # atno 10167 bound_to 10162
  156.0153  130.5312  150.6765 H   0  0  0  0  0  0  0  0  0  0  0  0  # atno 10718 bound_to 10713
  153.3115  135.6963  153.7111 H   0  0  0  0  0  0  0  0  0  0  0  0  # atno 10763 bound_to 10752
  153.5987  135.3466  155.2938 H   0  0  0  0  0  0  0  0  0  0  0  0  # atno 10764 bound_to 10752
  154.8576  135.4335  154.2254 H   0  0  0  0  0  0  0  0  0  0  0  0  # atno 10765 bound_to 10752
  141.0859  133.9139  157.2185 H   0  0  0  0  0  0  0  0  0  0  0  0  # atno 11005 bound_to 11000
  145.3517  141.0309  143.3335 LP  0  0  0  0  0  0  0  0  0  0  0  0  # atno 17320 bound_to 7965
  144.8662  139.5105  143.6789 LP  0  0  0  0  0  0  0  0  0  0  0  0  # atno 17321 bound_to 7965
  139.4837  144.6137  151.7387 LP  0  0  0  0  0  0  0  0  0  0  0  0  # atno 17342 bound_to 10162
  140.5286  144.0765  150.6046 LP  0  0  0  0  0  0  0  0  0  0  0  0  # atno 17343 bound_to 10162
  157.4477  131.0869  151.0878 LP  0  0  0  0  0  0  0  0  0  0  0  0  # atno 17370 bound_to 10713
  157.1403  130.6140  149.5553 LP  0  0  0  0  0  0  0  0  0  0  0  0  # atno 17371 bound_to 10713
  139.9678  135.0137  156.9432 LP  0  0  0  0  0  0  0  0  0  0  0  0  # atno 17394 bound_to 11000
  140.5363  134.0764  155.7329 LP  0  0  0  0  0  0  0  0  0  0  0  0  # atno 17395 bound_to 11000

$$$$
