AV-unprocessed.smi:2886|AV-procd|sdf|11092|dock6
  -GOLD-   2272015563D 1   1.00000     0.00000
 Structure written by MMmdl.
 28 30  0  0  0  0  0  0  0  0  3 V2000
  153.4687  138.3531  156.6101 O   0  0  0  0  0  0  0  0  0  0  0  0
  152.5456  138.4149  155.8005 C   0  0  0  0  0  0  0  0  0  0  0  0
  152.3069  137.4509  154.8619 N   0  5  0  0  0  0  0  0  0  0  0  0
  151.3108  137.5425  154.0092 N   0  3  0  0  0  0  0  0  0  0  0  0
  150.4574  138.5612  153.9802 C   0  0  0  0  0  0  0  0  0  0  0  0
  150.5981  139.6372  154.9008 C   0  0  0  0  0  0  0  0  0  0  0  0
  149.7339  140.7248  154.9142 N   0  0  0  0  0  0  0  0  0  0  0  0
  148.5810  140.9994  154.0659 C   0  0  1  0  0  0  0  0  0  0  0  0
  147.6169  139.8181  153.9498 C   0  0  0  0  0  0  0  0  0  0  0  0
  146.2857  140.4638  154.3604 C   0  0  1  0  0  0  0  0  0  0  0  0
  146.2164  140.6940  155.8755 C   0  0  0  0  0  0  0  0  0  0  0  0
  147.1878  141.8587  156.0571 C   0  0  0  0  0  0  0  0  0  0  0  0
  147.6641  142.1057  154.6149 C   0  0  2  0  0  0  0  0  0  0  0  0
  146.4757  141.7945  153.9067 O   0  0  0  0  0  0  0  0  0  0  0  0
  151.6219  139.5642  155.7998 C   0  0  0  0  0  0  0  0  0  0  0  0
  151.8707  140.8228  156.9651 Cl  0  0  0  0  0  0  0  0  0  0  0  0
  151.1483  136.7999  153.3109 H   0  0  0  0  0  0  0  0  0  0  0  0
  149.6713  138.5201  153.2374 H   0  0  0  0  0  0  0  0  0  0  0  0
  149.9905  141.4884  155.5244 H   0  0  0  0  0  0  0  0  0  0  0  0
  148.9016  141.2977  153.0684 H   0  0  0  0  0  0  0  0  0  0  0  0
  147.5790  139.4616  152.9199 H   0  0  0  0  0  0  0  0  0  0  0  0
  147.8777  138.9749  154.5909 H   0  0  0  0  0  0  0  0  0  0  0  0
  145.4066  139.9675  153.9485 H   0  0  0  0  0  0  0  0  0  0  0  0
  145.2101  140.9844  156.1794 H   0  0  0  0  0  0  0  0  0  0  0  0
  146.5034  139.8091  156.4448 H   0  0  0  0  0  0  0  0  0  0  0  0
  146.6608  142.7332  156.4404 H   0  0  0  0  0  0  0  0  0  0  0  0
  148.0020  141.6312  156.7454 H   0  0  0  0  0  0  0  0  0  0  0  0
  148.0380  143.1150  154.4404 H   0  0  0  0  0  0  0  0  0  0  0  0
  1  2  2  0  0  0  0
  2  3  1  0  0  0  0
  2 15  1  0  0  0  0
  3  4  1  0  0  0  0
  4  5  2  0  0  0  0
  4 17  1  0  0  0  0
  5  6  1  0  0  0  0
  5 18  1  0  0  0  0
  6 15  2  0  0  0  0
  6  7  1  0  0  0  0
  7  8  1  0  0  0  0
  7 19  1  0  0  0  0
  8 13  1  0  0  0  0
  8  9  1  0  0  0  0
  8 20  1  0  0  0  0
  9 10  1  0  0  0  0
  9 21  1  0  0  0  0
  9 22  1  0  0  0  0
 10 14  1  0  0  0  0
 10 11  1  0  0  0  0
 10 23  1  0  0  0  0
 11 12  1  0  0  0  0
 11 24  1  0  0  0  0
 11 25  1  0  0  0  0
 12 13  1  0  0  0  0
 12 26  1  0  0  0  0
 12 27  1  0  0  0  0
 13 14  1  0  0  0  0
 13 28  1  0  0  0  0
 15 16  1  0  0  0  0
M  CHG  1   3  -1
M  CHG  1   4   1
M  END
> <s_m_source_file>
AV-unprocessed.smi

> <i_m_source_file_index>
2886

> <i_lp_mmshare_version>
43012

> <i_f3d_flags>
0

> <s_epik_input>
Tz1jMVtuSF1uW2NIXWMoYzFDbClbTkhdW0NASF0oW0NIMl1bQ0BASF0yMylbQ0BASF0oTzMpW0NIMl1bQ0gyXTI=

> <s_epik_cmdline>
J2VwaWtfcHl0aG9uJywgJy1waCcsICc3LjAnLCAnLXRuJywgJzgnLCAnLW1hJywgJzIwMCcsICctbWV0YWxfYmluZGluZycsICctaW1hZScsICc8aW5maWxlLm1hZT4nLCAnLW9tYWUnLCAnPG91dGZpbGUubWFlPic=

> <r_lp_tautomer_probability>
0.0138196

> <r_epik_Ionization_Penalty>
2.43027

> <r_epik_Ionization_Penalty_Charging>
2.43027

> <r_epik_Ionization_Penalty_Neutral>
1.33267e-06

> <r_epik_State_Penalty>
2.7044

> <r_epik_Charging_Adjusted_Penalty>
5.13467

> <i_epik_Tot_Q>
0

> <i_epik_Tot_abs_Q>
2

> <r_epik_Metal_State_Penalty>
2.98589

> <b_epik_Metal_Only>
0

> <s_lp_Force_Field>
OPLS_2005

> <r_lp_Energy>
57.8077

> <b_lp_Chiralities_Consistent>
1

> <s_lp_Variant>
AV-unprocessed.smi:2886-6

> <Gold.Version>
5.8.1

> <Gold.Id.Protein>
6NUR|6NUR_protein|mol2

> <Gold.PLP.Fitness>
36.8914

> <Gold.PLP.PLP>
-24.3658

> <Gold.PLP.part.hbond>
-3.0000

> <Gold.PLP.part.metal>
0.0000

> <Gold.PLP.part.buried>
-2.4106

> <Gold.PLP.part.nonpolar>
-19.6476

> <Gold.PLP.part.repulsive>
0.5433

> <Gold.PLP.ligand.clash>
0.0000

> <Gold.PLP.ligand.torsion>
0.1499

> <Gold.PLP.Chemscore.Hbond>
4.2720

> <Gold.PLP.Chemscore.CHOScore>
0.0000

> <Gold.PLP.Chemscore.Metal>
0.0000

> <Gold.Chemscore.Hbonds>
donor molecule, donor type, donor heavy atom, donor atom, acceptor molecule, acceptor atom, score
      L1  H     4    17       P1  7949  2.00
      P1  H  7997  8008       L1     1  0.80
      P1  H 10752 10765       L1     3  1.41

> <Gold.PLP.Chemscore.Internal.Correction>
0.0093

> <Gold.Rescore>
     Score         DG    S(hbond)    S(metal)    S(lipo)     H(rot)  DE(clash)    DE(int)     intcor
     15.10     -15.18       1.62        0.00      58.58       1.00       0.05       0.03       ----

> <Gold.Chemscore.Fitness>
15.1024

> <Gold.Chemscore.DG>
-15.1793

> <Gold.Chemscore.ZeroCoef>
-5.4800

> <Gold.Chemscore.Hbond>
1.6184

> <Gold.Chemscore.Metal>
0.0000

> <Gold.Chemscore.Lipo>
58.5791

> <Gold.Chemscore.Internal_Hbond>
0.0000

> <Gold.Chemscore.DEClash>
0.0485

> <Gold.Chemscore.DEInternal>
0.0284

> <Gold.Chemscore.Rot>
1.0000

> <Gold.Chemscore.Internal.Correction>
   9.000000E+99

> <Gold.Chemscore.Hbonds>
donor molecule, donor type, donor heavy atom, donor atom, acceptor molecule, acceptor atom, score
      L1  H     4    17       P1  7949  0.43
      P1  H  7997  8008       L1     1  0.67
      P1  H 10752 10765       L1     3  0.27

> <Gold.Chemscore.Hbond.Weighted>
-5.4055

> <Gold.Chemscore.Metal.Weighted>
-0.0000

> <Gold.Chemscore.Lipo.Weighted>
-6.8538

> <Gold.Chemscore.Internal_Hbond.Weighted>
0.0000

> <Gold.Chemscore.DEClash.Weighted>
0.0485

> <Gold.Chemscore.DEInternal.Weighted>
0.0284

> <Gold.Chemscore.Rot.Weighted>
2.5600

> <Gold.Chemscore.Internal.Correction.Weighted>
   9.000000E+99

> <Gold.Protein.RotatedTorsions>
[ 6907 6896 6895 6894 ] final   -1.10 input  -60.11 | X-H torsion
[ 7974 7965 7964 7962 ] final -148.18 input  175.53 | X-H torsion
[ 8008 7997 7996 7995 ] final  -70.35 input   59.86 | X-H torsion
[ 10167 10162 10161 10158 ] final  -63.84 input  -65.29 | X-H torsion
[ 10718 10713 10712 10709 ] final  158.28 input   66.30 | X-H torsion
[ 10763 10752 10751 10750 ] final  178.64 input  -60.55 | X-H torsion
[ 11005 11000 10999 10996 ] final   92.21 input  -57.11 | X-H torsion

> <Gold.Protein.ActiveResidues>
 VAL166  LYS551  ARG553  GLY616  TRP617  ASP618  TYR619  PRO620  LYS621  CYS622 
 ASP623  PHE694  ASN695  SER759  ASP760  ASP761  ALA762  ILE779  LEU786  VAL792 
 PHE793  MET794  SER795  GLU796  ALA797  LYS798  CYS799  TRP800  GLU811  SER814 

> <Gold.Protein.RotatedAtoms>
  151.5515  135.1067  159.9950 H   0  0  0  0  0  0  0  0  0  0  0  0  # atno 6907 bound_to 6896
  152.4489  133.7586  159.6744 H   0  0  0  0  0  0  0  0  0  0  0  0  # atno 6908 bound_to 6896
  150.8412  133.7866  159.3084 H   0  0  0  0  0  0  0  0  0  0  0  0  # atno 6909 bound_to 6896
  144.8046  140.5230  143.5684 H   0  0  0  0  0  0  0  0  0  0  0  0  # atno 7974 bound_to 7965
  154.5005  140.0836  156.7788 H   0  0  0  0  0  0  0  0  0  0  0  0  # atno 8008 bound_to 7997
  155.4013  140.3437  155.4239 H   0  0  0  0  0  0  0  0  0  0  0  0  # atno 8009 bound_to 7997
  156.1450  140.1541  156.8848 H   0  0  0  0  0  0  0  0  0  0  0  0  # atno 8010 bound_to 7997
  140.5843  143.2331  151.6277 H   0  0  0  0  0  0  0  0  0  0  0  0  # atno 10167 bound_to 10162
  157.1800  131.0630  151.2137 H   0  0  0  0  0  0  0  0  0  0  0  0  # atno 10718 bound_to 10713
  154.5102  135.2788  155.1348 H   0  0  0  0  0  0  0  0  0  0  0  0  # atno 10763 bound_to 10752
  154.2947  135.6260  153.5403 H   0  0  0  0  0  0  0  0  0  0  0  0  # atno 10764 bound_to 10752
  152.9917  135.5682  154.5566 H   0  0  0  0  0  0  0  0  0  0  0  0  # atno 10765 bound_to 10752
  139.8827  134.8719  156.3540 H   0  0  0  0  0  0  0  0  0  0  0  0  # atno 11005 bound_to 11000
  145.5470  139.1476  143.3415 LP  0  0  0  0  0  0  0  0  0  0  0  0  # atno 17320 bound_to 7965
  146.2334  140.5609  142.8965 LP  0  0  0  0  0  0  0  0  0  0  0  0  # atno 17321 bound_to 7965
  139.5188  144.3273  152.0857 LP  0  0  0  0  0  0  0  0  0  0  0  0  # atno 17342 bound_to 10162
  140.2428  144.4251  150.6253 LP  0  0  0  0  0  0  0  0  0  0  0  0  # atno 17343 bound_to 10162
  157.3961  130.7308  149.6733 LP  0  0  0  0  0  0  0  0  0  0  0  0  # atno 17370 bound_to 10713
  155.9725  130.4133  150.4076 LP  0  0  0  0  0  0  0  0  0  0  0  0  # atno 17371 bound_to 10713
  140.9575  133.7410  156.0355 LP  0  0  0  0  0  0  0  0  0  0  0  0  # atno 17394 bound_to 11000
  140.8030  134.3486  157.5434 LP  0  0  0  0  0  0  0  0  0  0  0  0  # atno 17395 bound_to 11000

$$$$
