AV-unprocessed.smi:3058|AV-procd|sdf|11676|dock7
  -GOLD-   2272017 83D 1   1.00000     0.00000
 Structure written by MMmdl.
 39 41  0  0  0  0  0  0  0  0  2 V2000
  155.6763  140.4219  162.0363 O   0  0  0  0  0  0  0  0  0  0  0  0
  155.2527  139.4732  161.3751 C   0  0  0  0  0  0  0  0  0  0  0  0
  154.4655  139.6272  160.2980 N   0  0  0  0  0  0  0  0  0  0  0  0
  154.0472  140.9066  159.7281 C   0  0  0  0  0  0  0  0  0  0  0  0
  152.5150  141.0133  159.5892 C   0  0  0  0  0  0  0  0  0  0  0  0
  152.0258  142.4201  159.2880 C   0  0  0  0  0  0  0  0  0  0  0  0
  152.3356  143.4925  160.1544 C   0  0  0  0  0  0  0  0  0  0  0  0
  151.8337  144.7791  159.8699 C   0  0  0  0  0  0  0  0  0  0  0  0
  151.0352  144.9660  158.7231 C   0  0  0  0  0  0  0  0  0  0  0  0
  150.7635  143.9179  157.9149 N   0  3  0  0  0  0  0  0  0  0  0  0
  151.2256  142.6707  158.1523 C   0  0  0  0  0  0  0  0  0  0  0  0
  155.6395  138.0279  161.7322 C   0  0  1  0  0  0  0  0  0  0  0  0
  155.2825  137.6507  163.1918 C   0  0  0  0  0  0  0  0  0  0  0  0
  154.4167  136.3860  163.0282 C   0  0  2  0  0  0  0  0  0  0  0  0
  155.2967  135.2227  162.5319 C   0  0  0  0  0  0  0  0  0  0  0  0
  155.5739  135.6078  161.0653 C   0  0  0  0  0  0  0  0  0  0  0  0
  154.8501  136.9616  160.9305 C   0  0  1  0  0  0  0  0  0  0  0  0
  153.6051  136.7154  161.7831 C   0  0  0  0  0  0  0  0  0  0  0  0
  154.1560  138.7942  159.8179 H   0  0  0  0  0  0  0  0  0  0  0  0
  154.4103  141.7040  160.3766 H   0  0  0  0  0  0  0  0  0  0  0  0
  154.5232  141.0672  158.7592 H   0  0  0  0  0  0  0  0  0  0  0  0
  152.1722  140.3408  158.8017 H   0  0  0  0  0  0  0  0  0  0  0  0
  152.0404  140.6676  160.5082 H   0  0  0  0  0  0  0  0  0  0  0  0
  152.9392  143.3304  161.0355 H   0  0  0  0  0  0  0  0  0  0  0  0
  152.0539  145.6094  160.5248 H   0  0  0  0  0  0  0  0  0  0  0  0
  150.6077  145.9142  158.4312 H   0  0  0  0  0  0  0  0  0  0  0  0
  150.9296  141.9137  157.4407 H   0  0  0  0  0  0  0  0  0  0  0  0
  156.7105  137.9025  161.5625 H   0  0  0  0  0  0  0  0  0  0  0  0
  156.1718  137.4604  163.7940 H   0  0  0  0  0  0  0  0  0  0  0  0
  154.7137  138.4347  163.6952 H   0  0  0  0  0  0  0  0  0  0  0  0
  153.8264  136.1418  163.9120 H   0  0  0  0  0  0  0  0  0  0  0  0
  156.2120  135.1194  163.1163 H   0  0  0  0  0  0  0  0  0  0  0  0
  154.7576  134.2759  162.5836 H   0  0  0  0  0  0  0  0  0  0  0  0
  156.6397  135.6766  160.8444 H   0  0  0  0  0  0  0  0  0  0  0  0
  155.1415  134.8697  160.3886 H   0  0  0  0  0  0  0  0  0  0  0  0
  154.6449  137.2413  159.8963 H   0  0  0  0  0  0  0  0  0  0  0  0
  152.9985  135.8792  161.4299 H   0  0  0  0  0  0  0  0  0  0  0  0
  152.9617  137.5869  161.9045 H   0  0  0  0  0  0  0  0  0  0  0  0
  150.1799  144.0738  157.0926 H   0  0  0  0  0  0  0  0  0  0  0  0
  1  2  2  0  0  0  0
  2  3  1  0  0  0  0
  2 12  1  0  0  0  0
  3  4  1  0  0  0  0
  3 19  1  0  0  0  0
  4  5  1  0  0  0  0
  4 20  1  0  0  0  0
  4 21  1  0  0  0  0
  5  6  1  0  0  0  0
  5 22  1  0  0  0  0
  5 23  1  0  0  0  0
  6 11  1  0  0  0  0
  6  7  2  0  0  0  0
  7  8  1  0  0  0  0
  7 24  1  0  0  0  0
  8  9  2  0  0  0  0
  8 25  1  0  0  0  0
  9 10  1  0  0  0  0
  9 26  1  0  0  0  0
 10 11  2  0  0  0  0
 10 39  1  0  0  0  0
 11 27  1  0  0  0  0
 12 17  1  0  0  0  0
 12 13  1  0  0  0  0
 12 28  1  0  0  0  0
 13 14  1  0  0  0  0
 13 29  1  0  0  0  0
 13 30  1  0  0  0  0
 14 18  1  0  0  0  0
 14 15  1  0  0  0  0
 14 31  1  0  0  0  0
 15 16  1  0  0  0  0
 15 32  1  0  0  0  0
 15 33  1  0  0  0  0
 16 17  1  0  0  0  0
 16 34  1  0  0  0  0
 16 35  1  0  0  0  0
 17 18  1  0  0  0  0
 17 36  1  0  0  0  0
 18 37  1  0  0  0  0
 18 38  1  0  0  0  0
M  CHG  1  10   1
M  END
> <s_m_source_file>
AV-unprocessed.smi

> <i_m_source_file_index>
3058

> <i_lp_mmshare_version>
43012

> <i_f3d_flags>
0

> <s_epik_input>
W0NIMl0xW0NIMl1bQ0BIXShbQ0gyXTIpW0NAQEhdKFtDSDJdW0NAQEhdMTIpQyg9TylbTkhdW0NIMl1bQ0gyXWMzW2NIXVtjSF1bY0hdbltjSF0z

> <s_epik_cmdline>
J2VwaWtfcHl0aG9uJywgJy1waCcsICc3LjAnLCAnLXRuJywgJzgnLCAnLW1hJywgJzIwMCcsICctbWV0YWxfYmluZGluZycsICctaW1hZScsICc8aW5maWxlLm1hZT4nLCAnLW9tYWUnLCAnPG91dGZpbGUubWFlPic=

> <r_epik_Ionization_Penalty>
2.24375

> <r_epik_Ionization_Penalty_Charging>
2.24375

> <r_epik_Ionization_Penalty_Neutral>
1.89995e-08

> <r_epik_State_Penalty>
2.39035

> <r_epik_Charging_Adjusted_Penalty>
4.63411

> <i_epik_Tot_Q>
1

> <i_epik_Tot_abs_Q>
1

> <r_epik_Metal_State_Penalty>
2.40369

> <b_epik_Metal_Only>
0

> <s_lp_Force_Field>
OPLS_2005

> <r_lp_Energy>
53.8629

> <b_lp_Chiralities_Consistent>
1

> <s_lp_Variant>
AV-unprocessed.smi:3058-8

> <Gold.Version>
5.8.1

> <Gold.Id.Protein>
6NUR|6NUR_protein|mol2

> <Gold.PLP.Fitness>
46.4283

> <Gold.PLP.PLP>
-40.7453

> <Gold.PLP.part.hbond>
-2.0000

> <Gold.PLP.part.metal>
0.0000

> <Gold.PLP.part.buried>
-5.3114

> <Gold.PLP.part.nonpolar>
-33.2503

> <Gold.PLP.part.repulsive>
0.0422

> <Gold.PLP.ligand.clash>
0.0000

> <Gold.PLP.ligand.torsion>
0.1753

> <Gold.PLP.Chemscore.Hbond>
2.0000

> <Gold.PLP.Chemscore.CHOScore>
0.0000

> <Gold.PLP.Chemscore.Metal>
0.0000

> <Gold.Chemscore.Hbonds>
donor molecule, donor type, donor heavy atom, donor atom, acceptor molecule, acceptor atom, score
      L1  H    10    39       P1  8028  2.00

> <Gold.PLP.Chemscore.Internal.Correction>
0.0336

> <Gold.Rescore>
     Score         DG    S(hbond)    S(metal)    S(lipo)     H(rot)  DE(clash)    DE(int)     intcor
     17.40     -19.27       0.97        0.00     121.94       1.45       1.49       0.38       ----

> <Gold.Chemscore.Fitness>
17.3997

> <Gold.Chemscore.DG>
-19.2716

> <Gold.Chemscore.ZeroCoef>
-5.4800

> <Gold.Chemscore.Hbond>
0.9726

> <Gold.Chemscore.Metal>
0.0000

> <Gold.Chemscore.Lipo>
121.9416

> <Gold.Chemscore.Internal_Hbond>
0.0000

> <Gold.Chemscore.DEClash>
1.4927

> <Gold.Chemscore.DEInternal>
0.3792

> <Gold.Chemscore.Rot>
1.4548

> <Gold.Chemscore.Internal.Correction>
   9.000000E+99

> <Gold.Chemscore.Hbonds>
donor molecule, donor type, donor heavy atom, donor atom, acceptor molecule, acceptor atom, score
      L1  H    10    39       P1  8028  0.86

> <Gold.Chemscore.Hbond.Weighted>
-3.2486

> <Gold.Chemscore.Metal.Weighted>
-0.0000

> <Gold.Chemscore.Lipo.Weighted>
-14.2672

> <Gold.Chemscore.Internal_Hbond.Weighted>
0.0000

> <Gold.Chemscore.DEClash.Weighted>
1.4927

> <Gold.Chemscore.DEInternal.Weighted>
0.3792

> <Gold.Chemscore.Rot.Weighted>
3.7242

> <Gold.Chemscore.Internal.Correction.Weighted>
   9.000000E+99

> <Gold.Protein.RotatedTorsions>
[ 6907 6896 6895 6894 ] final -137.57 input  -60.11 | X-H torsion
[ 7974 7965 7964 7962 ] final -121.36 input  175.53 | X-H torsion
[ 8008 7997 7996 7995 ] final  177.32 input   59.86 | X-H torsion
[ 10167 10162 10161 10158 ] final   97.55 input  -65.29 | X-H torsion
[ 10718 10713 10712 10709 ] final  119.01 input   66.30 | X-H torsion
[ 10763 10752 10751 10750 ] final   34.63 input  -60.55 | X-H torsion
[ 11005 11000 10999 10996 ] final -161.75 input  -57.11 | X-H torsion

> <Gold.Protein.ActiveResidues>
 VAL166  LYS551  ARG553  GLY616  TRP617  ASP618  TYR619  PRO620  LYS621  CYS622 
 ASP623  PHE694  ASN695  SER759  ASP760  ASP761  ALA762  ILE779  LEU786  VAL792 
 PHE793  MET794  SER795  GLU796  ALA797  LYS798  CYS799  TRP800  GLU811  SER814 

> <Gold.Protein.RotatedAtoms>
  151.0241  133.5849  159.2667 H   0  0  0  0  0  0  0  0  0  0  0  0  # atno 6907 bound_to 6896
  151.2955  135.0753  159.9229 H   0  0  0  0  0  0  0  0  0  0  0  0  # atno 6908 bound_to 6896
  152.5330  133.9932  159.7914 H   0  0  0  0  0  0  0  0  0  0  0  0  # atno 6909 bound_to 6896
  145.0412  140.8145  143.4265 H   0  0  0  0  0  0  0  0  0  0  0  0  # atno 7974 bound_to 7965
  156.0670  140.1361  156.9874 H   0  0  0  0  0  0  0  0  0  0  0  0  # atno 8008 bound_to 7997
  154.4511  140.0979  156.6673 H   0  0  0  0  0  0  0  0  0  0  0  0  # atno 8009 bound_to 7997
  155.5288  140.3458  155.4424 H   0  0  0  0  0  0  0  0  0  0  0  0  # atno 8010 bound_to 7997
  139.7791  144.6895  151.0048 H   0  0  0  0  0  0  0  0  0  0  0  0  # atno 10167 bound_to 10162
  157.5991  131.1053  150.7837 H   0  0  0  0  0  0  0  0  0  0  0  0  # atno 10718 bound_to 10713
  153.0155  135.6355  154.1700 H   0  0  0  0  0  0  0  0  0  0  0  0  # atno 10763 bound_to 10752
  154.1439  135.2833  155.3155 H   0  0  0  0  0  0  0  0  0  0  0  0  # atno 10764 bound_to 10752
  154.6104  135.5558  153.7528 H   0  0  0  0  0  0  0  0  0  0  0  0  # atno 10765 bound_to 10752
  140.6169  134.4791  157.5220 H   0  0  0  0  0  0  0  0  0  0  0  0  # atno 11005 bound_to 11000
  145.1646  139.2439  143.5374 LP  0  0  0  0  0  0  0  0  0  0  0  0  # atno 17320 bound_to 7965
  146.3509  140.1381  142.8595 LP  0  0  0  0  0  0  0  0  0  0  0  0  # atno 17321 bound_to 7965
  140.7817  143.4503  151.0422 LP  0  0  0  0  0  0  0  0  0  0  0  0  # atno 17342 bound_to 10162
  139.8184  143.7854  152.3175 LP  0  0  0  0  0  0  0  0  0  0  0  0  # atno 17343 bound_to 10162
  156.8240  130.4993  149.5339 LP  0  0  0  0  0  0  0  0  0  0  0  0  # atno 17370 bound_to 10713
  156.1060  130.6005  150.9971 LP  0  0  0  0  0  0  0  0  0  0  0  0  # atno 17371 bound_to 10713
  139.9169  134.8228  156.1337 LP  0  0  0  0  0  0  0  0  0  0  0  0  # atno 17394 bound_to 11000
  141.0769  133.6771  156.2256 LP  0  0  0  0  0  0  0  0  0  0  0  0  # atno 17395 bound_to 11000

$$$$
