AV-unprocessed.smi:1278|AV-procd|sdf|5348|dock7
  -GOLD-   22720 4483D 1   1.00000     0.00000
 Structure written by MMmdl.
 39 40  0  0  0  0  0  0  0  0  2 V2000
  145.4528  135.8689  152.0544 C   0  0  0  0  0  0  0  0  0  0  0  0
  145.3202  134.5158  152.7755 C   0  0  1  0  0  0  0  0  0  0  0  0
  145.6295  133.3173  151.8592 C   0  0  0  0  0  0  0  0  0  0  0  0
  147.1365  133.1917  151.5949 C   0  0  0  0  0  0  0  0  0  0  0  0
  147.9280  133.1602  152.9119 C   0  0  0  0  0  0  0  0  0  0  0  0
  147.6294  134.3536  153.7449 N   0  3  2  0  0  0  0  0  0  0  0  0
  148.4944  134.4296  154.9487 C   0  0  0  0  0  0  0  0  0  0  0  0
  149.9843  134.5908  154.5897 C   0  0  0  0  0  0  0  0  0  0  0  0
  150.3418  135.9924  154.4030 N   0  0  0  0  0  0  0  0  0  0  0  0
  150.1456  136.9586  155.3118 C   0  0  0  0  0  0  0  0  0  0  0  0
  149.6249  136.7564  156.4093 O   0  0  0  0  0  0  0  0  0  0  0  0
  150.5846  138.1483  154.8652 N   0  0  0  0  0  0  0  0  0  0  0  0
  150.5491  139.4016  155.5314 C   0  0  0  0  0  0  0  0  0  0  0  0
  150.3706  140.5772  154.9174 N   0  0  0  0  0  0  0  0  0  0  0  0
  150.3798  141.6455  155.8180 C   0  0  0  0  0  0  0  0  0  0  0  0
  150.5690  141.2622  157.1225 C   0  0  0  0  0  0  0  0  0  0  0  0
  150.7452  139.5342  157.2730 S   0  0  0  0  0  0  0  0  0  0  0  0
  146.1774  134.4533  154.0565 C   0  0  0  0  0  0  0  0  0  0  0  0
  146.4763  136.0622  151.7332 H   0  0  0  0  0  0  0  0  0  0  0  0
  145.1537  136.6897  152.7068 H   0  0  0  0  0  0  0  0  0  0  0  0
  144.8154  135.9055  151.1706 H   0  0  0  0  0  0  0  0  0  0  0  0
  144.2754  134.4310  153.0773 H   0  0  0  0  0  0  0  0  0  0  0  0
  145.2751  132.4015  152.3344 H   0  0  0  0  0  0  0  0  0  0  0  0
  145.0849  133.4021  150.9180 H   0  0  0  0  0  0  0  0  0  0  0  0
  147.3366  132.2867  151.0206 H   0  0  0  0  0  0  0  0  0  0  0  0
  147.4786  134.0244  150.9795 H   0  0  0  0  0  0  0  0  0  0  0  0
  147.6935  132.2545  153.4735 H   0  0  0  0  0  0  0  0  0  0  0  0
  148.9938  133.1248  152.6832 H   0  0  0  0  0  0  0  0  0  0  0  0
  148.1595  135.2415  155.5962 H   0  0  0  0  0  0  0  0  0  0  0  0
  148.3788  133.5106  155.5250 H   0  0  0  0  0  0  0  0  0  0  0  0
  150.6138  134.1469  155.3631 H   0  0  0  0  0  0  0  0  0  0  0  0
  150.2203  134.0706  153.6623 H   0  0  0  0  0  0  0  0  0  0  0  0
  150.7768  136.2419  153.5264 H   0  0  0  0  0  0  0  0  0  0  0  0
  150.9952  138.1603  153.9432 H   0  0  0  0  0  0  0  0  0  0  0  0
  150.2442  142.6491  155.4429 H   0  0  0  0  0  0  0  0  0  0  0  0
  150.6154  141.8894  158.0003 H   0  0  0  0  0  0  0  0  0  0  0  0
  145.9734  135.3326  154.6666 H   0  0  0  0  0  0  0  0  0  0  0  0
  145.8832  133.5891  154.6545 H   0  0  0  0  0  0  0  0  0  0  0  0
  147.8648  135.1549  153.1764 H   0  0  0  0  0  0  0  0  0  0  0  0
  1  2  1  0  0  0  0
  1 19  1  0  0  0  0
  1 20  1  0  0  0  0
  1 21  1  0  0  0  0
  2 18  1  0  0  0  0
  2  3  1  0  0  0  0
  2 22  1  0  0  0  0
  3  4  1  0  0  0  0
  3 23  1  0  0  0  0
  3 24  1  0  0  0  0
  4  5  1  0  0  0  0
  4 25  1  0  0  0  0
  4 26  1  0  0  0  0
  5  6  1  0  0  0  0
  5 27  1  0  0  0  0
  5 28  1  0  0  0  0
  6  7  1  0  0  0  0
  6 18  1  0  0  0  0
  6 39  1  0  0  0  0
  7  8  1  0  0  0  0
  7 29  1  0  0  0  0
  7 30  1  0  0  0  0
  8  9  1  0  0  0  0
  8 31  1  0  0  0  0
  8 32  1  0  0  0  0
  9 10  1  0  0  0  0
  9 33  1  0  0  0  0
 10 11  2  0  0  0  0
 10 12  1  0  0  0  0
 12 13  1  0  0  0  0
 12 34  1  0  0  0  0
 13 17  1  0  0  0  0
 13 14  2  0  0  0  0
 14 15  1  0  0  0  0
 15 16  2  0  0  0  0
 15 35  1  0  0  0  0
 16 17  1  0  0  0  0
 16 36  1  0  0  0  0
 18 37  1  0  0  0  0
 18 38  1  0  0  0  0
M  CHG  1   6   1
M  END
> <s_m_source_file>
AV-unprocessed.smi

> <i_m_source_file_index>
1278

> <i_lp_mmshare_version>
43012

> <i_f3d_flags>
0

> <s_epik_input>
W0NIM11bQ0BASF0xW0NIMl1bQ0gyXVtDSDJdTihbQ0gyXTEpW0NIMl1bQ0gyXVtOSF1DKD1PKVtOSF1jMm5bY0hdW2NIXXMy

> <s_epik_cmdline>
J2VwaWtfcHl0aG9uJywgJy1waCcsICc3LjAnLCAnLXRuJywgJzgnLCAnLW1hJywgJzIwMCcsICctbWV0YWxfYmluZGluZycsICctaW1hZScsICc8aW5maWxlLm1hZT4nLCAnLW9tYWUnLCAnPG91dGZpbGUubWFlPic=

> <r_lp_tautomer_probability>
0.999

> <r_epik_Ionization_Penalty>
0.00222194

> <r_epik_Ionization_Penalty_Charging>
0.00208169

> <r_epik_Ionization_Penalty_Neutral>
0.000140251

> <r_epik_State_Penalty>
0.00142585

> <r_epik_Charging_Adjusted_Penalty>
0.00350754

> <i_epik_Tot_Q>
1

> <i_epik_Tot_abs_Q>
1

> <r_epik_Metal_State_Penalty>
0.0570424

> <b_epik_Metal_Only>
0

> <s_lp_Force_Field>
OPLS_2005

> <r_lp_Energy>
16.7193

> <b_lp_Chiralities_Consistent>
1

> <s_lp_Variant>
AV-unprocessed.smi:1278-2

> <Gold.Version>
5.8.1

> <Gold.Id.Protein>
6NUR|6NUR_protein|mol2

> <Gold.PLP.Fitness>
39.2440

> <Gold.PLP.PLP>
-25.6131

> <Gold.PLP.part.hbond>
-4.0000

> <Gold.PLP.part.metal>
0.0000

> <Gold.PLP.part.buried>
-2.8994

> <Gold.PLP.part.nonpolar>
-19.5010

> <Gold.PLP.part.repulsive>
0.2650

> <Gold.PLP.ligand.clash>
0.0000

> <Gold.PLP.ligand.torsion>
0.4324

> <Gold.PLP.Chemscore.Hbond>
3.8260

> <Gold.PLP.Chemscore.CHOScore>
1.0000

> <Gold.PLP.Chemscore.Metal>
0.0000

> <Gold.Chemscore.Hbonds>
donor molecule, donor type, donor heavy atom, donor atom, acceptor molecule, acceptor atom, score
      L1  H     6    39       P1  7948  2.00
      L1  H     9    33       P1  7949  0.57
      P1  H  7989  7998       L1    14  0.94
      L1  C    15    35       P1  8028  1.00

> <Gold.PLP.Chemscore.Internal.Correction>
0.0178

> <Gold.Rescore>
     Score         DG    S(hbond)    S(metal)    S(lipo)     H(rot)  DE(clash)    DE(int)     intcor
     13.24     -14.57       1.95        0.00      56.95       1.60       0.11       1.22       ----

> <Gold.Chemscore.Fitness>
13.2374

> <Gold.Chemscore.DG>
-14.5675

> <Gold.Chemscore.ZeroCoef>
-5.4800

> <Gold.Chemscore.Hbond>
1.9523

> <Gold.Chemscore.Metal>
0.0000

> <Gold.Chemscore.Lipo>
56.9501

> <Gold.Chemscore.Internal_Hbond>
0.0000

> <Gold.Chemscore.DEClash>
0.1105

> <Gold.Chemscore.DEInternal>
1.2196

> <Gold.Chemscore.Rot>
1.6001

> <Gold.Chemscore.Internal.Correction>
   9.000000E+99

> <Gold.Chemscore.Hbonds>
donor molecule, donor type, donor heavy atom, donor atom, acceptor molecule, acceptor atom, score
      L1  H     6    39       P1  7948  0.94
      L1  H     9    33       P1  7949  0.05
      P1  H  7989  7998       L1    14  0.58

> <Gold.Chemscore.Hbond.Weighted>
-6.5206

> <Gold.Chemscore.Metal.Weighted>
-0.0000

> <Gold.Chemscore.Lipo.Weighted>
-6.6632

> <Gold.Chemscore.Internal_Hbond.Weighted>
0.0000

> <Gold.Chemscore.DEClash.Weighted>
0.1105

> <Gold.Chemscore.DEInternal.Weighted>
1.2196

> <Gold.Chemscore.Rot.Weighted>
4.0963

> <Gold.Chemscore.Internal.Correction.Weighted>
   9.000000E+99

> <Gold.Protein.RotatedTorsions>
[ 6907 6896 6895 6894 ] final  -35.03 input  -60.11 | X-H torsion
[ 7974 7965 7964 7962 ] final   21.46 input  175.53 | X-H torsion
[ 8008 7997 7996 7995 ] final   28.19 input   59.86 | X-H torsion
[ 10167 10162 10161 10158 ] final  -42.98 input  -65.29 | X-H torsion
[ 10718 10713 10712 10709 ] final  107.35 input   66.30 | X-H torsion
[ 10763 10752 10751 10750 ] final -105.02 input  -60.55 | X-H torsion
[ 11005 11000 10999 10996 ] final -107.43 input  -57.11 | X-H torsion

> <Gold.Protein.ActiveResidues>
 VAL166  LYS551  ARG553  GLY616  TRP617  ASP618  TYR619  PRO620  LYS621  CYS622 
 ASP623  PHE694  ASN695  SER759  ASP760  ASP761  ALA762  ILE779  LEU786  VAL792 
 PHE793  MET794  SER795  GLU796  ALA797  LYS798  CYS799  TRP800  GLU811  SER814 

> <Gold.Protein.RotatedAtoms>
  151.0450  134.9634  159.8181 H   0  0  0  0  0  0  0  0  0  0  0  0  # atno 6907 bound_to 6896
  152.5371  134.2609  159.8945 H   0  0  0  0  0  0  0  0  0  0  0  0  # atno 6908 bound_to 6896
  151.2623  133.4253  159.2650 H   0  0  0  0  0  0  0  0  0  0  0  0  # atno 6909 bound_to 6896
  146.2070  139.8024  142.8718 H   0  0  0  0  0  0  0  0  0  0  0  0  # atno 7974 bound_to 7965
  155.0548  140.3184  155.4680 H   0  0  0  0  0  0  0  0  0  0  0  0  # atno 8008 bound_to 7997
  156.2826  140.2139  156.5619 H   0  0  0  0  0  0  0  0  0  0  0  0  # atno 8009 bound_to 7997
  154.7180  140.0492  157.0600 H   0  0  0  0  0  0  0  0  0  0  0  0  # atno 8010 bound_to 7997
  140.6950  143.3008  151.3286 H   0  0  0  0  0  0  0  0  0  0  0  0  # atno 10167 bound_to 10162
  157.6632  131.0871  150.6144 H   0  0  0  0  0  0  0  0  0  0  0  0  # atno 10718 bound_to 10713
  154.7918  135.4765  154.0070 H   0  0  0  0  0  0  0  0  0  0  0  0  # atno 10763 bound_to 10752
  153.1642  135.6814  153.8706 H   0  0  0  0  0  0  0  0  0  0  0  0  # atno 10764 bound_to 10752
  153.8309  135.3192  155.3396 H   0  0  0  0  0  0  0  0  0  0  0  0  # atno 10765 bound_to 10752
  141.0954  133.8980  157.1975 H   0  0  0  0  0  0  0  0  0  0  0  0  # atno 11005 bound_to 11000
  145.3283  141.0260  143.3461 LP  0  0  0  0  0  0  0  0  0  0  0  0  # atno 17320 bound_to 7965
  144.8817  139.4894  143.6719 LP  0  0  0  0  0  0  0  0  0  0  0  0  # atno 17321 bound_to 7965
  139.6395  144.0566  152.2543 LP  0  0  0  0  0  0  0  0  0  0  0  0  # atno 17342 bound_to 10162
  140.0067  144.6254  150.7682 LP  0  0  0  0  0  0  0  0  0  0  0  0  # atno 17343 bound_to 10162
  156.6445  130.4468  149.5740 LP  0  0  0  0  0  0  0  0  0  0  0  0  # atno 17370 bound_to 10713
  156.2184  130.6722  151.1342 LP  0  0  0  0  0  0  0  0  0  0  0  0  # atno 17371 bound_to 10713
  139.9789  135.0104  156.9701 LP  0  0  0  0  0  0  0  0  0  0  0  0  # atno 17394 bound_to 11000
  140.5153  134.0962  155.7279 LP  0  0  0  0  0  0  0  0  0  0  0  0  # atno 17395 bound_to 11000

$$$$
