AV-unprocessed.smi:1985|AV-procd|sdf|8044|dock8
  -GOLD-   2272010243D 1   1.00000     0.00000
 Structure written by MMmdl.
 51 52  0  0  0  0  0  0  0  0  2 V2000
  143.0284  135.6020  153.6489 C   0  0  0  0  0  0  0  0  0  0  0  0
  143.7962  136.2543  152.4853 C   0  0  0  0  0  0  0  0  0  0  0  0
  145.1706  135.6049  152.1327 C   0  0  1  0  0  0  0  0  0  0  0  0
  145.6616  136.2598  150.8143 C   0  0  0  0  0  0  0  0  0  0  0  0
  146.2112  135.9063  153.2578 C   0  0  0  0  0  0  0  0  0  0  0  0
  146.8686  137.2042  153.1098 N   0  0  0  0  0  0  0  0  0  0  0  0
  146.8098  138.2127  153.9929 C   0  0  0  0  0  0  0  0  0  0  0  0
  146.2232  138.1339  155.0727 O   0  0  0  0  0  0  0  0  0  0  0  0
  147.5204  139.5105  153.5907 C   0  0  0  0  0  0  0  0  0  0  0  0
  148.8704  139.6006  154.1614 N   0  0  0  0  0  0  0  0  0  0  0  0
  149.7660  138.5636  153.9719 C   0  0  0  0  0  0  0  0  0  0  0  0
  151.0180  138.5589  154.4787 C   0  0  0  0  0  0  0  0  0  0  0  0
  151.5048  139.6777  155.2756 C   0  0  0  0  0  0  0  0  0  0  0  0
  152.6352  139.7228  155.7630 O   0  0  0  0  0  0  0  0  0  0  0  0
  150.5720  140.7246  155.4539 N   0  0  0  0  0  0  0  0  0  0  0  0
  151.0167  141.8521  156.2462 C   0  0  0  0  0  0  0  0  0  0  0  0
  149.2622  140.7263  154.9200 C   0  0  0  0  0  0  0  0  0  0  0  0
  148.4751  141.6591  155.0990 O   0  0  0  0  0  0  0  0  0  0  0  0
  145.0013  134.1170  151.9490 N   0  3  0  0  0  0  0  0  0  0  0  0
  143.9931  133.6891  150.9382 C   0  0  0  0  0  0  0  0  0  0  0  0
  143.7848  132.1657  150.9961 C   0  0  0  0  0  0  0  0  0  0  0  0
  145.0230  131.4995  150.7942 O   0  0  0  0  0  0  0  0  0  0  0  0
  145.9676  131.8296  151.8028 C   0  0  0  0  0  0  0  0  0  0  0  0
  146.2580  133.3381  151.7580 C   0  0  0  0  0  0  0  0  0  0  0  0
  142.0806  136.1155  153.8120 H   0  0  0  0  0  0  0  0  0  0  0  0
  143.5867  135.6501  154.5839 H   0  0  0  0  0  0  0  0  0  0  0  0
  142.7970  134.5565  153.4468 H   0  0  0  0  0  0  0  0  0  0  0  0
  143.1420  136.2225  151.6141 H   0  0  0  0  0  0  0  0  0  0  0  0
  143.9182  137.3170  152.6929 H   0  0  0  0  0  0  0  0  0  0  0  0
  145.5755  137.3467  150.8472 H   0  0  0  0  0  0  0  0  0  0  0  0
  145.0872  135.9188  149.9527 H   0  0  0  0  0  0  0  0  0  0  0  0
  146.7115  136.0438  150.6159 H   0  0  0  0  0  0  0  0  0  0  0  0
  145.7535  135.8449  154.2451 H   0  0  0  0  0  0  0  0  0  0  0  0
  147.0026  135.1575  153.2526 H   0  0  0  0  0  0  0  0  0  0  0  0
  147.3805  137.3591  152.2531 H   0  0  0  0  0  0  0  0  0  0  0  0
  147.5674  139.5502  152.5017 H   0  0  0  0  0  0  0  0  0  0  0  0
  146.9303  140.3774  153.8934 H   0  0  0  0  0  0  0  0  0  0  0  0
  149.4500  137.7085  153.3923 H   0  0  0  0  0  0  0  0  0  0  0  0
  151.6668  137.7151  154.2945 H   0  0  0  0  0  0  0  0  0  0  0  0
  150.2432  142.6153  156.3244 H   0  0  0  0  0  0  0  0  0  0  0  0
  151.8959  142.2688  155.7514 H   0  0  0  0  0  0  0  0  0  0  0  0
  151.2620  141.4713  157.2393 H   0  0  0  0  0  0  0  0  0  0  0  0
  143.0260  134.1579  151.1100 H   0  0  0  0  0  0  0  0  0  0  0  0
  144.3177  133.9751  149.9376 H   0  0  0  0  0  0  0  0  0  0  0  0
  143.3503  131.8687  151.9521 H   0  0  0  0  0  0  0  0  0  0  0  0
  143.0867  131.8524  150.2198 H   0  0  0  0  0  0  0  0  0  0  0  0
  145.5946  131.5317  152.7843 H   0  0  0  0  0  0  0  0  0  0  0  0
  146.8834  131.2657  151.6254 H   0  0  0  0  0  0  0  0  0  0  0  0
  146.7156  133.5811  150.7989 H   0  0  0  0  0  0  0  0  0  0  0  0
  146.9911  133.5637  152.5301 H   0  0  0  0  0  0  0  0  0  0  0  0
  144.6294  133.8005  152.8333 H   0  0  0  0  0  0  0  0  0  0  0  0
  1  2  1  0  0  0  0
  1 25  1  0  0  0  0
  1 26  1  0  0  0  0
  1 27  1  0  0  0  0
  2  3  1  0  0  0  0
  2 28  1  0  0  0  0
  2 29  1  0  0  0  0
  3  4  1  0  0  0  0
  3  5  1  0  0  0  0
  3 19  1  0  0  0  0
  4 30  1  0  0  0  0
  4 31  1  0  0  0  0
  4 32  1  0  0  0  0
  5  6  1  0  0  0  0
  5 33  1  0  0  0  0
  5 34  1  0  0  0  0
  6  7  1  0  0  0  0
  6 35  1  0  0  0  0
  7  8  2  0  0  0  0
  7  9  1  0  0  0  0
  9 10  1  0  0  0  0
  9 36  1  0  0  0  0
  9 37  1  0  0  0  0
 10 17  1  0  0  0  0
 10 11  1  0  0  0  0
 11 12  2  0  0  0  0
 11 38  1  0  0  0  0
 12 13  1  0  0  0  0
 12 39  1  0  0  0  0
 13 14  2  0  0  0  0
 13 15  1  0  0  0  0
 15 16  1  0  0  0  0
 15 17  1  0  0  0  0
 16 40  1  0  0  0  0
 16 41  1  0  0  0  0
 16 42  1  0  0  0  0
 17 18  2  0  0  0  0
 19 24  1  0  0  0  0
 19 20  1  0  0  0  0
 19 51  1  0  0  0  0
 20 21  1  0  0  0  0
 20 43  1  0  0  0  0
 20 44  1  0  0  0  0
 21 22  1  0  0  0  0
 21 45  1  0  0  0  0
 21 46  1  0  0  0  0
 22 23  1  0  0  0  0
 23 24  1  0  0  0  0
 23 47  1  0  0  0  0
 23 48  1  0  0  0  0
 24 49  1  0  0  0  0
 24 50  1  0  0  0  0
M  CHG  1  19   1
M  END
> <s_m_source_file>
AV-unprocessed.smi

> <i_m_source_file_index>
1985

> <i_lp_mmshare_version>
43012

> <i_f3d_flags>
0

> <s_epik_input>
W0NIMl0xW0NIMl1PW0NIMl1bQ0gyXU4xW0NAQF0oW0NIM10pKFtDSDJdW0NIM10pW0NIMl1bTkhdQyg9TylbQ0gyXW4yW2NIXVtjSF1jKD1PKW4oW0NIM10pYzI9Tw==

> <s_epik_cmdline>
J2VwaWtfcHl0aG9uJywgJy1waCcsICc3LjAnLCAnLXRuJywgJzgnLCAnLW1hJywgJzIwMCcsICctbWV0YWxfYmluZGluZycsICctaW1hZScsICc8aW5maWxlLm1hZT4nLCAnLW9tYWUnLCAnPG91dGZpbGUubWFlPic=

> <r_lp_tautomer_probability>
1

> <r_epik_Ionization_Penalty>
0.519658

> <r_epik_Ionization_Penalty_Charging>
0.519658

> <r_epik_Ionization_Penalty_Neutral>
8.70177e-08

> <r_epik_State_Penalty>
0.527569

> <r_epik_Charging_Adjusted_Penalty>
1.04723

> <i_epik_Tot_Q>
1

> <i_epik_Tot_abs_Q>
1

> <r_epik_Metal_State_Penalty>
0.527613

> <b_epik_Metal_Only>
0

> <s_lp_Force_Field>
OPLS_2005

> <r_lp_Energy>
36.0852

> <b_lp_Chiralities_Consistent>
1

> <s_lp_Variant>
AV-unprocessed.smi:1985-3

> <Gold.Version>
5.8.1

> <Gold.Id.Protein>
6NUR|6NUR_protein|mol2

> <Gold.PLP.Fitness>
46.7298

> <Gold.PLP.PLP>
-40.9943

> <Gold.PLP.part.hbond>
-2.0000

> <Gold.PLP.part.metal>
0.0000

> <Gold.PLP.part.buried>
-3.9309

> <Gold.PLP.part.nonpolar>
-36.0206

> <Gold.PLP.part.repulsive>
0.5834

> <Gold.PLP.ligand.clash>
0.0000

> <Gold.PLP.ligand.torsion>
0.9352

> <Gold.PLP.Chemscore.Hbond>
1.4320

> <Gold.PLP.Chemscore.CHOScore>
1.0000

> <Gold.PLP.Chemscore.Metal>
0.0000

> <Gold.Chemscore.Hbonds>
donor molecule, donor type, donor heavy atom, donor atom, acceptor molecule, acceptor atom, score
      L1  H     6    35       P1  7948  0.40
      P1  H  7997  8009       L1    14  1.00
      L1  C    11    38       P1  7948  1.00

> <Gold.PLP.Chemscore.Internal.Correction>
0.3100

> <Gold.Rescore>
     Score         DG    S(hbond)    S(metal)    S(lipo)     H(rot)  DE(clash)    DE(int)     intcor
     13.14     -14.05       1.64        0.00      76.13       2.27       0.02       0.89       ----

> <Gold.Chemscore.Fitness>
13.1359

> <Gold.Chemscore.DG>
-14.0463

> <Gold.Chemscore.ZeroCoef>
-5.4800

> <Gold.Chemscore.Hbond>
1.6397

> <Gold.Chemscore.Metal>
0.0000

> <Gold.Chemscore.Lipo>
76.1297

> <Gold.Chemscore.Internal_Hbond>
0.0000

> <Gold.Chemscore.DEClash>
0.0218

> <Gold.Chemscore.DEInternal>
0.8886

> <Gold.Chemscore.Rot>
2.2724

> <Gold.Chemscore.Internal.Correction>
   9.000000E+99

> <Gold.Chemscore.Hbonds>
donor molecule, donor type, donor heavy atom, donor atom, acceptor molecule, acceptor atom, score
      L1  H     6    35       P1  7948  0.39
      P1  H  7997  8009       L1    14  1.00

> <Gold.Chemscore.Hbond.Weighted>
-5.4765

> <Gold.Chemscore.Metal.Weighted>
-0.0000

> <Gold.Chemscore.Lipo.Weighted>
-8.9072

> <Gold.Chemscore.Internal_Hbond.Weighted>
0.0000

> <Gold.Chemscore.DEClash.Weighted>
0.0218

> <Gold.Chemscore.DEInternal.Weighted>
0.8886

> <Gold.Chemscore.Rot.Weighted>
5.8174

> <Gold.Chemscore.Internal.Correction.Weighted>
   9.000000E+99

> <Gold.Protein.RotatedTorsions>
[ 6907 6896 6895 6894 ] final  169.80 input  -60.11 | X-H torsion
[ 7974 7965 7964 7962 ] final -119.56 input  175.53 | X-H torsion
[ 8008 7997 7996 7995 ] final -149.60 input   59.86 | X-H torsion
[ 10167 10162 10161 10158 ] final -151.40 input  -65.29 | X-H torsion
[ 10718 10713 10712 10709 ] final  -25.13 input   66.30 | X-H torsion
[ 10763 10752 10751 10750 ] final  147.62 input  -60.55 | X-H torsion
[ 11005 11000 10999 10996 ] final  138.76 input  -57.11 | X-H torsion

> <Gold.Protein.ActiveResidues>
 VAL166  LYS551  ARG553  GLY616  TRP617  ASP618  TYR619  PRO620  LYS621  CYS622 
 ASP623  PHE694  ASN695  SER759  ASP760  ASP761  ALA762  ILE779  LEU786  VAL792 
 PHE793  MET794  SER795  GLU796  ALA797  LYS798  CYS799  TRP800  GLU811  SER814 

> <Gold.Protein.RotatedAtoms>
  151.8262  133.3402  159.3599 H   0  0  0  0  0  0  0  0  0  0  0  0  # atno 6907 bound_to 6896
  150.7278  134.5526  159.5811 H   0  0  0  0  0  0  0  0  0  0  0  0  # atno 6908 bound_to 6896
  152.2969  134.7657  160.0417 H   0  0  0  0  0  0  0  0  0  0  0  0  # atno 6909 bound_to 6896
  145.0612  140.8291  143.4151 H   0  0  0  0  0  0  0  0  0  0  0  0  # atno 7974 bound_to 7965
  155.6103  140.0671  157.2708 H   0  0  0  0  0  0  0  0  0  0  0  0  # atno 8008 bound_to 7997
  154.4255  140.1802  156.1313 H   0  0  0  0  0  0  0  0  0  0  0  0  # atno 8009 bound_to 7997
  156.0090  140.3328  155.6925 H   0  0  0  0  0  0  0  0  0  0  0  0  # atno 8010 bound_to 7997
  139.7270  143.8867  152.2522 H   0  0  0  0  0  0  0  0  0  0  0  0  # atno 10167 bound_to 10162
  156.4684  130.4519  149.6884 H   0  0  0  0  0  0  0  0  0  0  0  0  # atno 10718 bound_to 10713
  154.0414  135.2889  155.3354 H   0  0  0  0  0  0  0  0  0  0  0  0  # atno 10763 bound_to 10752
  154.6927  135.5220  153.8418 H   0  0  0  0  0  0  0  0  0  0  0  0  # atno 10764 bound_to 10752
  153.0598  135.6609  154.0617 H   0  0  0  0  0  0  0  0  0  0  0  0  # atno 10765 bound_to 10752
  140.0206  134.9398  157.0466 H   0  0  0  0  0  0  0  0  0  0  0  0  # atno 11005 bound_to 11000
  145.1406  139.2574  143.5492 LP  0  0  0  0  0  0  0  0  0  0  0  0  # atno 17320 bound_to 7965
  146.3524  140.1082  142.8605 LP  0  0  0  0  0  0  0  0  0  0  0  0  # atno 17321 bound_to 7965
  139.8779  144.7033  150.8911 LP  0  0  0  0  0  0  0  0  0  0  0  0  # atno 17342 bound_to 10162
  140.7764  143.3684  151.1695 LP  0  0  0  0  0  0  0  0  0  0  0  0  # atno 17343 bound_to 10162
  156.3644  130.7498  151.2474 LP  0  0  0  0  0  0  0  0  0  0  0  0  # atno 17370 bound_to 10713
  157.7493  131.0341  150.4302 LP  0  0  0  0  0  0  0  0  0  0  0  0  # atno 17371 bound_to 10713
  140.4394  134.1697  155.7173 LP  0  0  0  0  0  0  0  0  0  0  0  0  # atno 17394 bound_to 11000
  141.1771  133.8491  157.1384 LP  0  0  0  0  0  0  0  0  0  0  0  0  # atno 17395 bound_to 11000

$$$$
