AV-unprocessed.smi:2454|AV-procd|sdf|9696|dock10
  -GOLD-   2272013333D 1   1.00000     0.00000
 Structure written by MMmdl.
 42 43  0  0  0  0  0  0  0  0  1 V2000
  147.3071  132.3816  153.1401 C   0  0  0  0  0  0  0  0  0  0  0  0
  148.3341  132.5147  154.1068 O   0  0  0  0  0  0  0  0  0  0  0  0
  149.2042  133.5991  153.8297 C   0  0  0  0  0  0  0  0  0  0  0  0
  150.0171  133.9790  155.0500 C   0  0  0  0  0  0  0  0  0  0  0  0
  150.2001  135.3291  155.4163 C   0  0  0  0  0  0  0  0  0  0  0  0
  150.9814  135.5910  156.5645 C   0  0  0  0  0  0  0  0  0  0  0  0
  151.1321  136.9706  156.8922 N   0  0  0  0  0  0  0  0  0  0  0  0
  151.4889  137.5837  158.0413 C   0  0  0  0  0  0  0  0  0  0  0  0
  151.7518  136.9304  159.0497 O   0  0  0  0  0  0  0  0  0  0  0  0
  151.5337  138.9258  158.0078 N   0  0  0  0  0  0  0  0  0  0  0  0
  151.8831  139.8097  159.1157 C   0  0  1  0  0  0  0  0  0  0  0  0
  153.3525  139.5843  159.5136 C   0  0  0  0  0  0  0  0  0  0  0  0
  153.7868  140.5610  160.6162 C   0  0  0  0  0  0  0  0  0  0  0  0
  153.5446  142.0195  160.1968 C   0  0  0  0  0  0  0  0  0  0  0  0
  152.0707  142.2631  159.8083 C   0  0  1  0  0  0  0  0  0  0  0  0
  151.8139  143.7290  159.4017 C   0  0  0  0  0  0  0  0  0  0  0  0
  152.4967  144.0428  158.3003 F   0  0  0  0  0  0  0  0  0  0  0  0
  150.5145  143.9188  159.1722 F   0  0  0  0  0  0  0  0  0  0  0  0
  152.1852  144.5476  160.3861 F   0  0  0  0  0  0  0  0  0  0  0  0
  151.6428  141.2740  158.7029 C   0  0  0  0  0  0  0  0  0  0  0  0
  151.5179  134.5564  157.2613 N   0  0  0  0  0  0  0  0  0  0  0  0
  151.2842  133.3158  156.8268 C   0  0  0  0  0  0  0  0  0  0  0  0
  150.5636  132.9694  155.7600 N   0  0  0  0  0  0  0  0  0  0  0  0
  146.6635  131.5419  153.4022 H   0  0  0  0  0  0  0  0  0  0  0  0
  147.7207  132.1914  152.1490 H   0  0  0  0  0  0  0  0  0  0  0  0
  146.6880  133.2786  153.0955 H   0  0  0  0  0  0  0  0  0  0  0  0
  149.8841  133.3332  153.0187 H   0  0  0  0  0  0  0  0  0  0  0  0
  148.6293  134.4643  153.4940 H   0  0  0  0  0  0  0  0  0  0  0  0
  149.7607  136.1277  154.8363 H   0  0  0  0  0  0  0  0  0  0  0  0
  150.9332  137.6018  156.1298 H   0  0  0  0  0  0  0  0  0  0  0  0
  151.3018  139.3731  157.1319 H   0  0  0  0  0  0  0  0  0  0  0  0
  151.2585  139.5957  159.9849 H   0  0  0  0  0  0  0  0  0  0  0  0
  153.4956  138.5578  159.8536 H   0  0  0  0  0  0  0  0  0  0  0  0
  153.9966  139.7140  158.6424 H   0  0  0  0  0  0  0  0  0  0  0  0
  153.2344  140.3472  161.5322 H   0  0  0  0  0  0  0  0  0  0  0  0
  154.8413  140.4115  160.8494 H   0  0  0  0  0  0  0  0  0  0  0  0
  153.8324  142.6819  161.0135 H   0  0  0  0  0  0  0  0  0  0  0  0
  154.1942  142.2671  159.3565 H   0  0  0  0  0  0  0  0  0  0  0  0
  151.4588  142.0588  160.6883 H   0  0  0  0  0  0  0  0  0  0  0  0
  152.1928  141.4913  157.7859 H   0  0  0  0  0  0  0  0  0  0  0  0
  150.5871  141.4152  158.4679 H   0  0  0  0  0  0  0  0  0  0  0  0
  151.7229  132.5115  157.3984 H   0  0  0  0  0  0  0  0  0  0  0  0
  1  2  1  0  0  0  0
  1 24  1  0  0  0  0
  1 25  1  0  0  0  0
  1 26  1  0  0  0  0
  2  3  1  0  0  0  0
  3  4  1  0  0  0  0
  3 27  1  0  0  0  0
  3 28  1  0  0  0  0
  4 23  1  0  0  0  0
  4  5  2  0  0  0  0
  5  6  1  0  0  0  0
  5 29  1  0  0  0  0
  6  7  1  0  0  0  0
  6 21  2  0  0  0  0
  7  8  1  0  0  0  0
  7 30  1  0  0  0  0
  8  9  2  0  0  0  0
  8 10  1  0  0  0  0
 10 11  1  0  0  0  0
 10 31  1  0  0  0  0
 11 20  1  0  0  0  0
 11 12  1  0  0  0  0
 11 32  1  0  0  0  0
 12 13  1  0  0  0  0
 12 33  1  0  0  0  0
 12 34  1  0  0  0  0
 13 14  1  0  0  0  0
 13 35  1  0  0  0  0
 13 36  1  0  0  0  0
 14 15  1  0  0  0  0
 14 37  1  0  0  0  0
 14 38  1  0  0  0  0
 15 16  1  0  0  0  0
 15 20  1  0  0  0  0
 15 39  1  0  0  0  0
 16 17  1  0  0  0  0
 16 18  1  0  0  0  0
 16 19  1  0  0  0  0
 20 40  1  0  0  0  0
 20 41  1  0  0  0  0
 21 22  1  0  0  0  0
 22 23  2  0  0  0  0
 22 42  1  0  0  0  0
M  END
> <s_m_source_file>
AV-unprocessed.smi

> <i_m_source_file_index>
2454

> <i_lp_mmshare_version>
43012

> <i_f3d_flags>
0

> <s_epik_input>
W0NIM11PW0NIMl1jMVtjSF1jKG5bY0hdbjEpW05IXUMoPU8pW05IXVtDQEBIXTJbQ0gyXVtDSDJdW0NIMl1bQ0BASF0oQyhGKShGKUYpW0NIMl0y

> <s_epik_cmdline>
J2VwaWtfcHl0aG9uJywgJy1waCcsICc3LjAnLCAnLXRuJywgJzgnLCAnLW1hJywgJzIwMCcsICctbWV0YWxfYmluZGluZycsICctaW1hZScsICc8aW5maWxlLm1hZT4nLCAnLW9tYWUnLCAnPG91dGZpbGUubWFlPic=

> <r_lp_tautomer_probability>
1

> <r_epik_Ionization_Penalty>
3.01554e-05

> <r_epik_Ionization_Penalty_Charging>
0

> <r_epik_Ionization_Penalty_Neutral>
3.01554e-05

> <r_epik_State_Penalty>
-0

> <r_epik_Charging_Adjusted_Penalty>
0

> <i_epik_Tot_Q>
0

> <i_epik_Tot_abs_Q>
0

> <r_epik_Metal_State_Penalty>
-0

> <b_epik_Metal_Only>
0

> <s_lp_Force_Field>
OPLS_2005

> <r_lp_Energy>
13.6068

> <b_lp_Chiralities_Consistent>
1

> <s_lp_Variant>
AV-unprocessed.smi:2454-2

> <Gold.Version>
5.8.1

> <Gold.Id.Protein>
6NUR|6NUR_protein|mol2

> <Gold.PLP.Fitness>
45.3822

> <Gold.PLP.PLP>
-43.4557

> <Gold.PLP.part.hbond>
-2.0000

> <Gold.PLP.part.metal>
0.0000

> <Gold.PLP.part.buried>
-5.9292

> <Gold.PLP.part.nonpolar>
-36.4685

> <Gold.PLP.part.repulsive>
0.2321

> <Gold.PLP.ligand.clash>
0.0000

> <Gold.PLP.ligand.torsion>
0.3973

> <Gold.PLP.Chemscore.Hbond>
0.8933

> <Gold.PLP.Chemscore.CHOScore>
0.0000

> <Gold.PLP.Chemscore.Metal>
0.0000

> <Gold.Chemscore.Hbonds>
donor molecule, donor type, donor heavy atom, donor atom, acceptor molecule, acceptor atom, score
      P1  H  6896  6907       L1     9  0.89
      P1  H  6896  6909       L1    21  0.01

> <Gold.PLP.Chemscore.Internal.Correction>
0.0413

> <Gold.Rescore>
     Score         DG    S(hbond)    S(metal)    S(lipo)     H(rot)  DE(clash)    DE(int)     intcor
     11.98     -13.51       0.93        0.00      77.05       1.60       0.02       1.50       ----

> <Gold.Chemscore.Fitness>
11.9798

> <Gold.Chemscore.DG>
-13.5063

> <Gold.Chemscore.ZeroCoef>
-5.4800

> <Gold.Chemscore.Hbond>
0.9332

> <Gold.Chemscore.Metal>
0.0000

> <Gold.Chemscore.Lipo>
77.0478

> <Gold.Chemscore.Internal_Hbond>
0.0000

> <Gold.Chemscore.DEClash>
0.0229

> <Gold.Chemscore.DEInternal>
1.5036

> <Gold.Chemscore.Rot>
1.6035

> <Gold.Chemscore.Internal.Correction>
   9.000000E+99

> <Gold.Chemscore.Hbonds>
donor molecule, donor type, donor heavy atom, donor atom, acceptor molecule, acceptor atom, score
      P1  H  6896  6907       L1     9  0.81

> <Gold.Chemscore.Hbond.Weighted>
-3.1168

> <Gold.Chemscore.Metal.Weighted>
-0.0000

> <Gold.Chemscore.Lipo.Weighted>
-9.0146

> <Gold.Chemscore.Internal_Hbond.Weighted>
0.0000

> <Gold.Chemscore.DEClash.Weighted>
0.0229

> <Gold.Chemscore.DEInternal.Weighted>
1.5036

> <Gold.Chemscore.Rot.Weighted>
4.1050

> <Gold.Chemscore.Internal.Correction.Weighted>
   9.000000E+99

> <Gold.Protein.RotatedTorsions>
[ 6907 6896 6895 6894 ] final  -17.63 input  -60.11 | X-H torsion
[ 7974 7965 7964 7962 ] final   22.83 input  175.53 | X-H torsion
[ 8008 7997 7996 7995 ] final  148.04 input   59.86 | X-H torsion
[ 10167 10162 10161 10158 ] final  -23.18 input  -65.29 | X-H torsion
[ 10718 10713 10712 10709 ] final   -7.54 input   66.30 | X-H torsion
[ 10763 10752 10751 10750 ] final   37.86 input  -60.55 | X-H torsion
[ 11005 11000 10999 10996 ] final   26.64 input  -57.11 | X-H torsion

> <Gold.Protein.ActiveResidues>
 VAL166  LYS551  ARG553  GLY616  TRP617  ASP618  TYR619  PRO620  LYS621  CYS622 
 ASP623  PHE694  ASN695  SER759  ASP760  ASP761  ALA762  ILE779  LEU786  VAL792 
 PHE793  MET794  SER795  GLU796  ALA797  LYS798  CYS799  TRP800  GLU811  SER814 

> <Gold.Protein.RotatedAtoms>
  151.2904  135.0740  159.9201 H   0  0  0  0  0  0  0  0  0  0  0  0  # atno 6907 bound_to 6896
  152.5317  133.9938  159.7873 H   0  0  0  0  0  0  0  0  0  0  0  0  # atno 6908 bound_to 6896
  151.0207  133.5828  159.2702 H   0  0  0  0  0  0  0  0  0  0  0  0  # atno 6909 bound_to 6896
  146.2011  139.7830  142.8760 H   0  0  0  0  0  0  0  0  0  0  0  0  # atno 7974 bound_to 7965
  156.2805  140.2139  156.5634 H   0  0  0  0  0  0  0  0  0  0  0  0  # atno 8008 bound_to 7997
  154.7195  140.0505  157.0648 H   0  0  0  0  0  0  0  0  0  0  0  0  # atno 8009 bound_to 7997
  155.0498  140.3155  155.4699 H   0  0  0  0  0  0  0  0  0  0  0  0  # atno 8010 bound_to 7997
  140.7287  143.4467  151.0577 H   0  0  0  0  0  0  0  0  0  0  0  0  # atno 10167 bound_to 10162
  156.7157  130.5135  149.5880 H   0  0  0  0  0  0  0  0  0  0  0  0  # atno 10718 bound_to 10713
  153.0022  135.6266  154.2213 H   0  0  0  0  0  0  0  0  0  0  0  0  # atno 10763 bound_to 10752
  154.1955  135.2806  155.3009 H   0  0  0  0  0  0  0  0  0  0  0  0  # atno 10764 bound_to 10752
  154.5725  135.5672  153.7168 H   0  0  0  0  0  0  0  0  0  0  0  0  # atno 10765 bound_to 10752
  140.3349  134.2397  155.7697 H   0  0  0  0  0  0  0  0  0  0  0  0  # atno 11005 bound_to 11000
  145.3479  141.0301  143.3355 LP  0  0  0  0  0  0  0  0  0  0  0  0  # atno 17320 bound_to 7965
  144.8687  139.5070  143.6778 LP  0  0  0  0  0  0  0  0  0  0  0  0  # atno 17321 bound_to 7965
  139.8139  143.7913  152.3173 LP  0  0  0  0  0  0  0  0  0  0  0  0  # atno 17342 bound_to 10162
  139.7972  144.7388  150.9874 LP  0  0  0  0  0  0  0  0  0  0  0  0  # atno 17343 bound_to 10162
  156.1629  130.6386  151.0742 LP  0  0  0  0  0  0  0  0  0  0  0  0  # atno 17370 bound_to 10713
  157.6918  131.0807  150.7085 LP  0  0  0  0  0  0  0  0  0  0  0  0  # atno 17371 bound_to 10713
  141.2054  133.7861  157.0236 LP  0  0  0  0  0  0  0  0  0  0  0  0  # atno 17394 bound_to 11000
  140.0830  134.9637  157.1654 LP  0  0  0  0  0  0  0  0  0  0  0  0  # atno 17395 bound_to 11000

$$$$
