AV-unprocessed.smi:72|AV-procd|sdf|706|dock2
  -GOLD-   2262017 23D 1   1.00000     0.00000
 Structure written by MMmdl.
 30 31  0  0  0  0  0  0  0  0  2 V2000
  150.7830  135.7076  155.6436 N   0  0  0  0  0  0  0  0  0  0  0  0
  150.3822  137.0251  155.5700 C   0  0  0  0  0  0  0  0  0  0  0  0
  149.9600  137.5010  154.3427 N   0  3  0  0  0  0  0  0  0  0  0  0
  149.5159  138.7433  154.1096 C   0  0  0  0  0  0  0  0  0  0  0  0
  149.4225  139.5931  155.1147 N   0  0  0  0  0  0  0  0  0  0  0  0
  148.9238  141.0065  154.9076 C   0  0  1  0  0  0  0  0  0  0  0  0
  148.6732  141.1859  153.5444 O   0  0  0  0  0  0  0  0  0  0  0  0
  147.2806  141.0825  153.2508 C   0  0  1  0  0  0  0  0  0  0  0  0
  146.8704  139.6130  152.9881 C   0  0  0  0  0  0  0  0  0  0  0  0
  147.4192  139.1717  151.7652 O   0  0  0  0  0  0  0  0  0  0  0  0
  146.6639  141.7203  154.5021 C   0  0  1  0  0  0  0  0  0  0  0  0
  145.3267  141.3191  154.7278 O   0  0  0  0  0  0  0  0  0  0  0  0
  147.5842  141.2740  155.6334 C   0  0  2  0  0  0  0  0  0  0  0  0
  147.7019  142.3118  156.5860 O   0  0  0  0  0  0  0  0  0  0  0  0
  149.9288  139.2233  156.3889 C   0  0  0  0  0  0  0  0  0  0  0  0
  149.9720  140.0412  157.3061 O   0  0  0  0  0  0  0  0  0  0  0  0
  150.3674  137.8996  156.5370 N   0  0  0  0  0  0  0  0  0  0  0  0
  149.7514  141.6412  155.2290 H   0  0  0  0  0  0  0  0  0  0  0  0
  147.0406  141.6844  152.3732 H   0  0  0  0  0  0  0  0  0  0  0  0
  146.6983  142.8058  154.3919 H   0  0  0  0  0  0  0  0  0  0  0  0
  147.2130  140.3601  156.1003 H   0  0  0  0  0  0  0  0  0  0  0  0
  151.1179  135.2789  156.4950 H   0  0  0  0  0  0  0  0  0  0  0  0
  150.7750  135.0694  154.8608 H   0  0  0  0  0  0  0  0  0  0  0  0
  149.2621  139.0206  153.0955 H   0  0  0  0  0  0  0  0  0  0  0  0
  147.1520  138.9420  153.7981 H   0  0  0  0  0  0  0  0  0  0  0  0
  145.7890  139.5332  152.8790 H   0  0  0  0  0  0  0  0  0  0  0  0
  148.3423  139.3757  151.7572 H   0  0  0  0  0  0  0  0  0  0  0  0
  144.8814  141.2720  153.8951 H   0  0  0  0  0  0  0  0  0  0  0  0
  148.0649  143.0740  156.1614 H   0  0  0  0  0  0  0  0  0  0  0  0
  149.9969  136.8619  153.5613 H   0  0  0  0  0  0  0  0  0  0  0  0
  1  2  1  0  0  0  0
  1 22  1  0  0  0  0
  1 23  1  0  0  0  0
  2 17  2  0  0  0  0
  2  3  1  0  0  0  0
  3  4  2  0  0  0  0
  3 30  1  0  0  0  0
  4  5  1  0  0  0  0
  4 24  1  0  0  0  0
  5  6  1  0  0  0  0
  5 15  1  0  0  0  0
  6 18  1  0  0  0  0
  6 13  1  0  0  0  0
  6  7  1  0  0  0  0
  7  8  1  0  0  0  0
  8 19  1  0  0  0  0
  8  9  1  0  0  0  0
  8 11  1  0  0  0  0
  9 10  1  0  0  0  0
  9 25  1  0  0  0  0
  9 26  1  0  0  0  0
 10 27  1  0  0  0  0
 11 20  1  0  0  0  0
 11 12  1  0  0  0  0
 11 13  1  0  0  0  0
 12 28  1  0  0  0  0
 13 21  1  0  0  0  0
 13 14  1  0  0  0  0
 14 29  1  0  0  0  0
 15 16  2  0  0  0  0
 15 17  1  0  0  0  0
M  CHG  1   3   1
M  END
> <s_m_source_file>
AV-unprocessed.smi

> <i_m_source_file_index>
72

> <i_lp_mmshare_version>
43012

> <i_f3d_flags>
0

> <s_epik_input>
W05IMl1jMW5bY0hdbihjKD1PKW4xKVtDQEBIXTJPW0NASF0oW0NIMl1bT0hdKVtDQEBIXShbT0hdKVtDQEhdMltPSF0=

> <s_epik_cmdline>
J2VwaWtfcHl0aG9uJywgJy1waCcsICc3LjAnLCAnLXRuJywgJzgnLCAnLW1hJywgJzIwMCcsICctbWV0YWxfYmluZGluZycsICctaW1hZScsICc8aW5maWxlLm1hZT4nLCAnLW9tYWUnLCAnPG91dGZpbGUubWFlPic=

> <r_lp_tautomer_probability>
4.77166e-05

> <r_epik_Ionization_Penalty>
0.104979

> <r_epik_Ionization_Penalty_Charging>
0.0999619

> <r_epik_Ionization_Penalty_Neutral>
0.00501745

> <r_epik_State_Penalty>
2.51541

> <r_epik_Charging_Adjusted_Penalty>
2.61537

> <i_epik_Tot_Q>
1

> <i_epik_Tot_abs_Q>
1

> <r_epik_Metal_State_Penalty>
3.53763

> <b_epik_Metal_Only>
0

> <s_epik_Chemistry_Notes>
This compound contains an acetal/aminal-like group ( X-CH(R)-Y where X, Y are N, S, or O) that may be acid/base labile, releasing an aldehyde.

> <s_lp_Force_Field>
OPLS_2005

> <r_lp_Energy>
30.8227

> <b_lp_Chiralities_Consistent>
1

> <s_lp_Variant>
AV-unprocessed.smi:72-44

> <Gold.Version>
5.8.1

> <Gold.Id.Protein>
6NUR|6NUR_protein|mol2

> <Gold.PLP.Fitness>
40.9078

> <Gold.PLP.PLP>
-21.1340

> <Gold.PLP.part.hbond>
-5.0216

> <Gold.PLP.part.metal>
0.0000

> <Gold.PLP.part.buried>
-4.9430

> <Gold.PLP.part.nonpolar>
-13.7378

> <Gold.PLP.part.repulsive>
2.3888

> <Gold.PLP.ligand.clash>
0.0000

> <Gold.PLP.ligand.torsion>
0.1467

> <Gold.PLP.Chemscore.Hbond>
5.6687

> <Gold.PLP.Chemscore.CHOScore>
1.0000

> <Gold.PLP.Chemscore.Metal>
0.0000

> <Gold.Chemscore.Hbonds>
donor molecule, donor type, donor heavy atom, donor atom, acceptor molecule, acceptor atom, score
      L1  H     3    30       P1  7948  1.72
      L1  H    10    27       P1  7957  0.98
      L1  H    12    28       P1 10175  1.00
      L1  H    14    29       P1  8028  1.00
      P1  H  8011  8017       L1     7  0.86
      L1  C     4    24       P1  7957  1.00

> <Gold.PLP.Chemscore.Internal.Correction>
0.0610

> <Gold.Rescore>
     Score         DG    S(hbond)    S(metal)    S(lipo)     H(rot)  DE(clash)    DE(int)     intcor
      7.25     -10.09       3.65        0.00      24.41       4.08       1.46       1.38       ----

> <Gold.Chemscore.Fitness>
7.2471

> <Gold.Chemscore.DG>
-10.0905

> <Gold.Chemscore.ZeroCoef>
-5.4800

> <Gold.Chemscore.Hbond>
3.6512

> <Gold.Chemscore.Metal>
0.0000

> <Gold.Chemscore.Lipo>
24.4112

> <Gold.Chemscore.Internal_Hbond>
0.0000

> <Gold.Chemscore.DEClash>
1.4647

> <Gold.Chemscore.DEInternal>
1.3788

> <Gold.Chemscore.Rot>
4.0783

> <Gold.Chemscore.Internal.Correction>
   9.000000E+99

> <Gold.Chemscore.Hbonds>
donor molecule, donor type, donor heavy atom, donor atom, acceptor molecule, acceptor atom, score
      L1  H     3    30       P1  7948  0.20
      L1  H    10    27       P1  7957  0.87
      L1  H    12    28       P1 10175  0.47
      L1  H    14    29       P1  8028  0.55
      P1  H  8011  8017       L1     7  0.74

> <Gold.Chemscore.Hbond.Weighted>
-12.1949

> <Gold.Chemscore.Metal.Weighted>
-0.0000

> <Gold.Chemscore.Lipo.Weighted>
-2.8561

> <Gold.Chemscore.Internal_Hbond.Weighted>
0.0000

> <Gold.Chemscore.DEClash.Weighted>
1.4647

> <Gold.Chemscore.DEInternal.Weighted>
1.3788

> <Gold.Chemscore.Rot.Weighted>
10.4404

> <Gold.Chemscore.Internal.Correction.Weighted>
   9.000000E+99

> <Gold.Protein.RotatedTorsions>
[ 6907 6896 6895 6894 ] final  -76.13 input  -60.11 | X-H torsion
[ 7974 7965 7964 7962 ] final -179.60 input  175.53 | X-H torsion
[ 8008 7997 7996 7995 ] final    3.80 input   59.86 | X-H torsion
[ 10167 10162 10161 10158 ] final    9.72 input  -65.29 | X-H torsion
[ 10718 10713 10712 10709 ] final  -35.69 input   66.30 | X-H torsion
[ 10763 10752 10751 10750 ] final -139.45 input  -60.55 | X-H torsion
[ 11005 11000 10999 10996 ] final  115.32 input  -57.11 | X-H torsion

> <Gold.Protein.ActiveResidues>
 VAL166  LYS551  ARG553  GLY616  TRP617  ASP618  TYR619  PRO620  LYS621  CYS622 
 ASP623  PHE694  ASN695  SER759  ASP760  ASP761  ALA762  ILE779  LEU786  VAL792 
 PHE793  MET794  SER795  GLU796  ALA797  LYS798  CYS799  TRP800  GLU811  SER814 

> <Gold.Protein.RotatedAtoms>
  150.7037  134.4618  159.5383 H   0  0  0  0  0  0  0  0  0  0  0  0  # atno 6907 bound_to 6896
  152.2291  134.8336  160.0485 H   0  0  0  0  0  0  0  0  0  0  0  0  # atno 6908 bound_to 6896
  151.9159  133.3538  159.3916 H   0  0  0  0  0  0  0  0  0  0  0  0  # atno 6909 bound_to 6896
  144.7138  140.0693  143.6430 H   0  0  0  0  0  0  0  0  0  0  0  0  # atno 7974 bound_to 7965
  154.7081  140.2687  155.6655 H   0  0  0  0  0  0  0  0  0  0  0  0  # atno 8008 bound_to 7997
  156.2787  140.2758  156.1638 H   0  0  0  0  0  0  0  0  0  0  0  0  # atno 8009 bound_to 7997
  155.0672  140.0372  157.2586 H   0  0  0  0  0  0  0  0  0  0  0  0  # atno 8010 bound_to 7997
  140.6238  143.8147  150.7207 H   0  0  0  0  0  0  0  0  0  0  0  0  # atno 10167 bound_to 10162
  156.3356  130.4286  149.7833 H   0  0  0  0  0  0  0  0  0  0  0  0  # atno 10718 bound_to 10713
  154.8608  135.3582  154.5549 H   0  0  0  0  0  0  0  0  0  0  0  0  # atno 10763 bound_to 10752
  153.6166  135.7007  153.5331 H   0  0  0  0  0  0  0  0  0  0  0  0  # atno 10764 bound_to 10752
  153.3164  135.4164  155.1340 H   0  0  0  0  0  0  0  0  0  0  0  0  # atno 10765 bound_to 10752
  139.9006  134.9582  156.7026 H   0  0  0  0  0  0  0  0  0  0  0  0  # atno 11005 bound_to 11000
  145.9797  139.2931  143.1049 LP  0  0  0  0  0  0  0  0  0  0  0  0  # atno 17320 bound_to 7965
  145.9025  140.9234  143.0496 LP  0  0  0  0  0  0  0  0  0  0  0  0  # atno 17321 bound_to 7965
  140.1743  143.4168  152.1979 LP  0  0  0  0  0  0  0  0  0  0  0  0  # atno 17342 bound_to 10162
  139.5461  144.7300  151.4578 LP  0  0  0  0  0  0  0  0  0  0  0  0  # atno 17343 bound_to 10162
  156.5089  130.8163  151.3161 LP  0  0  0  0  0  0  0  0  0  0  0  0  # atno 17370 bound_to 10713
  157.7438  130.9920  150.2622 LP  0  0  0  0  0  0  0  0  0  0  0  0  # atno 17371 bound_to 10713
  140.7138  133.9200  155.8102 LP  0  0  0  0  0  0  0  0  0  0  0  0  # atno 17394 bound_to 11000
  141.0280  134.0796  157.4047 LP  0  0  0  0  0  0  0  0  0  0  0  0  # atno 17395 bound_to 11000

$$$$
