AV-unprocessed.smi:1385|AV-procd|sdf|5628|dock7
  -GOLD-   22720 5243D 1   1.00000     0.00000
 Structure written by MMmdl.
 38 39  0  0  0  0  0  0  0  0  1 V2000
  143.5510  132.4458  149.4846 C   0  0  0  0  0  0  0  0  0  0  0  0
  144.0568  133.5635  150.3308 C   0  0  0  0  0  0  0  0  0  0  0  0
  144.4551  133.3910  151.5970 N   0  0  0  0  0  0  0  0  0  0  0  0
  144.8908  134.5744  152.1772 N   0  0  0  0  0  0  0  0  0  0  0  0
  144.8084  135.6074  151.3274 C   0  0  0  0  0  0  0  0  0  0  0  0
  145.1904  136.9344  151.6579 N   0  0  0  0  0  0  0  0  0  0  0  0
  145.8970  137.3582  152.7205 C   0  0  0  0  0  0  0  0  0  0  0  0
  146.3432  136.6365  153.6127 O   0  0  0  0  0  0  0  0  0  0  0  0
  146.0598  138.6890  152.6953 N   0  0  0  0  0  0  0  0  0  0  0  0
  146.7757  139.4671  153.7022 C   0  0  0  0  0  0  0  0  0  0  0  0
  147.0729  140.8868  153.1923 C   0  0  0  0  0  0  0  0  0  0  0  0
  147.9450  141.6686  154.1907 C   0  0  0  0  0  0  0  0  0  0  0  0
  149.2043  140.9545  154.4499 N   0  0  0  0  0  0  0  0  0  0  0  0
  150.1037  141.7043  155.3581 C   0  0  0  0  0  0  0  0  0  0  0  0
  151.3119  140.9094  155.8672 C   0  0  0  0  0  0  0  0  0  0  0  0
  151.6395  141.0581  157.1533 N   0  0  0  0  0  0  0  0  0  0  0  0
  151.9430  140.1782  155.1073 O   0  0  0  0  0  0  0  0  0  0  0  0
  148.9284  139.6351  155.0281 C   0  0  0  0  0  0  0  0  0  0  0  0
  148.1015  138.7781  154.0536 C   0  0  0  0  0  0  0  0  0  0  0  0
  144.1848  135.2137  149.7346 S   0  0  0  0  0  0  0  0  0  0  0  0
  143.1995  131.6225  150.1072 H   0  0  0  0  0  0  0  0  0  0  0  0
  144.3484  132.0807  148.8372 H   0  0  0  0  0  0  0  0  0  0  0  0
  142.7240  132.7897  148.8630 H   0  0  0  0  0  0  0  0  0  0  0  0
  144.8879  137.6455  151.0086 H   0  0  0  0  0  0  0  0  0  0  0  0
  145.6584  139.2035  151.9250 H   0  0  0  0  0  0  0  0  0  0  0  0
  146.1701  139.5303  154.6086 H   0  0  0  0  0  0  0  0  0  0  0  0
  147.5826  140.8381  152.2287 H   0  0  0  0  0  0  0  0  0  0  0  0
  146.1411  141.4269  153.0205 H   0  0  0  0  0  0  0  0  0  0  0  0
  148.1351  142.6556  153.7694 H   0  0  0  0  0  0  0  0  0  0  0  0
  147.4022  141.8244  155.1247 H   0  0  0  0  0  0  0  0  0  0  0  0
  150.4598  142.6081  154.8596 H   0  0  0  0  0  0  0  0  0  0  0  0
  149.5434  142.0348  156.2339 H   0  0  0  0  0  0  0  0  0  0  0  0
  152.4334  140.5602  157.5292 H   0  0  0  0  0  0  0  0  0  0  0  0
  151.0971  141.6739  157.7415 H   0  0  0  0  0  0  0  0  0  0  0  0
  149.8665  139.1196  155.2393 H   0  0  0  0  0  0  0  0  0  0  0  0
  148.4032  139.7385  155.9795 H   0  0  0  0  0  0  0  0  0  0  0  0
  147.9088  137.8005  154.4967 H   0  0  0  0  0  0  0  0  0  0  0  0
  148.6824  138.5984  153.1476 H   0  0  0  0  0  0  0  0  0  0  0  0
  1  2  1  0  0  0  0
  1 21  1  0  0  0  0
  1 22  1  0  0  0  0
  1 23  1  0  0  0  0
  2 20  1  0  0  0  0
  2  3  2  0  0  0  0
  3  4  1  0  0  0  0
  4  5  2  0  0  0  0
  5  6  1  0  0  0  0
  5 20  1  0  0  0  0
  6  7  1  0  0  0  0
  6 24  1  0  0  0  0
  7  8  2  0  0  0  0
  7  9  1  0  0  0  0
  9 10  1  0  0  0  0
  9 25  1  0  0  0  0
 10 19  1  0  0  0  0
 10 11  1  0  0  0  0
 10 26  1  0  0  0  0
 11 12  1  0  0  0  0
 11 27  1  0  0  0  0
 11 28  1  0  0  0  0
 12 13  1  0  0  0  0
 12 29  1  0  0  0  0
 12 30  1  0  0  0  0
 13 14  1  0  0  0  0
 13 18  1  0  0  0  0
 14 15  1  0  0  0  0
 14 31  1  0  0  0  0
 14 32  1  0  0  0  0
 15 16  1  0  0  0  0
 15 17  2  0  0  0  0
 16 33  1  0  0  0  0
 16 34  1  0  0  0  0
 18 19  1  0  0  0  0
 18 35  1  0  0  0  0
 18 36  1  0  0  0  0
 19 37  1  0  0  0  0
 19 38  1  0  0  0  0
M  END
> <s_m_source_file>
AV-unprocessed.smi

> <i_m_source_file_index>
1385

> <i_lp_mmshare_version>
43012

> <i_f3d_flags>
0

> <s_epik_input>
W0NIM11jMW5uYyhzMSlbTkhdQyg9TylbTkhdW0NIXTJbQ0gyXVtDSDJdTihbQ0gyXVtDSDJdMilbQ0gyXUMoPU8pW05IMl0=

> <s_epik_cmdline>
J2VwaWtfcHl0aG9uJywgJy1waCcsICc3LjAnLCAnLXRuJywgJzgnLCAnLW1hJywgJzIwMCcsICctbWV0YWxfYmluZGluZycsICctaW1hZScsICc8aW5maWxlLm1hZT4nLCAnLW9tYWUnLCAnPG91dGZpbGUubWFlPic=

> <r_lp_tautomer_probability>
1

> <r_epik_Ionization_Penalty>
0.159363

> <r_epik_Ionization_Penalty_Charging>
0

> <r_epik_Ionization_Penalty_Neutral>
0.159363

> <r_epik_State_Penalty>
0.146692

> <r_epik_Charging_Adjusted_Penalty>
0.146692

> <i_epik_Tot_Q>
0

> <i_epik_Tot_abs_Q>
0

> <r_epik_Metal_State_Penalty>
0.501772

> <b_epik_Metal_Only>
0

> <s_lp_Force_Field>
OPLS_2005

> <r_lp_Energy>
10.053

> <b_lp_Chiralities_Consistent>
1

> <s_lp_Variant>
AV-unprocessed.smi:1385-1

> <Gold.Version>
5.8.1

> <Gold.Id.Protein>
6NUR|6NUR_protein|mol2

> <Gold.PLP.Fitness>
35.6122

> <Gold.PLP.PLP>
-31.2310

> <Gold.PLP.part.hbond>
-2.9360

> <Gold.PLP.part.metal>
0.0000

> <Gold.PLP.part.buried>
-3.4987

> <Gold.PLP.part.nonpolar>
-26.0085

> <Gold.PLP.part.repulsive>
0.7477

> <Gold.PLP.ligand.clash>
0.0000

> <Gold.PLP.ligand.torsion>
0.5369

> <Gold.PLP.Chemscore.Hbond>
1.8160

> <Gold.PLP.Chemscore.CHOScore>
0.0000

> <Gold.PLP.Chemscore.Metal>
0.0000

> <Gold.Chemscore.Hbonds>
donor molecule, donor type, donor heavy atom, donor atom, acceptor molecule, acceptor atom, score
      L1  H     6    24       P1 10171  1.00
      L1  H     9    25       P1 10175  0.03
      P1  H  7989  7998       L1    17  0.82

> <Gold.PLP.Chemscore.Internal.Correction>
0.0071

> <Gold.Rescore>
     Score         DG    S(hbond)    S(metal)    S(lipo)     H(rot)  DE(clash)    DE(int)     intcor
      9.94     -13.58       1.74        0.00      64.09       2.04       0.62       3.02       ----

> <Gold.Chemscore.Fitness>
9.9388

> <Gold.Chemscore.DG>
-13.5762

> <Gold.Chemscore.ZeroCoef>
-5.4800

> <Gold.Chemscore.Hbond>
1.7432

> <Gold.Chemscore.Metal>
0.0000

> <Gold.Chemscore.Lipo>
64.0872

> <Gold.Chemscore.Internal_Hbond>
0.0000

> <Gold.Chemscore.DEClash>
0.6188

> <Gold.Chemscore.DEInternal>
3.0186

> <Gold.Chemscore.Rot>
2.0407

> <Gold.Chemscore.Internal.Correction>
   9.000000E+99

> <Gold.Chemscore.Hbonds>
donor molecule, donor type, donor heavy atom, donor atom, acceptor molecule, acceptor atom, score
      L1  H     6    24       P1 10171  1.00
      L1  H     9    25       P1 10175  0.03
      P1  H  7989  7998       L1    17  0.36

> <Gold.Chemscore.Hbond.Weighted>
-5.8223

> <Gold.Chemscore.Metal.Weighted>
-0.0000

> <Gold.Chemscore.Lipo.Weighted>
-7.4982

> <Gold.Chemscore.Internal_Hbond.Weighted>
0.0000

> <Gold.Chemscore.DEClash.Weighted>
0.6188

> <Gold.Chemscore.DEInternal.Weighted>
3.0186

> <Gold.Chemscore.Rot.Weighted>
5.2243

> <Gold.Chemscore.Internal.Correction.Weighted>
   9.000000E+99

> <Gold.Protein.RotatedTorsions>
[ 6907 6896 6895 6894 ] final -148.91 input  -60.11 | X-H torsion
[ 7974 7965 7964 7962 ] final  -28.73 input  175.53 | X-H torsion
[ 8008 7997 7996 7995 ] final  -65.47 input   59.86 | X-H torsion
[ 10167 10162 10161 10158 ] final -176.51 input  -65.29 | X-H torsion
[ 10718 10713 10712 10709 ] final   75.95 input   66.30 | X-H torsion
[ 10763 10752 10751 10750 ] final   45.59 input  -60.55 | X-H torsion
[ 11005 11000 10999 10996 ] final  115.57 input  -57.11 | X-H torsion

> <Gold.Protein.ActiveResidues>
 VAL166  LYS551  ARG553  GLY616  TRP617  ASP618  TYR619  PRO620  LYS621  CYS622 
 ASP623  PHE694  ASN695  SER759  ASP760  ASP761  ALA762  ILE779  LEU786  VAL792 
 PHE793  MET794  SER795  GLU796  ALA797  LYS798  CYS799  TRP800  GLU811  SER814 

> <Gold.Protein.RotatedAtoms>
  151.1765  133.4751  159.2593 H   0  0  0  0  0  0  0  0  0  0  0  0  # atno 6907 bound_to 6896
  151.1302  135.0126  159.8589 H   0  0  0  0  0  0  0  0  0  0  0  0  # atno 6908 bound_to 6896
  152.5459  134.1669  159.8633 H   0  0  0  0  0  0  0  0  0  0  0  0  # atno 6909 bound_to 6896
  146.1267  140.5321  142.8711 H   0  0  0  0  0  0  0  0  0  0  0  0  # atno 7974 bound_to 7965
  154.4674  140.0932  156.7055 H   0  0  0  0  0  0  0  0  0  0  0  0  # atno 8008 bound_to 7997
  155.4820  140.3468  155.4323 H   0  0  0  0  0  0  0  0  0  0  0  0  # atno 8009 bound_to 7997
  156.0979  140.1414  156.9494 H   0  0  0  0  0  0  0  0  0  0  0  0  # atno 8010 bound_to 7997
  139.5526  144.2071  152.1103 H   0  0  0  0  0  0  0  0  0  0  0  0  # atno 10167 bound_to 10162
  157.6654  130.9751  150.1427 H   0  0  0  0  0  0  0  0  0  0  0  0  # atno 10718 bound_to 10713
  152.9822  135.6034  154.3462 H   0  0  0  0  0  0  0  0  0  0  0  0  # atno 10763 bound_to 10752
  154.3155  135.2770  155.2547 H   0  0  0  0  0  0  0  0  0  0  0  0  # atno 10764 bound_to 10752
  154.4737  135.5935  153.6396 H   0  0  0  0  0  0  0  0  0  0  0  0  # atno 10765 bound_to 10752
  139.9014  134.9586  156.7065 H   0  0  0  0  0  0  0  0  0  0  0  0  # atno 11005 bound_to 11000
  144.7649  140.5508  143.6710 LP  0  0  0  0  0  0  0  0  0  0  0  0  # atno 17320 bound_to 7965
  145.5350  139.1475  143.3479 LP  0  0  0  0  0  0  0  0  0  0  0  0  # atno 17321 bound_to 7965
  140.1569  144.5062  150.6655 LP  0  0  0  0  0  0  0  0  0  0  0  0  # atno 17342 bound_to 10162
  140.6792  143.2319  151.5429 LP  0  0  0  0  0  0  0  0  0  0  0  0  # atno 17343 bound_to 10162
  156.2246  130.3677  149.8516 LP  0  0  0  0  0  0  0  0  0  0  0  0  # atno 17370 bound_to 10713
  156.6359  130.8685  151.3504 LP  0  0  0  0  0  0  0  0  0  0  0  0  # atno 17371 bound_to 10713
  140.7109  133.9224  155.8084 LP  0  0  0  0  0  0  0  0  0  0  0  0  # atno 17394 bound_to 11000
  141.0301  134.0769  157.4024 LP  0  0  0  0  0  0  0  0  0  0  0  0  # atno 17395 bound_to 11000

$$$$
