AV-unprocessed.smi:802|AV-procd|sdf|3792|dock3
  -GOLD-   22720 1223D 1   1.00000     0.00000
 Structure written by MMmdl.
 37 38  0  0  0  0  0  0  0  0  2 V2000
  154.5785  137.5306  160.9245 C   0  0  0  0  0  0  0  0  0  0  0  0
  153.7257  137.4388  159.6942 C   0  0  0  0  0  0  0  0  0  0  0  0
  152.7723  138.3736  159.2065 C   0  0  0  0  0  0  0  0  0  0  0  0
  152.3060  137.7920  158.0614 C   0  0  0  0  0  0  0  0  0  0  0  0
  151.2954  138.2085  157.0456 C   0  0  0  0  0  0  0  0  0  0  0  0
  151.9694  139.5744  156.0086 S   0  0  0  0  0  0  0  0  0  0  0  0
  153.1814  139.0392  155.3665 O   0  0  0  0  0  0  0  0  0  0  0  0
  150.8722  139.9905  155.1194 O   0  0  0  0  0  0  0  0  0  0  0  0
  152.3019  140.6761  157.1491 N   0  5  0  0  0  0  0  0  0  0  0  0
  151.3773  141.7765  157.3642 C   0  0  0  0  0  0  0  0  0  0  0  0
  151.9781  142.8048  158.3622 C   0  0  0  0  0  0  0  0  0  0  0  0
  152.2448  142.2122  159.7741 C   0  0  0  0  0  0  0  0  0  0  0  0
  152.8782  143.2505  160.7151 C   0  0  0  0  0  0  0  0  0  0  0  0
  152.0090  144.5109  160.8238 C   0  0  0  0  0  0  0  0  0  0  0  0
  151.7364  145.1113  159.4375 C   0  0  0  0  0  0  0  0  0  0  0  0
  151.0987  144.0768  158.4949 C   0  0  0  0  0  0  0  0  0  0  0  0
  152.9142  136.5934  157.8651 O   0  0  0  0  0  0  0  0  0  0  0  0
  153.8173  136.3764  158.9118 N   0  0  0  0  0  0  0  0  0  0  0  0
  154.4388  138.4866  161.4294 H   0  0  0  0  0  0  0  0  0  0  0  0
  155.6363  137.4382  160.6774 H   0  0  0  0  0  0  0  0  0  0  0  0
  154.3299  136.7408  161.6337 H   0  0  0  0  0  0  0  0  0  0  0  0
  152.4807  139.3262  159.6234 H   0  0  0  0  0  0  0  0  0  0  0  0
  151.0361  137.3764  156.3910 H   0  0  0  0  0  0  0  0  0  0  0  0
  150.3827  138.5569  157.5283 H   0  0  0  0  0  0  0  0  0  0  0  0
  151.1565  142.2857  156.4255 H   0  0  0  0  0  0  0  0  0  0  0  0
  150.4151  141.4337  157.7460 H   0  0  0  0  0  0  0  0  0  0  0  0
  152.9373  143.1284  157.9537 H   0  0  0  0  0  0  0  0  0  0  0  0
  151.3156  141.8532  160.2220 H   0  0  0  0  0  0  0  0  0  0  0  0
  152.9127  141.3501  159.7229 H   0  0  0  0  0  0  0  0  0  0  0  0
  153.0231  142.8145  161.7040 H   0  0  0  0  0  0  0  0  0  0  0  0
  153.8693  143.5196  160.3478 H   0  0  0  0  0  0  0  0  0  0  0  0
  151.0637  144.2634  161.3086 H   0  0  0  0  0  0  0  0  0  0  0  0
  152.5004  145.2479  161.4596 H   0  0  0  0  0  0  0  0  0  0  0  0
  151.0832  145.9793  159.5314 H   0  0  0  0  0  0  0  0  0  0  0  0
  152.6702  145.4723  159.0046 H   0  0  0  0  0  0  0  0  0  0  0  0
  150.9438  144.5513  157.5234 H   0  0  0  0  0  0  0  0  0  0  0  0
  150.1068  143.8225  158.8754 H   0  0  0  0  0  0  0  0  0  0  0  0
  1  2  1  0  0  0  0
  1 19  1  0  0  0  0
  1 20  1  0  0  0  0
  1 21  1  0  0  0  0
  2 18  2  0  0  0  0
  2  3  1  0  0  0  0
  3  4  2  0  0  0  0
  3 22  1  0  0  0  0
  4  5  1  0  0  0  0
  4 17  1  0  0  0  0
  5  6  1  0  0  0  0
  5 23  1  0  0  0  0
  5 24  1  0  0  0  0
  6  7  2  0  0  0  0
  6  8  2  0  0  0  0
  6  9  1  0  0  0  0
  9 10  1  0  0  0  0
 10 11  1  0  0  0  0
 10 25  1  0  0  0  0
 10 26  1  0  0  0  0
 11 16  1  0  0  0  0
 11 12  1  0  0  0  0
 11 27  1  0  0  0  0
 12 13  1  0  0  0  0
 12 28  1  0  0  0  0
 12 29  1  0  0  0  0
 13 14  1  0  0  0  0
 13 30  1  0  0  0  0
 13 31  1  0  0  0  0
 14 15  1  0  0  0  0
 14 32  1  0  0  0  0
 14 33  1  0  0  0  0
 15 16  1  0  0  0  0
 15 34  1  0  0  0  0
 15 35  1  0  0  0  0
 16 36  1  0  0  0  0
 16 37  1  0  0  0  0
 17 18  1  0  0  0  0
M  CHG  1   9  -1
M  END
> <s_m_source_file>
AV-unprocessed.smi

> <i_m_source_file_index>
802

> <i_lp_mmshare_version>
43012

> <i_f3d_flags>
0

> <s_epik_input>
W0NIM11jMVtjSF1jKG9uMSlbQ0gyXVMoPU8pKD1PKVtOSF1bQ0gyXVtDSF0yW0NIMl1bQ0gyXVtDSDJdW0NIMl1bQ0gyXTI=

> <s_epik_cmdline>
J2VwaWtfcHl0aG9uJywgJy1waCcsICc3LjAnLCAnLXRuJywgJzgnLCAnLW1hJywgJzIwMCcsICctbWV0YWxfYmluZGluZycsICctaW1hZScsICc8aW5maWxlLm1hZT4nLCAnLW9tYWUnLCAnPG91dGZpbGUubWFlPic=

> <r_lp_tautomer_probability>
1

> <r_epik_Ionization_Penalty>
5.54077

> <r_epik_Ionization_Penalty_Charging>
5.54077

> <r_epik_Ionization_Penalty_Neutral>
8.84355e-10

> <r_epik_State_Penalty>
5.54071

> <r_epik_Charging_Adjusted_Penalty>
11.0815

> <i_epik_Tot_Q>
-1

> <i_epik_Tot_abs_Q>
1

> <r_epik_Metal_State_Penalty>
1.54279

> <b_epik_Metal_Only>
1

> <s_lp_Force_Field>
OPLS_2005

> <r_lp_Energy>
6.62566

> <b_lp_Chiralities_Consistent>
1

> <s_lp_Variant>
AV-unprocessed.smi:802-2

> <Gold.Version>
5.8.1

> <Gold.Id.Protein>
6NUR|6NUR_protein|mol2

> <Gold.PLP.Fitness>
46.3504

> <Gold.PLP.PLP>
-37.6863

> <Gold.PLP.part.hbond>
-4.2909

> <Gold.PLP.part.metal>
0.0000

> <Gold.PLP.part.buried>
-5.1355

> <Gold.PLP.part.nonpolar>
-28.3759

> <Gold.PLP.part.repulsive>
0.0443

> <Gold.PLP.ligand.clash>
0.0000

> <Gold.PLP.ligand.torsion>
0.6843

> <Gold.PLP.Chemscore.Hbond>
3.0000

> <Gold.PLP.Chemscore.CHOScore>
0.0000

> <Gold.PLP.Chemscore.Metal>
0.0000

> <Gold.Chemscore.Hbonds>
donor molecule, donor type, donor heavy atom, donor atom, acceptor molecule, acceptor atom, score
      P1  H  7989  7998       L1     8  1.00
      P1  H  7997  8010       L1     7  0.90

> <Gold.PLP.Chemscore.Internal.Correction>
1.0327

> <Gold.Rescore>
     Score         DG    S(hbond)    S(metal)    S(lipo)     H(rot)  DE(clash)    DE(int)     intcor
     18.93     -19.86       1.85        0.00     102.90       1.50       0.13       0.81       ----

> <Gold.Chemscore.Fitness>
18.9297

> <Gold.Chemscore.DG>
-19.8622

> <Gold.Chemscore.ZeroCoef>
-5.4800

> <Gold.Chemscore.Hbond>
1.8478

> <Gold.Chemscore.Metal>
0.0000

> <Gold.Chemscore.Lipo>
102.8989

> <Gold.Chemscore.Internal_Hbond>
0.0000

> <Gold.Chemscore.DEClash>
0.1257

> <Gold.Chemscore.DEInternal>
0.8069

> <Gold.Chemscore.Rot>
1.4956

> <Gold.Chemscore.Internal.Correction>
   9.000000E+99

> <Gold.Chemscore.Hbonds>
donor molecule, donor type, donor heavy atom, donor atom, acceptor molecule, acceptor atom, score
      P1  H  7989  7998       L1     8  0.68
      P1  H  7997  8010       L1     7  0.18

> <Gold.Chemscore.Hbond.Weighted>
-6.1718

> <Gold.Chemscore.Metal.Weighted>
-0.0000

> <Gold.Chemscore.Lipo.Weighted>
-12.0392

> <Gold.Chemscore.Internal_Hbond.Weighted>
0.0000

> <Gold.Chemscore.DEClash.Weighted>
0.1257

> <Gold.Chemscore.DEInternal.Weighted>
0.8069

> <Gold.Chemscore.Rot.Weighted>
3.8287

> <Gold.Chemscore.Internal.Correction.Weighted>
   9.000000E+99

> <Gold.Protein.RotatedTorsions>
[ 6907 6896 6895 6894 ] final  157.49 input  -60.11 | X-H torsion
[ 7974 7965 7964 7962 ] final -137.44 input  175.53 | X-H torsion
[ 8008 7997 7996 7995 ] final   89.60 input   59.86 | X-H torsion
[ 10167 10162 10161 10158 ] final -153.84 input  -65.29 | X-H torsion
[ 10718 10713 10712 10709 ] final  172.84 input   66.30 | X-H torsion
[ 10763 10752 10751 10750 ] final -126.67 input  -60.55 | X-H torsion
[ 11005 11000 10999 10996 ] final   63.99 input  -57.11 | X-H torsion

> <Gold.Protein.ActiveResidues>
 VAL166  LYS551  ARG553  GLY616  TRP617  ASP618  TYR619  PRO620  LYS621  CYS622 
 ASP623  PHE694  ASN695  SER759  ASP760  ASP761  ALA762  ILE779  LEU786  VAL792 
 PHE793  MET794  SER795  GLU796  ALA797  LYS798  CYS799  TRP800  GLU811  SER814 

> <Gold.Protein.RotatedAtoms>
  152.0143  133.3874  159.4232 H   0  0  0  0  0  0  0  0  0  0  0  0  # atno 6907 bound_to 6896
  150.6896  134.3695  159.4995 H   0  0  0  0  0  0  0  0  0  0  0  0  # atno 6908 bound_to 6896
  152.1460  134.9025  160.0601 H   0  0  0  0  0  0  0  0  0  0  0  0  # atno 6909 bound_to 6896
  144.8841  140.6550  143.5187 H   0  0  0  0  0  0  0  0  0  0  0  0  # atno 7974 bound_to 7965
  156.0019  140.3359  155.6854 H   0  0  0  0  0  0  0  0  0  0  0  0  # atno 8008 bound_to 7997
  155.6279  140.0682  157.2676 H   0  0  0  0  0  0  0  0  0  0  0  0  # atno 8009 bound_to 7997
  154.4252  140.1765  156.1428 H   0  0  0  0  0  0  0  0  0  0  0  0  # atno 8010 bound_to 7997
  139.7063  143.9181  152.2450 H   0  0  0  0  0  0  0  0  0  0  0  0  # atno 10167 bound_to 10162
  156.9730  131.0096  151.2900 H   0  0  0  0  0  0  0  0  0  0  0  0  # atno 10718 bound_to 10713
  154.8747  135.3988  154.3468 H   0  0  0  0  0  0  0  0  0  0  0  0  # atno 10763 bound_to 10752
  153.4259  135.7024  153.6268 H   0  0  0  0  0  0  0  0  0  0  0  0  # atno 10764 bound_to 10752
  153.4910  135.3748  155.2461 H   0  0  0  0  0  0  0  0  0  0  0  0  # atno 10765 bound_to 10752
  139.9988  134.6475  155.9966 H   0  0  0  0  0  0  0  0  0  0  0  0  # atno 11005 bound_to 11000
  145.3900  139.1618  143.4234 LP  0  0  0  0  0  0  0  0  0  0  0  0  # atno 17320 bound_to 7965
  146.3013  140.3988  142.8703 LP  0  0  0  0  0  0  0  0  0  0  0  0  # atno 17321 bound_to 7965
  139.9037  144.6896  150.8637 LP  0  0  0  0  0  0  0  0  0  0  0  0  # atno 17342 bound_to 10162
  140.7722  143.3494  151.2045 LP  0  0  0  0  0  0  0  0  0  0  0  0  # atno 17343 bound_to 10162
  157.5579  130.8226  149.8228 LP  0  0  0  0  0  0  0  0  0  0  0  0  # atno 17370 bound_to 10713
  156.0275  130.3775  150.1781 LP  0  0  0  0  0  0  0  0  0  0  0  0  # atno 17371 bound_to 10713
  141.1625  133.6538  156.4368 LP  0  0  0  0  0  0  0  0  0  0  0  0  # atno 17394 bound_to 11000
  140.4768  134.6702  157.5153 LP  0  0  0  0  0  0  0  0  0  0  0  0  # atno 17395 bound_to 11000

$$$$
