AV-unprocessed.smi:196|AV-procd|sdf|1538|dock3
  -GOLD-   2262019393D 1   1.00000     0.00000
 Structure written by MMmdl.
 47 50  0  0  0  0  0  0  0  0  1 V2000
  144.5138  135.8351  160.7785 C   0  0  0  0  0  0  0  0  0  0  0  0
  145.9815  135.4813  161.0685 C   0  0  2  0  0  0  0  0  0  0  0  0
  146.2277  135.4693  162.4671 O   0  0  0  0  0  0  0  0  0  0  0  0
  147.6321  135.5244  162.6394 C   0  0  0  0  0  0  0  0  0  0  0  0
  148.0497  136.5954  161.6388 C   0  0  0  0  0  0  0  0  0  0  0  0
  147.0668  136.4201  160.4768 C   0  0  2  0  0  0  0  0  0  0  0  0
  146.5390  137.6953  160.1498 O   0  0  0  0  0  0  0  0  0  0  0  0
  147.7543  135.8422  159.2151 C   0  0  0  0  0  0  0  0  0  0  0  0
  148.4692  136.8410  158.4346 N   0  0  0  0  0  0  0  0  0  0  0  0
  148.0069  137.5015  157.3176 C   0  0  0  0  0  0  0  0  0  0  0  0
  148.8424  138.3511  156.7854 N   0  0  0  0  0  0  0  0  0  0  0  0
  149.9611  138.2786  157.6046 C   0  0  0  0  0  0  0  0  0  0  0  0
  151.2219  138.9309  157.6066 C   0  0  0  0  0  0  0  0  0  0  0  0
  151.5462  139.8342  156.6440 N   0  0  0  0  0  0  0  0  0  0  0  0
  151.3631  141.2028  157.1152 C   0  0  0  0  0  0  0  0  0  0  0  0
  150.0303  141.6932  156.5263 C   0  0  2  0  0  0  0  0  0  0  0  0
  149.0890  141.7752  157.4671 F   0  0  0  0  0  0  0  0  0  0  0  0
  149.6433  140.6461  155.4744 C   0  0  0  0  0  0  0  0  0  0  0  0
  150.9178  139.8006  155.3155 C   0  0  2  0  0  0  0  0  0  0  0  0
  150.7243  138.4183  154.6557 C   0  0  0  0  0  0  0  0  0  0  0  0
  150.1204  138.3933  153.4648 N   0  0  0  0  0  0  0  0  0  0  0  0
  151.1497  137.3914  155.1825 O   0  0  0  0  0  0  0  0  0  0  0  0
  152.1056  138.5910  158.5832 N   0  0  0  0  0  0  0  0  0  0  0  0
  151.7677  137.6898  159.5099 C   0  0  0  0  0  0  0  0  0  0  0  0
  150.6250  137.0123  159.6377 N   0  0  0  0  0  0  0  0  0  0  0  0
  149.7428  137.3385  158.6499 C   0  0  0  0  0  0  0  0  0  0  0  0
  150.1376  142.6872  156.0912 H   0  0  0  0  0  0  0  0  0  0  0  0
  151.5989  140.3403  154.6546 H   0  0  0  0  0  0  0  0  0  0  0  0
  144.3178  135.8523  159.7061 H   0  0  0  0  0  0  0  0  0  0  0  0
  144.2465  136.8094  161.1881 H   0  0  0  0  0  0  0  0  0  0  0  0
  143.8453  135.0984  161.2242 H   0  0  0  0  0  0  0  0  0  0  0  0
  146.1629  134.4614  160.7284 H   0  0  0  0  0  0  0  0  0  0  0  0
  147.9042  135.7747  163.6649 H   0  0  0  0  0  0  0  0  0  0  0  0
  148.0741  134.5585  162.3889 H   0  0  0  0  0  0  0  0  0  0  0  0
  147.9335  137.5746  162.1070 H   0  0  0  0  0  0  0  0  0  0  0  0
  149.0953  136.4994  161.3441 H   0  0  0  0  0  0  0  0  0  0  0  0
  145.6351  137.7250  160.4233 H   0  0  0  0  0  0  0  0  0  0  0  0
  148.4594  135.0570  159.4918 H   0  0  0  0  0  0  0  0  0  0  0  0
  147.0132  135.3696  158.5693 H   0  0  0  0  0  0  0  0  0  0  0  0
  147.0254  137.3266  156.9017 H   0  0  0  0  0  0  0  0  0  0  0  0
  151.3856  141.2972  158.2032 H   0  0  0  0  0  0  0  0  0  0  0  0
  152.1882  141.8041  156.7315 H   0  0  0  0  0  0  0  0  0  0  0  0
  148.8101  140.0371  155.8281 H   0  0  0  0  0  0  0  0  0  0  0  0
  149.3361  141.1084  154.5358 H   0  0  0  0  0  0  0  0  0  0  0  0
  149.9753  137.5139  152.9908 H   0  0  0  0  0  0  0  0  0  0  0  0
  149.8155  139.2574  153.0408 H   0  0  0  0  0  0  0  0  0  0  0  0
  152.5217  137.4805  160.2541 H   0  0  0  0  0  0  0  0  0  0  0  0
  1  2  1  0  0  0  0
  1 29  1  0  0  0  0
  1 30  1  0  0  0  0
  1 31  1  0  0  0  0
  2  6  1  0  0  0  0
  2  3  1  0  0  0  0
  2 32  1  0  0  0  0
  3  4  1  0  0  0  0
  4  5  1  0  0  0  0
  4 33  1  0  0  0  0
  4 34  1  0  0  0  0
  5  6  1  0  0  0  0
  5 35  1  0  0  0  0
  5 36  1  0  0  0  0
  6  7  1  0  0  0  0
  6  8  1  0  0  0  0
  7 37  1  0  0  0  0
  8  9  1  0  0  0  0
  8 38  1  0  0  0  0
  8 39  1  0  0  0  0
  9 26  1  0  0  0  0
  9 10  1  0  0  0  0
 10 11  2  0  0  0  0
 10 40  1  0  0  0  0
 11 12  1  0  0  0  0
 12 26  2  0  0  0  0
 12 13  1  0  0  0  0
 13 14  1  0  0  0  0
 13 23  2  0  0  0  0
 14 19  1  0  0  0  0
 14 15  1  0  0  0  0
 15 16  1  0  0  0  0
 15 41  1  0  0  0  0
 15 42  1  0  0  0  0
 16 27  1  0  0  0  0
 16 17  1  0  0  0  0
 16 18  1  0  0  0  0
 18 19  1  0  0  0  0
 18 43  1  0  0  0  0
 18 44  1  0  0  0  0
 19 28  1  0  0  0  0
 19 20  1  0  0  0  0
 20 21  1  0  0  0  0
 20 22  2  0  0  0  0
 21 45  1  0  0  0  0
 21 46  1  0  0  0  0
 23 24  1  0  0  0  0
 24 25  2  0  0  0  0
 24 47  1  0  0  0  0
 25 26  1  0  0  0  0
M  END
> <s_m_source_file>
AV-unprocessed.smi

> <i_m_source_file_index>
196

> <i_lp_mmshare_version>
43012

> <i_f3d_flags>
0

> <s_epik_input>
W0NIMl0xW0NIMl1PW0NAQEhdKFtDSDNdKVtDQEBdMShbT0hdKVtDSDJdbihbY0hdbjIpYyhjMjMpbltjSF1uYzNONFtDSDJdW0NASF0oRilbQ0gyXVtDQEhdNEMoPU8pW05IMl0=

> <s_epik_cmdline>
J2VwaWtfcHl0aG9uJywgJy1waCcsICc3LjAnLCAnLXRuJywgJzgnLCAnLW1hJywgJzIwMCcsICctbWV0YWxfYmluZGluZycsICctaW1hZScsICc8aW5maWxlLm1hZT4nLCAnLW9tYWUnLCAnPG91dGZpbGUubWFlPic=

> <r_lp_tautomer_probability>
1

> <r_epik_Ionization_Penalty>
0.000857933

> <r_epik_Ionization_Penalty_Charging>
0

> <r_epik_Ionization_Penalty_Neutral>
0.000857933

> <r_epik_State_Penalty>
0.000462053

> <r_epik_Charging_Adjusted_Penalty>
0.000462053

> <i_epik_Tot_Q>
0

> <i_epik_Tot_abs_Q>
0

> <r_epik_Metal_State_Penalty>
-0

> <b_epik_Metal_Only>
0

> <s_lp_Force_Field>
OPLS_2005

> <r_lp_Energy>
50.5725

> <b_lp_Chiralities_Consistent>
1

> <s_lp_Variant>
AV-unprocessed.smi:196-11

> <Gold.Version>
5.8.1

> <Gold.Id.Protein>
6NUR|6NUR_protein|mol2

> <Gold.PLP.Fitness>
43.1818

> <Gold.PLP.PLP>
-34.6080

> <Gold.PLP.part.hbond>
-4.0885

> <Gold.PLP.part.metal>
0.0000

> <Gold.PLP.part.buried>
-4.3110

> <Gold.PLP.part.nonpolar>
-25.6394

> <Gold.PLP.part.repulsive>
0.1896

> <Gold.PLP.ligand.clash>
0.0000

> <Gold.PLP.ligand.torsion>
1.3188

> <Gold.PLP.Chemscore.Hbond>
3.7137

> <Gold.PLP.Chemscore.CHOScore>
0.0000

> <Gold.PLP.Chemscore.Metal>
0.0000

> <Gold.Chemscore.Hbonds>
donor molecule, donor type, donor heavy atom, donor atom, acceptor molecule, acceptor atom, score
      L1  H    21    45       P1  7948  0.95
      L1  H    21    46       P1  7957  0.72
      P1  H  6896  6907       L1    25  1.00
      P1  H  6934  6947       L1     7  1.00

> <Gold.PLP.Chemscore.Internal.Correction>
0.0703

> <Gold.Rescore>
     Score         DG    S(hbond)    S(metal)    S(lipo)     H(rot)  DE(clash)    DE(int)     intcor
      5.82     -13.39       2.59        0.00      60.17       3.04       0.05       7.52       ----

> <Gold.Chemscore.Fitness>
5.8207

> <Gold.Chemscore.DG>
-13.3930

> <Gold.Chemscore.ZeroCoef>
-5.4800

> <Gold.Chemscore.Hbond>
2.5925

> <Gold.Chemscore.Metal>
0.0000

> <Gold.Chemscore.Lipo>
60.1699

> <Gold.Chemscore.Internal_Hbond>
0.0000

> <Gold.Chemscore.DEClash>
0.0544

> <Gold.Chemscore.DEInternal>
7.5179

> <Gold.Chemscore.Rot>
3.0413

> <Gold.Chemscore.Internal.Correction>
   9.000000E+99

> <Gold.Chemscore.Hbonds>
donor molecule, donor type, donor heavy atom, donor atom, acceptor molecule, acceptor atom, score
      L1  H    21    45       P1  7948  0.21
      L1  H    21    46       P1  7957  0.67
      P1  H  6896  6907       L1    25  0.61
      P1  H  6934  6947       L1     7  0.29

> <Gold.Chemscore.Hbond.Weighted>
-8.6588

> <Gold.Chemscore.Metal.Weighted>
-0.0000

> <Gold.Chemscore.Lipo.Weighted>
-7.0399

> <Gold.Chemscore.Internal_Hbond.Weighted>
0.0000

> <Gold.Chemscore.DEClash.Weighted>
0.0544

> <Gold.Chemscore.DEInternal.Weighted>
7.5179

> <Gold.Chemscore.Rot.Weighted>
7.7856

> <Gold.Chemscore.Internal.Correction.Weighted>
   9.000000E+99

> <Gold.Protein.RotatedTorsions>
[ 6907 6896 6895 6894 ] final  -33.00 input  -60.11 | X-H torsion
[ 7974 7965 7964 7962 ] final   47.71 input  175.53 | X-H torsion
[ 8008 7997 7996 7995 ] final -137.72 input   59.86 | X-H torsion
[ 10167 10162 10161 10158 ] final   95.28 input  -65.29 | X-H torsion
[ 10718 10713 10712 10709 ] final  -75.57 input   66.30 | X-H torsion
[ 10763 10752 10751 10750 ] final   20.82 input  -60.55 | X-H torsion
[ 11005 11000 10999 10996 ] final -124.51 input  -57.11 | X-H torsion

> <Gold.Protein.ActiveResidues>
 VAL166  LYS551  ARG553  GLY616  TRP617  ASP618  TYR619  PRO620  LYS621  CYS622 
 ASP623  PHE694  ASN695  SER759  ASP760  ASP761  ALA762  ILE779  LEU786  VAL792 
 PHE793  MET794  SER795  GLU796  ALA797  LYS798  CYS799  TRP800  GLU811  SER814 

> <Gold.Protein.RotatedAtoms>
  151.0713  134.9800  159.8309 H   0  0  0  0  0  0  0  0  0  0  0  0  # atno 6907 bound_to 6896
  152.5409  134.2295  159.8829 H   0  0  0  0  0  0  0  0  0  0  0  0  # atno 6908 bound_to 6896
  151.2320  133.4402  159.2637 H   0  0  0  0  0  0  0  0  0  0  0  0  # atno 6909 bound_to 6896
  146.0272  139.4720  142.9860 H   0  0  0  0  0  0  0  0  0  0  0  0  # atno 7974 bound_to 7965
  155.4165  140.0515  157.3028 H   0  0  0  0  0  0  0  0  0  0  0  0  # atno 8008 bound_to 7997
  154.4922  140.2124  155.9483 H   0  0  0  0  0  0  0  0  0  0  0  0  # atno 8009 bound_to 7997
  156.1357  140.3163  155.8423 H   0  0  0  0  0  0  0  0  0  0  0  0  # atno 8010 bound_to 7997
  139.8003  144.6816  150.9773 H   0  0  0  0  0  0  0  0  0  0  0  0  # atno 10167 bound_to 10162
  156.0203  130.4444  150.3063 H   0  0  0  0  0  0  0  0  0  0  0  0  # atno 10718 bound_to 10713
  153.1046  135.6681  153.9610 H   0  0  0  0  0  0  0  0  0  0  0  0  # atno 10763 bound_to 10752
  153.9171  135.3018  155.3449 H   0  0  0  0  0  0  0  0  0  0  0  0  # atno 10764 bound_to 10752
  154.7467  135.5054  153.9292 H   0  0  0  0  0  0  0  0  0  0  0  0  # atno 10765 bound_to 10752
  140.9835  134.0640  157.3738 H   0  0  0  0  0  0  0  0  0  0  0  0  # atno 11005 bound_to 11000
  145.7099  141.0109  143.1459 LP  0  0  0  0  0  0  0  0  0  0  0  0  # atno 17320 bound_to 7965
  144.7014  139.8744  143.7443 LP  0  0  0  0  0  0  0  0  0  0  0  0  # atno 17321 bound_to 7965
  140.7820  143.4288  151.0726 LP  0  0  0  0  0  0  0  0  0  0  0  0  # atno 17342 bound_to 10162
  139.7960  143.8150  152.3157 LP  0  0  0  0  0  0  0  0  0  0  0  0  # atno 17343 bound_to 10162
  157.1165  131.0235  151.3027 LP  0  0  0  0  0  0  0  0  0  0  0  0  # atno 17370 bound_to 10713
  157.4662  130.7682  149.7281 LP  0  0  0  0  0  0  0  0  0  0  0  0  # atno 17371 bound_to 10713
  139.8960  135.0144  156.7031 LP  0  0  0  0  0  0  0  0  0  0  0  0  # atno 17394 bound_to 11000
  140.7150  133.9190  155.8109 LP  0  0  0  0  0  0  0  0  0  0  0  0  # atno 17395 bound_to 11000

$$$$
