AV-unprocessed.smi:934|AV-procd|sdf|4205|dock2
  -GOLD-   22720 2113D 1   1.00000     0.00000
 Structure written by MMmdl.
 43 44  0  0  0  0  0  0  0  0  2 V2000
  147.9891  136.8722  157.2450 C   0  0  0  0  0  0  0  0  0  0  0  0
  147.4649  136.0205  156.1453 N   0  3  0  0  0  0  0  0  0  0  0  0
  146.9504  136.8683  155.0383 C   0  0  0  0  0  0  0  0  0  0  0  0
  148.3514  134.8601  155.7551 C   0  0  0  0  0  0  0  0  0  0  0  0
  147.5262  133.8848  154.8522 C   0  0  0  0  0  0  0  0  0  0  0  0
  147.4203  134.3197  153.4588 N   0  0  0  0  0  0  0  0  0  0  0  0
  146.4404  133.9805  152.6093 C   0  0  0  0  0  0  0  0  0  0  0  0
  145.5089  133.2367  152.9127 O   0  0  0  0  0  0  0  0  0  0  0  0
  146.6118  134.5671  151.4125 N   0  0  0  0  0  0  0  0  0  0  0  0
  145.8114  134.4502  150.2437 C   0  0  0  0  0  0  0  0  0  0  0  0
  144.4522  134.1121  150.4082 C   0  0  0  0  0  0  0  0  0  0  0  0
  143.6282  134.0045  149.2721 C   0  0  0  0  0  0  0  0  0  0  0  0
  144.1967  134.2490  148.0074 C   0  0  0  0  0  0  0  0  0  0  0  0
  145.4912  134.5874  147.8317 N   0  0  0  0  0  0  0  0  0  0  0  0
  146.2769  134.6870  148.9258 C   0  0  0  0  0  0  0  0  0  0  0  0
  149.6181  135.3492  154.9874 C   0  0  0  0  0  0  0  0  0  0  0  0
  150.6402  134.2276  154.7269 C   0  0  0  0  0  0  0  0  0  0  0  0
  151.0258  133.6450  155.9650 O   0  0  0  0  0  0  0  0  0  0  0  0
  149.9407  133.0432  156.6589 C   0  0  0  0  0  0  0  0  0  0  0  0
  148.8732  134.0998  157.0056 C   0  0  0  0  0  0  0  0  0  0  0  0
  148.8470  137.4616  156.9199 H   0  0  0  0  0  0  0  0  0  0  0  0
  148.2795  136.2944  158.1204 H   0  0  0  0  0  0  0  0  0  0  0  0
  147.2210  137.5706  157.5787 H   0  0  0  0  0  0  0  0  0  0  0  0
  147.7583  137.2702  154.4269 H   0  0  0  0  0  0  0  0  0  0  0  0
  146.3833  137.7131  155.4304 H   0  0  0  0  0  0  0  0  0  0  0  0
  146.2602  136.3191  154.3987 H   0  0  0  0  0  0  0  0  0  0  0  0
  147.9061  132.8651  154.8921 H   0  0  0  0  0  0  0  0  0  0  0  0
  146.5084  133.7932  155.2294 H   0  0  0  0  0  0  0  0  0  0  0  0
  148.1327  134.9526  153.1253 H   0  0  0  0  0  0  0  0  0  0  0  0
  147.3815  135.2163  151.3417 H   0  0  0  0  0  0  0  0  0  0  0  0
  144.0434  133.9338  151.3920 H   0  0  0  0  0  0  0  0  0  0  0  0
  142.5850  133.7417  149.3680 H   0  0  0  0  0  0  0  0  0  0  0  0
  143.5945  134.1762  147.1138 H   0  0  0  0  0  0  0  0  0  0  0  0
  147.2930  134.9849  148.7209 H   0  0  0  0  0  0  0  0  0  0  0  0
  149.3481  135.8405  154.0532 H   0  0  0  0  0  0  0  0  0  0  0  0
  150.1622  136.0907  155.5707 H   0  0  0  0  0  0  0  0  0  0  0  0
  150.2616  133.4664  154.0456 H   0  0  0  0  0  0  0  0  0  0  0  0
  151.5288  134.6450  154.2532 H   0  0  0  0  0  0  0  0  0  0  0  0
  149.5221  132.2283  156.0678 H   0  0  0  0  0  0  0  0  0  0  0  0
  150.3247  132.5934  157.5745 H   0  0  0  0  0  0  0  0  0  0  0  0
  149.3124  134.8018  157.7145 H   0  0  0  0  0  0  0  0  0  0  0  0
  148.0555  133.6081  157.5331 H   0  0  0  0  0  0  0  0  0  0  0  0
  146.6377  135.5839  156.5265 H   0  0  0  0  0  0  0  0  0  0  0  0
  1  2  1  0  0  0  0
  1 21  1  0  0  0  0
  1 22  1  0  0  0  0
  1 23  1  0  0  0  0
  2  3  1  0  0  0  0
  2  4  1  0  0  0  0
  2 43  1  0  0  0  0
  3 24  1  0  0  0  0
  3 25  1  0  0  0  0
  3 26  1  0  0  0  0
  4 20  1  0  0  0  0
  4  5  1  0  0  0  0
  4 16  1  0  0  0  0
  5  6  1  0  0  0  0
  5 27  1  0  0  0  0
  5 28  1  0  0  0  0
  6  7  1  0  0  0  0
  6 29  1  0  0  0  0
  7  8  2  0  0  0  0
  7  9  1  0  0  0  0
  9 10  1  0  0  0  0
  9 30  1  0  0  0  0
 10 15  1  0  0  0  0
 10 11  2  0  0  0  0
 11 12  1  0  0  0  0
 11 31  1  0  0  0  0
 12 13  2  0  0  0  0
 12 32  1  0  0  0  0
 13 14  1  0  0  0  0
 13 33  1  0  0  0  0
 14 15  2  0  0  0  0
 15 34  1  0  0  0  0
 16 17  1  0  0  0  0
 16 35  1  0  0  0  0
 16 36  1  0  0  0  0
 17 18  1  0  0  0  0
 17 37  1  0  0  0  0
 17 38  1  0  0  0  0
 18 19  1  0  0  0  0
 19 20  1  0  0  0  0
 19 39  1  0  0  0  0
 19 40  1  0  0  0  0
 20 41  1  0  0  0  0
 20 42  1  0  0  0  0
M  CHG  1   2   1
M  END
> <s_m_source_file>
AV-unprocessed.smi

> <i_m_source_file_index>
934

> <i_lp_mmshare_version>
43012

> <i_f3d_flags>
0

> <s_epik_input>
W0NIMl0xW0NIMl1PW0NIMl1bQ0gyXUMxKE4oW0NIM10pW0NIM10pW0NIMl1bTkhdQyg9TylbTkhdYzJbY0hdW2NIXVtjSF1uW2NIXTI=

> <s_epik_cmdline>
J2VwaWtfcHl0aG9uJywgJy1waCcsICc3LjAnLCAnLXRuJywgJzgnLCAnLW1hJywgJzIwMCcsICctbWV0YWxfYmluZGluZycsICctaW1hZScsICc8aW5maWxlLm1hZT4nLCAnLW9tYWUnLCAnPG91dGZpbGUubWFlPic=

> <r_epik_Ionization_Penalty>
0.0170741

> <r_epik_Ionization_Penalty_Charging>
0.0128317

> <r_epik_Ionization_Penalty_Neutral>
0.00424236

> <r_epik_State_Penalty>
0.00995429

> <r_epik_Charging_Adjusted_Penalty>
0.022786

> <i_epik_Tot_Q>
1

> <i_epik_Tot_abs_Q>
1

> <r_epik_Metal_State_Penalty>
0.00996615

> <b_epik_Metal_Only>
0

> <s_lp_Force_Field>
OPLS_2005

> <r_lp_Energy>
34.8396

> <b_lp_Chiralities_Consistent>
1

> <s_lp_Variant>
AV-unprocessed.smi:934-1

> <Gold.Version>
5.8.1

> <Gold.Id.Protein>
6NUR|6NUR_protein|mol2

> <Gold.PLP.Fitness>
-38.4506

> <Gold.PLP.PLP>
45.8379

> <Gold.PLP.part.hbond>
-4.0000

> <Gold.PLP.part.metal>
0.0000

> <Gold.PLP.part.buried>
43.6971

> <Gold.PLP.part.nonpolar>
0.9096

> <Gold.PLP.part.repulsive>
15.4812

> <Gold.PLP.ligand.clash>
0.0000

> <Gold.PLP.ligand.torsion>
0.7159

> <Gold.PLP.Chemscore.Hbond>
2.0080

> <Gold.PLP.Chemscore.CHOScore>
0.8904

> <Gold.PLP.Chemscore.Metal>
0.0000

> <Gold.Chemscore.Hbonds>
donor molecule, donor type, donor heavy atom, donor atom, acceptor molecule, acceptor atom, score
      L1  H     6    29       P1  7948  1.00
      L1  H     9    30       P1  7948  1.00
      P1  H  7918  7932       L1    14  0.01
      L1  C    13    33       P1 10195  0.89

> <Gold.PLP.Chemscore.Internal.Correction>
0.1240

> <Gold.Rescore>
     Score         DG    S(hbond)    S(metal)    S(lipo)     H(rot)  DE(clash)    DE(int)     intcor
     11.85     -14.79       1.88        0.00      58.66       1.49       0.02       2.93       ----

> <Gold.Chemscore.Fitness>
11.8488

> <Gold.Chemscore.DG>
-14.7900

> <Gold.Chemscore.ZeroCoef>
-5.4800

> <Gold.Chemscore.Hbond>
1.8783

> <Gold.Chemscore.Metal>
0.0000

> <Gold.Chemscore.Lipo>
58.6602

> <Gold.Chemscore.Internal_Hbond>
0.0000

> <Gold.Chemscore.DEClash>
0.0151

> <Gold.Chemscore.DEInternal>
2.9261

> <Gold.Chemscore.Rot>
1.4948

> <Gold.Chemscore.Internal.Correction>
   9.000000E+99

> <Gold.Chemscore.Hbonds>
donor molecule, donor type, donor heavy atom, donor atom, acceptor molecule, acceptor atom, score
      L1  H     6    29       P1  7948  0.90
      L1  H     9    30       P1  7948  0.70

> <Gold.Chemscore.Hbond.Weighted>
-6.2735

> <Gold.Chemscore.Metal.Weighted>
-0.0000

> <Gold.Chemscore.Lipo.Weighted>
-6.8632

> <Gold.Chemscore.Internal_Hbond.Weighted>
0.0000

> <Gold.Chemscore.DEClash.Weighted>
0.0151

> <Gold.Chemscore.DEInternal.Weighted>
2.9261

> <Gold.Chemscore.Rot.Weighted>
3.8267

> <Gold.Chemscore.Internal.Correction.Weighted>
   9.000000E+99

> <Gold.Protein.RotatedTorsions>
[ 6907 6896 6895 6894 ] final   18.64 input  -60.11 | X-H torsion
[ 7974 7965 7964 7962 ] final  -80.41 input  175.53 | X-H torsion
[ 8008 7997 7996 7995 ] final  -44.20 input   59.86 | X-H torsion
[ 10167 10162 10161 10158 ] final  141.43 input  -65.29 | X-H torsion
[ 10718 10713 10712 10709 ] final  125.36 input   66.30 | X-H torsion
[ 10763 10752 10751 10750 ] final  -21.18 input  -60.55 | X-H torsion
[ 11005 11000 10999 10996 ] final -118.98 input  -57.11 | X-H torsion

> <Gold.Protein.ActiveResidues>
 VAL166  LYS551  ARG553  GLY616  TRP617  ASP618  TYR619  PRO620  LYS621  CYS622 
 ASP623  PHE694  ASN695  SER759  ASP760  ASP761  ALA762  ILE779  LEU786  VAL792 
 PHE793  MET794  SER795  GLU796  ALA797  LYS798  CYS799  TRP800  GLU811  SER814 

> <Gold.Protein.RotatedAtoms>
  151.8684  135.0498  160.0476 H   0  0  0  0  0  0  0  0  0  0  0  0  # atno 6907 bound_to 6896
  152.2608  133.5291  159.5389 H   0  0  0  0  0  0  0  0  0  0  0  0  # atno 6908 bound_to 6896
  150.7116  134.0749  159.3920 H   0  0  0  0  0  0  0  0  0  0  0  0  # atno 6909 bound_to 6896
  145.5603  140.9483  143.1451 H   0  0  0  0  0  0  0  0  0  0  0  0  # atno 7974 bound_to 7965
  154.3997  140.1428  156.3645 H   0  0  0  0  0  0  0  0  0  0  0  0  # atno 8008 bound_to 7997
  155.8150  140.3471  155.5459 H   0  0  0  0  0  0  0  0  0  0  0  0  # atno 8009 bound_to 7997
  155.8347  140.0917  157.1762 H   0  0  0  0  0  0  0  0  0  0  0  0  # atno 8010 bound_to 7997
  139.5021  144.6172  151.6136 H   0  0  0  0  0  0  0  0  0  0  0  0  # atno 10167 bound_to 10162
  157.5509  131.1094  150.8703 H   0  0  0  0  0  0  0  0  0  0  0  0  # atno 10718 bound_to 10713
  153.6321  135.6988  153.5272 H   0  0  0  0  0  0  0  0  0  0  0  0  # atno 10763 bound_to 10752
  153.2851  135.4174  155.1114 H   0  0  0  0  0  0  0  0  0  0  0  0  # atno 10764 bound_to 10752
  154.8519  135.3611  154.5863 H   0  0  0  0  0  0  0  0  0  0  0  0  # atno 10765 bound_to 10752
  141.0247  134.0071  157.3231 H   0  0  0  0  0  0  0  0  0  0  0  0  # atno 11005 bound_to 11000
  144.7486  139.7253  143.7282 LP  0  0  0  0  0  0  0  0  0  0  0  0  # atno 17320 bound_to 7965
  146.1856  139.5069  142.9838 LP  0  0  0  0  0  0  0  0  0  0  0  0  # atno 17321 bound_to 7965
  140.5863  143.9858  150.6298 LP  0  0  0  0  0  0  0  0  0  0  0  0  # atno 17342 bound_to 10162
  140.3023  143.3252  152.0959 LP  0  0  0  0  0  0  0  0  0  0  0  0  # atno 17343 bound_to 10162
  156.9228  130.5321  149.5279 LP  0  0  0  0  0  0  0  0  0  0  0  0  # atno 17370 bound_to 10713
  156.0576  130.5635  150.9125 LP  0  0  0  0  0  0  0  0  0  0  0  0  # atno 17371 bound_to 10713
  139.9168  135.0197  156.7914 LP  0  0  0  0  0  0  0  0  0  0  0  0  # atno 17394 bound_to 11000
  140.6511  133.9730  155.7756 LP  0  0  0  0  0  0  0  0  0  0  0  0  # atno 17395 bound_to 11000

$$$$
