AV-unprocessed.smi:2021|AV-procd|sdf|8179|dock6
  -GOLD-   2272010433D 1   1.00000     0.00000
 Structure written by MMmdl.
 41 42  0  0  0  0  0  0  0  0  1 V2000
  152.2548  143.6454  161.2465 C   0  0  0  0  0  0  0  0  0  0  0  0
  152.4974  143.2926  159.7691 C   0  0  0  0  0  0  0  0  0  0  0  0
  151.8016  144.2680  158.8039 C   0  0  0  0  0  0  0  0  0  0  0  0
  152.2505  141.8004  159.4355 C   0  0  0  0  0  0  0  0  0  0  0  0
  151.9910  141.4496  158.0352 N   0  0  0  0  0  0  0  0  0  0  0  0
  152.3463  140.0708  157.7110 C   0  0  0  0  0  0  0  0  0  0  0  0
  152.0139  139.7159  156.2518 C   0  0  0  0  0  0  0  0  0  0  0  0
  150.6364  139.9658  155.9991 O   0  0  0  0  0  0  0  0  0  0  0  0
  150.2690  141.3224  156.2360 C   0  0  1  0  0  0  0  0  0  0  0  0
  148.7738  141.4867  155.9151 C   0  0  0  0  0  0  0  0  0  0  0  0
  148.1316  142.4369  156.8169 N   0  0  0  0  0  0  0  0  0  0  0  0
  147.6165  142.1330  158.0162 C   0  0  0  0  0  0  0  0  0  0  0  0
  147.6071  140.9932  158.4808 O   0  0  0  0  0  0  0  0  0  0  0  0
  147.1275  143.2253  158.6252 N   0  0  0  0  0  0  0  0  0  0  0  0
  146.5190  143.3129  159.9023 C   0  0  0  0  0  0  0  0  0  0  0  0
  146.6898  142.2925  160.7511 N   0  0  0  0  0  0  0  0  0  0  0  0
  146.0413  142.5075  161.9612 N   0  0  0  0  0  0  0  0  0  0  0  0
  145.4059  143.6831  161.9775 C   0  0  0  0  0  0  0  0  0  0  0  0
  145.5368  144.6462  160.5164 S   0  0  0  0  0  0  0  0  0  0  0  0
  150.5851  141.6650  157.7047 C   0  0  0  0  0  0  0  0  0  0  0  0
  151.1998  143.5759  161.5115 H   0  0  0  0  0  0  0  0  0  0  0  0
  152.5804  144.6631  161.4637 H   0  0  0  0  0  0  0  0  0  0  0  0
  152.8089  142.9756  161.9046 H   0  0  0  0  0  0  0  0  0  0  0  0
  153.5632  143.4487  159.5969 H   0  0  0  0  0  0  0  0  0  0  0  0
  150.7199  144.2758  158.9203 H   0  0  0  0  0  0  0  0  0  0  0  0
  152.0222  144.0173  157.7659 H   0  0  0  0  0  0  0  0  0  0  0  0
  152.1487  145.2879  158.9713 H   0  0  0  0  0  0  0  0  0  0  0  0
  153.0675  141.1925  159.8268 H   0  0  0  0  0  0  0  0  0  0  0  0
  151.3751  141.5035  160.0150 H   0  0  0  0  0  0  0  0  0  0  0  0
  153.4120  139.9124  157.8574 H   0  0  0  0  0  0  0  0  0  0  0  0
  151.8254  139.3847  158.3805 H   0  0  0  0  0  0  0  0  0  0  0  0
  152.6281  140.2978  155.5630 H   0  0  0  0  0  0  0  0  0  0  0  0
  152.2266  138.6642  156.0595 H   0  0  0  0  0  0  0  0  0  0  0  0
  150.8541  141.9725  155.5825 H   0  0  0  0  0  0  0  0  0  0  0  0
  148.6473  141.8445  154.8929 H   0  0  0  0  0  0  0  0  0  0  0  0
  148.2649  140.5229  155.9702 H   0  0  0  0  0  0  0  0  0  0  0  0
  148.1013  143.3993  156.5139 H   0  0  0  0  0  0  0  0  0  0  0  0
  147.2054  144.0964  158.1215 H   0  0  0  0  0  0  0  0  0  0  0  0
  144.8563  143.9851  162.8565 H   0  0  0  0  0  0  0  0  0  0  0  0
  149.9562  141.0606  158.3605 H   0  0  0  0  0  0  0  0  0  0  0  0
  150.3196  142.7059  157.8930 H   0  0  0  0  0  0  0  0  0  0  0  0
  1  2  1  0  0  0  0
  1 21  1  0  0  0  0
  1 22  1  0  0  0  0
  1 23  1  0  0  0  0
  2  3  1  0  0  0  0
  2  4  1  0  0  0  0
  2 24  1  0  0  0  0
  3 25  1  0  0  0  0
  3 26  1  0  0  0  0
  3 27  1  0  0  0  0
  4  5  1  0  0  0  0
  4 28  1  0  0  0  0
  4 29  1  0  0  0  0
  5 20  1  0  0  0  0
  5  6  1  0  0  0  0
  6  7  1  0  0  0  0
  6 30  1  0  0  0  0
  6 31  1  0  0  0  0
  7  8  1  0  0  0  0
  7 32  1  0  0  0  0
  7 33  1  0  0  0  0
  8  9  1  0  0  0  0
  9 10  1  0  0  0  0
  9 20  1  0  0  0  0
  9 34  1  0  0  0  0
 10 11  1  0  0  0  0
 10 35  1  0  0  0  0
 10 36  1  0  0  0  0
 11 12  1  0  0  0  0
 11 37  1  0  0  0  0
 12 13  2  0  0  0  0
 12 14  1  0  0  0  0
 14 15  1  0  0  0  0
 14 38  1  0  0  0  0
 15 19  1  0  0  0  0
 15 16  2  0  0  0  0
 16 17  1  0  0  0  0
 17 18  2  0  0  0  0
 18 19  1  0  0  0  0
 18 39  1  0  0  0  0
 20 40  1  0  0  0  0
 20 41  1  0  0  0  0
M  END
> <s_m_source_file>
AV-unprocessed.smi

> <i_m_source_file_index>
2021

> <i_lp_mmshare_version>
43012

> <i_f3d_flags>
0

> <s_epik_input>
W0NIM11bQ0hdKFtDSDNdKVtDSDJdTjFbQ0gyXVtDSDJdT1tDQEhdKFtDSDJdMSlbQ0gyXVtOSF1DKD1PKVtOSF1jMm5uW2NIXXMy

> <s_epik_cmdline>
J2VwaWtfcHl0aG9uJywgJy1waCcsICc3LjAnLCAnLXRuJywgJzgnLCAnLW1hJywgJzIwMCcsICctbWV0YWxfYmluZGluZycsICctaW1hZScsICc8aW5maWxlLm1hZT4nLCAnLW9tYWUnLCAnPG91dGZpbGUubWFlPic=

> <r_lp_tautomer_probability>
1

> <r_epik_Ionization_Penalty>
1.11451

> <r_epik_Ionization_Penalty_Charging>
0

> <r_epik_Ionization_Penalty_Neutral>
1.11451

> <r_epik_State_Penalty>
1.17021

> <r_epik_Charging_Adjusted_Penalty>
1.17021

> <i_epik_Tot_Q>
0

> <i_epik_Tot_abs_Q>
0

> <r_epik_Metal_State_Penalty>
1.53642

> <b_epik_Metal_Only>
0

> <s_lp_Force_Field>
OPLS_2005

> <r_lp_Energy>
25.242

> <b_lp_Chiralities_Consistent>
1

> <s_lp_Variant>
AV-unprocessed.smi:2021-5

> <Gold.Version>
5.8.1

> <Gold.Id.Protein>
6NUR|6NUR_protein|mol2

> <Gold.PLP.Fitness>
43.0985

> <Gold.PLP.PLP>
-35.9388

> <Gold.PLP.part.hbond>
-5.1427

> <Gold.PLP.part.metal>
0.0000

> <Gold.PLP.part.buried>
-3.5789

> <Gold.PLP.part.nonpolar>
-27.9955

> <Gold.PLP.part.repulsive>
0.1344

> <Gold.PLP.ligand.clash>
1.0486

> <Gold.PLP.ligand.torsion>
1.2834

> <Gold.PLP.Chemscore.Hbond>
3.5564

> <Gold.PLP.Chemscore.CHOScore>
0.0000

> <Gold.PLP.Chemscore.Metal>
0.0000

> <Gold.Chemscore.Hbonds>
donor molecule, donor type, donor heavy atom, donor atom, acceptor molecule, acceptor atom, score
      L1  H    11    37       P1  8028  0.84
      L1  H    14    38       P1  8029  0.76
      P1  H  6933  6944       L1    16  0.49
      P1  H  6934  6946       L1    16  0.74

> <Gold.PLP.Chemscore.Internal.Correction>
0.1059

> <Gold.Rescore>
     Score         DG    S(hbond)    S(metal)    S(lipo)     H(rot)  DE(clash)    DE(int)     intcor
     14.19     -16.94       1.91        0.00      83.71       1.84       0.15       2.61       ----

> <Gold.Chemscore.Fitness>
14.1899

> <Gold.Chemscore.DG>
-16.9431

> <Gold.Chemscore.ZeroCoef>
-5.4800

> <Gold.Chemscore.Hbond>
1.9110

> <Gold.Chemscore.Metal>
0.0000

> <Gold.Chemscore.Lipo>
83.7118

> <Gold.Chemscore.Internal_Hbond>
0.0000

> <Gold.Chemscore.DEClash>
0.1461

> <Gold.Chemscore.DEInternal>
2.6071

> <Gold.Chemscore.Rot>
1.8413

> <Gold.Chemscore.Internal.Correction>
   9.000000E+99

> <Gold.Chemscore.Hbonds>
donor molecule, donor type, donor heavy atom, donor atom, acceptor molecule, acceptor atom, score
      L1  H    11    37       P1  8028  0.14
      L1  H    14    38       P1  8029  0.26
      P1  H  6933  6944       L1    16  0.06
      P1  H  6934  6946       L1    16  0.31

> <Gold.Chemscore.Hbond.Weighted>
-6.3827

> <Gold.Chemscore.Metal.Weighted>
-0.0000

> <Gold.Chemscore.Lipo.Weighted>
-9.7943

> <Gold.Chemscore.Internal_Hbond.Weighted>
0.0000

> <Gold.Chemscore.DEClash.Weighted>
0.1461

> <Gold.Chemscore.DEInternal.Weighted>
2.6071

> <Gold.Chemscore.Rot.Weighted>
4.7138

> <Gold.Chemscore.Internal.Correction.Weighted>
   9.000000E+99

> <Gold.Protein.RotatedTorsions>
[ 6907 6896 6895 6894 ] final   88.71 input  -60.11 | X-H torsion
[ 7974 7965 7964 7962 ] final  123.62 input  175.53 | X-H torsion
[ 8008 7997 7996 7995 ] final  150.98 input   59.86 | X-H torsion
[ 10167 10162 10161 10158 ] final   17.04 input  -65.29 | X-H torsion
[ 10718 10713 10712 10709 ] final -140.18 input   66.30 | X-H torsion
[ 10763 10752 10751 10750 ] final  -90.19 input  -60.55 | X-H torsion
[ 11005 11000 10999 10996 ] final   61.46 input  -57.11 | X-H torsion

> <Gold.Protein.ActiveResidues>
 VAL166  LYS551  ARG553  GLY616  TRP617  ASP618  TYR619  PRO620  LYS621  CYS622 
 ASP623  PHE694  ASN695  SER759  ASP760  ASP761  ALA762  ILE779  LEU786  VAL792 
 PHE793  MET794  SER795  GLU796  ALA797  LYS798  CYS799  TRP800  GLU811  SER814 

> <Gold.Protein.RotatedAtoms>
  152.5428  134.2079  159.8737 H   0  0  0  0  0  0  0  0  0  0  0  0  # atno 6907 bound_to 6896
  151.2063  133.4574  159.2605 H   0  0  0  0  0  0  0  0  0  0  0  0  # atno 6908 bound_to 6896
  151.0940  134.9945  159.8472 H   0  0  0  0  0  0  0  0  0  0  0  0  # atno 6909 bound_to 6896
  145.0938  139.3568  143.4847 H   0  0  0  0  0  0  0  0  0  0  0  0  # atno 7974 bound_to 7965
  156.2693  140.2060  156.6103 H   0  0  0  0  0  0  0  0  0  0  0  0  # atno 8008 bound_to 7997
  154.6837  140.0537  157.0316 H   0  0  0  0  0  0  0  0  0  0  0  0  # atno 8009 bound_to 7997
  155.0964  140.3201  155.4562 H   0  0  0  0  0  0  0  0  0  0  0  0  # atno 8010 bound_to 7997
  140.5754  143.9082  150.6746 H   0  0  0  0  0  0  0  0  0  0  0  0  # atno 10167 bound_to 10162
  156.3194  130.7525  151.1620 H   0  0  0  0  0  0  0  0  0  0  0  0  # atno 10718 bound_to 10713
  154.6632  135.5313  153.8044 H   0  0  0  0  0  0  0  0  0  0  0  0  # atno 10763 bound_to 10752
  153.0454  135.6511  154.0840 H   0  0  0  0  0  0  0  0  0  0  0  0  # atno 10764 bound_to 10752
  154.0747  135.2951  155.3281 H   0  0  0  0  0  0  0  0  0  0  0  0  # atno 10765 bound_to 10752
  140.0160  134.6224  155.9709 H   0  0  0  0  0  0  0  0  0  0  0  0  # atno 11005 bound_to 11000
  146.3531  140.0784  142.8619 LP  0  0  0  0  0  0  0  0  0  0  0  0  # atno 17320 bound_to 7965
  145.1035  140.9361  143.4698 LP  0  0  0  0  0  0  0  0  0  0  0  0  # atno 17321 bound_to 7965
  140.2568  143.3553  152.1358 LP  0  0  0  0  0  0  0  0  0  0  0  0  # atno 17342 bound_to 10162
  139.5140  144.6941  151.5679 LP  0  0  0  0  0  0  0  0  0  0  0  0  # atno 17343 bound_to 10162
  157.7408  131.0512  150.5138 LP  0  0  0  0  0  0  0  0  0  0  0  0  # atno 17370 bound_to 10713
  156.5288  130.4180  149.6212 LP  0  0  0  0  0  0  0  0  0  0  0  0  # atno 17371 bound_to 10713
  141.1743  133.6539  156.4768 LP  0  0  0  0  0  0  0  0  0  0  0  0  # atno 17394 bound_to 11000
  140.4470  134.6963  157.5021 LP  0  0  0  0  0  0  0  0  0  0  0  0  # atno 17395 bound_to 11000

$$$$
