AV-unprocessed.smi:3298|AV-procd|sdf|12646|dock8
  -GOLD-   2272018583D 1   1.00000     0.00000
 Structure written by MMmdl.
 36 37  0  0  0  0  0  0  0  0  2 V2000
  146.3306  143.0693  154.1092 C   0  0  0  0  0  0  0  0  0  0  0  0
  147.2461  141.8632  154.1123 C   0  0  0  0  0  0  0  0  0  0  0  0
  146.8542  140.6183  153.5743 C   0  0  0  0  0  0  0  0  0  0  0  0
  147.7626  139.5285  153.6026 C   0  0  0  0  0  0  0  0  0  0  0  0
  147.4754  138.2279  153.1012 N   0  0  0  0  0  0  0  0  0  0  0  0
  146.3007  137.5749  153.0499 C   0  0  0  0  0  0  0  0  0  0  0  0
  145.2198  138.0161  153.4385 O   0  0  0  0  0  0  0  0  0  0  0  0
  146.4461  136.3601  152.5012 N   0  0  0  0  0  0  0  0  0  0  0  0
  145.3693  135.3947  152.3015 C   0  0  2  0  0  0  0  0  0  0  0  0
  145.7550  134.0286  152.8039 C   0  0  0  0  0  0  0  0  0  0  0  0
  145.7369  133.1054  151.8454 C   0  0  0  0  0  0  0  0  0  0  0  0
  145.3589  133.6653  150.4988 C   0  0  1  0  0  0  0  0  0  0  0  0
  144.1688  132.9156  149.8766 C   0  0  0  0  0  0  0  0  0  0  0  0
  143.7971  133.5163  148.6541 O   0  0  0  0  0  0  0  0  0  0  0  0
  145.0757  135.1616  150.7987 C   0  0  0  0  0  0  0  0  0  0  0  0
  149.0316  139.7269  154.1909 C   0  0  0  0  0  0  0  0  0  0  0  0
  149.3681  140.9916  154.7140 C   0  0  0  0  0  0  0  0  0  0  0  0
  148.4754  142.0023  154.6548 N   0  3  0  0  0  0  0  0  0  0  0  0
  144.4618  135.7209  152.8131 H   0  0  0  0  0  0  0  0  0  0  0  0
  146.2315  133.5738  149.8506 H   0  0  0  0  0  0  0  0  0  0  0  0
  145.3721  142.8349  153.6451 H   0  0  0  0  0  0  0  0  0  0  0  0
  146.7850  143.8900  153.5532 H   0  0  0  0  0  0  0  0  0  0  0  0
  146.1413  143.4057  155.1290 H   0  0  0  0  0  0  0  0  0  0  0  0
  145.8624  140.5258  153.1608 H   0  0  0  0  0  0  0  0  0  0  0  0
  148.2610  137.7440  152.6915 H   0  0  0  0  0  0  0  0  0  0  0  0
  147.3683  136.0763  152.2046 H   0  0  0  0  0  0  0  0  0  0  0  0
  146.0032  133.8446  153.8389 H   0  0  0  0  0  0  0  0  0  0  0  0
  145.9788  132.0622  151.9858 H   0  0  0  0  0  0  0  0  0  0  0  0
  144.4341  131.8758  149.6828 H   0  0  0  0  0  0  0  0  0  0  0  0
  143.3128  132.9101  150.5527 H   0  0  0  0  0  0  0  0  0  0  0  0
  144.5821  133.7621  148.1885 H   0  0  0  0  0  0  0  0  0  0  0  0
  144.0359  135.4141  150.5860 H   0  0  0  0  0  0  0  0  0  0  0  0
  145.6859  135.8009  150.1588 H   0  0  0  0  0  0  0  0  0  0  0  0
  149.7472  138.9187  154.2398 H   0  0  0  0  0  0  0  0  0  0  0  0
  150.3172  141.2233  155.1750 H   0  0  0  0  0  0  0  0  0  0  0  0
  148.7390  142.9100  155.0393 H   0  0  0  0  0  0  0  0  0  0  0  0
  1  2  1  0  0  0  0
  1 21  1  0  0  0  0
  1 22  1  0  0  0  0
  1 23  1  0  0  0  0
  2 18  1  0  0  0  0
  2  3  2  0  0  0  0
  3  4  1  0  0  0  0
  3 24  1  0  0  0  0
  4  5  1  0  0  0  0
  4 16  2  0  0  0  0
  5  6  1  0  0  0  0
  5 25  1  0  0  0  0
  6  7  2  0  0  0  0
  6  8  1  0  0  0  0
  8  9  1  0  0  0  0
  8 26  1  0  0  0  0
  9 19  1  0  0  0  0
  9 15  1  0  0  0  0
  9 10  1  0  0  0  0
 10 11  2  0  0  0  0
 10 27  1  0  0  0  0
 11 12  1  0  0  0  0
 11 28  1  0  0  0  0
 12 20  1  0  0  0  0
 12 13  1  0  0  0  0
 12 15  1  0  0  0  0
 13 14  1  0  0  0  0
 13 29  1  0  0  0  0
 13 30  1  0  0  0  0
 14 31  1  0  0  0  0
 15 32  1  0  0  0  0
 15 33  1  0  0  0  0
 16 17  1  0  0  0  0
 16 34  1  0  0  0  0
 17 18  2  0  0  0  0
 17 35  1  0  0  0  0
 18 36  1  0  0  0  0
M  CHG  1  18   1
M  END
> <s_m_source_file>
AV-unprocessed.smi

> <i_m_source_file_index>
3298

> <i_lp_mmshare_version>
43012

> <i_f3d_flags>
0

> <s_epik_input>
W0NIM11jMVtjSF1jKFtjSF1bY0hdbjEpW05IXUMoPU8pW05IXVtDQEBIXTJbQ0hdPVtDSF1bQ0BASF0oW0NIMl0yKVtDSDJdW09IXQ==

> <s_epik_cmdline>
J2VwaWtfcHl0aG9uJywgJy1waCcsICc3LjAnLCAnLXRuJywgJzgnLCAnLW1hJywgJzIwMCcsICctbWV0YWxfYmluZGluZycsICctaW1hZScsICc8aW5maWxlLm1hZT4nLCAnLW9tYWUnLCAnPG91dGZpbGUubWFlPic=

> <r_epik_Ionization_Penalty>
0.443901

> <r_epik_Ionization_Penalty_Charging>
0.443881

> <r_epik_Ionization_Penalty_Neutral>
1.94967e-05

> <r_epik_State_Penalty>
0.446172

> <r_epik_Charging_Adjusted_Penalty>
0.890053

> <i_epik_Tot_Q>
1

> <i_epik_Tot_abs_Q>
1

> <r_epik_Metal_State_Penalty>
0.675842

> <b_epik_Metal_Only>
0

> <s_lp_Force_Field>
OPLS_2005

> <r_lp_Energy>
27.4169

> <b_lp_Chiralities_Consistent>
1

> <s_lp_Variant>
AV-unprocessed.smi:3298-7

> <Gold.Version>
5.8.1

> <Gold.Id.Protein>
6NUR|6NUR_protein|mol2

> <Gold.PLP.Fitness>
49.4438

> <Gold.PLP.PLP>
-35.0205

> <Gold.PLP.part.hbond>
-4.8948

> <Gold.PLP.part.metal>
0.0000

> <Gold.PLP.part.buried>
-3.9326

> <Gold.PLP.part.nonpolar>
-27.4306

> <Gold.PLP.part.repulsive>
0.9960

> <Gold.PLP.ligand.clash>
0.0000

> <Gold.PLP.ligand.torsion>
0.2951

> <Gold.PLP.Chemscore.Hbond>
5.0000

> <Gold.PLP.Chemscore.CHOScore>
0.0000

> <Gold.PLP.Chemscore.Metal>
0.0000

> <Gold.Chemscore.Hbonds>
donor molecule, donor type, donor heavy atom, donor atom, acceptor molecule, acceptor atom, score
      L1  H     5    25       P1  7948  1.00
      L1  H     8    26       P1  7948  1.00
      L1  H    14    31       P1  7921  1.00
      L1  H    18    36       P1  8028  2.00

> <Gold.PLP.Chemscore.Internal.Correction>
0.0134

> <Gold.Rescore>
     Score         DG    S(hbond)    S(metal)    S(lipo)     H(rot)  DE(clash)    DE(int)     intcor
     21.52     -22.48       3.87        0.00      74.26       1.81       0.02       0.94       ----

> <Gold.Chemscore.Fitness>
21.5168

> <Gold.Chemscore.DG>
-22.4835

> <Gold.Chemscore.ZeroCoef>
-5.4800

> <Gold.Chemscore.Hbond>
3.8737

> <Gold.Chemscore.Metal>
0.0000

> <Gold.Chemscore.Lipo>
74.2639

> <Gold.Chemscore.Internal_Hbond>
0.0000

> <Gold.Chemscore.DEClash>
0.0234

> <Gold.Chemscore.DEInternal>
0.9432

> <Gold.Chemscore.Rot>
1.8061

> <Gold.Chemscore.Internal.Correction>
   9.000000E+99

> <Gold.Chemscore.Hbonds>
donor molecule, donor type, donor heavy atom, donor atom, acceptor molecule, acceptor atom, score
      L1  H     5    25       P1  7948  0.94
      L1  H     8    26       P1  7948  0.98
      L1  H    14    31       P1  7921  0.98
      L1  H    18    36       P1  8028  1.00

> <Gold.Chemscore.Hbond.Weighted>
-12.9382

> <Gold.Chemscore.Metal.Weighted>
-0.0000

> <Gold.Chemscore.Lipo.Weighted>
-8.6889

> <Gold.Chemscore.Internal_Hbond.Weighted>
0.0000

> <Gold.Chemscore.DEClash.Weighted>
0.0234

> <Gold.Chemscore.DEInternal.Weighted>
0.9432

> <Gold.Chemscore.Rot.Weighted>
4.6237

> <Gold.Chemscore.Internal.Correction.Weighted>
   9.000000E+99

> <Gold.Protein.RotatedTorsions>
[ 6907 6896 6895 6894 ] final -148.36 input  -60.11 | X-H torsion
[ 7974 7965 7964 7962 ] final  100.64 input  175.53 | X-H torsion
[ 8008 7997 7996 7995 ] final  -87.86 input   59.86 | X-H torsion
[ 10167 10162 10161 10158 ] final -175.07 input  -65.29 | X-H torsion
[ 10718 10713 10712 10709 ] final  -58.54 input   66.30 | X-H torsion
[ 10763 10752 10751 10750 ] final -171.79 input  -60.55 | X-H torsion
[ 11005 11000 10999 10996 ] final -173.63 input  -57.11 | X-H torsion

> <Gold.Protein.ActiveResidues>
 VAL166  LYS551  ARG553  GLY616  TRP617  ASP618  TYR619  PRO620  LYS621  CYS622 
 ASP623  PHE694  ASN695  SER759  ASP760  ASP761  ALA762  ILE779  LEU786  VAL792 
 PHE793  MET794  SER795  GLU796  ALA797  LYS798  CYS799  TRP800  GLU811  SER814 

> <Gold.Protein.RotatedAtoms>
  151.1687  133.4798  159.2593 H   0  0  0  0  0  0  0  0  0  0  0  0  # atno 6907 bound_to 6896
  151.1378  135.0164  159.8622 H   0  0  0  0  0  0  0  0  0  0  0  0  # atno 6908 bound_to 6896
  152.5462  134.1584  159.8600 H   0  0  0  0  0  0  0  0  0  0  0  0  # atno 6909 bound_to 6896
  145.3828  139.2376  143.3394 H   0  0  0  0  0  0  0  0  0  0  0  0  # atno 7974 bound_to 7965
  154.6681  140.0560  157.0135 H   0  0  0  0  0  0  0  0  0  0  0  0  # atno 8008 bound_to 7997
  155.1129  140.3240  155.4498 H   0  0  0  0  0  0  0  0  0  0  0  0  # atno 8009 bound_to 7997
  156.2646  140.2011  156.6253 H   0  0  0  0  0  0  0  0  0  0  0  0  # atno 8010 bound_to 7997
  139.5600  144.1893  152.1223 H   0  0  0  0  0  0  0  0  0  0  0  0  # atno 10167 bound_to 10162
  156.1128  130.4173  150.0591 H   0  0  0  0  0  0  0  0  0  0  0  0  # atno 10718 bound_to 10713
  154.6266  135.2881  155.0265 H   0  0  0  0  0  0  0  0  0  0  0  0  # atno 10763 bound_to 10752
  154.1441  135.6514  153.4952 H   0  0  0  0  0  0  0  0  0  0  0  0  # atno 10764 bound_to 10752
  153.0260  135.5340  154.7077 H   0  0  0  0  0  0  0  0  0  0  0  0  # atno 10765 bound_to 10752
  140.4836  134.6052  157.4928 H   0  0  0  0  0  0  0  0  0  0  0  0  # atno 11005 bound_to 11000
  146.2834  140.4499  142.8767 LP  0  0  0  0  0  0  0  0  0  0  0  0  # atno 17320 bound_to 7965
  144.8495  140.6980  143.6177 LP  0  0  0  0  0  0  0  0  0  0  0  0  # atno 17321 bound_to 7965
  140.1405  144.5207  150.6747 LP  0  0  0  0  0  0  0  0  0  0  0  0  # atno 17342 bound_to 10162
  140.6879  143.2359  151.5212 LP  0  0  0  0  0  0  0  0  0  0  0  0  # atno 17343 bound_to 10162
  156.8550  130.9472  151.3622 LP  0  0  0  0  0  0  0  0  0  0  0  0  # atno 17370 bound_to 10713
  157.6310  130.8729  149.9273 LP  0  0  0  0  0  0  0  0  0  0  0  0  # atno 17371 bound_to 10713
  139.9811  134.7135  155.9857 LP  0  0  0  0  0  0  0  0  0  0  0  0  # atno 17394 bound_to 11000
  141.1519  133.6547  156.4040 LP  0  0  0  0  0  0  0  0  0  0  0  0  # atno 17395 bound_to 11000

$$$$
