AV-unprocessed.smi:41|AV-procd|sdf|386|dock7
  -GOLD-   2262016243D 1   1.00000     0.00000
 Structure written by MMmdl.
 26 27  0  0  0  0  0  0  0  0  1 V2000
  149.3419  139.4279  153.3025 N   0  0  0  0  0  0  0  0  0  0  0  0
  149.7702  140.1828  154.3246 C   0  0  0  0  0  0  0  0  0  0  0  0
  150.9119  139.8794  154.9109 N   0  0  0  0  0  0  0  0  0  0  0  0
  151.4302  140.5897  155.9621 C   0  0  0  0  0  0  0  0  0  0  0  0
  152.4902  140.2448  156.4828 O   0  0  0  0  0  0  0  0  0  0  0  0
  150.7033  141.7219  156.4106 N   0  0  0  0  0  0  0  0  0  0  0  0
  151.1533  142.4860  157.5712 C   0  0  1  0  0  0  0  0  0  0  0  0
  152.0064  143.7262  157.2228 C   0  0  0  0  0  0  0  0  0  0  0  0
  151.8257  144.8770  158.5969 S   0  0  0  0  0  0  0  0  0  0  0  0
  150.5139  143.8327  159.2745 C   0  0  1  0  0  0  0  0  0  0  0  0
  149.3244  144.6252  159.8414 C   0  0  0  0  0  0  0  0  0  0  0  0
  148.3088  143.7669  160.3206 O   0  0  0  0  0  0  0  0  0  0  0  0
  150.0482  142.9156  158.2996 O   0  0  0  0  0  0  0  0  0  0  0  0
  149.4838  142.0270  155.8183 C   0  0  0  0  0  0  0  0  0  0  0  0
  148.9910  141.3080  154.7874 C   0  0  0  0  0  0  0  0  0  0  0  0
  147.8137  141.6251  154.2212 F   0  0  0  0  0  0  0  0  0  0  0  0
  151.7330  141.8450  158.2378 H   0  0  0  0  0  0  0  0  0  0  0  0
  150.9564  143.2438  160.0796 H   0  0  0  0  0  0  0  0  0  0  0  0
  148.4659  139.6458  152.8496 H   0  0  0  0  0  0  0  0  0  0  0  0
  149.8947  138.6432  152.9891 H   0  0  0  0  0  0  0  0  0  0  0  0
  153.0466  143.4380  157.0706 H   0  0  0  0  0  0  0  0  0  0  0  0
  151.6545  144.2252  156.3225 H   0  0  0  0  0  0  0  0  0  0  0  0
  149.6499  145.2925  160.6400 H   0  0  0  0  0  0  0  0  0  0  0  0
  148.8916  145.2499  159.0595 H   0  0  0  0  0  0  0  0  0  0  0  0
  147.4807  144.2179  160.2600 H   0  0  0  0  0  0  0  0  0  0  0  0
  148.8883  142.8502  156.1843 H   0  0  0  0  0  0  0  0  0  0  0  0
  1  2  1  0  0  0  0
  1 19  1  0  0  0  0
  1 20  1  0  0  0  0
  2 15  1  0  0  0  0
  2  3  2  0  0  0  0
  3  4  1  0  0  0  0
  4  5  2  0  0  0  0
  4  6  1  0  0  0  0
  6  7  1  0  0  0  0
  6 14  1  0  0  0  0
  7 17  1  0  0  0  0
  7 13  1  0  0  0  0
  7  8  1  0  0  0  0
  8  9  1  0  0  0  0
  8 21  1  0  0  0  0
  8 22  1  0  0  0  0
  9 10  1  0  0  0  0
 10 18  1  0  0  0  0
 10 11  1  0  0  0  0
 10 13  1  0  0  0  0
 11 12  1  0  0  0  0
 11 23  1  0  0  0  0
 11 24  1  0  0  0  0
 12 25  1  0  0  0  0
 14 15  2  0  0  0  0
 14 26  1  0  0  0  0
 15 16  1  0  0  0  0
M  END
> <s_m_source_file>
AV-unprocessed.smi

> <i_m_source_file_index>
41

> <i_lp_mmshare_version>
43012

> <i_f3d_flags>
0

> <s_epik_input>
W05IMl1jMW5jKD1PKW4oW2NIXWMxRilbQ0BASF0yW0NIMl1TW0NAQEhdKE8yKVtDSDJdW09IXQ==

> <s_epik_cmdline>
J2VwaWtfcHl0aG9uJywgJy1waCcsICc3LjAnLCAnLXRuJywgJzgnLCAnLW1hJywgJzIwMCcsICctbWV0YWxfYmluZGluZycsICctaW1hZScsICc8aW5maWxlLm1hZT4nLCAnLW9tYWUnLCAnPG91dGZpbGUubWFlPic=

> <r_lp_tautomer_probability>
1

> <r_epik_Ionization_Penalty>
0.000101883

> <r_epik_Ionization_Penalty_Charging>
1.48607e-08

> <r_epik_Ionization_Penalty_Neutral>
0.000101868

> <r_epik_State_Penalty>
-0

> <r_epik_Charging_Adjusted_Penalty>
1.48607e-08

> <i_epik_Tot_Q>
0

> <i_epik_Tot_abs_Q>
0

> <r_epik_Metal_State_Penalty>
-0

> <b_epik_Metal_Only>
0

> <s_epik_Chemistry_Notes>
This compound contains an acetal/aminal-like group ( X-CH(R)-Y where X, Y are N, S, or O) that may be acid/base labile, releasing an aldehyde.

> <s_lp_Force_Field>
OPLS_2005

> <r_lp_Energy>
14.0891

> <b_lp_Chiralities_Consistent>
1

> <s_lp_Variant>
AV-unprocessed.smi:41-4

> <Gold.Version>
5.8.1

> <Gold.Id.Protein>
6NUR|6NUR_protein|mol2

> <Gold.PLP.Fitness>
38.0253

> <Gold.PLP.PLP>
-29.7783

> <Gold.PLP.part.hbond>
-3.5433

> <Gold.PLP.part.metal>
0.0000

> <Gold.PLP.part.buried>
-1.5184

> <Gold.PLP.part.nonpolar>
-25.0493

> <Gold.PLP.part.repulsive>
0.3202

> <Gold.PLP.ligand.clash>
0.0000

> <Gold.PLP.ligand.torsion>
0.7220

> <Gold.PLP.Chemscore.Hbond>
2.2149

> <Gold.PLP.Chemscore.CHOScore>
1.0000

> <Gold.PLP.Chemscore.Metal>
0.0000

> <Gold.Chemscore.Hbonds>
donor molecule, donor type, donor heavy atom, donor atom, acceptor molecule, acceptor atom, score
      P1  H  6933  6944       L1    12  0.98
      P1  H  7989  7998       L1     3  0.14
      P1  H  7997  8009       L1     5  1.00
      L1  C    14    26       P1  8028  0.77

> <Gold.PLP.Chemscore.Internal.Correction>
0.0464

> <Gold.Rescore>
     Score         DG    S(hbond)    S(metal)    S(lipo)     H(rot)  DE(clash)    DE(int)     intcor
     10.53     -12.79       2.15        0.00      48.95       2.19       1.58       0.68       ----

> <Gold.Chemscore.Fitness>
10.5319

> <Gold.Chemscore.DG>
-12.7870

> <Gold.Chemscore.ZeroCoef>
-5.4800

> <Gold.Chemscore.Hbond>
2.1538

> <Gold.Chemscore.Metal>
0.0000

> <Gold.Chemscore.Lipo>
48.9493

> <Gold.Chemscore.Internal_Hbond>
0.0000

> <Gold.Chemscore.DEClash>
1.5757

> <Gold.Chemscore.DEInternal>
0.6794

> <Gold.Chemscore.Rot>
2.1929

> <Gold.Chemscore.Internal.Correction>
   9.000000E+99

> <Gold.Chemscore.Hbonds>
donor molecule, donor type, donor heavy atom, donor atom, acceptor molecule, acceptor atom, score
      P1  H  6933  6944       L1    12  0.92
      P1  H  7997  8009       L1     5  0.95

> <Gold.Chemscore.Hbond.Weighted>
-7.1937

> <Gold.Chemscore.Metal.Weighted>
-0.0000

> <Gold.Chemscore.Lipo.Weighted>
-5.7271

> <Gold.Chemscore.Internal_Hbond.Weighted>
0.0000

> <Gold.Chemscore.DEClash.Weighted>
1.5757

> <Gold.Chemscore.DEInternal.Weighted>
0.6794

> <Gold.Chemscore.Rot.Weighted>
5.6137

> <Gold.Chemscore.Internal.Correction.Weighted>
   9.000000E+99

> <Gold.Protein.RotatedTorsions>
[ 6907 6896 6895 6894 ] final  -60.66 input  -60.11 | X-H torsion
[ 7974 7965 7964 7962 ] final  -99.13 input  175.53 | X-H torsion
[ 8008 7997 7996 7995 ] final -156.96 input   59.86 | X-H torsion
[ 10167 10162 10161 10158 ] final   40.80 input  -65.29 | X-H torsion
[ 10718 10713 10712 10709 ] final -133.29 input   66.30 | X-H torsion
[ 10763 10752 10751 10750 ] final   28.65 input  -60.55 | X-H torsion
[ 11005 11000 10999 10996 ] final   97.29 input  -57.11 | X-H torsion

> <Gold.Protein.ActiveResidues>
 VAL166  LYS551  ARG553  GLY616  TRP617  ASP618  TYR619  PRO620  LYS621  CYS622 
 ASP623  PHE694  ASN695  SER759  ASP760  ASP761  ALA762  ILE779  LEU786  VAL792 
 PHE793  MET794  SER795  GLU796  ALA797  LYS798  CYS799  TRP800  GLU811  SER814 

> <Gold.Protein.RotatedAtoms>
  150.7840  134.6808  159.6442 H   0  0  0  0  0  0  0  0  0  0  0  0  # atno 6907 bound_to 6896
  152.3932  134.6405  160.0108 H   0  0  0  0  0  0  0  0  0  0  0  0  # atno 6908 bound_to 6896
  151.6699  133.3277  159.3230 H   0  0  0  0  0  0  0  0  0  0  0  0  # atno 6909 bound_to 6896
  145.3115  140.9401  143.2767 H   0  0  0  0  0  0  0  0  0  0  0  0  # atno 7974 bound_to 7965
  155.7251  140.0795  157.2313 H   0  0  0  0  0  0  0  0  0  0  0  0  # atno 8008 bound_to 7997
  154.4040  140.1605  156.2500 H   0  0  0  0  0  0  0  0  0  0  0  0  # atno 8009 bound_to 7997
  155.9160  140.3401  155.6139 H   0  0  0  0  0  0  0  0  0  0  0  0  # atno 8010 bound_to 7997
  140.3707  144.2109  150.6133 H   0  0  0  0  0  0  0  0  0  0  0  0  # atno 10167 bound_to 10162
  156.2434  130.7110  151.0980 H   0  0  0  0  0  0  0  0  0  0  0  0  # atno 10718 bound_to 10713
  153.0479  135.6508  154.0770 H   0  0  0  0  0  0  0  0  0  0  0  0  # atno 10763 bound_to 10752
  154.0464  135.2899  155.3349 H   0  0  0  0  0  0  0  0  0  0  0  0  # atno 10764 bound_to 10752
  154.6748  135.5342  153.8251 H   0  0  0  0  0  0  0  0  0  0  0  0  # atno 10765 bound_to 10752
  139.8777  134.8994  156.4286 H   0  0  0  0  0  0  0  0  0  0  0  0  # atno 11005 bound_to 11000
  144.9012  139.4647  143.6632 LP  0  0  0  0  0  0  0  0  0  0  0  0  # atno 17320 bound_to 7965
  146.3116  139.7767  142.9015 LP  0  0  0  0  0  0  0  0  0  0  0  0  # atno 17321 bound_to 7965
  140.5036  143.2310  151.8641 LP  0  0  0  0  0  0  0  0  0  0  0  0  # atno 17342 bound_to 10162
  139.4804  144.5031  151.9034 LP  0  0  0  0  0  0  0  0  0  0  0  0  # atno 17343 bound_to 10162
  157.7185  131.0696  150.6232 LP  0  0  0  0  0  0  0  0  0  0  0  0  # atno 17370 bound_to 10713
  156.6307  130.4431  149.5788 LP  0  0  0  0  0  0  0  0  0  0  0  0  # atno 17371 bound_to 10713
  140.9083  133.7730  155.9761 LP  0  0  0  0  0  0  0  0  0  0  0  0  # atno 17394 bound_to 11000
  140.8575  134.2881  157.5249 LP  0  0  0  0  0  0  0  0  0  0  0  0  # atno 17395 bound_to 11000

$$$$
