AV-unprocessed.smi:1518|AV-procd|sdf|6125|dock6
  -GOLD-   22720 6263D 1   1.00000     0.00000
 Structure written by MMmdl.
 45 47  0  0  0  0  0  0  0  0  1 V2000
  145.8331  131.6554  161.6439 C   0  0  0  0  0  0  0  0  0  0  0  0
  146.6810  132.5693  160.7605 C   0  0  0  0  0  0  0  0  0  0  0  0
  147.0987  132.1306  159.6891 O   0  0  0  0  0  0  0  0  0  0  0  0
  146.9566  133.9524  161.2464 C   0  0  0  0  0  0  0  0  0  0  0  0
  146.5132  134.3313  162.5336 C   0  0  0  0  0  0  0  0  0  0  0  0
  146.7598  135.6277  163.0198 C   0  0  0  0  0  0  0  0  0  0  0  0
  147.4504  136.5586  162.2239 C   0  0  0  0  0  0  0  0  0  0  0  0
  147.9013  136.2092  160.9361 C   0  0  0  0  0  0  0  0  0  0  0  0
  148.5656  137.1859  160.2249 O   0  0  0  0  0  0  0  0  0  0  0  0
  149.1579  136.8360  158.9806 C   0  0  0  0  0  0  0  0  0  0  0  0
  150.4194  137.6892  158.7720 C   0  0  1  0  0  0  0  0  0  0  0  0
  151.4372  137.2055  159.6264 O   0  0  0  0  0  0  0  0  0  0  0  0
  150.9157  137.6325  157.3123 C   0  0  0  0  0  0  0  0  0  0  0  0
  150.8990  138.9330  156.6520 N   0  0  0  0  0  0  0  0  0  0  0  0
  150.7071  139.2093  155.3359 C   0  0  0  0  0  0  0  0  0  0  0  0
  150.4787  138.1415  154.3092 C   0  0  0  0  0  0  0  0  0  0  0  0
  149.3698  138.4050  153.4780 O   0  0  0  0  0  0  0  0  0  0  0  0
  150.7403  140.5004  155.0039 N   0  0  0  0  0  0  0  0  0  0  0  0
  150.9842  141.1205  156.2131 C   0  0  0  0  0  0  0  0  0  0  0  0
  151.1339  142.4900  156.5282 C   0  0  0  0  0  0  0  0  0  0  0  0
  151.3854  142.8935  157.8558 C   0  0  0  0  0  0  0  0  0  0  0  0
  151.4898  141.9356  158.8850 C   0  0  0  0  0  0  0  0  0  0  0  0
  151.3433  140.5660  158.5922 C   0  0  0  0  0  0  0  0  0  0  0  0
  151.0923  140.1680  157.2653 C   0  0  0  0  0  0  0  0  0  0  0  0
  147.6504  134.8989  160.4533 C   0  0  0  0  0  0  0  0  0  0  0  0
  144.8468  132.0899  161.8070 H   0  0  0  0  0  0  0  0  0  0  0  0
  146.3148  131.5017  162.6097 H   0  0  0  0  0  0  0  0  0  0  0  0
  145.7020  130.6822  161.1704 H   0  0  0  0  0  0  0  0  0  0  0  0
  145.9803  133.6325  163.1626 H   0  0  0  0  0  0  0  0  0  0  0  0
  146.4185  135.9085  164.0054 H   0  0  0  0  0  0  0  0  0  0  0  0
  147.6354  137.5521  162.6057 H   0  0  0  0  0  0  0  0  0  0  0  0
  149.3948  135.7716  158.9303 H   0  0  0  0  0  0  0  0  0  0  0  0
  148.4412  137.0568  158.1878 H   0  0  0  0  0  0  0  0  0  0  0  0
  150.2024  138.7229  159.0393 H   0  0  0  0  0  0  0  0  0  0  0  0
  152.2705  137.5083  159.2988 H   0  0  0  0  0  0  0  0  0  0  0  0
  151.9328  137.2400  157.2772 H   0  0  0  0  0  0  0  0  0  0  0  0
  150.3111  136.9344  156.7344 H   0  0  0  0  0  0  0  0  0  0  0  0
  151.3653  138.0552  153.6797 H   0  0  0  0  0  0  0  0  0  0  0  0
  150.3530  137.1748  154.7958 H   0  0  0  0  0  0  0  0  0  0  0  0
  149.3344  137.7415  152.8062 H   0  0  0  0  0  0  0  0  0  0  0  0
  151.0557  143.2310  155.7466 H   0  0  0  0  0  0  0  0  0  0  0  0
  151.4986  143.9429  158.0853 H   0  0  0  0  0  0  0  0  0  0  0  0
  151.6821  142.2527  159.8993 H   0  0  0  0  0  0  0  0  0  0  0  0
  151.4210  139.8300  159.3789 H   0  0  0  0  0  0  0  0  0  0  0  0
  147.9908  134.6163  159.4699 H   0  0  0  0  0  0  0  0  0  0  0  0
  1  2  1  0  0  0  0
  1 26  1  0  0  0  0
  1 27  1  0  0  0  0
  1 28  1  0  0  0  0
  2  3  2  0  0  0  0
  2  4  1  0  0  0  0
  4 25  1  0  0  0  0
  4  5  2  0  0  0  0
  5  6  1  0  0  0  0
  5 29  1  0  0  0  0
  6  7  2  0  0  0  0
  6 30  1  0  0  0  0
  7  8  1  0  0  0  0
  7 31  1  0  0  0  0
  8  9  1  0  0  0  0
  8 25  2  0  0  0  0
  9 10  1  0  0  0  0
 10 11  1  0  0  0  0
 10 32  1  0  0  0  0
 10 33  1  0  0  0  0
 11 12  1  0  0  0  0
 11 13  1  0  0  0  0
 11 34  1  0  0  0  0
 12 35  1  0  0  0  0
 13 14  1  0  0  0  0
 13 36  1  0  0  0  0
 13 37  1  0  0  0  0
 14 24  1  0  0  0  0
 14 15  1  0  0  0  0
 15 16  1  0  0  0  0
 15 18  2  0  0  0  0
 16 17  1  0  0  0  0
 16 38  1  0  0  0  0
 16 39  1  0  0  0  0
 17 40  1  0  0  0  0
 18 19  1  0  0  0  0
 19 24  2  0  0  0  0
 19 20  1  0  0  0  0
 20 21  2  0  0  0  0
 20 41  1  0  0  0  0
 21 22  1  0  0  0  0
 21 42  1  0  0  0  0
 22 23  2  0  0  0  0
 22 43  1  0  0  0  0
 23 24  1  0  0  0  0
 23 44  1  0  0  0  0
 25 45  1  0  0  0  0
M  END
> <s_m_source_file>
AV-unprocessed.smi

> <i_m_source_file_index>
1518

> <i_lp_mmshare_version>
43012

> <i_f3d_flags>
0

> <s_epik_input>
W0NIM11DKD1PKWMxW2NIXVtjSF1bY0hdYyhbY0hdMSlPW0NIMl1bQ0BIXShbT0hdKVtDSDJdbihjKG4yKVtDSDJdW09IXSljKGMyMylbY0hdW2NIXVtjSF1bY0hdMw==

> <s_epik_cmdline>
J2VwaWtfcHl0aG9uJywgJy1waCcsICc3LjAnLCAnLXRuJywgJzgnLCAnLW1hJywgJzIwMCcsICctbWV0YWxfYmluZGluZycsICctaW1hZScsICc8aW5maWxlLm1hZT4nLCAnLW9tYWUnLCAnPG91dGZpbGUubWFlPic=

> <r_lp_tautomer_probability>
0.99995

> <r_epik_Ionization_Penalty>
0.0583159

> <r_epik_Ionization_Penalty_Charging>
0

> <r_epik_Ionization_Penalty_Neutral>
0.0583159

> <r_epik_State_Penalty>
0.0503525

> <r_epik_Charging_Adjusted_Penalty>
0.0503525

> <i_epik_Tot_Q>
0

> <i_epik_Tot_abs_Q>
0

> <r_epik_Metal_State_Penalty>
5.25517e-05

> <b_epik_Metal_Only>
0

> <s_lp_Force_Field>
OPLS_2005

> <r_lp_Energy>
23.8716

> <b_lp_Chiralities_Consistent>
1

> <s_lp_Variant>
AV-unprocessed.smi:1518-2

> <Gold.Version>
5.8.1

> <Gold.Id.Protein>
6NUR|6NUR_protein|mol2

> <Gold.PLP.Fitness>
56.5340

> <Gold.PLP.PLP>
-49.1781

> <Gold.PLP.part.hbond>
-5.0000

> <Gold.PLP.part.metal>
0.0000

> <Gold.PLP.part.buried>
-7.6364

> <Gold.PLP.part.nonpolar>
-38.1455

> <Gold.PLP.part.repulsive>
0.0646

> <Gold.PLP.ligand.clash>
0.0000

> <Gold.PLP.ligand.torsion>
1.5876

> <Gold.PLP.Chemscore.Hbond>
3.4432

> <Gold.PLP.Chemscore.CHOScore>
0.0000

> <Gold.PLP.Chemscore.Metal>
0.0000

> <Gold.Chemscore.Hbonds>
donor molecule, donor type, donor heavy atom, donor atom, acceptor molecule, acceptor atom, score
      L1  H    17    40       P1  7948  1.00
      P1  H  6896  6908       L1    12  0.93
      P1  H  6931  6943       L1     9  0.44
      P1  H  6934  6947       L1     9  0.04
      P1  H  7989  7998       L1    18  1.00

> <Gold.PLP.Chemscore.Internal.Correction>
0.2014

> <Gold.Rescore>
     Score         DG    S(hbond)    S(metal)    S(lipo)     H(rot)  DE(clash)    DE(int)     intcor
     18.06     -20.22       2.83        0.00     116.38       3.25       0.01       2.14       ----

> <Gold.Chemscore.Fitness>
18.0630

> <Gold.Chemscore.DG>
-20.2177

> <Gold.Chemscore.ZeroCoef>
-5.4800

> <Gold.Chemscore.Hbond>
2.8253

> <Gold.Chemscore.Metal>
0.0000

> <Gold.Chemscore.Lipo>
116.3809

> <Gold.Chemscore.Internal_Hbond>
0.0000

> <Gold.Chemscore.DEClash>
0.0123

> <Gold.Chemscore.DEInternal>
2.1424

> <Gold.Chemscore.Rot>
3.2482

> <Gold.Chemscore.Internal.Correction>
   9.000000E+99

> <Gold.Chemscore.Hbonds>
donor molecule, donor type, donor heavy atom, donor atom, acceptor molecule, acceptor atom, score
      L1  H    17    40       P1  7948  0.93
      P1  H  6896  6908       L1    12  0.63
      P1  H  6931  6943       L1     9  0.04
      P1  H  6934  6947       L1     9  0.01
      P1  H  7989  7998       L1    18  0.88

> <Gold.Chemscore.Hbond.Weighted>
-9.4366

> <Gold.Chemscore.Metal.Weighted>
-0.0000

> <Gold.Chemscore.Lipo.Weighted>
-13.6166

> <Gold.Chemscore.Internal_Hbond.Weighted>
0.0000

> <Gold.Chemscore.DEClash.Weighted>
0.0123

> <Gold.Chemscore.DEInternal.Weighted>
2.1424

> <Gold.Chemscore.Rot.Weighted>
8.3155

> <Gold.Chemscore.Internal.Correction.Weighted>
   9.000000E+99

> <Gold.Protein.RotatedTorsions>
[ 6907 6896 6895 6894 ] final -122.74 input  -60.11 | X-H torsion
[ 7974 7965 7964 7962 ] final   30.03 input  175.53 | X-H torsion
[ 8008 7997 7996 7995 ] final  131.84 input   59.86 | X-H torsion
[ 10167 10162 10161 10158 ] final  -24.74 input  -65.29 | X-H torsion
[ 10718 10713 10712 10709 ] final  -57.39 input   66.30 | X-H torsion
[ 10763 10752 10751 10750 ] final   32.76 input  -60.55 | X-H torsion
[ 11005 11000 10999 10996 ] final   38.70 input  -57.11 | X-H torsion

> <Gold.Protein.ActiveResidues>
 VAL166  LYS551  ARG553  GLY616  TRP617  ASP618  TYR619  PRO620  LYS621  CYS622 
 ASP623  PHE694  ASN695  SER759  ASP760  ASP761  ALA762  ILE779  LEU786  VAL792 
 PHE793  MET794  SER795  GLU796  ALA797  LYS798  CYS799  TRP800  GLU811  SER814 

> <Gold.Protein.RotatedAtoms>
  150.8604  133.7652  159.2994 H   0  0  0  0  0  0  0  0  0  0  0  0  # atno 6907 bound_to 6896
  151.5296  135.1066  159.9909 H   0  0  0  0  0  0  0  0  0  0  0  0  # atno 6908 bound_to 6896
  152.4622  133.7802  159.6902 H   0  0  0  0  0  0  0  0  0  0  0  0  # atno 6909 bound_to 6896
  146.1636  139.6842  142.9016 H   0  0  0  0  0  0  0  0  0  0  0  0  # atno 7974 bound_to 7965
  156.2975  140.2561  156.2991 H   0  0  0  0  0  0  0  0  0  0  0  0  # atno 8008 bound_to 7997
  154.9435  140.0395  157.2127 H   0  0  0  0  0  0  0  0  0  0  0  0  # atno 8009 bound_to 7997
  154.8104  140.2843  155.5862 H   0  0  0  0  0  0  0  0  0  0  0  0  # atno 8010 bound_to 7997
  140.7288  143.4326  151.0778 H   0  0  0  0  0  0  0  0  0  0  0  0  # atno 10167 bound_to 10162
  156.1215  130.4166  150.0434 H   0  0  0  0  0  0  0  0  0  0  0  0  # atno 10718 bound_to 10713
  153.0246  135.6405  154.1405 H   0  0  0  0  0  0  0  0  0  0  0  0  # atno 10763 bound_to 10752
  154.1136  135.2851  155.3226 H   0  0  0  0  0  0  0  0  0  0  0  0  # atno 10764 bound_to 10752
  154.6314  135.5491  153.7747 H   0  0  0  0  0  0  0  0  0  0  0  0  # atno 10765 bound_to 10752
  140.2101  134.3766  155.8053 H   0  0  0  0  0  0  0  0  0  0  0  0  # atno 11005 bound_to 11000
  145.4525  141.0429  143.2796 LP  0  0  0  0  0  0  0  0  0  0  0  0  # atno 17320 bound_to 7965
  144.8061  139.6049  143.7050 LP  0  0  0  0  0  0  0  0  0  0  0  0  # atno 17321 bound_to 7965
  139.7985  143.8117  152.3160 LP  0  0  0  0  0  0  0  0  0  0  0  0  # atno 17342 bound_to 10162
  139.8126  144.7329  150.9678 LP  0  0  0  0  0  0  0  0  0  0  0  0  # atno 17343 bound_to 10162
  156.8371  130.9412  151.3634 LP  0  0  0  0  0  0  0  0  0  0  0  0  # atno 17370 bound_to 10713
  157.6398  130.8796  149.9426 LP  0  0  0  0  0  0  0  0  0  0  0  0  # atno 17371 bound_to 10713
  141.2226  133.7138  156.8403 LP  0  0  0  0  0  0  0  0  0  0  0  0  # atno 17394 bound_to 11000
  140.1960  134.8931  157.3115 LP  0  0  0  0  0  0  0  0  0  0  0  0  # atno 17395 bound_to 11000

$$$$
