AV-unprocessed.smi:2058|AV-procd|sdf|8344|dock7
  -GOLD-   2272011 13D 1   1.00000     0.00000
 Structure written by MMmdl.
 42 43  0  0  0  0  0  0  0  0  1 V2000
  144.7654  136.5736  153.1877 C   0  0  0  0  0  0  0  0  0  0  0  0
  145.5787  137.2807  152.0922 C   0  0  2  0  0  0  0  0  0  0  0  0
  145.6162  136.5090  150.7568 C   0  0  0  0  0  0  0  0  0  0  0  0
  146.1935  137.2837  149.7252 O   0  0  0  0  0  0  0  0  0  0  0  0
  146.9300  137.5720  152.5663 N   0  0  0  0  0  0  0  0  0  0  0  0
  147.2480  138.4675  153.5120 C   0  0  0  0  0  0  0  0  0  0  0  0
  146.4133  139.1404  154.1160 O   0  0  0  0  0  0  0  0  0  0  0  0
  148.5774  138.5130  153.7061 N   0  0  0  0  0  0  0  0  0  0  0  0
  149.3242  139.3380  154.5910 C   0  0  0  0  0  0  0  0  0  0  0  0
  148.8081  140.6129  154.8932 C   0  0  0  0  0  0  0  0  0  0  0  0
  149.5125  141.4510  155.7776 C   0  0  0  0  0  0  0  0  0  0  0  0
  150.7218  140.9901  156.3482 C   0  0  0  0  0  0  0  0  0  0  0  0
  151.4478  141.8150  157.2351 N   0  0  0  0  0  0  0  0  0  0  0  0
  151.7874  141.2051  158.5225 C   0  0  0  0  0  0  0  0  0  0  0  0
  152.8990  141.9945  159.2350 C   0  0  0  0  0  0  0  0  0  0  0  0
  152.5230  143.4773  159.3692 C   0  0  0  0  0  0  0  0  0  0  0  0
  152.1843  144.0599  157.9893 C   0  0  0  0  0  0  0  0  0  0  0  0
  151.0882  143.2346  157.2934 C   0  0  0  0  0  0  0  0  0  0  0  0
  151.2097  139.7563  156.0716 N   0  0  0  0  0  0  0  0  0  0  0  0
  150.5322  138.9558  155.2217 C   0  0  0  0  0  0  0  0  0  0  0  0
  143.7504  136.3666  152.8477 H   0  0  0  0  0  0  0  0  0  0  0  0
  144.6922  137.1940  154.0815 H   0  0  0  0  0  0  0  0  0  0  0  0
  145.2189  135.6260  153.4799 H   0  0  0  0  0  0  0  0  0  0  0  0
  145.0817  138.2335  151.9014 H   0  0  0  0  0  0  0  0  0  0  0  0
  146.2109  135.6025  150.8704 H   0  0  0  0  0  0  0  0  0  0  0  0
  144.6169  136.1928  150.4556 H   0  0  0  0  0  0  0  0  0  0  0  0
  145.5656  137.9350  149.4528 H   0  0  0  0  0  0  0  0  0  0  0  0
  147.6811  137.0637  152.1234 H   0  0  0  0  0  0  0  0  0  0  0  0
  149.1225  137.8498  153.1748 H   0  0  0  0  0  0  0  0  0  0  0  0
  147.8806  140.9497  154.4535 H   0  0  0  0  0  0  0  0  0  0  0  0
  149.1131  142.4249  156.0187 H   0  0  0  0  0  0  0  0  0  0  0  0
  150.8907  141.1861  159.1434 H   0  0  0  0  0  0  0  0  0  0  0  0
  152.1076  140.1704  158.4086 H   0  0  0  0  0  0  0  0  0  0  0  0
  153.0893  141.5660  160.2192 H   0  0  0  0  0  0  0  0  0  0  0  0
  153.8288  141.9030  158.6721 H   0  0  0  0  0  0  0  0  0  0  0  0
  151.6646  143.5814  160.0340 H   0  0  0  0  0  0  0  0  0  0  0  0
  153.3422  144.0348  159.8241 H   0  0  0  0  0  0  0  0  0  0  0  0
  151.8634  145.0969  158.0883 H   0  0  0  0  0  0  0  0  0  0  0  0
  153.0812  144.0709  157.3685 H   0  0  0  0  0  0  0  0  0  0  0  0
  150.9357  143.6261  156.2866 H   0  0  0  0  0  0  0  0  0  0  0  0
  150.1436  143.3426  157.8282 H   0  0  0  0  0  0  0  0  0  0  0  0
  150.9782  137.9853  155.0741 H   0  0  0  0  0  0  0  0  0  0  0  0
  1  2  1  0  0  0  0
  1 21  1  0  0  0  0
  1 22  1  0  0  0  0
  1 23  1  0  0  0  0
  2  3  1  0  0  0  0
  2  5  1  0  0  0  0
  2 24  1  0  0  0  0
  3  4  1  0  0  0  0
  3 25  1  0  0  0  0
  3 26  1  0  0  0  0
  4 27  1  0  0  0  0
  5  6  1  0  0  0  0
  5 28  1  0  0  0  0
  6  7  2  0  0  0  0
  6  8  1  0  0  0  0
  8  9  1  0  0  0  0
  8 29  1  0  0  0  0
  9 20  1  0  0  0  0
  9 10  2  0  0  0  0
 10 11  1  0  0  0  0
 10 30  1  0  0  0  0
 11 12  2  0  0  0  0
 11 31  1  0  0  0  0
 12 13  1  0  0  0  0
 12 19  1  0  0  0  0
 13 18  1  0  0  0  0
 13 14  1  0  0  0  0
 14 15  1  0  0  0  0
 14 32  1  0  0  0  0
 14 33  1  0  0  0  0
 15 16  1  0  0  0  0
 15 34  1  0  0  0  0
 15 35  1  0  0  0  0
 16 17  1  0  0  0  0
 16 36  1  0  0  0  0
 16 37  1  0  0  0  0
 17 18  1  0  0  0  0
 17 38  1  0  0  0  0
 17 39  1  0  0  0  0
 18 40  1  0  0  0  0
 18 41  1  0  0  0  0
 19 20  2  0  0  0  0
 20 42  1  0  0  0  0
M  END
> <s_m_source_file>
AV-unprocessed.smi

> <i_m_source_file_index>
2058

> <i_lp_mmshare_version>
43012

> <i_f3d_flags>
0

> <s_epik_input>
W09IXVtDSDJdW0NAQEhdKFtDSDNdKVtOSF1DKD1PKVtOSF1jMVtjSF1bY0hdYyhuW2NIXTEpTjJbQ0gyXVtDSDJdW0NIMl1bQ0gyXVtDSDJdMg==

> <s_epik_cmdline>
J2VwaWtfcHl0aG9uJywgJy1waCcsICc3LjAnLCAnLXRuJywgJzgnLCAnLW1hJywgJzIwMCcsICctbWV0YWxfYmluZGluZycsICctaW1hZScsICc8aW5maWxlLm1hZT4nLCAnLW9tYWUnLCAnPG91dGZpbGUubWFlPic=

> <r_lp_tautomer_probability>
1

> <r_epik_Ionization_Penalty>
0.104828

> <r_epik_Ionization_Penalty_Charging>
0

> <r_epik_Ionization_Penalty_Neutral>
0.104828

> <r_epik_State_Penalty>
0.0887547

> <r_epik_Charging_Adjusted_Penalty>
0.0887547

> <i_epik_Tot_Q>
0

> <i_epik_Tot_abs_Q>
0

> <r_epik_Metal_State_Penalty>
0.0759464

> <b_epik_Metal_Only>
0

> <s_lp_Force_Field>
OPLS_2005

> <r_lp_Energy>
20.4208

> <b_lp_Chiralities_Consistent>
1

> <s_lp_Variant>
AV-unprocessed.smi:2058-1

> <Gold.Version>
5.8.1

> <Gold.Id.Protein>
6NUR|6NUR_protein|mol2

> <Gold.PLP.Fitness>
43.8155

> <Gold.PLP.PLP>
-34.8996

> <Gold.PLP.part.hbond>
-4.8937

> <Gold.PLP.part.metal>
0.0000

> <Gold.PLP.part.buried>
-0.2730

> <Gold.PLP.part.nonpolar>
-31.5711

> <Gold.PLP.part.repulsive>
0.2528

> <Gold.PLP.ligand.clash>
0.0000

> <Gold.PLP.ligand.torsion>
0.5843

> <Gold.PLP.Chemscore.Hbond>
3.2094

> <Gold.PLP.Chemscore.CHOScore>
0.0000

> <Gold.PLP.Chemscore.Metal>
0.0000

> <Gold.Chemscore.Hbonds>
donor molecule, donor type, donor heavy atom, donor atom, acceptor molecule, acceptor atom, score
      L1  H     4    27       P1 10171  0.90
      L1  H     5    28       P1  7948  0.99
      L1  H     8    29       P1  7948  0.80
      P1  H  7954  7966       L1     4  0.46

> <Gold.PLP.Chemscore.Internal.Correction>
0.4563

> <Gold.Rescore>
     Score         DG    S(hbond)    S(metal)    S(lipo)     H(rot)  DE(clash)    DE(int)     intcor
     19.03     -21.59       3.10        0.00      93.86       2.05       0.63       1.94       ----

> <Gold.Chemscore.Fitness>
19.0300

> <Gold.Chemscore.DG>
-21.5923

> <Gold.Chemscore.ZeroCoef>
-5.4800

> <Gold.Chemscore.Hbond>
3.1037

> <Gold.Chemscore.Metal>
0.0000

> <Gold.Chemscore.Lipo>
93.8639

> <Gold.Chemscore.Internal_Hbond>
0.0000

> <Gold.Chemscore.DEClash>
0.6259

> <Gold.Chemscore.DEInternal>
1.9364

> <Gold.Chemscore.Rot>
2.0453

> <Gold.Chemscore.Internal.Correction>
   9.000000E+99

> <Gold.Chemscore.Hbonds>
donor molecule, donor type, donor heavy atom, donor atom, acceptor molecule, acceptor atom, score
      L1  H     4    27       P1 10171  0.87
      L1  H     5    28       P1  7948  0.92
      L1  H     8    29       P1  7948  0.76
      P1  H  7954  7966       L1     4  0.40

> <Gold.Chemscore.Hbond.Weighted>
-10.3662

> <Gold.Chemscore.Metal.Weighted>
-0.0000

> <Gold.Chemscore.Lipo.Weighted>
-10.9821

> <Gold.Chemscore.Internal_Hbond.Weighted>
0.0000

> <Gold.Chemscore.DEClash.Weighted>
0.6259

> <Gold.Chemscore.DEInternal.Weighted>
1.9364

> <Gold.Chemscore.Rot.Weighted>
5.2360

> <Gold.Chemscore.Internal.Correction.Weighted>
   9.000000E+99

> <Gold.Protein.RotatedTorsions>
[ 6907 6896 6895 6894 ] final  162.44 input  -60.11 | X-H torsion
[ 7974 7965 7964 7962 ] final  -84.75 input  175.53 | X-H torsion
[ 8008 7997 7996 7995 ] final   27.71 input   59.86 | X-H torsion
[ 10167 10162 10161 10158 ] final   59.43 input  -65.29 | X-H torsion
[ 10718 10713 10712 10709 ] final  -64.18 input   66.30 | X-H torsion
[ 10763 10752 10751 10750 ] final -148.56 input  -60.55 | X-H torsion
[ 11005 11000 10999 10996 ] final  -49.11 input  -57.11 | X-H torsion

> <Gold.Protein.ActiveResidues>
 VAL166  LYS551  ARG553  GLY616  TRP617  ASP618  TYR619  PRO620  LYS621  CYS622 
 ASP623  PHE694  ASN695  SER759  ASP760  ASP761  ALA762  ILE779  LEU786  VAL792 
 PHE793  MET794  SER795  GLU796  ALA797  LYS798  CYS799  TRP800  GLU811  SER814 

> <Gold.Protein.RotatedAtoms>
  151.9404  133.3636  159.3962 H   0  0  0  0  0  0  0  0  0  0  0  0  # atno 6907 bound_to 6896
  150.6999  134.4445  159.5317 H   0  0  0  0  0  0  0  0  0  0  0  0  # atno 6908 bound_to 6896
  152.2101  134.8509  160.0549 H   0  0  0  0  0  0  0  0  0  0  0  0  # atno 6909 bound_to 6896
  145.5024  140.9546  143.1752 H   0  0  0  0  0  0  0  0  0  0  0  0  # atno 7974 bound_to 7965
  155.0473  140.3176  155.4704 H   0  0  0  0  0  0  0  0  0  0  0  0  # atno 8008 bound_to 7997
  156.2842  140.2152  156.5541 H   0  0  0  0  0  0  0  0  0  0  0  0  # atno 8009 bound_to 7997
  154.7240  140.0487  157.0653 H   0  0  0  0  0  0  0  0  0  0  0  0  # atno 8010 bound_to 7997
  140.1765  144.4225  150.6636 H   0  0  0  0  0  0  0  0  0  0  0  0  # atno 10167 bound_to 10162
  156.0745  130.4230  150.1383 H   0  0  0  0  0  0  0  0  0  0  0  0  # atno 10718 bound_to 10713
  154.8226  135.3331  154.6992 H   0  0  0  0  0  0  0  0  0  0  0  0  # atno 10763 bound_to 10752
  153.7623  135.6931  153.4927 H   0  0  0  0  0  0  0  0  0  0  0  0  # atno 10764 bound_to 10752
  153.2102  135.4485  155.0319 H   0  0  0  0  0  0  0  0  0  0  0  0  # atno 10765 bound_to 10752
  141.0740  133.6671  156.3539 H   0  0  0  0  0  0  0  0  0  0  0  0  # atno 11005 bound_to 11000
  144.7772  139.6603  143.7169 LP  0  0  0  0  0  0  0  0  0  0  0  0  # atno 17320 bound_to 7965
  146.2217  139.5649  142.9614 LP  0  0  0  0  0  0  0  0  0  0  0  0  # atno 17321 bound_to 7965
  140.6548  143.2234  151.5994 LP  0  0  0  0  0  0  0  0  0  0  0  0  # atno 17342 bound_to 10162
  139.5315  144.2903  152.1157 LP  0  0  0  0  0  0  0  0  0  0  0  0  # atno 17343 bound_to 10162
  156.9427  130.9749  151.3513 LP  0  0  0  0  0  0  0  0  0  0  0  0  # atno 17370 bound_to 10713
  157.5833  130.8392  149.8554 LP  0  0  0  0  0  0  0  0  0  0  0  0  # atno 17371 bound_to 10713
  140.5612  134.5932  157.5434 LP  0  0  0  0  0  0  0  0  0  0  0  0  # atno 17394 bound_to 11000
  139.9553  134.7546  156.0356 LP  0  0  0  0  0  0  0  0  0  0  0  0  # atno 17395 bound_to 11000

$$$$
