AV-unprocessed.smi:3232|AV-procd|sdf|12345|dock1
  -GOLD-   2272018203D 1   1.00000     0.00000
 Structure written by MMmdl.
 40 41  0  0  0  0  0  0  0  0  2 V2000
  149.3703  134.3931  154.7164 C   0  0  0  0  0  0  0  0  0  0  0  0
  150.5945  135.3146  154.8086 C   0  0  0  0  0  0  0  0  0  0  0  0
  150.2564  136.7308  154.5203 N   0  3  2  0  0  0  0  0  0  0  0  0
  151.4209  137.5989  154.2326 C   0  0  0  0  0  0  0  0  0  0  0  0
  151.0171  139.0231  154.6401 C   0  0  0  0  0  0  0  0  0  0  0  0
  149.5435  138.9161  155.0298 C   0  0  0  0  0  0  0  0  0  0  0  0
  149.3870  137.4575  155.4802 C   0  0  2  0  0  0  0  0  0  0  0  0
  149.7776  137.2219  156.9635 C   0  0  0  0  0  0  0  0  0  0  0  0
  148.7089  136.5655  157.7095 N   0  0  0  0  0  0  0  0  0  0  0  0
  148.7666  136.2140  159.0047 C   0  0  0  0  0  0  0  0  0  0  0  0
  149.7746  136.3629  159.6964 O   0  0  0  0  0  0  0  0  0  0  0  0
  147.4771  135.6317  159.6065 C   0  0  1  0  0  0  0  0  0  0  0  0
  147.1389  134.2280  159.0661 C   0  0  0  0  0  0  0  0  0  0  0  0
  147.5510  135.6458  161.0627 N   0  0  0  0  0  0  0  0  0  0  0  0
  147.3698  134.6582  161.9421 C   0  0  0  0  0  0  0  0  0  0  0  0
  147.4717  135.0392  163.2076 N   0  0  0  0  0  0  0  0  0  0  0  0
  147.7344  136.3674  163.0263 C   0  0  0  0  0  0  0  0  0  0  0  0
  147.7843  136.7849  161.7617 N   0  0  0  0  0  0  0  0  0  0  0  0
  149.6589  133.3535  154.8731 H   0  0  0  0  0  0  0  0  0  0  0  0
  148.8999  134.4610  153.7349 H   0  0  0  0  0  0  0  0  0  0  0  0
  148.6187  134.6395  155.4662 H   0  0  0  0  0  0  0  0  0  0  0  0
  151.0828  135.2182  155.7785 H   0  0  0  0  0  0  0  0  0  0  0  0
  151.3268  134.9861  154.0700 H   0  0  0  0  0  0  0  0  0  0  0  0
  152.2933  137.2809  154.8058 H   0  0  0  0  0  0  0  0  0  0  0  0
  151.6754  137.5359  153.1742 H   0  0  0  0  0  0  0  0  0  0  0  0
  151.6063  139.3434  155.5004 H   0  0  0  0  0  0  0  0  0  0  0  0
  151.1783  139.7479  153.8416 H   0  0  0  0  0  0  0  0  0  0  0  0
  149.2449  139.6575  155.7700 H   0  0  0  0  0  0  0  0  0  0  0  0
  148.9269  139.0860  154.1461 H   0  0  0  0  0  0  0  0  0  0  0  0
  148.3535  137.1389  155.3378 H   0  0  0  0  0  0  0  0  0  0  0  0
  150.6415  136.5611  157.0288 H   0  0  0  0  0  0  0  0  0  0  0  0
  150.0764  138.1576  157.4390 H   0  0  0  0  0  0  0  0  0  0  0  0
  147.8437  136.4016  157.2154 H   0  0  0  0  0  0  0  0  0  0  0  0
  146.6611  136.2963  159.3179 H   0  0  0  0  0  0  0  0  0  0  0  0
  147.0330  134.2386  157.9805 H   0  0  0  0  0  0  0  0  0  0  0  0
  146.1965  133.8698  159.4812 H   0  0  0  0  0  0  0  0  0  0  0  0
  147.9081  133.4962  159.3168 H   0  0  0  0  0  0  0  0  0  0  0  0
  147.1536  133.6407  161.6509 H   0  0  0  0  0  0  0  0  0  0  0  0
  147.8862  137.0483  163.8506 H   0  0  0  0  0  0  0  0  0  0  0  0
  149.7305  136.7184  153.6580 H   0  0  0  0  0  0  0  0  0  0  0  0
  1  2  1  0  0  0  0
  1 19  1  0  0  0  0
  1 20  1  0  0  0  0
  1 21  1  0  0  0  0
  2  3  1  0  0  0  0
  2 22  1  0  0  0  0
  2 23  1  0  0  0  0
  3  7  1  0  0  0  0
  3  4  1  0  0  0  0
  3 40  1  0  0  0  0
  4  5  1  0  0  0  0
  4 24  1  0  0  0  0
  4 25  1  0  0  0  0
  5  6  1  0  0  0  0
  5 26  1  0  0  0  0
  5 27  1  0  0  0  0
  6  7  1  0  0  0  0
  6 28  1  0  0  0  0
  6 29  1  0  0  0  0
  7  8  1  0  0  0  0
  7 30  1  0  0  0  0
  8  9  1  0  0  0  0
  8 31  1  0  0  0  0
  8 32  1  0  0  0  0
  9 10  1  0  0  0  0
  9 33  1  0  0  0  0
 10 11  2  0  0  0  0
 10 12  1  0  0  0  0
 12 13  1  0  0  0  0
 12 14  1  0  0  0  0
 12 34  1  0  0  0  0
 13 35  1  0  0  0  0
 13 36  1  0  0  0  0
 13 37  1  0  0  0  0
 14 18  1  0  0  0  0
 14 15  1  0  0  0  0
 15 16  2  0  0  0  0
 15 38  1  0  0  0  0
 16 17  1  0  0  0  0
 17 18  2  0  0  0  0
 17 39  1  0  0  0  0
M  CHG  1   3   1
M  END
> <s_m_source_file>
AV-unprocessed.smi

> <i_m_source_file_index>
3232

> <i_lp_mmshare_version>
43012

> <i_f3d_flags>
0

> <s_epik_input>
W0NIM11bQ0gyXU4xW0NIMl1bQ0gyXVtDSDJdW0NASF0xW0NIMl1bTkhdQyg9TylbQ0BIXShbQ0gzXSluMltjSF1uW2NIXW4y

> <s_epik_cmdline>
J2VwaWtfcHl0aG9uJywgJy1waCcsICc3LjAnLCAnLXRuJywgJzgnLCAnLW1hJywgJzIwMCcsICctbWV0YWxfYmluZGluZycsICctaW1hZScsICc8aW5maWxlLm1hZT4nLCAnLW9tYWUnLCAnPG91dGZpbGUubWFlPic=

> <r_lp_tautomer_probability>
1

> <r_epik_Ionization_Penalty>
0.00177695

> <r_epik_Ionization_Penalty_Charging>
0.00176881

> <r_epik_Ionization_Penalty_Neutral>
8.13528e-06

> <r_epik_State_Penalty>
0.00119827

> <r_epik_Charging_Adjusted_Penalty>
0.00296709

> <i_epik_Tot_Q>
1

> <i_epik_Tot_abs_Q>
1

> <r_epik_Metal_State_Penalty>
-0

> <b_epik_Metal_Only>
0

> <s_lp_Force_Field>
OPLS_2005

> <r_lp_Energy>
36.5981

> <b_lp_Chiralities_Consistent>
1

> <s_lp_Variant>
AV-unprocessed.smi:3232-7

> <Gold.Version>
5.8.1

> <Gold.Id.Protein>
6NUR|6NUR_protein|mol2

> <Gold.PLP.Fitness>
41.9401

> <Gold.PLP.PLP>
-30.9266

> <Gold.PLP.part.hbond>
-3.9881

> <Gold.PLP.part.metal>
0.0000

> <Gold.PLP.part.buried>
-4.4908

> <Gold.PLP.part.nonpolar>
-23.9522

> <Gold.PLP.part.repulsive>
0.1022

> <Gold.PLP.ligand.clash>
0.0000

> <Gold.PLP.ligand.torsion>
1.1227

> <Gold.PLP.Chemscore.Hbond>
4.2968

> <Gold.PLP.Chemscore.CHOScore>
0.0000

> <Gold.PLP.Chemscore.Metal>
0.0000

> <Gold.Chemscore.Hbonds>
donor molecule, donor type, donor heavy atom, donor atom, acceptor molecule, acceptor atom, score
      L1  H     3    40       P1  7948  2.00
      P1  H  6896  6909       L1    11  1.00
      P1  H  6931  6943       L1    18  1.00

> <Gold.PLP.Chemscore.Internal.Correction>
0.3683

> <Gold.Rescore>
     Score         DG    S(hbond)    S(metal)    S(lipo)     H(rot)  DE(clash)    DE(int)     intcor
      9.77     -12.32       2.55        0.00      40.17       2.49       0.12       2.43       ----

> <Gold.Chemscore.Fitness>
9.7740

> <Gold.Chemscore.DG>
-12.3155

> <Gold.Chemscore.ZeroCoef>
-5.4800

> <Gold.Chemscore.Hbond>
2.5464

> <Gold.Chemscore.Metal>
0.0000

> <Gold.Chemscore.Lipo>
40.1739

> <Gold.Chemscore.Internal_Hbond>
0.0000

> <Gold.Chemscore.DEClash>
0.1151

> <Gold.Chemscore.DEInternal>
2.4264

> <Gold.Chemscore.Rot>
2.4882

> <Gold.Chemscore.Internal.Correction>
   9.000000E+99

> <Gold.Chemscore.Hbonds>
donor molecule, donor type, donor heavy atom, donor atom, acceptor molecule, acceptor atom, score
      L1  H     3    40       P1  7948  0.54
      P1  H  6896  6909       L1    11  0.91
      P1  H  6931  6943       L1    18  0.30
      P1  H  6934  6947       L1    18  0.03

> <Gold.Chemscore.Hbond.Weighted>
-8.5049

> <Gold.Chemscore.Metal.Weighted>
-0.0000

> <Gold.Chemscore.Lipo.Weighted>
-4.7003

> <Gold.Chemscore.Internal_Hbond.Weighted>
0.0000

> <Gold.Chemscore.DEClash.Weighted>
0.1151

> <Gold.Chemscore.DEInternal.Weighted>
2.4264

> <Gold.Chemscore.Rot.Weighted>
6.3697

> <Gold.Chemscore.Internal.Correction.Weighted>
   9.000000E+99

> <Gold.Protein.RotatedTorsions>
[ 6907 6896 6895 6894 ] final   74.54 input  -60.11 | X-H torsion
[ 7974 7965 7964 7962 ] final  163.87 input  175.53 | X-H torsion
[ 8008 7997 7996 7995 ] final  -14.86 input   59.86 | X-H torsion
[ 10167 10162 10161 10158 ] final  -21.63 input  -65.29 | X-H torsion
[ 10718 10713 10712 10709 ] final   95.66 input   66.30 | X-H torsion
[ 10763 10752 10751 10750 ] final  156.81 input  -60.55 | X-H torsion
[ 11005 11000 10999 10996 ] final   46.83 input  -57.11 | X-H torsion

> <Gold.Protein.ActiveResidues>
 VAL166  LYS551  ARG553  GLY616  TRP617  ASP618  TYR619  PRO620  LYS621  CYS622 
 ASP623  PHE694  ASN695  SER759  ASP760  ASP761  ALA762  ILE779  LEU786  VAL792 
 PHE793  MET794  SER795  GLU796  ALA797  LYS798  CYS799  TRP800  GLU811  SER814 

> <Gold.Protein.RotatedAtoms>
  152.4981  134.4255  159.9494 H   0  0  0  0  0  0  0  0  0  0  0  0  # atno 6907 bound_to 6896
  151.4231  133.3686  159.2766 H   0  0  0  0  0  0  0  0  0  0  0  0  # atno 6908 bound_to 6896
  150.9208  134.8649  159.7547 H   0  0  0  0  0  0  0  0  0  0  0  0  # atno 6909 bound_to 6896
  144.7570  139.8244  143.6346 H   0  0  0  0  0  0  0  0  0  0  0  0  # atno 7974 bound_to 7965
  154.5176  140.2212  155.9036 H   0  0  0  0  0  0  0  0  0  0  0  0  # atno 8008 bound_to 7997
  156.1626  140.3139  155.8798 H   0  0  0  0  0  0  0  0  0  0  0  0  # atno 8009 bound_to 7997
  155.3721  140.0467  157.3036 H   0  0  0  0  0  0  0  0  0  0  0  0  # atno 8010 bound_to 7997
  140.7283  143.4610  151.0380 H   0  0  0  0  0  0  0  0  0  0  0  0  # atno 10167 bound_to 10162
  157.6936  131.0553  150.4373 H   0  0  0  0  0  0  0  0  0  0  0  0  # atno 10718 bound_to 10713
  154.1902  135.2795  155.3024 H   0  0  0  0  0  0  0  0  0  0  0  0  # atno 10763 bound_to 10752
  154.5935  135.5552  153.7305 H   0  0  0  0  0  0  0  0  0  0  0  0  # atno 10764 bound_to 10752
  153.0114  135.6374  154.2040 H   0  0  0  0  0  0  0  0  0  0  0  0  # atno 10765 bound_to 10752
  140.1334  134.4676  155.8504 H   0  0  0  0  0  0  0  0  0  0  0  0  # atno 11005 bound_to 11000
  146.1592  139.4700  142.9999 LP  0  0  0  0  0  0  0  0  0  0  0  0  # atno 17320 bound_to 7965
  145.6745  141.0208  143.1640 LP  0  0  0  0  0  0  0  0  0  0  0  0  # atno 17321 bound_to 7965
  139.8294  143.7711  152.3179 LP  0  0  0  0  0  0  0  0  0  0  0  0  # atno 17342 bound_to 10162
  139.7821  144.7440  151.0073 LP  0  0  0  0  0  0  0  0  0  0  0  0  # atno 17343 bound_to 10162
  156.4735  130.4058  149.6504 LP  0  0  0  0  0  0  0  0  0  0  0  0  # atno 17370 bound_to 10713
  156.3576  130.7464  151.2432 LP  0  0  0  0  0  0  0  0  0  0  0  0  # atno 17371 bound_to 10713
  141.2174  133.6804  156.7112 LP  0  0  0  0  0  0  0  0  0  0  0  0  # atno 17394 bound_to 11000
  140.2813  134.8314  157.3936 LP  0  0  0  0  0  0  0  0  0  0  0  0  # atno 17395 bound_to 11000

$$$$
