AV-unprocessed.smi:95|AV-procd|sdf|856|dock2
  -GOLD-   2262017303D 1   1.00000     0.00000
 Structure written by MMmdl.
 41 44  0  0  0  0  0  0  0  0  1 V2000
  152.9140  139.6391  156.1052 O   0  0  0  0  0  0  0  0  0  0  0  0
  152.2089  138.6355  156.2258 C   0  0  0  0  0  0  0  0  0  0  0  0
  151.7779  137.8150  155.0993 C   0  0  0  0  0  0  0  0  0  0  0  0
  152.1421  138.1558  153.8515 F   0  0  0  0  0  0  0  0  0  0  0  0
  151.0188  136.7136  155.2875 C   0  0  0  0  0  0  0  0  0  0  0  0
  150.5993  136.2891  156.5382 N   0  0  0  0  0  0  0  0  0  0  0  0
  149.7659  135.0384  156.7268 C   0  0  1  0  0  0  0  0  0  0  0  0
  149.2831  134.4967  155.3670 C   0  0  0  0  0  0  0  0  0  0  0  0
  149.7117  133.0435  155.4128 C   0  0  0  0  0  0  0  0  0  0  0  0
  150.9365  133.1040  156.3128 C   0  0  0  0  0  0  0  0  0  0  0  0
  150.5416  134.0323  157.3139 O   0  0  0  0  0  0  0  0  0  0  0  0
  150.9791  137.0175  157.6870 C   0  0  0  0  0  0  0  0  0  0  0  0
  150.6423  136.6382  158.8112 O   0  0  0  0  0  0  0  0  0  0  0  0
  151.7606  138.1808  157.4894 N   0  0  0  0  0  0  0  0  0  0  0  0
  152.1889  138.9356  158.6578 C   0  0  0  0  0  0  0  0  0  0  0  0
  151.7867  140.4061  158.6769 C   0  0  0  0  0  0  0  0  0  0  0  0
  150.9083  140.9053  157.6947 C   0  0  0  0  0  0  0  0  0  0  0  0
  150.5447  142.2630  157.7464 C   0  0  0  0  0  0  0  0  0  0  0  0
  151.0673  143.0687  158.7783 C   0  0  0  0  0  0  0  0  0  0  0  0
  150.7221  144.4337  158.8569 C   0  0  0  0  0  0  0  0  0  0  0  0
  151.2472  145.2331  159.8887 C   0  0  0  0  0  0  0  0  0  0  0  0
  152.1154  144.6671  160.8399 C   0  0  0  0  0  0  0  0  0  0  0  0
  152.4577  143.3031  160.7595 C   0  0  0  0  0  0  0  0  0  0  0  0
  151.9432  142.4827  159.7331 C   0  0  0  0  0  0  0  0  0  0  0  0
  152.2837  141.1755  159.6731 N   0  0  0  0  0  0  0  0  0  0  0  0
  150.7411  136.1518  154.4091 H   0  0  0  0  0  0  0  0  0  0  0  0
  148.9610  135.3208  157.4080 H   0  0  0  0  0  0  0  0  0  0  0  0
  148.2059  134.6241  155.2551 H   0  0  0  0  0  0  0  0  0  0  0  0
  149.7881  135.0162  154.5511 H   0  0  0  0  0  0  0  0  0  0  0  0
  148.9345  132.4372  155.8798 H   0  0  0  0  0  0  0  0  0  0  0  0
  149.9251  132.6290  154.4272 H   0  0  0  0  0  0  0  0  0  0  0  0
  151.1959  132.1361  156.7417 H   0  0  0  0  0  0  0  0  0  0  0  0
  151.8015  133.4832  155.7669 H   0  0  0  0  0  0  0  0  0  0  0  0
  151.7916  138.4148  159.5312 H   0  0  0  0  0  0  0  0  0  0  0  0
  153.2711  138.8448  158.7550 H   0  0  0  0  0  0  0  0  0  0  0  0
  150.5222  140.2633  156.9165 H   0  0  0  0  0  0  0  0  0  0  0  0
  149.8756  142.6751  157.0053 H   0  0  0  0  0  0  0  0  0  0  0  0
  150.0554  144.8717  158.1283 H   0  0  0  0  0  0  0  0  0  0  0  0
  150.9843  146.2790  159.9503 H   0  0  0  0  0  0  0  0  0  0  0  0
  152.5198  145.2790  161.6327 H   0  0  0  0  0  0  0  0  0  0  0  0
  153.1254  142.8814  161.4965 H   0  0  0  0  0  0  0  0  0  0  0  0
  1  2  2  0  0  0  0
  2 14  1  0  0  0  0
  2  3  1  0  0  0  0
  3  4  1  0  0  0  0
  3  5  2  0  0  0  0
  5  6  1  0  0  0  0
  5 26  1  0  0  0  0
  6  7  1  0  0  0  0
  6 12  1  0  0  0  0
  7 11  1  0  0  0  0
  7  8  1  0  0  0  0
  7 27  1  0  0  0  0
  8  9  1  0  0  0  0
  8 28  1  0  0  0  0
  8 29  1  0  0  0  0
  9 10  1  0  0  0  0
  9 30  1  0  0  0  0
  9 31  1  0  0  0  0
 10 11  1  0  0  0  0
 10 32  1  0  0  0  0
 10 33  1  0  0  0  0
 12 13  2  0  0  0  0
 12 14  1  0  0  0  0
 14 15  1  0  0  0  0
 15 16  1  0  0  0  0
 15 34  1  0  0  0  0
 15 35  1  0  0  0  0
 16 25  1  0  0  0  0
 16 17  2  0  0  0  0
 17 18  1  0  0  0  0
 17 36  1  0  0  0  0
 18 19  2  0  0  0  0
 18 37  1  0  0  0  0
 19 24  1  0  0  0  0
 19 20  1  0  0  0  0
 20 21  2  0  0  0  0
 20 38  1  0  0  0  0
 21 22  1  0  0  0  0
 21 39  1  0  0  0  0
 22 23  2  0  0  0  0
 22 40  1  0  0  0  0
 23 24  1  0  0  0  0
 23 41  1  0  0  0  0
 24 25  2  0  0  0  0
M  END
> <s_m_source_file>
AV-unprocessed.smi

> <i_m_source_file_index>
95

> <i_lp_mmshare_version>
43012

> <i_f3d_flags>
0

> <s_epik_input>
TzFbQ0gyXVtDSDJdW0NIMl1bQ0BIXTFuKFtjSF1jKEYpYzI9TyljKD1PKW4yW0NIMl1jKFtjSF1bY0hdMyluYyhjMzQpW2NIXVtjSF1bY0hdW2NIXTQ=

> <s_epik_cmdline>
J2VwaWtfcHl0aG9uJywgJy1waCcsICc3LjAnLCAnLXRuJywgJzgnLCAnLW1hJywgJzIwMCcsICctbWV0YWxfYmluZGluZycsICctaW1hZScsICc8aW5maWxlLm1hZT4nLCAnLW9tYWUnLCAnPG91dGZpbGUubWFlPic=

> <r_lp_tautomer_probability>
1

> <r_epik_Ionization_Penalty>
0.0274176

> <r_epik_Ionization_Penalty_Charging>
1.11818e-08

> <r_epik_Ionization_Penalty_Neutral>
0.0274176

> <r_epik_State_Penalty>
0.0224396

> <r_epik_Charging_Adjusted_Penalty>
0.0224396

> <i_epik_Tot_Q>
0

> <i_epik_Tot_abs_Q>
0

> <r_epik_Metal_State_Penalty>
2.28695e-05

> <b_epik_Metal_Only>
0

> <s_epik_Chemistry_Notes>
This compound contains an acetal/aminal-like group ( X-CH(R)-Y where X, Y are N, S, or O) that may be acid/base labile, releasing an aldehyde.

> <s_lp_Force_Field>
OPLS_2005

> <r_lp_Energy>
34.6925

> <b_lp_Chiralities_Consistent>
1

> <s_lp_Variant>
AV-unprocessed.smi:95-2

> <Gold.Version>
5.8.1

> <Gold.Id.Protein>
6NUR|6NUR_protein|mol2

> <Gold.PLP.Fitness>
50.8748

> <Gold.PLP.PLP>
-43.5012

> <Gold.PLP.part.hbond>
-3.0000

> <Gold.PLP.part.metal>
0.0000

> <Gold.PLP.part.buried>
-8.6364

> <Gold.PLP.part.nonpolar>
-32.3213

> <Gold.PLP.part.repulsive>
0.0000

> <Gold.PLP.ligand.clash>
0.0000

> <Gold.PLP.ligand.torsion>
0.2476

> <Gold.PLP.Chemscore.Hbond>
2.6153

> <Gold.PLP.Chemscore.CHOScore>
0.0000

> <Gold.PLP.Chemscore.Metal>
0.0000

> <Gold.Chemscore.Hbonds>
donor molecule, donor type, donor heavy atom, donor atom, acceptor molecule, acceptor atom, score
      P1  H  6896  6908       L1    11  0.62
      P1  H  6896  6909       L1    13  0.99
      P1  H  7997  8010       L1     1  0.98

> <Gold.PLP.Chemscore.Internal.Correction>
0.0229

> <Gold.Rescore>
     Score         DG    S(hbond)    S(metal)    S(lipo)     H(rot)  DE(clash)    DE(int)     intcor
     21.05     -22.40       2.66        0.00     101.41       1.50       0.07       1.28       ----

> <Gold.Chemscore.Fitness>
21.0506

> <Gold.Chemscore.DG>
-22.3961

> <Gold.Chemscore.ZeroCoef>
-5.4800

> <Gold.Chemscore.Hbond>
2.6608

> <Gold.Chemscore.Metal>
0.0000

> <Gold.Chemscore.Lipo>
101.4130

> <Gold.Chemscore.Internal_Hbond>
0.0000

> <Gold.Chemscore.DEClash>
0.0654

> <Gold.Chemscore.DEInternal>
1.2801

> <Gold.Chemscore.Rot>
1.4985

> <Gold.Chemscore.Internal.Correction>
   9.000000E+99

> <Gold.Chemscore.Hbonds>
donor molecule, donor type, donor heavy atom, donor atom, acceptor molecule, acceptor atom, score
      P1  H  6896  6908       L1    11  0.56
      P1  H  6896  6909       L1    13  0.92
      P1  H  7997  8010       L1     1  0.91

> <Gold.Chemscore.Hbond.Weighted>
-8.8870

> <Gold.Chemscore.Metal.Weighted>
-0.0000

> <Gold.Chemscore.Lipo.Weighted>
-11.8653

> <Gold.Chemscore.Internal_Hbond.Weighted>
0.0000

> <Gold.Chemscore.DEClash.Weighted>
0.0654

> <Gold.Chemscore.DEInternal.Weighted>
1.2801

> <Gold.Chemscore.Rot.Weighted>
3.8362

> <Gold.Chemscore.Internal.Correction.Weighted>
   9.000000E+99

> <Gold.Protein.RotatedTorsions>
[ 6907 6896 6895 6894 ] final  100.32 input  -60.11 | X-H torsion
[ 7974 7965 7964 7962 ] final -105.99 input  175.53 | X-H torsion
[ 8008 7997 7996 7995 ] final   83.61 input   59.86 | X-H torsion
[ 10167 10162 10161 10158 ] final   -1.20 input  -65.29 | X-H torsion
[ 10718 10713 10712 10709 ] final   38.61 input   66.30 | X-H torsion
[ 10763 10752 10751 10750 ] final -103.70 input  -60.55 | X-H torsion
[ 11005 11000 10999 10996 ] final -125.42 input  -57.11 | X-H torsion

> <Gold.Protein.ActiveResidues>
 VAL166  LYS551  ARG553  GLY616  TRP617  ASP618  TYR619  PRO620  LYS621  CYS622 
 ASP623  PHE694  ASN695  SER759  ASP760  ASP761  ALA762  ILE779  LEU786  VAL792 
 PHE793  MET794  SER795  GLU796  ALA797  LYS798  CYS799  TRP800  GLU811  SER814 

> <Gold.Protein.RotatedAtoms>
  152.5374  134.0295  159.8017 H   0  0  0  0  0  0  0  0  0  0  0  0  # atno 6907 bound_to 6896
  151.0468  133.5651  159.2653 H   0  0  0  0  0  0  0  0  0  0  0  0  # atno 6908 bound_to 6896
  151.2600  135.0658  159.9148 H   0  0  0  0  0  0  0  0  0  0  0  0  # atno 6909 bound_to 6896
  145.2235  140.9143  143.3246 H   0  0  0  0  0  0  0  0  0  0  0  0  # atno 7974 bound_to 7965
  155.9262  140.3418  155.6212 H   0  0  0  0  0  0  0  0  0  0  0  0  # atno 8008 bound_to 7997
  155.7213  140.0784  157.2348 H   0  0  0  0  0  0  0  0  0  0  0  0  # atno 8009 bound_to 7997
  154.4077  140.1605  156.2393 H   0  0  0  0  0  0  0  0  0  0  0  0  # atno 8010 bound_to 7997
  140.6800  143.6804  150.8110 H   0  0  0  0  0  0  0  0  0  0  0  0  # atno 10167 bound_to 10162
  157.3608  130.7648  149.7046 H   0  0  0  0  0  0  0  0  0  0  0  0  # atno 10718 bound_to 10713
  154.7826  135.4814  153.9876 H   0  0  0  0  0  0  0  0  0  0  0  0  # atno 10763 bound_to 10752
  153.1515  135.6792  153.8883 H   0  0  0  0  0  0  0  0  0  0  0  0  # atno 10764 bound_to 10752
  153.8526  135.3165  155.3411 H   0  0  0  0  0  0  0  0  0  0  0  0  # atno 10765 bound_to 10752
  140.9763  134.0736  157.3815 H   0  0  0  0  0  0  0  0  0  0  0  0  # atno 11005 bound_to 11000
  144.9743  139.3848  143.6293 LP  0  0  0  0  0  0  0  0  0  0  0  0  # atno 17320 bound_to 7965
  146.3370  139.8855  142.8817 LP  0  0  0  0  0  0  0  0  0  0  0  0  # atno 17321 bound_to 7965
  140.0503  143.5256  152.2677 LP  0  0  0  0  0  0  0  0  0  0  0  0  # atno 17342 bound_to 10162
  139.6116  144.7610  151.2939 LP  0  0  0  0  0  0  0  0  0  0  0  0  # atno 17343 bound_to 10162
  155.9737  130.4114  150.3981 LP  0  0  0  0  0  0  0  0  0  0  0  0  # atno 17370 bound_to 10713
  157.2057  131.0448  151.2626 LP  0  0  0  0  0  0  0  0  0  0  0  0  # atno 17371 bound_to 10713
  139.8932  135.0129  156.6885 LP  0  0  0  0  0  0  0  0  0  0  0  0  # atno 17394 bound_to 11000
  140.7254  133.9105  155.8175 LP  0  0  0  0  0  0  0  0  0  0  0  0  # atno 17395 bound_to 11000

$$$$
