AV-unprocessed.smi:116|AV-procd|sdf|1128|dock2
  -GOLD-   2262018253D 1   1.00000     0.00000
 Structure written by MMmdl.
 38 41  0  0  0  0  0  0  0  0  1 V2000
  151.6287  137.9305  158.3195 O   0  0  0  0  0  0  0  0  0  0  0  0
  151.0527  138.4105  157.3419 C   0  0  0  0  0  0  0  0  0  0  0  0
  149.7497  137.9486  156.8762 C   0  0  0  0  0  0  0  0  0  0  0  0
  149.1380  136.9351  157.5123 F   0  0  0  0  0  0  0  0  0  0  0  0
  149.1456  138.5204  155.8127 C   0  0  0  0  0  0  0  0  0  0  0  0
  149.7035  139.5686  155.1007 N   0  0  0  0  0  0  0  0  0  0  0  0
  148.9894  140.1815  153.9166 C   0  0  1  0  0  0  0  0  0  0  0  0
  147.7336  139.3707  153.5776 C   0  0  0  0  0  0  0  0  0  0  0  0
  146.6595  140.1330  154.3225 C   0  0  0  0  0  0  0  0  0  0  0  0
  147.1583  141.5676  154.1940 C   0  0  0  0  0  0  0  0  0  0  0  0
  148.5794  141.4765  154.2511 O   0  0  0  0  0  0  0  0  0  0  0  0
  150.9733  140.0664  155.4660 C   0  0  0  0  0  0  0  0  0  0  0  0
  151.4965  140.9857  154.8321 O   0  0  0  0  0  0  0  0  0  0  0  0
  151.6100  139.4678  156.5800 N   0  0  0  0  0  0  0  0  0  0  0  0
  152.8972  140.0037  156.9952 C   0  0  0  0  0  0  0  0  0  0  0  0
  152.7147  141.2211  157.8502 C   0  0  0  0  0  0  0  0  0  0  0  0
  152.0034  142.2787  157.4379 N   0  0  0  0  0  0  0  0  0  0  0  0
  151.9857  143.2603  158.4243 C   0  0  0  0  0  0  0  0  0  0  0  0
  151.3330  144.5138  158.3646 C   0  0  0  0  0  0  0  0  0  0  0  0
  151.3949  145.4195  159.4424 C   0  0  0  0  0  0  0  0  0  0  0  0
  152.1143  145.0883  160.6063 C   0  0  0  0  0  0  0  0  0  0  0  0
  152.7737  143.8487  160.6930 C   0  0  0  0  0  0  0  0  0  0  0  0
  152.7081  142.9482  159.6136 C   0  0  0  0  0  0  0  0  0  0  0  0
  153.4335  141.3515  159.4618 S   0  0  0  0  0  0  0  0  0  0  0  0
  148.1845  138.1299  155.5133 H   0  0  0  0  0  0  0  0  0  0  0  0
  149.7196  140.2279  153.1072 H   0  0  0  0  0  0  0  0  0  0  0  0
  147.5646  139.4260  152.5016 H   0  0  0  0  0  0  0  0  0  0  0  0
  147.8213  138.3234  153.8692 H   0  0  0  0  0  0  0  0  0  0  0  0
  145.6629  139.9889  153.9046 H   0  0  0  0  0  0  0  0  0  0  0  0
  146.6382  139.8311  155.3702 H   0  0  0  0  0  0  0  0  0  0  0  0
  146.8730  141.9829  153.2265 H   0  0  0  0  0  0  0  0  0  0  0  0
  146.7671  142.2213  154.9738 H   0  0  0  0  0  0  0  0  0  0  0  0
  153.4478  139.2287  157.5301 H   0  0  0  0  0  0  0  0  0  0  0  0
  153.4837  140.2292  156.1029 H   0  0  0  0  0  0  0  0  0  0  0  0
  150.7775  144.7807  157.4778 H   0  0  0  0  0  0  0  0  0  0  0  0
  150.8885  146.3711  159.3751 H   0  0  0  0  0  0  0  0  0  0  0  0
  152.1601  145.7846  161.4307 H   0  0  0  0  0  0  0  0  0  0  0  0
  153.3274  143.5885  161.5829 H   0  0  0  0  0  0  0  0  0  0  0  0
  1  2  2  0  0  0  0
  2 14  1  0  0  0  0
  2  3  1  0  0  0  0
  3  4  1  0  0  0  0
  3  5  2  0  0  0  0
  5  6  1  0  0  0  0
  5 25  1  0  0  0  0
  6  7  1  0  0  0  0
  6 12  1  0  0  0  0
  7 11  1  0  0  0  0
  7  8  1  0  0  0  0
  7 26  1  0  0  0  0
  8  9  1  0  0  0  0
  8 27  1  0  0  0  0
  8 28  1  0  0  0  0
  9 10  1  0  0  0  0
  9 29  1  0  0  0  0
  9 30  1  0  0  0  0
 10 11  1  0  0  0  0
 10 31  1  0  0  0  0
 10 32  1  0  0  0  0
 12 13  2  0  0  0  0
 12 14  1  0  0  0  0
 14 15  1  0  0  0  0
 15 16  1  0  0  0  0
 15 33  1  0  0  0  0
 15 34  1  0  0  0  0
 16 24  1  0  0  0  0
 16 17  2  0  0  0  0
 17 18  1  0  0  0  0
 18 23  2  0  0  0  0
 18 19  1  0  0  0  0
 19 20  2  0  0  0  0
 19 35  1  0  0  0  0
 20 21  1  0  0  0  0
 20 36  1  0  0  0  0
 21 22  2  0  0  0  0
 21 37  1  0  0  0  0
 22 23  1  0  0  0  0
 22 38  1  0  0  0  0
 23 24  1  0  0  0  0
M  END
> <s_m_source_file>
AV-unprocessed.smi

> <i_m_source_file_index>
116

> <i_lp_mmshare_version>
43012

> <i_f3d_flags>
0

> <s_epik_input>
TzFbQ0gyXVtDSDJdW0NIMl1bQ0BIXTFuKFtjSF1jKEYpYzI9TyljKD1PKW4yW0NIMl1jKG4zKXNjKGMzNClbY0hdW2NIXVtjSF1bY0hdNA==

> <s_epik_cmdline>
J2VwaWtfcHl0aG9uJywgJy1waCcsICc3LjAnLCAnLXRuJywgJzgnLCAnLW1hJywgJzIwMCcsICctbWV0YWxfYmluZGluZycsICctaW1hZScsICc8aW5maWxlLm1hZT4nLCAnLW9tYWUnLCAnPG91dGZpbGUubWFlPic=

> <r_lp_tautomer_probability>
1

> <r_epik_Ionization_Penalty>
4.2492e-05

> <r_epik_Ionization_Penalty_Charging>
2.84664e-09

> <r_epik_Ionization_Penalty_Neutral>
4.24891e-05

> <r_epik_State_Penalty>
-0

> <r_epik_Charging_Adjusted_Penalty>
2.84664e-09

> <i_epik_Tot_Q>
0

> <i_epik_Tot_abs_Q>
0

> <r_epik_Metal_State_Penalty>
-0

> <b_epik_Metal_Only>
0

> <s_epik_Chemistry_Notes>
This compound contains an acetal/aminal-like group ( X-CH(R)-Y where X, Y are N, S, or O) that may be acid/base labile, releasing an aldehyde.

> <s_lp_Force_Field>
OPLS_2005

> <r_lp_Energy>
30.7685

> <b_lp_Chiralities_Consistent>
1

> <s_lp_Variant>
AV-unprocessed.smi:116-2

> <Gold.Version>
5.8.1

> <Gold.Id.Protein>
6NUR|6NUR_protein|mol2

> <Gold.PLP.Fitness>
45.6691

> <Gold.PLP.PLP>
-43.3926

> <Gold.PLP.part.hbond>
-2.5574

> <Gold.PLP.part.metal>
0.0000

> <Gold.PLP.part.buried>
-2.8483

> <Gold.PLP.part.nonpolar>
-37.0438

> <Gold.PLP.part.repulsive>
0.2039

> <Gold.PLP.ligand.clash>
0.0000

> <Gold.PLP.ligand.torsion>
0.4919

> <Gold.PLP.Chemscore.Hbond>
1.0812

> <Gold.PLP.Chemscore.CHOScore>
0.0000

> <Gold.PLP.Chemscore.Metal>
0.0000

> <Gold.Chemscore.Hbonds>
donor molecule, donor type, donor heavy atom, donor atom, acceptor molecule, acceptor atom, score
      P1  H  7989  7998       L1    13  0.29

> <Gold.PLP.Chemscore.Internal.Correction>
0.0166

> <Gold.Rescore>
     Score         DG    S(hbond)    S(metal)    S(lipo)     H(rot)  DE(clash)    DE(int)     intcor
     15.67     -17.47       0.96        0.00     108.20       1.52       0.09       1.72       ----

> <Gold.Chemscore.Fitness>
15.6665

> <Gold.Chemscore.DG>
-17.4748

> <Gold.Chemscore.ZeroCoef>
-5.4800

> <Gold.Chemscore.Hbond>
0.9639

> <Gold.Chemscore.Metal>
0.0000

> <Gold.Chemscore.Lipo>
108.2021

> <Gold.Chemscore.Internal_Hbond>
0.0000

> <Gold.Chemscore.DEClash>
0.0895

> <Gold.Chemscore.DEInternal>
1.7189

> <Gold.Chemscore.Rot>
1.5172

> <Gold.Chemscore.Internal.Correction>
   9.000000E+99

> <Gold.Chemscore.Hbonds>
donor molecule, donor type, donor heavy atom, donor atom, acceptor molecule, acceptor atom, score
      P1  H  7989  7998       L1    13  0.29

> <Gold.Chemscore.Hbond.Weighted>
-3.2193

> <Gold.Chemscore.Metal.Weighted>
-0.0000

> <Gold.Chemscore.Lipo.Weighted>
-12.6596

> <Gold.Chemscore.Internal_Hbond.Weighted>
0.0000

> <Gold.Chemscore.DEClash.Weighted>
0.0895

> <Gold.Chemscore.DEInternal.Weighted>
1.7189

> <Gold.Chemscore.Rot.Weighted>
3.8841

> <Gold.Chemscore.Internal.Correction.Weighted>
   9.000000E+99

> <Gold.Protein.RotatedTorsions>
[ 6907 6896 6895 6894 ] final -101.85 input  -60.11 | X-H torsion
[ 7974 7965 7964 7962 ] final  -36.90 input  175.53 | X-H torsion
[ 8008 7997 7996 7995 ] final   79.05 input   59.86 | X-H torsion
[ 10167 10162 10161 10158 ] final  -64.44 input  -65.29 | X-H torsion
[ 10718 10713 10712 10709 ] final   34.05 input   66.30 | X-H torsion
[ 10763 10752 10751 10750 ] final   54.06 input  -60.55 | X-H torsion
[ 11005 11000 10999 10996 ] final -146.76 input  -57.11 | X-H torsion

> <Gold.Protein.ActiveResidues>
 VAL166  LYS551  ARG553  GLY616  TRP617  ASP618  TYR619  PRO620  LYS621  CYS622 
 ASP623  PHE694  ASN695  SER759  ASP760  ASP761  ALA762  ILE779  LEU786  VAL792 
 PHE793  MET794  SER795  GLU796  ALA797  LYS798  CYS799  TRP800  GLU811  SER814 

> <Gold.Protein.RotatedAtoms>
  150.7171  134.0672  159.3851 H   0  0  0  0  0  0  0  0  0  0  0  0  # atno 6907 bound_to 6896
  151.8653  135.0507  160.0483 H   0  0  0  0  0  0  0  0  0  0  0  0  # atno 6908 bound_to 6896
  152.2685  133.5325  159.5461 H   0  0  0  0  0  0  0  0  0  0  0  0  # atno 6909 bound_to 6896
  146.0622  140.6332  142.8992 H   0  0  0  0  0  0  0  0  0  0  0  0  # atno 7974 bound_to 7965
  155.8643  140.3452  155.5778 H   0  0  0  0  0  0  0  0  0  0  0  0  # atno 8008 bound_to 7997
  155.7898  140.0870  157.2034 H   0  0  0  0  0  0  0  0  0  0  0  0  # atno 8009 bound_to 7997
  154.4013  140.1485  156.3137 H   0  0  0  0  0  0  0  0  0  0  0  0  # atno 8010 bound_to 7997
  140.5801  143.2326  151.6361 H   0  0  0  0  0  0  0  0  0  0  0  0  # atno 10167 bound_to 10162
  157.3055  130.7372  149.6693 H   0  0  0  0  0  0  0  0  0  0  0  0  # atno 10718 bound_to 10713
  152.9801  135.5758  154.4843 H   0  0  0  0  0  0  0  0  0  0  0  0  # atno 10763 bound_to 10752
  154.4387  135.2775  155.1865 H   0  0  0  0  0  0  0  0  0  0  0  0  # atno 10764 bound_to 10752
  154.3542  135.6202  153.5711 H   0  0  0  0  0  0  0  0  0  0  0  0  # atno 10765 bound_to 10752
  140.7786  134.3105  157.5052 H   0  0  0  0  0  0  0  0  0  0  0  0  # atno 11005 bound_to 11000
  144.7181  140.4281  143.7029 LP  0  0  0  0  0  0  0  0  0  0  0  0  # atno 17320 bound_to 7965
  145.6540  139.1570  143.2846 LP  0  0  0  0  0  0  0  0  0  0  0  0  # atno 17321 bound_to 7965
  139.5165  144.3346  152.0795 LP  0  0  0  0  0  0  0  0  0  0  0  0  # atno 17342 bound_to 10162
  140.2495  144.4184  150.6227 LP  0  0  0  0  0  0  0  0  0  0  0  0  # atno 17343 bound_to 10162
  155.9674  130.4267  150.4710 LP  0  0  0  0  0  0  0  0  0  0  0  0  # atno 17370 bound_to 10713
  157.2699  131.0585  151.2266 LP  0  0  0  0  0  0  0  0  0  0  0  0  # atno 17371 bound_to 10713
  139.8745  134.9305  156.3503 LP  0  0  0  0  0  0  0  0  0  0  0  0  # atno 17394 bound_to 11000
  140.9504  133.7455  156.0265 LP  0  0  0  0  0  0  0  0  0  0  0  0  # atno 17395 bound_to 11000

$$$$
