AV-unprocessed.smi:527|AV-procd|sdf|2822|dock1
  -GOLD-   2262023303D 1   1.00000     0.00000
 Structure written by MMmdl.
 42 43  0  0  0  0  0  0  0  0  1 V2000
  152.6899  142.8843  162.3987 C   0  0  0  0  0  0  0  0  0  0  0  0
  152.2225  143.1767  160.9617 C   0  0  1  0  0  0  0  0  0  0  0  0
  152.0978  144.7006  160.7552 C   0  0  0  0  0  0  0  0  0  0  0  0
  151.6217  145.0571  159.3409 C   0  0  0  0  0  0  0  0  0  0  0  0
  152.5506  144.4496  158.2805 C   0  0  0  0  0  0  0  0  0  0  0  0
  152.6902  142.9234  158.4488 C   0  0  2  0  0  0  0  0  0  0  0  0
  151.4404  142.2448  158.1003 N   0  0  0  0  0  0  0  0  0  0  0  0
  151.2958  141.3197  157.1403 C   0  0  0  0  0  0  0  0  0  0  0  0
  152.2380  140.6789  156.6693 O   0  0  0  0  0  0  0  0  0  0  0  0
  150.0049  141.2025  156.7751 N   0  0  0  0  0  0  0  0  0  0  0  0
  149.5187  140.6664  155.6365 C   0  0  0  0  0  0  0  0  0  0  0  0
  150.1993  140.1740  154.7346 O   0  0  0  0  0  0  0  0  0  0  0  0
  147.9967  140.6938  155.4901 C   0  0  0  0  0  0  0  0  0  0  0  0
  147.5886  140.1650  154.2022 N   0  0  0  0  0  0  0  0  0  0  0  0
  147.6189  138.8381  153.7920 C   0  0  0  0  0  0  0  0  0  0  0  0
  147.1462  138.8154  152.4993 C   0  0  0  0  0  0  0  0  0  0  0  0
  146.8234  140.1088  152.0953 N   0  0  0  0  0  0  0  0  0  0  0  0
  147.1123  140.8527  153.1549 C   0  0  0  0  0  0  0  0  0  0  0  0
  153.1501  142.5507  159.8827 C   0  0  2  0  0  0  0  0  0  0  0  0
  153.3155  141.0249  160.0365 C   0  0  0  0  0  0  0  0  0  0  0  0
  153.7120  143.2273  162.5614 H   0  0  0  0  0  0  0  0  0  0  0  0
  152.6516  141.8198  162.6284 H   0  0  0  0  0  0  0  0  0  0  0  0
  152.0526  143.3873  163.1264 H   0  0  0  0  0  0  0  0  0  0  0  0
  151.2271  142.7441  160.8509 H   0  0  0  0  0  0  0  0  0  0  0  0
  151.4041  145.1207  161.4845 H   0  0  0  0  0  0  0  0  0  0  0  0
  153.0620  145.1761  160.9410 H   0  0  0  0  0  0  0  0  0  0  0  0
  150.6025  144.6982  159.1930 H   0  0  0  0  0  0  0  0  0  0  0  0
  151.5857  146.1405  159.2239 H   0  0  0  0  0  0  0  0  0  0  0  0
  152.1872  144.6941  157.2816 H   0  0  0  0  0  0  0  0  0  0  0  0
  153.5355  144.9106  158.3630 H   0  0  0  0  0  0  0  0  0  0  0  0
  153.4634  142.5814  157.7580 H   0  0  0  0  0  0  0  0  0  0  0  0
  150.6244  142.5062  158.6338 H   0  0  0  0  0  0  0  0  0  0  0  0
  149.3217  141.5625  157.4249 H   0  0  0  0  0  0  0  0  0  0  0  0
  147.5352  140.0990  156.2796 H   0  0  0  0  0  0  0  0  0  0  0  0
  147.6213  141.7130  155.5940 H   0  0  0  0  0  0  0  0  0  0  0  0
  147.9665  138.0425  154.4348 H   0  0  0  0  0  0  0  0  0  0  0  0
  147.0164  137.9748  151.8337 H   0  0  0  0  0  0  0  0  0  0  0  0
  146.9760  141.9243  153.1690 H   0  0  0  0  0  0  0  0  0  0  0  0
  154.1417  142.9863  160.0167 H   0  0  0  0  0  0  0  0  0  0  0  0
  152.3528  140.5131  160.0437 H   0  0  0  0  0  0  0  0  0  0  0  0
  153.8356  140.7679  160.9589 H   0  0  0  0  0  0  0  0  0  0  0  0
  153.9042  140.6126  159.2166 H   0  0  0  0  0  0  0  0  0  0  0  0
  1  2  1  0  0  0  0
  1 21  1  0  0  0  0
  1 22  1  0  0  0  0
  1 23  1  0  0  0  0
  2 19  1  0  0  0  0
  2  3  1  0  0  0  0
  2 24  1  0  0  0  0
  3  4  1  0  0  0  0
  3 25  1  0  0  0  0
  3 26  1  0  0  0  0
  4  5  1  0  0  0  0
  4 27  1  0  0  0  0
  4 28  1  0  0  0  0
  5  6  1  0  0  0  0
  5 29  1  0  0  0  0
  5 30  1  0  0  0  0
  6  7  1  0  0  0  0
  6 19  1  0  0  0  0
  6 31  1  0  0  0  0
  7  8  1  0  0  0  0
  7 32  1  0  0  0  0
  8  9  2  0  0  0  0
  8 10  1  0  0  0  0
 10 11  1  0  0  0  0
 10 33  1  0  0  0  0
 11 12  2  0  0  0  0
 11 13  1  0  0  0  0
 13 14  1  0  0  0  0
 13 34  1  0  0  0  0
 13 35  1  0  0  0  0
 14 18  1  0  0  0  0
 14 15  1  0  0  0  0
 15 16  2  0  0  0  0
 15 36  1  0  0  0  0
 16 17  1  0  0  0  0
 16 37  1  0  0  0  0
 17 18  2  0  0  0  0
 18 38  1  0  0  0  0
 19 20  1  0  0  0  0
 19 39  1  0  0  0  0
 20 40  1  0  0  0  0
 20 41  1  0  0  0  0
 20 42  1  0  0  0  0
M  END
> <s_m_source_file>
AV-unprocessed.smi

> <i_m_source_file_index>
527

> <i_lp_mmshare_version>
43012

> <i_f3d_flags>
0

> <s_epik_input>
W0NIM11bQ0BASF0xW0NIMl1bQ0gyXVtDSDJdW0NASF0oW0NASF0xW0NIM10pW05IXUMoPU8pW05IXUMoPU8pW0NIMl1uMltjSF1bY0hdbltjSF0y

> <s_epik_cmdline>
J2VwaWtfcHl0aG9uJywgJy1waCcsICc3LjAnLCAnLXRuJywgJzgnLCAnLW1hJywgJzIwMCcsICctbWV0YWxfYmluZGluZycsICctaW1hZScsICc8aW5maWxlLm1hZT4nLCAnLW9tYWUnLCAnPG91dGZpbGUubWFlPic=

> <r_lp_tautomer_probability>
1

> <r_epik_Ionization_Penalty>
0.172132

> <r_epik_Ionization_Penalty_Charging>
0.172105

> <r_epik_Ionization_Penalty_Neutral>
2.71747e-05

> <r_epik_State_Penalty>
0.161503

> <r_epik_Charging_Adjusted_Penalty>
0.333607

> <i_epik_Tot_Q>
0

> <i_epik_Tot_abs_Q>
0

> <r_epik_Metal_State_Penalty>
0.124763

> <b_epik_Metal_Only>
0

> <s_lp_Force_Field>
OPLS_2005

> <r_lp_Energy>
14.576

> <b_lp_Chiralities_Consistent>
1

> <s_lp_Variant>
AV-unprocessed.smi:527-8

> <Gold.Version>
5.8.1

> <Gold.Id.Protein>
6NUR|6NUR_protein|mol2

> <Gold.PLP.Fitness>
47.5559

> <Gold.PLP.PLP>
-41.2202

> <Gold.PLP.part.hbond>
-2.0000

> <Gold.PLP.part.metal>
0.0000

> <Gold.PLP.part.buried>
-2.5787

> <Gold.PLP.part.nonpolar>
-37.7971

> <Gold.PLP.part.repulsive>
1.6364

> <Gold.PLP.ligand.clash>
0.0000

> <Gold.PLP.ligand.torsion>
0.3273

> <Gold.PLP.Chemscore.Hbond>
1.6037

> <Gold.PLP.Chemscore.CHOScore>
0.7125

> <Gold.PLP.Chemscore.Metal>
0.0000

> <Gold.Chemscore.Hbonds>
donor molecule, donor type, donor heavy atom, donor atom, acceptor molecule, acceptor atom, score
      P1  H  7989  7998       L1    12  1.00
      P1  H  7997  8009       L1     9  0.54
      L1  C    16    37       P1  7948  0.63

> <Gold.PLP.Chemscore.Internal.Correction>
0.0416

> <Gold.Rescore>
     Score         DG    S(hbond)    S(metal)    S(lipo)     H(rot)  DE(clash)    DE(int)     intcor
     16.00     -19.84       1.60        0.00     113.35       1.66       2.12       1.72       ----

> <Gold.Chemscore.Fitness>
15.9975

> <Gold.Chemscore.DG>
-19.8351

> <Gold.Chemscore.ZeroCoef>
-5.4800

> <Gold.Chemscore.Hbond>
1.6017

> <Gold.Chemscore.Metal>
0.0000

> <Gold.Chemscore.Lipo>
113.3543

> <Gold.Chemscore.Internal_Hbond>
0.0000

> <Gold.Chemscore.DEClash>
2.1192

> <Gold.Chemscore.DEInternal>
1.7184

> <Gold.Chemscore.Rot>
1.6629

> <Gold.Chemscore.Internal.Correction>
   9.000000E+99

> <Gold.Chemscore.Hbonds>
donor molecule, donor type, donor heavy atom, donor atom, acceptor molecule, acceptor atom, score
      P1  H  7989  7998       L1    12  0.93
      P1  H  7997  8009       L1     9  0.55

> <Gold.Chemscore.Hbond.Weighted>
-5.3495

> <Gold.Chemscore.Metal.Weighted>
-0.0000

> <Gold.Chemscore.Lipo.Weighted>
-13.2625

> <Gold.Chemscore.Internal_Hbond.Weighted>
0.0000

> <Gold.Chemscore.DEClash.Weighted>
2.1192

> <Gold.Chemscore.DEInternal.Weighted>
1.7184

> <Gold.Chemscore.Rot.Weighted>
4.2569

> <Gold.Chemscore.Internal.Correction.Weighted>
   9.000000E+99

> <Gold.Protein.RotatedTorsions>
[ 6907 6896 6895 6894 ] final   60.93 input  -60.11 | X-H torsion
[ 7974 7965 7964 7962 ] final  -54.01 input  175.53 | X-H torsion
[ 8008 7997 7996 7995 ] final -166.27 input   59.86 | X-H torsion
[ 10167 10162 10161 10158 ] final -157.33 input  -65.29 | X-H torsion
[ 10718 10713 10712 10709 ] final   69.39 input   66.30 | X-H torsion
[ 10763 10752 10751 10750 ] final  -19.33 input  -60.55 | X-H torsion
[ 11005 11000 10999 10996 ] final  -66.29 input  -57.11 | X-H torsion

> <Gold.Protein.ActiveResidues>
 VAL166  LYS551  ARG553  GLY616  TRP617  ASP618  TYR619  PRO620  LYS621  CYS622 
 ASP623  PHE694  ASN695  SER759  ASP760  ASP761  ALA762  ILE779  LEU786  VAL792 
 PHE793  MET794  SER795  GLU796  ALA797  LYS798  CYS799  TRP800  GLU811  SER814 

> <Gold.Protein.RotatedAtoms>
  152.4045  134.6230  160.0055 H   0  0  0  0  0  0  0  0  0  0  0  0  # atno 6907 bound_to 6896
  151.6425  133.3319  159.3141 H   0  0  0  0  0  0  0  0  0  0  0  0  # atno 6908 bound_to 6896
  150.7941  134.7030  159.6605 H   0  0  0  0  0  0  0  0  0  0  0  0  # atno 6909 bound_to 6896
  145.8904  140.8075  142.9794 H   0  0  0  0  0  0  0  0  0  0  0  0  # atno 7974 bound_to 7965
  155.8614  140.0979  157.1611 H   0  0  0  0  0  0  0  0  0  0  0  0  # atno 8008 bound_to 7997
  154.3991  140.1364  156.4028 H   0  0  0  0  0  0  0  0  0  0  0  0  # atno 8009 bound_to 7997
  155.7852  140.3457  155.5321 H   0  0  0  0  0  0  0  0  0  0  0  0  # atno 8010 bound_to 7997
  139.6779  143.9632  152.2320 H   0  0  0  0  0  0  0  0  0  0  0  0  # atno 10167 bound_to 10162
  157.6343  130.9423  150.0507 H   0  0  0  0  0  0  0  0  0  0  0  0  # atno 10718 bound_to 10713
  153.6031  135.6999  153.5376 H   0  0  0  0  0  0  0  0  0  0  0  0  # atno 10763 bound_to 10752
  153.3080  135.4109  155.1310 H   0  0  0  0  0  0  0  0  0  0  0  0  # atno 10764 bound_to 10752
  154.8578  135.3665  154.5567 H   0  0  0  0  0  0  0  0  0  0  0  0  # atno 10765 bound_to 10752
  141.1478  133.6697  156.6117 H   0  0  0  0  0  0  0  0  0  0  0  0  # atno 11005 bound_to 11000
  144.6730  140.1521  143.7429 LP  0  0  0  0  0  0  0  0  0  0  0  0  # atno 17320 bound_to 7965
  145.8915  139.2378  143.1547 LP  0  0  0  0  0  0  0  0  0  0  0  0  # atno 17321 bound_to 7965
  139.9414  144.6679  150.8263 LP  0  0  0  0  0  0  0  0  0  0  0  0  # atno 17342 bound_to 10162
  140.7642  143.3242  151.2553 LP  0  0  0  0  0  0  0  0  0  0  0  0  # atno 17343 bound_to 10162
  156.1570  130.3643  149.9354 LP  0  0  0  0  0  0  0  0  0  0  0  0  # atno 17370 bound_to 10713
  156.7361  130.9062  151.3629 LP  0  0  0  0  0  0  0  0  0  0  0  0  # atno 17371 bound_to 10713
  140.3609  134.7688  157.4533 LP  0  0  0  0  0  0  0  0  0  0  0  0  # atno 17394 bound_to 11000
  140.0786  134.5763  155.8565 LP  0  0  0  0  0  0  0  0  0  0  0  0  # atno 17395 bound_to 11000

$$$$
