AV-unprocessed.smi:1130|AV-procd|sdf|4849|dock1
  -GOLD-   22720 3413D 1   1.00000     0.00000
 Structure written by MMmdl.
 36 37  0  0  0  0  0  0  0  0  1 V2000
  152.6084  139.0420  155.2034 C   0  0  0  0  0  0  0  0  0  0  0  0
  151.1227  139.1628  155.1861 C   0  0  0  0  0  0  0  0  0  0  0  0
  150.3914  138.8640  156.2530 N   0  0  0  0  0  0  0  0  0  0  0  0
  149.0797  139.1189  155.8273 O   0  0  0  0  0  0  0  0  0  0  0  0
  149.1817  139.5246  154.5386 C   0  0  0  0  0  0  0  0  0  0  0  0
  147.9446  139.9259  153.8084 C   0  0  0  0  0  0  0  0  0  0  0  0
  146.8152  138.8941  153.9619 C   0  0  0  0  0  0  0  0  0  0  0  0
  146.8793  137.8626  152.9326 N   0  0  0  0  0  0  0  0  0  0  0  0
  145.8149  137.2580  152.3868 C   0  0  0  0  0  0  0  0  0  0  0  0
  144.6487  137.5121  152.6887 O   0  0  0  0  0  0  0  0  0  0  0  0
  146.1747  136.3464  151.4726 N   0  0  0  0  0  0  0  0  0  0  0  0
  145.2478  135.5427  150.6836 C   0  0  0  0  0  0  0  0  0  0  0  0
  144.9899  134.1772  151.3407 C   0  0  1  0  0  0  0  0  0  0  0  0
  144.1005  133.2565  150.5086 C   0  0  0  0  0  0  0  0  0  0  0  0
  144.4783  131.8979  151.0528 C   0  0  0  0  0  0  0  0  0  0  0  0
  145.9790  132.0558  151.2841 C   0  0  0  0  0  0  0  0  0  0  0  0
  146.2025  133.4462  151.5053 O   0  0  0  0  0  0  0  0  0  0  0  0
  150.4337  139.5869  154.0916 N   0  0  0  0  0  0  0  0  0  0  0  0
  152.9650  138.7464  156.1906 H   0  0  0  0  0  0  0  0  0  0  0  0
  153.0668  139.9965  154.9440 H   0  0  0  0  0  0  0  0  0  0  0  0
  152.9329  138.2931  154.4807 H   0  0  0  0  0  0  0  0  0  0  0  0
  147.6255  140.8999  154.1813 H   0  0  0  0  0  0  0  0  0  0  0  0
  148.1913  140.0603  152.7544 H   0  0  0  0  0  0  0  0  0  0  0  0
  146.8886  138.4060  154.9341 H   0  0  0  0  0  0  0  0  0  0  0  0
  145.8419  139.3871  153.9342 H   0  0  0  0  0  0  0  0  0  0  0  0
  147.7983  137.5862  152.6190 H   0  0  0  0  0  0  0  0  0  0  0  0
  147.1592  136.2097  151.2968 H   0  0  0  0  0  0  0  0  0  0  0  0
  144.3110  136.0954  150.6120 H   0  0  0  0  0  0  0  0  0  0  0  0
  145.6095  135.4169  149.6617 H   0  0  0  0  0  0  0  0  0  0  0  0
  144.5396  134.3102  152.3259 H   0  0  0  0  0  0  0  0  0  0  0  0
  143.0387  133.4804  150.6138 H   0  0  0  0  0  0  0  0  0  0  0  0
  144.3611  133.3203  149.4510 H   0  0  0  0  0  0  0  0  0  0  0  0
  143.9679  131.7215  152.0006 H   0  0  0  0  0  0  0  0  0  0  0  0
  144.2351  131.0791  150.3753 H   0  0  0  0  0  0  0  0  0  0  0  0
  146.3311  131.4585  152.1255 H   0  0  0  0  0  0  0  0  0  0  0  0
  146.5380  131.7534  150.3980 H   0  0  0  0  0  0  0  0  0  0  0  0
  1  2  1  0  0  0  0
  1 19  1  0  0  0  0
  1 20  1  0  0  0  0
  1 21  1  0  0  0  0
  2 18  1  0  0  0  0
  2  3  2  0  0  0  0
  3  4  1  0  0  0  0
  4  5  1  0  0  0  0
  5  6  1  0  0  0  0
  5 18  2  0  0  0  0
  6  7  1  0  0  0  0
  6 22  1  0  0  0  0
  6 23  1  0  0  0  0
  7  8  1  0  0  0  0
  7 24  1  0  0  0  0
  7 25  1  0  0  0  0
  8  9  1  0  0  0  0
  8 26  1  0  0  0  0
  9 10  2  0  0  0  0
  9 11  1  0  0  0  0
 11 12  1  0  0  0  0
 11 27  1  0  0  0  0
 12 13  1  0  0  0  0
 12 28  1  0  0  0  0
 12 29  1  0  0  0  0
 13 17  1  0  0  0  0
 13 14  1  0  0  0  0
 13 30  1  0  0  0  0
 14 15  1  0  0  0  0
 14 31  1  0  0  0  0
 14 32  1  0  0  0  0
 15 16  1  0  0  0  0
 15 33  1  0  0  0  0
 15 34  1  0  0  0  0
 16 17  1  0  0  0  0
 16 35  1  0  0  0  0
 16 36  1  0  0  0  0
M  END
> <s_m_source_file>
AV-unprocessed.smi

> <i_m_source_file_index>
1130

> <i_lp_mmshare_version>
43012

> <i_f3d_flags>
0

> <s_epik_input>
W0NIM11jMW5vYyhuMSlbQ0gyXVtDSDJdW05IXUMoPU8pW05IXVtDSDJdW0NAQEhdMltDSDJdW0NIMl1bQ0gyXU8y

> <s_epik_cmdline>
J2VwaWtfcHl0aG9uJywgJy1waCcsICc3LjAnLCAnLXRuJywgJzgnLCAnLW1hJywgJzIwMCcsICctbWV0YWxfYmluZGluZycsICctaW1hZScsICc8aW5maWxlLm1hZT4nLCAnLW9tYWUnLCAnPG91dGZpbGUubWFlPic=

> <r_lp_tautomer_probability>
1

> <r_epik_Ionization_Penalty>
4.67036e-05

> <r_epik_Ionization_Penalty_Charging>
0

> <r_epik_Ionization_Penalty_Neutral>
4.67036e-05

> <r_epik_State_Penalty>
-0

> <r_epik_Charging_Adjusted_Penalty>
0

> <i_epik_Tot_Q>
0

> <i_epik_Tot_abs_Q>
0

> <r_epik_Metal_State_Penalty>
-0

> <b_epik_Metal_Only>
0

> <s_lp_Force_Field>
OPLS_2005

> <r_lp_Energy>
9.65739

> <b_lp_Chiralities_Consistent>
1

> <s_lp_Variant>
AV-unprocessed.smi:1130-2

> <Gold.Version>
5.8.1

> <Gold.Id.Protein>
6NUR|6NUR_protein|mol2

> <Gold.PLP.Fitness>
37.2184

> <Gold.PLP.PLP>
-29.5722

> <Gold.PLP.part.hbond>
-3.0000

> <Gold.PLP.part.metal>
0.0000

> <Gold.PLP.part.buried>
-4.7857

> <Gold.PLP.part.nonpolar>
-23.3311

> <Gold.PLP.part.repulsive>
1.1239

> <Gold.PLP.ligand.clash>
0.0000

> <Gold.PLP.ligand.torsion>
0.6941

> <Gold.PLP.Chemscore.Hbond>
2.9920

> <Gold.PLP.Chemscore.CHOScore>
0.0000

> <Gold.PLP.Chemscore.Metal>
0.0000

> <Gold.Chemscore.Hbonds>
donor molecule, donor type, donor heavy atom, donor atom, acceptor molecule, acceptor atom, score
      L1  H     8    26       P1  7948  0.99
      L1  H    11    27       P1  7948  1.00
      P1  H  7989  7998       L1    18  0.95

> <Gold.PLP.Chemscore.Internal.Correction>
0.0584

> <Gold.Rescore>
     Score         DG    S(hbond)    S(metal)    S(lipo)     H(rot)  DE(clash)    DE(int)     intcor
     14.10     -15.05       2.75        0.00      54.24       2.33       0.25       0.69       ----

> <Gold.Chemscore.Fitness>
14.1017

> <Gold.Chemscore.DG>
-15.0464

> <Gold.Chemscore.ZeroCoef>
-5.4800

> <Gold.Chemscore.Hbond>
2.7490

> <Gold.Chemscore.Metal>
0.0000

> <Gold.Chemscore.Lipo>
54.2428

> <Gold.Chemscore.Internal_Hbond>
0.0000

> <Gold.Chemscore.DEClash>
0.2533

> <Gold.Chemscore.DEInternal>
0.6914

> <Gold.Chemscore.Rot>
2.3288

> <Gold.Chemscore.Internal.Correction>
   9.000000E+99

> <Gold.Chemscore.Hbonds>
donor molecule, donor type, donor heavy atom, donor atom, acceptor molecule, acceptor atom, score
      L1  H     8    26       P1  7948  0.94
      L1  H    11    27       P1  7948  0.97
      P1  H  7989  7998       L1    18  0.21

> <Gold.Chemscore.Hbond.Weighted>
-9.1817

> <Gold.Chemscore.Metal.Weighted>
-0.0000

> <Gold.Chemscore.Lipo.Weighted>
-6.3464

> <Gold.Chemscore.Internal_Hbond.Weighted>
0.0000

> <Gold.Chemscore.DEClash.Weighted>
0.2533

> <Gold.Chemscore.DEInternal.Weighted>
0.6914

> <Gold.Chemscore.Rot.Weighted>
5.9617

> <Gold.Chemscore.Internal.Correction.Weighted>
   9.000000E+99

> <Gold.Protein.RotatedTorsions>
[ 6907 6896 6895 6894 ] final  -50.52 input  -60.11 | X-H torsion
[ 7974 7965 7964 7962 ] final   63.52 input  175.53 | X-H torsion
[ 8008 7997 7996 7995 ] final  -75.16 input   59.86 | X-H torsion
[ 10167 10162 10161 10158 ] final   -4.63 input  -65.29 | X-H torsion
[ 10718 10713 10712 10709 ] final  169.88 input   66.30 | X-H torsion
[ 10763 10752 10751 10750 ] final  118.99 input  -60.55 | X-H torsion
[ 11005 11000 10999 10996 ] final   15.04 input  -57.11 | X-H torsion

> <Gold.Protein.ActiveResidues>
 VAL166  LYS551  ARG553  GLY616  TRP617  ASP618  TYR619  PRO620  LYS621  CYS622 
 ASP623  PHE694  ASN695  SER759  ASP760  ASP761  ALA762  ILE779  LEU786  VAL792 
 PHE793  MET794  SER795  GLU796  ALA797  LYS798  CYS799  TRP800  GLU811  SER814 

> <Gold.Protein.RotatedAtoms>
  150.8699  134.8071  159.7146 H   0  0  0  0  0  0  0  0  0  0  0  0  # atno 6907 bound_to 6896
  152.4707  134.4963  159.9720 H   0  0  0  0  0  0  0  0  0  0  0  0  # atno 6908 bound_to 6896
  151.5053  133.3457  159.2911 H   0  0  0  0  0  0  0  0  0  0  0  0  # atno 6909 bound_to 6896
  145.8609  139.3314  143.0819 H   0  0  0  0  0  0  0  0  0  0  0  0  # atno 7974 bound_to 7965
  154.5393  140.0749  156.8481 H   0  0  0  0  0  0  0  0  0  0  0  0  # atno 8008 bound_to 7997
  155.3214  140.3396  155.4223 H   0  0  0  0  0  0  0  0  0  0  0  0  # atno 8009 bound_to 7997
  156.1858  140.1668  156.8174 H   0  0  0  0  0  0  0  0  0  0  0  0  # atno 8010 bound_to 7997
  140.6934  143.6402  150.8443 H   0  0  0  0  0  0  0  0  0  0  0  0  # atno 10167 bound_to 10162
  157.0162  131.0219  151.2788 H   0  0  0  0  0  0  0  0  0  0  0  0  # atno 10718 bound_to 10713
  153.5762  135.3493  155.2857 H   0  0  0  0  0  0  0  0  0  0  0  0  # atno 10763 bound_to 10752
  154.8675  135.4171  154.2671 H   0  0  0  0  0  0  0  0  0  0  0  0  # atno 10764 bound_to 10752
  153.3447  135.7052  153.6908 H   0  0  0  0  0  0  0  0  0  0  0  0  # atno 10765 bound_to 10752
  140.4627  134.1111  155.7719 H   0  0  0  0  0  0  0  0  0  0  0  0  # atno 11005 bound_to 11000
  145.9249  140.9089  143.0386 LP  0  0  0  0  0  0  0  0  0  0  0  0  # atno 17320 bound_to 7965
  144.6726  140.1339  143.7442 LP  0  0  0  0  0  0  0  0  0  0  0  0  # atno 17321 bound_to 7965
  140.0117  143.5635  152.2836 LP  0  0  0  0  0  0  0  0  0  0  0  0  # atno 17342 bound_to 10162
  139.6362  144.7650  151.2434 LP  0  0  0  0  0  0  0  0  0  0  0  0  # atno 17343 bound_to 10162
  157.5283  130.8042  149.7888 LP  0  0  0  0  0  0  0  0  0  0  0  0  # atno 17370 bound_to 10713
  156.0118  130.3830  150.2239 LP  0  0  0  0  0  0  0  0  0  0  0  0  # atno 17371 bound_to 10713
  141.1614  133.8786  157.1838 LP  0  0  0  0  0  0  0  0  0  0  0  0  # atno 17394 bound_to 11000
  139.9935  135.0056  157.0029 LP  0  0  0  0  0  0  0  0  0  0  0  0  # atno 17395 bound_to 11000

$$$$
