AV-unprocessed.smi:3165|AV-procd|sdf|12090|dock2
  -GOLD-   2272017523D 1   1.00000     0.00000
 Structure written by MMmdl.
 37 38  0  0  0  0  0  0  0  0  1 V2000
  149.2884  140.6990  157.3258 C   0  0  0  0  0  0  0  0  0  0  0  0
  150.6404  141.4388  157.2568 C   0  0  1  0  0  0  0  0  0  0  0  0
  151.3045  141.3275  155.8690 C   0  0  0  0  0  0  0  0  0  0  0  0
  151.4671  139.9538  155.4268 N   0  0  0  0  0  0  0  0  0  0  0  0
  152.2946  138.9821  155.9487 C   0  0  0  0  0  0  0  0  0  0  0  0
  152.1143  137.8519  155.2041 C   0  0  0  0  0  0  0  0  0  0  0  0
  151.1469  138.2370  154.2343 C   0  0  0  0  0  0  0  0  0  0  0  0
  150.7634  139.4963  154.3683 N   0  0  0  0  0  0  0  0  0  0  0  0
  150.5064  142.8553  157.6075 N   0  0  0  0  0  0  0  0  0  0  0  0
  151.7532  143.6211  157.6487 C   0  0  0  0  0  0  0  0  0  0  0  0
  152.4374  143.5226  159.0228 C   0  0  2  0  0  0  0  0  0  0  0  0
  152.7919  142.0795  159.4403 C   0  0  0  0  0  0  0  0  0  0  0  0
  153.4279  142.0665  160.8344 C   0  0  0  0  0  0  0  0  0  0  0  0
  152.5236  142.8150  161.8199 C   0  0  0  0  0  0  0  0  0  0  0  0
  152.2008  144.2216  161.2899 C   0  0  0  0  0  0  0  0  0  0  0  0
  151.5993  144.1353  160.0013 O   0  0  0  0  0  0  0  0  0  0  0  0
  149.3935  139.6492  157.0527 H   0  0  0  0  0  0  0  0  0  0  0  0
  148.5595  141.1443  156.6478 H   0  0  0  0  0  0  0  0  0  0  0  0
  148.8653  140.7130  158.3297 H   0  0  0  0  0  0  0  0  0  0  0  0
  151.3124  140.9677  157.9753 H   0  0  0  0  0  0  0  0  0  0  0  0
  150.7228  141.8756  155.1251 H   0  0  0  0  0  0  0  0  0  0  0  0
  152.2933  141.7879  155.8890 H   0  0  0  0  0  0  0  0  0  0  0  0
  152.9343  139.1743  156.7974 H   0  0  0  0  0  0  0  0  0  0  0  0
  152.6005  136.8964  155.3319 H   0  0  0  0  0  0  0  0  0  0  0  0
  150.7163  137.6437  153.4415 H   0  0  0  0  0  0  0  0  0  0  0  0
  149.8600  143.3042  156.9662 H   0  0  0  0  0  0  0  0  0  0  0  0
  152.4444  143.2634  156.8860 H   0  0  0  0  0  0  0  0  0  0  0  0
  151.5540  144.6696  157.4247 H   0  0  0  0  0  0  0  0  0  0  0  0
  153.3604  144.1023  158.9651 H   0  0  0  0  0  0  0  0  0  0  0  0
  151.8953  141.4591  159.4539 H   0  0  0  0  0  0  0  0  0  0  0  0
  153.4703  141.6311  158.7141 H   0  0  0  0  0  0  0  0  0  0  0  0
  153.5903  141.0415  161.1689 H   0  0  0  0  0  0  0  0  0  0  0  0
  154.4075  142.5443  160.7969 H   0  0  0  0  0  0  0  0  0  0  0  0
  151.5966  142.2584  161.9619 H   0  0  0  0  0  0  0  0  0  0  0  0
  153.0029  142.8799  162.7970 H   0  0  0  0  0  0  0  0  0  0  0  0
  151.5107  144.7263  161.9664 H   0  0  0  0  0  0  0  0  0  0  0  0
  153.1021  144.8344  161.2411 H   0  0  0  0  0  0  0  0  0  0  0  0
  1  2  1  0  0  0  0
  1 17  1  0  0  0  0
  1 18  1  0  0  0  0
  1 19  1  0  0  0  0
  2  3  1  0  0  0  0
  2  9  1  0  0  0  0
  2 20  1  0  0  0  0
  3  4  1  0  0  0  0
  3 21  1  0  0  0  0
  3 22  1  0  0  0  0
  4  8  1  0  0  0  0
  4  5  1  0  0  0  0
  5  6  2  0  0  0  0
  5 23  1  0  0  0  0
  6  7  1  0  0  0  0
  6 24  1  0  0  0  0
  7  8  2  0  0  0  0
  7 25  1  0  0  0  0
  9 10  1  0  0  0  0
  9 26  1  0  0  0  0
 10 11  1  0  0  0  0
 10 27  1  0  0  0  0
 10 28  1  0  0  0  0
 11 16  1  0  0  0  0
 11 12  1  0  0  0  0
 11 29  1  0  0  0  0
 12 13  1  0  0  0  0
 12 30  1  0  0  0  0
 12 31  1  0  0  0  0
 13 14  1  0  0  0  0
 13 32  1  0  0  0  0
 13 33  1  0  0  0  0
 14 15  1  0  0  0  0
 14 34  1  0  0  0  0
 14 35  1  0  0  0  0
 15 16  1  0  0  0  0
 15 36  1  0  0  0  0
 15 37  1  0  0  0  0
M  END
> <s_m_source_file>
AV-unprocessed.smi

> <i_m_source_file_index>
3165

> <i_lp_mmshare_version>
43012

> <i_f3d_flags>
0

> <s_epik_input>
bjFbY0hdW2NIXVtjSF1uMVtDSDJdW0NAQEhdKFtDSDNdKVtOSF1bQ0gyXVtDQEBIXTJbQ0gyXVtDSDJdW0NIMl1bQ0gyXU8y

> <s_epik_cmdline>
J2VwaWtfcHl0aG9uJywgJy1waCcsICc3LjAnLCAnLXRuJywgJzgnLCAnLW1hJywgJzIwMCcsICctbWV0YWxfYmluZGluZycsICctaW1hZScsICc8aW5maWxlLm1hZT4nLCAnLW9tYWUnLCAnPG91dGZpbGUubWFlPic=

> <r_lp_tautomer_probability>
1

> <r_epik_Ionization_Penalty>
2.51982

> <r_epik_Ionization_Penalty_Charging>
0

> <r_epik_Ionization_Penalty_Neutral>
2.51982

> <r_epik_State_Penalty>
2.68614

> <r_epik_Charging_Adjusted_Penalty>
2.68614

> <i_epik_Tot_Q>
0

> <i_epik_Tot_abs_Q>
0

> <r_epik_Metal_State_Penalty>
2.6861

> <b_epik_Metal_Only>
0

> <s_lp_Force_Field>
OPLS_2005

> <r_lp_Energy>
15.9673

> <b_lp_Chiralities_Consistent>
1

> <s_lp_Variant>
AV-unprocessed.smi:3165-6

> <Gold.Version>
5.8.1

> <Gold.Id.Protein>
6NUR|6NUR_protein|mol2

> <Gold.PLP.Fitness>
47.4693

> <Gold.PLP.PLP>
-41.6509

> <Gold.PLP.part.hbond>
-2.0000

> <Gold.PLP.part.metal>
0.0000

> <Gold.PLP.part.buried>
-4.0305

> <Gold.PLP.part.nonpolar>
-35.0904

> <Gold.PLP.part.repulsive>
0.2002

> <Gold.PLP.ligand.clash>
0.0000

> <Gold.PLP.ligand.torsion>
0.2263

> <Gold.PLP.Chemscore.Hbond>
0.9913

> <Gold.PLP.Chemscore.CHOScore>
1.0830

> <Gold.PLP.Chemscore.Metal>
0.0000

> <Gold.Chemscore.Hbonds>
donor molecule, donor type, donor heavy atom, donor atom, acceptor molecule, acceptor atom, score
      L1  H     9    26       P1  8028  0.70
      P1  H  7989  7998       L1     8  0.15
      L1  C     7    25       P1  7948  0.31
      L1  C     7    25       P1  7949  0.65

> <Gold.PLP.Chemscore.Internal.Correction>
0.0482

> <Gold.Rescore>
     Score         DG    S(hbond)    S(metal)    S(lipo)     H(rot)  DE(clash)    DE(int)     intcor
     17.26     -17.60       1.01        0.00     109.15       1.57       0.08       0.27       ----

> <Gold.Chemscore.Fitness>
17.2612

> <Gold.Chemscore.DG>
-17.6039

> <Gold.Chemscore.ZeroCoef>
-5.4800

> <Gold.Chemscore.Hbond>
1.0121

> <Gold.Chemscore.Metal>
0.0000

> <Gold.Chemscore.Lipo>
109.1513

> <Gold.Chemscore.Internal_Hbond>
0.0000

> <Gold.Chemscore.DEClash>
0.0773

> <Gold.Chemscore.DEInternal>
0.2653

> <Gold.Chemscore.Rot>
1.5731

> <Gold.Chemscore.Internal.Correction>
   9.000000E+99

> <Gold.Chemscore.Hbonds>
donor molecule, donor type, donor heavy atom, donor atom, acceptor molecule, acceptor atom, score
      L1  H     9    26       P1  8028  0.68

> <Gold.Chemscore.Hbond.Weighted>
-3.3804

> <Gold.Chemscore.Metal.Weighted>
-0.0000

> <Gold.Chemscore.Lipo.Weighted>
-12.7707

> <Gold.Chemscore.Internal_Hbond.Weighted>
0.0000

> <Gold.Chemscore.DEClash.Weighted>
0.0773

> <Gold.Chemscore.DEInternal.Weighted>
0.2653

> <Gold.Chemscore.Rot.Weighted>
4.0273

> <Gold.Chemscore.Internal.Correction.Weighted>
   9.000000E+99

> <Gold.Protein.RotatedTorsions>
[ 6907 6896 6895 6894 ] final   35.45 input  -60.11 | X-H torsion
[ 7974 7965 7964 7962 ] final  -82.60 input  175.53 | X-H torsion
[ 8008 7997 7996 7995 ] final   -7.81 input   59.86 | X-H torsion
[ 10167 10162 10161 10158 ] final   32.28 input  -65.29 | X-H torsion
[ 10718 10713 10712 10709 ] final  -59.15 input   66.30 | X-H torsion
[ 10763 10752 10751 10750 ] final  -36.24 input  -60.55 | X-H torsion
[ 11005 11000 10999 10996 ] final   52.31 input  -57.11 | X-H torsion

> <Gold.Protein.ActiveResidues>
 VAL166  LYS551  ARG553  GLY616  TRP617  ASP618  TYR619  PRO620  LYS621  CYS622 
 ASP623  PHE694  ASN695  SER759  ASP760  ASP761  ALA762  ILE779  LEU786  VAL792 
 PHE793  MET794  SER795  GLU796  ALA797  LYS798  CYS799  TRP800  GLU811  SER814 

> <Gold.Protein.RotatedAtoms>
  152.1163  134.9238  160.0564 H   0  0  0  0  0  0  0  0  0  0  0  0  # atno 6907 bound_to 6896
  152.0396  133.3967  159.4339 H   0  0  0  0  0  0  0  0  0  0  0  0  # atno 6908 bound_to 6896
  150.6846  134.3350  159.4887 H   0  0  0  0  0  0  0  0  0  0  0  0  # atno 6909 bound_to 6896
  145.5311  140.9521  143.1602 H   0  0  0  0  0  0  0  0  0  0  0  0  # atno 7974 bound_to 7965
  154.5802  140.2397  155.8064 H   0  0  0  0  0  0  0  0  0  0  0  0  # atno 8008 bound_to 7997
  156.2174  140.3008  155.9827 H   0  0  0  0  0  0  0  0  0  0  0  0  # atno 8009 bound_to 7997
  155.2554  140.0412  157.2982 H   0  0  0  0  0  0  0  0  0  0  0  0  # atno 8010 bound_to 7997
  140.4513  144.1044  150.6192 H   0  0  0  0  0  0  0  0  0  0  0  0  # atno 10167 bound_to 10162
  156.1083  130.4178  150.0675 H   0  0  0  0  0  0  0  0  0  0  0  0  # atno 10718 bound_to 10713
  153.8764  135.6826  153.4770 H   0  0  0  0  0  0  0  0  0  0  0  0  # atno 10763 bound_to 10752
  153.1258  135.4719  154.9268 H   0  0  0  0  0  0  0  0  0  0  0  0  # atno 10764 bound_to 10752
  154.7690  135.3233  154.8180 H   0  0  0  0  0  0  0  0  0  0  0  0  # atno 10765 bound_to 10752
  140.0860  134.5274  155.8899 H   0  0  0  0  0  0  0  0  0  0  0  0  # atno 11005 bound_to 11000
  144.7625  139.6922  143.7228 LP  0  0  0  0  0  0  0  0  0  0  0  0  # atno 17320 bound_to 7965
  146.2043  139.5358  142.9723 LP  0  0  0  0  0  0  0  0  0  0  0  0  # atno 17321 bound_to 7965
  140.4204  143.2614  151.9723 LP  0  0  0  0  0  0  0  0  0  0  0  0  # atno 17342 bound_to 10162
  139.4797  144.5836  151.7891 LP  0  0  0  0  0  0  0  0  0  0  0  0  # atno 17343 bound_to 10162
  156.8645  130.9503  151.3615 LP  0  0  0  0  0  0  0  0  0  0  0  0  # atno 17370 bound_to 10713
  157.6262  130.8693  149.9193 LP  0  0  0  0  0  0  0  0  0  0  0  0  # atno 17371 bound_to 10713
  141.2062  133.6653  156.6230 LP  0  0  0  0  0  0  0  0  0  0  0  0  # atno 17394 bound_to 11000
  140.3420  134.7841  157.4404 LP  0  0  0  0  0  0  0  0  0  0  0  0  # atno 17395 bound_to 11000

$$$$
