AV-unprocessed.smi:3337|AV-procd|sdf|12864|dock3
  -GOLD-   2272019263D 1   1.00000     0.00000
 Structure written by MMmdl.
 46 47  0  0  0  0  0  0  0  0  2 V2000
  146.7138  137.6740  151.3454 C   0  0  0  0  0  0  0  0  0  0  0  0
  145.6410  137.0302  152.2414 C   0  0  1  0  0  0  0  0  0  0  0  0
  145.0404  135.7493  151.6333 C   0  0  0  0  0  0  0  0  0  0  0  0
  146.0212  134.5660  151.7154 C   0  0  2  0  0  0  0  0  0  0  0  0
  145.3889  133.2777  151.1701 C   0  0  0  0  0  0  0  0  0  0  0  0
  146.5153  134.3806  153.1632 C   0  0  0  0  0  0  0  0  0  0  0  0
  147.1245  135.6273  153.6948 N   0  3  2  0  0  0  0  0  0  0  0  0
  147.7452  135.4216  155.0273 C   0  0  0  0  0  0  0  0  0  0  0  0
  149.2137  134.9625  154.9315 C   0  0  0  0  0  0  0  0  0  0  0  0
  150.0703  136.0189  154.4055 N   0  0  0  0  0  0  0  0  0  0  0  0
  151.0453  136.6305  155.0968 C   0  0  0  0  0  0  0  0  0  0  0  0
  151.3164  136.3465  156.2641 O   0  0  0  0  0  0  0  0  0  0  0  0
  151.8286  137.7251  154.3563 C   0  0  2  0  0  0  0  0  0  0  0  0
  153.3301  137.3923  154.2411 C   0  0  0  0  0  0  0  0  0  0  0  0
  151.5952  139.0209  154.9819 N   0  0  0  0  0  0  0  0  0  0  0  0
  151.8939  139.4451  156.2118 C   0  0  0  0  0  0  0  0  0  0  0  0
  151.5775  140.7125  156.4369 N   0  0  0  0  0  0  0  0  0  0  0  0
  151.0606  141.0387  155.2152 C   0  0  0  0  0  0  0  0  0  0  0  0
  151.0591  140.0663  154.3037 N   0  0  0  0  0  0  0  0  0  0  0  0
  146.1588  136.7588  153.6676 C   0  0  0  0  0  0  0  0  0  0  0  0
  147.5859  137.0315  151.2238 H   0  0  0  0  0  0  0  0  0  0  0  0
  147.0593  138.6177  151.7681 H   0  0  0  0  0  0  0  0  0  0  0  0
  146.3177  137.8871  150.3522 H   0  0  0  0  0  0  0  0  0  0  0  0
  144.8331  137.7587  152.3216 H   0  0  0  0  0  0  0  0  0  0  0  0
  144.1266  135.4958  152.1727 H   0  0  0  0  0  0  0  0  0  0  0  0
  144.7428  135.9267  150.5991 H   0  0  0  0  0  0  0  0  0  0  0  0
  146.8852  134.7903  151.0888 H   0  0  0  0  0  0  0  0  0  0  0  0
  144.5218  132.9793  151.7602 H   0  0  0  0  0  0  0  0  0  0  0  0
  146.1016  132.4528  151.1854 H   0  0  0  0  0  0  0  0  0  0  0  0
  145.0603  133.4087  150.1387 H   0  0  0  0  0  0  0  0  0  0  0  0
  145.6926  134.0746  153.8116 H   0  0  0  0  0  0  0  0  0  0  0  0
  147.2523  133.5768  153.1866 H   0  0  0  0  0  0  0  0  0  0  0  0
  147.6530  136.3370  155.6139 H   0  0  0  0  0  0  0  0  0  0  0  0
  147.1907  134.6540  155.5693 H   0  0  0  0  0  0  0  0  0  0  0  0
  149.5821  134.6873  155.9202 H   0  0  0  0  0  0  0  0  0  0  0  0
  149.3196  134.0769  154.3045 H   0  0  0  0  0  0  0  0  0  0  0  0
  149.9077  136.3103  153.4523 H   0  0  0  0  0  0  0  0  0  0  0  0
  151.4347  137.7869  153.3401 H   0  0  0  0  0  0  0  0  0  0  0  0
  153.4832  136.4454  153.7223 H   0  0  0  0  0  0  0  0  0  0  0  0
  153.8111  137.3143  155.2170 H   0  0  0  0  0  0  0  0  0  0  0  0
  153.8556  138.1622  153.6755 H   0  0  0  0  0  0  0  0  0  0  0  0
  152.3550  138.8146  156.9581 H   0  0  0  0  0  0  0  0  0  0  0  0
  150.6805  142.0239  154.9891 H   0  0  0  0  0  0  0  0  0  0  0  0
  146.6139  137.6667  154.0612 H   0  0  0  0  0  0  0  0  0  0  0  0
  145.3201  136.5254  154.3256 H   0  0  0  0  0  0  0  0  0  0  0  0
  147.8756  135.8648  153.0626 H   0  0  0  0  0  0  0  0  0  0  0  0
  1  2  1  0  0  0  0
  1 21  1  0  0  0  0
  1 22  1  0  0  0  0
  1 23  1  0  0  0  0
  2 20  1  0  0  0  0
  2  3  1  0  0  0  0
  2 24  1  0  0  0  0
  3  4  1  0  0  0  0
  3 25  1  0  0  0  0
  3 26  1  0  0  0  0
  4  5  1  0  0  0  0
  4  6  1  0  0  0  0
  4 27  1  0  0  0  0
  5 28  1  0  0  0  0
  5 29  1  0  0  0  0
  5 30  1  0  0  0  0
  6  7  1  0  0  0  0
  6 31  1  0  0  0  0
  6 32  1  0  0  0  0
  7  8  1  0  0  0  0
  7 20  1  0  0  0  0
  7 46  1  0  0  0  0
  8  9  1  0  0  0  0
  8 33  1  0  0  0  0
  8 34  1  0  0  0  0
  9 10  1  0  0  0  0
  9 35  1  0  0  0  0
  9 36  1  0  0  0  0
 10 11  1  0  0  0  0
 10 37  1  0  0  0  0
 11 12  2  0  0  0  0
 11 13  1  0  0  0  0
 13 14  1  0  0  0  0
 13 15  1  0  0  0  0
 13 38  1  0  0  0  0
 14 39  1  0  0  0  0
 14 40  1  0  0  0  0
 14 41  1  0  0  0  0
 15 19  1  0  0  0  0
 15 16  1  0  0  0  0
 16 17  2  0  0  0  0
 16 42  1  0  0  0  0
 17 18  1  0  0  0  0
 18 19  2  0  0  0  0
 18 43  1  0  0  0  0
 20 44  1  0  0  0  0
 20 45  1  0  0  0  0
M  CHG  1   7   1
M  END
> <s_m_source_file>
AV-unprocessed.smi

> <i_m_source_file_index>
3337

> <i_lp_mmshare_version>
43012

> <i_f3d_flags>
0

> <s_epik_input>
W0NIM11bQ0BASF0xW0NIMl1bQ0BASF0oW0NIM10pW0NIMl1OKFtDSDJdMSlbQ0gyXVtDSDJdW05IXUMoPU8pW0NASF0oW0NIM10pbjJbY0hdbltjSF1uMg==

> <s_epik_cmdline>
J2VwaWtfcHl0aG9uJywgJy1waCcsICc3LjAnLCAnLXRuJywgJzgnLCAnLW1hJywgJzIwMCcsICctbWV0YWxfYmluZGluZycsICctaW1hZScsICc8aW5maWxlLm1hZT4nLCAnLW9tYWUnLCAnPG91dGZpbGUubWFlPic=

> <r_lp_tautomer_probability>
1

> <r_epik_Ionization_Penalty>
0.00175613

> <r_epik_Ionization_Penalty_Charging>
0.00174812

> <r_epik_Ionization_Penalty_Neutral>
8.01354e-06

> <r_epik_State_Penalty>
0.00118332

> <r_epik_Charging_Adjusted_Penalty>
0.00293143

> <i_epik_Tot_Q>
1

> <i_epik_Tot_abs_Q>
1

> <r_epik_Metal_State_Penalty>
-0

> <b_epik_Metal_Only>
0

> <s_lp_Force_Field>
OPLS_2005

> <r_lp_Energy>
24.6468

> <b_lp_Chiralities_Consistent>
1

> <s_lp_Variant>
AV-unprocessed.smi:3337-4

> <Gold.Version>
5.8.1

> <Gold.Id.Protein>
6NUR|6NUR_protein|mol2

> <Gold.PLP.Fitness>
44.6011

> <Gold.PLP.PLP>
-31.1020

> <Gold.PLP.part.hbond>
-3.3140

> <Gold.PLP.part.metal>
0.0000

> <Gold.PLP.part.buried>
1.6702

> <Gold.PLP.part.nonpolar>
-29.5826

> <Gold.PLP.part.repulsive>
0.1864

> <Gold.PLP.ligand.clash>
0.0000

> <Gold.PLP.ligand.torsion>
0.4995

> <Gold.PLP.Chemscore.Hbond>
3.7888

> <Gold.PLP.Chemscore.CHOScore>
1.0000

> <Gold.PLP.Chemscore.Metal>
0.0000

> <Gold.Chemscore.Hbonds>
donor molecule, donor type, donor heavy atom, donor atom, acceptor molecule, acceptor atom, score
      L1  H     7    46       P1  7948  2.00
      L1  H    10    37       P1  7948  0.80
      P1  H  7989  7998       L1    19  0.16

> <Gold.PLP.Chemscore.Internal.Correction>
0.1317

> <Gold.Rescore>
     Score         DG    S(hbond)    S(metal)    S(lipo)     H(rot)  DE(clash)    DE(int)     intcor
     10.90     -11.76       1.80        0.00      57.17       2.51       0.27       0.59       ----

> <Gold.Chemscore.Fitness>
10.8972

> <Gold.Chemscore.DG>
-11.7587

> <Gold.Chemscore.ZeroCoef>
-5.4800

> <Gold.Chemscore.Hbond>
1.8033

> <Gold.Chemscore.Metal>
0.0000

> <Gold.Chemscore.Lipo>
57.1698

> <Gold.Chemscore.Internal_Hbond>
0.0000

> <Gold.Chemscore.DEClash>
0.2738

> <Gold.Chemscore.DEInternal>
0.5877

> <Gold.Chemscore.Rot>
2.5129

> <Gold.Chemscore.Internal.Correction>
   9.000000E+99

> <Gold.Chemscore.Hbonds>
donor molecule, donor type, donor heavy atom, donor atom, acceptor molecule, acceptor atom, score
      L1  H     7    46       P1  7948  1.00
      L1  H    10    37       P1  7948  0.11
      P1  H  7989  7998       L1    19  0.01

> <Gold.Chemscore.Hbond.Weighted>
-6.0229

> <Gold.Chemscore.Metal.Weighted>
-0.0000

> <Gold.Chemscore.Lipo.Weighted>
-6.6889

> <Gold.Chemscore.Internal_Hbond.Weighted>
0.0000

> <Gold.Chemscore.DEClash.Weighted>
0.2738

> <Gold.Chemscore.DEInternal.Weighted>
0.5877

> <Gold.Chemscore.Rot.Weighted>
6.4331

> <Gold.Chemscore.Internal.Correction.Weighted>
   9.000000E+99

> <Gold.Protein.RotatedTorsions>
[ 6907 6896 6895 6894 ] final  -95.16 input  -60.11 | X-H torsion
[ 7974 7965 7964 7962 ] final  -70.39 input  175.53 | X-H torsion
[ 8008 7997 7996 7995 ] final  -97.34 input   59.86 | X-H torsion
[ 10167 10162 10161 10158 ] final   85.00 input  -65.29 | X-H torsion
[ 10718 10713 10712 10709 ] final  -50.39 input   66.30 | X-H torsion
[ 10763 10752 10751 10750 ] final   35.55 input  -60.55 | X-H torsion
[ 11005 11000 10999 10996 ] final -146.74 input  -57.11 | X-H torsion

> <Gold.Protein.ActiveResidues>
 VAL166  LYS551  ARG553  GLY616  TRP617  ASP618  TYR619  PRO620  LYS621  CYS622 
 ASP623  PHE694  ASN695  SER759  ASP760  ASP761  ALA762  ILE779  LEU786  VAL792 
 PHE793  MET794  SER795  GLU796  ALA797  LYS798  CYS799  TRP800  GLU811  SER814 

> <Gold.Protein.RotatedAtoms>
  150.6957  134.1701  159.4208 H   0  0  0  0  0  0  0  0  0  0  0  0  # atno 6907 bound_to 6896
  151.9679  135.0089  160.0560 H   0  0  0  0  0  0  0  0  0  0  0  0  # atno 6908 bound_to 6896
  152.1868  133.4710  159.5024 H   0  0  0  0  0  0  0  0  0  0  0  0  # atno 6909 bound_to 6896
  145.6915  140.9151  143.0779 H   0  0  0  0  0  0  0  0  0  0  0  0  # atno 7974 bound_to 7965
  154.7865  140.0464  157.1167 H   0  0  0  0  0  0  0  0  0  0  0  0  # atno 8008 bound_to 7997
  154.9642  140.3081  155.4997 H   0  0  0  0  0  0  0  0  0  0  0  0  # atno 8009 bound_to 7997
  156.2944  140.2265  156.4730 H   0  0  0  0  0  0  0  0  0  0  0  0  # atno 8010 bound_to 7997
  139.9022  144.6322  150.8624 H   0  0  0  0  0  0  0  0  0  0  0  0  # atno 10167 bound_to 10162
  156.1805  130.4150  149.9514 H   0  0  0  0  0  0  0  0  0  0  0  0  # atno 10718 bound_to 10713
  153.0114  135.6330  154.1844 H   0  0  0  0  0  0  0  0  0  0  0  0  # atno 10763 bound_to 10752
  154.1586  135.2825  155.3117 H   0  0  0  0  0  0  0  0  0  0  0  0  # atno 10764 bound_to 10752
  154.5999  135.5591  153.7424 H   0  0  0  0  0  0  0  0  0  0  0  0  # atno 10765 bound_to 10752
  140.7788  134.3103  157.5052 H   0  0  0  0  0  0  0  0  0  0  0  0  # atno 11005 bound_to 11000
  144.6995  139.8828  143.7448 LP  0  0  0  0  0  0  0  0  0  0  0  0  # atno 17320 bound_to 7965
  146.0877  139.3866  143.0425 LP  0  0  0  0  0  0  0  0  0  0  0  0  # atno 17321 bound_to 7965
  140.7704  143.3428  151.2173 LP  0  0  0  0  0  0  0  0  0  0  0  0  # atno 17342 bound_to 10162
  139.7015  143.9525  152.2907 LP  0  0  0  0  0  0  0  0  0  0  0  0  # atno 17343 bound_to 10162
  156.7287  130.9035  151.3624 LP  0  0  0  0  0  0  0  0  0  0  0  0  # atno 17370 bound_to 10713
  157.6864  130.9190  150.0399 LP  0  0  0  0  0  0  0  0  0  0  0  0  # atno 17371 bound_to 10713
  139.8745  134.9306  156.3506 LP  0  0  0  0  0  0  0  0  0  0  0  0  # atno 17394 bound_to 11000
  140.9502  133.7456  156.0262 LP  0  0  0  0  0  0  0  0  0  0  0  0  # atno 17395 bound_to 11000

$$$$
