AV-unprocessed.smi:1815|AV-procd|sdf|7356|dock5
  -GOLD-   22720 9 13D 1   1.00000     0.00000
 Structure written by MMmdl.
 40 41  0  0  0  0  0  0  0  0  2 V2000
  148.1876  133.9328  153.5819 C   0  0  0  0  0  0  0  0  0  0  0  0
  146.6565  133.7803  153.5469 C   0  0  1  0  0  0  0  0  0  0  0  0
  145.9172  135.0784  153.1676 C   0  0  0  0  0  0  0  0  0  0  0  0
  146.0586  135.3756  151.7222 N   0  3  2  0  0  0  0  0  0  0  0  0
  145.4124  136.6575  151.3464 C   0  0  0  0  0  0  0  0  0  0  0  0
  145.7507  137.7997  152.3236 C   0  0  0  0  0  0  0  0  0  0  0  0
  147.1737  137.8259  152.6413 N   0  0  0  0  0  0  0  0  0  0  0  0
  147.7452  138.6725  153.5100 C   0  0  0  0  0  0  0  0  0  0  0  0
  147.1148  139.5288  154.1314 O   0  0  0  0  0  0  0  0  0  0  0  0
  149.0701  138.4623  153.6003 N   0  0  0  0  0  0  0  0  0  0  0  0
  150.0136  139.1511  154.4075 C   0  0  0  0  0  0  0  0  0  0  0  0
  149.7634  140.2996  155.0470 N   0  0  0  0  0  0  0  0  0  0  0  0
  150.8720  140.7509  155.7677 C   0  0  0  0  0  0  0  0  0  0  0  0
  151.9662  139.9285  155.6635 C   0  0  0  0  0  0  0  0  0  0  0  0
  151.6452  138.5452  154.6518 S   0  0  0  0  0  0  0  0  0  0  0  0
  145.6077  134.2172  150.9138 C   0  0  0  0  0  0  0  0  0  0  0  0
  146.3937  132.9530  151.3054 C   0  0  2  0  0  0  0  0  0  0  0  0
  145.9003  131.7127  150.5520 C   0  0  0  0  0  0  0  0  0  0  0  0
  146.2379  132.7093  152.7009 O   0  0  0  0  0  0  0  0  0  0  0  0
  148.4854  134.6605  154.3373 H   0  0  0  0  0  0  0  0  0  0  0  0
  148.5930  134.2723  152.6291 H   0  0  0  0  0  0  0  0  0  0  0  0
  148.6666  132.9860  153.8318 H   0  0  0  0  0  0  0  0  0  0  0  0
  146.3459  133.5056  154.5555 H   0  0  0  0  0  0  0  0  0  0  0  0
  144.8571  134.9800  153.4067 H   0  0  0  0  0  0  0  0  0  0  0  0
  146.2983  135.9087  153.7638 H   0  0  0  0  0  0  0  0  0  0  0  0
  145.6884  136.9272  150.3258 H   0  0  0  0  0  0  0  0  0  0  0  0
  144.3310  136.5125  151.3449 H   0  0  0  0  0  0  0  0  0  0  0  0
  145.4425  138.7620  151.9109 H   0  0  0  0  0  0  0  0  0  0  0  0
  145.2139  137.6781  153.2636 H   0  0  0  0  0  0  0  0  0  0  0  0
  147.7611  137.1513  152.1727 H   0  0  0  0  0  0  0  0  0  0  0  0
  149.4493  137.7238  153.0265 H   0  0  0  0  0  0  0  0  0  0  0  0
  150.7943  141.6703  156.3290 H   0  0  0  0  0  0  0  0  0  0  0  0
  152.9373  140.0522  156.1194 H   0  0  0  0  0  0  0  0  0  0  0  0
  144.5380  134.0610  151.0640 H   0  0  0  0  0  0  0  0  0  0  0  0
  145.7557  134.4130  149.8525 H   0  0  0  0  0  0  0  0  0  0  0  0
  147.4493  133.0914  151.0708 H   0  0  0  0  0  0  0  0  0  0  0  0
  146.0011  131.8417  149.4740 H   0  0  0  0  0  0  0  0  0  0  0  0
  144.8510  131.5096  150.7684 H   0  0  0  0  0  0  0  0  0  0  0  0
  146.4752  130.8308  150.8356 H   0  0  0  0  0  0  0  0  0  0  0  0
  147.0475  135.4914  151.5516 H   0  0  0  0  0  0  0  0  0  0  0  0
  1  2  1  0  0  0  0
  1 20  1  0  0  0  0
  1 21  1  0  0  0  0
  1 22  1  0  0  0  0
  2 19  1  0  0  0  0
  2  3  1  0  0  0  0
  2 23  1  0  0  0  0
  3  4  1  0  0  0  0
  3 24  1  0  0  0  0
  3 25  1  0  0  0  0
  4  5  1  0  0  0  0
  4 16  1  0  0  0  0
  4 40  1  0  0  0  0
  5  6  1  0  0  0  0
  5 26  1  0  0  0  0
  5 27  1  0  0  0  0
  6  7  1  0  0  0  0
  6 28  1  0  0  0  0
  6 29  1  0  0  0  0
  7  8  1  0  0  0  0
  7 30  1  0  0  0  0
  8  9  2  0  0  0  0
  8 10  1  0  0  0  0
 10 11  1  0  0  0  0
 10 31  1  0  0  0  0
 11 15  1  0  0  0  0
 11 12  2  0  0  0  0
 12 13  1  0  0  0  0
 13 14  2  0  0  0  0
 13 32  1  0  0  0  0
 14 15  1  0  0  0  0
 14 33  1  0  0  0  0
 16 17  1  0  0  0  0
 16 34  1  0  0  0  0
 16 35  1  0  0  0  0
 17 18  1  0  0  0  0
 17 19  1  0  0  0  0
 17 36  1  0  0  0  0
 18 37  1  0  0  0  0
 18 38  1  0  0  0  0
 18 39  1  0  0  0  0
M  CHG  1   4   1
M  END
> <s_m_source_file>
AV-unprocessed.smi

> <i_m_source_file_index>
1815

> <i_lp_mmshare_version>
43012

> <i_f3d_flags>
0

> <s_epik_input>
W0NIM11bQ0BASF0xW0NIMl1OKFtDSDJdW0NASF0oTzEpW0NIM10pW0NIMl1bQ0gyXVtOSF1DKD1PKVtOSF1jMm5bY0hdW2NIXXMy

> <s_epik_cmdline>
J2VwaWtfcHl0aG9uJywgJy1waCcsICc3LjAnLCAnLXRuJywgJzgnLCAnLW1hJywgJzIwMCcsICctbWV0YWxfYmluZGluZycsICctaW1hZScsICc8aW5maWxlLm1hZT4nLCAnLW9tYWUnLCAnPG91dGZpbGUubWFlPic=

> <r_lp_tautomer_probability>
0.999

> <r_epik_Ionization_Penalty>
0.695838

> <r_epik_Ionization_Penalty_Charging>
0.695697

> <r_epik_Ionization_Penalty_Neutral>
0.000141198

> <r_epik_State_Penalty>
0.717972

> <r_epik_Charging_Adjusted_Penalty>
1.41367

> <i_epik_Tot_Q>
1

> <i_epik_Tot_abs_Q>
1

> <r_epik_Metal_State_Penalty>
0.756405

> <b_epik_Metal_Only>
0

> <s_lp_Force_Field>
OPLS_2005

> <r_lp_Energy>
15.0285

> <b_lp_Chiralities_Consistent>
1

> <s_lp_Variant>
AV-unprocessed.smi:1815-7

> <Gold.Version>
5.8.1

> <Gold.Id.Protein>
6NUR|6NUR_protein|mol2

> <Gold.PLP.Fitness>
41.6315

> <Gold.PLP.PLP>
-30.3073

> <Gold.PLP.part.hbond>
-3.8880

> <Gold.PLP.part.metal>
0.0000

> <Gold.PLP.part.buried>
1.6049

> <Gold.PLP.part.nonpolar>
-28.2150

> <Gold.PLP.part.repulsive>
0.4988

> <Gold.PLP.ligand.clash>
0.0000

> <Gold.PLP.ligand.torsion>
0.1589

> <Gold.PLP.Chemscore.Hbond>
3.8710

> <Gold.PLP.Chemscore.CHOScore>
0.0000

> <Gold.PLP.Chemscore.Metal>
0.0000

> <Gold.Chemscore.Hbonds>
donor molecule, donor type, donor heavy atom, donor atom, acceptor molecule, acceptor atom, score
      L1  H     4    40       P1  7948  2.00
      L1  H     7    30       P1  7948  0.98
      L1  H    10    31       P1  7948  0.90

> <Gold.PLP.Chemscore.Internal.Correction>
0.0291

> <Gold.Rescore>
     Score         DG    S(hbond)    S(metal)    S(lipo)     H(rot)  DE(clash)    DE(int)     intcor
     15.42     -17.83       2.65        0.00      65.67       1.64       0.27       2.14       ----

> <Gold.Chemscore.Fitness>
15.4210

> <Gold.Chemscore.DG>
-17.8293

> <Gold.Chemscore.ZeroCoef>
-5.4800

> <Gold.Chemscore.Hbond>
2.6527

> <Gold.Chemscore.Metal>
0.0000

> <Gold.Chemscore.Lipo>
65.6737

> <Gold.Chemscore.Internal_Hbond>
0.0000

> <Gold.Chemscore.DEClash>
0.2665

> <Gold.Chemscore.DEInternal>
2.1418

> <Gold.Chemscore.Rot>
1.6385

> <Gold.Chemscore.Internal.Correction>
   9.000000E+99

> <Gold.Chemscore.Hbonds>
donor molecule, donor type, donor heavy atom, donor atom, acceptor molecule, acceptor atom, score
      L1  H     4    40       P1  7948  0.92
      L1  H     7    30       P1  7948  0.92
      L1  H    10    31       P1  7948  0.79

> <Gold.Chemscore.Hbond.Weighted>
-8.8600

> <Gold.Chemscore.Metal.Weighted>
-0.0000

> <Gold.Chemscore.Lipo.Weighted>
-7.6838

> <Gold.Chemscore.Internal_Hbond.Weighted>
0.0000

> <Gold.Chemscore.DEClash.Weighted>
0.2665

> <Gold.Chemscore.DEInternal.Weighted>
2.1418

> <Gold.Chemscore.Rot.Weighted>
4.1945

> <Gold.Chemscore.Internal.Correction.Weighted>
   9.000000E+99

> <Gold.Protein.RotatedTorsions>
[ 6907 6896 6895 6894 ] final -158.05 input  -60.11 | X-H torsion
[ 7974 7965 7964 7962 ] final  -73.58 input  175.53 | X-H torsion
[ 8008 7997 7996 7995 ] final -104.48 input   59.86 | X-H torsion
[ 10167 10162 10161 10158 ] final  -96.36 input  -65.29 | X-H torsion
[ 10718 10713 10712 10709 ] final  -48.43 input   66.30 | X-H torsion
[ 10763 10752 10751 10750 ] final -179.61 input  -60.55 | X-H torsion
[ 11005 11000 10999 10996 ] final -144.31 input  -57.11 | X-H torsion

> <Gold.Protein.ActiveResidues>
 VAL166  LYS551  ARG553  GLY616  TRP617  ASP618  TYR619  PRO620  LYS621  CYS622 
 ASP623  PHE694  ASN695  SER759  ASP760  ASP761  ALA762  ILE779  LEU786  VAL792 
 PHE793  MET794  SER795  GLU796  ALA797  LYS798  CYS799  TRP800  GLU811  SER814 

> <Gold.Protein.RotatedAtoms>
  151.3122  133.4075  159.2647 H   0  0  0  0  0  0  0  0  0  0  0  0  # atno 6907 bound_to 6896
  151.0105  134.9393  159.8014 H   0  0  0  0  0  0  0  0  0  0  0  0  # atno 6908 bound_to 6896
  152.5299  134.3086  159.9158 H   0  0  0  0  0  0  0  0  0  0  0  0  # atno 6909 bound_to 6896
  145.6503  140.9284  143.0988 H   0  0  0  0  0  0  0  0  0  0  0  0  # atno 7974 bound_to 7965
  154.8860  140.0417  157.1810 H   0  0  0  0  0  0  0  0  0  0  0  0  # atno 8008 bound_to 7997
  154.8590  140.2941  155.5530 H   0  0  0  0  0  0  0  0  0  0  0  0  # atno 8009 bound_to 7997
  156.2998  140.2450  156.3561 H   0  0  0  0  0  0  0  0  0  0  0  0  # atno 8010 bound_to 7997
  140.2946  143.3200  152.0311 H   0  0  0  0  0  0  0  0  0  0  0  0  # atno 10167 bound_to 10162
  156.1989  130.4155  149.9268 H   0  0  0  0  0  0  0  0  0  0  0  0  # atno 10718 bound_to 10713
  154.5328  135.2801  155.1165 H   0  0  0  0  0  0  0  0  0  0  0  0  # atno 10763 bound_to 10752
  154.2678  135.6309  153.5302 H   0  0  0  0  0  0  0  0  0  0  0  0  # atno 10764 bound_to 10752
  152.9961  135.5621  154.5846 H   0  0  0  0  0  0  0  0  0  0  0  0  # atno 10765 bound_to 10752
  140.8038  134.2826  157.4968 H   0  0  0  0  0  0  0  0  0  0  0  0  # atno 11005 bound_to 11000
  144.7125  139.8318  143.7410 LP  0  0  0  0  0  0  0  0  0  0  0  0  # atno 17320 bound_to 7965
  146.1209  139.4227  143.0229 LP  0  0  0  0  0  0  0  0  0  0  0  0  # atno 17321 bound_to 7965
  139.4929  144.6500  151.6696 LP  0  0  0  0  0  0  0  0  0  0  0  0  # atno 17342 bound_to 10162
  140.5703  144.0120  150.6213 LP  0  0  0  0  0  0  0  0  0  0  0  0  # atno 17343 bound_to 10162
  156.6985  130.8923  151.3596 LP  0  0  0  0  0  0  0  0  0  0  0  0  # atno 17370 bound_to 10713
  157.6974  130.9296  150.0684 LP  0  0  0  0  0  0  0  0  0  0  0  0  # atno 17371 bound_to 10713
  139.8719  134.9444  156.3881 LP  0  0  0  0  0  0  0  0  0  0  0  0  # atno 17394 bound_to 11000
  140.9268  133.7607  155.9975 LP  0  0  0  0  0  0  0  0  0  0  0  0  # atno 17395 bound_to 11000

$$$$
