AV-unprocessed.smi:1964|AV-procd|sdf|7928|dock10
  -GOLD-   2272010103D 1   1.00000     0.00000
 Structure written by MMmdl.
 46 48  0  0  0  0  0  0  0  0  1 V2000
  152.0471  141.4024  159.2162 C   0  0  0  0  0  0  0  0  0  0  0  0
  152.1758  142.9315  159.3395 C   0  0  2  0  0  0  0  0  0  0  0  0
  152.4264  143.3360  160.8067 C   0  0  0  0  0  0  0  0  0  0  0  0
  152.5752  144.8569  160.9640 C   0  0  0  0  0  0  0  0  0  0  0  0
  151.3477  145.5911  160.4078 C   0  0  0  0  0  0  0  0  0  0  0  0
  151.0933  145.2082  158.9428 C   0  0  0  0  0  0  0  0  0  0  0  0
  150.9453  143.6813  158.7701 C   0  0  1  0  0  0  0  0  0  0  0  0
  150.7603  143.3561  157.3575 N   0  0  0  0  0  0  0  0  0  0  0  0
  150.2239  142.2218  156.8829 C   0  0  0  0  0  0  0  0  0  0  0  0
  149.8084  141.3170  157.6086 O   0  0  0  0  0  0  0  0  0  0  0  0
  150.1552  142.1079  155.3522 C   0  0  0  0  0  0  0  0  0  0  0  0
  149.7039  140.7816  154.8765 N   0  0  0  0  0  0  0  0  0  0  0  0
  150.5820  139.6762  155.0131 C   0  0  0  0  0  0  0  0  0  0  0  0
  151.6886  139.8054  155.5393 O   0  0  0  0  0  0  0  0  0  0  0  0
  150.0863  138.4097  154.4791 C   0  0  0  0  0  0  0  0  0  0  0  0
  150.9520  137.2811  154.5715 C   0  0  0  0  0  0  0  0  0  0  0  0
  151.6723  136.3791  154.6560 N   0  0  0  0  0  0  0  0  0  0  0  0
  148.8621  138.3230  153.9190 C   0  0  0  0  0  0  0  0  0  0  0  0
  148.0094  139.4017  153.8302 N   0  0  0  0  0  0  0  0  0  0  0  0
  146.7814  139.3269  153.0897 C   0  0  0  0  0  0  0  0  0  0  0  0
  146.2605  137.9872  152.6072 C   0  0  0  0  0  0  0  0  0  0  0  0
  146.8307  138.9749  151.6191 C   0  0  0  0  0  0  0  0  0  0  0  0
  148.4319  140.6776  154.2630 C   0  0  0  0  0  0  0  0  0  0  0  0
  147.7220  141.6737  154.1019 O   0  0  0  0  0  0  0  0  0  0  0  0
  151.1733  141.0348  159.7549 H   0  0  0  0  0  0  0  0  0  0  0  0
  152.9248  140.9028  159.6270 H   0  0  0  0  0  0  0  0  0  0  0  0
  151.9544  141.0863  158.1770 H   0  0  0  0  0  0  0  0  0  0  0  0
  153.0516  143.2321  158.7620 H   0  0  0  0  0  0  0  0  0  0  0  0
  151.6023  142.9867  161.4306 H   0  0  0  0  0  0  0  0  0  0  0  0
  153.3247  142.8438  161.1812 H   0  0  0  0  0  0  0  0  0  0  0  0
  152.7145  145.1100  162.0154 H   0  0  0  0  0  0  0  0  0  0  0  0
  153.4723  145.1939  160.4430 H   0  0  0  0  0  0  0  0  0  0  0  0
  150.4703  145.3452  161.0073 H   0  0  0  0  0  0  0  0  0  0  0  0
  151.4884  146.6692  160.4920 H   0  0  0  0  0  0  0  0  0  0  0  0
  150.1963  145.7170  158.5875 H   0  0  0  0  0  0  0  0  0  0  0  0
  151.9168  145.5715  158.3261 H   0  0  0  0  0  0  0  0  0  0  0  0
  150.0643  143.3526  159.3255 H   0  0  0  0  0  0  0  0  0  0  0  0
  151.0751  144.0447  156.6893 H   0  0  0  0  0  0  0  0  0  0  0  0
  149.5063  142.8994  154.9741 H   0  0  0  0  0  0  0  0  0  0  0  0
  151.1369  142.3548  154.9444 H   0  0  0  0  0  0  0  0  0  0  0  0
  148.5324  137.3708  153.5288 H   0  0  0  0  0  0  0  0  0  0  0  0
  146.0234  140.0539  153.3760 H   0  0  0  0  0  0  0  0  0  0  0  0
  146.8522  137.0978  152.8160 H   0  0  0  0  0  0  0  0  0  0  0  0
  145.1825  137.8399  152.6078 H   0  0  0  0  0  0  0  0  0  0  0  0
  146.1325  139.4843  150.9582 H   0  0  0  0  0  0  0  0  0  0  0  0
  147.7980  138.7379  151.1804 H   0  0  0  0  0  0  0  0  0  0  0  0
  1  2  1  0  0  0  0
  1 25  1  0  0  0  0
  1 26  1  0  0  0  0
  1 27  1  0  0  0  0
  2  7  1  0  0  0  0
  2  3  1  0  0  0  0
  2 28  1  0  0  0  0
  3  4  1  0  0  0  0
  3 29  1  0  0  0  0
  3 30  1  0  0  0  0
  4  5  1  0  0  0  0
  4 31  1  0  0  0  0
  4 32  1  0  0  0  0
  5  6  1  0  0  0  0
  5 33  1  0  0  0  0
  5 34  1  0  0  0  0
  6  7  1  0  0  0  0
  6 35  1  0  0  0  0
  6 36  1  0  0  0  0
  7  8  1  0  0  0  0
  7 37  1  0  0  0  0
  8  9  1  0  0  0  0
  8 38  1  0  0  0  0
  9 10  2  0  0  0  0
  9 11  1  0  0  0  0
 11 12  1  0  0  0  0
 11 39  1  0  0  0  0
 11 40  1  0  0  0  0
 12 23  1  0  0  0  0
 12 13  1  0  0  0  0
 13 14  2  0  0  0  0
 13 15  1  0  0  0  0
 15 16  1  0  0  0  0
 15 18  2  0  0  0  0
 16 17  3  0  0  0  0
 18 19  1  0  0  0  0
 18 41  1  0  0  0  0
 19 20  1  0  0  0  0
 19 23  1  0  0  0  0
 20 22  1  0  0  0  0
 20 21  1  0  0  0  0
 20 42  1  0  0  0  0
 21 22  1  0  0  0  0
 21 43  1  0  0  0  0
 21 44  1  0  0  0  0
 22 45  1  0  0  0  0
 22 46  1  0  0  0  0
 23 24  2  0  0  0  0
M  END
> <s_m_source_file>
AV-unprocessed.smi

> <i_m_source_file_index>
1964

> <i_lp_mmshare_version>
43012

> <i_f3d_flags>
0

> <s_epik_input>
W0NIM11bQ0BASF0xW0NIMl1bQ0gyXVtDSDJdW0NIMl1bQ0BIXTFbTkhdQyg9TylbQ0gyXW4yYyg9TyljKEMjTilbY0hdbihjMj1PKVtDSF0zW0NIMl1bQ0gyXTM=

> <s_epik_cmdline>
J2VwaWtfcHl0aG9uJywgJy1waCcsICc3LjAnLCAnLXRuJywgJzgnLCAnLW1hJywgJzIwMCcsICctbWV0YWxfYmluZGluZycsICctaW1hZScsICc8aW5maWxlLm1hZT4nLCAnLW9tYWUnLCAnPG91dGZpbGUubWFlPic=

> <r_lp_tautomer_probability>
1

> <r_epik_Ionization_Penalty>
1.91372e-08

> <r_epik_Ionization_Penalty_Charging>
9.0283e-11

> <r_epik_Ionization_Penalty_Neutral>
1.90469e-08

> <r_epik_State_Penalty>
-0

> <r_epik_Charging_Adjusted_Penalty>
9.0283e-11

> <i_epik_Tot_Q>
0

> <i_epik_Tot_abs_Q>
0

> <r_epik_Metal_State_Penalty>
-0

> <b_epik_Metal_Only>
0

> <s_lp_Force_Field>
OPLS_2005

> <r_lp_Energy>
35.656

> <b_lp_Chiralities_Consistent>
1

> <s_lp_Variant>
AV-unprocessed.smi:1964-1

> <Gold.Version>
5.8.1

> <Gold.Id.Protein>
6NUR|6NUR_protein|mol2

> <Gold.PLP.Fitness>
48.8074

> <Gold.PLP.PLP>
-43.6171

> <Gold.PLP.part.hbond>
-2.0000

> <Gold.PLP.part.metal>
0.0000

> <Gold.PLP.part.buried>
2.0460

> <Gold.PLP.part.nonpolar>
-44.1408

> <Gold.PLP.part.repulsive>
0.3663

> <Gold.PLP.ligand.clash>
0.0000

> <Gold.PLP.ligand.torsion>
0.5128

> <Gold.PLP.Chemscore.Hbond>
1.0000

> <Gold.PLP.Chemscore.CHOScore>
1.0000

> <Gold.PLP.Chemscore.Metal>
0.0000

> <Gold.Chemscore.Hbonds>
donor molecule, donor type, donor heavy atom, donor atom, acceptor molecule, acceptor atom, score
      P1  H 10752 10765       L1    17  0.93
      L1  C    18    41       P1  7948  1.00

> <Gold.PLP.Chemscore.Internal.Correction>
0.2160

> <Gold.Rescore>
     Score         DG    S(hbond)    S(metal)    S(lipo)     H(rot)  DE(clash)    DE(int)     intcor
     13.71     -18.63       1.00        0.00     121.19       1.70       3.40       1.52       ----

> <Gold.Chemscore.Fitness>
13.7133

> <Gold.Chemscore.DG>
-18.6302

> <Gold.Chemscore.ZeroCoef>
-5.4800

> <Gold.Chemscore.Hbond>
0.9978

> <Gold.Chemscore.Metal>
0.0000

> <Gold.Chemscore.Lipo>
121.1909

> <Gold.Chemscore.Internal_Hbond>
0.0000

> <Gold.Chemscore.DEClash>
3.3984

> <Gold.Chemscore.DEInternal>
1.5185

> <Gold.Chemscore.Rot>
1.7038

> <Gold.Chemscore.Internal.Correction>
   9.000000E+99

> <Gold.Chemscore.Hbonds>
donor molecule, donor type, donor heavy atom, donor atom, acceptor molecule, acceptor atom, score
      P1  H 10752 10765       L1    17  0.88

> <Gold.Chemscore.Hbond.Weighted>
-3.3326

> <Gold.Chemscore.Metal.Weighted>
-0.0000

> <Gold.Chemscore.Lipo.Weighted>
-14.1793

> <Gold.Chemscore.Internal_Hbond.Weighted>
0.0000

> <Gold.Chemscore.DEClash.Weighted>
3.3984

> <Gold.Chemscore.DEInternal.Weighted>
1.5185

> <Gold.Chemscore.Rot.Weighted>
4.3618

> <Gold.Chemscore.Internal.Correction.Weighted>
   9.000000E+99

> <Gold.Protein.RotatedTorsions>
[ 6907 6896 6895 6894 ] final   49.38 input  -60.11 | X-H torsion
[ 7974 7965 7964 7962 ] final  150.88 input  175.53 | X-H torsion
[ 8008 7997 7996 7995 ] final -128.27 input   59.86 | X-H torsion
[ 10167 10162 10161 10158 ] final    6.16 input  -65.29 | X-H torsion
[ 10718 10713 10712 10709 ] final -104.25 input   66.30 | X-H torsion
[ 10763 10752 10751 10750 ] final  160.78 input  -60.55 | X-H torsion
[ 11005 11000 10999 10996 ] final -108.41 input  -57.11 | X-H torsion

> <Gold.Protein.ActiveResidues>
 VAL166  LYS551  ARG553  GLY616  TRP617  ASP618  TYR619  PRO620  LYS621  CYS622 
 ASP623  PHE694  ASN695  SER759  ASP760  ASP761  ALA762  ILE779  LEU786  VAL792 
 PHE793  MET794  SER795  GLU796  ALA797  LYS798  CYS799  TRP800  GLU811  SER814 

> <Gold.Protein.RotatedAtoms>
  152.2901  134.7731  160.0379 H   0  0  0  0  0  0  0  0  0  0  0  0  # atno 6907 bound_to 6896
  151.8280  133.3399  159.3612 H   0  0  0  0  0  0  0  0  0  0  0  0  # atno 6908 bound_to 6896
  150.7226  134.5439  159.5805 H   0  0  0  0  0  0  0  0  0  0  0  0  # atno 6909 bound_to 6896
  144.8332  139.6465  143.6049 H   0  0  0  0  0  0  0  0  0  0  0  0  # atno 7974 bound_to 7965
  155.2598  140.0435  157.2996 H   0  0  0  0  0  0  0  0  0  0  0  0  # atno 8008 bound_to 7997
  154.5717  140.2376  155.8151 H   0  0  0  0  0  0  0  0  0  0  0  0  # atno 8009 bound_to 7997
  156.2128  140.2994  155.9778 H   0  0  0  0  0  0  0  0  0  0  0  0  # atno 8010 bound_to 7997
  140.6443  143.7700  150.7475 H   0  0  0  0  0  0  0  0  0  0  0  0  # atno 10167 bound_to 10162
  156.0297  130.5506  150.7369 H   0  0  0  0  0  0  0  0  0  0  0  0  # atno 10718 bound_to 10713
  154.2527  135.2771  155.2810 H   0  0  0  0  0  0  0  0  0  0  0  0  # atno 10763 bound_to 10752
  154.5451  135.5691  153.6876 H   0  0  0  0  0  0  0  0  0  0  0  0  # atno 10764 bound_to 10752
  152.9977  135.6260  154.2675 H   0  0  0  0  0  0  0  0  0  0  0  0  # atno 10765 bound_to 10752
  141.0903  133.9067  157.2091 H   0  0  0  0  0  0  0  0  0  0  0  0  # atno 11005 bound_to 11000
  146.2634  139.6462  142.9346 LP  0  0  0  0  0  0  0  0  0  0  0  0  # atno 17320 bound_to 7965
  145.4850  141.0438  143.2625 LP  0  0  0  0  0  0  0  0  0  0  0  0  # atno 17321 bound_to 7965
  140.1338  143.4502  152.2238 LP  0  0  0  0  0  0  0  0  0  0  0  0  # atno 17342 bound_to 10162
  139.5653  144.7431  151.4040 LP  0  0  0  0  0  0  0  0  0  0  0  0  # atno 17343 bound_to 10162
  157.4948  131.0914  151.0385 LP  0  0  0  0  0  0  0  0  0  0  0  0  # atno 17370 bound_to 10713
  157.0782  130.5892  149.5415 LP  0  0  0  0  0  0  0  0  0  0  0  0  # atno 17371 bound_to 10713
  139.9727  135.0123  156.9554 LP  0  0  0  0  0  0  0  0  0  0  0  0  # atno 17394 bound_to 11000
  140.5268  134.0853  155.7305 LP  0  0  0  0  0  0  0  0  0  0  0  0  # atno 17395 bound_to 11000

$$$$
