AV-unprocessed.smi:59|AV-procd|sdf|591|dock1
  -GOLD-   2262016483D 1   1.00000     0.00000
 Structure written by MMmdl.
 29 30  0  0  0  0  0  0  0  0  2 V2000
  148.5390  142.2309  154.7563 C   0  0  0  0  0  0  0  0  0  0  0  0
  149.1744  140.9173  154.7169 N   0  0  0  0  0  0  0  0  0  0  0  0
  148.6186  139.8114  154.2044 C   0  0  0  0  0  0  0  0  0  0  0  0
  147.4702  139.7067  153.7727 O   0  0  0  0  0  0  0  0  0  0  0  0
  149.6339  138.6812  154.1654 C   0  0  2  0  0  0  0  0  0  0  0  0
  149.0632  137.4388  154.5295 O   0  0  0  0  0  0  0  0  0  0  0  0
  150.6974  139.1665  155.1645 C   0  0  1  0  0  0  0  0  0  0  0  0
  152.1128  138.6767  154.8239 C   0  0  0  0  0  0  0  0  0  0  0  0
  153.0125  139.5381  154.7050 O   0  0  0  0  0  0  0  0  0  0  0  0
  152.2749  137.4423  154.7080 O   0  5  0  0  0  0  0  0  0  0  0  0
  150.5475  140.7043  155.1769 C   0  0  2  0  0  0  0  0  0  0  0  0
  150.8614  141.2792  156.5406 C   0  0  0  0  0  0  0  0  0  0  0  0
  151.1494  140.5965  157.7590 C   0  0  0  0  0  0  0  0  0  0  0  0
  151.3898  141.4175  158.7680 N   0  0  0  0  0  0  0  0  0  0  0  0
  151.2774  142.6490  158.2304 N   0  0  0  0  0  0  0  0  0  0  0  0
  151.4878  143.8145  159.0622 C   0  0  0  0  0  0  0  0  0  0  0  0
  150.9675  142.5962  156.8891 C   0  0  0  0  0  0  0  0  0  0  0  0
  150.0243  138.6105  153.1490 H   0  0  0  0  0  0  0  0  0  0  0  0
  150.4259  138.7822  156.1509 H   0  0  0  0  0  0  0  0  0  0  0  0
  151.1965  141.1529  154.4223 H   0  0  0  0  0  0  0  0  0  0  0  0
  148.0586  142.4593  153.8041 H   0  0  0  0  0  0  0  0  0  0  0  0
  149.2684  143.0162  154.9560 H   0  0  0  0  0  0  0  0  0  0  0  0
  147.7799  142.2611  155.5383 H   0  0  0  0  0  0  0  0  0  0  0  0
  149.1461  136.8484  153.7964 H   0  0  0  0  0  0  0  0  0  0  0  0
  151.1895  139.5324  157.9383 H   0  0  0  0  0  0  0  0  0  0  0  0
  151.0938  144.7021  158.5665 H   0  0  0  0  0  0  0  0  0  0  0  0
  152.5549  143.9503  159.2400 H   0  0  0  0  0  0  0  0  0  0  0  0
  150.9772  143.6884  160.0176 H   0  0  0  0  0  0  0  0  0  0  0  0
  150.8489  143.4907  156.2953 H   0  0  0  0  0  0  0  0  0  0  0  0
  1  2  1  0  0  0  0
  1 21  1  0  0  0  0
  1 22  1  0  0  0  0
  1 23  1  0  0  0  0
  2 11  1  0  0  0  0
  2  3  1  0  0  0  0
  3  4  2  0  0  0  0
  3  5  1  0  0  0  0
  5 18  1  0  0  0  0
  5  6  1  0  0  0  0
  5  7  1  0  0  0  0
  6 24  1  0  0  0  0
  7 19  1  0  0  0  0
  7  8  1  0  0  0  0
  7 11  1  0  0  0  0
  8  9  2  0  0  0  0
  8 10  1  0  0  0  0
 11 20  1  0  0  0  0
 11 12  1  0  0  0  0
 12 17  2  0  0  0  0
 12 13  1  0  0  0  0
 13 14  2  0  0  0  0
 13 25  1  0  0  0  0
 14 15  1  0  0  0  0
 15 16  1  0  0  0  0
 15 17  1  0  0  0  0
 16 26  1  0  0  0  0
 16 27  1  0  0  0  0
 16 28  1  0  0  0  0
 17 29  1  0  0  0  0
M  CHG  1  10  -1
M  END
> <s_m_source_file>
AV-unprocessed.smi

> <i_m_source_file_index>
59

> <i_lp_mmshare_version>
43012

> <i_f3d_flags>
0

> <s_epik_input>
W0NIM11OMUMoPU8pW0NASF0oW09IXSlbQ0BIXShDKD1PKVtPSF0pW0NASF0xYzJbY0hdbm4oW0NIM10pW2NIXTI=

> <s_epik_cmdline>
J2VwaWtfcHl0aG9uJywgJy1waCcsICc3LjAnLCAnLXRuJywgJzgnLCAnLW1hJywgJzIwMCcsICctbWV0YWxfYmluZGluZycsICctaW1hZScsICc8aW5maWxlLm1hZT4nLCAnLW9tYWUnLCAnPG91dGZpbGUubWFlPic=

> <r_lp_tautomer_probability>
1

> <r_epik_Ionization_Penalty>
0.00173515

> <r_epik_Ionization_Penalty_Charging>
0.00120567

> <r_epik_Ionization_Penalty_Neutral>
0.000529476

> <r_epik_State_Penalty>
-0

> <r_epik_Charging_Adjusted_Penalty>
0.00120567

> <i_epik_Tot_Q>
-1

> <i_epik_Tot_abs_Q>
1

> <r_epik_Metal_State_Penalty>
-0

> <b_epik_Metal_Only>
0

> <s_lp_Force_Field>
OPLS_2005

> <r_lp_Energy>
8.8991

> <b_lp_Chiralities_Consistent>
1

> <s_lp_Variant>
AV-unprocessed.smi:59-7

> <Gold.Version>
5.8.1

> <Gold.Id.Protein>
6NUR|6NUR_protein|mol2

> <Gold.PLP.Fitness>
47.7186

> <Gold.PLP.PLP>
-31.3647

> <Gold.PLP.part.hbond>
-4.0000

> <Gold.PLP.part.metal>
0.0000

> <Gold.PLP.part.buried>
2.3017

> <Gold.PLP.part.nonpolar>
-29.8578

> <Gold.PLP.part.repulsive>
0.2930

> <Gold.PLP.ligand.clash>
0.0000

> <Gold.PLP.ligand.torsion>
0.1706

> <Gold.PLP.Chemscore.Hbond>
4.5609

> <Gold.PLP.Chemscore.CHOScore>
1.0000

> <Gold.PLP.Chemscore.Metal>
0.0000

> <Gold.Chemscore.Hbonds>
donor molecule, donor type, donor heavy atom, donor atom, acceptor molecule, acceptor atom, score
      L1  H     6    24       P1  7948  1.00
      P1  H  7989  7998       L1     9  0.12
      P1  H  7997  8009       L1     9  2.00
      P1  H 10752 10763       L1    10  1.44
      L1  C    17    29       P1  8028  1.00

> <Gold.PLP.Chemscore.Internal.Correction>
0.0124

> <Gold.Rescore>
     Score         DG    S(hbond)    S(metal)    S(lipo)     H(rot)  DE(clash)    DE(int)     intcor
     14.31     -15.83       2.68        0.00      56.96       2.06       1.47       0.04       ----

> <Gold.Chemscore.Fitness>
14.3139

> <Gold.Chemscore.DG>
-15.8261

> <Gold.Chemscore.ZeroCoef>
-5.4800

> <Gold.Chemscore.Hbond>
2.6843

> <Gold.Chemscore.Metal>
0.0000

> <Gold.Chemscore.Lipo>
56.9584

> <Gold.Chemscore.Internal_Hbond>
0.0000

> <Gold.Chemscore.DEClash>
1.4687

> <Gold.Chemscore.DEInternal>
0.0436

> <Gold.Chemscore.Rot>
2.0639

> <Gold.Chemscore.Internal.Correction>
   9.000000E+99

> <Gold.Chemscore.Hbonds>
donor molecule, donor type, donor heavy atom, donor atom, acceptor molecule, acceptor atom, score
      L1  H     6    24       P1  7948  0.93
      P1  H  7989  7998       L1     9  0.01
      P1  H  7997  8009       L1     9  0.98
      P1  H 10752 10763       L1    10  0.71

> <Gold.Chemscore.Hbond.Weighted>
-8.9657

> <Gold.Chemscore.Metal.Weighted>
-0.0000

> <Gold.Chemscore.Lipo.Weighted>
-6.6641

> <Gold.Chemscore.Internal_Hbond.Weighted>
0.0000

> <Gold.Chemscore.DEClash.Weighted>
1.4687

> <Gold.Chemscore.DEInternal.Weighted>
0.0436

> <Gold.Chemscore.Rot.Weighted>
5.2837

> <Gold.Chemscore.Internal.Correction.Weighted>
   9.000000E+99

> <Gold.Protein.RotatedTorsions>
[ 6907 6896 6895 6894 ] final -129.29 input  -60.11 | X-H torsion
[ 7974 7965 7964 7962 ] final -112.91 input  175.53 | X-H torsion
[ 8008 7997 7996 7995 ] final -125.45 input   59.86 | X-H torsion
[ 10167 10162 10161 10158 ] final   54.24 input  -65.29 | X-H torsion
[ 10718 10713 10712 10709 ] final  -25.88 input   66.30 | X-H torsion
[ 10763 10752 10751 10750 ] final   48.41 input  -60.55 | X-H torsion
[ 11005 11000 10999 10996 ] final  -85.72 input  -57.11 | X-H torsion

> <Gold.Protein.ActiveResidues>
 VAL166  LYS551  ARG553  GLY616  TRP617  ASP618  TYR619  PRO620  LYS621  CYS622 
 ASP623  PHE694  ASN695  SER759  ASP760  ASP761  ALA762  ILE779  LEU786  VAL792 
 PHE793  MET794  SER795  GLU796  ALA797  LYS798  CYS799  TRP800  GLU811  SER814 

> <Gold.Protein.RotatedAtoms>
  150.9271  133.6810  159.2818 H   0  0  0  0  0  0  0  0  0  0  0  0  # atno 6907 bound_to 6896
  151.4245  135.1001  159.9633 H   0  0  0  0  0  0  0  0  0  0  0  0  # atno 6908 bound_to 6896
  152.5008  133.8716  159.7356 H   0  0  0  0  0  0  0  0  0  0  0  0  # atno 6909 bound_to 6896
  145.1384  140.8764  143.3717 H   0  0  0  0  0  0  0  0  0  0  0  0  # atno 7974 bound_to 7965
  155.2134  140.0419  157.2937 H   0  0  0  0  0  0  0  0  0  0  0  0  # atno 8008 bound_to 7997
  154.5996  140.2448  155.7781 H   0  0  0  0  0  0  0  0  0  0  0  0  # atno 8009 bound_to 7997
  156.2313  140.2937  156.0204 H   0  0  0  0  0  0  0  0  0  0  0  0  # atno 8010 bound_to 7997
  140.2322  144.3674  150.6410 H   0  0  0  0  0  0  0  0  0  0  0  0  # atno 10167 bound_to 10162
  156.4585  130.4499  149.6944 H   0  0  0  0  0  0  0  0  0  0  0  0  # atno 10718 bound_to 10713
  152.9792  135.5945  154.3922 H   0  0  0  0  0  0  0  0  0  0  0  0  # atno 10763 bound_to 10752
  154.3576  135.2767  155.2340 H   0  0  0  0  0  0  0  0  0  0  0  0  # atno 10764 bound_to 10752
  154.4351  135.6027  153.6148 H   0  0  0  0  0  0  0  0  0  0  0  0  # atno 10765 bound_to 10752
  141.1638  133.7415  156.9056 H   0  0  0  0  0  0  0  0  0  0  0  0  # atno 11005 bound_to 11000
  145.0559  139.3144  143.5905 LP  0  0  0  0  0  0  0  0  0  0  0  0  # atno 17320 bound_to 7965
  146.3507  139.9984  142.8678 LP  0  0  0  0  0  0  0  0  0  0  0  0  # atno 17321 bound_to 7965
  140.6176  143.2173  151.6759 LP  0  0  0  0  0  0  0  0  0  0  0  0  # atno 17342 bound_to 10162
  139.5106  144.3538  152.0627 LP  0  0  0  0  0  0  0  0  0  0  0  0  # atno 17343 bound_to 10162
  156.3741  130.7545  151.2532 LP  0  0  0  0  0  0  0  0  0  0  0  0  # atno 17370 bound_to 10713
  157.7499  131.0314  150.4182 LP  0  0  0  0  0  0  0  0  0  0  0  0  # atno 17371 bound_to 10713
  140.1552  134.9203  157.2644 LP  0  0  0  0  0  0  0  0  0  0  0  0  # atno 17394 bound_to 11000
  140.2676  134.3498  155.7385 LP  0  0  0  0  0  0  0  0  0  0  0  0  # atno 17395 bound_to 11000

$$$$
