AV-unprocessed.smi:1893|AV-procd|sdf|7674|dock1
  -GOLD-   22720 9413D 1   1.00000     0.00000
 Structure written by MMmdl.
 43 44  0  0  0  0  0  0  0  0  2 V2000
  145.6686  137.1705  152.4726 C   0  0  0  0  0  0  0  0  0  0  0  0
  145.5335  135.6359  152.5285 C   0  0  1  0  0  0  0  0  0  0  0  0
  145.3435  135.0945  151.0944 C   0  0  0  0  0  0  0  0  0  0  0  0
  145.2209  133.5682  151.0678 C   0  0  0  0  0  0  0  0  0  0  0  0
  146.4422  132.9468  151.7479 C   0  0  0  0  0  0  0  0  0  0  0  0
  146.5969  133.4907  153.1747 C   0  0  0  0  0  0  0  0  0  0  0  0
  146.7006  134.9759  153.1965 N   0  3  2  0  0  0  0  0  0  0  0  0
  146.9855  135.4762  154.5694 C   0  0  0  0  0  0  0  0  0  0  0  0
  148.4415  135.1932  154.9837 C   0  0  0  0  0  0  0  0  0  0  0  0
  149.3480  136.2082  154.4617 N   0  0  0  0  0  0  0  0  0  0  0  0
  150.2240  136.9092  155.1992 C   0  0  0  0  0  0  0  0  0  0  0  0
  150.3694  136.7336  156.4097 O   0  0  0  0  0  0  0  0  0  0  0  0
  151.0450  137.9729  154.4523 C   0  0  2  0  0  0  0  0  0  0  0  0
  152.2423  138.4928  155.2738 C   0  0  0  0  0  0  0  0  0  0  0  0
  150.1774  139.0558  154.0056 N   0  0  0  0  0  0  0  0  0  0  0  0
  148.9865  139.0093  153.4042 C   0  0  0  0  0  0  0  0  0  0  0  0
  148.4500  140.2001  153.1790 N   0  0  0  0  0  0  0  0  0  0  0  0
  149.4279  140.9948  153.7063 C   0  0  0  0  0  0  0  0  0  0  0  0
  150.4782  140.3601  154.2264 N   0  0  0  0  0  0  0  0  0  0  0  0
  144.8298  137.6137  151.9351 H   0  0  0  0  0  0  0  0  0  0  0  0
  146.5816  137.4697  151.9566 H   0  0  0  0  0  0  0  0  0  0  0  0
  145.6764  137.6244  153.4631 H   0  0  0  0  0  0  0  0  0  0  0  0
  144.6390  135.3947  153.1054 H   0  0  0  0  0  0  0  0  0  0  0  0
  144.4536  135.5348  150.6430 H   0  0  0  0  0  0  0  0  0  0  0  0
  146.1853  135.3990  150.4705 H   0  0  0  0  0  0  0  0  0  0  0  0
  144.3096  133.2582  151.5809 H   0  0  0  0  0  0  0  0  0  0  0  0
  145.1395  133.2134  150.0398 H   0  0  0  0  0  0  0  0  0  0  0  0
  146.3432  131.8612  151.7712 H   0  0  0  0  0  0  0  0  0  0  0  0
  147.3410  133.1650  151.1694 H   0  0  0  0  0  0  0  0  0  0  0  0
  145.7513  133.1759  153.7886 H   0  0  0  0  0  0  0  0  0  0  0  0
  147.4928  133.0561  153.6206 H   0  0  0  0  0  0  0  0  0  0  0  0
  146.7552  136.5394  154.6512 H   0  0  0  0  0  0  0  0  0  0  0  0
  146.3251  134.9903  155.2894 H   0  0  0  0  0  0  0  0  0  0  0  0
  148.5259  135.1415  156.0707 H   0  0  0  0  0  0  0  0  0  0  0  0
  148.7722  134.2271  154.6049 H   0  0  0  0  0  0  0  0  0  0  0  0
  149.2926  136.4076  153.4733 H   0  0  0  0  0  0  0  0  0  0  0  0
  151.4504  137.4969  153.5576 H   0  0  0  0  0  0  0  0  0  0  0  0
  152.9087  137.6776  155.5576 H   0  0  0  0  0  0  0  0  0  0  0  0
  151.9257  138.9944  156.1891 H   0  0  0  0  0  0  0  0  0  0  0  0
  152.8294  139.2058  154.6945 H   0  0  0  0  0  0  0  0  0  0  0  0
  148.4990  138.0850  153.1302 H   0  0  0  0  0  0  0  0  0  0  0  0
  149.3601  142.0728  153.7147 H   0  0  0  0  0  0  0  0  0  0  0  0
  147.5139  135.2005  152.6411 H   0  0  0  0  0  0  0  0  0  0  0  0
  1  2  1  0  0  0  0
  1 20  1  0  0  0  0
  1 21  1  0  0  0  0
  1 22  1  0  0  0  0
  2  7  1  0  0  0  0
  2  3  1  0  0  0  0
  2 23  1  0  0  0  0
  3  4  1  0  0  0  0
  3 24  1  0  0  0  0
  3 25  1  0  0  0  0
  4  5  1  0  0  0  0
  4 26  1  0  0  0  0
  4 27  1  0  0  0  0
  5  6  1  0  0  0  0
  5 28  1  0  0  0  0
  5 29  1  0  0  0  0
  6  7  1  0  0  0  0
  6 30  1  0  0  0  0
  6 31  1  0  0  0  0
  7  8  1  0  0  0  0
  7 43  1  0  0  0  0
  8  9  1  0  0  0  0
  8 32  1  0  0  0  0
  8 33  1  0  0  0  0
  9 10  1  0  0  0  0
  9 34  1  0  0  0  0
  9 35  1  0  0  0  0
 10 11  1  0  0  0  0
 10 36  1  0  0  0  0
 11 12  2  0  0  0  0
 11 13  1  0  0  0  0
 13 14  1  0  0  0  0
 13 15  1  0  0  0  0
 13 37  1  0  0  0  0
 14 38  1  0  0  0  0
 14 39  1  0  0  0  0
 14 40  1  0  0  0  0
 15 19  1  0  0  0  0
 15 16  1  0  0  0  0
 16 17  2  0  0  0  0
 16 41  1  0  0  0  0
 17 18  1  0  0  0  0
 18 19  2  0  0  0  0
 18 42  1  0  0  0  0
M  CHG  1   7   1
M  END
> <s_m_source_file>
AV-unprocessed.smi

> <i_m_source_file_index>
1893

> <i_lp_mmshare_version>
43012

> <i_f3d_flags>
0

> <s_epik_input>
W0NIM11bQ0BASF0xW0NIMl1bQ0gyXVtDSDJdW0NIMl1OMVtDSDJdW0NIMl1bTkhdQyg9TylbQ0BIXShbQ0gzXSluMltjSF1uW2NIXW4y

> <s_epik_cmdline>
J2VwaWtfcHl0aG9uJywgJy1waCcsICc3LjAnLCAnLXRuJywgJzgnLCAnLW1hJywgJzIwMCcsICctbWV0YWxfYmluZGluZycsICctaW1hZScsICc8aW5maWxlLm1hZT4nLCAnLW9tYWUnLCAnPG91dGZpbGUubWFlPic=

> <r_lp_tautomer_probability>
1

> <r_epik_Ionization_Penalty>
0.00266409

> <r_epik_Ionization_Penalty_Charging>
0.00265606

> <r_epik_Ionization_Penalty_Neutral>
8.02794e-06

> <r_epik_State_Penalty>
0.00184955

> <r_epik_Charging_Adjusted_Penalty>
0.00450561

> <i_epik_Tot_Q>
1

> <i_epik_Tot_abs_Q>
1

> <r_epik_Metal_State_Penalty>
-0

> <b_epik_Metal_Only>
0

> <s_lp_Force_Field>
OPLS_2005

> <r_lp_Energy>
24.4169

> <b_lp_Chiralities_Consistent>
1

> <s_lp_Variant>
AV-unprocessed.smi:1893-4

> <Gold.Version>
5.8.1

> <Gold.Id.Protein>
6NUR|6NUR_protein|mol2

> <Gold.PLP.Fitness>
44.4186

> <Gold.PLP.PLP>
-30.8224

> <Gold.PLP.part.hbond>
-3.0000

> <Gold.PLP.part.metal>
0.0000

> <Gold.PLP.part.buried>
-1.4830

> <Gold.PLP.part.nonpolar>
-26.7142

> <Gold.PLP.part.repulsive>
1.0500

> <Gold.PLP.ligand.clash>
0.0000

> <Gold.PLP.ligand.torsion>
0.7013

> <Gold.PLP.Chemscore.Hbond>
3.6896

> <Gold.PLP.Chemscore.CHOScore>
1.2587

> <Gold.PLP.Chemscore.Metal>
0.0000

> <Gold.Chemscore.Hbonds>
donor molecule, donor type, donor heavy atom, donor atom, acceptor molecule, acceptor atom, score
      L1  H     7    43       P1  7948  2.00
      L1  H    10    36       P1  7948  1.00
      P1  H  7989  7998       L1    19  0.80
      L1  C    16    41       P1  7948  1.00

> <Gold.PLP.Chemscore.Internal.Correction>
0.1539

> <Gold.Rescore>
     Score         DG    S(hbond)    S(metal)    S(lipo)     H(rot)  DE(clash)    DE(int)     intcor
     10.64     -11.66       1.92        0.00      53.55       2.54       0.10       0.92       ----

> <Gold.Chemscore.Fitness>
10.6432

> <Gold.Chemscore.DG>
-11.6585

> <Gold.Chemscore.ZeroCoef>
-5.4800

> <Gold.Chemscore.Hbond>
1.9190

> <Gold.Chemscore.Metal>
0.0000

> <Gold.Chemscore.Lipo>
53.5519

> <Gold.Chemscore.Internal_Hbond>
0.0000

> <Gold.Chemscore.DEClash>
0.0976

> <Gold.Chemscore.DEInternal>
0.9177

> <Gold.Chemscore.Rot>
2.5377

> <Gold.Chemscore.Internal.Correction>
   9.000000E+99

> <Gold.Chemscore.Hbonds>
donor molecule, donor type, donor heavy atom, donor atom, acceptor molecule, acceptor atom, score
      L1  H     7    43       P1  7948  0.99
      L1  H    10    36       P1  7948  0.88
      P1  H  7989  7998       L1    19  0.31

> <Gold.Chemscore.Hbond.Weighted>
-6.4095

> <Gold.Chemscore.Metal.Weighted>
-0.0000

> <Gold.Chemscore.Lipo.Weighted>
-6.2656

> <Gold.Chemscore.Internal_Hbond.Weighted>
0.0000

> <Gold.Chemscore.DEClash.Weighted>
0.0976

> <Gold.Chemscore.DEInternal.Weighted>
0.9177

> <Gold.Chemscore.Rot.Weighted>
6.4966

> <Gold.Chemscore.Internal.Correction.Weighted>
   9.000000E+99

> <Gold.Protein.RotatedTorsions>
[ 6907 6896 6895 6894 ] final   68.57 input  -60.11 | X-H torsion
[ 7974 7965 7964 7962 ] final   97.55 input  175.53 | X-H torsion
[ 8008 7997 7996 7995 ] final   36.03 input   59.86 | X-H torsion
[ 10167 10162 10161 10158 ] final   73.55 input  -65.29 | X-H torsion
[ 10718 10713 10712 10709 ] final   93.45 input   66.30 | X-H torsion
[ 10763 10752 10751 10750 ] final  178.33 input  -60.55 | X-H torsion
[ 11005 11000 10999 10996 ] final    7.05 input  -57.11 | X-H torsion

> <Gold.Protein.ActiveResidues>
 VAL166  LYS551  ARG553  GLY616  TRP617  ASP618  TYR619  PRO620  LYS621  CYS622 
 ASP623  PHE694  ASN695  SER759  ASP760  ASP761  ALA762  ILE779  LEU786  VAL792 
 PHE793  MET794  SER795  GLU796  ALA797  LYS798  CYS799  TRP800  GLU811  SER814 

> <Gold.Protein.RotatedAtoms>
  152.4629  134.5143  159.9763 H   0  0  0  0  0  0  0  0  0  0  0  0  # atno 6907 bound_to 6896
  151.5188  133.3464  159.2905 H   0  0  0  0  0  0  0  0  0  0  0  0  # atno 6908 bound_to 6896
  150.8599  134.7978  159.7137 H   0  0  0  0  0  0  0  0  0  0  0  0  # atno 6909 bound_to 6896
  145.4239  139.2318  143.3181 H   0  0  0  0  0  0  0  0  0  0  0  0  # atno 7974 bound_to 7965
  155.1807  140.3299  155.4375 H   0  0  0  0  0  0  0  0  0  0  0  0  # atno 8008 bound_to 7997
  156.2478  140.1927  156.6856 H   0  0  0  0  0  0  0  0  0  0  0  0  # atno 8009 bound_to 7997
  154.6273  140.0587  156.9675 H   0  0  0  0  0  0  0  0  0  0  0  0  # atno 8010 bound_to 7997
  140.0233  144.5523  150.7565 H   0  0  0  0  0  0  0  0  0  0  0  0  # atno 10167 bound_to 10162
  157.6954  131.0478  150.4035 H   0  0  0  0  0  0  0  0  0  0  0  0  # atno 10718 bound_to 10713
  154.5062  135.2786  155.1380 H   0  0  0  0  0  0  0  0  0  0  0  0  # atno 10763 bound_to 10752
  154.2993  135.6251  153.5422 H   0  0  0  0  0  0  0  0  0  0  0  0  # atno 10764 bound_to 10752
  152.9911  135.5693  154.5517 H   0  0  0  0  0  0  0  0  0  0  0  0  # atno 10765 bound_to 10752
  140.5525  134.0269  155.7942 H   0  0  0  0  0  0  0  0  0  0  0  0  # atno 11005 bound_to 11000
  146.2642  140.4968  142.8841 LP  0  0  0  0  0  0  0  0  0  0  0  0  # atno 17320 bound_to 7965
  144.8227  140.6576  143.6342 LP  0  0  0  0  0  0  0  0  0  0  0  0  # atno 17321 bound_to 7965
  140.7333  143.2716  151.3871 LP  0  0  0  0  0  0  0  0  0  0  0  0  # atno 17342 bound_to 10162
  139.6125  144.1069  152.2313 LP  0  0  0  0  0  0  0  0  0  0  0  0  # atno 17343 bound_to 10162
  156.4426  130.3995  149.6687 LP  0  0  0  0  0  0  0  0  0  0  0  0  # atno 17370 bound_to 10713
  156.3865  130.7605  151.2603 LP  0  0  0  0  0  0  0  0  0  0  0  0  # atno 17371 bound_to 10713
  141.1163  133.9535  157.2816 LP  0  0  0  0  0  0  0  0  0  0  0  0  # atno 17394 bound_to 11000
  139.9448  135.0186  156.8818 LP  0  0  0  0  0  0  0  0  0  0  0  0  # atno 17395 bound_to 11000

$$$$
