AV-unprocessed.smi:1987|AV-procd|sdf|8056|dock1
  -GOLD-   2272010263D 1   1.00000     0.00000
 Structure written by MMmdl.
 37 39  0  0  0  0  0  0  0  0  2 V2000
  148.0967  138.0029  156.0251 O   0  0  0  0  0  0  0  0  0  0  0  0
  148.2483  137.8927  154.8088 C   0  0  0  0  0  0  0  0  0  0  0  0
  149.2132  138.8181  154.0694 C   0  0  0  0  0  0  0  0  0  0  0  0
  150.5599  138.6542  154.5834 N   0  0  0  0  0  0  0  0  0  0  0  0
  151.4009  137.6198  154.5242 C   0  0  0  0  0  0  0  0  0  0  0  0
  152.5617  137.9009  155.0964 N   0  0  0  0  0  0  0  0  0  0  0  0
  152.3923  139.2055  155.5293 N   0  0  0  0  0  0  0  0  0  0  0  0
  151.2066  139.6582  155.2274 N   0  0  0  0  0  0  0  0  0  0  0  0
  147.6298  136.9624  154.0657 N   0  0  0  0  0  0  0  0  0  0  0  0
  146.7797  135.8995  154.5878 C   0  0  0  0  0  0  0  0  0  0  0  0
  146.0245  135.1693  153.4594 C   0  0  2  0  0  0  0  0  0  0  0  0
  144.5554  135.5622  153.3088 C   0  0  0  0  0  0  0  0  0  0  0  0
  143.9816  134.3899  152.5189 C   0  0  0  0  0  0  0  0  0  0  0  0
  144.6952  133.1937  153.0154 N   0  3  1  0  0  0  0  0  0  0  0  0
  144.8545  132.1278  152.0033 C   0  0  0  0  0  0  0  0  0  0  0  0
  145.1936  132.6474  150.6267 C   0  0  0  0  0  0  0  0  0  0  0  0
  143.7947  132.1544  150.9281 C   0  0  0  0  0  0  0  0  0  0  0  0
  145.9678  133.6447  153.6272 C   0  0  0  0  0  0  0  0  0  0  0  0
  149.2033  138.6053  152.9993 H   0  0  0  0  0  0  0  0  0  0  0  0
  148.9094  139.8579  154.1977 H   0  0  0  0  0  0  0  0  0  0  0  0
  151.1680  136.6737  154.0578 H   0  0  0  0  0  0  0  0  0  0  0  0
  147.8101  136.9550  153.0717 H   0  0  0  0  0  0  0  0  0  0  0  0
  147.3769  135.1929  155.1666 H   0  0  0  0  0  0  0  0  0  0  0  0
  146.0712  136.3497  155.2838 H   0  0  0  0  0  0  0  0  0  0  0  0
  146.5201  135.3767  152.5093 H   0  0  0  0  0  0  0  0  0  0  0  0
  144.0754  135.6263  154.2862 H   0  0  0  0  0  0  0  0  0  0  0  0
  144.4198  136.5181  152.8009 H   0  0  0  0  0  0  0  0  0  0  0  0
  142.9023  134.2910  152.6375 H   0  0  0  0  0  0  0  0  0  0  0  0
  144.1910  134.5326  151.4572 H   0  0  0  0  0  0  0  0  0  0  0  0
  145.2632  131.1813  152.3541 H   0  0  0  0  0  0  0  0  0  0  0  0
  145.3328  133.7196  150.5002 H   0  0  0  0  0  0  0  0  0  0  0  0
  145.8165  132.0200  149.9923 H   0  0  0  0  0  0  0  0  0  0  0  0
  143.4975  131.2026  150.4922 H   0  0  0  0  0  0  0  0  0  0  0  0
  143.0038  132.8989  151.0021 H   0  0  0  0  0  0  0  0  0  0  0  0
  146.8404  133.1655  153.1805 H   0  0  0  0  0  0  0  0  0  0  0  0
  145.9470  133.3672  154.6817 H   0  0  0  0  0  0  0  0  0  0  0  0
  144.1389  132.8139  153.7682 H   0  0  0  0  0  0  0  0  0  0  0  0
  1  2  2  0  0  0  0
  2  3  1  0  0  0  0
  2  9  1  0  0  0  0
  3  4  1  0  0  0  0
  3 19  1  0  0  0  0
  3 20  1  0  0  0  0
  4  8  1  0  0  0  0
  4  5  1  0  0  0  0
  5  6  2  0  0  0  0
  5 21  1  0  0  0  0
  6  7  1  0  0  0  0
  7  8  2  0  0  0  0
  9 10  1  0  0  0  0
  9 22  1  0  0  0  0
 10 11  1  0  0  0  0
 10 23  1  0  0  0  0
 10 24  1  0  0  0  0
 11 18  1  0  0  0  0
 11 12  1  0  0  0  0
 11 25  1  0  0  0  0
 12 13  1  0  0  0  0
 12 26  1  0  0  0  0
 12 27  1  0  0  0  0
 13 14  1  0  0  0  0
 13 28  1  0  0  0  0
 13 29  1  0  0  0  0
 14 15  1  0  0  0  0
 14 18  1  0  0  0  0
 14 37  1  0  0  0  0
 15 17  1  0  0  0  0
 15 16  1  0  0  0  0
 15 30  1  0  0  0  0
 16 17  1  0  0  0  0
 16 31  1  0  0  0  0
 16 32  1  0  0  0  0
 17 33  1  0  0  0  0
 17 34  1  0  0  0  0
 18 35  1  0  0  0  0
 18 36  1  0  0  0  0
M  CHG  1  14   1
M  END
> <s_m_source_file>
AV-unprocessed.smi

> <i_m_source_file_index>
1987

> <i_lp_mmshare_version>
43012

> <i_f3d_flags>
0

> <s_epik_input>
bjFubltjSF1uMVtDSDJdQyg9TylbTkhdW0NIMl1bQ0BASF0yW0NIMl1bQ0gyXU4oW0NIMl0yKVtDSF0zW0NIMl1bQ0gyXTM=

> <s_epik_cmdline>
J2VwaWtfcHl0aG9uJywgJy1waCcsICc3LjAnLCAnLXRuJywgJzgnLCAnLW1hJywgJzIwMCcsICctbWV0YWxfYmluZGluZycsICctaW1hZScsICc8aW5maWxlLm1hZT4nLCAnLW9tYWUnLCAnPG91dGZpbGUubWFlPic=

> <r_lp_tautomer_probability>
1

> <r_epik_Ionization_Penalty>
0.000242849

> <r_epik_Ionization_Penalty_Charging>
0.000241326

> <r_epik_Ionization_Penalty_Neutral>
1.52322e-06

> <r_epik_State_Penalty>
-0

> <r_epik_Charging_Adjusted_Penalty>
0.000241326

> <i_epik_Tot_Q>
1

> <i_epik_Tot_abs_Q>
1

> <r_epik_Metal_State_Penalty>
-0

> <b_epik_Metal_Only>
0

> <s_lp_Force_Field>
OPLS_2005

> <r_lp_Energy>
38.2804

> <b_lp_Chiralities_Consistent>
1

> <s_lp_Variant>
AV-unprocessed.smi:1987-3

> <Gold.Version>
5.8.1

> <Gold.Id.Protein>
6NUR|6NUR_protein|mol2

> <Gold.PLP.Fitness>
38.5341

> <Gold.PLP.PLP>
-24.9128

> <Gold.PLP.part.hbond>
-4.1650

> <Gold.PLP.part.metal>
0.0000

> <Gold.PLP.part.buried>
-4.9012

> <Gold.PLP.part.nonpolar>
-18.3224

> <Gold.PLP.part.repulsive>
0.1025

> <Gold.PLP.ligand.clash>
0.0000

> <Gold.PLP.ligand.torsion>
1.3165

> <Gold.PLP.Chemscore.Hbond>
4.0038

> <Gold.PLP.Chemscore.CHOScore>
0.9674

> <Gold.PLP.Chemscore.Metal>
0.0000

> <Gold.Chemscore.Hbonds>
donor molecule, donor type, donor heavy atom, donor atom, acceptor molecule, acceptor atom, score
      L1  H     9    22       P1  7948  0.82
      L1  H    14    37       P1 10957  1.82
      P1  H  7989  7998       L1     8  0.63
      P1  H  7997  8010       L1     7  0.41
      P1  H 10752 10765       L1     6  0.02
      L1  C     5    21       P1  7949  0.69

> <Gold.PLP.Chemscore.Internal.Correction>
1.3406

> <Gold.Rescore>
     Score         DG    S(hbond)    S(metal)    S(lipo)     H(rot)  DE(clash)    DE(int)     intcor
     13.75     -15.19       3.55        0.00      39.08       2.62       0.04       1.40       ----

> <Gold.Chemscore.Fitness>
13.7465

> <Gold.Chemscore.DG>
-15.1871

> <Gold.Chemscore.ZeroCoef>
-5.4800

> <Gold.Chemscore.Hbond>
3.5488

> <Gold.Chemscore.Metal>
0.0000

> <Gold.Chemscore.Lipo>
39.0814

> <Gold.Chemscore.Internal_Hbond>
0.0000

> <Gold.Chemscore.DEClash>
0.0391

> <Gold.Chemscore.DEInternal>
1.4015

> <Gold.Chemscore.Rot>
2.6244

> <Gold.Chemscore.Internal.Correction>
   9.000000E+99

> <Gold.Chemscore.Hbonds>
donor molecule, donor type, donor heavy atom, donor atom, acceptor molecule, acceptor atom, score
      L1  H     9    22       P1  7948  0.81
      L1  H    14    37       P1 10957  0.68
      P1  H  7989  7998       L1     8  0.04
      P1  H  7997  8010       L1     7  0.32

> <Gold.Chemscore.Hbond.Weighted>
-11.8531

> <Gold.Chemscore.Metal.Weighted>
-0.0000

> <Gold.Chemscore.Lipo.Weighted>
-4.5725

> <Gold.Chemscore.Internal_Hbond.Weighted>
0.0000

> <Gold.Chemscore.DEClash.Weighted>
0.0391

> <Gold.Chemscore.DEInternal.Weighted>
1.4015

> <Gold.Chemscore.Rot.Weighted>
6.7186

> <Gold.Chemscore.Internal.Correction.Weighted>
   9.000000E+99

> <Gold.Protein.RotatedTorsions>
[ 6907 6896 6895 6894 ] final  128.65 input  -60.11 | X-H torsion
[ 7974 7965 7964 7962 ] final -124.69 input  175.53 | X-H torsion
[ 8008 7997 7996 7995 ] final   93.15 input   59.86 | X-H torsion
[ 10167 10162 10161 10158 ] final -170.15 input  -65.29 | X-H torsion
[ 10718 10713 10712 10709 ] final   -1.96 input   66.30 | X-H torsion
[ 10763 10752 10751 10750 ] final -168.44 input  -60.55 | X-H torsion
[ 11005 11000 10999 10996 ] final   51.12 input  -57.11 | X-H torsion

> <Gold.Protein.ActiveResidues>
 VAL166  LYS551  ARG553  GLY616  TRP617  ASP618  TYR619  PRO620  LYS621  CYS622 
 ASP623  PHE694  ASN695  SER759  ASP760  ASP761  ALA762  ILE779  LEU786  VAL792 
 PHE793  MET794  SER795  GLU796  ALA797  LYS798  CYS799  TRP800  GLU811  SER814 

> <Gold.Protein.RotatedAtoms>
  152.3699  133.6405  159.6078 H   0  0  0  0  0  0  0  0  0  0  0  0  # atno 6907 bound_to 6896
  150.7661  133.9288  159.3429 H   0  0  0  0  0  0  0  0  0  0  0  0  # atno 6908 bound_to 6896
  151.7112  135.0913  160.0319 H   0  0  0  0  0  0  0  0  0  0  0  0  # atno 6909 bound_to 6896
  145.0054  140.7858  143.4471 H   0  0  0  0  0  0  0  0  0  0  0  0  # atno 7974 bound_to 7965
  156.0435  140.3316  155.7270 H   0  0  0  0  0  0  0  0  0  0  0  0  # atno 8008 bound_to 7997
  155.5708  140.0628  157.2824 H   0  0  0  0  0  0  0  0  0  0  0  0  # atno 8009 bound_to 7997
  154.4403  140.1861  156.0866 H   0  0  0  0  0  0  0  0  0  0  0  0  # atno 8010 bound_to 7997
  139.5879  144.1278  152.1598 H   0  0  0  0  0  0  0  0  0  0  0  0  # atno 10167 bound_to 10162
  156.7979  130.5383  149.5726 H   0  0  0  0  0  0  0  0  0  0  0  0  # atno 10718 bound_to 10713
  154.6628  135.2927  154.9844 H   0  0  0  0  0  0  0  0  0  0  0  0  # atno 10763 bound_to 10752
  154.0898  135.6592  153.4854 H   0  0  0  0  0  0  0  0  0  0  0  0  # atno 10764 bound_to 10752
  153.0440  135.5217  154.7587 H   0  0  0  0  0  0  0  0  0  0  0  0  # atno 10765 bound_to 10752
  140.0959  134.5146  155.8807 H   0  0  0  0  0  0  0  0  0  0  0  0  # atno 11005 bound_to 11000
  145.2095  139.2211  143.5150 LP  0  0  0  0  0  0  0  0  0  0  0  0  # atno 17320 bound_to 7965
  146.3460  140.1930  142.8589 LP  0  0  0  0  0  0  0  0  0  0  0  0  # atno 17321 bound_to 7965
  140.0845  144.5672  150.7098 LP  0  0  0  0  0  0  0  0  0  0  0  0  # atno 17342 bound_to 10162
  140.7147  143.2535  151.4470 LP  0  0  0  0  0  0  0  0  0  0  0  0  # atno 17343 bound_to 10162
  156.1119  130.6046  151.0060 LP  0  0  0  0  0  0  0  0  0  0  0  0  # atno 17370 bound_to 10713
  157.6568  131.0888  150.7928 LP  0  0  0  0  0  0  0  0  0  0  0  0  # atno 17371 bound_to 10713
  141.2092  133.6681  156.6422 LP  0  0  0  0  0  0  0  0  0  0  0  0  # atno 17394 bound_to 11000
  140.3287  134.7947  157.4309 LP  0  0  0  0  0  0  0  0  0  0  0  0  # atno 17395 bound_to 11000

$$$$
