AV-unprocessed.smi:20|AV-procd|sdf|118|dock4
  -GOLD-   2262015283D 1   1.00000     0.00000
 Structure written by MMmdl.
 57 61  0  0  0  0  0  0  0  0  1 V2000
  143.8769  132.8639  147.7599 O   0  0  0  0  0  0  0  0  0  0  0  0
  144.1283  132.6986  148.9513 C   0  0  0  0  0  0  0  0  0  0  0  0
  145.4847  132.2557  149.4747 C   0  0  0  0  0  0  0  0  0  0  0  0
  145.4034  132.5637  150.9856 C   0  0  1  0  0  0  0  0  0  0  0  0
  146.1478  131.5042  151.8295 C   0  0  0  0  0  0  0  0  0  0  0  0
  146.1557  131.8745  153.3210 C   0  0  0  0  0  0  0  0  0  0  0  0
  146.7431  133.2761  153.5370 C   0  0  0  0  0  0  0  0  0  0  0  0
  146.0552  134.2604  152.7016 N   0  0  0  0  0  0  0  0  0  0  0  0
  146.1481  135.5547  153.1031 C   0  0  0  0  0  0  0  0  0  0  0  0
  145.4948  136.4842  152.3578 N   0  0  0  0  0  0  0  0  0  0  0  0
  145.5459  137.7779  152.6853 C   0  0  0  0  0  0  0  0  0  0  0  0
  146.1829  138.3548  153.7046 N   0  0  0  0  0  0  0  0  0  0  0  0
  146.8394  137.4304  154.4616 C   0  0  0  0  0  0  0  0  0  0  0  0
  146.8777  136.0234  154.2381 C   0  0  0  0  0  0  0  0  0  0  0  0
  147.6409  135.4183  155.2326 N   0  0  0  0  0  0  0  0  0  0  0  0
  148.0343  136.4057  155.9892 C   0  0  0  0  0  0  0  0  0  0  0  0
  147.6010  137.6498  155.5947 N   0  0  0  0  0  0  0  0  0  0  0  0
  147.8797  138.9185  156.2441 C   0  0  0  0  0  0  0  0  0  0  0  0
  148.9413  139.7645  155.4983 C   0  0  2  0  0  0  0  0  0  0  0  0
  148.5530  140.0430  154.0260 C   0  0  0  0  0  0  0  0  0  0  0  0
  149.4813  140.9060  153.4012 O   0  0  0  0  0  0  0  0  0  0  0  0
  150.3564  139.1474  155.6318 C   0  0  1  0  0  0  0  0  0  0  0  0
  150.7987  138.2975  154.4536 C   0  0  0  0  0  0  0  0  0  0  0  0
  152.3102  138.2466  154.6438 C   0  0  0  0  0  0  0  0  0  0  0  0
  152.6644  139.4987  155.2185 O   0  0  0  0  0  0  0  0  0  0  0  0
  151.4960  140.1719  155.6777 C   0  0  0  0  0  0  0  0  0  0  0  0
  146.0082  133.9637  151.2701 C   0  0  0  0  0  0  0  0  0  0  0  0
  143.8763  132.5719  151.2490 C   0  0  0  0  0  0  0  0  0  0  0  0
  143.2792  132.8707  149.9617 N   0  0  0  0  0  0  0  0  0  0  0  0
  145.5965  131.1874  149.2849 H   0  0  0  0  0  0  0  0  0  0  0  0
  146.3009  132.7780  148.9743 H   0  0  0  0  0  0  0  0  0  0  0  0
  145.6976  130.5202  151.6937 H   0  0  0  0  0  0  0  0  0  0  0  0
  147.1772  131.4191  151.4789 H   0  0  0  0  0  0  0  0  0  0  0  0
  145.1399  131.8391  153.7165 H   0  0  0  0  0  0  0  0  0  0  0  0
  146.7313  131.1405  153.8853 H   0  0  0  0  0  0  0  0  0  0  0  0
  146.6803  133.5287  154.5957 H   0  0  0  0  0  0  0  0  0  0  0  0
  147.8023  133.2804  153.2765 H   0  0  0  0  0  0  0  0  0  0  0  0
  144.9981  138.4467  152.0376 H   0  0  0  0  0  0  0  0  0  0  0  0
  148.6578  136.2534  156.8583 H   0  0  0  0  0  0  0  0  0  0  0  0
  146.9375  139.4614  156.3197 H   0  0  0  0  0  0  0  0  0  0  0  0
  148.2029  138.7206  157.2669 H   0  0  0  0  0  0  0  0  0  0  0  0
  148.9727  140.7369  155.9919 H   0  0  0  0  0  0  0  0  0  0  0  0
  148.4964  139.1163  153.4548 H   0  0  0  0  0  0  0  0  0  0  0  0
  147.5616  140.4911  153.9638 H   0  0  0  0  0  0  0  0  0  0  0  0
  149.3852  140.8239  152.4646 H   0  0  0  0  0  0  0  0  0  0  0  0
  150.4063  138.5368  156.5351 H   0  0  0  0  0  0  0  0  0  0  0  0
  150.3483  137.3047  154.4438 H   0  0  0  0  0  0  0  0  0  0  0  0
  150.5571  138.7934  153.5122 H   0  0  0  0  0  0  0  0  0  0  0  0
  152.5786  137.4545  155.3438 H   0  0  0  0  0  0  0  0  0  0  0  0
  152.8440  138.0693  153.7098 H   0  0  0  0  0  0  0  0  0  0  0  0
  151.2965  141.0050  155.0020 H   0  0  0  0  0  0  0  0  0  0  0  0
  151.6487  140.5795  156.6773 H   0  0  0  0  0  0  0  0  0  0  0  0
  147.0249  134.0122  150.8780 H   0  0  0  0  0  0  0  0  0  0  0  0
  145.4263  134.7257  150.7500 H   0  0  0  0  0  0  0  0  0  0  0  0
  143.5191  131.5934  151.5733 H   0  0  0  0  0  0  0  0  0  0  0  0
  143.5739  133.3016  152.0007 H   0  0  0  0  0  0  0  0  0  0  0  0
  142.3186  133.1637  149.8565 H   0  0  0  0  0  0  0  0  0  0  0  0
  1  2  2  0  0  0  0
  2 29  1  0  0  0  0
  2  3  1  0  0  0  0
  3  4  1  0  0  0  0
  3 30  1  0  0  0  0
  3 31  1  0  0  0  0
  4 27  1  0  0  0  0
  4  5  1  0  0  0  0
  4 28  1  0  0  0  0
  5  6  1  0  0  0  0
  5 32  1  0  0  0  0
  5 33  1  0  0  0  0
  6  7  1  0  0  0  0
  6 34  1  0  0  0  0
  6 35  1  0  0  0  0
  7  8  1  0  0  0  0
  7 36  1  0  0  0  0
  7 37  1  0  0  0  0
  8  9  1  0  0  0  0
  8 27  1  0  0  0  0
  9 14  1  0  0  0  0
  9 10  2  0  0  0  0
 10 11  1  0  0  0  0
 11 12  2  0  0  0  0
 11 38  1  0  0  0  0
 12 13  1  0  0  0  0
 13 17  1  0  0  0  0
 13 14  2  0  0  0  0
 14 15  1  0  0  0  0
 15 16  2  0  0  0  0
 16 17  1  0  0  0  0
 16 39  1  0  0  0  0
 17 18  1  0  0  0  0
 18 19  1  0  0  0  0
 18 40  1  0  0  0  0
 18 41  1  0  0  0  0
 19 20  1  0  0  0  0
 19 22  1  0  0  0  0
 19 42  1  0  0  0  0
 20 21  1  0  0  0  0
 20 43  1  0  0  0  0
 20 44  1  0  0  0  0
 21 45  1  0  0  0  0
 22 26  1  0  0  0  0
 22 23  1  0  0  0  0
 22 46  1  0  0  0  0
 23 24  1  0  0  0  0
 23 47  1  0  0  0  0
 23 48  1  0  0  0  0
 24 25  1  0  0  0  0
 24 49  1  0  0  0  0
 24 50  1  0  0  0  0
 25 26  1  0  0  0  0
 26 51  1  0  0  0  0
 26 52  1  0  0  0  0
 27 53  1  0  0  0  0
 27 54  1  0  0  0  0
 28 29  1  0  0  0  0
 28 55  1  0  0  0  0
 28 56  1  0  0  0  0
 29 57  1  0  0  0  0
M  END
> <s_m_source_file>
AV-unprocessed.smi

> <i_m_source_file_index>
20

> <i_lp_mmshare_version>
43012

> <i_f3d_flags>
0

> <s_epik_input>
W0NIMl0xW05IXUMoPU8pW0NIMl1bQ0BAXTEyW0NIMl1bQ0gyXVtDSDJdTihbQ0gyXTIpYyhuW2NIXW4zKWMoYzM0KW5bY0hdbjRbQ0gyXVtDQEhdKFtDSDJdW09IXSlbQ0BASF01W0NIMl1bQ0gyXU9bQ0gyXTU=

> <s_epik_cmdline>
J2VwaWtfcHl0aG9uJywgJy1waCcsICc3LjAnLCAnLXRuJywgJzgnLCAnLW1hJywgJzIwMCcsICctbWV0YWxfYmluZGluZycsICctaW1hZScsICc8aW5maWxlLm1hZT4nLCAnLW9tYWUnLCAnPG91dGZpbGUubWFlPic=

> <r_lp_tautomer_probability>
1

> <r_epik_Ionization_Penalty>
0.0019697

> <r_epik_Ionization_Penalty_Charging>
0

> <r_epik_Ionization_Penalty_Neutral>
0.0019697

> <r_epik_State_Penalty>
0.00113613

> <r_epik_Charging_Adjusted_Penalty>
0.00113613

> <i_epik_Tot_Q>
0

> <i_epik_Tot_abs_Q>
0

> <r_epik_Metal_State_Penalty>
-0

> <b_epik_Metal_Only>
0

> <s_lp_Force_Field>
OPLS_2005

> <r_lp_Energy>
59.1367

> <b_lp_Chiralities_Consistent>
1

> <s_lp_Variant>
AV-unprocessed.smi:20-6

> <Gold.Version>
5.8.1

> <Gold.Id.Protein>
6NUR|6NUR_protein|mol2

> <Gold.PLP.Fitness>
57.6285

> <Gold.PLP.PLP>
-43.4255

> <Gold.PLP.part.hbond>
-6.3482

> <Gold.PLP.part.metal>
0.0000

> <Gold.PLP.part.buried>
-3.4416

> <Gold.PLP.part.nonpolar>
-33.4916

> <Gold.PLP.part.repulsive>
2.1573

> <Gold.PLP.ligand.clash>
0.0000

> <Gold.PLP.ligand.torsion>
1.3145

> <Gold.PLP.Chemscore.Hbond>
3.4388

> <Gold.PLP.Chemscore.CHOScore>
2.0000

> <Gold.PLP.Chemscore.Metal>
0.0000

> <Gold.Chemscore.Hbonds>
donor molecule, donor type, donor heavy atom, donor atom, acceptor molecule, acceptor atom, score
      L1  H    21    45       P1  7957  0.99
      L1  H    29    57       P1 10186  1.00
      P1  H  7918  7932       L1     1  0.36
      P1  H  7989  7998       L1    21  0.17
      P1  H  7997  8009       L1    25  1.00
      L1  C    11    38       P1 10171  1.00
      L1  C    11    38       P1 10175  1.00

> <Gold.PLP.Chemscore.Internal.Correction>
0.5156

> <Gold.Rescore>
     Score         DG    S(hbond)    S(metal)    S(lipo)     H(rot)  DE(clash)    DE(int)     intcor
     16.41     -20.47       3.36        0.00      85.37       2.43       1.38       2.67       ----

> <Gold.Chemscore.Fitness>
16.4147

> <Gold.Chemscore.DG>
-20.4652

> <Gold.Chemscore.ZeroCoef>
-5.4800

> <Gold.Chemscore.Hbond>
3.3592

> <Gold.Chemscore.Metal>
0.0000

> <Gold.Chemscore.Lipo>
85.3715

> <Gold.Chemscore.Internal_Hbond>
0.0000

> <Gold.Chemscore.DEClash>
1.3843

> <Gold.Chemscore.DEInternal>
2.6662

> <Gold.Chemscore.Rot>
2.4309

> <Gold.Chemscore.Internal.Correction>
   9.000000E+99

> <Gold.Chemscore.Hbonds>
donor molecule, donor type, donor heavy atom, donor atom, acceptor molecule, acceptor atom, score
      L1  H    21    45       P1  7957  0.88
      L1  H    29    57       P1 10186  0.98
      P1  H  7918  7932       L1     1  0.36
      P1  H  7989  7998       L1    21  0.03
      P1  H  7997  8009       L1    25  0.86

> <Gold.Chemscore.Hbond.Weighted>
-11.2199

> <Gold.Chemscore.Metal.Weighted>
-0.0000

> <Gold.Chemscore.Lipo.Weighted>
-9.9885

> <Gold.Chemscore.Internal_Hbond.Weighted>
0.0000

> <Gold.Chemscore.DEClash.Weighted>
1.3843

> <Gold.Chemscore.DEInternal.Weighted>
2.6662

> <Gold.Chemscore.Rot.Weighted>
6.2231

> <Gold.Chemscore.Internal.Correction.Weighted>
   9.000000E+99

> <Gold.Protein.RotatedTorsions>
[ 6907 6896 6895 6894 ] final -131.95 input  -60.11 | X-H torsion
[ 7974 7965 7964 7962 ] final  -11.52 input  175.53 | X-H torsion
[ 8008 7997 7996 7995 ] final -141.07 input   59.86 | X-H torsion
[ 10167 10162 10161 10158 ] final -134.15 input  -65.29 | X-H torsion
[ 10718 10713 10712 10709 ] final  -99.28 input   66.30 | X-H torsion
[ 10763 10752 10751 10750 ] final  -25.49 input  -60.55 | X-H torsion
[ 11005 11000 10999 10996 ] final  147.29 input  -57.11 | X-H torsion

> <Gold.Protein.ActiveResidues>
 VAL166  LYS551  ARG553  GLY616  TRP617  ASP618  TYR619  PRO620  LYS621  CYS622 
 ASP623  PHE694  ASN695  SER759  ASP760  ASP761  ALA762  ILE779  LEU786  VAL792 
 PHE793  MET794  SER795  GLU796  ALA797  LYS798  CYS799  TRP800  GLU811  SER814 

> <Gold.Protein.RotatedAtoms>
  150.9568  133.6488  159.2761 H   0  0  0  0  0  0  0  0  0  0  0  0  # atno 6907 bound_to 6896
  151.3825  135.0941  159.9510 H   0  0  0  0  0  0  0  0  0  0  0  0  # atno 6908 bound_to 6896
  152.5132  133.9100  159.7538 H   0  0  0  0  0  0  0  0  0  0  0  0  # atno 6909 bound_to 6896
  146.2184  140.2923  142.8369 H   0  0  0  0  0  0  0  0  0  0  0  0  # atno 7974 bound_to 7965
  155.4717  140.0553  157.2978 H   0  0  0  0  0  0  0  0  0  0  0  0  # atno 8008 bound_to 7997
  154.4696  140.2034  155.9983 H   0  0  0  0  0  0  0  0  0  0  0  0  # atno 8009 bound_to 7997
  156.1033  140.3215  155.7976 H   0  0  0  0  0  0  0  0  0  0  0  0  # atno 8010 bound_to 7997
  139.8910  143.6723  152.2612 H   0  0  0  0  0  0  0  0  0  0  0  0  # atno 10167 bound_to 10162
  156.0130  130.5275  150.6646 H   0  0  0  0  0  0  0  0  0  0  0  0  # atno 10718 bound_to 10713
  153.7007  135.6956  153.5064 H   0  0  0  0  0  0  0  0  0  0  0  0  # atno 10763 bound_to 10752
  153.2344  135.4326  155.0630 H   0  0  0  0  0  0  0  0  0  0  0  0  # atno 10764 bound_to 10752
  154.8345  135.3492  154.6546 H   0  0  0  0  0  0  0  0  0  0  0  0  # atno 10765 bound_to 10752
  140.0864  134.9067  157.1582 H   0  0  0  0  0  0  0  0  0  0  0  0  # atno 11005 bound_to 11000
  144.9117  140.7765  143.5803 LP  0  0  0  0  0  0  0  0  0  0  0  0  # atno 17320 bound_to 7965
  145.2854  139.1903  143.4768 LP  0  0  0  0  0  0  0  0  0  0  0  0  # atno 17321 bound_to 7965
  139.7110  144.7620  151.1112 LP  0  0  0  0  0  0  0  0  0  0  0  0  # atno 17342 bound_to 10162
  140.7726  143.5331  150.9400 LP  0  0  0  0  0  0  0  0  0  0  0  0  # atno 17343 bound_to 10162
  157.4382  131.0858  151.0971 LP  0  0  0  0  0  0  0  0  0  0  0  0  # atno 17370 bound_to 10713
  157.1523  130.6189  149.5586 LP  0  0  0  0  0  0  0  0  0  0  0  0  # atno 17371 bound_to 10713
  140.3415  134.2699  155.7211 LP  0  0  0  0  0  0  0  0  0  0  0  0  # atno 17394 bound_to 11000
  141.2064  133.7835  157.0180 LP  0  0  0  0  0  0  0  0  0  0  0  0  # atno 17395 bound_to 11000

$$$$
