AV-unprocessed.smi:47|AV-procd|sdf|443|dock4
  -GOLD-   2262016313D 1   1.00000     0.00000
 Structure written by MMmdl.
 30 32  0  0  0  0  0  0  0  0  2 V2000
  145.0775  140.3481  154.9271 O   0  0  0  0  0  0  0  0  0  0  0  0
  146.4744  140.1431  154.9145 C   0  0  1  0  0  0  0  0  0  0  0  0
  146.9611  139.5287  153.6088 C   0  0  0  0  0  0  0  0  0  0  0  0
  148.3850  139.8303  153.5745 N   0  0  0  0  0  0  0  0  0  0  0  0
  148.5875  141.1144  154.2556 C   0  0  2  0  0  0  0  0  0  0  0  0
  149.7610  141.0879  155.2183 C   0  0  0  0  0  0  0  0  0  0  0  0
  150.7192  140.1391  155.2493 N   0  0  0  0  0  0  0  0  0  0  0  0
  151.5207  140.4579  156.2482 N   0  5  0  0  0  0  0  0  0  0  0  0
  151.0414  141.5759  156.8141 C   0  0  0  0  0  0  0  0  0  0  0  0
  151.6950  142.2151  157.9750 C   0  0  0  0  0  0  0  0  0  0  0  0
  152.2641  141.4250  159.0007 C   0  0  0  0  0  0  0  0  0  0  0  0
  152.8903  142.0194  160.1137 C   0  0  0  0  0  0  0  0  0  0  0  0
  152.9582  143.4203  160.2181 C   0  0  0  0  0  0  0  0  0  0  0  0
  152.3984  144.2222  159.2070 C   0  0  0  0  0  0  0  0  0  0  0  0
  151.7723  143.6229  158.0966 C   0  0  0  0  0  0  0  0  0  0  0  0
  149.9420  141.9874  156.1980 N   0  0  0  0  0  0  0  0  0  0  0  0
  147.2667  141.4451  154.9747 C   0  0  0  0  0  0  0  0  0  0  0  0
  146.7548  139.5007  155.7507 H   0  0  0  0  0  0  0  0  0  0  0  0
  148.7856  141.8899  153.5147 H   0  0  0  0  0  0  0  0  0  0  0  0
  144.7720  140.3712  154.0332 H   0  0  0  0  0  0  0  0  0  0  0  0
  146.7684  138.4575  153.5487 H   0  0  0  0  0  0  0  0  0  0  0  0
  146.4646  140.0079  152.7637 H   0  0  0  0  0  0  0  0  0  0  0  0
  148.6862  139.9008  152.6082 H   0  0  0  0  0  0  0  0  0  0  0  0
  152.2231  140.3474  158.9381 H   0  0  0  0  0  0  0  0  0  0  0  0
  153.3182  141.3983  160.8864 H   0  0  0  0  0  0  0  0  0  0  0  0
  153.4379  143.8785  161.0703 H   0  0  0  0  0  0  0  0  0  0  0  0
  152.4486  145.2983  159.2816 H   0  0  0  0  0  0  0  0  0  0  0  0
  151.3489  144.2588  157.3331 H   0  0  0  0  0  0  0  0  0  0  0  0
  146.7456  142.2227  154.4139 H   0  0  0  0  0  0  0  0  0  0  0  0
  147.4016  141.8116  155.9933 H   0  0  0  0  0  0  0  0  0  0  0  0
  1  2  1  0  0  0  0
  1 20  1  0  0  0  0
  2 18  1  0  0  0  0
  2 17  1  0  0  0  0
  2  3  1  0  0  0  0
  3  4  1  0  0  0  0
  3 21  1  0  0  0  0
  3 22  1  0  0  0  0
  4  5  1  0  0  0  0
  4 23  1  0  0  0  0
  5 19  1  0  0  0  0
  5  6  1  0  0  0  0
  5 17  1  0  0  0  0
  6 16  1  0  0  0  0
  6  7  2  0  0  0  0
  7  8  1  0  0  0  0
  8  9  1  0  0  0  0
  9 10  1  0  0  0  0
  9 16  2  0  0  0  0
 10 15  1  0  0  0  0
 10 11  2  0  0  0  0
 11 12  1  0  0  0  0
 11 24  1  0  0  0  0
 12 13  2  0  0  0  0
 12 25  1  0  0  0  0
 13 14  1  0  0  0  0
 13 26  1  0  0  0  0
 14 15  2  0  0  0  0
 14 27  1  0  0  0  0
 15 28  1  0  0  0  0
 17 29  1  0  0  0  0
 17 30  1  0  0  0  0
M  CHG  1   8  -1
M  END
> <s_m_source_file>
AV-unprocessed.smi

> <i_m_source_file_index>
47

> <i_lp_mmshare_version>
43012

> <i_f3d_flags>
0

> <s_epik_input>
W09IXVtDQEhdMVtDSDJdW05IXVtDQEBIXShbQ0gyXTEpYzJuW25IXWMobjIpLWMzW2NIXVtjSF1bY0hdW2NIXVtjSF0z

> <s_epik_cmdline>
J2VwaWtfcHl0aG9uJywgJy1waCcsICc3LjAnLCAnLXRuJywgJzgnLCAnLW1hJywgJzIwMCcsICctbWV0YWxfYmluZGluZycsICctaW1hZScsICc8aW5maWxlLm1hZT4nLCAnLW9tYWUnLCAnPG91dGZpbGUubWFlPic=

> <r_epik_Ionization_Penalty>
16.1968

> <r_epik_Ionization_Penalty_Charging>
13.1522

> <r_epik_Ionization_Penalty_Neutral>
3.04463

> <r_epik_State_Penalty>
6.32428

> <r_epik_Charging_Adjusted_Penalty>
19.4764

> <i_epik_Tot_Q>
-1

> <i_epik_Tot_abs_Q>
1

> <r_epik_Metal_State_Penalty>
2.82187

> <b_epik_Metal_Only>
1

> <s_lp_Force_Field>
OPLS_2005

> <r_lp_Energy>
30.4725

> <b_lp_Chiralities_Consistent>
1

> <s_lp_Variant>
AV-unprocessed.smi:47-21

> <Gold.Version>
5.8.1

> <Gold.Id.Protein>
6NUR|6NUR_protein|mol2

> <Gold.PLP.Fitness>
44.0845

> <Gold.PLP.PLP>
-37.1226

> <Gold.PLP.part.hbond>
-2.8870

> <Gold.PLP.part.metal>
0.0000

> <Gold.PLP.part.buried>
-5.8093

> <Gold.PLP.part.nonpolar>
-30.5123

> <Gold.PLP.part.repulsive>
2.1963

> <Gold.PLP.ligand.clash>
0.0000

> <Gold.PLP.ligand.torsion>
1.0111

> <Gold.PLP.Chemscore.Hbond>
2.9913

> <Gold.PLP.Chemscore.CHOScore>
0.0000

> <Gold.PLP.Chemscore.Metal>
0.0000

> <Gold.Chemscore.Hbonds>
donor molecule, donor type, donor heavy atom, donor atom, acceptor molecule, acceptor atom, score
      L1  H     1    20       P1 10175  1.00
      L1  H     4    23       P1  7957  1.00
      P1  H  7989  7998       L1     7  0.49

> <Gold.PLP.Chemscore.Internal.Correction>
0.0103

> <Gold.Rescore>
     Score         DG    S(hbond)    S(metal)    S(lipo)     H(rot)  DE(clash)    DE(int)     intcor
     17.72     -20.06       2.30        0.00      90.81       1.46       1.44       0.90       ----

> <Gold.Chemscore.Fitness>
17.7212

> <Gold.Chemscore.DG>
-20.0574

> <Gold.Chemscore.ZeroCoef>
-5.4800

> <Gold.Chemscore.Hbond>
2.3041

> <Gold.Chemscore.Metal>
0.0000

> <Gold.Chemscore.Lipo>
90.8078

> <Gold.Chemscore.Internal_Hbond>
0.0000

> <Gold.Chemscore.DEClash>
1.4357

> <Gold.Chemscore.DEInternal>
0.9005

> <Gold.Chemscore.Rot>
1.4621

> <Gold.Chemscore.Internal.Correction>
   9.000000E+99

> <Gold.Chemscore.Hbonds>
donor molecule, donor type, donor heavy atom, donor atom, acceptor molecule, acceptor atom, score
      L1  H     1    20       P1 10175  1.00
      L1  H     4    23       P1  7957  1.00
      P1  H  7989  7998       L1     7  0.02

> <Gold.Chemscore.Hbond.Weighted>
-7.6957

> <Gold.Chemscore.Metal.Weighted>
-0.0000

> <Gold.Chemscore.Lipo.Weighted>
-10.6245

> <Gold.Chemscore.Internal_Hbond.Weighted>
0.0000

> <Gold.Chemscore.DEClash.Weighted>
1.4357

> <Gold.Chemscore.DEInternal.Weighted>
0.9005

> <Gold.Chemscore.Rot.Weighted>
3.7429

> <Gold.Chemscore.Internal.Correction.Weighted>
   9.000000E+99

> <Gold.Protein.RotatedTorsions>
[ 6907 6896 6895 6894 ] final  143.94 input  -60.11 | X-H torsion
[ 7974 7965 7964 7962 ] final -126.50 input  175.53 | X-H torsion
[ 8008 7997 7996 7995 ] final  -29.96 input   59.86 | X-H torsion
[ 10167 10162 10161 10158 ] final  -53.50 input  -65.29 | X-H torsion
[ 10718 10713 10712 10709 ] final   92.35 input   66.30 | X-H torsion
[ 10763 10752 10751 10750 ] final   96.35 input  -60.55 | X-H torsion
[ 11005 11000 10999 10996 ] final  165.43 input  -57.11 | X-H torsion

> <Gold.Protein.ActiveResidues>
 VAL166  LYS551  ARG553  GLY616  TRP617  ASP618  TYR619  PRO620  LYS621  CYS622 
 ASP623  PHE694  ASN695  SER759  ASP760  ASP761  ALA762  ILE779  LEU786  VAL792 
 PHE793  MET794  SER795  GLU796  ALA797  LYS798  CYS799  TRP800  GLU811  SER814 

> <Gold.Protein.RotatedAtoms>
  152.1999  133.4833  159.5052 H   0  0  0  0  0  0  0  0  0  0  0  0  # atno 6907 bound_to 6896
  150.6967  134.1604  159.4183 H   0  0  0  0  0  0  0  0  0  0  0  0  # atno 6908 bound_to 6896
  151.9521  135.0164  160.0593 H   0  0  0  0  0  0  0  0  0  0  0  0  # atno 6909 bound_to 6896
  144.9866  140.7692  143.4579 H   0  0  0  0  0  0  0  0  0  0  0  0  # atno 7974 bound_to 7965
  154.4269  140.1804  156.1331 H   0  0  0  0  0  0  0  0  0  0  0  0  # atno 8008 bound_to 7997
  156.0052  140.3356  155.6860 H   0  0  0  0  0  0  0  0  0  0  0  0  # atno 8009 bound_to 7997
  155.6188  140.0657  157.2675 H   0  0  0  0  0  0  0  0  0  0  0  0  # atno 8010 bound_to 7997
  140.6481  143.2548  151.4801 H   0  0  0  0  0  0  0  0  0  0  0  0  # atno 10167 bound_to 10162
  157.6959  131.0440  150.3869 H   0  0  0  0  0  0  0  0  0  0  0  0  # atno 10718 bound_to 10713
  153.2639  135.4222  155.0921 H   0  0  0  0  0  0  0  0  0  0  0  0  # atno 10763 bound_to 10752
  154.8430  135.3455  154.6339 H   0  0  0  0  0  0  0  0  0  0  0  0  # atno 10764 bound_to 10752
  153.6759  135.7041  153.5190 H   0  0  0  0  0  0  0  0  0  0  0  0  # atno 10765 bound_to 10752
  140.2560  134.7939  157.3546 H   0  0  0  0  0  0  0  0  0  0  0  0  # atno 11005 bound_to 11000
  145.2344  139.2100  143.5026 LP  0  0  0  0  0  0  0  0  0  0  0  0  # atno 17320 bound_to 7965
  146.3421  140.2227  142.8592 LP  0  0  0  0  0  0  0  0  0  0  0  0  # atno 17321 bound_to 7965
  139.5694  144.1965  152.1813 LP  0  0  0  0  0  0  0  0  0  0  0  0  # atno 17342 bound_to 10162
  140.1257  144.5334  150.6834 LP  0  0  0  0  0  0  0  0  0  0  0  0  # atno 17343 bound_to 10162
  156.4277  130.3965  149.6782 LP  0  0  0  0  0  0  0  0  0  0  0  0  # atno 17370 bound_to 10713
  156.4010  130.7675  151.2682 LP  0  0  0  0  0  0  0  0  0  0  0  0  # atno 17371 bound_to 10713
  140.1511  134.4849  155.7961 LP  0  0  0  0  0  0  0  0  0  0  0  0  # atno 17394 bound_to 11000
  141.2196  133.6863  156.7379 LP  0  0  0  0  0  0  0  0  0  0  0  0  # atno 17395 bound_to 11000

$$$$
