AV-unprocessed.smi:1488|AV-procd|sdf|6024|dock6
  -GOLD-   22720 6123D 1   1.00000     0.00000
 Structure written by MMmdl.
 36 37  0  0  0  0  0  0  0  0  1 V2000
  150.4714  141.8433  156.1275 C   0  0  0  0  0  0  0  0  0  0  0  0
  150.1261  140.6625  155.2864 C   0  0  0  0  0  0  0  0  0  0  0  0
  148.9379  140.1466  154.8510 C   0  0  0  0  0  0  0  0  0  0  0  0
  149.3394  139.0134  154.0950 C   0  0  0  0  0  0  0  0  0  0  0  0
  148.3791  138.1844  153.4615 N   0  0  0  0  0  0  0  0  0  0  0  0
  147.0409  138.2668  153.5494 C   0  0  0  0  0  0  0  0  0  0  0  0
  146.4226  139.0965  154.2170 O   0  0  0  0  0  0  0  0  0  0  0  0
  146.4472  137.3165  152.8134 N   0  0  0  0  0  0  0  0  0  0  0  0
  145.0042  137.1137  152.6935 C   0  0  2  0  0  0  0  0  0  0  0  0
  144.5303  135.9168  153.5443 C   0  0  0  0  0  0  0  0  0  0  0  0
  145.0261  134.5721  152.9840 C   0  0  0  0  0  0  0  0  0  0  0  0
  144.6143  134.3788  151.5090 C   0  0  2  0  0  0  0  0  0  0  0  0
  145.1012  133.0277  150.9455 C   0  0  0  0  0  0  0  0  0  0  0  0
  144.7078  132.0196  151.7247 F   0  0  0  0  0  0  0  0  0  0  0  0
  144.6125  132.8409  149.7194 F   0  0  0  0  0  0  0  0  0  0  0  0
  146.4320  133.0185  150.8685 F   0  0  0  0  0  0  0  0  0  0  0  0
  145.1074  135.5690  150.6588 C   0  0  0  0  0  0  0  0  0  0  0  0
  144.6156  136.9168  151.2163 C   0  0  0  0  0  0  0  0  0  0  0  0
  150.6535  138.8524  154.0703 N   0  0  0  0  0  0  0  0  0  0  0  0
  151.1646  139.9082  154.8344 O   0  0  0  0  0  0  0  0  0  0  0  0
  149.6430  142.5509  156.1631 H   0  0  0  0  0  0  0  0  0  0  0  0
  151.3422  142.3634  155.7280 H   0  0  0  0  0  0  0  0  0  0  0  0
  150.6990  141.5360  157.1482 H   0  0  0  0  0  0  0  0  0  0  0  0
  147.9439  140.5217  155.0448 H   0  0  0  0  0  0  0  0  0  0  0  0
  148.7515  137.4497  152.8784 H   0  0  0  0  0  0  0  0  0  0  0  0
  147.0367  136.6789  152.2986 H   0  0  0  0  0  0  0  0  0  0  0  0
  144.5054  138.0160  153.0523 H   0  0  0  0  0  0  0  0  0  0  0  0
  144.8536  136.0313  154.5796 H   0  0  0  0  0  0  0  0  0  0  0  0
  143.4400  135.9087  153.5712 H   0  0  0  0  0  0  0  0  0  0  0  0
  146.1112  134.5151  153.0773 H   0  0  0  0  0  0  0  0  0  0  0  0
  144.6254  133.7613  153.5931 H   0  0  0  0  0  0  0  0  0  0  0  0
  143.5239  134.3740  151.4692 H   0  0  0  0  0  0  0  0  0  0  0  0
  146.1969  135.5665  150.6163 H   0  0  0  0  0  0  0  0  0  0  0  0
  144.7632  135.4604  149.6301 H   0  0  0  0  0  0  0  0  0  0  0  0
  143.5296  136.9641  151.1236 H   0  0  0  0  0  0  0  0  0  0  0  0
  145.0057  137.7361  150.6108 H   0  0  0  0  0  0  0  0  0  0  0  0
  1  2  1  0  0  0  0
  1 21  1  0  0  0  0
  1 22  1  0  0  0  0
  1 23  1  0  0  0  0
  2 20  1  0  0  0  0
  2  3  2  0  0  0  0
  3  4  1  0  0  0  0
  3 24  1  0  0  0  0
  4  5  1  0  0  0  0
  4 19  2  0  0  0  0
  5  6  1  0  0  0  0
  5 25  1  0  0  0  0
  6  7  2  0  0  0  0
  6  8  1  0  0  0  0
  8  9  1  0  0  0  0
  8 26  1  0  0  0  0
  9 18  1  0  0  0  0
  9 10  1  0  0  0  0
  9 27  1  0  0  0  0
 10 11  1  0  0  0  0
 10 28  1  0  0  0  0
 10 29  1  0  0  0  0
 11 12  1  0  0  0  0
 11 30  1  0  0  0  0
 11 31  1  0  0  0  0
 12 13  1  0  0  0  0
 12 17  1  0  0  0  0
 12 32  1  0  0  0  0
 13 14  1  0  0  0  0
 13 15  1  0  0  0  0
 13 16  1  0  0  0  0
 17 18  1  0  0  0  0
 17 33  1  0  0  0  0
 17 34  1  0  0  0  0
 18 35  1  0  0  0  0
 18 36  1  0  0  0  0
 19 20  1  0  0  0  0
M  END
> <s_m_source_file>
AV-unprocessed.smi

> <i_m_source_file_index>
1488

> <i_lp_mmshare_version>
43012

> <i_f3d_flags>
0

> <s_epik_input>
W0NIM11jMVtjSF1jKG5vMSlbTkhdQyg9TylbTkhdW0NAQEhdMltDSDJdW0NIMl1bQ0BASF0oQyhGKShGKUYpW0NIMl1bQ0gyXTI=

> <s_epik_cmdline>
J2VwaWtfcHl0aG9uJywgJy1waCcsICc3LjAnLCAnLXRuJywgJzgnLCAnLW1hJywgJzIwMCcsICctbWV0YWxfYmluZGluZycsICctaW1hZScsICc8aW5maWxlLm1hZT4nLCAnLW9tYWUnLCAnPG91dGZpbGUubWFlPic=

> <r_lp_tautomer_probability>
1

> <r_epik_Ionization_Penalty>
2.30349e-05

> <r_epik_Ionization_Penalty_Charging>
0

> <r_epik_Ionization_Penalty_Neutral>
2.30349e-05

> <r_epik_State_Penalty>
-0

> <r_epik_Charging_Adjusted_Penalty>
0

> <i_epik_Tot_Q>
0

> <i_epik_Tot_abs_Q>
0

> <r_epik_Metal_State_Penalty>
-0

> <b_epik_Metal_Only>
0

> <s_lp_Force_Field>
OPLS_2005

> <r_lp_Energy>
6.9589

> <b_lp_Chiralities_Consistent>
1

> <s_lp_Variant>
AV-unprocessed.smi:1488-2

> <Gold.Version>
5.8.1

> <Gold.Id.Protein>
6NUR|6NUR_protein|mol2

> <Gold.PLP.Fitness>
37.1790

> <Gold.PLP.PLP>
-29.5472

> <Gold.PLP.part.hbond>
-3.7521

> <Gold.PLP.part.metal>
0.0000

> <Gold.PLP.part.buried>
1.4913

> <Gold.PLP.part.nonpolar>
-27.4028

> <Gold.PLP.part.repulsive>
0.4569

> <Gold.PLP.ligand.clash>
0.0000

> <Gold.PLP.ligand.torsion>
0.2384

> <Gold.PLP.Chemscore.Hbond>
2.6960

> <Gold.PLP.Chemscore.CHOScore>
0.0000

> <Gold.PLP.Chemscore.Metal>
0.0000

> <Gold.Chemscore.Hbonds>
donor molecule, donor type, donor heavy atom, donor atom, acceptor molecule, acceptor atom, score
      L1  H     5    25       P1  7948  1.00
      L1  H     8    26       P1  7948  0.90
      P1  H  7989  7998       L1    20  0.76

> <Gold.PLP.Chemscore.Internal.Correction>
0.0205

> <Gold.Rescore>
     Score         DG    S(hbond)    S(metal)    S(lipo)     H(rot)  DE(clash)    DE(int)     intcor
     12.54     -15.96       1.95        0.00      55.85       1.00       1.78       1.63       ----

> <Gold.Chemscore.Fitness>
12.5415

> <Gold.Chemscore.DG>
-15.9569

> <Gold.Chemscore.ZeroCoef>
-5.4800

> <Gold.Chemscore.Hbond>
1.9467

> <Gold.Chemscore.Metal>
0.0000

> <Gold.Chemscore.Lipo>
55.8527

> <Gold.Chemscore.Internal_Hbond>
0.0000

> <Gold.Chemscore.DEClash>
1.7810

> <Gold.Chemscore.DEInternal>
1.6345

> <Gold.Chemscore.Rot>
1.0000

> <Gold.Chemscore.Internal.Correction>
   9.000000E+99

> <Gold.Chemscore.Hbonds>
donor molecule, donor type, donor heavy atom, donor atom, acceptor molecule, acceptor atom, score
      L1  H     5    25       P1  7948  0.98
      L1  H     8    26       P1  7948  0.83
      P1  H  7989  7998       L1    20  0.03

> <Gold.Chemscore.Hbond.Weighted>
-6.5021

> <Gold.Chemscore.Metal.Weighted>
-0.0000

> <Gold.Chemscore.Lipo.Weighted>
-6.5348

> <Gold.Chemscore.Internal_Hbond.Weighted>
0.0000

> <Gold.Chemscore.DEClash.Weighted>
1.7810

> <Gold.Chemscore.DEInternal.Weighted>
1.6345

> <Gold.Chemscore.Rot.Weighted>
2.5600

> <Gold.Chemscore.Internal.Correction.Weighted>
   9.000000E+99

> <Gold.Protein.RotatedTorsions>
[ 6907 6896 6895 6894 ] final   16.69 input  -60.11 | X-H torsion
[ 7974 7965 7964 7962 ] final  -55.67 input  175.53 | X-H torsion
[ 8008 7997 7996 7995 ] final   95.94 input   59.86 | X-H torsion
[ 10167 10162 10161 10158 ] final  -77.80 input  -65.29 | X-H torsion
[ 10718 10713 10712 10709 ] final  169.11 input   66.30 | X-H torsion
[ 10763 10752 10751 10750 ] final -131.12 input  -60.55 | X-H torsion
[ 11005 11000 10999 10996 ] final   70.59 input  -57.11 | X-H torsion

> <Gold.Protein.ActiveResidues>
 VAL166  LYS551  ARG553  GLY616  TRP617  ASP618  TYR619  PRO620  LYS621  CYS622 
 ASP623  PHE694  ASN695  SER759  ASP760  ASP761  ALA762  ILE779  LEU786  VAL792 
 PHE793  MET794  SER795  GLU796  ALA797  LYS798  CYS799  TRP800  GLU811  SER814 

> <Gold.Protein.RotatedAtoms>
  151.8378  135.0600  160.0444 H   0  0  0  0  0  0  0  0  0  0  0  0  # atno 6907 bound_to 6896
  152.2832  133.5485  159.5519 H   0  0  0  0  0  0  0  0  0  0  0  0  # atno 6908 bound_to 6896
  150.7198  134.0451  159.3821 H   0  0  0  0  0  0  0  0  0  0  0  0  # atno 6909 bound_to 6896
  145.8715  140.8213  142.9886 H   0  0  0  0  0  0  0  0  0  0  0  0  # atno 7974 bound_to 7965
  156.0743  140.3279  155.7614 H   0  0  0  0  0  0  0  0  0  0  0  0  # atno 8008 bound_to 7997
  155.5255  140.0589  157.2916 H   0  0  0  0  0  0  0  0  0  0  0  0  # atno 8009 bound_to 7997
  154.4547  140.1936  156.0432 H   0  0  0  0  0  0  0  0  0  0  0  0  # atno 8010 bound_to 7997
  140.4738  143.2419  151.8164 H   0  0  0  0  0  0  0  0  0  0  0  0  # atno 10167 bound_to 10162
  157.0273  131.0249  151.2756 H   0  0  0  0  0  0  0  0  0  0  0  0  # atno 10718 bound_to 10713
  154.8752  135.3840  154.4194 H   0  0  0  0  0  0  0  0  0  0  0  0  # atno 10763 bound_to 10752
  153.4899  135.7030  153.5895 H   0  0  0  0  0  0  0  0  0  0  0  0  # atno 10764 bound_to 10752
  153.4273  135.3887  155.2116 H   0  0  0  0  0  0  0  0  0  0  0  0  # atno 10765 bound_to 10752
  139.9589  134.7095  156.0690 H   0  0  0  0  0  0  0  0  0  0  0  0  # atno 11005 bound_to 11000
  144.6726  140.1246  143.7447 LP  0  0  0  0  0  0  0  0  0  0  0  0  # atno 17320 bound_to 7965
  145.9131  139.2499  143.1425 LP  0  0  0  0  0  0  0  0  0  0  0  0  # atno 17321 bound_to 7965
  139.4822  144.4858  151.9248 LP  0  0  0  0  0  0  0  0  0  0  0  0  # atno 17342 bound_to 10162
  140.3943  144.2575  150.5897 LP  0  0  0  0  0  0  0  0  0  0  0  0  # atno 17343 bound_to 10162
  157.5204  130.7994  149.7803 LP  0  0  0  0  0  0  0  0  0  0  0  0  # atno 17370 bound_to 10713
  156.0081  130.3846  150.2358 LP  0  0  0  0  0  0  0  0  0  0  0  0  # atno 17371 bound_to 10713
  141.1264  133.6598  156.3348 LP  0  0  0  0  0  0  0  0  0  0  0  0  # atno 17394 bound_to 11000
  140.5545  134.5995  157.5417 LP  0  0  0  0  0  0  0  0  0  0  0  0  # atno 17395 bound_to 11000

$$$$
