AV-unprocessed.smi:203|AV-procd|sdf|1597|dock5
  -GOLD-   2262019503D 1   1.00000     0.00000
 Structure written by MMmdl.
 57 61  0  0  0  0  0  0  0  0  1 V2000
  147.4463  142.2676  157.6398 O   0  0  0  0  0  0  0  0  0  0  0  0
  148.5281  141.9213  157.1713 C   0  0  0  0  0  0  0  0  0  0  0  0
  149.2758  140.6770  157.6182 C   0  0  0  0  0  0  0  0  0  0  0  0
  150.6473  140.8080  156.9249 C   0  0  2  0  0  0  0  0  0  0  0  0
  151.8399  141.0805  157.8961 C   0  0  1  0  0  0  0  0  0  0  0  0
  151.6123  142.3279  158.7911 C   0  0  0  0  0  0  0  0  0  0  0  0
  152.7951  142.5735  159.7372 C   0  0  0  0  0  0  0  0  0  0  0  0
  153.0585  141.3199  160.5778 C   0  0  0  0  0  0  0  0  0  0  0  0
  153.2883  140.1063  159.6677 C   0  0  0  0  0  0  0  0  0  0  0  0
  152.1737  139.9180  158.7393 N   0  0  0  0  0  0  0  0  0  0  0  0
  152.2837  138.7257  158.1119 C   0  0  0  0  0  0  0  0  0  0  0  0
  153.5334  138.3080  157.7937 N   0  0  0  0  0  0  0  0  0  0  0  0
  153.7082  137.1337  157.1798 C   0  0  0  0  0  0  0  0  0  0  0  0
  152.7877  136.2441  156.8006 N   0  0  0  0  0  0  0  0  0  0  0  0
  151.5295  136.6675  157.1134 C   0  0  0  0  0  0  0  0  0  0  0  0
  151.1879  137.8875  157.7611 C   0  0  0  0  0  0  0  0  0  0  0  0
  149.8086  137.9777  157.9068 N   0  0  0  0  0  0  0  0  0  0  0  0
  149.3603  136.8714  157.3786 C   0  0  0  0  0  0  0  0  0  0  0  0
  150.3257  136.0277  156.8779 N   0  0  0  0  0  0  0  0  0  0  0  0
  150.1056  134.7394  156.2432 C   0  0  0  0  0  0  0  0  0  0  0  0
  149.1856  134.8369  155.0074 C   0  0  1  0  0  0  0  0  0  0  0  0
  149.6670  135.8789  154.1803 O   0  0  0  0  0  0  0  0  0  0  0  0
  149.1631  133.5440  154.1671 C   0  0  1  0  0  0  0  0  0  0  0  0
  149.0048  132.2534  154.9739 C   0  0  0  0  0  0  0  0  0  0  0  0
  148.4139  131.2755  153.9720 C   0  0  0  0  0  0  0  0  0  0  0  0
  147.8443  132.1766  152.8742 C   0  0  0  0  0  0  0  0  0  0  0  0
  147.9900  133.5011  153.3680 O   0  0  0  0  0  0  0  0  0  0  0  0
  150.4535  141.9149  155.8660 C   0  0  0  0  0  0  0  0  0  0  0  0
  149.2041  142.5605  156.2190 N   0  0  0  0  0  0  0  0  0  0  0  0
  149.3430  140.6212  158.7050 H   0  0  0  0  0  0  0  0  0  0  0  0
  148.7427  139.7929  157.2678 H   0  0  0  0  0  0  0  0  0  0  0  0
  150.8433  139.8878  156.3737 H   0  0  0  0  0  0  0  0  0  0  0  0
  152.7167  141.2885  157.2821 H   0  0  0  0  0  0  0  0  0  0  0  0
  151.4572  143.2196  158.1851 H   0  0  0  0  0  0  0  0  0  0  0  0
  150.7087  142.2057  159.3884 H   0  0  0  0  0  0  0  0  0  0  0  0
  153.6850  142.8265  159.1596 H   0  0  0  0  0  0  0  0  0  0  0  0
  152.5881  143.4249  160.3858 H   0  0  0  0  0  0  0  0  0  0  0  0
  153.9238  141.4737  161.2228 H   0  0  0  0  0  0  0  0  0  0  0  0
  152.2085  141.1307  161.2348 H   0  0  0  0  0  0  0  0  0  0  0  0
  154.2115  140.2397  159.1021 H   0  0  0  0  0  0  0  0  0  0  0  0
  153.4179  139.2130  160.2810 H   0  0  0  0  0  0  0  0  0  0  0  0
  154.7322  136.8686  156.9615 H   0  0  0  0  0  0  0  0  0  0  0  0
  148.3060  136.6390  157.3377 H   0  0  0  0  0  0  0  0  0  0  0  0
  151.0708  134.3122  155.9674 H   0  0  0  0  0  0  0  0  0  0  0  0
  149.6749  134.0738  156.9917 H   0  0  0  0  0  0  0  0  0  0  0  0
  148.1733  135.0829  155.3306 H   0  0  0  0  0  0  0  0  0  0  0  0
  149.2631  135.7984  153.3298 H   0  0  0  0  0  0  0  0  0  0  0  0
  150.0483  133.4730  153.5310 H   0  0  0  0  0  0  0  0  0  0  0  0
  149.9444  131.9020  155.4009 H   0  0  0  0  0  0  0  0  0  0  0  0
  148.2987  132.4063  155.7914 H   0  0  0  0  0  0  0  0  0  0  0  0
  149.1814  130.6170  153.5631 H   0  0  0  0  0  0  0  0  0  0  0  0
  147.6460  130.6527  154.4324 H   0  0  0  0  0  0  0  0  0  0  0  0
  148.4182  132.0694  151.9530 H   0  0  0  0  0  0  0  0  0  0  0  0
  146.7997  131.9573  152.6528 H   0  0  0  0  0  0  0  0  0  0  0  0
  151.2756  142.6300  155.8314 H   0  0  0  0  0  0  0  0  0  0  0  0
  150.3531  141.4842  154.8691 H   0  0  0  0  0  0  0  0  0  0  0  0
  148.8886  143.4121  155.7773 H   0  0  0  0  0  0  0  0  0  0  0  0
  1  2  2  0  0  0  0
  2 29  1  0  0  0  0
  2  3  1  0  0  0  0
  3  4  1  0  0  0  0
  3 30  1  0  0  0  0
  3 31  1  0  0  0  0
  4  5  1  0  0  0  0
  4 28  1  0  0  0  0
  4 32  1  0  0  0  0
  5 10  1  0  0  0  0
  5  6  1  0  0  0  0
  5 33  1  0  0  0  0
  6  7  1  0  0  0  0
  6 34  1  0  0  0  0
  6 35  1  0  0  0  0
  7  8  1  0  0  0  0
  7 36  1  0  0  0  0
  7 37  1  0  0  0  0
  8  9  1  0  0  0  0
  8 38  1  0  0  0  0
  8 39  1  0  0  0  0
  9 10  1  0  0  0  0
  9 40  1  0  0  0  0
  9 41  1  0  0  0  0
 10 11  1  0  0  0  0
 11 16  1  0  0  0  0
 11 12  2  0  0  0  0
 12 13  1  0  0  0  0
 13 14  2  0  0  0  0
 13 42  1  0  0  0  0
 14 15  1  0  0  0  0
 15 19  1  0  0  0  0
 15 16  2  0  0  0  0
 16 17  1  0  0  0  0
 17 18  2  0  0  0  0
 18 19  1  0  0  0  0
 18 43  1  0  0  0  0
 19 20  1  0  0  0  0
 20 21  1  0  0  0  0
 20 44  1  0  0  0  0
 20 45  1  0  0  0  0
 21 22  1  0  0  0  0
 21 23  1  0  0  0  0
 21 46  1  0  0  0  0
 22 47  1  0  0  0  0
 23 27  1  0  0  0  0
 23 24  1  0  0  0  0
 23 48  1  0  0  0  0
 24 25  1  0  0  0  0
 24 49  1  0  0  0  0
 24 50  1  0  0  0  0
 25 26  1  0  0  0  0
 25 51  1  0  0  0  0
 25 52  1  0  0  0  0
 26 27  1  0  0  0  0
 26 53  1  0  0  0  0
 26 54  1  0  0  0  0
 28 29  1  0  0  0  0
 28 55  1  0  0  0  0
 28 56  1  0  0  0  0
 29 57  1  0  0  0  0
M  END
> <s_m_source_file>
AV-unprocessed.smi

> <i_m_source_file_index>
203

> <i_lp_mmshare_version>
43012

> <i_f3d_flags>
0

> <s_epik_input>
Tz1DMVtDSDJdW0NASF0oW0NIMl1bTkhdMSlbQ0BASF0yW0NIMl1bQ0gyXVtDSDJdW0NIMl1OMmMobltjSF1uMyljKGMzNCluW2NIXW40W0NIMl1bQ0BIXShbT0hdKVtDQEBIXTVbQ0gyXVtDSDJdW0NIMl1PNQ==

> <s_epik_cmdline>
J2VwaWtfcHl0aG9uJywgJy1waCcsICc3LjAnLCAnLXRuJywgJzgnLCAnLW1hJywgJzIwMCcsICctbWV0YWxfYmluZGluZycsICctaW1hZScsICc8aW5maWxlLm1hZT4nLCAnLW9tYWUnLCAnPG91dGZpbGUubWFlPic=

> <r_lp_tautomer_probability>
1

> <r_epik_Ionization_Penalty>
0.00175146

> <r_epik_Ionization_Penalty_Charging>
0

> <r_epik_Ionization_Penalty_Neutral>
0.00175146

> <r_epik_State_Penalty>
0.00109045

> <r_epik_Charging_Adjusted_Penalty>
0.00109045

> <i_epik_Tot_Q>
0

> <i_epik_Tot_abs_Q>
0

> <r_epik_Metal_State_Penalty>
-0

> <b_epik_Metal_Only>
0

> <s_lp_Force_Field>
OPLS_2005

> <r_lp_Energy>
57.64

> <b_lp_Chiralities_Consistent>
1

> <s_lp_Variant>
AV-unprocessed.smi:203-16

> <Gold.Version>
5.8.1

> <Gold.Id.Protein>
6NUR|6NUR_protein|mol2

> <Gold.PLP.Fitness>
53.4657

> <Gold.PLP.PLP>
-43.3343

> <Gold.PLP.part.hbond>
-4.5002

> <Gold.PLP.part.metal>
0.0000

> <Gold.PLP.part.buried>
-5.8371

> <Gold.PLP.part.nonpolar>
-33.2517

> <Gold.PLP.part.repulsive>
0.2922

> <Gold.PLP.ligand.clash>
0.0000

> <Gold.PLP.ligand.torsion>
1.0886

> <Gold.PLP.Chemscore.Hbond>
4.0000

> <Gold.PLP.Chemscore.CHOScore>
0.0000

> <Gold.PLP.Chemscore.Metal>
0.0000

> <Gold.Chemscore.Hbonds>
donor molecule, donor type, donor heavy atom, donor atom, acceptor molecule, acceptor atom, score
      L1  H    22    47       P1  7948  0.99
      L1  H    29    57       P1  8028  0.44
      P1  H  7997  8009       L1    12  0.70
      P1  H 10752 10765       L1    14  1.00

> <Gold.PLP.Chemscore.Internal.Correction>
0.3086

> <Gold.Rescore>
     Score         DG    S(hbond)    S(metal)    S(lipo)     H(rot)  DE(clash)    DE(int)     intcor
     18.73     -19.86       3.02        0.00      96.22       2.72       0.03       1.11       ----

> <Gold.Chemscore.Fitness>
18.7257

> <Gold.Chemscore.DG>
-19.8616

> <Gold.Chemscore.ZeroCoef>
-5.4800

> <Gold.Chemscore.Hbond>
3.0178

> <Gold.Chemscore.Metal>
0.0000

> <Gold.Chemscore.Lipo>
96.2212

> <Gold.Chemscore.Internal_Hbond>
0.0000

> <Gold.Chemscore.DEClash>
0.0306

> <Gold.Chemscore.DEInternal>
1.1052

> <Gold.Chemscore.Rot>
2.7171

> <Gold.Chemscore.Internal.Correction>
   9.000000E+99

> <Gold.Chemscore.Hbonds>
donor molecule, donor type, donor heavy atom, donor atom, acceptor molecule, acceptor atom, score
      L1  H    22    47       P1  7948  0.51
      L1  H    29    57       P1  8028  0.44
      P1  H  7997  8009       L1    12  0.38
      P1  H 10752 10765       L1    14  0.45

> <Gold.Chemscore.Hbond.Weighted>
-10.0794

> <Gold.Chemscore.Metal.Weighted>
-0.0000

> <Gold.Chemscore.Lipo.Weighted>
-11.2579

> <Gold.Chemscore.Internal_Hbond.Weighted>
0.0000

> <Gold.Chemscore.DEClash.Weighted>
0.0306

> <Gold.Chemscore.DEInternal.Weighted>
1.1052

> <Gold.Chemscore.Rot.Weighted>
6.9557

> <Gold.Chemscore.Internal.Correction.Weighted>
   9.000000E+99

> <Gold.Protein.RotatedTorsions>
[ 6907 6896 6895 6894 ] final -162.34 input  -60.11 | X-H torsion
[ 7974 7965 7964 7962 ] final  160.17 input  175.53 | X-H torsion
[ 8008 7997 7996 7995 ] final  156.69 input   59.86 | X-H torsion
[ 10167 10162 10161 10158 ] final  -94.69 input  -65.29 | X-H torsion
[ 10718 10713 10712 10709 ] final  -20.12 input   66.30 | X-H torsion
[ 10763 10752 10751 10750 ] final -120.95 input  -60.55 | X-H torsion
[ 11005 11000 10999 10996 ] final  166.24 input  -57.11 | X-H torsion

> <Gold.Protein.ActiveResidues>
 VAL166  LYS551  ARG553  GLY616  TRP617  ASP618  TYR619  PRO620  LYS621  CYS622 
 ASP623  PHE694  ASN695  SER759  ASP760  ASP761  ALA762  ILE779  LEU786  VAL792 
 PHE793  MET794  SER795  GLU796  ALA797  LYS798  CYS799  TRP800  GLU811  SER814 

> <Gold.Protein.RotatedAtoms>
  151.3788  133.3828  159.2707 H   0  0  0  0  0  0  0  0  0  0  0  0  # atno 6907 bound_to 6896
  150.9593  134.8984  159.7731 H   0  0  0  0  0  0  0  0  0  0  0  0  # atno 6908 bound_to 6896
  152.5143  134.3747  159.9382 H   0  0  0  0  0  0  0  0  0  0  0  0  # atno 6909 bound_to 6896
  144.7751  139.7720  143.6282 H   0  0  0  0  0  0  0  0  0  0  0  0  # atno 7974 bound_to 7965
  156.2408  140.1905  156.6994 H   0  0  0  0  0  0  0  0  0  0  0  0  # atno 8008 bound_to 7997
  154.6193  140.0611  156.9621 H   0  0  0  0  0  0  0  0  0  0  0  0  # atno 8009 bound_to 7997
  155.1888  140.3282  155.4365 H   0  0  0  0  0  0  0  0  0  0  0  0  # atno 8010 bound_to 7997
  140.3119  143.3100  152.0139 H   0  0  0  0  0  0  0  0  0  0  0  0  # atno 10167 bound_to 10162
  156.5362  130.4667  149.6522 H   0  0  0  0  0  0  0  0  0  0  0  0  # atno 10718 bound_to 10713
  154.8657  135.4185  154.2542 H   0  0  0  0  0  0  0  0  0  0  0  0  # atno 10763 bound_to 10752
  153.3482  135.6997  153.6816 H   0  0  0  0  0  0  0  0  0  0  0  0  # atno 10764 bound_to 10752
  153.5766  135.3581  155.2831 H   0  0  0  0  0  0  0  0  0  0  0  0  # atno 10765 bound_to 10752
  140.2644  134.7877  157.3619 H   0  0  0  0  0  0  0  0  0  0  0  0  # atno 11005 bound_to 11000
  146.1924  139.5172  142.9796 LP  0  0  0  0  0  0  0  0  0  0  0  0  # atno 17320 bound_to 7965
  145.6210  141.0322  143.1915 LP  0  0  0  0  0  0  0  0  0  0  0  0  # atno 17321 bound_to 7965
  139.4892  144.6378  151.6939 LP  0  0  0  0  0  0  0  0  0  0  0  0  # atno 17342 bound_to 10162
  140.5561  144.0346  150.6148 LP  0  0  0  0  0  0  0  0  0  0  0  0  # atno 17343 bound_to 10162
  156.3014  130.7179  151.2051 LP  0  0  0  0  0  0  0  0  0  0  0  0  # atno 17370 bound_to 10713
  157.7413  131.0505  150.5104 LP  0  0  0  0  0  0  0  0  0  0  0  0  # atno 17371 bound_to 10713
  140.1433  134.4943  155.8015 LP  0  0  0  0  0  0  0  0  0  0  0  0  # atno 17394 bound_to 11000
  141.2186  133.6834  156.7250 LP  0  0  0  0  0  0  0  0  0  0  0  0  # atno 17395 bound_to 11000

$$$$
