AV-unprocessed.smi:155|AV-procd|sdf|1269|dock7
  -GOLD-   2262018523D 1   1.00000     0.00000
 Structure written by MMmdl.
 63 66  0  0  0  0  0  0  0  0  2 V2000
  150.0520  133.4366  154.0957 C   0  0  0  0  0  0  0  0  0  0  0  0
  148.7790  132.8281  153.7241 N   0  0  0  0  0  0  0  0  0  0  0  0
  148.9675  131.3855  153.6504 C   0  0  0  0  0  0  0  0  0  0  0  0
  148.3060  133.3183  152.4302 C   0  0  0  0  0  0  0  0  0  0  0  0
  147.0331  132.5965  151.9229 C   0  0  0  0  0  0  0  0  0  0  0  0
  145.8332  133.4638  151.7764 N   0  3  2  0  0  0  0  0  0  0  0  0
  144.5372  132.7350  151.8641 C   0  0  0  0  0  0  0  0  0  0  0  0
  143.2955  133.6375  151.7022 C   0  0  0  0  0  0  0  0  0  0  0  0
  143.3144  134.9215  152.5555 C   0  0  0  0  0  0  0  0  0  0  0  0
  144.4742  135.7728  152.2789 N   0  0  0  0  0  0  0  0  0  0  0  0
  144.9802  136.5457  153.2747 C   0  0  0  0  0  0  0  0  0  0  0  0
  144.7472  136.1711  154.5599 N   0  0  0  0  0  0  0  0  0  0  0  0
  145.2156  136.9029  155.5750 C   0  0  0  0  0  0  0  0  0  0  0  0
  145.9365  138.0241  155.5310 N   0  0  0  0  0  0  0  0  0  0  0  0
  146.1891  138.3990  154.2449 C   0  0  0  0  0  0  0  0  0  0  0  0
  145.7551  137.7250  153.0673 C   0  0  0  0  0  0  0  0  0  0  0  0
  146.2273  138.3973  151.9445 N   0  0  0  0  0  0  0  0  0  0  0  0
  146.8816  139.4172  152.4287 C   0  0  0  0  0  0  0  0  0  0  0  0
  146.9072  139.4950  153.8013 N   0  0  0  0  0  0  0  0  0  0  0  0
  147.5558  140.5220  154.5974 C   0  0  0  0  0  0  0  0  0  0  0  0
  149.0890  140.5042  154.4407 C   0  0  1  0  0  0  0  0  0  0  0  0
  149.4442  141.1433  153.2291 O   0  0  0  0  0  0  0  0  0  0  0  0
  149.8014  141.2121  155.6076 C   0  0  2  0  0  0  0  0  0  0  0  0
  151.3026  140.9273  155.7038 C   0  0  0  0  0  0  0  0  0  0  0  0
  151.6143  141.0904  157.1842 C   0  0  0  0  0  0  0  0  0  0  0  0
  150.2386  141.1591  157.8507 C   0  0  0  0  0  0  0  0  0  0  0  0
  149.3299  140.7196  156.8523 O   0  0  0  0  0  0  0  0  0  0  0  0
  145.1092  135.7543  150.9593 C   0  0  0  0  0  0  0  0  0  0  0  0
  145.9248  134.4667  150.6799 C   0  0  0  0  0  0  0  0  0  0  0  0
  149.9622  134.5151  154.2179 H   0  0  0  0  0  0  0  0  0  0  0  0
  150.8209  133.2405  153.3468 H   0  0  0  0  0  0  0  0  0  0  0  0
  150.3996  133.0353  155.0483 H   0  0  0  0  0  0  0  0  0  0  0  0
  148.0279  130.8869  153.4098 H   0  0  0  0  0  0  0  0  0  0  0  0
  149.3103  130.9933  154.6085 H   0  0  0  0  0  0  0  0  0  0  0  0
  149.7018  131.1176  152.8890 H   0  0  0  0  0  0  0  0  0  0  0  0
  148.1062  134.3877  152.5162 H   0  0  0  0  0  0  0  0  0  0  0  0
  149.0982  133.2284  151.6870 H   0  0  0  0  0  0  0  0  0  0  0  0
  147.2091  132.0529  150.9955 H   0  0  0  0  0  0  0  0  0  0  0  0
  146.7724  131.8284  152.6520 H   0  0  0  0  0  0  0  0  0  0  0  0
  144.4901  131.9580  151.1031 H   0  0  0  0  0  0  0  0  0  0  0  0
  144.4947  132.2305  152.8301 H   0  0  0  0  0  0  0  0  0  0  0  0
  143.1626  133.8943  150.6509 H   0  0  0  0  0  0  0  0  0  0  0  0
  142.4091  133.0576  151.9611 H   0  0  0  0  0  0  0  0  0  0  0  0
  142.4066  135.4984  152.3764 H   0  0  0  0  0  0  0  0  0  0  0  0
  143.3065  134.6393  153.6094 H   0  0  0  0  0  0  0  0  0  0  0  0
  144.9779  136.5382  156.5637 H   0  0  0  0  0  0  0  0  0  0  0  0
  147.3660  140.1463  151.7952 H   0  0  0  0  0  0  0  0  0  0  0  0
  147.1523  141.4949  154.3140 H   0  0  0  0  0  0  0  0  0  0  0  0
  147.2810  140.3643  155.6409 H   0  0  0  0  0  0  0  0  0  0  0  0
  149.4323  139.4703  154.3844 H   0  0  0  0  0  0  0  0  0  0  0  0
  149.4901  140.4902  152.5475 H   0  0  0  0  0  0  0  0  0  0  0  0
  149.6277  142.2893  155.5670 H   0  0  0  0  0  0  0  0  0  0  0  0
  151.5151  139.9019  155.3990 H   0  0  0  0  0  0  0  0  0  0  0  0
  151.8927  141.5921  155.0726 H   0  0  0  0  0  0  0  0  0  0  0  0
  152.1923  140.2412  157.5499 H   0  0  0  0  0  0  0  0  0  0  0  0
  152.1876  141.9969  157.3811 H   0  0  0  0  0  0  0  0  0  0  0  0
  150.1734  140.5408  158.7462 H   0  0  0  0  0  0  0  0  0  0  0  0
  149.9970  142.1863  158.1274 H   0  0  0  0  0  0  0  0  0  0  0  0
  144.3217  135.8493  150.2111 H   0  0  0  0  0  0  0  0  0  0  0  0
  145.7325  136.6376  150.8172 H   0  0  0  0  0  0  0  0  0  0  0  0
  146.9682  134.7572  150.5525 H   0  0  0  0  0  0  0  0  0  0  0  0
  145.6189  134.0182  149.7340 H   0  0  0  0  0  0  0  0  0  0  0  0
  145.8491  134.0304  152.6126 H   0  0  0  0  0  0  0  0  0  0  0  0
  1  2  1  0  0  0  0
  1 30  1  0  0  0  0
  1 31  1  0  0  0  0
  1 32  1  0  0  0  0
  2  3  1  0  0  0  0
  2  4  1  0  0  0  0
  3 33  1  0  0  0  0
  3 34  1  0  0  0  0
  3 35  1  0  0  0  0
  4  5  1  0  0  0  0
  4 36  1  0  0  0  0
  4 37  1  0  0  0  0
  5  6  1  0  0  0  0
  5 38  1  0  0  0  0
  5 39  1  0  0  0  0
  6 29  1  0  0  0  0
  6  7  1  0  0  0  0
  6 63  1  0  0  0  0
  7  8  1  0  0  0  0
  7 40  1  0  0  0  0
  7 41  1  0  0  0  0
  8  9  1  0  0  0  0
  8 42  1  0  0  0  0
  8 43  1  0  0  0  0
  9 10  1  0  0  0  0
  9 44  1  0  0  0  0
  9 45  1  0  0  0  0
 10 11  1  0  0  0  0
 10 28  1  0  0  0  0
 11 16  1  0  0  0  0
 11 12  2  0  0  0  0
 12 13  1  0  0  0  0
 13 14  2  0  0  0  0
 13 46  1  0  0  0  0
 14 15  1  0  0  0  0
 15 19  1  0  0  0  0
 15 16  2  0  0  0  0
 16 17  1  0  0  0  0
 17 18  2  0  0  0  0
 18 19  1  0  0  0  0
 18 47  1  0  0  0  0
 19 20  1  0  0  0  0
 20 21  1  0  0  0  0
 20 48  1  0  0  0  0
 20 49  1  0  0  0  0
 21 22  1  0  0  0  0
 21 23  1  0  0  0  0
 21 50  1  0  0  0  0
 22 51  1  0  0  0  0
 23 27  1  0  0  0  0
 23 24  1  0  0  0  0
 23 52  1  0  0  0  0
 24 25  1  0  0  0  0
 24 53  1  0  0  0  0
 24 54  1  0  0  0  0
 25 26  1  0  0  0  0
 25 55  1  0  0  0  0
 25 56  1  0  0  0  0
 26 27  1  0  0  0  0
 26 57  1  0  0  0  0
 26 58  1  0  0  0  0
 28 29  1  0  0  0  0
 28 59  1  0  0  0  0
 28 60  1  0  0  0  0
 29 61  1  0  0  0  0
 29 62  1  0  0  0  0
M  CHG  1   6   1
M  END
> <s_m_source_file>
AV-unprocessed.smi

> <i_m_source_file_index>
155

> <i_lp_mmshare_version>
43012

> <i_f3d_flags>
0

> <s_epik_input>
W0NIM11OKFtDSDNdKVtDSDJdW0NIMl1OMVtDSDJdW0NIMl1bQ0gyXU4oW0NIMl1bQ0gyXTEpYyhuW2NIXW4yKWMoYzIzKW5bY0hdbjNbQ0gyXVtDQEhdKFtPSF0pW0NAQEhdNFtDSDJdW0NIMl1bQ0gyXU80

> <s_epik_cmdline>
J2VwaWtfcHl0aG9uJywgJy1waCcsICc3LjAnLCAnLXRuJywgJzgnLCAnLW1hJywgJzIwMCcsICctbWV0YWxfYmluZGluZycsICctaW1hZScsICc8aW5maWxlLm1hZT4nLCAnLW9tYWUnLCAnPG91dGZpbGUubWFlPic=

> <r_epik_Ionization_Penalty>
0.0619615

> <r_epik_Ionization_Penalty_Charging>
0.0161638

> <r_epik_Ionization_Penalty_Neutral>
0.0457976

> <r_epik_State_Penalty>
0.403408

> <r_epik_Charging_Adjusted_Penalty>
0.419572

> <i_epik_Tot_Q>
1

> <i_epik_Tot_abs_Q>
1

> <r_epik_Metal_State_Penalty>
0.404222

> <b_epik_Metal_Only>
0

> <s_lp_Force_Field>
OPLS_2005

> <r_lp_Energy>
55.2712

> <b_lp_Chiralities_Consistent>
1

> <s_lp_Variant>
AV-unprocessed.smi:155-3

> <Gold.Version>
5.8.1

> <Gold.Id.Protein>
6NUR|6NUR_protein|mol2

> <Gold.PLP.Fitness>
50.9568

> <Gold.PLP.PLP>
-44.2257

> <Gold.PLP.part.hbond>
-2.4376

> <Gold.PLP.part.metal>
0.0000

> <Gold.PLP.part.buried>
-4.4638

> <Gold.PLP.part.nonpolar>
-37.3531

> <Gold.PLP.part.repulsive>
0.5082

> <Gold.PLP.ligand.clash>
0.0000

> <Gold.PLP.ligand.torsion>
1.1514

> <Gold.PLP.Chemscore.Hbond>
1.9452

> <Gold.PLP.Chemscore.CHOScore>
1.0000

> <Gold.PLP.Chemscore.Metal>
0.0000

> <Gold.Chemscore.Hbonds>
donor molecule, donor type, donor heavy atom, donor atom, acceptor molecule, acceptor atom, score
      L1  H    22    51       P1  7957  0.83
      P1  H  7989  7998       L1    22  0.02
      P1  H  8011  8017       L1    22  0.85
      L1  C    18    47       P1  7957  0.90

> <Gold.PLP.Chemscore.Internal.Correction>
0.1984

> <Gold.Rescore>
     Score         DG    S(hbond)    S(metal)    S(lipo)     H(rot)  DE(clash)    DE(int)     intcor
     11.48     -13.29       1.25        0.00      88.82       2.63       0.06       1.75       ----

> <Gold.Chemscore.Fitness>
11.4800

> <Gold.Chemscore.DG>
-13.2937

> <Gold.Chemscore.ZeroCoef>
-5.4800

> <Gold.Chemscore.Hbond>
1.2459

> <Gold.Chemscore.Metal>
0.0000

> <Gold.Chemscore.Lipo>
88.8151

> <Gold.Chemscore.Internal_Hbond>
0.0000

> <Gold.Chemscore.DEClash>
0.0592

> <Gold.Chemscore.DEInternal>
1.7545

> <Gold.Chemscore.Rot>
2.6324

> <Gold.Chemscore.Internal.Correction>
   9.000000E+99

> <Gold.Chemscore.Hbonds>
donor molecule, donor type, donor heavy atom, donor atom, acceptor molecule, acceptor atom, score
      L1  H    22    51       P1  7957  0.78
      P1  H  8011  8017       L1    22  0.14

> <Gold.Chemscore.Hbond.Weighted>
-4.1612

> <Gold.Chemscore.Metal.Weighted>
-0.0000

> <Gold.Chemscore.Lipo.Weighted>
-10.3914

> <Gold.Chemscore.Internal_Hbond.Weighted>
0.0000

> <Gold.Chemscore.DEClash.Weighted>
0.0592

> <Gold.Chemscore.DEInternal.Weighted>
1.7545

> <Gold.Chemscore.Rot.Weighted>
6.7389

> <Gold.Chemscore.Internal.Correction.Weighted>
   9.000000E+99

> <Gold.Protein.RotatedTorsions>
[ 6907 6896 6895 6894 ] final  162.59 input  -60.11 | X-H torsion
[ 7974 7965 7964 7962 ] final   40.09 input  175.53 | X-H torsion
[ 8008 7997 7996 7995 ] final  -15.67 input   59.86 | X-H torsion
[ 10167 10162 10161 10158 ] final -161.31 input  -65.29 | X-H torsion
[ 10718 10713 10712 10709 ] final  110.19 input   66.30 | X-H torsion
[ 10763 10752 10751 10750 ] final  -92.59 input  -60.55 | X-H torsion
[ 11005 11000 10999 10996 ] final -149.80 input  -57.11 | X-H torsion

> <Gold.Protein.ActiveResidues>
 VAL166  LYS551  ARG553  GLY616  TRP617  ASP618  TYR619  PRO620  LYS621  CYS622 
 ASP623  PHE694  ASN695  SER759  ASP760  ASP761  ALA762  ILE779  LEU786  VAL792 
 PHE793  MET794  SER795  GLU796  ALA797  LYS798  CYS799  TRP800  GLU811  SER814 

> <Gold.Protein.RotatedAtoms>
  151.9381  133.3630  159.3954 H   0  0  0  0  0  0  0  0  0  0  0  0  # atno 6907 bound_to 6896
  150.7003  134.4467  159.5327 H   0  0  0  0  0  0  0  0  0  0  0  0  # atno 6908 bound_to 6896
  152.2120  134.8493  160.0547 H   0  0  0  0  0  0  0  0  0  0  0  0  # atno 6909 bound_to 6896
  146.0932  139.5574  142.9462 H   0  0  0  0  0  0  0  0  0  0  0  0  # atno 7974 bound_to 7965
  154.5112  140.2190  155.9152 H   0  0  0  0  0  0  0  0  0  0  0  0  # atno 8008 bound_to 7997
  156.1555  140.3153  155.8684 H   0  0  0  0  0  0  0  0  0  0  0  0  # atno 8009 bound_to 7997
  155.3856  140.0475  157.3033 H   0  0  0  0  0  0  0  0  0  0  0  0  # atno 8010 bound_to 7997
  139.6475  144.0146  152.2137 H   0  0  0  0  0  0  0  0  0  0  0  0  # atno 10167 bound_to 10162
  157.6506  131.0928  150.6565 H   0  0  0  0  0  0  0  0  0  0  0  0  # atno 10718 bound_to 10713
  154.6876  135.5226  153.8347 H   0  0  0  0  0  0  0  0  0  0  0  0  # atno 10763 bound_to 10752
  153.0608  135.6567  154.0476 H   0  0  0  0  0  0  0  0  0  0  0  0  # atno 10764 bound_to 10752
  154.0355  135.2981  155.3342 H   0  0  0  0  0  0  0  0  0  0  0  0  # atno 10765 bound_to 10752
  140.7469  134.3450  157.5135 H   0  0  0  0  0  0  0  0  0  0  0  0  # atno 11005 bound_to 11000
  145.5998  141.0357  143.2024 LP  0  0  0  0  0  0  0  0  0  0  0  0  # atno 17320 bound_to 7965
  144.7376  139.7541  143.7323 LP  0  0  0  0  0  0  0  0  0  0  0  0  # atno 17321 bound_to 7965
  139.9851  144.6401  150.7865 LP  0  0  0  0  0  0  0  0  0  0  0  0  # atno 17342 bound_to 10162
  140.7521  143.2985  151.3142 LP  0  0  0  0  0  0  0  0  0  0  0  0  # atno 17343 bound_to 10162
  156.6877  130.4586  149.5609 LP  0  0  0  0  0  0  0  0  0  0  0  0  # atno 17370 bound_to 10713
  156.1884  130.6544  151.1033 LP  0  0  0  0  0  0  0  0  0  0  0  0  # atno 17371 bound_to 10713
  139.8795  134.9117  156.3043 LP  0  0  0  0  0  0  0  0  0  0  0  0  # atno 17394 bound_to 11000
  140.9786  133.7282  156.0638 LP  0  0  0  0  0  0  0  0  0  0  0  0  # atno 17395 bound_to 11000

$$$$
