AV-unprocessed.smi:2146|AV-procd|sdf|8739|dock9
  -GOLD-   2272011513D 1   1.00000     0.00000
 Structure written by MMmdl.
 44 45  0  0  0  0  0  0  0  0  1 V2000
  152.3214  138.6165  155.3253 C   0  0  0  0  0  0  0  0  0  0  0  0
  150.9244  138.6775  155.9960 C   0  0  1  0  0  0  0  0  0  0  0  0
  150.9528  137.8634  157.3218 C   0  0  0  0  0  0  0  0  0  0  0  0
  149.7079  137.1440  157.5815 N   0  0  0  0  0  0  0  0  0  0  0  0
  149.3088  136.6786  158.7753 C   0  0  0  0  0  0  0  0  0  0  0  0
  149.9539  136.8374  159.8125 O   0  0  0  0  0  0  0  0  0  0  0  0
  147.9768  135.9157  158.7855 C   0  0  0  0  0  0  0  0  0  0  0  0
  147.7228  135.2281  160.0620 N   0  0  0  0  0  0  0  0  0  0  0  0
  147.8293  133.8237  160.0532 C   0  0  0  0  0  0  0  0  0  0  0  0
  147.6341  133.0658  161.1488 C   0  0  0  0  0  0  0  0  0  0  0  0
  147.8261  131.5577  161.1183 C   0  0  0  0  0  0  0  0  0  0  0  0
  148.8403  131.1854  161.8995 F   0  0  0  0  0  0  0  0  0  0  0  0
  146.7222  130.9516  161.5528 F   0  0  0  0  0  0  0  0  0  0  0  0
  148.0729  131.1307  159.8793 F   0  0  0  0  0  0  0  0  0  0  0  0
  147.3285  133.7744  162.3763 C   0  0  0  0  0  0  0  0  0  0  0  0
  147.2368  135.1185  162.4052 C   0  0  0  0  0  0  0  0  0  0  0  0
  147.4392  135.9279  161.2012 C   0  0  0  0  0  0  0  0  0  0  0  0
  147.3618  137.1564  161.2179 O   0  0  0  0  0  0  0  0  0  0  0  0
  150.4379  140.0660  156.1780 N   0  0  0  0  0  0  0  0  0  0  0  0
  149.0654  140.1217  156.6959 C   0  0  0  0  0  0  0  0  0  0  0  0
  148.5644  141.5602  156.9117 C   0  0  0  0  0  0  0  0  0  0  0  0
  149.4447  142.2472  157.7898 O   0  0  0  0  0  0  0  0  0  0  0  0
  150.7719  142.2889  157.2851 C   0  0  0  0  0  0  0  0  0  0  0  0
  151.2915  140.8563  157.0729 C   0  0  0  0  0  0  0  0  0  0  0  0
  152.6759  137.5950  155.1957 H   0  0  0  0  0  0  0  0  0  0  0  0
  153.0661  139.1504  155.9163 H   0  0  0  0  0  0  0  0  0  0  0  0
  152.3221  139.0370  154.3210 H   0  0  0  0  0  0  0  0  0  0  0  0
  150.2317  138.1654  155.3260 H   0  0  0  0  0  0  0  0  0  0  0  0
  151.8123  137.1912  157.3302 H   0  0  0  0  0  0  0  0  0  0  0  0
  151.0714  138.5204  158.1816 H   0  0  0  0  0  0  0  0  0  0  0  0
  149.1112  136.9714  156.7852 H   0  0  0  0  0  0  0  0  0  0  0  0
  147.1748  136.6135  158.5399 H   0  0  0  0  0  0  0  0  0  0  0  0
  147.9756  135.1849  157.9745 H   0  0  0  0  0  0  0  0  0  0  0  0
  148.0966  133.4019  159.0948 H   0  0  0  0  0  0  0  0  0  0  0  0
  147.1682  133.2188  163.2884 H   0  0  0  0  0  0  0  0  0  0  0  0
  147.0080  135.6132  163.3378 H   0  0  0  0  0  0  0  0  0  0  0  0
  148.3727  139.6481  156.0029 H   0  0  0  0  0  0  0  0  0  0  0  0
  149.0015  139.5711  157.6356 H   0  0  0  0  0  0  0  0  0  0  0  0
  148.4959  142.0921  155.9614 H   0  0  0  0  0  0  0  0  0  0  0  0
  147.5645  141.5519  157.3459 H   0  0  0  0  0  0  0  0  0  0  0  0
  150.7971  142.8519  156.3507 H   0  0  0  0  0  0  0  0  0  0  0  0
  151.4057  142.8199  157.9953 H   0  0  0  0  0  0  0  0  0  0  0  0
  151.3791  140.3560  158.0384 H   0  0  0  0  0  0  0  0  0  0  0  0
  152.2974  140.9442  156.6673 H   0  0  0  0  0  0  0  0  0  0  0  0
  1  2  1  0  0  0  0
  1 25  1  0  0  0  0
  1 26  1  0  0  0  0
  1 27  1  0  0  0  0
  2  3  1  0  0  0  0
  2 19  1  0  0  0  0
  2 28  1  0  0  0  0
  3  4  1  0  0  0  0
  3 29  1  0  0  0  0
  3 30  1  0  0  0  0
  4  5  1  0  0  0  0
  4 31  1  0  0  0  0
  5  6  2  0  0  0  0
  5  7  1  0  0  0  0
  7  8  1  0  0  0  0
  7 32  1  0  0  0  0
  7 33  1  0  0  0  0
  8 17  1  0  0  0  0
  8  9  1  0  0  0  0
  9 10  2  0  0  0  0
  9 34  1  0  0  0  0
 10 11  1  0  0  0  0
 10 15  1  0  0  0  0
 11 12  1  0  0  0  0
 11 13  1  0  0  0  0
 11 14  1  0  0  0  0
 15 16  2  0  0  0  0
 15 35  1  0  0  0  0
 16 17  1  0  0  0  0
 16 36  1  0  0  0  0
 17 18  2  0  0  0  0
 19 24  1  0  0  0  0
 19 20  1  0  0  0  0
 20 21  1  0  0  0  0
 20 37  1  0  0  0  0
 20 38  1  0  0  0  0
 21 22  1  0  0  0  0
 21 39  1  0  0  0  0
 21 40  1  0  0  0  0
 22 23  1  0  0  0  0
 23 24  1  0  0  0  0
 23 41  1  0  0  0  0
 23 42  1  0  0  0  0
 24 43  1  0  0  0  0
 24 44  1  0  0  0  0
M  END
> <s_m_source_file>
AV-unprocessed.smi

> <i_m_source_file_index>
2146

> <i_lp_mmshare_version>
43012

> <i_f3d_flags>
0

> <s_epik_input>
W0NIMl0xW0NIMl1PW0NIMl1bQ0gyXU4xW0NASF0oW0NIM10pW0NIMl1bTkhdQyg9TylbQ0gyXW4yW2NIXWMoQyhGKShGKUYpW2NIXVtjSF1jMj1P

> <s_epik_cmdline>
J2VwaWtfcHl0aG9uJywgJy1waCcsICc3LjAnLCAnLXRuJywgJzgnLCAnLW1hJywgJzIwMCcsICctbWV0YWxfYmluZGluZycsICctaW1hZScsICc8aW5maWxlLm1hZT4nLCAnLW9tYWUnLCAnPG91dGZpbGUubWFlPic=

> <r_lp_tautomer_probability>
1

> <r_epik_Ionization_Penalty>
0.237382

> <r_epik_Ionization_Penalty_Charging>
1.80451e-08

> <r_epik_Ionization_Penalty_Neutral>
0.237382

> <r_epik_State_Penalty>
0.228245

> <r_epik_Charging_Adjusted_Penalty>
0.228245

> <i_epik_Tot_Q>
0

> <i_epik_Tot_abs_Q>
0

> <r_epik_Metal_State_Penalty>
0.22822

> <b_epik_Metal_Only>
0

> <s_lp_Force_Field>
OPLS_2005

> <r_lp_Energy>
40.9895

> <b_lp_Chiralities_Consistent>
1

> <s_lp_Variant>
AV-unprocessed.smi:2146-2

> <Gold.Version>
5.8.1

> <Gold.Id.Protein>
6NUR|6NUR_protein|mol2

> <Gold.PLP.Fitness>
43.8381

> <Gold.PLP.PLP>
-38.6369

> <Gold.PLP.part.hbond>
-3.3499

> <Gold.PLP.part.metal>
0.0000

> <Gold.PLP.part.buried>
-5.6512

> <Gold.PLP.part.nonpolar>
-30.3793

> <Gold.PLP.part.repulsive>
0.1813

> <Gold.PLP.ligand.clash>
1.4594

> <Gold.PLP.ligand.torsion>
0.8454

> <Gold.PLP.Chemscore.Hbond>
2.7505

> <Gold.PLP.Chemscore.CHOScore>
0.0000

> <Gold.PLP.Chemscore.Metal>
0.0000

> <Gold.Chemscore.Hbonds>
donor molecule, donor type, donor heavy atom, donor atom, acceptor molecule, acceptor atom, score
      P1  H  6896  6908       L1     6  0.75
      P1  H  6931  6943       L1    18  0.70
      P1  H  6934  6947       L1    18  1.00

> <Gold.PLP.Chemscore.Internal.Correction>
0.1000

> <Gold.Rescore>
     Score         DG    S(hbond)    S(metal)    S(lipo)     H(rot)  DE(clash)    DE(int)     intcor
     17.17     -18.09       2.74        0.00      75.58       2.10       0.00       0.91       ----

> <Gold.Chemscore.Fitness>
17.1745

> <Gold.Chemscore.DG>
-18.0905

> <Gold.Chemscore.ZeroCoef>
-5.4800

> <Gold.Chemscore.Hbond>
2.7405

> <Gold.Chemscore.Metal>
0.0000

> <Gold.Chemscore.Lipo>
75.5844

> <Gold.Chemscore.Internal_Hbond>
0.0000

> <Gold.Chemscore.DEClash>
0.0016

> <Gold.Chemscore.DEInternal>
0.9144

> <Gold.Chemscore.Rot>
2.1039

> <Gold.Chemscore.Internal.Correction>
   9.000000E+99

> <Gold.Chemscore.Hbonds>
donor molecule, donor type, donor heavy atom, donor atom, acceptor molecule, acceptor atom, score
      P1  H  6896  6908       L1     6  0.33
      P1  H  6931  6943       L1    18  0.66
      P1  H  6934  6947       L1    18  0.95

> <Gold.Chemscore.Hbond.Weighted>
-9.1531

> <Gold.Chemscore.Metal.Weighted>
-0.0000

> <Gold.Chemscore.Lipo.Weighted>
-8.8434

> <Gold.Chemscore.Internal_Hbond.Weighted>
0.0000

> <Gold.Chemscore.DEClash.Weighted>
0.0016

> <Gold.Chemscore.DEInternal.Weighted>
0.9144

> <Gold.Chemscore.Rot.Weighted>
5.3860

> <Gold.Chemscore.Internal.Correction.Weighted>
   9.000000E+99

> <Gold.Protein.RotatedTorsions>
[ 6907 6896 6895 6894 ] final -140.82 input  -60.11 | X-H torsion
[ 7974 7965 7964 7962 ] final  -17.63 input  175.53 | X-H torsion
[ 8008 7997 7996 7995 ] final   80.64 input   59.86 | X-H torsion
[ 10167 10162 10161 10158 ] final  -62.61 input  -65.29 | X-H torsion
[ 10718 10713 10712 10709 ] final -130.42 input   66.30 | X-H torsion
[ 10763 10752 10751 10750 ] final -111.86 input  -60.55 | X-H torsion
[ 11005 11000 10999 10996 ] final  -98.24 input  -57.11 | X-H torsion

> <Gold.Protein.ActiveResidues>
 VAL166  LYS551  ARG553  GLY616  TRP617  ASP618  TYR619  PRO620  LYS621  CYS622 
 ASP623  PHE694  ASN695  SER759  ASP760  ASP761  ALA762  ILE779  LEU786  VAL792 
 PHE793  MET794  SER795  GLU796  ALA797  LYS798  CYS799  TRP800  GLU811  SER814 

> <Gold.Protein.RotatedAtoms>
  151.0658  133.5507  159.2630 H   0  0  0  0  0  0  0  0  0  0  0  0  # atno 6907 bound_to 6896
  151.2465  135.0606  159.9055 H   0  0  0  0  0  0  0  0  0  0  0  0  # atno 6908 bound_to 6896
  152.5404  134.0425  159.8127 H   0  0  0  0  0  0  0  0  0  0  0  0  # atno 6909 bound_to 6896
  146.1931  140.3807  142.8450 H   0  0  0  0  0  0  0  0  0  0  0  0  # atno 7974 bound_to 7965
  155.8862  140.3441  155.5923 H   0  0  0  0  0  0  0  0  0  0  0  0  # atno 8008 bound_to 7997
  155.7663  140.0839  157.2149 H   0  0  0  0  0  0  0  0  0  0  0  0  # atno 8009 bound_to 7997
  154.4029  140.1526  156.2877 H   0  0  0  0  0  0  0  0  0  0  0  0  # atno 8010 bound_to 7997
  140.5927  143.2345  151.6103 H   0  0  0  0  0  0  0  0  0  0  0  0  # atno 10167 bound_to 10162
  156.2143  130.6938  151.0685 H   0  0  0  0  0  0  0  0  0  0  0  0  # atno 10718 bound_to 10713
  154.8321  135.4512  154.1105 H   0  0  0  0  0  0  0  0  0  0  0  0  # atno 10763 bound_to 10752
  153.2368  135.6912  153.7834 H   0  0  0  0  0  0  0  0  0  0  0  0  # atno 10764 bound_to 10752
  153.7196  135.3344  155.3240 H   0  0  0  0  0  0  0  0  0  0  0  0  # atno 10765 bound_to 10752
  141.1351  133.8231  157.0814 H   0  0  0  0  0  0  0  0  0  0  0  0  # atno 11005 bound_to 11000
  144.8526  140.7024  143.6158 LP  0  0  0  0  0  0  0  0  0  0  0  0  # atno 17320 bound_to 7965
  145.3729  139.1654  143.4322 LP  0  0  0  0  0  0  0  0  0  0  0  0  # atno 17321 bound_to 7965
  139.5238  144.3122  152.0983 LP  0  0  0  0  0  0  0  0  0  0  0  0  # atno 17342 bound_to 10162
  140.2289  144.4389  150.6308 LP  0  0  0  0  0  0  0  0  0  0  0  0  # atno 17343 bound_to 10162
  157.7055  131.0758  150.6681 LP  0  0  0  0  0  0  0  0  0  0  0  0  # atno 17370 bound_to 10713
  156.6742  130.4548  149.5648 LP  0  0  0  0  0  0  0  0  0  0  0  0  # atno 17371 bound_to 10713
  140.0449  134.9835  157.1031 LP  0  0  0  0  0  0  0  0  0  0  0  0  # atno 17394 bound_to 11000
  140.4078  134.2014  155.7163 LP  0  0  0  0  0  0  0  0  0  0  0  0  # atno 17395 bound_to 11000

$$$$
