AV-unprocessed.smi:2699|AV-procd|sdf|10424|dock7
  -GOLD-   2272014463D 1   1.00000     0.00000
 Structure written by MMmdl.
 43 45  0  0  0  0  0  0  0  0  1 V2000
  146.1971  142.8579  155.9347 C   0  0  0  0  0  0  0  0  0  0  0  0
  146.8421  141.7094  155.1689 C   0  0  0  0  0  0  0  0  0  0  0  0
  146.5076  141.4529  153.8910 C   0  0  0  0  0  0  0  0  0  0  0  0
  147.1601  140.3808  153.1806 C   0  0  0  0  0  0  0  0  0  0  0  0
  146.8256  140.1141  151.9122 O   0  0  0  0  0  0  0  0  0  0  0  0
  148.1114  139.6561  153.7973 C   0  0  0  0  0  0  0  0  0  0  0  0
  148.5048  139.9144  155.1843 C   0  0  0  0  0  0  0  0  0  0  0  0
  149.3872  139.2524  155.7330 O   0  0  0  0  0  0  0  0  0  0  0  0
  147.8344  140.9245  155.8278 N   0  0  0  0  0  0  0  0  0  0  0  0
  148.1642  141.1934  157.2474 C   0  0  0  0  0  0  0  0  0  0  0  0
  149.6481  141.5423  157.4814 C   0  0  0  0  0  0  0  0  0  0  0  0
  150.4456  140.6755  157.8359 O   0  0  0  0  0  0  0  0  0  0  0  0
  150.0524  142.8063  157.2834 N   0  0  0  0  0  0  0  0  0  0  0  0
  151.4080  143.3208  157.4534 C   0  0  0  0  0  0  0  0  0  0  0  0
  151.7067  143.6933  158.9183 C   0  0  0  0  0  0  0  0  0  0  0  0
  152.2260  142.4326  159.6174 C   0  0  0  0  0  0  0  0  0  0  0  0
  152.9778  142.5056  160.9226 C   0  0  0  0  0  0  0  0  0  0  0  0
  153.6782  142.0180  159.6681 C   0  0  0  0  0  0  0  0  0  0  0  0
  152.5585  144.9650  159.1269 C   0  0  0  0  0  0  0  0  0  0  0  0
  151.2759  145.7892  159.2218 C   0  0  0  0  0  0  0  0  0  0  0  0
  150.5667  144.4900  159.6009 C   0  0  0  0  0  0  0  0  0  0  0  0
  145.6693  143.5256  155.2533 H   0  0  0  0  0  0  0  0  0  0  0  0
  146.9345  143.4648  156.4594 H   0  0  0  0  0  0  0  0  0  0  0  0
  145.4700  142.4787  156.6530 H   0  0  0  0  0  0  0  0  0  0  0  0
  145.7627  142.0547  153.3904 H   0  0  0  0  0  0  0  0  0  0  0  0
  147.5968  140.2436  151.3815 H   0  0  0  0  0  0  0  0  0  0  0  0
  148.6015  138.8565  153.2602 H   0  0  0  0  0  0  0  0  0  0  0  0
  147.5373  141.9819  157.6602 H   0  0  0  0  0  0  0  0  0  0  0  0
  147.9132  140.3266  157.8607 H   0  0  0  0  0  0  0  0  0  0  0  0
  149.3547  143.4741  156.9885 H   0  0  0  0  0  0  0  0  0  0  0  0
  152.1114  142.5663  157.0983 H   0  0  0  0  0  0  0  0  0  0  0  0
  151.5450  144.1924  156.8119 H   0  0  0  0  0  0  0  0  0  0  0  0
  151.5483  141.5869  159.5165 H   0  0  0  0  0  0  0  0  0  0  0  0
  153.2501  143.4896  161.2989 H   0  0  0  0  0  0  0  0  0  0  0  0
  152.7315  141.7678  161.6833 H   0  0  0  0  0  0  0  0  0  0  0  0
  153.8932  140.9536  159.6001 H   0  0  0  0  0  0  0  0  0  0  0  0
  154.4318  142.6637  159.2257 H   0  0  0  0  0  0  0  0  0  0  0  0
  153.1142  144.9542  160.0662 H   0  0  0  0  0  0  0  0  0  0  0  0
  153.2058  145.2335  158.2916 H   0  0  0  0  0  0  0  0  0  0  0  0
  151.2797  146.5521  160.0005 H   0  0  0  0  0  0  0  0  0  0  0  0
  150.9533  146.1905  158.2600 H   0  0  0  0  0  0  0  0  0  0  0  0
  149.5853  144.3659  159.1420 H   0  0  0  0  0  0  0  0  0  0  0  0
  150.5032  144.3691  160.6813 H   0  0  0  0  0  0  0  0  0  0  0  0
  1  2  1  0  0  0  0
  1 22  1  0  0  0  0
  1 23  1  0  0  0  0
  1 24  1  0  0  0  0
  2  9  1  0  0  0  0
  2  3  2  0  0  0  0
  3  4  1  0  0  0  0
  3 25  1  0  0  0  0
  4  5  1  0  0  0  0
  4  6  2  0  0  0  0
  5 26  1  0  0  0  0
  6  7  1  0  0  0  0
  6 27  1  0  0  0  0
  7  8  2  0  0  0  0
  7  9  1  0  0  0  0
  9 10  1  0  0  0  0
 10 11  1  0  0  0  0
 10 28  1  0  0  0  0
 10 29  1  0  0  0  0
 11 12  2  0  0  0  0
 11 13  1  0  0  0  0
 13 14  1  0  0  0  0
 13 30  1  0  0  0  0
 14 15  1  0  0  0  0
 14 31  1  0  0  0  0
 14 32  1  0  0  0  0
 15 21  1  0  0  0  0
 15 16  1  0  0  0  0
 15 19  1  0  0  0  0
 16 18  1  0  0  0  0
 16 17  1  0  0  0  0
 16 33  1  0  0  0  0
 17 18  1  0  0  0  0
 17 34  1  0  0  0  0
 17 35  1  0  0  0  0
 18 36  1  0  0  0  0
 18 37  1  0  0  0  0
 19 20  1  0  0  0  0
 19 38  1  0  0  0  0
 19 39  1  0  0  0  0
 20 21  1  0  0  0  0
 20 40  1  0  0  0  0
 20 41  1  0  0  0  0
 21 42  1  0  0  0  0
 21 43  1  0  0  0  0
M  END
> <s_m_source_file>
AV-unprocessed.smi

> <i_m_source_file_index>
2699

> <i_lp_mmshare_version>
43012

> <i_f3d_flags>
0

> <s_epik_input>
W0NIM11jMVtjSF1jKFtPSF0pW2NIXWMoPU8pbjFbQ0gyXUMoPU8pW05IXVtDSDJdQzIoW0NIXTNbQ0gyXVtDSDJdMylbQ0gyXVtDSDJdW0NIMl0y

> <s_epik_cmdline>
J2VwaWtfcHl0aG9uJywgJy1waCcsICc3LjAnLCAnLXRuJywgJzgnLCAnLW1hJywgJzIwMCcsICctbWV0YWxfYmluZGluZycsICctaW1hZScsICc8aW5maWxlLm1hZT4nLCAnLW9tYWUnLCAnPG91dGZpbGUubWFlPic=

> <r_lp_tautomer_probability>
0.999984

> <r_epik_Ionization_Penalty>
0.783068

> <r_epik_Ionization_Penalty_Charging>
1.5268e-07

> <r_epik_Ionization_Penalty_Neutral>
0.783068

> <r_epik_State_Penalty>
0.823318

> <r_epik_Charging_Adjusted_Penalty>
0.823318

> <i_epik_Tot_Q>
0

> <i_epik_Tot_abs_Q>
0

> <r_epik_Metal_State_Penalty>
0.823318

> <b_epik_Metal_Only>
0

> <s_lp_Force_Field>
OPLS_2005

> <r_lp_Energy>
38.185

> <b_lp_Chiralities_Consistent>
1

> <s_lp_Variant>
AV-unprocessed.smi:2699-2

> <Gold.Version>
5.8.1

> <Gold.Id.Protein>
6NUR|6NUR_protein|mol2

> <Gold.PLP.Fitness>
44.9925

> <Gold.PLP.PLP>
-41.1029

> <Gold.PLP.part.hbond>
-2.5656

> <Gold.PLP.part.metal>
0.0000

> <Gold.PLP.part.buried>
-3.5991

> <Gold.PLP.part.nonpolar>
-33.8058

> <Gold.PLP.part.repulsive>
0.0376

> <Gold.PLP.ligand.clash>
0.0000

> <Gold.PLP.ligand.torsion>
1.7741

> <Gold.PLP.Chemscore.Hbond>
1.9120

> <Gold.PLP.Chemscore.CHOScore>
0.0000

> <Gold.PLP.Chemscore.Metal>
0.0000

> <Gold.Chemscore.Hbonds>
donor molecule, donor type, donor heavy atom, donor atom, acceptor molecule, acceptor atom, score
      L1  H     5    26       P1  7957  1.00
      L1  H    13    30       P1  8028  0.91

> <Gold.PLP.Chemscore.Internal.Correction>
1.7018

> <Gold.Rescore>
     Score         DG    S(hbond)    S(metal)    S(lipo)     H(rot)  DE(clash)    DE(int)     intcor
     13.97     -19.78       1.83        0.00     120.17       2.30       1.33       4.48       ----

> <Gold.Chemscore.Fitness>
13.9743

> <Gold.Chemscore.DG>
-19.7825

> <Gold.Chemscore.ZeroCoef>
-5.4800

> <Gold.Chemscore.Hbond>
1.8326

> <Gold.Chemscore.Metal>
0.0000

> <Gold.Chemscore.Lipo>
120.1701

> <Gold.Chemscore.Internal_Hbond>
0.0000

> <Gold.Chemscore.DEClash>
1.3258

> <Gold.Chemscore.DEInternal>
4.4824

> <Gold.Chemscore.Rot>
2.2962

> <Gold.Chemscore.Internal.Correction>
   9.000000E+99

> <Gold.Chemscore.Hbonds>
donor molecule, donor type, donor heavy atom, donor atom, acceptor molecule, acceptor atom, score
      L1  H     5    26       P1  7957  0.92
      L1  H    13    30       P1  8028  0.80

> <Gold.Chemscore.Hbond.Weighted>
-6.1210

> <Gold.Chemscore.Metal.Weighted>
-0.0000

> <Gold.Chemscore.Lipo.Weighted>
-14.0599

> <Gold.Chemscore.Internal_Hbond.Weighted>
0.0000

> <Gold.Chemscore.DEClash.Weighted>
1.3258

> <Gold.Chemscore.DEInternal.Weighted>
4.4824

> <Gold.Chemscore.Rot.Weighted>
5.8783

> <Gold.Chemscore.Internal.Correction.Weighted>
   9.000000E+99

> <Gold.Protein.RotatedTorsions>
[ 6907 6896 6895 6894 ] final  -72.19 input  -60.11 | X-H torsion
[ 7974 7965 7964 7962 ] final  152.05 input  175.53 | X-H torsion
[ 8008 7997 7996 7995 ] final -136.50 input   59.86 | X-H torsion
[ 10167 10162 10161 10158 ] final  -34.26 input  -65.29 | X-H torsion
[ 10718 10713 10712 10709 ] final   78.38 input   66.30 | X-H torsion
[ 10763 10752 10751 10750 ] final   39.82 input  -60.55 | X-H torsion
[ 11005 11000 10999 10996 ] final  108.75 input  -57.11 | X-H torsion

> <Gold.Protein.ActiveResidues>
 VAL166  LYS551  ARG553  GLY616  TRP617  ASP618  TYR619  PRO620  LYS621  CYS622 
 ASP623  PHE694  ASN695  SER759  ASP760  ASP761  ALA762  ILE779  LEU786  VAL792 
 PHE793  MET794  SER795  GLU796  ALA797  LYS798  CYS799  TRP800  GLU811  SER814 

> <Gold.Protein.RotatedAtoms>
  150.7180  134.5200  159.5648 H   0  0  0  0  0  0  0  0  0  0  0  0  # atno 6907 bound_to 6896
  152.2757  134.7881  160.0415 H   0  0  0  0  0  0  0  0  0  0  0  0  # atno 6908 bound_to 6896
  151.8545  133.3410  159.3721 H   0  0  0  0  0  0  0  0  0  0  0  0  # atno 6909 bound_to 6896
  144.8249  139.6618  143.6084 H   0  0  0  0  0  0  0  0  0  0  0  0  # atno 7974 bound_to 7965
  155.3963  140.0503  157.3038 H   0  0  0  0  0  0  0  0  0  0  0  0  # atno 8008 bound_to 7997
  154.5012  140.2157  155.9304 H   0  0  0  0  0  0  0  0  0  0  0  0  # atno 8009 bound_to 7997
  156.1469  140.3143  155.8590 H   0  0  0  0  0  0  0  0  0  0  0  0  # atno 8010 bound_to 7997
  140.7189  143.3561  151.2057 H   0  0  0  0  0  0  0  0  0  0  0  0  # atno 10167 bound_to 10162
  157.6743  130.9866  150.1779 H   0  0  0  0  0  0  0  0  0  0  0  0  # atno 10718 bound_to 10713
  152.9955  135.6209  154.2526 H   0  0  0  0  0  0  0  0  0  0  0  0  # atno 10763 bound_to 10752
  154.2265  135.2794  155.2907 H   0  0  0  0  0  0  0  0  0  0  0  0  # atno 10764 bound_to 10752
  154.5485  135.5740  153.6960 H   0  0  0  0  0  0  0  0  0  0  0  0  # atno 10765 bound_to 10752
  139.8849  134.9439  156.6020 H   0  0  0  0  0  0  0  0  0  0  0  0  # atno 11005 bound_to 11000
  146.2554  139.6292  142.9398 LP  0  0  0  0  0  0  0  0  0  0  0  0  # atno 17320 bound_to 7965
  145.5022  141.0437  143.2534 LP  0  0  0  0  0  0  0  0  0  0  0  0  # atno 17321 bound_to 7965
  139.7102  143.9389  152.2944 LP  0  0  0  0  0  0  0  0  0  0  0  0  # atno 17342 bound_to 10162
  139.9111  144.6856  150.8561 LP  0  0  0  0  0  0  0  0  0  0  0  0  # atno 17343 bound_to 10162
  156.2518  130.3701  149.8224 LP  0  0  0  0  0  0  0  0  0  0  0  0  # atno 17370 bound_to 10713
  156.5995  130.8540  151.3428 LP  0  0  0  0  0  0  0  0  0  0  0  0  # atno 17371 bound_to 10713
  140.7876  133.8608  155.8619 LP  0  0  0  0  0  0  0  0  0  0  0  0  # atno 17394 bound_to 11000
  140.9705  134.1537  157.4580 LP  0  0  0  0  0  0  0  0  0  0  0  0  # atno 17395 bound_to 11000

$$$$
