AV-unprocessed.smi:763|AV-procd|sdf|3639|dock1
  -GOLD-   22720 1 33D 1   1.00000     0.00000
 Structure written by MMmdl.
 43 44  0  0  0  0  0  0  0  0  2 V2000
  145.2167  132.2263  151.2797 C   0  0  0  0  0  0  0  0  0  0  0  0
  145.5049  133.5760  151.5984 O   0  0  0  0  0  0  0  0  0  0  0  0
  146.8780  133.7847  151.8852 C   0  0  0  0  0  0  0  0  0  0  0  0
  147.2737  132.9366  153.0973 C   0  0  0  0  0  0  0  0  0  0  0  0
  147.6293  133.8104  154.1634 O   0  0  0  0  0  0  0  0  0  0  0  0
  148.2553  133.2870  155.2798 C   0  0  0  0  0  0  0  0  0  0  0  0
  148.3276  131.9361  155.3942 N   0  0  0  0  0  0  0  0  0  0  0  0
  148.9352  131.4143  156.4771 C   0  0  0  0  0  0  0  0  0  0  0  0
  149.4959  132.2034  157.4947 C   0  0  0  0  0  0  0  0  0  0  0  0
  149.4183  133.6021  157.3712 C   0  0  0  0  0  0  0  0  0  0  0  0
  148.7877  134.1816  156.2425 C   0  0  0  0  0  0  0  0  0  0  0  0
  148.6844  135.5093  156.0606 N   0  5  0  0  0  0  0  0  0  0  0  0
  149.6292  136.6470  156.7178 S   0  0  0  0  0  0  0  0  0  0  0  0
  148.9143  137.3957  157.7635 O   0  0  0  0  0  0  0  0  0  0  0  0
  150.9464  136.1031  157.0803 O   0  0  0  0  0  0  0  0  0  0  0  0
  149.8461  137.8016  155.2577 C   0  0  1  0  0  0  0  0  0  0  0  0
  149.3547  139.2265  155.5899 C   0  0  0  0  0  0  0  0  0  0  0  0
  150.3135  139.9595  156.5437 C   0  0  0  0  0  0  0  0  0  0  0  0
  151.7255  140.0443  155.9425 C   0  0  0  0  0  0  0  0  0  0  0  0
  152.2734  138.6524  155.5881 C   0  0  0  0  0  0  0  0  0  0  0  0
  151.2893  137.8709  154.6918 C   0  0  1  0  0  0  0  0  0  0  0  0
  151.8001  136.5857  154.4015 O   0  0  0  0  0  0  0  0  0  0  0  0
  144.1538  132.1197  151.0640 H   0  0  0  0  0  0  0  0  0  0  0  0
  145.4588  131.5652  152.1131 H   0  0  0  0  0  0  0  0  0  0  0  0
  145.7733  131.9002  150.4002 H   0  0  0  0  0  0  0  0  0  0  0  0
  147.5016  133.5335  151.0258 H   0  0  0  0  0  0  0  0  0  0  0  0
  147.0392  134.8401  152.1103 H   0  0  0  0  0  0  0  0  0  0  0  0
  146.4224  132.3237  153.3974 H   0  0  0  0  0  0  0  0  0  0  0  0
  148.0968  132.2681  152.8391 H   0  0  0  0  0  0  0  0  0  0  0  0
  148.9753  130.3367  156.5343 H   0  0  0  0  0  0  0  0  0  0  0  0
  149.9749  131.7490  158.3490 H   0  0  0  0  0  0  0  0  0  0  0  0
  149.8466  134.2150  158.1503 H   0  0  0  0  0  0  0  0  0  0  0  0
  149.1891  137.4178  154.4766 H   0  0  0  0  0  0  0  0  0  0  0  0
  149.2725  139.7991  154.6653 H   0  0  0  0  0  0  0  0  0  0  0  0
  148.3483  139.2010  156.0078 H   0  0  0  0  0  0  0  0  0  0  0  0
  149.9378  140.9629  156.7449 H   0  0  0  0  0  0  0  0  0  0  0  0
  150.3523  139.4466  157.5053 H   0  0  0  0  0  0  0  0  0  0  0  0
  151.7002  140.6635  155.0450 H   0  0  0  0  0  0  0  0  0  0  0  0
  152.3990  140.5408  156.6413 H   0  0  0  0  0  0  0  0  0  0  0  0
  153.2301  138.7599  155.0758 H   0  0  0  0  0  0  0  0  0  0  0  0
  152.4911  138.1081  156.5047 H   0  0  0  0  0  0  0  0  0  0  0  0
  151.2365  138.3933  153.7359 H   0  0  0  0  0  0  0  0  0  0  0  0
  151.7459  136.4434  153.4687 H   0  0  0  0  0  0  0  0  0  0  0  0
  1  2  1  0  0  0  0
  1 23  1  0  0  0  0
  1 24  1  0  0  0  0
  1 25  1  0  0  0  0
  2  3  1  0  0  0  0
  3  4  1  0  0  0  0
  3 26  1  0  0  0  0
  3 27  1  0  0  0  0
  4  5  1  0  0  0  0
  4 28  1  0  0  0  0
  4 29  1  0  0  0  0
  5  6  1  0  0  0  0
  6 11  1  0  0  0  0
  6  7  2  0  0  0  0
  7  8  1  0  0  0  0
  8  9  2  0  0  0  0
  8 30  1  0  0  0  0
  9 10  1  0  0  0  0
  9 31  1  0  0  0  0
 10 11  2  0  0  0  0
 10 32  1  0  0  0  0
 11 12  1  0  0  0  0
 12 13  1  0  0  0  0
 13 14  2  0  0  0  0
 13 15  2  0  0  0  0
 13 16  1  0  0  0  0
 16 21  1  0  0  0  0
 16 17  1  0  0  0  0
 16 33  1  0  0  0  0
 17 18  1  0  0  0  0
 17 34  1  0  0  0  0
 17 35  1  0  0  0  0
 18 19  1  0  0  0  0
 18 36  1  0  0  0  0
 18 37  1  0  0  0  0
 19 20  1  0  0  0  0
 19 38  1  0  0  0  0
 19 39  1  0  0  0  0
 20 21  1  0  0  0  0
 20 40  1  0  0  0  0
 20 41  1  0  0  0  0
 21 22  1  0  0  0  0
 21 42  1  0  0  0  0
 22 43  1  0  0  0  0
M  CHG  1  12  -1
M  END
> <s_m_source_file>
AV-unprocessed.smi

> <i_m_source_file_index>
763

> <i_lp_mmshare_version>
43012

> <i_f3d_flags>
0

> <s_epik_input>
W0NIM11PW0NIMl1bQ0gyXU9jMW5bY0hdW2NIXVtjSF1jMVtOSF1TKD1PKSg9TylbQ0BASF0yW0NIMl1bQ0gyXVtDSDJdW0NIMl1bQ0BIXTJbT0hd

> <s_epik_cmdline>
J2VwaWtfcHl0aG9uJywgJy1waCcsICc3LjAnLCAnLXRuJywgJzgnLCAnLW1hJywgJzIwMCcsICctbWV0YWxfYmluZGluZycsICctaW1hZScsICc8aW5maWxlLm1hZT4nLCAnLW9tYWUnLCAnPG91dGZpbGUubWFlPic=

> <r_epik_Ionization_Penalty>
0.985866

> <r_epik_Ionization_Penalty_Charging>
0.984689

> <r_epik_Ionization_Penalty_Neutral>
0.00117669

> <r_epik_State_Penalty>
1.03185

> <r_epik_Charging_Adjusted_Penalty>
2.01654

> <i_epik_Tot_Q>
-1

> <i_epik_Tot_abs_Q>
1

> <r_epik_Metal_State_Penalty>
0.379327

> <b_epik_Metal_Only>
0

> <s_lp_Force_Field>
OPLS_2005

> <r_lp_Energy>
9.05773

> <b_lp_Chiralities_Consistent>
1

> <s_lp_Variant>
AV-unprocessed.smi:763-6

> <Gold.Version>
5.8.1

> <Gold.Id.Protein>
6NUR|6NUR_protein|mol2

> <Gold.PLP.Fitness>
40.1479

> <Gold.PLP.PLP>
-32.0862

> <Gold.PLP.part.hbond>
-3.9769

> <Gold.PLP.part.metal>
0.0000

> <Gold.PLP.part.buried>
-6.0220

> <Gold.PLP.part.nonpolar>
-24.3580

> <Gold.PLP.part.repulsive>
0.3027

> <Gold.PLP.ligand.clash>
0.0000

> <Gold.PLP.ligand.torsion>
1.2649

> <Gold.PLP.Chemscore.Hbond>
3.0890

> <Gold.PLP.Chemscore.CHOScore>
0.0000

> <Gold.PLP.Chemscore.Metal>
0.0000

> <Gold.Chemscore.Hbonds>
donor molecule, donor type, donor heavy atom, donor atom, acceptor molecule, acceptor atom, score
      L1  H    22    43       P1  7949  0.81

> <Gold.PLP.Chemscore.Internal.Correction>
1.3245

> <Gold.Rescore>
     Score         DG    S(hbond)    S(metal)    S(lipo)     H(rot)  DE(clash)    DE(int)     intcor
     14.83     -17.28       2.88        0.00      70.06       2.35       0.01       2.44       ----

> <Gold.Chemscore.Fitness>
14.8289

> <Gold.Chemscore.DG>
-17.2780

> <Gold.Chemscore.ZeroCoef>
-5.4800

> <Gold.Chemscore.Hbond>
2.8799

> <Gold.Chemscore.Metal>
0.0000

> <Gold.Chemscore.Lipo>
70.0642

> <Gold.Chemscore.Internal_Hbond>
0.0000

> <Gold.Chemscore.DEClash>
0.0060

> <Gold.Chemscore.DEInternal>
2.4432

> <Gold.Chemscore.Rot>
2.3509

> <Gold.Chemscore.Internal.Correction>
   9.000000E+99

> <Gold.Chemscore.Hbonds>
donor molecule, donor type, donor heavy atom, donor atom, acceptor molecule, acceptor atom, score
      L1  H    22    43       P1  7949  0.78

> <Gold.Chemscore.Hbond.Weighted>
-9.6188

> <Gold.Chemscore.Metal.Weighted>
-0.0000

> <Gold.Chemscore.Lipo.Weighted>
-8.1975

> <Gold.Chemscore.Internal_Hbond.Weighted>
0.0000

> <Gold.Chemscore.DEClash.Weighted>
0.0060

> <Gold.Chemscore.DEInternal.Weighted>
2.4432

> <Gold.Chemscore.Rot.Weighted>
6.0182

> <Gold.Chemscore.Internal.Correction.Weighted>
   9.000000E+99

> <Gold.Protein.RotatedTorsions>
[ 6907 6896 6895 6894 ] final   56.47 input  -60.11 | X-H torsion
[ 7974 7965 7964 7962 ] final  -80.17 input  175.53 | X-H torsion
[ 8008 7997 7996 7995 ] final  168.79 input   59.86 | X-H torsion
[ 10167 10162 10161 10158 ] final   82.97 input  -65.29 | X-H torsion
[ 10718 10713 10712 10709 ] final  114.18 input   66.30 | X-H torsion
[ 10763 10752 10751 10750 ] final    0.64 input  -60.55 | X-H torsion
[ 11005 11000 10999 10996 ] final -133.02 input  -57.11 | X-H torsion

> <Gold.Protein.ActiveResidues>
 VAL166  LYS551  ARG553  GLY616  TRP617  ASP618  TYR619  PRO620  LYS621  CYS622 
 ASP623  PHE694  ASN695  SER759  ASP760  ASP761  ALA762  ILE779  LEU786  VAL792 
 PHE793  MET794  SER795  GLU796  ALA797  LYS798  CYS799  TRP800  GLU811  SER814 

> <Gold.Protein.RotatedAtoms>
  152.3639  134.6832  160.0198 H   0  0  0  0  0  0  0  0  0  0  0  0  # atno 6907 bound_to 6896
  151.7147  133.3307  159.3308 H   0  0  0  0  0  0  0  0  0  0  0  0  # atno 6908 bound_to 6896
  150.7624  134.6436  159.6294 H   0  0  0  0  0  0  0  0  0  0  0  0  # atno 6909 bound_to 6896
  145.5635  140.9478  143.1434 H   0  0  0  0  0  0  0  0  0  0  0  0  # atno 7974 bound_to 7965
  156.1516  140.1581  156.8761 H   0  0  0  0  0  0  0  0  0  0  0  0  # atno 8008 bound_to 7997
  154.5076  140.0809  156.7962 H   0  0  0  0  0  0  0  0  0  0  0  0  # atno 8009 bound_to 7997
  155.3885  140.3408  155.4252 H   0  0  0  0  0  0  0  0  0  0  0  0  # atno 8010 bound_to 7997
  139.9233  144.6199  150.8418 H   0  0  0  0  0  0  0  0  0  0  0  0  # atno 10167 bound_to 10162
  157.6296  131.0995  150.7148 H   0  0  0  0  0  0  0  0  0  0  0  0  # atno 10718 bound_to 10713
  153.3181  135.6967  153.7055 H   0  0  0  0  0  0  0  0  0  0  0  0  # atno 10763 bound_to 10752
  153.5905  135.3481  155.2910 H   0  0  0  0  0  0  0  0  0  0  0  0  # atno 10764 bound_to 10752
  154.8591  135.4317  154.2338 H   0  0  0  0  0  0  0  0  0  0  0  0  # atno 10765 bound_to 10752
  140.9118  134.1557  157.4383 H   0  0  0  0  0  0  0  0  0  0  0  0  # atno 11005 bound_to 11000
  144.7472  139.7290  143.7287 LP  0  0  0  0  0  0  0  0  0  0  0  0  # atno 17320 bound_to 7965
  146.1835  139.5038  142.9851 LP  0  0  0  0  0  0  0  0  0  0  0  0  # atno 17321 bound_to 7965
  140.7657  143.3282  151.2469 LP  0  0  0  0  0  0  0  0  0  0  0  0  # atno 17342 bound_to 10162
  139.6843  143.9800  152.2826 LP  0  0  0  0  0  0  0  0  0  0  0  0  # atno 17343 bound_to 10162
  156.7490  130.4762  149.5461 LP  0  0  0  0  0  0  0  0  0  0  0  0  # atno 17370 bound_to 10713
  156.1491  130.6297  151.0571 LP  0  0  0  0  0  0  0  0  0  0  0  0  # atno 17371 bound_to 10713
  139.8759  134.9939  156.5665 LP  0  0  0  0  0  0  0  0  0  0  0  0  # atno 17394 bound_to 11000
  140.8100  133.8437  155.8801 LP  0  0  0  0  0  0  0  0  0  0  0  0  # atno 17395 bound_to 11000

$$$$
