AV-unprocessed.smi:777|AV-procd|sdf|3702|dock10
  -GOLD-   22720 1123D 1   1.00000     0.00000
 Structure written by MMmdl.
 37 38  0  0  0  0  0  0  0  0  2 V2000
  152.8870  141.9256  161.4916 C   0  0  0  0  0  0  0  0  0  0  0  0
  153.3271  142.0764  160.0204 C   0  0  1  0  0  0  0  0  0  0  0  0
  153.3249  140.7473  159.2465 C   0  0  0  0  0  0  0  0  0  0  0  0
  154.3844  140.1760  158.9904 O   0  0  0  0  0  0  0  0  0  0  0  0
  152.1065  140.2960  158.8936 N   0  0  0  0  0  0  0  0  0  0  0  0
  151.6498  139.0218  158.3149 C   0  0  0  0  0  0  0  0  0  0  0  0
  152.0448  137.9296  159.3389 C   0  0  0  0  0  0  0  0  0  0  0  0
  153.2345  137.8892  159.7254 O   0  0  0  0  0  0  0  0  0  0  0  0
  151.1618  137.1169  159.6960 O   0  5  0  0  0  0  0  0  0  0  0  0
  150.1254  138.9239  157.9787 C   0  0  0  0  0  0  0  0  0  0  0  0
  149.6863  139.8148  156.7989 C   0  0  0  0  0  0  0  0  0  0  0  0
  150.5304  139.5476  155.5477 C   0  0  0  0  0  0  0  0  0  0  0  0
  152.0221  139.7192  155.8548 C   0  0  0  0  0  0  0  0  0  0  0  0
  152.4609  138.7968  157.0056 C   0  0  0  0  0  0  0  0  0  0  0  0
  152.5321  143.0729  159.3094 N   0  0  0  0  0  0  0  0  0  0  0  0
  152.9734  144.2280  158.6957 C   0  0  0  0  0  0  0  0  0  0  0  0
  151.8922  144.8222  158.1110 C   0  0  0  0  0  0  0  0  0  0  0  0
  150.8185  143.9396  158.4121 C   0  0  0  0  0  0  0  0  0  0  0  0
  151.2038  142.8923  159.1219 N   0  0  0  0  0  0  0  0  0  0  0  0
  153.5353  141.2311  162.0270 H   0  0  0  0  0  0  0  0  0  0  0  0
  151.8643  141.5558  161.5775 H   0  0  0  0  0  0  0  0  0  0  0  0
  152.9363  142.8827  162.0116 H   0  0  0  0  0  0  0  0  0  0  0  0
  154.3578  142.4347  160.0281 H   0  0  0  0  0  0  0  0  0  0  0  0
  151.3462  140.9167  159.1283 H   0  0  0  0  0  0  0  0  0  0  0  0
  149.8931  137.8920  157.7098 H   0  0  0  0  0  0  0  0  0  0  0  0
  149.5047  139.1288  158.8506 H   0  0  0  0  0  0  0  0  0  0  0  0
  148.6336  139.6371  156.5780 H   0  0  0  0  0  0  0  0  0  0  0  0
  149.7649  140.8683  157.0650 H   0  0  0  0  0  0  0  0  0  0  0  0
  150.3433  138.5356  155.1863 H   0  0  0  0  0  0  0  0  0  0  0  0
  150.2333  140.2248  154.7465 H   0  0  0  0  0  0  0  0  0  0  0  0
  152.6092  139.5000  154.9628 H   0  0  0  0  0  0  0  0  0  0  0  0
  152.2290  140.7592  156.1117 H   0  0  0  0  0  0  0  0  0  0  0  0
  153.5279  138.9448  157.1811 H   0  0  0  0  0  0  0  0  0  0  0  0
  152.3519  137.7614  156.6777 H   0  0  0  0  0  0  0  0  0  0  0  0
  154.0113  144.5254  158.7223 H   0  0  0  0  0  0  0  0  0  0  0  0
  151.8731  145.7430  157.5472 H   0  0  0  0  0  0  0  0  0  0  0  0
  149.7787  144.0253  158.1333 H   0  0  0  0  0  0  0  0  0  0  0  0
  1  2  1  0  0  0  0
  1 20  1  0  0  0  0
  1 21  1  0  0  0  0
  1 22  1  0  0  0  0
  2  3  1  0  0  0  0
  2 15  1  0  0  0  0
  2 23  1  0  0  0  0
  3  4  2  0  0  0  0
  3  5  1  0  0  0  0
  5  6  1  0  0  0  0
  5 24  1  0  0  0  0
  6 14  1  0  0  0  0
  6  7  1  0  0  0  0
  6 10  1  0  0  0  0
  7  8  2  0  0  0  0
  7  9  1  0  0  0  0
 10 11  1  0  0  0  0
 10 25  1  0  0  0  0
 10 26  1  0  0  0  0
 11 12  1  0  0  0  0
 11 27  1  0  0  0  0
 11 28  1  0  0  0  0
 12 13  1  0  0  0  0
 12 29  1  0  0  0  0
 12 30  1  0  0  0  0
 13 14  1  0  0  0  0
 13 31  1  0  0  0  0
 13 32  1  0  0  0  0
 14 33  1  0  0  0  0
 14 34  1  0  0  0  0
 15 19  1  0  0  0  0
 15 16  1  0  0  0  0
 16 17  2  0  0  0  0
 16 35  1  0  0  0  0
 17 18  1  0  0  0  0
 17 36  1  0  0  0  0
 18 19  2  0  0  0  0
 18 37  1  0  0  0  0
M  CHG  1   9  -1
M  END
> <s_m_source_file>
AV-unprocessed.smi

> <i_m_source_file_index>
777

> <i_lp_mmshare_version>
43012

> <i_f3d_flags>
0

> <s_epik_input>
bjFbY0hdW2NIXVtjSF1uMVtDQEhdKFtDSDNdKUMoPU8pW05IXUMyKEMoPU8pW09IXSlbQ0gyXVtDSDJdW0NIMl1bQ0gyXVtDSDJdMg==

> <s_epik_cmdline>
J2VwaWtfcHl0aG9uJywgJy1waCcsICc3LjAnLCAnLXRuJywgJzgnLCAnLW1hJywgJzIwMCcsICctbWV0YWxfYmluZGluZycsICctaW1hZScsICc8aW5maWxlLm1hZT4nLCAnLW9tYWUnLCAnPG91dGZpbGUubWFlPic=

> <r_lp_tautomer_probability>
1

> <r_epik_Ionization_Penalty>
0.000371068

> <r_epik_Ionization_Penalty_Charging>
0.000323848

> <r_epik_Ionization_Penalty_Neutral>
4.72198e-05

> <r_epik_State_Penalty>
0.000195685

> <r_epik_Charging_Adjusted_Penalty>
0.000519533

> <i_epik_Tot_Q>
-1

> <i_epik_Tot_abs_Q>
1

> <r_epik_Metal_State_Penalty>
-0

> <b_epik_Metal_Only>
0

> <s_lp_Force_Field>
OPLS_2005

> <r_lp_Energy>
12.5044

> <b_lp_Chiralities_Consistent>
1

> <s_lp_Variant>
AV-unprocessed.smi:777-2

> <Gold.Version>
5.8.1

> <Gold.Id.Protein>
6NUR|6NUR_protein|mol2

> <Gold.PLP.Fitness>
48.4057

> <Gold.PLP.PLP>
-36.9240

> <Gold.PLP.part.hbond>
-1.9485

> <Gold.PLP.part.metal>
0.0000

> <Gold.PLP.part.buried>
-4.5490

> <Gold.PLP.part.nonpolar>
-30.4313

> <Gold.PLP.part.repulsive>
0.1614

> <Gold.PLP.ligand.clash>
0.0000

> <Gold.PLP.ligand.torsion>
0.4186

> <Gold.PLP.Chemscore.Hbond>
2.9745

> <Gold.PLP.Chemscore.CHOScore>
1.0733

> <Gold.PLP.Chemscore.Metal>
0.0000

> <Gold.Chemscore.Hbonds>
donor molecule, donor type, donor heavy atom, donor atom, acceptor molecule, acceptor atom, score
      P1  H  6896  6907       L1     9  2.00
      P1  H  7997  8009       L1     4  0.94
      L1  C    18    37       P1  8028  0.47
      L1  C    18    37       P1  8029  0.17

> <Gold.PLP.Chemscore.Internal.Correction>
0.1755

> <Gold.Rescore>
     Score         DG    S(hbond)    S(metal)    S(lipo)     H(rot)  DE(clash)    DE(int)     intcor
     12.88     -17.26       1.93        0.00      88.76       1.98       0.02       4.36       ----

> <Gold.Chemscore.Fitness>
12.8803

> <Gold.Chemscore.DG>
-17.2604

> <Gold.Chemscore.ZeroCoef>
-5.4800

> <Gold.Chemscore.Hbond>
1.9333

> <Gold.Chemscore.Metal>
0.0000

> <Gold.Chemscore.Lipo>
88.7618

> <Gold.Chemscore.Internal_Hbond>
0.0000

> <Gold.Chemscore.DEClash>
0.0239

> <Gold.Chemscore.DEInternal>
4.3562

> <Gold.Chemscore.Rot>
1.9774

> <Gold.Chemscore.Internal.Correction>
   9.000000E+99

> <Gold.Chemscore.Hbonds>
donor molecule, donor type, donor heavy atom, donor atom, acceptor molecule, acceptor atom, score
      P1  H  6896  6907       L1     9  0.97
      P1  H  7997  8009       L1     4  0.90

> <Gold.Chemscore.Hbond.Weighted>
-6.4573

> <Gold.Chemscore.Metal.Weighted>
-0.0000

> <Gold.Chemscore.Lipo.Weighted>
-10.3851

> <Gold.Chemscore.Internal_Hbond.Weighted>
0.0000

> <Gold.Chemscore.DEClash.Weighted>
0.0239

> <Gold.Chemscore.DEInternal.Weighted>
4.3562

> <Gold.Chemscore.Rot.Weighted>
5.0620

> <Gold.Chemscore.Internal.Correction.Weighted>
   9.000000E+99

> <Gold.Protein.RotatedTorsions>
[ 6907 6896 6895 6894 ] final  -13.38 input  -60.11 | X-H torsion
[ 7974 7965 7964 7962 ] final   10.85 input  175.53 | X-H torsion
[ 8008 7997 7996 7995 ] final  125.14 input   59.86 | X-H torsion
[ 10167 10162 10161 10158 ] final    9.48 input  -65.29 | X-H torsion
[ 10718 10713 10712 10709 ] final  108.20 input   66.30 | X-H torsion
[ 10763 10752 10751 10750 ] final  175.80 input  -60.55 | X-H torsion
[ 11005 11000 10999 10996 ] final -126.95 input  -57.11 | X-H torsion

> <Gold.Protein.ActiveResidues>
 VAL166  LYS551  ARG553  GLY616  TRP617  ASP618  TYR619  PRO620  LYS621  CYS622 
 ASP623  PHE694  ASN695  SER759  ASP760  ASP761  ALA762  ILE779  LEU786  VAL792 
 PHE793  MET794  SER795  GLU796  ALA797  LYS798  CYS799  TRP800  GLU811  SER814 

> <Gold.Protein.RotatedAtoms>
  151.3558  135.0894  159.9417 H   0  0  0  0  0  0  0  0  0  0  0  0  # atno 6907 bound_to 6896
  152.5175  133.9307  159.7589 H   0  0  0  0  0  0  0  0  0  0  0  0  # atno 6908 bound_to 6896
  150.9691  133.6309  159.2770 H   0  0  0  0  0  0  0  0  0  0  0  0  # atno 6909 bound_to 6896
  146.2381  139.9572  142.8463 H   0  0  0  0  0  0  0  0  0  0  0  0  # atno 7974 bound_to 7965
  156.2824  140.2723  156.1901 H   0  0  0  0  0  0  0  0  0  0  0  0  # atno 8008 bound_to 7997
  155.0467  140.0386  157.2547 H   0  0  0  0  0  0  0  0  0  0  0  0  # atno 8009 bound_to 7997
  154.7229  140.2691  155.6530 H   0  0  0  0  0  0  0  0  0  0  0  0  # atno 8010 bound_to 7997
  140.6252  143.8116  150.7225 H   0  0  0  0  0  0  0  0  0  0  0  0  # atno 10167 bound_to 10162
  157.6596  131.0889  150.6270 H   0  0  0  0  0  0  0  0  0  0  0  0  # atno 10718 bound_to 10713
  154.4725  135.2771  155.1632 H   0  0  0  0  0  0  0  0  0  0  0  0  # atno 10763 bound_to 10752
  154.3375  135.6177  153.5584 H   0  0  0  0  0  0  0  0  0  0  0  0  # atno 10764 bound_to 10752
  152.9866  135.5780  154.5109 H   0  0  0  0  0  0  0  0  0  0  0  0  # atno 10765 bound_to 10752
  140.9640  134.0897  157.3939 H   0  0  0  0  0  0  0  0  0  0  0  0  # atno 11005 bound_to 11000
  145.1805  140.9764  143.4269 LP  0  0  0  0  0  0  0  0  0  0  0  0  # atno 17320 bound_to 7965
  144.9947  139.3656  143.6197 LP  0  0  0  0  0  0  0  0  0  0  0  0  # atno 17321 bound_to 7965
  140.1715  143.4191  152.1997 LP  0  0  0  0  0  0  0  0  0  0  0  0  # atno 17342 bound_to 10162
  139.5474  144.7310  151.4541 LP  0  0  0  0  0  0  0  0  0  0  0  0  # atno 17343 bound_to 10162
  156.6574  130.4502  149.5699 LP  0  0  0  0  0  0  0  0  0  0  0  0  # atno 17370 bound_to 10713
  156.2093  130.6668  151.1252 LP  0  0  0  0  0  0  0  0  0  0  0  0  # atno 17371 bound_to 10713
  139.8888  135.0100  156.6641 LP  0  0  0  0  0  0  0  0  0  0  0  0  # atno 17394 bound_to 11000
  140.7427  133.8964  155.8289 LP  0  0  0  0  0  0  0  0  0  0  0  0  # atno 17395 bound_to 11000

$$$$
