AV-unprocessed.smi:799|AV-procd|sdf|3786|dock5
  -GOLD-   22720 1223D 1   1.00000     0.00000
 Structure written by MMmdl.
 47 48  0  0  0  0  0  0  0  0  1 V2000
  149.5226  142.4023  155.2318 C   0  0  0  0  0  0  0  0  0  0  0  0
  149.4358  140.9784  154.7677 C   0  0  0  0  0  0  0  0  0  0  0  0
  148.3098  140.3032  154.2137 C   0  0  0  0  0  0  0  0  0  0  0  0
  148.7976  139.0471  153.9770 C   0  0  0  0  0  0  0  0  0  0  0  0
  148.1482  137.9690  153.4633 N   0  0  0  0  0  0  0  0  0  0  0  0
  146.8889  137.5614  153.6975 C   0  0  0  0  0  0  0  0  0  0  0  0
  146.0843  138.1332  154.4331 O   0  0  0  0  0  0  0  0  0  0  0  0
  146.6130  136.4422  153.0055 N   0  0  0  0  0  0  0  0  0  0  0  0
  145.3438  135.6985  152.9241 C   0  0  2  0  0  0  0  0  0  0  0  0
  144.2448  136.7490  152.6394 C   0  0  0  0  0  0  0  0  0  0  0  0
  145.0500  135.0249  154.2970 C   0  0  0  0  0  0  0  0  0  0  0  0
  143.7170  134.5586  154.3949 O   0  0  0  0  0  0  0  0  0  0  0  0
  145.4061  134.6232  151.7780 C   0  0  0  0  0  0  0  0  0  0  0  0
  144.0497  133.9302  151.4773 C   0  0  0  0  0  0  0  0  0  0  0  0
  144.1464  132.9836  150.2698 C   0  0  0  0  0  0  0  0  0  0  0  0
  145.2400  131.9272  150.4758 C   0  0  0  0  0  0  0  0  0  0  0  0
  146.5916  132.5910  150.7702 C   0  0  0  0  0  0  0  0  0  0  0  0
  146.4974  133.5390  151.9770 C   0  0  0  0  0  0  0  0  0  0  0  0
  150.1153  138.9981  154.3796 N   0  0  0  0  0  0  0  0  0  0  0  0
  151.0670  137.9042  154.3432 C   0  0  0  0  0  0  0  0  0  0  0  0
  150.5057  140.1973  154.8625 N   0  0  0  0  0  0  0  0  0  0  0  0
  148.5566  142.9016  155.1533 H   0  0  0  0  0  0  0  0  0  0  0  0
  150.2375  142.9673  154.6333 H   0  0  0  0  0  0  0  0  0  0  0  0
  149.8404  142.4577  156.2731 H   0  0  0  0  0  0  0  0  0  0  0  0
  147.3186  140.6912  154.0334 H   0  0  0  0  0  0  0  0  0  0  0  0
  148.6738  137.4280  152.7927 H   0  0  0  0  0  0  0  0  0  0  0  0
  147.3599  136.0718  152.4367 H   0  0  0  0  0  0  0  0  0  0  0  0
  143.2485  136.3078  152.6427 H   0  0  0  0  0  0  0  0  0  0  0  0
  144.3860  137.2415  151.6779 H   0  0  0  0  0  0  0  0  0  0  0  0
  144.2406  137.5354  153.3950 H   0  0  0  0  0  0  0  0  0  0  0  0
  145.6992  134.1649  154.4573 H   0  0  0  0  0  0  0  0  0  0  0  0
  145.2375  135.7103  155.1237 H   0  0  0  0  0  0  0  0  0  0  0  0
  143.7349  133.6543  154.6682 H   0  0  0  0  0  0  0  0  0  0  0  0
  145.6848  135.1521  150.8662 H   0  0  0  0  0  0  0  0  0  0  0  0
  143.7158  133.3608  152.3443 H   0  0  0  0  0  0  0  0  0  0  0  0
  143.2699  134.6631  151.2727 H   0  0  0  0  0  0  0  0  0  0  0  0
  143.1863  132.4948  150.1028 H   0  0  0  0  0  0  0  0  0  0  0  0
  144.3592  133.5608  149.3691 H   0  0  0  0  0  0  0  0  0  0  0  0
  144.9655  131.2714  151.3029 H   0  0  0  0  0  0  0  0  0  0  0  0
  145.3199  131.2953  149.5909 H   0  0  0  0  0  0  0  0  0  0  0  0
  147.3459  131.8263  150.9578 H   0  0  0  0  0  0  0  0  0  0  0  0
  146.9267  133.1457  149.8928 H   0  0  0  0  0  0  0  0  0  0  0  0
  147.4759  133.9918  152.1275 H   0  0  0  0  0  0  0  0  0  0  0  0
  146.2876  132.9486  152.8689 H   0  0  0  0  0  0  0  0  0  0  0  0
  150.5884  136.9870  153.9998 H   0  0  0  0  0  0  0  0  0  0  0  0
  151.4731  137.7362  155.3409 H   0  0  0  0  0  0  0  0  0  0  0  0
  151.8828  138.1516  153.6632 H   0  0  0  0  0  0  0  0  0  0  0  0
  1  2  1  0  0  0  0
  1 22  1  0  0  0  0
  1 23  1  0  0  0  0
  1 24  1  0  0  0  0
  2 21  2  0  0  0  0
  2  3  1  0  0  0  0
  3  4  2  0  0  0  0
  3 25  1  0  0  0  0
  4  5  1  0  0  0  0
  4 19  1  0  0  0  0
  5  6  1  0  0  0  0
  5 26  1  0  0  0  0
  6  7  2  0  0  0  0
  6  8  1  0  0  0  0
  8  9  1  0  0  0  0
  8 27  1  0  0  0  0
  9 10  1  0  0  0  0
  9 11  1  0  0  0  0
  9 13  1  0  0  0  0
 10 28  1  0  0  0  0
 10 29  1  0  0  0  0
 10 30  1  0  0  0  0
 11 12  1  0  0  0  0
 11 31  1  0  0  0  0
 11 32  1  0  0  0  0
 12 33  1  0  0  0  0
 13 18  1  0  0  0  0
 13 14  1  0  0  0  0
 13 34  1  0  0  0  0
 14 15  1  0  0  0  0
 14 35  1  0  0  0  0
 14 36  1  0  0  0  0
 15 16  1  0  0  0  0
 15 37  1  0  0  0  0
 15 38  1  0  0  0  0
 16 17  1  0  0  0  0
 16 39  1  0  0  0  0
 16 40  1  0  0  0  0
 17 18  1  0  0  0  0
 17 41  1  0  0  0  0
 17 42  1  0  0  0  0
 18 43  1  0  0  0  0
 18 44  1  0  0  0  0
 19 20  1  0  0  0  0
 19 21  1  0  0  0  0
 20 45  1  0  0  0  0
 20 46  1  0  0  0  0
 20 47  1  0  0  0  0
M  END
> <s_m_source_file>
AV-unprocessed.smi

> <i_m_source_file_index>
799

> <i_lp_mmshare_version>
43012

> <i_f3d_flags>
0

> <s_epik_input>
W0NIM11jMVtjSF1jKG4objEpW0NIM10pW05IXUMoPU8pW05IXVtDQEBdKFtDSDNdKShbQ0gyXVtPSF0pW0NIXTJbQ0gyXVtDSDJdW0NIMl1bQ0gyXVtDSDJdMg==

> <s_epik_cmdline>
J2VwaWtfcHl0aG9uJywgJy1waCcsICc3LjAnLCAnLXRuJywgJzgnLCAnLW1hJywgJzIwMCcsICctbWV0YWxfYmluZGluZycsICctaW1hZScsICc8aW5maWxlLm1hZT4nLCAnLW9tYWUnLCAnPG91dGZpbGUubWFlPic=

> <r_lp_tautomer_probability>
1

> <r_epik_Ionization_Penalty>
9.86025e-05

> <r_epik_Ionization_Penalty_Charging>
0

> <r_epik_Ionization_Penalty_Neutral>
9.86025e-05

> <r_epik_State_Penalty>
-0

> <r_epik_Charging_Adjusted_Penalty>
0

> <i_epik_Tot_Q>
0

> <i_epik_Tot_abs_Q>
0

> <r_epik_Metal_State_Penalty>
-0

> <b_epik_Metal_Only>
0

> <s_lp_Force_Field>
OPLS_2005

> <r_lp_Energy>
22.5502

> <b_lp_Chiralities_Consistent>
1

> <s_lp_Variant>
AV-unprocessed.smi:799-2

> <Gold.Version>
5.8.1

> <Gold.Id.Protein>
6NUR|6NUR_protein|mol2

> <Gold.PLP.Fitness>
42.8662

> <Gold.PLP.PLP>
-32.8954

> <Gold.PLP.part.hbond>
-3.8657

> <Gold.PLP.part.metal>
0.0000

> <Gold.PLP.part.buried>
-0.0462

> <Gold.PLP.part.nonpolar>
-31.0090

> <Gold.PLP.part.repulsive>
0.1849

> <Gold.PLP.ligand.clash>
0.0000

> <Gold.PLP.ligand.torsion>
0.6133

> <Gold.PLP.Chemscore.Hbond>
3.7096

> <Gold.PLP.Chemscore.CHOScore>
0.0000

> <Gold.PLP.Chemscore.Metal>
0.0000

> <Gold.Chemscore.Hbonds>
donor molecule, donor type, donor heavy atom, donor atom, acceptor molecule, acceptor atom, score
      L1  H     5    26       P1  7948  0.99
      L1  H     8    27       P1  7948  0.99
      L1  H    12    33       P1 10957  0.61
      P1  H  7989  7998       L1    21  1.00

> <Gold.PLP.Chemscore.Internal.Correction>
0.0686

> <Gold.Rescore>
     Score         DG    S(hbond)    S(metal)    S(lipo)     H(rot)  DE(clash)    DE(int)     intcor
     15.73     -20.43       3.08        0.00      84.03       2.01       1.99       2.71       ----

> <Gold.Chemscore.Fitness>
15.7296

> <Gold.Chemscore.DG>
-20.4298

> <Gold.Chemscore.ZeroCoef>
-5.4800

> <Gold.Chemscore.Hbond>
3.0764

> <Gold.Chemscore.Metal>
0.0000

> <Gold.Chemscore.Lipo>
84.0288

> <Gold.Chemscore.Internal_Hbond>
0.0000

> <Gold.Chemscore.DEClash>
1.9876

> <Gold.Chemscore.DEInternal>
2.7126

> <Gold.Chemscore.Rot>
2.0144

> <Gold.Chemscore.Internal.Correction>
   9.000000E+99

> <Gold.Chemscore.Hbonds>
donor molecule, donor type, donor heavy atom, donor atom, acceptor molecule, acceptor atom, score
      L1  H     5    26       P1  7948  0.91
      L1  H     8    27       P1  7948  0.93
      L1  H    12    33       P1 10957  0.59
      P1  H  7989  7998       L1    21  0.14

> <Gold.Chemscore.Hbond.Weighted>
-10.2752

> <Gold.Chemscore.Metal.Weighted>
-0.0000

> <Gold.Chemscore.Lipo.Weighted>
-9.8314

> <Gold.Chemscore.Internal_Hbond.Weighted>
0.0000

> <Gold.Chemscore.DEClash.Weighted>
1.9876

> <Gold.Chemscore.DEInternal.Weighted>
2.7126

> <Gold.Chemscore.Rot.Weighted>
5.1568

> <Gold.Chemscore.Internal.Correction.Weighted>
   9.000000E+99

> <Gold.Protein.RotatedTorsions>
[ 6907 6896 6895 6894 ] final -118.20 input  -60.11 | X-H torsion
[ 7974 7965 7964 7962 ] final -157.05 input  175.53 | X-H torsion
[ 8008 7997 7996 7995 ] final  -21.55 input   59.86 | X-H torsion
[ 10167 10162 10161 10158 ] final   60.68 input  -65.29 | X-H torsion
[ 10718 10713 10712 10709 ] final  158.16 input   66.30 | X-H torsion
[ 10763 10752 10751 10750 ] final   63.38 input  -60.55 | X-H torsion
[ 11005 11000 10999 10996 ] final  161.49 input  -57.11 | X-H torsion

> <Gold.Protein.ActiveResidues>
 VAL166  LYS551  ARG553  GLY616  TRP617  ASP618  TYR619  PRO620  LYS621  CYS622 
 ASP623  PHE694  ASN695  SER759  ASP760  ASP761  ALA762  ILE779  LEU786  VAL792 
 PHE793  MET794  SER795  GLU796  ALA797  LYS798  CYS799  TRP800  GLU811  SER814 

> <Gold.Protein.RotatedAtoms>
  150.8200  133.8270  159.3143 H   0  0  0  0  0  0  0  0  0  0  0  0  # atno 6907 bound_to 6896
  151.6031  135.1044  160.0074 H   0  0  0  0  0  0  0  0  0  0  0  0  # atno 6908 bound_to 6896
  152.4289  133.7202  159.6586 H   0  0  0  0  0  0  0  0  0  0  0  0  # atno 6909 bound_to 6896
  144.7565  140.4023  143.6008 H   0  0  0  0  0  0  0  0  0  0  0  0  # atno 7974 bound_to 7965
  154.4699  140.2032  156.0022 H   0  0  0  0  0  0  0  0  0  0  0  0  # atno 8008 bound_to 7997
  156.0992  140.3246  155.7890 H   0  0  0  0  0  0  0  0  0  0  0  0  # atno 8009 bound_to 7997
  155.4826  140.0540  157.2956 H   0  0  0  0  0  0  0  0  0  0  0  0  # atno 8010 bound_to 7997
  140.1630  144.4352  150.6700 H   0  0  0  0  0  0  0  0  0  0  0  0  # atno 10167 bound_to 10162
  157.1817  131.0634  151.2128 H   0  0  0  0  0  0  0  0  0  0  0  0  # atno 10718 bound_to 10713
  153.0016  135.5431  154.6343 H   0  0  0  0  0  0  0  0  0  0  0  0  # atno 10763 bound_to 10752
  154.5613  135.2834  155.0918 H   0  0  0  0  0  0  0  0  0  0  0  0  # atno 10764 bound_to 10752
  154.2120  135.6466  153.5170 H   0  0  0  0  0  0  0  0  0  0  0  0  # atno 10765 bound_to 10752
  140.2163  134.8230  157.3174 H   0  0  0  0  0  0  0  0  0  0  0  0  # atno 11005 bound_to 11000
  145.6761  139.1609  143.2727 LP  0  0  0  0  0  0  0  0  0  0  0  0  # atno 17320 bound_to 7965
  146.1581  140.6828  142.9290 LP  0  0  0  0  0  0  0  0  0  0  0  0  # atno 17321 bound_to 7965
  140.6631  143.2258  151.5808 LP  0  0  0  0  0  0  0  0  0  0  0  0  # atno 17342 bound_to 10162
  139.5372  144.2747  152.1277 LP  0  0  0  0  0  0  0  0  0  0  0  0  # atno 17343 bound_to 10162
  157.3946  130.7300  149.6722 LP  0  0  0  0  0  0  0  0  0  0  0  0  # atno 17370 bound_to 10713
  155.9723  130.4137  150.4096 LP  0  0  0  0  0  0  0  0  0  0  0  0  # atno 17371 bound_to 10713
  140.1897  134.4387  155.7723 LP  0  0  0  0  0  0  0  0  0  0  0  0  # atno 17394 bound_to 11000
  141.2225  133.7021  156.8006 LP  0  0  0  0  0  0  0  0  0  0  0  0  # atno 17395 bound_to 11000

$$$$
