AV-unprocessed.smi:283|AV-procd|sdf|2139|dock2
  -GOLD-   2262021463D 1   1.00000     0.00000
 Structure written by MMmdl.
 48 51  0  0  0  0  0  0  0  0  1 V2000
  150.1668  142.5154  157.5681 C   0  0  0  0  0  0  0  0  0  0  0  0
  151.6800  142.3030  157.7559 C   0  0  2  0  0  0  0  0  0  0  0  0
  152.0570  140.9165  157.4827 N   0  0  0  0  0  0  0  0  0  0  0  0
  151.4200  140.1755  156.5489 C   0  0  0  0  0  0  0  0  0  0  0  0
  150.7727  140.7560  155.5049 N   0  0  0  0  0  0  0  0  0  0  0  0
  150.1582  139.9969  154.5930 C   0  0  0  0  0  0  0  0  0  0  0  0
  150.0736  138.6662  154.5362 N   0  0  0  0  0  0  0  0  0  0  0  0
  150.7257  138.0767  155.5809 C   0  0  0  0  0  0  0  0  0  0  0  0
  151.4188  138.7585  156.6196 C   0  0  0  0  0  0  0  0  0  0  0  0
  151.9630  137.8378  157.5060 N   0  0  0  0  0  0  0  0  0  0  0  0
  151.6115  136.6800  157.0142 C   0  0  0  0  0  0  0  0  0  0  0  0
  150.8681  136.7307  155.8561 N   0  0  0  0  0  0  0  0  0  0  0  0
  150.3308  135.5765  155.0691 C   0  0  1  0  0  0  0  0  0  0  0  0
  150.8849  134.3960  155.5490 O   0  0  0  0  0  0  0  0  0  0  0  0
  149.9865  133.3205  155.2980 C   0  0  1  0  0  0  0  0  0  0  0  0
  149.9893  132.3743  156.5122 C   0  0  0  0  0  0  0  0  0  0  0  0
  149.7970  133.0736  157.7242 O   0  0  0  0  0  0  0  0  0  0  0  0
  148.6199  133.9368  154.9271 C   0  0  2  0  0  0  0  0  0  0  0  0
  148.3566  133.7054  153.5561 O   0  0  0  0  0  0  0  0  0  0  0  0
  148.8057  135.4300  155.1682 C   0  0  1  0  0  0  0  0  0  0  0  0
  148.2801  135.8118  156.4262 O   0  0  0  0  0  0  0  0  0  0  0  0
  152.1020  142.7621  159.1510 C   0  0  0  0  0  0  0  0  0  0  0  0
  151.6200  143.9883  159.6674 C   0  0  0  0  0  0  0  0  0  0  0  0
  152.0026  144.4287  160.9485 C   0  0  0  0  0  0  0  0  0  0  0  0
  152.8781  143.6507  161.7268 C   0  0  0  0  0  0  0  0  0  0  0  0
  153.3744  142.4361  161.2191 C   0  0  0  0  0  0  0  0  0  0  0  0
  152.9955  141.9901  159.9369 C   0  0  0  0  0  0  0  0  0  0  0  0
  153.6525  140.4978  159.3606 Cl  0  0  0  0  0  0  0  0  0  0  0  0
  150.6697  135.7434  154.0455 H   0  0  0  0  0  0  0  0  0  0  0  0
  150.3935  132.7711  154.4471 H   0  0  0  0  0  0  0  0  0  0  0  0
  147.7908  133.5220  155.5022 H   0  0  0  0  0  0  0  0  0  0  0  0
  148.3293  136.0477  154.4056 H   0  0  0  0  0  0  0  0  0  0  0  0
  149.8969  143.5600  157.7259 H   0  0  0  0  0  0  0  0  0  0  0  0
  149.5931  141.9147  158.2746 H   0  0  0  0  0  0  0  0  0  0  0  0
  149.8396  142.2455  156.5640 H   0  0  0  0  0  0  0  0  0  0  0  0
  152.2108  142.9219  157.0336 H   0  0  0  0  0  0  0  0  0  0  0  0
  152.7768  140.5366  158.0804 H   0  0  0  0  0  0  0  0  0  0  0  0
  149.6652  140.5315  153.7945 H   0  0  0  0  0  0  0  0  0  0  0  0
  151.8898  135.7484  157.4853 H   0  0  0  0  0  0  0  0  0  0  0  0
  149.1827  131.6472  156.4151 H   0  0  0  0  0  0  0  0  0  0  0  0
  150.9222  131.8119  156.5598 H   0  0  0  0  0  0  0  0  0  0  0  0
  149.0407  132.7113  158.1614 H   0  0  0  0  0  0  0  0  0  0  0  0
  148.3628  134.5361  153.1056 H   0  0  0  0  0  0  0  0  0  0  0  0
  148.6934  136.6199  156.6898 H   0  0  0  0  0  0  0  0  0  0  0  0
  150.9543  144.6057  159.0827 H   0  0  0  0  0  0  0  0  0  0  0  0
  151.6255  145.3651  161.3327 H   0  0  0  0  0  0  0  0  0  0  0  0
  153.1730  143.9876  162.7098 H   0  0  0  0  0  0  0  0  0  0  0  0
  154.0522  141.8446  161.8171 H   0  0  0  0  0  0  0  0  0  0  0  0
  1  2  1  0  0  0  0
  1 33  1  0  0  0  0
  1 34  1  0  0  0  0
  1 35  1  0  0  0  0
  2  3  1  0  0  0  0
  2 22  1  0  0  0  0
  2 36  1  0  0  0  0
  3  4  1  0  0  0  0
  3 37  1  0  0  0  0
  4  9  1  0  0  0  0
  4  5  2  0  0  0  0
  5  6  1  0  0  0  0
  6  7  2  0  0  0  0
  6 38  1  0  0  0  0
  7  8  1  0  0  0  0
  8 12  1  0  0  0  0
  8  9  2  0  0  0  0
  9 10  1  0  0  0  0
 10 11  2  0  0  0  0
 11 12  1  0  0  0  0
 11 39  1  0  0  0  0
 12 13  1  0  0  0  0
 13 29  1  0  0  0  0
 13 20  1  0  0  0  0
 13 14  1  0  0  0  0
 14 15  1  0  0  0  0
 15 30  1  0  0  0  0
 15 16  1  0  0  0  0
 15 18  1  0  0  0  0
 16 17  1  0  0  0  0
 16 40  1  0  0  0  0
 16 41  1  0  0  0  0
 17 42  1  0  0  0  0
 18 31  1  0  0  0  0
 18 19  1  0  0  0  0
 18 20  1  0  0  0  0
 19 43  1  0  0  0  0
 20 32  1  0  0  0  0
 20 21  1  0  0  0  0
 21 44  1  0  0  0  0
 22 27  1  0  0  0  0
 22 23  2  0  0  0  0
 23 24  1  0  0  0  0
 23 45  1  0  0  0  0
 24 25  2  0  0  0  0
 24 46  1  0  0  0  0
 25 26  1  0  0  0  0
 25 47  1  0  0  0  0
 26 27  2  0  0  0  0
 26 48  1  0  0  0  0
 27 28  1  0  0  0  0
M  END
> <s_m_source_file>
AV-unprocessed.smi

> <i_m_source_file_index>
283

> <i_lp_mmshare_version>
43012

> <i_f3d_flags>
0

> <s_epik_input>
Q2xjMVtjSF1bY0hdW2NIXVtjSF1jMVtDQEhdKFtDSDNdKVtOSF1jKG5bY0hdbjIpYyhjMjMpbltjSF1uM1tDQEBIXTRPW0NASF0oW0NIMl1bT0hdKVtDQEBIXShbT0hdKVtDQEhdNFtPSF0=

> <s_epik_cmdline>
J2VwaWtfcHl0aG9uJywgJy1waCcsICc3LjAnLCAnLXRuJywgJzgnLCAnLW1hJywgJzIwMCcsICctbWV0YWxfYmluZGluZycsICctaW1hZScsICc8aW5maWxlLm1hZT4nLCAnLW9tYWUnLCAnPG91dGZpbGUubWFlPic=

> <r_lp_tautomer_probability>
1

> <r_epik_Ionization_Penalty>
0.000266407

> <r_epik_Ionization_Penalty_Charging>
0

> <r_epik_Ionization_Penalty_Neutral>
0.000266407

> <r_epik_State_Penalty>
-0

> <r_epik_Charging_Adjusted_Penalty>
0

> <i_epik_Tot_Q>
0

> <i_epik_Tot_abs_Q>
0

> <r_epik_Metal_State_Penalty>
-0

> <b_epik_Metal_Only>
0

> <s_epik_Chemistry_Notes>
This compound contains an acetal/aminal-like group ( X-CH(R)-Y where X, Y are N, S, or O) that may be acid/base labile, releasing an aldehyde.

> <s_lp_Force_Field>
OPLS_2005

> <r_lp_Energy>
48.6958

> <b_lp_Chiralities_Consistent>
1

> <s_lp_Variant>
AV-unprocessed.smi:283-15

> <Gold.Version>
5.8.1

> <Gold.Id.Protein>
6NUR|6NUR_protein|mol2

> <Gold.PLP.Fitness>
50.8412

> <Gold.PLP.PLP>
-44.8577

> <Gold.PLP.part.hbond>
-3.5502

> <Gold.PLP.part.metal>
0.0000

> <Gold.PLP.part.buried>
-1.8095

> <Gold.PLP.part.nonpolar>
-39.1713

> <Gold.PLP.part.repulsive>
0.3688

> <Gold.PLP.ligand.clash>
0.0225

> <Gold.PLP.ligand.torsion>
1.0587

> <Gold.PLP.Chemscore.Hbond>
1.7434

> <Gold.PLP.Chemscore.CHOScore>
0.8480

> <Gold.PLP.Chemscore.Metal>
0.0000

> <Gold.Chemscore.Hbonds>
donor molecule, donor type, donor heavy atom, donor atom, acceptor molecule, acceptor atom, score
      L1  H    19    43       P1  7948  0.71
      P1  H  6896  6907       L1    17  1.00
      L1  C     6    38       P1  7957  0.63

> <Gold.PLP.Chemscore.Internal.Correction>
0.3491

> <Gold.Rescore>
     Score         DG    S(hbond)    S(metal)    S(lipo)     H(rot)  DE(clash)    DE(int)     intcor
      8.15     -12.57       1.36        0.00     111.44       4.10       0.18       4.23       ----

> <Gold.Chemscore.Fitness>
8.1502

> <Gold.Chemscore.DG>
-12.5667

> <Gold.Chemscore.ZeroCoef>
-5.4800

> <Gold.Chemscore.Hbond>
1.3581

> <Gold.Chemscore.Metal>
0.0000

> <Gold.Chemscore.Lipo>
111.4409

> <Gold.Chemscore.Internal_Hbond>
0.0000

> <Gold.Chemscore.DEClash>
0.1849

> <Gold.Chemscore.DEInternal>
4.2316

> <Gold.Chemscore.Rot>
4.0968

> <Gold.Chemscore.Internal.Correction>
   9.000000E+99

> <Gold.Chemscore.Hbonds>
donor molecule, donor type, donor heavy atom, donor atom, acceptor molecule, acceptor atom, score
      L1  H    19    43       P1  7948  0.32
      P1  H  6896  6907       L1    17  0.34

> <Gold.Chemscore.Hbond.Weighted>
-4.5360

> <Gold.Chemscore.Metal.Weighted>
-0.0000

> <Gold.Chemscore.Lipo.Weighted>
-13.0386

> <Gold.Chemscore.Internal_Hbond.Weighted>
0.0000

> <Gold.Chemscore.DEClash.Weighted>
0.1849

> <Gold.Chemscore.DEInternal.Weighted>
4.2316

> <Gold.Chemscore.Rot.Weighted>
10.4879

> <Gold.Chemscore.Internal.Correction.Weighted>
   9.000000E+99

> <Gold.Protein.RotatedTorsions>
[ 6907 6896 6895 6894 ] final -133.15 input  -60.11 | X-H torsion
[ 7974 7965 7964 7962 ] final    7.47 input  175.53 | X-H torsion
[ 8008 7997 7996 7995 ] final    6.27 input   59.86 | X-H torsion
[ 10167 10162 10161 10158 ] final   31.85 input  -65.29 | X-H torsion
[ 10718 10713 10712 10709 ] final  160.47 input   66.30 | X-H torsion
[ 10763 10752 10751 10750 ] final  -49.42 input  -60.55 | X-H torsion
[ 11005 11000 10999 10996 ] final  112.81 input  -57.11 | X-H torsion

> <Gold.Protein.ActiveResidues>
 VAL166  LYS551  ARG553  GLY616  TRP617  ASP618  TYR619  PRO620  LYS621  CYS622 
 ASP623  PHE694  ASN695  SER759  ASP760  ASP761  ALA762  ILE779  LEU786  VAL792 
 PHE793  MET794  SER795  GLU796  ALA797  LYS798  CYS799  TRP800  GLU811  SER814 

> <Gold.Protein.RotatedAtoms>
  150.9707  133.6347  159.2738 H   0  0  0  0  0  0  0  0  0  0  0  0  # atno 6907 bound_to 6896
  151.3637  135.0908  159.9452 H   0  0  0  0  0  0  0  0  0  0  0  0  # atno 6908 bound_to 6896
  152.5182  133.9275  159.7619 H   0  0  0  0  0  0  0  0  0  0  0  0  # atno 6909 bound_to 6896
  146.2426  140.0078  142.8409 H   0  0  0  0  0  0  0  0  0  0  0  0  # atno 7974 bound_to 7965
  154.7389  140.2745  155.6390 H   0  0  0  0  0  0  0  0  0  0  0  0  # atno 8008 bound_to 7997
  156.2869  140.2701  156.2037 H   0  0  0  0  0  0  0  0  0  0  0  0  # atno 8009 bound_to 7997
  155.0284  140.0371  157.2454 H   0  0  0  0  0  0  0  0  0  0  0  0  # atno 8010 bound_to 7997
  140.4551  144.0990  150.6200 H   0  0  0  0  0  0  0  0  0  0  0  0  # atno 10167 bound_to 10162
  157.1499  131.0561  151.2285 H   0  0  0  0  0  0  0  0  0  0  0  0  # atno 10718 bound_to 10713
  154.0937  135.6573  153.4857 H   0  0  0  0  0  0  0  0  0  0  0  0  # atno 10763 bound_to 10752
  153.0312  135.5208  154.7355 H   0  0  0  0  0  0  0  0  0  0  0  0  # atno 10764 bound_to 10752
  154.6486  135.2998  154.9984 H   0  0  0  0  0  0  0  0  0  0  0  0  # atno 10765 bound_to 10752
  139.8937  134.9537  156.6643 H   0  0  0  0  0  0  0  0  0  0  0  0  # atno 11005 bound_to 11000
  145.1355  140.9542  143.4519 LP  0  0  0  0  0  0  0  0  0  0  0  0  # atno 17320 bound_to 7965
  145.0346  139.3312  143.6007 LP  0  0  0  0  0  0  0  0  0  0  0  0  # atno 17321 bound_to 7965
  140.4160  143.2634  151.9774 LP  0  0  0  0  0  0  0  0  0  0  0  0  # atno 17342 bound_to 10162
  139.4800  144.5873  151.7832 LP  0  0  0  0  0  0  0  0  0  0  0  0  # atno 17343 bound_to 10162
  157.4230  130.7448  149.6928 LP  0  0  0  0  0  0  0  0  0  0  0  0  # atno 17370 bound_to 10713
  155.9772  130.4065  150.3726 LP  0  0  0  0  0  0  0  0  0  0  0  0  # atno 17371 bound_to 10713
  140.7423  133.8967  155.8287 LP  0  0  0  0  0  0  0  0  0  0  0  0  # atno 17394 bound_to 11000
  141.0068  134.1075  157.4262 LP  0  0  0  0  0  0  0  0  0  0  0  0  # atno 17395 bound_to 11000

$$$$
