AV-unprocessed.smi:704|AV-procd|sdf|3442|dock3
  -GOLD-   22720 0433D 1   1.00000     0.00000
 Structure written by MMmdl.
 38 39  0  0  0  0  0  0  0  0  1 V2000
  151.4011  137.4591  154.6966 C   0  0  0  0  0  0  0  0  0  0  0  0
  150.4767  136.3840  154.5702 O   0  0  0  0  0  0  0  0  0  0  0  0
  150.7826  135.1768  155.1694 C   0  0  0  0  0  0  0  0  0  0  0  0
  151.7509  135.1551  156.1195 N   0  0  0  0  0  0  0  0  0  0  0  0
  152.0536  133.9772  156.7028 C   0  0  0  0  0  0  0  0  0  0  0  0
  151.4183  132.7670  156.3694 C   0  0  0  0  0  0  0  0  0  0  0  0
  150.4131  132.7866  155.3848 C   0  0  0  0  0  0  0  0  0  0  0  0
  150.0738  134.0183  154.7741 C   0  0  0  0  0  0  0  0  0  0  0  0
  149.0878  134.1469  153.7576 N   0  0  0  0  0  0  0  0  0  0  0  0
  148.0507  133.3349  153.4924 C   0  0  0  0  0  0  0  0  0  0  0  0
  147.7793  132.3027  154.1054 O   0  0  0  0  0  0  0  0  0  0  0  0
  147.3162  133.8057  152.4747 N   0  0  0  0  0  0  0  0  0  0  0  0
  146.1040  133.1792  151.9521 C   0  0  2  0  0  0  0  0  0  0  0  0
  146.2501  131.6511  151.8957 C   0  0  0  0  0  0  0  0  0  0  0  0
  145.4654  131.2227  150.6596 C   0  0  0  0  0  0  0  0  0  0  0  0
  145.7044  132.3529  149.6617 C   0  0  0  0  0  0  0  0  0  0  0  0
  145.7884  133.6420  150.5023 C   0  0  1  0  0  0  0  0  0  0  0  0
  144.4947  134.4702  150.4293 C   0  0  0  0  0  0  0  0  0  0  0  0
  143.4552  133.9197  149.7971 N   0  0  0  0  0  0  0  0  0  0  0  0
  144.4327  135.5885  150.9374 O   0  0  0  0  0  0  0  0  0  0  0  0
  151.0110  138.3328  154.1746 H   0  0  0  0  0  0  0  0  0  0  0  0
  152.3656  137.2113  154.2512 H   0  0  0  0  0  0  0  0  0  0  0  0
  151.5492  137.7369  155.7411 H   0  0  0  0  0  0  0  0  0  0  0  0
  152.8298  133.9989  157.4533 H   0  0  0  0  0  0  0  0  0  0  0  0
  151.6992  131.8436  156.8541 H   0  0  0  0  0  0  0  0  0  0  0  0
  149.9357  131.8592  155.1092 H   0  0  0  0  0  0  0  0  0  0  0  0
  149.1317  135.0013  153.2214 H   0  0  0  0  0  0  0  0  0  0  0  0
  147.6104  134.6643  152.0325 H   0  0  0  0  0  0  0  0  0  0  0  0
  145.2733  133.4081  152.6237 H   0  0  0  0  0  0  0  0  0  0  0  0
  147.2969  131.3726  151.7630 H   0  0  0  0  0  0  0  0  0  0  0  0
  145.8937  131.1641  152.8040 H   0  0  0  0  0  0  0  0  0  0  0  0
  145.7789  130.2508  150.2776 H   0  0  0  0  0  0  0  0  0  0  0  0
  144.4032  131.1609  150.9005 H   0  0  0  0  0  0  0  0  0  0  0  0
  146.6551  132.1923  149.1516 H   0  0  0  0  0  0  0  0  0  0  0  0
  144.9318  132.3825  148.8916 H   0  0  0  0  0  0  0  0  0  0  0  0
  146.6049  134.2485  150.1050 H   0  0  0  0  0  0  0  0  0  0  0  0
  142.5798  134.4192  149.7360 H   0  0  0  0  0  0  0  0  0  0  0  0
  143.5446  132.9982  149.3946 H   0  0  0  0  0  0  0  0  0  0  0  0
  1  2  1  0  0  0  0
  1 21  1  0  0  0  0
  1 22  1  0  0  0  0
  1 23  1  0  0  0  0
  2  3  1  0  0  0  0
  3  8  1  0  0  0  0
  3  4  2  0  0  0  0
  4  5  1  0  0  0  0
  5  6  2  0  0  0  0
  5 24  1  0  0  0  0
  6  7  1  0  0  0  0
  6 25  1  0  0  0  0
  7  8  2  0  0  0  0
  7 26  1  0  0  0  0
  8  9  1  0  0  0  0
  9 10  1  0  0  0  0
  9 27  1  0  0  0  0
 10 11  2  0  0  0  0
 10 12  1  0  0  0  0
 12 13  1  0  0  0  0
 12 28  1  0  0  0  0
 13 17  1  0  0  0  0
 13 14  1  0  0  0  0
 13 29  1  0  0  0  0
 14 15  1  0  0  0  0
 14 30  1  0  0  0  0
 14 31  1  0  0  0  0
 15 16  1  0  0  0  0
 15 32  1  0  0  0  0
 15 33  1  0  0  0  0
 16 17  1  0  0  0  0
 16 34  1  0  0  0  0
 16 35  1  0  0  0  0
 17 18  1  0  0  0  0
 17 36  1  0  0  0  0
 18 19  1  0  0  0  0
 18 20  2  0  0  0  0
 19 37  1  0  0  0  0
 19 38  1  0  0  0  0
M  END
> <s_m_source_file>
AV-unprocessed.smi

> <i_m_source_file_index>
704

> <i_lp_mmshare_version>
43012

> <i_f3d_flags>
0

> <s_epik_input>
W0NIM11PYzFuW2NIXVtjSF1bY0hdYzFbTkhdQyg9TylbTkhdW0NAQEhdMltDSDJdW0NIMl1bQ0gyXVtDQEhdMkMoPU8pW05IMl0=

> <s_epik_cmdline>
J2VwaWtfcHl0aG9uJywgJy1waCcsICc3LjAnLCAnLXRuJywgJzgnLCAnLW1hJywgJzIwMCcsICctbWV0YWxfYmluZGluZycsICctaW1hZScsICc8aW5maWxlLm1hZT4nLCAnLW9tYWUnLCAnPG91dGZpbGUubWFlPic=

> <r_lp_tautomer_probability>
1

> <r_epik_Ionization_Penalty>
9.09123e-05

> <r_epik_Ionization_Penalty_Charging>
0

> <r_epik_Ionization_Penalty_Neutral>
9.09123e-05

> <r_epik_State_Penalty>
-0

> <r_epik_Charging_Adjusted_Penalty>
0

> <i_epik_Tot_Q>
0

> <i_epik_Tot_abs_Q>
0

> <r_epik_Metal_State_Penalty>
-0

> <b_epik_Metal_Only>
0

> <s_lp_Force_Field>
OPLS_2005

> <r_lp_Energy>
16.6187

> <b_lp_Chiralities_Consistent>
1

> <s_lp_Variant>
AV-unprocessed.smi:704-1

> <Gold.Version>
5.8.1

> <Gold.Id.Protein>
6NUR|6NUR_protein|mol2

> <Gold.PLP.Fitness>
41.0304

> <Gold.PLP.PLP>
-30.9653

> <Gold.PLP.part.hbond>
-4.0000

> <Gold.PLP.part.metal>
0.0000

> <Gold.PLP.part.buried>
-1.3523

> <Gold.PLP.part.nonpolar>
-25.3941

> <Gold.PLP.part.repulsive>
0.8817

> <Gold.PLP.ligand.clash>
0.2012

> <Gold.PLP.ligand.torsion>
0.7208

> <Gold.PLP.Chemscore.Hbond>
3.9000

> <Gold.PLP.Chemscore.CHOScore>
0.0000

> <Gold.PLP.Chemscore.Metal>
0.0000

> <Gold.Chemscore.Hbonds>
donor molecule, donor type, donor heavy atom, donor atom, acceptor molecule, acceptor atom, score
      L1  H     9    27       P1  7948  0.80
      L1  H    12    28       P1  7948  1.00
      L1  H    19    37       P1 10186  1.00
      P1  H 10752 10764       L1     4  1.00

> <Gold.PLP.Chemscore.Internal.Correction>
0.0080

> <Gold.Rescore>
     Score         DG    S(hbond)    S(metal)    S(lipo)     H(rot)  DE(clash)    DE(int)     intcor
     13.54     -16.83       2.55        0.00      65.16       1.86       0.19       3.11       ----

> <Gold.Chemscore.Fitness>
13.5373

> <Gold.Chemscore.DG>
-16.8344

> <Gold.Chemscore.ZeroCoef>
-5.4800

> <Gold.Chemscore.Hbond>
2.5463

> <Gold.Chemscore.Metal>
0.0000

> <Gold.Chemscore.Lipo>
65.1593

> <Gold.Chemscore.Internal_Hbond>
0.0000

> <Gold.Chemscore.DEClash>
0.1859

> <Gold.Chemscore.DEInternal>
3.1112

> <Gold.Chemscore.Rot>
1.8648

> <Gold.Chemscore.Internal.Correction>
   9.000000E+99

> <Gold.Chemscore.Hbonds>
donor molecule, donor type, donor heavy atom, donor atom, acceptor molecule, acceptor atom, score
      L1  H     9    27       P1  7948  0.12
      L1  H    12    28       P1  7948  0.54
      L1  H    19    37       P1 10186  0.90
      P1  H 10752 10764       L1     4  0.07

> <Gold.Chemscore.Hbond.Weighted>
-8.5047

> <Gold.Chemscore.Metal.Weighted>
-0.0000

> <Gold.Chemscore.Lipo.Weighted>
-7.6236

> <Gold.Chemscore.Internal_Hbond.Weighted>
0.0000

> <Gold.Chemscore.DEClash.Weighted>
0.1859

> <Gold.Chemscore.DEInternal.Weighted>
3.1112

> <Gold.Chemscore.Rot.Weighted>
4.7739

> <Gold.Chemscore.Internal.Correction.Weighted>
   9.000000E+99

> <Gold.Protein.RotatedTorsions>
[ 6907 6896 6895 6894 ] final  177.13 input  -60.11 | X-H torsion
[ 7974 7965 7964 7962 ] final  140.89 input  175.53 | X-H torsion
[ 8008 7997 7996 7995 ] final  153.80 input   59.86 | X-H torsion
[ 10167 10162 10161 10158 ] final  -70.11 input  -65.29 | X-H torsion
[ 10718 10713 10712 10709 ] final  147.01 input   66.30 | X-H torsion
[ 10763 10752 10751 10750 ] final  -22.22 input  -60.55 | X-H torsion
[ 11005 11000 10999 10996 ] final -163.93 input  -57.11 | X-H torsion

> <Gold.Protein.ActiveResidues>
 VAL166  LYS551  ARG553  GLY616  TRP617  ASP618  TYR619  PRO620  LYS621  CYS622 
 ASP623  PHE694  ASN695  SER759  ASP760  ASP761  ALA762  ILE779  LEU786  VAL792 
 PHE793  MET794  SER795  GLU796  ALA797  LYS798  CYS799  TRP800  GLU811  SER814 

> <Gold.Protein.RotatedAtoms>
  151.7089  133.3312  159.3285 H   0  0  0  0  0  0  0  0  0  0  0  0  # atno 6907 bound_to 6896
  150.7702  134.6549  159.6318 H   0  0  0  0  0  0  0  0  0  0  0  0  # atno 6908 bound_to 6896
  152.3723  134.6717  160.0223 H   0  0  0  0  0  0  0  0  0  0  0  0  # atno 6909 bound_to 6896
  144.9145  139.5248  143.5693 H   0  0  0  0  0  0  0  0  0  0  0  0  # atno 7974 bound_to 7965
  156.2564  140.1984  156.6546 H   0  0  0  0  0  0  0  0  0  0  0  0  # atno 8008 bound_to 7997
  154.6510  140.0572  156.9981 H   0  0  0  0  0  0  0  0  0  0  0  0  # atno 8009 bound_to 7997
  155.1418  140.3243  155.4453 H   0  0  0  0  0  0  0  0  0  0  0  0  # atno 8010 bound_to 7997
  140.5378  143.2317  151.7144 H   0  0  0  0  0  0  0  0  0  0  0  0  # atno 10167 bound_to 10162
  157.3263  131.0913  151.1200 H   0  0  0  0  0  0  0  0  0  0  0  0  # atno 10718 bound_to 10713
  153.6485  135.6982  153.5217 H   0  0  0  0  0  0  0  0  0  0  0  0  # atno 10763 bound_to 10752
  153.2725  135.4210  155.1001 H   0  0  0  0  0  0  0  0  0  0  0  0  # atno 10764 bound_to 10752
  154.8482  135.3582  154.6029 H   0  0  0  0  0  0  0  0  0  0  0  0  # atno 10765 bound_to 10752
  140.5926  134.5029  157.5195 H   0  0  0  0  0  0  0  0  0  0  0  0  # atno 11005 bound_to 11000
  146.3175  139.7977  142.8972 LP  0  0  0  0  0  0  0  0  0  0  0  0  # atno 17320 bound_to 7965
  145.3398  141.0285  143.3399 LP  0  0  0  0  0  0  0  0  0  0  0  0  # atno 17321 bound_to 7965
  139.4977  144.4015  152.0176 LP  0  0  0  0  0  0  0  0  0  0  0  0  # atno 17342 bound_to 10162
  140.3122  144.3525  150.6031 LP  0  0  0  0  0  0  0  0  0  0  0  0  # atno 17343 bound_to 10162
  157.2465  130.6594  149.5912 LP  0  0  0  0  0  0  0  0  0  0  0  0  # atno 17370 bound_to 10713
  155.9691  130.4552  150.5877 LP  0  0  0  0  0  0  0  0  0  0  0  0  # atno 17371 bound_to 10713
  139.9267  134.8042  156.1047 LP  0  0  0  0  0  0  0  0  0  0  0  0  # atno 17394 bound_to 11000
  141.0925  133.6709  156.2571 LP  0  0  0  0  0  0  0  0  0  0  0  0  # atno 17395 bound_to 11000

$$$$
