AV-unprocessed.smi:824|AV-procd|sdf|3850|dock2
  -GOLD-   22720 1293D 1   1.00000     0.00000
 Structure written by MMmdl.
 51 52  0  0  0  0  0  0  0  0  2 V2000
  154.7499  140.3995  162.8085 C   0  0  0  0  0  0  0  0  0  0  0  0
  154.1530  140.5340  161.4188 C   0  0  0  0  0  0  0  0  0  0  0  0
  153.5942  141.7858  161.1232 N   0  0  0  0  0  0  0  0  0  0  0  0
  153.0460  141.9997  159.9658 C   0  0  0  0  0  0  0  0  0  0  0  0
  152.4448  143.2181  159.6457 N   0  0  0  0  0  0  0  0  0  0  0  0
  151.5088  143.3095  158.5235 C   0  0  0  0  0  0  0  0  0  0  0  0
  151.3806  144.7562  158.0191 C   0  0  0  0  0  0  0  0  0  0  0  0
  151.0032  145.6077  159.0929 O   0  0  0  0  0  0  0  0  0  0  0  0
  151.9812  145.6039  160.1241 C   0  0  0  0  0  0  0  0  0  0  0  0
  152.1250  144.1841  160.6963 C   0  0  0  0  0  0  0  0  0  0  0  0
  153.0160  141.0399  158.9676 N   0  5  0  0  0  0  0  0  0  0  0  0
  153.5504  139.8049  159.1804 C   0  0  0  0  0  0  0  0  0  0  0  0
  153.5556  138.9393  158.3060 O   0  0  0  0  0  0  0  0  0  0  0  0
  154.1333  139.5219  160.5041 C   0  0  0  0  0  0  0  0  0  0  0  0
  154.6962  138.1213  160.7704 C   0  0  0  0  0  0  0  0  0  0  0  0
  153.9370  137.3291  161.8607 C   0  0  0  0  0  0  0  0  0  0  0  0
  154.3041  135.8333  161.8784 C   0  0  0  0  0  0  0  0  0  0  0  0
  154.2194  135.2166  160.8154 O   0  0  0  0  0  0  0  0  0  0  0  0
  154.7252  135.2392  163.0233 N   0  0  0  0  0  0  0  0  0  0  0  0
  155.2470  133.8703  163.0807 C   0  0  0  0  0  0  0  0  0  0  0  0
  154.6969  135.9628  164.3052 C   0  0  0  0  0  0  0  0  0  0  0  0
  155.6960  137.1436  164.3445 C   0  0  0  0  0  0  0  0  0  0  0  0
  157.1076  136.6506  164.6936 C   0  0  0  0  0  0  0  0  0  0  0  0
  155.2585  138.2551  165.3139 C   0  0  0  0  0  0  0  0  0  0  0  0
  154.2383  139.6248  163.3770 H   0  0  0  0  0  0  0  0  0  0  0  0
  154.6616  141.3320  163.3672 H   0  0  0  0  0  0  0  0  0  0  0  0
  155.8087  140.1479  162.7478 H   0  0  0  0  0  0  0  0  0  0  0  0
  151.8160  142.6717  157.6943 H   0  0  0  0  0  0  0  0  0  0  0  0
  150.5353  142.9439  158.8528 H   0  0  0  0  0  0  0  0  0  0  0  0
  152.3186  145.0981  157.5786 H   0  0  0  0  0  0  0  0  0  0  0  0
  150.6226  144.8146  157.2381 H   0  0  0  0  0  0  0  0  0  0  0  0
  152.9359  145.9660  159.7389 H   0  0  0  0  0  0  0  0  0  0  0  0
  151.6722  146.2944  160.9087 H   0  0  0  0  0  0  0  0  0  0  0  0
  151.1975  143.8820  161.1846 H   0  0  0  0  0  0  0  0  0  0  0  0
  152.9036  144.1837  161.4604 H   0  0  0  0  0  0  0  0  0  0  0  0
  154.6794  137.5575  159.8371 H   0  0  0  0  0  0  0  0  0  0  0  0
  155.7495  138.1776  161.0417 H   0  0  0  0  0  0  0  0  0  0  0  0
  154.0702  137.8099  162.8271 H   0  0  0  0  0  0  0  0  0  0  0  0
  152.8675  137.3994  161.6604 H   0  0  0  0  0  0  0  0  0  0  0  0
  156.1223  133.7642  162.4388 H   0  0  0  0  0  0  0  0  0  0  0  0
  154.4921  133.1534  162.7604 H   0  0  0  0  0  0  0  0  0  0  0  0
  155.5465  133.5740  164.0858 H   0  0  0  0  0  0  0  0  0  0  0  0
  153.6925  136.3259  164.5257 H   0  0  0  0  0  0  0  0  0  0  0  0
  154.9187  135.2670  165.1166 H   0  0  0  0  0  0  0  0  0  0  0  0
  155.7486  137.5825  163.3475 H   0  0  0  0  0  0  0  0  0  0  0  0
  157.1391  136.2122  165.6914 H   0  0  0  0  0  0  0  0  0  0  0  0
  157.8275  137.4690  164.6665 H   0  0  0  0  0  0  0  0  0  0  0  0
  157.4457  135.8932  163.9859 H   0  0  0  0  0  0  0  0  0  0  0  0
  155.1845  137.8840  166.3365 H   0  0  0  0  0  0  0  0  0  0  0  0
  154.2875  138.6657  165.0402 H   0  0  0  0  0  0  0  0  0  0  0  0
  155.9680  139.0830  165.3095 H   0  0  0  0  0  0  0  0  0  0  0  0
  1  2  1  0  0  0  0
  1 25  1  0  0  0  0
  1 26  1  0  0  0  0
  1 27  1  0  0  0  0
  2 14  2  0  0  0  0
  2  3  1  0  0  0  0
  3  4  2  0  0  0  0
  4  5  1  0  0  0  0
  4 11  1  0  0  0  0
  5 10  1  0  0  0  0
  5  6  1  0  0  0  0
  6  7  1  0  0  0  0
  6 28  1  0  0  0  0
  6 29  1  0  0  0  0
  7  8  1  0  0  0  0
  7 30  1  0  0  0  0
  7 31  1  0  0  0  0
  8  9  1  0  0  0  0
  9 10  1  0  0  0  0
  9 32  1  0  0  0  0
  9 33  1  0  0  0  0
 10 34  1  0  0  0  0
 10 35  1  0  0  0  0
 11 12  1  0  0  0  0
 12 13  2  0  0  0  0
 12 14  1  0  0  0  0
 14 15  1  0  0  0  0
 15 16  1  0  0  0  0
 15 36  1  0  0  0  0
 15 37  1  0  0  0  0
 16 17  1  0  0  0  0
 16 38  1  0  0  0  0
 16 39  1  0  0  0  0
 17 18  2  0  0  0  0
 17 19  1  0  0  0  0
 19 20  1  0  0  0  0
 19 21  1  0  0  0  0
 20 40  1  0  0  0  0
 20 41  1  0  0  0  0
 20 42  1  0  0  0  0
 21 22  1  0  0  0  0
 21 43  1  0  0  0  0
 21 44  1  0  0  0  0
 22 23  1  0  0  0  0
 22 24  1  0  0  0  0
 22 45  1  0  0  0  0
 23 46  1  0  0  0  0
 23 47  1  0  0  0  0
 23 48  1  0  0  0  0
 24 49  1  0  0  0  0
 24 50  1  0  0  0  0
 24 51  1  0  0  0  0
M  CHG  1  11  -1
M  END
> <s_m_source_file>
AV-unprocessed.smi

> <i_m_source_file_index>
824

> <i_lp_mmshare_version>
43012

> <i_f3d_flags>
0

> <s_epik_input>
W0NIMl0xW0NIMl1PW0NIMl1bQ0gyXU4xYyhuYzJbQ0gzXSlbbkhdYyg9TyljMltDSDJdW0NIMl1DKD1PKU4oW0NIM10pW0NIMl1bQ0hdKFtDSDNdKVtDSDNd

> <s_epik_cmdline>
J2VwaWtfcHl0aG9uJywgJy1waCcsICc3LjAnLCAnLXRuJywgJzgnLCAnLW1hJywgJzIwMCcsICctbWV0YWxfYmluZGluZycsICctaW1hZScsICc8aW5maWxlLm1hZT4nLCAnLW9tYWUnLCAnPG91dGZpbGUubWFlPic=

> <r_lp_tautomer_probability>
1

> <r_epik_Ionization_Penalty>
5.09891

> <r_epik_Ionization_Penalty_Charging>
4.43024e-08

> <r_epik_Ionization_Penalty_Neutral>
5.09891

> <r_epik_State_Penalty>
2.55975

> <r_epik_Charging_Adjusted_Penalty>
2.55975

> <i_epik_Tot_Q>
-1

> <i_epik_Tot_abs_Q>
1

> <r_epik_Metal_State_Penalty>
0.115808

> <b_epik_Metal_Only>
0

> <s_lp_Force_Field>
OPLS_2005

> <r_lp_Energy>
31.6324

> <b_lp_Chiralities_Consistent>
1

> <s_lp_Variant>
AV-unprocessed.smi:824-3

> <Gold.Version>
5.8.1

> <Gold.Id.Protein>
6NUR|6NUR_protein|mol2

> <Gold.PLP.Fitness>
52.4936

> <Gold.PLP.PLP>
-47.3210

> <Gold.PLP.part.hbond>
-3.3183

> <Gold.PLP.part.metal>
0.0000

> <Gold.PLP.part.buried>
-4.8885

> <Gold.PLP.part.nonpolar>
-39.2480

> <Gold.PLP.part.repulsive>
0.1823

> <Gold.PLP.ligand.clash>
0.0000

> <Gold.PLP.ligand.torsion>
0.5837

> <Gold.PLP.Chemscore.Hbond>
1.9833

> <Gold.PLP.Chemscore.CHOScore>
0.0000

> <Gold.PLP.Chemscore.Metal>
0.0000

> <Gold.Chemscore.Hbonds>
donor molecule, donor type, donor heavy atom, donor atom, acceptor molecule, acceptor atom, score
      P1  H  6896  6909       L1    18  1.00
      P1  H  7997  8010       L1    13  0.85

> <Gold.PLP.Chemscore.Internal.Correction>
0.3903

> <Gold.Rescore>
     Score         DG    S(hbond)    S(metal)    S(lipo)     H(rot)  DE(clash)    DE(int)     intcor
     17.55     -18.58       1.55        0.00     104.16       1.66       0.54       0.48       ----

> <Gold.Chemscore.Fitness>
17.5511

> <Gold.Chemscore.DG>
-18.5780

> <Gold.Chemscore.ZeroCoef>
-5.4800

> <Gold.Chemscore.Hbond>
1.5479

> <Gold.Chemscore.Metal>
0.0000

> <Gold.Chemscore.Lipo>
104.1598

> <Gold.Chemscore.Internal_Hbond>
0.0000

> <Gold.Chemscore.DEClash>
0.5431

> <Gold.Chemscore.DEInternal>
0.4838

> <Gold.Chemscore.Rot>
1.6635

> <Gold.Chemscore.Internal.Correction>
   9.000000E+99

> <Gold.Chemscore.Hbonds>
donor molecule, donor type, donor heavy atom, donor atom, acceptor molecule, acceptor atom, score
      P1  H  6896  6909       L1    18  0.95
      P1  H  7997  8010       L1    13  0.15

> <Gold.Chemscore.Hbond.Weighted>
-5.1698

> <Gold.Chemscore.Metal.Weighted>
-0.0000

> <Gold.Chemscore.Lipo.Weighted>
-12.1867

> <Gold.Chemscore.Internal_Hbond.Weighted>
0.0000

> <Gold.Chemscore.DEClash.Weighted>
0.5431

> <Gold.Chemscore.DEInternal.Weighted>
0.4838

> <Gold.Chemscore.Rot.Weighted>
4.2585

> <Gold.Chemscore.Internal.Correction.Weighted>
   9.000000E+99

> <Gold.Protein.RotatedTorsions>
[ 6907 6896 6895 6894 ] final -175.72 input  -60.11 | X-H torsion
[ 7974 7965 7964 7962 ] final   65.67 input  175.53 | X-H torsion
[ 8008 7997 7996 7995 ] final   48.94 input   59.86 | X-H torsion
[ 10167 10162 10161 10158 ] final  113.61 input  -65.29 | X-H torsion
[ 10718 10713 10712 10709 ] final  -81.19 input   66.30 | X-H torsion
[ 10763 10752 10751 10750 ] final  -24.30 input  -60.55 | X-H torsion
[ 11005 11000 10999 10996 ] final -112.01 input  -57.11 | X-H torsion

> <Gold.Protein.ActiveResidues>
 VAL166  LYS551  ARG553  GLY616  TRP617  ASP618  TYR619  PRO620  LYS621  CYS622 
 ASP623  PHE694  ASN695  SER759  ASP760  ASP761  ALA762  ILE779  LEU786  VAL792 
 PHE793  MET794  SER795  GLU796  ALA797  LYS798  CYS799  TRP800  GLU811  SER814 

> <Gold.Protein.RotatedAtoms>
  151.5931  133.3364  159.3031 H   0  0  0  0  0  0  0  0  0  0  0  0  # atno 6907 bound_to 6896
  150.8249  134.7478  159.6815 H   0  0  0  0  0  0  0  0  0  0  0  0  # atno 6908 bound_to 6896
  152.4339  134.5730  159.9978 H   0  0  0  0  0  0  0  0  0  0  0  0  # atno 6909 bound_to 6896
  145.8357  139.3165  143.0961 H   0  0  0  0  0  0  0  0  0  0  0  0  # atno 7974 bound_to 7965
  155.3940  140.3434  155.4253 H   0  0  0  0  0  0  0  0  0  0  0  0  # atno 8008 bound_to 7997
  156.1541  140.1580  156.8754 H   0  0  0  0  0  0  0  0  0  0  0  0  # atno 8009 bound_to 7997
  154.5079  140.0797  156.7912 H   0  0  0  0  0  0  0  0  0  0  0  0  # atno 8010 bound_to 7997
  139.6449  144.7126  151.2163 H   0  0  0  0  0  0  0  0  0  0  0  0  # atno 10167 bound_to 10162
  156.0055  130.4596  150.3915 H   0  0  0  0  0  0  0  0  0  0  0  0  # atno 10718 bound_to 10713
  153.6815  135.6966  153.5116 H   0  0  0  0  0  0  0  0  0  0  0  0  # atno 10763 bound_to 10752
  153.2481  135.4284  155.0768 H   0  0  0  0  0  0  0  0  0  0  0  0  # atno 10764 bound_to 10752
  154.8398  135.3524  154.6358 H   0  0  0  0  0  0  0  0  0  0  0  0  # atno 10765 bound_to 10752
  141.0700  133.9395  157.2503 H   0  0  0  0  0  0  0  0  0  0  0  0  # atno 11005 bound_to 11000
  145.9521  140.8900  143.0254 LP  0  0  0  0  0  0  0  0  0  0  0  0  # atno 17320 bound_to 7965
  144.6736  140.1695  143.7415 LP  0  0  0  0  0  0  0  0  0  0  0  0  # atno 17321 bound_to 7965
  140.7509  143.6248  150.8479 LP  0  0  0  0  0  0  0  0  0  0  0  0  # atno 17342 bound_to 10162
  139.9890  143.5868  152.2917 LP  0  0  0  0  0  0  0  0  0  0  0  0  # atno 17343 bound_to 10162
  157.1990  131.0433  151.2660 LP  0  0  0  0  0  0  0  0  0  0  0  0  # atno 17370 bound_to 10713
  157.3993  130.7324  149.6755 LP  0  0  0  0  0  0  0  0  0  0  0  0  # atno 17371 bound_to 10713
  139.9514  135.0174  156.9005 LP  0  0  0  0  0  0  0  0  0  0  0  0  # atno 17394 bound_to 11000
  140.5692  134.0459  155.7425 LP  0  0  0  0  0  0  0  0  0  0  0  0  # atno 17395 bound_to 11000

$$$$
