AV-unprocessed.smi:2107|AV-procd|sdf|8601|dock1
  -GOLD-   2272011333D 1   1.00000     0.00000
 Structure written by MMmdl.
 47 48  0  0  0  0  0  0  0  0  2 V2000
  147.4154  135.2276  161.9987 C   0  0  0  0  0  0  0  0  0  0  0  0
  147.6893  134.2785  160.8193 C   0  0  0  0  0  0  0  0  0  0  0  0
  147.5677  134.9452  159.5086 N   0  0  0  0  0  0  0  0  0  0  0  0
  147.3199  134.0624  158.3499 C   0  0  0  0  0  0  0  0  0  0  0  0
  148.2199  132.8186  158.3333 C   0  0  0  0  0  0  0  0  0  0  0  0
  148.3451  136.4807  159.2753 S   0  0  0  0  0  0  0  0  0  0  0  0
  147.8020  137.4462  160.2428 O   0  0  0  0  0  0  0  0  0  0  0  0
  149.7960  136.2718  159.1545 O   0  0  0  0  0  0  0  0  0  0  0  0
  147.7250  136.8881  157.7197 N   0  0  0  0  0  0  0  0  0  0  0  0
  147.7684  138.2665  157.2314 C   0  0  0  0  0  0  0  0  0  0  0  0
  147.5247  138.4051  155.7314 C   0  0  0  0  0  0  0  0  0  0  0  0
  146.2266  138.1505  155.2328 C   0  0  0  0  0  0  0  0  0  0  0  0
  145.9597  138.2968  153.8577 C   0  0  0  0  0  0  0  0  0  0  0  0
  147.0006  138.6976  153.0008 C   0  0  0  0  0  0  0  0  0  0  0  0
  148.2300  138.9312  153.5056 N   0  3  0  0  0  0  0  0  0  0  0  0
  148.5415  138.8045  154.8197 C   0  0  0  0  0  0  0  0  0  0  0  0
  149.8637  139.0676  155.2220 N   0  0  0  0  0  0  0  0  0  0  0  0
  150.8603  138.3332  154.4541 C   0  0  0  0  0  0  0  0  0  0  0  0
  152.2448  138.4945  155.1040 C   0  0  0  0  0  0  0  0  0  0  0  0
  152.5581  139.8794  155.2192 O   0  0  0  0  0  0  0  0  0  0  0  0
  151.6234  140.5747  156.0390 C   0  0  0  0  0  0  0  0  0  0  0  0
  150.2182  140.4691  155.4225 C   0  0  0  0  0  0  0  0  0  0  0  0
  147.5694  134.7099  162.9455 H   0  0  0  0  0  0  0  0  0  0  0  0
  146.3869  135.5886  161.9940 H   0  0  0  0  0  0  0  0  0  0  0  0
  148.0705  136.0972  161.9923 H   0  0  0  0  0  0  0  0  0  0  0  0
  148.6806  133.8349  160.9200 H   0  0  0  0  0  0  0  0  0  0  0  0
  146.9811  133.4503  160.8528 H   0  0  0  0  0  0  0  0  0  0  0  0
  146.2732  133.7565  158.3518 H   0  0  0  0  0  0  0  0  0  0  0  0
  147.4612  134.6245  157.4284 H   0  0  0  0  0  0  0  0  0  0  0  0
  148.0644  132.2499  157.4164 H   0  0  0  0  0  0  0  0  0  0  0  0
  147.9959  132.1503  159.1640 H   0  0  0  0  0  0  0  0  0  0  0  0
  149.2764  133.0812  158.3787 H   0  0  0  0  0  0  0  0  0  0  0  0
  146.9388  136.3221  157.4008 H   0  0  0  0  0  0  0  0  0  0  0  0
  147.0192  138.8494  157.7656 H   0  0  0  0  0  0  0  0  0  0  0  0
  148.7343  138.6961  157.4991 H   0  0  0  0  0  0  0  0  0  0  0  0
  145.4316  137.8512  155.9001 H   0  0  0  0  0  0  0  0  0  0  0  0
  144.9703  138.1078  153.4678 H   0  0  0  0  0  0  0  0  0  0  0  0
  146.8890  138.8374  151.9353 H   0  0  0  0  0  0  0  0  0  0  0  0
  150.5994  137.2773  154.3912 H   0  0  0  0  0  0  0  0  0  0  0  0
  150.8806  138.7175  153.4334 H   0  0  0  0  0  0  0  0  0  0  0  0
  152.2705  138.0212  156.0871 H   0  0  0  0  0  0  0  0  0  0  0  0
  153.0057  138.0068  154.4944 H   0  0  0  0  0  0  0  0  0  0  0  0
  151.6394  140.1664  157.0496 H   0  0  0  0  0  0  0  0  0  0  0  0
  151.9234  141.6198  156.1144 H   0  0  0  0  0  0  0  0  0  0  0  0
  150.1986  140.9969  154.4679 H   0  0  0  0  0  0  0  0  0  0  0  0
  149.4862  140.9460  156.0758 H   0  0  0  0  0  0  0  0  0  0  0  0
  148.9664  139.2186  152.8609 H   0  0  0  0  0  0  0  0  0  0  0  0
  1  2  1  0  0  0  0
  1 23  1  0  0  0  0
  1 24  1  0  0  0  0
  1 25  1  0  0  0  0
  2  3  1  0  0  0  0
  2 26  1  0  0  0  0
  2 27  1  0  0  0  0
  3  4  1  0  0  0  0
  3  6  1  0  0  0  0
  4  5  1  0  0  0  0
  4 28  1  0  0  0  0
  4 29  1  0  0  0  0
  5 30  1  0  0  0  0
  5 31  1  0  0  0  0
  5 32  1  0  0  0  0
  6  7  2  0  0  0  0
  6  8  2  0  0  0  0
  6  9  1  0  0  0  0
  9 10  1  0  0  0  0
  9 33  1  0  0  0  0
 10 11  1  0  0  0  0
 10 34  1  0  0  0  0
 10 35  1  0  0  0  0
 11 16  1  0  0  0  0
 11 12  2  0  0  0  0
 12 13  1  0  0  0  0
 12 36  1  0  0  0  0
 13 14  2  0  0  0  0
 13 37  1  0  0  0  0
 14 15  1  0  0  0  0
 14 38  1  0  0  0  0
 15 16  2  0  0  0  0
 15 47  1  0  0  0  0
 16 17  1  0  0  0  0
 17 22  1  0  0  0  0
 17 18  1  0  0  0  0
 18 19  1  0  0  0  0
 18 39  1  0  0  0  0
 18 40  1  0  0  0  0
 19 20  1  0  0  0  0
 19 41  1  0  0  0  0
 19 42  1  0  0  0  0
 20 21  1  0  0  0  0
 21 22  1  0  0  0  0
 21 43  1  0  0  0  0
 21 44  1  0  0  0  0
 22 45  1  0  0  0  0
 22 46  1  0  0  0  0
M  CHG  1  15   1
M  END
> <s_m_source_file>
AV-unprocessed.smi

> <i_m_source_file_index>
2107

> <i_lp_mmshare_version>
43012

> <i_f3d_flags>
0

> <s_epik_input>
W0NIM11bQ0gyXU4oW0NIMl1bQ0gzXSlTKD1PKSg9TylbTkhdW0NIMl1jMVtjSF1bY0hdW2NIXW5jMU4yW0NIMl1bQ0gyXU9bQ0gyXVtDSDJdMg==

> <s_epik_cmdline>
J2VwaWtfcHl0aG9uJywgJy1waCcsICc3LjAnLCAnLXRuJywgJzgnLCAnLW1hJywgJzIwMCcsICctbWV0YWxfYmluZGluZycsICctaW1hZScsICc8aW5maWxlLm1hZT4nLCAnLW9tYWUnLCAnPG91dGZpbGUubWFlPic=

> <r_lp_tautomer_probability>
0.999994

> <r_epik_Ionization_Penalty>
2.66893

> <r_epik_Ionization_Penalty_Charging>
2.61323

> <r_epik_Ionization_Penalty_Neutral>
0.0557011

> <r_epik_State_Penalty>
2.68492

> <r_epik_Charging_Adjusted_Penalty>
5.29815

> <i_epik_Tot_Q>
1

> <i_epik_Tot_abs_Q>
1

> <r_epik_Metal_State_Penalty>
5.63236

> <b_epik_Metal_Only>
0

> <s_lp_Force_Field>
OPLS_2005

> <r_lp_Energy>
23.5693

> <b_lp_Chiralities_Consistent>
1

> <s_lp_Variant>
AV-unprocessed.smi:2107-2

> <Gold.Version>
5.8.1

> <Gold.Id.Protein>
6NUR|6NUR_protein|mol2

> <Gold.PLP.Fitness>
41.9660

> <Gold.PLP.PLP>
-30.6624

> <Gold.PLP.part.hbond>
-6.3341

> <Gold.PLP.part.metal>
0.0000

> <Gold.PLP.part.buried>
-4.0436

> <Gold.PLP.part.nonpolar>
-20.8601

> <Gold.PLP.part.repulsive>
0.1364

> <Gold.PLP.ligand.clash>
0.0000

> <Gold.PLP.ligand.torsion>
2.7527

> <Gold.PLP.Chemscore.Hbond>
4.3111

> <Gold.PLP.Chemscore.CHOScore>
0.0000

> <Gold.PLP.Chemscore.Metal>
0.0000

> <Gold.Chemscore.Hbonds>
donor molecule, donor type, donor heavy atom, donor atom, acceptor molecule, acceptor atom, score
      L1  H    15    47       P1  7957  1.00
      P1  H  6896  6909       L1     8  1.00
      P1  H  6931  6943       L1     7  0.32
      P1  H  6934  6947       L1     7  0.78
      P1  H  7989  7998       L1    20  0.16
      P1  H  7997  8010       L1    20  1.00

> <Gold.PLP.Chemscore.Internal.Correction>
3.8758

> <Gold.Rescore>
     Score         DG    S(hbond)    S(metal)    S(lipo)     H(rot)  DE(clash)    DE(int)     intcor
     17.62     -20.24       3.79        0.00      56.61       1.77       0.01       2.61       ----

> <Gold.Chemscore.Fitness>
17.6189

> <Gold.Chemscore.DG>
-20.2418

> <Gold.Chemscore.ZeroCoef>
-5.4800

> <Gold.Chemscore.Hbond>
3.7917

> <Gold.Chemscore.Metal>
0.0000

> <Gold.Chemscore.Lipo>
56.6110

> <Gold.Chemscore.Internal_Hbond>
0.0000

> <Gold.Chemscore.DEClash>
0.0144

> <Gold.Chemscore.DEInternal>
2.6085

> <Gold.Chemscore.Rot>
1.7680

> <Gold.Chemscore.Internal.Correction>
   9.000000E+99

> <Gold.Chemscore.Hbonds>
donor molecule, donor type, donor heavy atom, donor atom, acceptor molecule, acceptor atom, score
      L1  H    15    47       P1  7957  0.93
      P1  H  6896  6909       L1     8  0.99
      P1  H  6931  6943       L1     7  0.32
      P1  H  6934  6947       L1     7  0.78
      P1  H  7997  8010       L1    20  0.42

> <Gold.Chemscore.Hbond.Weighted>
-12.6644

> <Gold.Chemscore.Metal.Weighted>
-0.0000

> <Gold.Chemscore.Lipo.Weighted>
-6.6235

> <Gold.Chemscore.Internal_Hbond.Weighted>
0.0000

> <Gold.Chemscore.DEClash.Weighted>
0.0144

> <Gold.Chemscore.DEInternal.Weighted>
2.6085

> <Gold.Chemscore.Rot.Weighted>
4.5261

> <Gold.Chemscore.Internal.Correction.Weighted>
   9.000000E+99

> <Gold.Protein.RotatedTorsions>
[ 6907 6896 6895 6894 ] final   57.23 input  -60.11 | X-H torsion
[ 7974 7965 7964 7962 ] final  -30.15 input  175.53 | X-H torsion
[ 8008 7997 7996 7995 ] final   91.37 input   59.86 | X-H torsion
[ 10167 10162 10161 10158 ] final -175.12 input  -65.29 | X-H torsion
[ 10718 10713 10712 10709 ] final  -55.60 input   66.30 | X-H torsion
[ 10763 10752 10751 10750 ] final  165.13 input  -60.55 | X-H torsion
[ 11005 11000 10999 10996 ] final   -0.57 input  -57.11 | X-H torsion

> <Gold.Protein.ActiveResidues>
 VAL166  LYS551  ARG553  GLY616  TRP617  ASP618  TYR619  PRO620  LYS621  CYS622 
 ASP623  PHE694  ASN695  SER759  ASP760  ASP761  ALA762  ILE779  LEU786  VAL792 
 PHE793  MET794  SER795  GLU796  ALA797  LYS798  CYS799  TRP800  GLU811  SER814 

> <Gold.Protein.RotatedAtoms>
  152.3712  134.6731  160.0175 H   0  0  0  0  0  0  0  0  0  0  0  0  # atno 6907 bound_to 6896
  151.7023  133.3306  159.3278 H   0  0  0  0  0  0  0  0  0  0  0  0  # atno 6908 bound_to 6896
  150.7675  134.6539  159.6348 H   0  0  0  0  0  0  0  0  0  0  0  0  # atno 6909 bound_to 6896
  146.1164  140.5504  142.8755 H   0  0  0  0  0  0  0  0  0  0  0  0  # atno 7974 bound_to 7965
  156.0229  140.3338  155.7058 H   0  0  0  0  0  0  0  0  0  0  0  0  # atno 8008 bound_to 7997
  155.5996  140.0654  157.2754 H   0  0  0  0  0  0  0  0  0  0  0  0  # atno 8009 bound_to 7997
  154.4323  140.1813  156.1147 H   0  0  0  0  0  0  0  0  0  0  0  0  # atno 8010 bound_to 7997
  139.5597  144.1900  152.1219 H   0  0  0  0  0  0  0  0  0  0  0  0  # atno 10167 bound_to 10162
  156.1355  130.4157  150.0193 H   0  0  0  0  0  0  0  0  0  0  0  0  # atno 10718 bound_to 10713
  154.3194  135.2756  155.2527 H   0  0  0  0  0  0  0  0  0  0  0  0  # atno 10763 bound_to 10752
  154.4887  135.5839  153.6447 H   0  0  0  0  0  0  0  0  0  0  0  0  # atno 10764 bound_to 10752
  152.9878  135.6129  154.3377 H   0  0  0  0  0  0  0  0  0  0  0  0  # atno 10765 bound_to 10752
  140.6378  133.9517  155.8309 H   0  0  0  0  0  0  0  0  0  0  0  0  # atno 11005 bound_to 11000
  144.7557  140.5301  143.6771 LP  0  0  0  0  0  0  0  0  0  0  0  0  # atno 17320 bound_to 7965
  145.5558  139.1478  143.3369 LP  0  0  0  0  0  0  0  0  0  0  0  0  # atno 17321 bound_to 7965
  140.1411  144.5201  150.6744 LP  0  0  0  0  0  0  0  0  0  0  0  0  # atno 17342 bound_to 10162
  140.6875  143.2358  151.5220 LP  0  0  0  0  0  0  0  0  0  0  0  0  # atno 17343 bound_to 10162
  156.8093  130.9319  151.3644 LP  0  0  0  0  0  0  0  0  0  0  0  0  # atno 17370 bound_to 10713
  157.6528  130.8899  149.9668 LP  0  0  0  0  0  0  0  0  0  0  0  0  # atno 17371 bound_to 10713
  141.0629  134.0320  157.3634 LP  0  0  0  0  0  0  0  0  0  0  0  0  # atno 17394 bound_to 11000
  139.9091  135.0186  156.7617 LP  0  0  0  0  0  0  0  0  0  0  0  0  # atno 17395 bound_to 11000

$$$$
