AV-unprocessed.smi:2923|AV-procd|sdf|11203|dock2
  -GOLD-   2272016 93D 1   1.00000     0.00000
 Structure written by MMmdl.
 47 49  0  0  0  0  0  0  0  0  2 V2000
  148.1882  128.1795  152.7802 C   0  0  0  0  0  0  0  0  0  0  0  0
  149.2186  128.7840  153.6174 N   0  0  0  0  0  0  0  0  0  0  0  0
  150.1445  127.9444  154.3667 C   0  0  0  0  0  0  0  0  0  0  0  0
  149.3024  130.1893  153.7213 C   0  0  0  0  0  0  0  0  0  0  0  0
  150.2738  130.8531  154.5101 C   0  0  0  0  0  0  0  0  0  0  0  0
  150.2902  132.2621  154.5636 C   0  0  0  0  0  0  0  0  0  0  0  0
  149.3447  133.0051  153.8266 C   0  0  0  0  0  0  0  0  0  0  0  0
  149.3930  134.4223  153.9270 N   0  0  0  0  0  0  0  0  0  0  0  0
  149.7637  135.1788  154.9747 C   0  0  0  0  0  0  0  0  0  0  0  0
  150.0919  134.7527  156.0815 O   0  0  0  0  0  0  0  0  0  0  0  0
  149.7158  136.4825  154.6723 N   0  0  0  0  0  0  0  0  0  0  0  0
  150.0479  137.5541  155.6034 C   0  0  1  0  0  0  0  0  0  0  0  0
  151.3648  137.3042  156.3379 C   0  0  2  0  0  0  0  0  0  0  0  0
  151.7374  137.0352  157.7522 C   0  0  0  0  0  0  0  0  0  0  0  0
  152.9173  138.0386  157.8547 C   0  0  0  0  0  0  0  0  0  0  0  0
  152.8516  138.8529  156.6581 O   0  0  0  0  0  0  0  0  0  0  0  0
  151.4852  138.8153  156.3011 C   0  0  1  0  0  0  0  0  0  0  0  0
  150.7842  138.7719  154.9283 C   0  0  0  0  0  0  0  0  0  0  0  0
  151.6613  138.5400  153.6810 C   0  0  0  0  0  0  0  0  0  0  0  0
  149.8975  139.9763  154.6105 C   0  0  0  0  0  0  0  0  0  0  0  0
  148.3891  132.2959  153.0605 C   0  0  0  0  0  0  0  0  0  0  0  0
  148.4090  130.9460  153.0385 N   0  3  0  0  0  0  0  0  0  0  0  0
  147.1949  128.4575  153.1348 H   0  0  0  0  0  0  0  0  0  0  0  0
  148.2543  127.0915  152.7910 H   0  0  0  0  0  0  0  0  0  0  0  0
  148.2926  128.5087  151.7458 H   0  0  0  0  0  0  0  0  0  0  0  0
  151.1726  128.1400  154.0606 H   0  0  0  0  0  0  0  0  0  0  0  0
  149.9430  126.8862  154.2000 H   0  0  0  0  0  0  0  0  0  0  0  0
  150.0559  128.1348  155.4366 H   0  0  0  0  0  0  0  0  0  0  0  0
  151.0088  130.3043  155.0797 H   0  0  0  0  0  0  0  0  0  0  0  0
  151.0301  132.7666  155.1679 H   0  0  0  0  0  0  0  0  0  0  0  0
  149.0818  134.9250  153.1086 H   0  0  0  0  0  0  0  0  0  0  0  0
  149.4311  136.7543  153.7428 H   0  0  0  0  0  0  0  0  0  0  0  0
  149.2310  137.8371  156.2737 H   0  0  0  0  0  0  0  0  0  0  0  0
  152.0772  136.8018  155.6793 H   0  0  0  0  0  0  0  0  0  0  0  0
  150.9287  137.2816  158.4417 H   0  0  0  0  0  0  0  0  0  0  0  0
  152.0484  136.0039  157.9204 H   0  0  0  0  0  0  0  0  0  0  0  0
  152.8219  138.6612  158.7451 H   0  0  0  0  0  0  0  0  0  0  0  0
  153.8813  137.5312  157.8976 H   0  0  0  0  0  0  0  0  0  0  0  0
  150.8754  139.3266  157.0550 H   0  0  0  0  0  0  0  0  0  0  0  0
  152.2872  139.4090  153.4761 H   0  0  0  0  0  0  0  0  0  0  0  0
  151.0509  138.3667  152.7942 H   0  0  0  0  0  0  0  0  0  0  0  0
  152.3331  137.6883  153.7681 H   0  0  0  0  0  0  0  0  0  0  0  0
  150.4911  140.8715  154.4223 H   0  0  0  0  0  0  0  0  0  0  0  0
  149.2215  140.2049  155.4351 H   0  0  0  0  0  0  0  0  0  0  0  0
  149.2788  139.7982  153.7304 H   0  0  0  0  0  0  0  0  0  0  0  0
  147.6015  132.7431  152.4734 H   0  0  0  0  0  0  0  0  0  0  0  0
  147.7058  130.4681  152.4748 H   0  0  0  0  0  0  0  0  0  0  0  0
  1  2  1  0  0  0  0
  1 23  1  0  0  0  0
  1 24  1  0  0  0  0
  1 25  1  0  0  0  0
  2  3  1  0  0  0  0
  2  4  1  0  0  0  0
  3 26  1  0  0  0  0
  3 27  1  0  0  0  0
  3 28  1  0  0  0  0
  4 22  1  0  0  0  0
  4  5  2  0  0  0  0
  5  6  1  0  0  0  0
  5 29  1  0  0  0  0
  6  7  2  0  0  0  0
  6 30  1  0  0  0  0
  7  8  1  0  0  0  0
  7 21  1  0  0  0  0
  8  9  1  0  0  0  0
  8 31  1  0  0  0  0
  9 10  2  0  0  0  0
  9 11  1  0  0  0  0
 11 12  1  0  0  0  0
 11 32  1  0  0  0  0
 12 18  1  0  0  0  0
 12 13  1  0  0  0  0
 12 33  1  0  0  0  0
 13 17  1  0  0  0  0
 13 14  1  0  0  0  0
 13 34  1  0  0  0  0
 14 15  1  0  0  0  0
 14 35  1  0  0  0  0
 14 36  1  0  0  0  0
 15 16  1  0  0  0  0
 15 37  1  0  0  0  0
 15 38  1  0  0  0  0
 16 17  1  0  0  0  0
 17 18  1  0  0  0  0
 17 39  1  0  0  0  0
 18 19  1  0  0  0  0
 18 20  1  0  0  0  0
 19 40  1  0  0  0  0
 19 41  1  0  0  0  0
 19 42  1  0  0  0  0
 20 43  1  0  0  0  0
 20 44  1  0  0  0  0
 20 45  1  0  0  0  0
 21 22  2  0  0  0  0
 21 46  1  0  0  0  0
 22 47  1  0  0  0  0
M  CHG  1  22   1
M  END
> <s_m_source_file>
AV-unprocessed.smi

> <i_m_source_file_index>
2923

> <i_lp_mmshare_version>
43012

> <i_f3d_flags>
0

> <s_epik_input>
W0NIM11OKFtDSDNdKWMxW2NIXVtjSF1jKFtjSF1uMSlbTkhdQyg9TylbTkhdW0NASF0yQyhbQ0gzXSkoW0NIM10pW0NAQEhdKFtDQEhdMjMpT1tDSDJdW0NIMl0z

> <s_epik_cmdline>
J2VwaWtfcHl0aG9uJywgJy1waCcsICc3LjAnLCAnLXRuJywgJzgnLCAnLW1hJywgJzIwMCcsICctbWV0YWxfYmluZGluZycsICctaW1hZScsICc8aW5maWxlLm1hZT4nLCAnLW9tYWUnLCAnPG91dGZpbGUubWFlPic=

> <r_lp_tautomer_probability>
0.999994

> <r_epik_Ionization_Penalty>
0.252205

> <r_epik_Ionization_Penalty_Charging>
0.252185

> <r_epik_Ionization_Penalty_Neutral>
1.99479e-05

> <r_epik_State_Penalty>
0.243573

> <r_epik_Charging_Adjusted_Penalty>
0.495758

> <i_epik_Tot_Q>
1

> <i_epik_Tot_abs_Q>
1

> <r_epik_Metal_State_Penalty>
0.534372

> <b_epik_Metal_Only>
0

> <s_lp_Force_Field>
OPLS_2005

> <r_lp_Energy>
67.7909

> <b_lp_Chiralities_Consistent>
1

> <s_lp_Variant>
AV-unprocessed.smi:2923-2

> <Gold.Version>
5.8.1

> <Gold.Id.Protein>
6NUR|6NUR_protein|mol2

> <Gold.PLP.Fitness>
38.3639

> <Gold.PLP.PLP>
-30.5731

> <Gold.PLP.part.hbond>
-4.0000

> <Gold.PLP.part.metal>
0.0000

> <Gold.PLP.part.buried>
-4.1303

> <Gold.PLP.part.nonpolar>
-22.4768

> <Gold.PLP.part.repulsive>
0.0650

> <Gold.PLP.ligand.clash>
0.0000

> <Gold.PLP.ligand.torsion>
0.4510

> <Gold.PLP.Chemscore.Hbond>
2.8087

> <Gold.PLP.Chemscore.CHOScore>
0.0000

> <Gold.PLP.Chemscore.Metal>
0.0000

> <Gold.Chemscore.Hbonds>
donor molecule, donor type, donor heavy atom, donor atom, acceptor molecule, acceptor atom, score
      L1  H     8    31       P1  7948  0.70
      L1  H    11    32       P1  7948  0.98
      P1  H  7997  8009       L1    16  1.00

> <Gold.PLP.Chemscore.Internal.Correction>
0.2666

> <Gold.Rescore>
     Score         DG    S(hbond)    S(metal)    S(lipo)     H(rot)  DE(clash)    DE(int)     intcor
     13.90     -18.48       1.99        0.00      76.21       1.00       1.64       2.94       ----

> <Gold.Chemscore.Fitness>
13.8982

> <Gold.Chemscore.DG>
-18.4833

> <Gold.Chemscore.ZeroCoef>
-5.4800

> <Gold.Chemscore.Hbond>
1.9901

> <Gold.Chemscore.Metal>
0.0000

> <Gold.Chemscore.Lipo>
76.2080

> <Gold.Chemscore.Internal_Hbond>
0.0000

> <Gold.Chemscore.DEClash>
1.6409

> <Gold.Chemscore.DEInternal>
2.9441

> <Gold.Chemscore.Rot>
1.0000

> <Gold.Chemscore.Internal.Correction>
   9.000000E+99

> <Gold.Chemscore.Hbonds>
donor molecule, donor type, donor heavy atom, donor atom, acceptor molecule, acceptor atom, score
      L1  H     8    31       P1  7948  0.07
      L1  H    11    32       P1  7948  0.82
      P1  H  7997  8009       L1    16  0.81

> <Gold.Chemscore.Hbond.Weighted>
-6.6470

> <Gold.Chemscore.Metal.Weighted>
-0.0000

> <Gold.Chemscore.Lipo.Weighted>
-8.9163

> <Gold.Chemscore.Internal_Hbond.Weighted>
0.0000

> <Gold.Chemscore.DEClash.Weighted>
1.6409

> <Gold.Chemscore.DEInternal.Weighted>
2.9441

> <Gold.Chemscore.Rot.Weighted>
2.5600

> <Gold.Chemscore.Internal.Correction.Weighted>
   9.000000E+99

> <Gold.Protein.RotatedTorsions>
[ 6907 6896 6895 6894 ] final   19.08 input  -60.11 | X-H torsion
[ 7974 7965 7964 7962 ] final   73.73 input  175.53 | X-H torsion
[ 8008 7997 7996 7995 ] final -173.35 input   59.86 | X-H torsion
[ 10167 10162 10161 10158 ] final  -91.68 input  -65.29 | X-H torsion
[ 10718 10713 10712 10709 ] final  134.03 input   66.30 | X-H torsion
[ 10763 10752 10751 10750 ] final  155.64 input  -60.55 | X-H torsion
[ 11005 11000 10999 10996 ] final -100.02 input  -57.11 | X-H torsion

> <Gold.Protein.ActiveResidues>
 VAL166  LYS551  ARG553  GLY616  TRP617  ASP618  TYR619  PRO620  LYS621  CYS622 
 ASP623  PHE694  ASN695  SER759  ASP760  ASP761  ALA762  ILE779  LEU786  VAL792 
 PHE793  MET794  SER795  GLU796  ALA797  LYS798  CYS799  TRP800  GLU811  SER814 

> <Gold.Protein.RotatedAtoms>
  151.8753  135.0474  160.0483 H   0  0  0  0  0  0  0  0  0  0  0  0  # atno 6907 bound_to 6896
  152.2556  133.5248  159.5359 H   0  0  0  0  0  0  0  0  0  0  0  0  # atno 6908 bound_to 6896
  150.7098  134.0817  159.3942 H   0  0  0  0  0  0  0  0  0  0  0  0  # atno 6909 bound_to 6896
  145.7371  139.2706  143.1507 H   0  0  0  0  0  0  0  0  0  0  0  0  # atno 7974 bound_to 7965
  155.9563  140.1136  157.0934 H   0  0  0  0  0  0  0  0  0  0  0  0  # atno 8008 bound_to 7997
  154.4121  140.1190  156.5186 H   0  0  0  0  0  0  0  0  0  0  0  0  # atno 8009 bound_to 7997
  155.6778  140.3473  155.4845 H   0  0  0  0  0  0  0  0  0  0  0  0  # atno 8010 bound_to 7997
  140.3425  143.2934  151.9819 H   0  0  0  0  0  0  0  0  0  0  0  0  # atno 10167 bound_to 10162
  157.4714  131.1080  150.9798 H   0  0  0  0  0  0  0  0  0  0  0  0  # atno 10718 bound_to 10713
  154.1715  135.2804  155.3079 H   0  0  0  0  0  0  0  0  0  0  0  0  # atno 10763 bound_to 10752
  154.6071  135.5511  153.7438 H   0  0  0  0  0  0  0  0  0  0  0  0  # atno 10764 bound_to 10752
  153.0163  135.6406  154.1855 H   0  0  0  0  0  0  0  0  0  0  0  0  # atno 10765 bound_to 10752
  141.1286  133.8367  157.1048 H   0  0  0  0  0  0  0  0  0  0  0  0  # atno 11005 bound_to 11000
  146.0482  140.8096  142.9794 LP  0  0  0  0  0  0  0  0  0  0  0  0  # atno 17320 bound_to 7965
  144.6879  140.3013  143.7263 LP  0  0  0  0  0  0  0  0  0  0  0  0  # atno 17321 bound_to 7965
  139.4838  144.6145  151.7372 LP  0  0  0  0  0  0  0  0  0  0  0  0  # atno 17342 bound_to 10162
  140.5296  144.0752  150.6049 LP  0  0  0  0  0  0  0  0  0  0  0  0  # atno 17343 bound_to 10162
  157.0562  130.5807  149.5378 LP  0  0  0  0  0  0  0  0  0  0  0  0  # atno 17370 bound_to 10713
  156.0075  130.5163  150.7879 LP  0  0  0  0  0  0  0  0  0  0  0  0  # atno 17371 bound_to 10713
  140.0311  134.9901  157.0782 LP  0  0  0  0  0  0  0  0  0  0  0  0  # atno 17394 bound_to 11000
  140.4284  134.1807  155.7167 LP  0  0  0  0  0  0  0  0  0  0  0  0  # atno 17395 bound_to 11000

$$$$
