AV-unprocessed.smi:1749|AV-procd|sdf|7045|dock2
  -GOLD-   22720 8263D 1   1.00000     0.00000
 Structure written by MMmdl.
 32 33  0  0  0  0  0  0  0  0  1 V2000
  152.1704  145.8619  160.2809 C   0  0  0  0  0  0  0  0  0  0  0  0
  152.3758  144.5550  159.5016 C   0  0  1  0  0  0  0  0  0  0  0  0
  152.3833  143.3344  160.4418 C   0  0  0  0  0  0  0  0  0  0  0  0
  152.5852  142.0247  159.6639 C   0  0  0  0  0  0  0  0  0  0  0  0
  151.5222  141.8590  158.5671 C   0  0  0  0  0  0  0  0  0  0  0  0
  151.5041  143.0702  157.6169 C   0  0  1  0  0  0  0  0  0  0  0  0
  150.4243  142.9164  156.6465 N   0  0  0  0  0  0  0  0  0  0  0  0
  150.0602  141.7782  156.0325 C   0  0  0  0  0  0  0  0  0  0  0  0
  150.6094  140.6987  156.2456 O   0  0  0  0  0  0  0  0  0  0  0  0
  149.0399  141.8720  155.1526 N   0  0  0  0  0  0  0  0  0  0  0  0
  148.3969  140.8976  154.3334 C   0  0  0  0  0  0  0  0  0  0  0  0
  147.3740  141.1532  153.5009 N   0  0  0  0  0  0  0  0  0  0  0  0
  146.9535  140.0168  152.8234 N   0  0  0  0  0  0  0  0  0  0  0  0
  147.6761  138.9471  153.1663 C   0  0  0  0  0  0  0  0  0  0  0  0
  148.9402  139.2248  154.3513 S   0  0  0  0  0  0  0  0  0  0  0  0
  151.3107  144.3823  158.4011 C   0  0  0  0  0  0  0  0  0  0  0  0
  151.2086  145.8702  160.7944 H   0  0  0  0  0  0  0  0  0  0  0  0
  152.1998  146.7251  159.6154 H   0  0  0  0  0  0  0  0  0  0  0  0
  152.9497  145.9983  161.0313 H   0  0  0  0  0  0  0  0  0  0  0  0
  153.3518  144.6120  159.0173 H   0  0  0  0  0  0  0  0  0  0  0  0
  153.1725  143.4416  161.1869 H   0  0  0  0  0  0  0  0  0  0  0  0
  151.4432  143.2871  160.9933 H   0  0  0  0  0  0  0  0  0  0  0  0
  153.5792  142.0154  159.2150 H   0  0  0  0  0  0  0  0  0  0  0  0
  152.5472  141.1769  160.3483 H   0  0  0  0  0  0  0  0  0  0  0  0
  151.7137  140.9444  158.0043 H   0  0  0  0  0  0  0  0  0  0  0  0
  150.5424  141.7373  159.0312 H   0  0  0  0  0  0  0  0  0  0  0  0
  152.4688  143.1156  157.1086 H   0  0  0  0  0  0  0  0  0  0  0  0
  149.9129  143.7547  156.4092 H   0  0  0  0  0  0  0  0  0  0  0  0
  148.6438  142.7977  155.0791 H   0  0  0  0  0  0  0  0  0  0  0  0
  147.4633  137.9877  152.7182 H   0  0  0  0  0  0  0  0  0  0  0  0
  150.3165  144.3979  158.8508 H   0  0  0  0  0  0  0  0  0  0  0  0
  151.3503  145.2286  157.7139 H   0  0  0  0  0  0  0  0  0  0  0  0
  1  2  1  0  0  0  0
  1 17  1  0  0  0  0
  1 18  1  0  0  0  0
  1 19  1  0  0  0  0
  2 16  1  0  0  0  0
  2  3  1  0  0  0  0
  2 20  1  0  0  0  0
  3  4  1  0  0  0  0
  3 21  1  0  0  0  0
  3 22  1  0  0  0  0
  4  5  1  0  0  0  0
  4 23  1  0  0  0  0
  4 24  1  0  0  0  0
  5  6  1  0  0  0  0
  5 25  1  0  0  0  0
  5 26  1  0  0  0  0
  6  7  1  0  0  0  0
  6 16  1  0  0  0  0
  6 27  1  0  0  0  0
  7  8  1  0  0  0  0
  7 28  1  0  0  0  0
  8  9  2  0  0  0  0
  8 10  1  0  0  0  0
 10 11  1  0  0  0  0
 10 29  1  0  0  0  0
 11 15  1  0  0  0  0
 11 12  2  0  0  0  0
 12 13  1  0  0  0  0
 13 14  2  0  0  0  0
 14 15  1  0  0  0  0
 14 30  1  0  0  0  0
 16 31  1  0  0  0  0
 16 32  1  0  0  0  0
M  END
> <s_m_source_file>
AV-unprocessed.smi

> <i_m_source_file_index>
1749

> <i_lp_mmshare_version>
43012

> <i_f3d_flags>
0

> <s_epik_input>
W0NIM11bQ0BASF0xW0NIMl1bQ0gyXVtDSDJdW0NASF0oW0NIMl0xKVtOSF1DKD1PKVtOSF1jMm5uW2NIXXMy

> <s_epik_cmdline>
J2VwaWtfcHl0aG9uJywgJy1waCcsICc3LjAnLCAnLXRuJywgJzgnLCAnLW1hJywgJzIwMCcsICctbWV0YWxfYmluZGluZycsICctaW1hZScsICc8aW5maWxlLm1hZT4nLCAnLW9tYWUnLCAnPG91dGZpbGUubWFlPic=

> <r_lp_tautomer_probability>
1

> <r_epik_Ionization_Penalty>
0.000318591

> <r_epik_Ionization_Penalty_Charging>
0

> <r_epik_Ionization_Penalty_Neutral>
0.000318591

> <r_epik_State_Penalty>
-0

> <r_epik_Charging_Adjusted_Penalty>
0

> <i_epik_Tot_Q>
0

> <i_epik_Tot_abs_Q>
0

> <r_epik_Metal_State_Penalty>
0.169791

> <b_epik_Metal_Only>
0

> <s_lp_Force_Field>
OPLS_2005

> <r_lp_Energy>
11.6735

> <b_lp_Chiralities_Consistent>
1

> <s_lp_Variant>
AV-unprocessed.smi:1749-2

> <Gold.Version>
5.8.1

> <Gold.Id.Protein>
6NUR|6NUR_protein|mol2

> <Gold.PLP.Fitness>
41.4744

> <Gold.PLP.PLP>
-33.3112

> <Gold.PLP.part.hbond>
-2.0000

> <Gold.PLP.part.metal>
0.0000

> <Gold.PLP.part.buried>
-4.5099

> <Gold.PLP.part.nonpolar>
-27.4008

> <Gold.PLP.part.repulsive>
0.6669

> <Gold.PLP.ligand.clash>
0.0000

> <Gold.PLP.ligand.torsion>
0.2635

> <Gold.PLP.Chemscore.Hbond>
1.8960

> <Gold.PLP.Chemscore.CHOScore>
1.0000

> <Gold.PLP.Chemscore.Metal>
0.0000

> <Gold.Chemscore.Hbonds>
donor molecule, donor type, donor heavy atom, donor atom, acceptor molecule, acceptor atom, score
      L1  H     7    28       P1  8028  1.00
      L1  H    10    29       P1  8028  0.90
      L1  C    14    30       P1  7948  1.00

> <Gold.PLP.Chemscore.Internal.Correction>
0.0022

> <Gold.Rescore>
     Score         DG    S(hbond)    S(metal)    S(lipo)     H(rot)  DE(clash)    DE(int)     intcor
     16.26     -19.86       1.86        0.00      91.75       1.00       0.62       2.98       ----

> <Gold.Chemscore.Fitness>
16.2582

> <Gold.Chemscore.DG>
-19.8648

> <Gold.Chemscore.ZeroCoef>
-5.4800

> <Gold.Chemscore.Hbond>
1.8591

> <Gold.Chemscore.Metal>
0.0000

> <Gold.Chemscore.Lipo>
91.7546

> <Gold.Chemscore.Internal_Hbond>
0.0000

> <Gold.Chemscore.DEClash>
0.6227

> <Gold.Chemscore.DEInternal>
2.9839

> <Gold.Chemscore.Rot>
1.0000

> <Gold.Chemscore.Internal.Correction>
   9.000000E+99

> <Gold.Chemscore.Hbonds>
donor molecule, donor type, donor heavy atom, donor atom, acceptor molecule, acceptor atom, score
      L1  H     7    28       P1  8028  0.98
      L1  H    10    29       P1  8028  0.84

> <Gold.Chemscore.Hbond.Weighted>
-6.2095

> <Gold.Chemscore.Metal.Weighted>
-0.0000

> <Gold.Chemscore.Lipo.Weighted>
-10.7353

> <Gold.Chemscore.Internal_Hbond.Weighted>
0.0000

> <Gold.Chemscore.DEClash.Weighted>
0.6227

> <Gold.Chemscore.DEInternal.Weighted>
2.9839

> <Gold.Chemscore.Rot.Weighted>
2.5600

> <Gold.Chemscore.Internal.Correction.Weighted>
   9.000000E+99

> <Gold.Protein.RotatedTorsions>
[ 6907 6896 6895 6894 ] final  160.74 input  -60.11 | X-H torsion
[ 7974 7965 7964 7962 ] final  -59.84 input  175.53 | X-H torsion
[ 8008 7997 7996 7995 ] final  -79.54 input   59.86 | X-H torsion
[ 10167 10162 10161 10158 ] final -159.54 input  -65.29 | X-H torsion
[ 10718 10713 10712 10709 ] final  -89.81 input   66.30 | X-H torsion
[ 10763 10752 10751 10750 ] final -103.05 input  -60.55 | X-H torsion
[ 11005 11000 10999 10996 ] final   60.48 input  -57.11 | X-H torsion

> <Gold.Protein.ActiveResidues>
 VAL166  LYS551  ARG553  GLY616  TRP617  ASP618  TYR619  PRO620  LYS621  CYS622 
 ASP623  PHE694  ASN695  SER759  ASP760  ASP761  ALA762  ILE779  LEU786  VAL792 
 PHE793  MET794  SER795  GLU796  ALA797  LYS798  CYS799  TRP800  GLU811  SER814 

> <Gold.Protein.RotatedAtoms>
  151.9660  133.3710  159.4052 H   0  0  0  0  0  0  0  0  0  0  0  0  # atno 6907 bound_to 6896
  150.6956  134.4190  159.5205 H   0  0  0  0  0  0  0  0  0  0  0  0  # atno 6908 bound_to 6896
  152.1886  134.8691  160.0570 H   0  0  0  0  0  0  0  0  0  0  0  0  # atno 6909 bound_to 6896
  145.8227  140.8530  143.0124 H   0  0  0  0  0  0  0  0  0  0  0  0  # atno 7974 bound_to 7965
  154.5795  140.0677  156.9082 H   0  0  0  0  0  0  0  0  0  0  0  0  # atno 8008 bound_to 7997
  155.2489  140.3350  155.4266 H   0  0  0  0  0  0  0  0  0  0  0  0  # atno 8009 bound_to 7997
  156.2178  140.1786  156.7532 H   0  0  0  0  0  0  0  0  0  0  0  0  # atno 8010 bound_to 7997
  139.6607  143.9917  152.2223 H   0  0  0  0  0  0  0  0  0  0  0  0  # atno 10167 bound_to 10162
  155.9985  130.4886  150.5227 H   0  0  0  0  0  0  0  0  0  0  0  0  # atno 10718 bound_to 10713
  154.7779  135.4838  153.9782 H   0  0  0  0  0  0  0  0  0  0  0  0  # atno 10763 bound_to 10752
  153.1453  135.6781  153.8971 H   0  0  0  0  0  0  0  0  0  0  0  0  # atno 10764 bound_to 10752
  153.8632  135.3152  155.3417 H   0  0  0  0  0  0  0  0  0  0  0  0  # atno 10765 bound_to 10752
  140.0229  134.6127  155.9614 H   0  0  0  0  0  0  0  0  0  0  0  0  # atno 11005 bound_to 11000
  144.6746  140.0557  143.7477 LP  0  0  0  0  0  0  0  0  0  0  0  0  # atno 17320 bound_to 7965
  145.9657  139.2833  143.1129 LP  0  0  0  0  0  0  0  0  0  0  0  0  # atno 17321 bound_to 7965
  139.9656  144.6529  150.8038 LP  0  0  0  0  0  0  0  0  0  0  0  0  # atno 17342 bound_to 10162
  140.7579  143.3095  151.2879 LP  0  0  0  0  0  0  0  0  0  0  0  0  # atno 17343 bound_to 10162
  157.3186  131.0677  151.1948 LP  0  0  0  0  0  0  0  0  0  0  0  0  # atno 17370 bound_to 10713
  157.2869  130.6777  149.6094 LP  0  0  0  0  0  0  0  0  0  0  0  0  # atno 17371 bound_to 10713
  141.1785  133.6543  156.4923 LP  0  0  0  0  0  0  0  0  0  0  0  0  # atno 17394 bound_to 11000
  140.4357  134.7061  157.4965 LP  0  0  0  0  0  0  0  0  0  0  0  0  # atno 17395 bound_to 11000

$$$$
