AV-unprocessed.smi:2252|AV-procd|sdf|9107|dock2
  -GOLD-   2272012303D 1   1.00000     0.00000
 Structure written by MMmdl.
 45 47  0  0  0  0  0  0  0  0  2 V2000
  145.7369  135.1090  151.1101 C   0  0  0  0  0  0  0  0  0  0  0  0
  144.8589  136.0391  151.8237 N   0  0  0  0  0  0  0  0  0  0  0  0
  143.6336  135.7524  152.3692 C   0  0  0  0  0  0  0  0  0  0  0  0
  143.1755  136.9122  152.9380 C   0  0  0  0  0  0  0  0  0  0  0  0
  144.1389  137.8586  152.7156 N   0  3  0  0  0  0  0  0  0  0  0  0
  145.1625  137.3307  152.0341 C   0  0  0  0  0  0  0  0  0  0  0  0
  146.4023  138.0599  151.6219 C   0  0  0  0  0  0  0  0  0  0  0  0
  146.4208  139.5197  152.1037 C   0  0  0  0  0  0  0  0  0  0  0  0
  147.6728  139.8430  152.7755 N   0  0  0  0  0  0  0  0  0  0  0  0
  147.8669  139.7873  154.1026 C   0  0  0  0  0  0  0  0  0  0  0  0
  146.9841  139.4627  154.8980 O   0  0  0  0  0  0  0  0  0  0  0  0
  149.2685  140.1683  154.6123 C   0  0  2  0  0  0  0  0  0  0  0  0
  150.0381  138.8910  155.0147 C   0  0  0  0  0  0  0  0  0  0  0  0
  151.5490  138.8915  155.1166 C   0  0  0  0  0  0  0  0  0  0  0  0
  150.8773  138.1405  153.9992 C   0  0  0  0  0  0  0  0  0  0  0  0
  149.2294  141.1358  155.7367 N   0  0  0  0  0  0  0  0  0  0  0  0
  150.5345  141.5704  156.2326 C   0  0  0  0  0  0  0  0  0  0  0  0
  150.2177  142.2406  157.5706 C   0  0  0  0  0  0  0  0  0  0  0  0
  148.8920  141.6268  158.0103 C   0  0  0  0  0  0  0  0  0  0  0  0
  148.5573  140.6090  156.9207 C   0  0  0  0  0  0  0  0  0  0  0  0
  145.2974  134.1111  151.1210 H   0  0  0  0  0  0  0  0  0  0  0  0
  146.7107  135.0782  151.5999 H   0  0  0  0  0  0  0  0  0  0  0  0
  145.8528  135.4409  150.0778 H   0  0  0  0  0  0  0  0  0  0  0  0
  143.1896  134.7688  152.3156 H   0  0  0  0  0  0  0  0  0  0  0  0
  142.2612  137.1290  153.4712 H   0  0  0  0  0  0  0  0  0  0  0  0
  147.2531  137.4990  152.0098 H   0  0  0  0  0  0  0  0  0  0  0  0
  146.4554  138.0110  150.5336 H   0  0  0  0  0  0  0  0  0  0  0  0
  146.3039  140.1939  151.2550 H   0  0  0  0  0  0  0  0  0  0  0  0
  145.5826  139.7174  152.7738 H   0  0  0  0  0  0  0  0  0  0  0  0
  148.4472  140.1291  152.1937 H   0  0  0  0  0  0  0  0  0  0  0  0
  149.7946  140.6369  153.7779 H   0  0  0  0  0  0  0  0  0  0  0  0
  149.5061  138.2618  155.7268 H   0  0  0  0  0  0  0  0  0  0  0  0
  152.0754  139.8085  154.8601 H   0  0  0  0  0  0  0  0  0  0  0  0
  151.9959  138.3077  155.9188 H   0  0  0  0  0  0  0  0  0  0  0  0
  150.8746  137.0538  154.0528 H   0  0  0  0  0  0  0  0  0  0  0  0
  150.9620  138.5570  152.9974 H   0  0  0  0  0  0  0  0  0  0  0  0
  151.1813  140.7055  156.3922 H   0  0  0  0  0  0  0  0  0  0  0  0
  151.0385  142.2529  155.5473 H   0  0  0  0  0  0  0  0  0  0  0  0
  151.0119  142.0711  158.2984 H   0  0  0  0  0  0  0  0  0  0  0  0
  150.1076  143.3185  157.4442 H   0  0  0  0  0  0  0  0  0  0  0  0
  148.9566  141.1593  158.9934 H   0  0  0  0  0  0  0  0  0  0  0  0
  148.1217  142.3978  158.0584 H   0  0  0  0  0  0  0  0  0  0  0  0
  147.4817  140.5026  156.7767 H   0  0  0  0  0  0  0  0  0  0  0  0
  148.9649  139.6314  157.1856 H   0  0  0  0  0  0  0  0  0  0  0  0
  144.0872  138.8225  153.0207 H   0  0  0  0  0  0  0  0  0  0  0  0
  1  2  1  0  0  0  0
  1 21  1  0  0  0  0
  1 22  1  0  0  0  0
  1 23  1  0  0  0  0
  2  6  1  0  0  0  0
  2  3  1  0  0  0  0
  3  4  2  0  0  0  0
  3 24  1  0  0  0  0
  4  5  1  0  0  0  0
  4 25  1  0  0  0  0
  5  6  2  0  0  0  0
  5 45  1  0  0  0  0
  6  7  1  0  0  0  0
  7  8  1  0  0  0  0
  7 26  1  0  0  0  0
  7 27  1  0  0  0  0
  8  9  1  0  0  0  0
  8 28  1  0  0  0  0
  8 29  1  0  0  0  0
  9 10  1  0  0  0  0
  9 30  1  0  0  0  0
 10 11  2  0  0  0  0
 10 12  1  0  0  0  0
 12 13  1  0  0  0  0
 12 16  1  0  0  0  0
 12 31  1  0  0  0  0
 13 15  1  0  0  0  0
 13 14  1  0  0  0  0
 13 32  1  0  0  0  0
 14 15  1  0  0  0  0
 14 33  1  0  0  0  0
 14 34  1  0  0  0  0
 15 35  1  0  0  0  0
 15 36  1  0  0  0  0
 16 20  1  0  0  0  0
 16 17  1  0  0  0  0
 17 18  1  0  0  0  0
 17 37  1  0  0  0  0
 17 38  1  0  0  0  0
 18 19  1  0  0  0  0
 18 39  1  0  0  0  0
 18 40  1  0  0  0  0
 19 20  1  0  0  0  0
 19 41  1  0  0  0  0
 19 42  1  0  0  0  0
 20 43  1  0  0  0  0
 20 44  1  0  0  0  0
M  CHG  1   5   1
M  END
> <s_m_source_file>
AV-unprocessed.smi

> <i_m_source_file_index>
2252

> <i_lp_mmshare_version>
43012

> <i_f3d_flags>
0

> <s_epik_input>
W0NIM11uMVtjSF1bY0hdbmMxW0NIMl1bQ0gyXVtOSF1DKD1PKVtDQEhdKFtDSF0yW0NIMl1bQ0gyXTIpTjNbQ0gyXVtDSDJdW0NIMl1bQ0gyXTM=

> <s_epik_cmdline>
J2VwaWtfcHl0aG9uJywgJy1waCcsICc3LjAnLCAnLXRuJywgJzgnLCAnLW1hJywgJzIwMCcsICctbWV0YWxfYmluZGluZycsICctaW1hZScsICc8aW5maWxlLm1hZT4nLCAnLW9tYWUnLCAnPG91dGZpbGUubWFlPic=

> <r_epik_Ionization_Penalty>
2.52117

> <r_epik_Ionization_Penalty_Charging>
0

> <r_epik_Ionization_Penalty_Neutral>
2.52117

> <r_epik_State_Penalty>
2.63608

> <r_epik_Charging_Adjusted_Penalty>
2.63608

> <i_epik_Tot_Q>
1

> <i_epik_Tot_abs_Q>
1

> <r_epik_Metal_State_Penalty>
2.94973

> <b_epik_Metal_Only>
0

> <s_lp_Force_Field>
OPLS_2005

> <r_lp_Energy>
33.8127

> <b_lp_Chiralities_Consistent>
1

> <s_lp_Variant>
AV-unprocessed.smi:2252-5

> <Gold.Version>
5.8.1

> <Gold.Id.Protein>
6NUR|6NUR_protein|mol2

> <Gold.PLP.Fitness>
41.8231

> <Gold.PLP.PLP>
-35.0953

> <Gold.PLP.part.hbond>
-2.6136

> <Gold.PLP.part.metal>
0.0000

> <Gold.PLP.part.buried>
0.4085

> <Gold.PLP.part.nonpolar>
-34.8313

> <Gold.PLP.part.repulsive>
0.2883

> <Gold.PLP.ligand.clash>
0.0000

> <Gold.PLP.ligand.torsion>
1.4145

> <Gold.PLP.Chemscore.Hbond>
2.7638

> <Gold.PLP.Chemscore.CHOScore>
0.0000

> <Gold.PLP.Chemscore.Metal>
0.0000

> <Gold.Chemscore.Hbonds>
donor molecule, donor type, donor heavy atom, donor atom, acceptor molecule, acceptor atom, score
      L1  H     5    45       P1 10175  1.70
      L1  H     9    30       P1  7957  1.00

> <Gold.PLP.Chemscore.Internal.Correction>
1.2656

> <Gold.Rescore>
     Score         DG    S(hbond)    S(metal)    S(lipo)     H(rot)  DE(clash)    DE(int)     intcor
     11.21     -15.64       1.89        0.00      75.80       1.96       1.36       3.07       ----

> <Gold.Chemscore.Fitness>
11.2114

> <Gold.Chemscore.DG>
-15.6365

> <Gold.Chemscore.ZeroCoef>
-5.4800

> <Gold.Chemscore.Hbond>
1.8875

> <Gold.Chemscore.Metal>
0.0000

> <Gold.Chemscore.Lipo>
75.8011

> <Gold.Chemscore.Internal_Hbond>
0.0000

> <Gold.Chemscore.DEClash>
1.3592

> <Gold.Chemscore.DEInternal>
3.0659

> <Gold.Chemscore.Rot>
1.9595

> <Gold.Chemscore.Internal.Correction>
   9.000000E+99

> <Gold.Chemscore.Hbonds>
donor molecule, donor type, donor heavy atom, donor atom, acceptor molecule, acceptor atom, score
      L1  H     5    45       P1 10175  0.83
      L1  H     9    30       P1  7957  0.94

> <Gold.Chemscore.Hbond.Weighted>
-6.3042

> <Gold.Chemscore.Metal.Weighted>
-0.0000

> <Gold.Chemscore.Lipo.Weighted>
-8.8687

> <Gold.Chemscore.Internal_Hbond.Weighted>
0.0000

> <Gold.Chemscore.DEClash.Weighted>
1.3592

> <Gold.Chemscore.DEInternal.Weighted>
3.0659

> <Gold.Chemscore.Rot.Weighted>
5.0164

> <Gold.Chemscore.Internal.Correction.Weighted>
   9.000000E+99

> <Gold.Protein.RotatedTorsions>
[ 6907 6896 6895 6894 ] final  169.47 input  -60.11 | X-H torsion
[ 7974 7965 7964 7962 ] final -171.98 input  175.53 | X-H torsion
[ 8008 7997 7996 7995 ] final   -6.69 input   59.86 | X-H torsion
[ 10167 10162 10161 10158 ] final  -26.25 input  -65.29 | X-H torsion
[ 10718 10713 10712 10709 ] final   -0.12 input   66.30 | X-H torsion
[ 10763 10752 10751 10750 ] final  -23.37 input  -60.55 | X-H torsion
[ 11005 11000 10999 10996 ] final  -64.32 input  -57.11 | X-H torsion

> <Gold.Protein.ActiveResidues>
 VAL166  LYS551  ARG553  GLY616  TRP617  ASP618  TYR619  PRO620  LYS621  CYS622 
 ASP623  PHE694  ASN695  SER759  ASP760  ASP761  ALA762  ILE779  LEU786  VAL792 
 PHE793  MET794  SER795  GLU796  ALA797  LYS798  CYS799  TRP800  GLU811  SER814 

> <Gold.Protein.RotatedAtoms>
  151.8314  133.3409  159.3614 H   0  0  0  0  0  0  0  0  0  0  0  0  # atno 6907 bound_to 6896
  150.7263  134.5479  159.5789 H   0  0  0  0  0  0  0  0  0  0  0  0  # atno 6908 bound_to 6896
  152.2933  134.7697  160.0424 H   0  0  0  0  0  0  0  0  0  0  0  0  # atno 6909 bound_to 6896
  144.7151  140.1841  143.6355 H   0  0  0  0  0  0  0  0  0  0  0  0  # atno 7974 bound_to 7965
  154.5912  140.2426  155.7918 H   0  0  0  0  0  0  0  0  0  0  0  0  # atno 8008 bound_to 7997
  156.2248  140.2986  155.9995 H   0  0  0  0  0  0  0  0  0  0  0  0  # atno 8009 bound_to 7997
  155.2370  140.0405  157.2960 H   0  0  0  0  0  0  0  0  0  0  0  0  # atno 8010 bound_to 7997
  140.7283  143.4194  151.0975 H   0  0  0  0  0  0  0  0  0  0  0  0  # atno 10167 bound_to 10162
  156.8251  130.5469  149.5693 H   0  0  0  0  0  0  0  0  0  0  0  0  # atno 10718 bound_to 10713
  153.6667  135.6974  153.5160 H   0  0  0  0  0  0  0  0  0  0  0  0  # atno 10763 bound_to 10752
  153.2589  135.4251  155.0873 H   0  0  0  0  0  0  0  0  0  0  0  0  # atno 10764 bound_to 10752
  154.8437  135.3550  154.6212 H   0  0  0  0  0  0  0  0  0  0  0  0  # atno 10765 bound_to 10752
  141.1421  133.6664  156.5815 H   0  0  0  0  0  0  0  0  0  0  0  0  # atno 11005 bound_to 11000
  145.8829  139.2333  143.1594 LP  0  0  0  0  0  0  0  0  0  0  0  0  # atno 17320 bound_to 7965
  145.9977  140.8547  143.0034 LP  0  0  0  0  0  0  0  0  0  0  0  0  # atno 17321 bound_to 7965
  139.7838  143.8316  152.3142 LP  0  0  0  0  0  0  0  0  0  0  0  0  # atno 17342 bound_to 10162
  139.8277  144.7268  150.9491 LP  0  0  0  0  0  0  0  0  0  0  0  0  # atno 17343 bound_to 10162
  156.0966  130.5937  150.9824 LP  0  0  0  0  0  0  0  0  0  0  0  0  # atno 17370 bound_to 10713
  157.6436  131.0907  150.8199 LP  0  0  0  0  0  0  0  0  0  0  0  0  # atno 17371 bound_to 10713
  140.3834  134.7503  157.4676 LP  0  0  0  0  0  0  0  0  0  0  0  0  # atno 17394 bound_to 11000
  140.0620  134.5982  155.8738 LP  0  0  0  0  0  0  0  0  0  0  0  0  # atno 17395 bound_to 11000

$$$$
