AV-unprocessed.smi:1073|AV-procd|sdf|4690|dock3
  -GOLD-   22720 3213D 1   1.00000     0.00000
 Structure written by MMmdl.
 44 44  0  0  0  0  0  0  0  0  1 V2000
  149.6869  134.7227  154.8841 C   0  0  0  0  0  0  0  0  0  0  0  0
  149.7054  135.8832  155.7610 N   0  0  0  0  0  0  0  0  0  0  0  0
  150.7456  136.7198  155.8847 C   0  0  0  0  0  0  0  0  0  0  0  0
  151.8012  136.5767  155.2655 O   0  0  0  0  0  0  0  0  0  0  0  0
  150.5675  137.8850  156.8734 C   0  0  1  0  0  0  0  0  0  0  0  0
  150.4714  139.1941  156.0536 C   0  0  0  0  0  0  0  0  0  0  0  0
  150.4158  140.4956  156.8871 C   0  0  0  0  0  0  0  0  0  0  0  0
  150.1908  141.7098  155.9733 C   0  0  0  0  0  0  0  0  0  0  0  0
  151.6726  140.6996  157.7492 C   0  0  0  0  0  0  0  0  0  0  0  0
  149.3313  137.7147  157.6373 N   0  0  0  0  0  0  0  0  0  0  0  0
  149.1359  136.8031  158.6026 C   0  0  0  0  0  0  0  0  0  0  0  0
  149.9937  135.9859  158.9400 O   0  0  0  0  0  0  0  0  0  0  0  0
  147.7534  136.8206  159.2701 C   0  0  0  0  0  0  0  0  0  0  0  0
  147.5554  135.7276  160.2371 N   0  0  0  0  0  0  0  0  0  0  0  0
  147.5731  134.4129  159.7311 C   0  0  0  0  0  0  0  0  0  0  0  0
  147.3961  133.3264  160.5073 C   0  0  0  0  0  0  0  0  0  0  0  0
  147.4786  131.9158  159.9449 C   0  0  0  0  0  0  0  0  0  0  0  0
  147.3739  131.0071  160.9148 F   0  0  0  0  0  0  0  0  0  0  0  0
  146.4846  131.7148  159.0806 F   0  0  0  0  0  0  0  0  0  0  0  0
  148.6318  131.7154  159.3059 F   0  0  0  0  0  0  0  0  0  0  0  0
  147.2159  133.5691  161.9251 C   0  0  0  0  0  0  0  0  0  0  0  0
  147.2083  134.8193  162.4273 C   0  0  0  0  0  0  0  0  0  0  0  0
  147.3809  135.9921  161.5668 C   0  0  0  0  0  0  0  0  0  0  0  0
  147.3713  137.1396  162.0131 O   0  0  0  0  0  0  0  0  0  0  0  0
  148.7172  134.2286  154.9420 H   0  0  0  0  0  0  0  0  0  0  0  0
  150.4537  134.0041  155.1758 H   0  0  0  0  0  0  0  0  0  0  0  0
  149.8589  135.0153  153.8475 H   0  0  0  0  0  0  0  0  0  0  0  0
  148.8737  136.0673  156.3032 H   0  0  0  0  0  0  0  0  0  0  0  0
  151.4243  137.9222  157.5481 H   0  0  0  0  0  0  0  0  0  0  0  0
  151.3208  139.2561  155.3708 H   0  0  0  0  0  0  0  0  0  0  0  0
  149.5848  139.1520  155.4178 H   0  0  0  0  0  0  0  0  0  0  0  0
  149.5582  140.4437  157.5586 H   0  0  0  0  0  0  0  0  0  0  0  0
  151.0142  141.8346  155.2693 H   0  0  0  0  0  0  0  0  0  0  0  0
  150.1069  142.6296  156.5531 H   0  0  0  0  0  0  0  0  0  0  0  0
  149.2724  141.6032  155.3953 H   0  0  0  0  0  0  0  0  0  0  0  0
  152.5758  140.7106  157.1383 H   0  0  0  0  0  0  0  0  0  0  0  0
  151.7809  139.9128  158.4953 H   0  0  0  0  0  0  0  0  0  0  0  0
  151.6261  141.6456  158.2895 H   0  0  0  0  0  0  0  0  0  0  0  0
  148.5698  138.3380  157.4118 H   0  0  0  0  0  0  0  0  0  0  0  0
  147.6036  137.7846  159.7599 H   0  0  0  0  0  0  0  0  0  0  0  0
  146.9968  136.7800  158.4854 H   0  0  0  0  0  0  0  0  0  0  0  0
  147.7499  134.3436  158.6676 H   0  0  0  0  0  0  0  0  0  0  0  0
  147.0825  132.7337  162.5965 H   0  0  0  0  0  0  0  0  0  0  0  0
  147.0714  134.9620  163.4892 H   0  0  0  0  0  0  0  0  0  0  0  0
  1  2  1  0  0  0  0
  1 25  1  0  0  0  0
  1 26  1  0  0  0  0
  1 27  1  0  0  0  0
  2  3  1  0  0  0  0
  2 28  1  0  0  0  0
  3  4  2  0  0  0  0
  3  5  1  0  0  0  0
  5  6  1  0  0  0  0
  5 10  1  0  0  0  0
  5 29  1  0  0  0  0
  6  7  1  0  0  0  0
  6 30  1  0  0  0  0
  6 31  1  0  0  0  0
  7  8  1  0  0  0  0
  7  9  1  0  0  0  0
  7 32  1  0  0  0  0
  8 33  1  0  0  0  0
  8 34  1  0  0  0  0
  8 35  1  0  0  0  0
  9 36  1  0  0  0  0
  9 37  1  0  0  0  0
  9 38  1  0  0  0  0
 10 11  1  0  0  0  0
 10 39  1  0  0  0  0
 11 12  2  0  0  0  0
 11 13  1  0  0  0  0
 13 14  1  0  0  0  0
 13 40  1  0  0  0  0
 13 41  1  0  0  0  0
 14 23  1  0  0  0  0
 14 15  1  0  0  0  0
 15 16  2  0  0  0  0
 15 42  1  0  0  0  0
 16 17  1  0  0  0  0
 16 21  1  0  0  0  0
 17 18  1  0  0  0  0
 17 19  1  0  0  0  0
 17 20  1  0  0  0  0
 21 22  2  0  0  0  0
 21 43  1  0  0  0  0
 22 23  1  0  0  0  0
 22 44  1  0  0  0  0
 23 24  2  0  0  0  0
M  END
> <s_m_source_file>
AV-unprocessed.smi

> <i_m_source_file_index>
1073

> <i_lp_mmshare_version>
43012

> <i_f3d_flags>
0

> <s_epik_input>
W0NIM11bTkhdQyg9TylbQ0BIXShbQ0gyXVtDSF0oW0NIM10pW0NIM10pW05IXUMoPU8pW0NIMl1uMVtjSF1jKEMoRikoRilGKVtjSF1bY0hdYzE9Tw==

> <s_epik_cmdline>
J2VwaWtfcHl0aG9uJywgJy1waCcsICc3LjAnLCAnLXRuJywgJzgnLCAnLW1hJywgJzIwMCcsICctbWV0YWxfYmluZGluZycsICctaW1hZScsICc8aW5maWxlLm1hZT4nLCAnLW9tYWUnLCAnPG91dGZpbGUubWFlPic=

> <r_lp_tautomer_probability>
1

> <r_epik_Ionization_Penalty>
7.02352e-08

> <r_epik_Ionization_Penalty_Charging>
1.57869e-08

> <r_epik_Ionization_Penalty_Neutral>
5.44484e-08

> <r_epik_State_Penalty>
-0

> <r_epik_Charging_Adjusted_Penalty>
1.57869e-08

> <i_epik_Tot_Q>
0

> <i_epik_Tot_abs_Q>
0

> <r_epik_Metal_State_Penalty>
-0

> <b_epik_Metal_Only>
0

> <s_lp_Force_Field>
OPLS_2005

> <r_lp_Energy>
17.6469

> <b_lp_Chiralities_Consistent>
1

> <s_lp_Variant>
AV-unprocessed.smi:1073-2

> <Gold.Version>
5.8.1

> <Gold.Id.Protein>
6NUR|6NUR_protein|mol2

> <Gold.PLP.Fitness>
47.1358

> <Gold.PLP.PLP>
-37.4359

> <Gold.PLP.part.hbond>
-3.9388

> <Gold.PLP.part.metal>
0.0000

> <Gold.PLP.part.buried>
-4.5425

> <Gold.PLP.part.nonpolar>
-29.6535

> <Gold.PLP.part.repulsive>
0.1855

> <Gold.PLP.ligand.clash>
0.0000

> <Gold.PLP.ligand.torsion>
0.3967

> <Gold.PLP.Chemscore.Hbond>
3.3760

> <Gold.PLP.Chemscore.CHOScore>
0.0000

> <Gold.PLP.Chemscore.Metal>
0.0000

> <Gold.Chemscore.Hbonds>
donor molecule, donor type, donor heavy atom, donor atom, acceptor molecule, acceptor atom, score
      P1  H  6896  6908       L1    12  0.93
      P1  H  6931  6943       L1    24  0.91
      P1  H  6934  6947       L1    24  0.48
      P1  H 10752 10764       L1     4  0.91

> <Gold.PLP.Chemscore.Internal.Correction>
0.3653

> <Gold.Rescore>
     Score         DG    S(hbond)    S(metal)    S(lipo)     H(rot)  DE(clash)    DE(int)     intcor
     17.14     -18.08       3.49        0.00      62.97       2.51       0.00       0.94       ----

> <Gold.Chemscore.Fitness>
17.1365

> <Gold.Chemscore.DG>
-18.0793

> <Gold.Chemscore.ZeroCoef>
-5.4800

> <Gold.Chemscore.Hbond>
3.4941

> <Gold.Chemscore.Metal>
0.0000

> <Gold.Chemscore.Lipo>
62.9654

> <Gold.Chemscore.Internal_Hbond>
0.0000

> <Gold.Chemscore.DEClash>
0.0000

> <Gold.Chemscore.DEInternal>
0.9428

> <Gold.Chemscore.Rot>
2.5149

> <Gold.Chemscore.Internal.Correction>
   9.000000E+99

> <Gold.Chemscore.Hbonds>
donor molecule, donor type, donor heavy atom, donor atom, acceptor molecule, acceptor atom, score
      P1  H  6896  6908       L1    12  0.91
      P1  H  6931  6943       L1    24  0.85
      P1  H  6934  6947       L1    24  0.46
      P1  H 10752 10764       L1     4  0.90

> <Gold.Chemscore.Hbond.Weighted>
-11.6704

> <Gold.Chemscore.Metal.Weighted>
-0.0000

> <Gold.Chemscore.Lipo.Weighted>
-7.3669

> <Gold.Chemscore.Internal_Hbond.Weighted>
0.0000

> <Gold.Chemscore.DEClash.Weighted>
0.0000

> <Gold.Chemscore.DEInternal.Weighted>
0.9428

> <Gold.Chemscore.Rot.Weighted>
6.4381

> <Gold.Chemscore.Internal.Correction.Weighted>
   9.000000E+99

> <Gold.Protein.RotatedTorsions>
[ 6907 6896 6895 6894 ] final -149.98 input  -60.11 | X-H torsion
[ 7974 7965 7964 7962 ] final -138.40 input  175.53 | X-H torsion
[ 8008 7997 7996 7995 ] final -103.56 input   59.86 | X-H torsion
[ 10167 10162 10161 10158 ] final   18.13 input  -65.29 | X-H torsion
[ 10718 10713 10712 10709 ] final   99.37 input   66.30 | X-H torsion
[ 10763 10752 10751 10750 ] final  -31.87 input  -60.55 | X-H torsion
[ 11005 11000 10999 10996 ] final -166.70 input  -57.11 | X-H torsion

> <Gold.Protein.ActiveResidues>
 VAL166  LYS551  ARG553  GLY616  TRP617  ASP618  TYR619  PRO620  LYS621  CYS622 
 ASP623  PHE694  ASN695  SER759  ASP760  ASP761  ALA762  ILE779  LEU786  VAL792 
 PHE793  MET794  SER795  GLU796  ALA797  LYS798  CYS799  TRP800  GLU811  SER814 

> <Gold.Protein.RotatedAtoms>
  151.1919  133.4662  159.2594 H   0  0  0  0  0  0  0  0  0  0  0  0  # atno 6907 bound_to 6896
  151.1155  135.0050  159.8524 H   0  0  0  0  0  0  0  0  0  0  0  0  # atno 6908 bound_to 6896
  152.5453  134.1834  159.8698 H   0  0  0  0  0  0  0  0  0  0  0  0  # atno 6909 bound_to 6896
  144.8762  140.6440  143.5235 H   0  0  0  0  0  0  0  0  0  0  0  0  # atno 7974 bound_to 7965
  154.8727  140.0422  157.1734 H   0  0  0  0  0  0  0  0  0  0  0  0  # atno 8008 bound_to 7997
  154.8722  140.2960  155.5454 H   0  0  0  0  0  0  0  0  0  0  0  0  # atno 8009 bound_to 7997
  156.2999  140.2427  156.3712 H   0  0  0  0  0  0  0  0  0  0  0  0  # atno 8010 bound_to 7997
  140.5676  143.9222  150.6688 H   0  0  0  0  0  0  0  0  0  0  0  0  # atno 10167 bound_to 10162
  157.6877  131.0667  150.4938 H   0  0  0  0  0  0  0  0  0  0  0  0  # atno 10718 bound_to 10713
  153.8045  135.6887  153.4850 H   0  0  0  0  0  0  0  0  0  0  0  0  # atno 10763 bound_to 10752
  153.1667  135.4558  154.9846 H   0  0  0  0  0  0  0  0  0  0  0  0  # atno 10764 bound_to 10752
  154.7993  135.3331  154.7530 H   0  0  0  0  0  0  0  0  0  0  0  0  # atno 10765 bound_to 10752
  140.5616  134.5328  157.5144 H   0  0  0  0  0  0  0  0  0  0  0  0  # atno 11005 bound_to 11000
  145.4039  139.1592  143.4162 LP  0  0  0  0  0  0  0  0  0  0  0  0  # atno 17320 bound_to 7965
  146.2964  140.4138  142.8720 LP  0  0  0  0  0  0  0  0  0  0  0  0  # atno 17321 bound_to 7965
  140.2689  143.3470  152.1256 LP  0  0  0  0  0  0  0  0  0  0  0  0  # atno 17342 bound_to 10162
  139.5101  144.6878  151.5841 LP  0  0  0  0  0  0  0  0  0  0  0  0  # atno 17343 bound_to 10162
  156.5263  130.4174  149.6224 LP  0  0  0  0  0  0  0  0  0  0  0  0  # atno 17370 bound_to 10713
  156.3109  130.7228  151.2121 LP  0  0  0  0  0  0  0  0  0  0  0  0  # atno 17371 bound_to 10713
  139.9405  134.7795  156.0690 LP  0  0  0  0  0  0  0  0  0  0  0  0  # atno 17394 bound_to 11000
  141.1111  133.6643  156.2981 LP  0  0  0  0  0  0  0  0  0  0  0  0  # atno 17395 bound_to 11000

$$$$
