AV-unprocessed.smi:2789|AV-procd|sdf|10763|dock8
  -GOLD-   2272015193D 1   1.00000     0.00000
 Structure written by MMmdl.
 35 36  0  0  0  0  0  0  0  0  1 V2000
  151.7432  145.0279  159.2939 C   0  0  0  0  0  0  0  0  0  0  0  0
  151.8251  143.6598  158.9252 O   0  0  0  0  0  0  0  0  0  0  0  0
  152.8515  142.9493  159.6079 C   0  0  1  0  0  0  0  0  0  0  0  0
  152.5633  142.8825  161.1063 C   0  0  0  0  0  0  0  0  0  0  0  0
  153.4599  141.7476  161.5956 C   0  0  0  0  0  0  0  0  0  0  0  0
  153.4747  140.7261  160.4517 C   0  0  0  0  0  0  0  0  0  0  0  0
  153.0132  141.4753  159.1822 C   0  0  1  0  0  0  0  0  0  0  0  0
  151.7525  140.9321  158.6787 N   0  0  0  0  0  0  0  0  0  0  0  0
  151.5897  140.3343  157.4905 C   0  0  0  0  0  0  0  0  0  0  0  0
  152.5087  140.1549  156.6913 O   0  0  0  0  0  0  0  0  0  0  0  0
  150.3088  139.9726  157.3029 N   0  0  0  0  0  0  0  0  0  0  0  0
  149.7509  139.3456  156.2332 C   0  0  0  0  0  0  0  0  0  0  0  0
  150.1965  139.2881  154.9409 C   0  0  0  0  0  0  0  0  0  0  0  0
  149.1998  138.4925  154.3067 C   0  0  0  0  0  0  0  0  0  0  0  0
  148.2403  138.1019  155.1364 N   0  0  0  0  0  0  0  0  0  0  0  0
  148.5784  138.6289  156.3336 N   0  0  0  0  0  0  0  0  0  0  0  0
  147.7374  138.3980  157.4920 C   0  0  0  0  0  0  0  0  0  0  0  0
  150.9439  145.5095  158.7310 H   0  0  0  0  0  0  0  0  0  0  0  0
  152.6705  145.5596  159.0783 H   0  0  0  0  0  0  0  0  0  0  0  0
  151.5179  145.1366  160.3554 H   0  0  0  0  0  0  0  0  0  0  0  0
  153.8051  143.4662  159.4803 H   0  0  0  0  0  0  0  0  0  0  0  0
  152.7617  143.8257  161.6160 H   0  0  0  0  0  0  0  0  0  0  0  0
  151.5170  142.6230  161.2743 H   0  0  0  0  0  0  0  0  0  0  0  0
  154.4693  142.1270  161.7595 H   0  0  0  0  0  0  0  0  0  0  0  0
  153.1132  141.3182  162.5358 H   0  0  0  0  0  0  0  0  0  0  0  0
  154.4723  140.3049  160.3229 H   0  0  0  0  0  0  0  0  0  0  0  0
  152.8090  139.8940  160.6869 H   0  0  0  0  0  0  0  0  0  0  0  0
  153.7685  141.4083  158.3970 H   0  0  0  0  0  0  0  0  0  0  0  0
  150.9444  141.0422  159.2739 H   0  0  0  0  0  0  0  0  0  0  0  0
  149.6688  140.2025  158.0488 H   0  0  0  0  0  0  0  0  0  0  0  0
  151.0795  139.7291  154.5036 H   0  0  0  0  0  0  0  0  0  0  0  0
  149.1455  138.1867  153.2725 H   0  0  0  0  0  0  0  0  0  0  0  0
  148.2920  137.8302  158.2392 H   0  0  0  0  0  0  0  0  0  0  0  0
  146.8436  137.8382  157.2133 H   0  0  0  0  0  0  0  0  0  0  0  0
  147.4351  139.3533  157.9218 H   0  0  0  0  0  0  0  0  0  0  0  0
  1  2  1  0  0  0  0
  1 18  1  0  0  0  0
  1 19  1  0  0  0  0
  1 20  1  0  0  0  0
  2  3  1  0  0  0  0
  3  7  1  0  0  0  0
  3  4  1  0  0  0  0
  3 21  1  0  0  0  0
  4  5  1  0  0  0  0
  4 22  1  0  0  0  0
  4 23  1  0  0  0  0
  5  6  1  0  0  0  0
  5 24  1  0  0  0  0
  5 25  1  0  0  0  0
  6  7  1  0  0  0  0
  6 26  1  0  0  0  0
  6 27  1  0  0  0  0
  7  8  1  0  0  0  0
  7 28  1  0  0  0  0
  8  9  1  0  0  0  0
  8 29  1  0  0  0  0
  9 10  2  0  0  0  0
  9 11  1  0  0  0  0
 11 12  1  0  0  0  0
 11 30  1  0  0  0  0
 12 16  1  0  0  0  0
 12 13  2  0  0  0  0
 13 14  1  0  0  0  0
 13 31  1  0  0  0  0
 14 15  2  0  0  0  0
 14 32  1  0  0  0  0
 15 16  1  0  0  0  0
 16 17  1  0  0  0  0
 17 33  1  0  0  0  0
 17 34  1  0  0  0  0
 17 35  1  0  0  0  0
M  END
> <s_m_source_file>
AV-unprocessed.smi

> <i_m_source_file_index>
2789

> <i_lp_mmshare_version>
43012

> <i_f3d_flags>
0

> <s_epik_input>
W0NIM11PW0NAQEhdMVtDSDJdW0NIMl1bQ0gyXVtDQEhdMVtOSF1DKD1PKVtOSF1jMltjSF1bY0hdbm4yW0NIM10=

> <s_epik_cmdline>
J2VwaWtfcHl0aG9uJywgJy1waCcsICc3LjAnLCAnLXRuJywgJzgnLCAnLW1hJywgJzIwMCcsICctbWV0YWxfYmluZGluZycsICctaW1hZScsICc8aW5maWxlLm1hZT4nLCAnLW9tYWUnLCAnPG91dGZpbGUubWFlPic=

> <r_lp_tautomer_probability>
1

> <r_epik_Ionization_Penalty>
4.40608e-05

> <r_epik_Ionization_Penalty_Charging>
0

> <r_epik_Ionization_Penalty_Neutral>
4.40608e-05

> <r_epik_State_Penalty>
-0

> <r_epik_Charging_Adjusted_Penalty>
0

> <i_epik_Tot_Q>
0

> <i_epik_Tot_abs_Q>
0

> <r_epik_Metal_State_Penalty>
-0

> <b_epik_Metal_Only>
0

> <s_lp_Force_Field>
OPLS_2005

> <r_lp_Energy>
22.0425

> <b_lp_Chiralities_Consistent>
1

> <s_lp_Variant>
AV-unprocessed.smi:2789-2

> <Gold.Version>
5.8.1

> <Gold.Id.Protein>
6NUR|6NUR_protein|mol2

> <Gold.PLP.Fitness>
38.4663

> <Gold.PLP.PLP>
-30.1133

> <Gold.PLP.part.hbond>
-1.0000

> <Gold.PLP.part.metal>
0.0000

> <Gold.PLP.part.buried>
-2.3998

> <Gold.PLP.part.nonpolar>
-26.4126

> <Gold.PLP.part.repulsive>
0.2557

> <Gold.PLP.ligand.clash>
0.0000

> <Gold.PLP.ligand.torsion>
0.1463

> <Gold.PLP.Chemscore.Hbond>
1.0000

> <Gold.PLP.Chemscore.CHOScore>
1.8796

> <Gold.PLP.Chemscore.Metal>
0.0000

> <Gold.Chemscore.Hbonds>
donor molecule, donor type, donor heavy atom, donor atom, acceptor molecule, acceptor atom, score
      P1  H  7997  8010       L1    10  1.00
      L1  C    14    32       P1  7948  1.00
      L1  C    14    32       P1  7957  0.21

> <Gold.PLP.Chemscore.Internal.Correction>
0.0067

> <Gold.Rescore>
     Score         DG    S(hbond)    S(metal)    S(lipo)     H(rot)  DE(clash)    DE(int)     intcor
     13.94     -15.04       0.99        0.00      81.25       1.27       0.00       1.11       ----

> <Gold.Chemscore.Fitness>
13.9354

> <Gold.Chemscore.DG>
-15.0438

> <Gold.Chemscore.ZeroCoef>
-5.4800

> <Gold.Chemscore.Hbond>
0.9914

> <Gold.Chemscore.Metal>
0.0000

> <Gold.Chemscore.Lipo>
81.2544

> <Gold.Chemscore.Internal_Hbond>
0.0000

> <Gold.Chemscore.DEClash>
0.0021

> <Gold.Chemscore.DEInternal>
1.1063

> <Gold.Chemscore.Rot>
1.2712

> <Gold.Chemscore.Internal.Correction>
   9.000000E+99

> <Gold.Chemscore.Hbonds>
donor molecule, donor type, donor heavy atom, donor atom, acceptor molecule, acceptor atom, score
      P1  H  7997  8010       L1    10  0.98

> <Gold.Chemscore.Hbond.Weighted>
-3.3114

> <Gold.Chemscore.Metal.Weighted>
-0.0000

> <Gold.Chemscore.Lipo.Weighted>
-9.5068

> <Gold.Chemscore.Internal_Hbond.Weighted>
0.0000

> <Gold.Chemscore.DEClash.Weighted>
0.0021

> <Gold.Chemscore.DEInternal.Weighted>
1.1063

> <Gold.Chemscore.Rot.Weighted>
3.2544

> <Gold.Chemscore.Internal.Correction.Weighted>
   9.000000E+99

> <Gold.Protein.RotatedTorsions>
[ 6907 6896 6895 6894 ] final -158.48 input  -60.11 | X-H torsion
[ 7974 7965 7964 7962 ] final  -70.49 input  175.53 | X-H torsion
[ 8008 7997 7996 7995 ] final   67.25 input   59.86 | X-H torsion
[ 10167 10162 10161 10158 ] final   14.73 input  -65.29 | X-H torsion
[ 10718 10713 10712 10709 ] final    8.83 input   66.30 | X-H torsion
[ 10763 10752 10751 10750 ] final  138.90 input  -60.55 | X-H torsion
[ 11005 11000 10999 10996 ] final -136.83 input  -57.11 | X-H torsion

> <Gold.Protein.ActiveResidues>
 VAL166  LYS551  ARG553  GLY616  TRP617  ASP618  TYR619  PRO620  LYS621  CYS622 
 ASP623  PHE694  ASN695  SER759  ASP760  ASP761  ALA762  ILE779  LEU786  VAL792 
 PHE793  MET794  SER795  GLU796  ALA797  LYS798  CYS799  TRP800  GLU811  SER814 

> <Gold.Protein.RotatedAtoms>
  151.3188  133.4049  159.2652 H   0  0  0  0  0  0  0  0  0  0  0  0  # atno 6907 bound_to 6896
  151.0052  134.9354  159.7986 H   0  0  0  0  0  0  0  0  0  0  0  0  # atno 6908 bound_to 6896
  152.5286  134.3153  159.9181 H   0  0  0  0  0  0  0  0  0  0  0  0  # atno 6909 bound_to 6896
  145.6903  140.9155  143.0785 H   0  0  0  0  0  0  0  0  0  0  0  0  # atno 7974 bound_to 7965
  155.6900  140.3496  155.4889 H   0  0  0  0  0  0  0  0  0  0  0  0  # atno 8008 bound_to 7997
  155.9533  140.1123  157.0981 H   0  0  0  0  0  0  0  0  0  0  0  0  # atno 8009 bound_to 7997
  154.4126  140.1190  156.5067 H   0  0  0  0  0  0  0  0  0  0  0  0  # atno 8010 bound_to 7997
  140.5915  143.8785  150.6878 H   0  0  0  0  0  0  0  0  0  0  0  0  # atno 10167 bound_to 10162
  156.9574  130.5920  149.5660 H   0  0  0  0  0  0  0  0  0  0  0  0  # atno 10718 bound_to 10713
  153.8972  135.3026  155.3448 H   0  0  0  0  0  0  0  0  0  0  0  0  # atno 10763 bound_to 10752
  154.7688  135.4896  153.9610 H   0  0  0  0  0  0  0  0  0  0  0  0  # atno 10764 bound_to 10752
  153.1265  135.6794  153.9348 H   0  0  0  0  0  0  0  0  0  0  0  0  # atno 10765 bound_to 10752
  140.8768  134.1982  157.4616 H   0  0  0  0  0  0  0  0  0  0  0  0  # atno 11005 bound_to 11000
  144.6998  139.8813  143.7447 LP  0  0  0  0  0  0  0  0  0  0  0  0  # atno 17320 bound_to 7965
  146.0887  139.3876  143.0419 LP  0  0  0  0  0  0  0  0  0  0  0  0  # atno 17321 bound_to 7965
  140.2309  143.3736  152.1566 LP  0  0  0  0  0  0  0  0  0  0  0  0  # atno 17342 bound_to 10162
  139.5231  144.7067  151.5333 LP  0  0  0  0  0  0  0  0  0  0  0  0  # atno 17343 bound_to 10162
  156.0337  130.5426  150.8599 LP  0  0  0  0  0  0  0  0  0  0  0  0  # atno 17370 bound_to 10713
  157.5681  131.0946  150.9459 LP  0  0  0  0  0  0  0  0  0  0  0  0  # atno 17371 bound_to 10713
  139.8716  134.9799  156.5056 LP  0  0  0  0  0  0  0  0  0  0  0  0  # atno 17394 bound_to 11000
  140.8508  133.8133  155.9167 LP  0  0  0  0  0  0  0  0  0  0  0  0  # atno 17395 bound_to 11000

$$$$
