AV-unprocessed.smi:3070|AV-procd|sdf|11712|dock5
  -GOLD-   2272017113D 1   1.00000     0.00000
 Structure written by MMmdl.
 21 22  0  0  0  0  0  0  0  0  2 V2000
  146.3042  131.6368  153.7156 C   0  0  0  0  0  0  0  0  0  0  0  0
  147.1874  132.6733  153.8211 N   0  0  0  0  0  0  0  0  0  0  0  0
  146.9965  133.2487  152.6423 C   0  0  0  0  0  0  0  0  0  0  0  0
  146.0874  132.6355  151.8819 N   0  0  0  0  0  0  0  0  0  0  0  0
  145.6082  132.9620  150.5471 C   0  0  1  0  0  0  0  0  0  0  0  0
  144.5888  131.9683  149.9908 C   0  0  0  0  0  0  0  0  0  0  0  0
  143.9113  132.7701  148.8783 C   0  0  0  0  0  0  0  0  0  0  0  0
  143.9597  134.1853  149.2995 N   0  3  0  0  0  0  0  0  0  0  0  0
  144.8636  134.3000  150.4614 C   0  0  0  0  0  0  0  0  0  0  0  0
  145.6190  131.5683  152.5740 N   0  0  0  0  0  0  0  0  0  0  0  0
  146.1614  130.9118  154.5034 H   0  0  0  0  0  0  0  0  0  0  0  0
  147.5292  134.1348  152.3291 H   0  0  0  0  0  0  0  0  0  0  0  0
  146.4665  132.9939  149.8734 H   0  0  0  0  0  0  0  0  0  0  0  0
  145.0472  131.0475  149.6287 H   0  0  0  0  0  0  0  0  0  0  0  0
  143.8503  131.7005  150.7478 H   0  0  0  0  0  0  0  0  0  0  0  0
  144.4732  132.6689  147.9490 H   0  0  0  0  0  0  0  0  0  0  0  0
  142.8887  132.4425  148.6900 H   0  0  0  0  0  0  0  0  0  0  0  0
  144.3037  134.7496  148.5356 H   0  0  0  0  0  0  0  0  0  0  0  0
  144.2478  134.4705  151.3453 H   0  0  0  0  0  0  0  0  0  0  0  0
  145.5416  135.1476  150.3586 H   0  0  0  0  0  0  0  0  0  0  0  0
  143.0371  134.4996  149.5647 H   0  0  0  0  0  0  0  0  0  0  0  0
  1 10  2  0  0  0  0
  1  2  1  0  0  0  0
  1 11  1  0  0  0  0
  2  3  2  0  0  0  0
  3  4  1  0  0  0  0
  3 12  1  0  0  0  0
  4  5  1  0  0  0  0
  4 10  1  0  0  0  0
  5  9  1  0  0  0  0
  5  6  1  0  0  0  0
  5 13  1  0  0  0  0
  6  7  1  0  0  0  0
  6 14  1  0  0  0  0
  6 15  1  0  0  0  0
  7  8  1  0  0  0  0
  7 16  1  0  0  0  0
  7 17  1  0  0  0  0
  8  9  1  0  0  0  0
  8 18  1  0  0  0  0
  8 21  1  0  0  0  0
  9 19  1  0  0  0  0
  9 20  1  0  0  0  0
M  CHG  1   8   1
M  END
> <s_m_source_file>
AV-unprocessed.smi

> <i_m_source_file_index>
3070

> <i_lp_mmshare_version>
43012

> <i_f3d_flags>
0

> <s_epik_input>
bjFbY0hdbltjSF1uMVtDQEBIXTJbQ0gyXVtDSDJdW05IXVtDSDJdMg==

> <s_epik_cmdline>
J2VwaWtfcHl0aG9uJywgJy1waCcsICc3LjAnLCAnLXRuJywgJzgnLCAnLW1hJywgJzIwMCcsICctbWV0YWxfYmluZGluZycsICctaW1hZScsICc8aW5maWxlLm1hZT4nLCAnLW9tYWUnLCAnPG91dGZpbGUubWFlPic=

> <r_lp_tautomer_probability>
1

> <r_epik_Ionization_Penalty>
0.000421274

> <r_epik_Ionization_Penalty_Charging>
0.000420295

> <r_epik_Ionization_Penalty_Neutral>
9.79543e-07

> <r_epik_State_Penalty>
0.000258452

> <r_epik_Charging_Adjusted_Penalty>
0.000678746

> <i_epik_Tot_Q>
1

> <i_epik_Tot_abs_Q>
1

> <r_epik_Metal_State_Penalty>
-0

> <b_epik_Metal_Only>
0

> <s_lp_Force_Field>
OPLS_2005

> <r_lp_Energy>
29.098

> <b_lp_Chiralities_Consistent>
1

> <s_lp_Variant>
AV-unprocessed.smi:3070-2

> <Gold.Version>
5.8.1

> <Gold.Id.Protein>
6NUR|6NUR_protein|mol2

> <Gold.PLP.Fitness>
30.3070

> <Gold.PLP.PLP>
-19.4346

> <Gold.PLP.part.hbond>
-2.0000

> <Gold.PLP.part.metal>
0.0000

> <Gold.PLP.part.buried>
-2.8854

> <Gold.PLP.part.nonpolar>
-15.1332

> <Gold.PLP.part.repulsive>
0.3632

> <Gold.PLP.ligand.clash>
0.0000

> <Gold.PLP.ligand.torsion>
0.0264

> <Gold.PLP.Chemscore.Hbond>
2.6400

> <Gold.PLP.Chemscore.CHOScore>
1.0000

> <Gold.PLP.Chemscore.Metal>
0.0000

> <Gold.Chemscore.Hbonds>
donor molecule, donor type, donor heavy atom, donor atom, acceptor molecule, acceptor atom, score
      L1  H     8    18       P1  7921  0.64
      L1  H     8    21       P1 10186  2.00
      L1  C     3    12       P1  7948  1.00

> <Gold.PLP.Chemscore.Internal.Correction>
0.0050

> <Gold.Rescore>
     Score         DG    S(hbond)    S(metal)    S(lipo)     H(rot)  DE(clash)    DE(int)     intcor
     12.38     -12.46       1.43        0.00      40.61       1.00       0.03       0.05       ----

> <Gold.Chemscore.Fitness>
12.3822

> <Gold.Chemscore.DG>
-12.4604

> <Gold.Chemscore.ZeroCoef>
-5.4800

> <Gold.Chemscore.Hbond>
1.4340

> <Gold.Chemscore.Metal>
0.0000

> <Gold.Chemscore.Lipo>
40.6071

> <Gold.Chemscore.Internal_Hbond>
0.0000

> <Gold.Chemscore.DEClash>
0.0327

> <Gold.Chemscore.DEInternal>
0.0455

> <Gold.Chemscore.Rot>
1.0000

> <Gold.Chemscore.Internal.Correction>
   9.000000E+99

> <Gold.Chemscore.Hbonds>
donor molecule, donor type, donor heavy atom, donor atom, acceptor molecule, acceptor atom, score
      L1  H     8    18       P1  7921  0.60
      L1  H     8    21       P1 10186  0.90

> <Gold.Chemscore.Hbond.Weighted>
-4.7894

> <Gold.Chemscore.Metal.Weighted>
-0.0000

> <Gold.Chemscore.Lipo.Weighted>
-4.7510

> <Gold.Chemscore.Internal_Hbond.Weighted>
0.0000

> <Gold.Chemscore.DEClash.Weighted>
0.0327

> <Gold.Chemscore.DEInternal.Weighted>
0.0455

> <Gold.Chemscore.Rot.Weighted>
2.5600

> <Gold.Chemscore.Internal.Correction.Weighted>
   9.000000E+99

> <Gold.Protein.RotatedTorsions>
[ 6907 6896 6895 6894 ] final  -57.12 input  -60.11 | X-H torsion
[ 7974 7965 7964 7962 ] final   29.58 input  175.53 | X-H torsion
[ 8008 7997 7996 7995 ] final  102.96 input   59.86 | X-H torsion
[ 10167 10162 10161 10158 ] final -124.93 input  -65.29 | X-H torsion
[ 10718 10713 10712 10709 ] final  101.63 input   66.30 | X-H torsion
[ 10763 10752 10751 10750 ] final  133.02 input  -60.55 | X-H torsion
[ 11005 11000 10999 10996 ] final   35.36 input  -57.11 | X-H torsion

> <Gold.Protein.ActiveResidues>
 VAL166  LYS551  ARG553  GLY616  TRP617  ASP618  TYR619  PRO620  LYS621  CYS622 
 ASP623  PHE694  ASN695  SER759  ASP760  ASP761  ALA762  ILE779  LEU786  VAL792 
 PHE793  MET794  SER795  GLU796  ALA797  LYS798  CYS799  TRP800  GLU811  SER814 

> <Gold.Protein.RotatedAtoms>
  150.8112  134.7267  159.6689 H   0  0  0  0  0  0  0  0  0  0  0  0  # atno 6907 bound_to 6896
  152.4232  134.5914  159.9985 H   0  0  0  0  0  0  0  0  0  0  0  0  # atno 6908 bound_to 6896
  151.6123  133.3309  159.3106 H   0  0  0  0  0  0  0  0  0  0  0  0  # atno 6909 bound_to 6896
  146.1663  139.6903  142.8999 H   0  0  0  0  0  0  0  0  0  0  0  0  # atno 7974 bound_to 7965
  156.1441  140.3172  155.8542 H   0  0  0  0  0  0  0  0  0  0  0  0  # atno 8008 bound_to 7997
  155.4098  140.0505  157.3049 H   0  0  0  0  0  0  0  0  0  0  0  0  # atno 8009 bound_to 7997
  154.5001  140.2126  155.9377 H   0  0  0  0  0  0  0  0  0  0  0  0  # atno 8010 bound_to 7997
  139.9876  143.5676  152.2354 H   0  0  0  0  0  0  0  0  0  0  0  0  # atno 10167 bound_to 10162
  157.6824  131.0731  150.5282 H   0  0  0  0  0  0  0  0  0  0  0  0  # atno 10718 bound_to 10713
  153.8002  135.3143  155.3389 H   0  0  0  0  0  0  0  0  0  0  0  0  # atno 10763 bound_to 10752
  154.8092  135.4678  154.0474 H   0  0  0  0  0  0  0  0  0  0  0  0  # atno 10764 bound_to 10752
  153.1819  135.6895  153.8553 H   0  0  0  0  0  0  0  0  0  0  0  0  # atno 10765 bound_to 10752
  140.2435  134.3387  155.7917 H   0  0  0  0  0  0  0  0  0  0  0  0  # atno 11005 bound_to 11000
  145.4458  141.0425  143.2832 LP  0  0  0  0  0  0  0  0  0  0  0  0  # atno 17320 bound_to 7965
  144.8097  139.5984  143.7035 LP  0  0  0  0  0  0  0  0  0  0  0  0  # atno 17321 bound_to 7965
  139.6364  144.7650  151.2429 LP  0  0  0  0  0  0  0  0  0  0  0  0  # atno 17342 bound_to 10162
  140.7467  143.6391  150.8351 LP  0  0  0  0  0  0  0  0  0  0  0  0  # atno 17343 bound_to 10162
  156.5592  130.4251  149.6071 LP  0  0  0  0  0  0  0  0  0  0  0  0  # atno 17370 bound_to 10713
  156.2835  130.7084  151.1915 LP  0  0  0  0  0  0  0  0  0  0  0  0  # atno 17371 bound_to 10713
  141.2208  133.7312  156.8923 LP  0  0  0  0  0  0  0  0  0  0  0  0  # atno 17394 bound_to 11000
  140.1630  134.9153  157.2738 LP  0  0  0  0  0  0  0  0  0  0  0  0  # atno 17395 bound_to 11000

$$$$
