AV-unprocessed.smi:3161|AV-procd|sdf|12058|dock10
  -GOLD-   2272017483D 1   1.00000     0.00000
 Structure written by MMmdl.
 41 42  0  0  0  0  0  0  0  0  2 V2000
  143.7257  132.4807  150.1520 C   0  0  0  0  0  0  0  0  0  0  0  0
  144.1581  133.6199  151.0296 C   0  0  0  0  0  0  0  0  0  0  0  0
  144.0387  133.7291  152.4445 C   0  0  0  0  0  0  0  0  0  0  0  0
  144.5179  134.8695  152.9145 N   0  0  0  0  0  0  0  0  0  0  0  0
  144.9643  135.5233  151.8215 N   0  0  0  0  0  0  0  0  0  0  0  0
  145.5586  136.8402  151.9629 C   0  0  0  0  0  0  0  0  0  0  0  0
  145.3018  137.4770  153.3492 C   0  0  1  0  0  0  0  0  0  0  0  0
  146.3217  138.5767  153.6918 C   0  0  0  0  0  0  0  0  0  0  0  0
  143.9345  138.0368  153.4364 N   0  3  0  0  0  0  0  0  0  0  0  0
  142.8407  137.1041  153.0900 C   0  0  0  0  0  0  0  0  0  0  0  0
  141.5273  137.5244  153.7650 C   0  0  1  0  0  0  0  0  0  0  0  0
  140.8605  138.7081  153.0375 C   0  0  0  0  0  0  0  0  0  0  0  0
  139.5106  139.0449  153.6812 C   0  0  0  0  0  0  0  0  0  0  0  0
  138.6426  137.7843  153.7505 C   0  0  0  0  0  0  0  0  0  0  0  0
  139.4142  136.6405  154.4275 C   0  0  0  0  0  0  0  0  0  0  0  0
  140.6406  136.4071  153.7404 O   0  0  0  0  0  0  0  0  0  0  0  0
  144.7533  134.7956  150.6694 C   0  0  0  0  0  0  0  0  0  0  0  0
  143.6225  131.5524  150.7143 H   0  0  0  0  0  0  0  0  0  0  0  0
  144.4428  132.2924  149.3526 H   0  0  0  0  0  0  0  0  0  0  0  0
  142.7630  132.6800  149.6810 H   0  0  0  0  0  0  0  0  0  0  0  0
  143.6185  133.0176  153.1401 H   0  0  0  0  0  0  0  0  0  0  0  0
  146.6311  136.7513  151.7841 H   0  0  0  0  0  0  0  0  0  0  0  0
  145.1607  137.4679  151.1656 H   0  0  0  0  0  0  0  0  0  0  0  0
  145.3921  136.7043  154.1145 H   0  0  0  0  0  0  0  0  0  0  0  0
  147.3368  138.1824  153.7447 H   0  0  0  0  0  0  0  0  0  0  0  0
  146.1028  139.0257  154.6610 H   0  0  0  0  0  0  0  0  0  0  0  0
  146.3123  139.3725  152.9463 H   0  0  0  0  0  0  0  0  0  0  0  0
  143.7849  138.3206  154.3945 H   0  0  0  0  0  0  0  0  0  0  0  0
  142.7051  137.0965  152.0085 H   0  0  0  0  0  0  0  0  0  0  0  0
  143.1076  136.0895  153.3892 H   0  0  0  0  0  0  0  0  0  0  0  0
  141.7318  137.8046  154.8001 H   0  0  0  0  0  0  0  0  0  0  0  0
  141.5113  139.5828  153.0602 H   0  0  0  0  0  0  0  0  0  0  0  0
  140.7097  138.4577  151.9864 H   0  0  0  0  0  0  0  0  0  0  0  0
  139.6703  139.4367  154.6865 H   0  0  0  0  0  0  0  0  0  0  0  0
  139.0025  139.8269  153.1163 H   0  0  0  0  0  0  0  0  0  0  0  0
  137.7193  137.9908  154.2928 H   0  0  0  0  0  0  0  0  0  0  0  0
  138.3532  137.4822  152.7431 H   0  0  0  0  0  0  0  0  0  0  0  0
  139.6101  136.8697  155.4761 H   0  0  0  0  0  0  0  0  0  0  0  0
  138.8202  135.7264  154.4082 H   0  0  0  0  0  0  0  0  0  0  0  0
  145.0431  135.1688  149.6980 H   0  0  0  0  0  0  0  0  0  0  0  0
  143.8748  138.8560  152.8487 H   0  0  0  0  0  0  0  0  0  0  0  0
  1  2  1  0  0  0  0
  1 18  1  0  0  0  0
  1 19  1  0  0  0  0
  1 20  1  0  0  0  0
  2 17  2  0  0  0  0
  2  3  1  0  0  0  0
  3  4  2  0  0  0  0
  3 21  1  0  0  0  0
  4  5  1  0  0  0  0
  5  6  1  0  0  0  0
  5 17  1  0  0  0  0
  6  7  1  0  0  0  0
  6 22  1  0  0  0  0
  6 23  1  0  0  0  0
  7  8  1  0  0  0  0
  7  9  1  0  0  0  0
  7 24  1  0  0  0  0
  8 25  1  0  0  0  0
  8 26  1  0  0  0  0
  8 27  1  0  0  0  0
  9 10  1  0  0  0  0
  9 28  1  0  0  0  0
  9 41  1  0  0  0  0
 10 11  1  0  0  0  0
 10 29  1  0  0  0  0
 10 30  1  0  0  0  0
 11 16  1  0  0  0  0
 11 12  1  0  0  0  0
 11 31  1  0  0  0  0
 12 13  1  0  0  0  0
 12 32  1  0  0  0  0
 12 33  1  0  0  0  0
 13 14  1  0  0  0  0
 13 34  1  0  0  0  0
 13 35  1  0  0  0  0
 14 15  1  0  0  0  0
 14 36  1  0  0  0  0
 14 37  1  0  0  0  0
 15 16  1  0  0  0  0
 15 38  1  0  0  0  0
 15 39  1  0  0  0  0
 17 40  1  0  0  0  0
M  CHG  1   9   1
M  END
> <s_m_source_file>
AV-unprocessed.smi

> <i_m_source_file_index>
3161

> <i_lp_mmshare_version>
43012

> <i_f3d_flags>
0

> <s_epik_input>
W0NIM11jMVtjSF1ubihbY0hdMSlbQ0gyXVtDQEhdKFtDSDNdKVtOSF1bQ0gyXVtDQEBIXTJbQ0gyXVtDSDJdW0NIMl1bQ0gyXU8y

> <s_epik_cmdline>
J2VwaWtfcHl0aG9uJywgJy1waCcsICc3LjAnLCAnLXRuJywgJzgnLCAnLW1hJywgJzIwMCcsICctbWV0YWxfYmluZGluZycsICctaW1hZScsICc8aW5maWxlLm1hZT4nLCAnLW9tYWUnLCAnPG91dGZpbGUubWFlPic=

> <r_lp_tautomer_probability>
1

> <r_epik_Ionization_Penalty>
0.00849661

> <r_epik_Ionization_Penalty_Charging>
0.00848754

> <r_epik_Ionization_Penalty_Neutral>
9.06711e-06

> <r_epik_State_Penalty>
0.00639836

> <r_epik_Charging_Adjusted_Penalty>
0.0148859

> <i_epik_Tot_Q>
1

> <i_epik_Tot_abs_Q>
1

> <r_epik_Metal_State_Penalty>
0.00639921

> <b_epik_Metal_Only>
0

> <s_lp_Force_Field>
OPLS_2005

> <r_lp_Energy>
12.4103

> <b_lp_Chiralities_Consistent>
1

> <s_lp_Variant>
AV-unprocessed.smi:3161-4

> <Gold.Version>
5.8.1

> <Gold.Id.Protein>
6NUR|6NUR_protein|mol2

> <Gold.PLP.Fitness>
42.8240

> <Gold.PLP.PLP>
-32.0930

> <Gold.PLP.part.hbond>
-1.0000

> <Gold.PLP.part.metal>
0.0000

> <Gold.PLP.part.buried>
-0.6459

> <Gold.PLP.part.nonpolar>
-29.8571

> <Gold.PLP.part.repulsive>
0.2021

> <Gold.PLP.ligand.clash>
0.0000

> <Gold.PLP.ligand.torsion>
0.6507

> <Gold.PLP.Chemscore.Hbond>
2.0000

> <Gold.PLP.Chemscore.CHOScore>
2.0000

> <Gold.PLP.Chemscore.Metal>
0.0000

> <Gold.Chemscore.Hbonds>
donor molecule, donor type, donor heavy atom, donor atom, acceptor molecule, acceptor atom, score
      L1  H     9    41       P1 10175  2.00
      L1  C     3    21       P1 10957  1.00
      L1  C    17    40       P1  7921  1.00

> <Gold.PLP.Chemscore.Internal.Correction>
0.0325

> <Gold.Rescore>
     Score         DG    S(hbond)    S(metal)    S(lipo)     H(rot)  DE(clash)    DE(int)     intcor
     12.87     -13.79       1.00        0.00      76.83       1.57       0.15       0.77       ----

> <Gold.Chemscore.Fitness>
12.8706

> <Gold.Chemscore.DG>
-13.7862

> <Gold.Chemscore.ZeroCoef>
-5.4800

> <Gold.Chemscore.Hbond>
1.0000

> <Gold.Chemscore.Metal>
0.0000

> <Gold.Chemscore.Lipo>
76.8293

> <Gold.Chemscore.Internal_Hbond>
0.0000

> <Gold.Chemscore.DEClash>
0.1469

> <Gold.Chemscore.DEInternal>
0.7687

> <Gold.Chemscore.Rot>
1.5714

> <Gold.Chemscore.Internal.Correction>
   9.000000E+99

> <Gold.Chemscore.Hbonds>
donor molecule, donor type, donor heavy atom, donor atom, acceptor molecule, acceptor atom, score
      L1  H     9    41       P1 10175  0.99

> <Gold.Chemscore.Hbond.Weighted>
-3.3400

> <Gold.Chemscore.Metal.Weighted>
-0.0000

> <Gold.Chemscore.Lipo.Weighted>
-8.9890

> <Gold.Chemscore.Internal_Hbond.Weighted>
0.0000

> <Gold.Chemscore.DEClash.Weighted>
0.1469

> <Gold.Chemscore.DEInternal.Weighted>
0.7687

> <Gold.Chemscore.Rot.Weighted>
4.0228

> <Gold.Chemscore.Internal.Correction.Weighted>
   9.000000E+99

> <Gold.Protein.RotatedTorsions>
[ 6907 6896 6895 6894 ] final  162.68 input  -60.11 | X-H torsion
[ 7974 7965 7964 7962 ] final  -14.09 input  175.53 | X-H torsion
[ 8008 7997 7996 7995 ] final   79.73 input   59.86 | X-H torsion
[ 10167 10162 10161 10158 ] final -162.56 input  -65.29 | X-H torsion
[ 10718 10713 10712 10709 ] final -124.18 input   66.30 | X-H torsion
[ 10763 10752 10751 10750 ] final  150.51 input  -60.55 | X-H torsion
[ 11005 11000 10999 10996 ] final -129.81 input  -57.11 | X-H torsion

> <Gold.Protein.ActiveResidues>
 VAL166  LYS551  ARG553  GLY616  TRP617  ASP618  TYR619  PRO620  LYS621  CYS622 
 ASP623  PHE694  ASN695  SER759  ASP760  ASP761  ALA762  ILE779  LEU786  VAL792 
 PHE793  MET794  SER795  GLU796  ALA797  LYS798  CYS799  TRP800  GLU811  SER814 

> <Gold.Protein.RotatedAtoms>
  151.9367  133.3626  159.3950 H   0  0  0  0  0  0  0  0  0  0  0  0  # atno 6907 bound_to 6896
  150.7006  134.4482  159.5333 H   0  0  0  0  0  0  0  0  0  0  0  0  # atno 6908 bound_to 6896
  152.2131  134.8483  160.0546 H   0  0  0  0  0  0  0  0  0  0  0  0  # atno 6909 bound_to 6896
  146.2088  140.3298  142.8398 H   0  0  0  0  0  0  0  0  0  0  0  0  # atno 7974 bound_to 7965
  155.8738  140.3447  155.5839 H   0  0  0  0  0  0  0  0  0  0  0  0  # atno 8008 bound_to 7997
  155.7797  140.0857  157.2084 H   0  0  0  0  0  0  0  0  0  0  0  0  # atno 8009 bound_to 7997
  154.4019  140.1503  156.3025 H   0  0  0  0  0  0  0  0  0  0  0  0  # atno 8010 bound_to 7997
  139.6383  144.0308  152.2072 H   0  0  0  0  0  0  0  0  0  0  0  0  # atno 10167 bound_to 10162
  156.1566  130.6572  150.9990 H   0  0  0  0  0  0  0  0  0  0  0  0  # atno 10718 bound_to 10713
  154.0886  135.2854  155.3276 H   0  0  0  0  0  0  0  0  0  0  0  0  # atno 10763 bound_to 10752
  154.6635  135.5326  153.8051 H   0  0  0  0  0  0  0  0  0  0  0  0  # atno 10764 bound_to 10752
  153.0422  135.6540  154.1056 H   0  0  0  0  0  0  0  0  0  0  0  0  # atno 10765 bound_to 10752
  140.9399  134.1206  157.4159 H   0  0  0  0  0  0  0  0  0  0  0  0  # atno 11005 bound_to 11000
  144.8860  140.7463  143.5956 LP  0  0  0  0  0  0  0  0  0  0  0  0  # atno 17320 bound_to 7965
  145.3219  139.1785  143.4583 LP  0  0  0  0  0  0  0  0  0  0  0  0  # atno 17321 bound_to 7965
  139.9991  144.6306  150.7746 LP  0  0  0  0  0  0  0  0  0  0  0  0  # atno 17342 bound_to 10162
  140.7477  143.2911  151.3329 LP  0  0  0  0  0  0  0  0  0  0  0  0  # atno 17343 bound_to 10162
  157.6699  131.0863  150.7637 LP  0  0  0  0  0  0  0  0  0  0  0  0  # atno 17370 bound_to 10713
  156.7702  130.4826  149.5420 LP  0  0  0  0  0  0  0  0  0  0  0  0  # atno 17371 bound_to 10713
  139.8818  135.0033  156.6180 LP  0  0  0  0  0  0  0  0  0  0  0  0  # atno 17394 bound_to 11000
  140.7748  133.8709  155.8520 LP  0  0  0  0  0  0  0  0  0  0  0  0  # atno 17395 bound_to 11000

$$$$
