AV-unprocessed.smi:1965|AV-procd|sdf|7939|dock1
  -GOLD-   2272010103D 1   1.00000     0.00000
 Structure written by MMmdl.
 37 39  0  0  0  0  0  0  0  0  2 V2000
  152.7546  143.8210  162.9656 O   0  0  0  0  0  0  0  0  0  0  0  0
  153.4046  142.8545  162.5710 C   0  0  0  0  0  0  0  0  0  0  0  0
  154.3632  142.2983  163.3420 N   0  0  0  0  0  0  0  0  0  0  0  0
  154.8295  142.6201  164.6500 C   0  0  0  0  0  0  0  0  0  0  0  0
  155.2292  141.7315  165.5692 N   0  0  0  0  0  0  0  0  0  0  0  0
  155.6193  142.3446  166.7627 C   0  0  0  0  0  0  0  0  0  0  0  0
  155.5038  143.7115  166.7393 C   0  0  0  0  0  0  0  0  0  0  0  0
  154.8978  144.2857  165.2092 S   0  0  0  0  0  0  0  0  0  0  0  0
  153.2135  142.2967  161.3642 N   0  0  0  0  0  0  0  0  0  0  0  0
  152.2377  142.7309  160.3701 C   0  0  1  0  0  0  0  0  0  0  0  0
  152.3544  144.2113  160.0270 C   0  0  0  0  0  0  0  0  0  0  0  0
  151.6321  144.2885  158.6809 C   0  0  0  0  0  0  0  0  0  0  0  0
  151.9034  143.0023  157.9985 N   0  3  2  0  0  0  0  0  0  0  0  0
  150.7834  142.4967  157.1674 C   0  0  0  0  0  0  0  0  0  0  0  0
  151.1654  141.1688  156.4874 C   0  0  0  0  0  0  0  0  0  0  0  0
  151.7556  140.1339  157.4682 C   0  0  0  0  0  0  0  0  0  0  0  0
  151.7817  140.6466  158.9164 C   0  0  0  0  0  0  0  0  0  0  0  0
  152.4361  142.0439  159.0085 C   0  0  2  0  0  0  0  0  0  0  0  0
  154.8524  141.5295  162.9067 H   0  0  0  0  0  0  0  0  0  0  0  0
  155.9654  141.7304  167.5807 H   0  0  0  0  0  0  0  0  0  0  0  0
  155.7363  144.4129  167.5271 H   0  0  0  0  0  0  0  0  0  0  0  0
  153.7929  141.5054  161.1206 H   0  0  0  0  0  0  0  0  0  0  0  0
  151.2224  142.5523  160.7309 H   0  0  0  0  0  0  0  0  0  0  0  0
  151.9116  144.8604  160.7831 H   0  0  0  0  0  0  0  0  0  0  0  0
  153.4015  144.4948  159.9063 H   0  0  0  0  0  0  0  0  0  0  0  0
  150.5604  144.3982  158.8555 H   0  0  0  0  0  0  0  0  0  0  0  0
  151.9596  145.1363  158.0786 H   0  0  0  0  0  0  0  0  0  0  0  0
  149.8970  142.3585  157.7888 H   0  0  0  0  0  0  0  0  0  0  0  0
  150.5251  143.2412  156.4136 H   0  0  0  0  0  0  0  0  0  0  0  0
  150.2896  140.7512  155.9895 H   0  0  0  0  0  0  0  0  0  0  0  0
  151.8921  141.3651  155.6980 H   0  0  0  0  0  0  0  0  0  0  0  0
  151.1916  139.2020  157.4157 H   0  0  0  0  0  0  0  0  0  0  0  0
  152.7724  139.8887  157.1590 H   0  0  0  0  0  0  0  0  0  0  0  0
  150.7621  140.6842  159.3024 H   0  0  0  0  0  0  0  0  0  0  0  0
  152.3169  139.9386  159.5496 H   0  0  0  0  0  0  0  0  0  0  0  0
  153.5036  141.9512  158.8013 H   0  0  0  0  0  0  0  0  0  0  0  0
  152.6699  143.1720  157.3628 H   0  0  0  0  0  0  0  0  0  0  0  0
  1  2  2  0  0  0  0
  2  3  1  0  0  0  0
  2  9  1  0  0  0  0
  3  4  1  0  0  0  0
  3 19  1  0  0  0  0
  4  8  1  0  0  0  0
  4  5  2  0  0  0  0
  5  6  1  0  0  0  0
  6  7  2  0  0  0  0
  6 20  1  0  0  0  0
  7  8  1  0  0  0  0
  7 21  1  0  0  0  0
  9 10  1  0  0  0  0
  9 22  1  0  0  0  0
 10 18  1  0  0  0  0
 10 11  1  0  0  0  0
 10 23  1  0  0  0  0
 11 12  1  0  0  0  0
 11 24  1  0  0  0  0
 11 25  1  0  0  0  0
 12 13  1  0  0  0  0
 12 26  1  0  0  0  0
 12 27  1  0  0  0  0
 13 18  1  0  0  0  0
 13 14  1  0  0  0  0
 13 37  1  0  0  0  0
 14 15  1  0  0  0  0
 14 28  1  0  0  0  0
 14 29  1  0  0  0  0
 15 16  1  0  0  0  0
 15 30  1  0  0  0  0
 15 31  1  0  0  0  0
 16 17  1  0  0  0  0
 16 32  1  0  0  0  0
 16 33  1  0  0  0  0
 17 18  1  0  0  0  0
 17 34  1  0  0  0  0
 17 35  1  0  0  0  0
 18 36  1  0  0  0  0
M  CHG  1  13   1
M  END
> <s_m_source_file>
AV-unprocessed.smi

> <i_m_source_file_index>
1965

> <i_lp_mmshare_version>
43012

> <i_f3d_flags>
0

> <s_epik_input>
czFbY0hdW2NIXW5jMVtOSF1DKD1PKVtOSF1bQ0BIXShbQ0gyXVtDSDJdMilbQ0BASF0oTjIzKVtDSDJdW0NIMl1bQ0gyXVtDSDJdMw==

> <s_epik_cmdline>
J2VwaWtfcHl0aG9uJywgJy1waCcsICc3LjAnLCAnLXRuJywgJzgnLCAnLW1hJywgJzIwMCcsICctbWV0YWxfYmluZGluZycsICctaW1hZScsICc8aW5maWxlLm1hZT4nLCAnLW9tYWUnLCAnPG91dGZpbGUubWFlPic=

> <r_lp_tautomer_probability>
1

> <r_epik_Ionization_Penalty>
0.00125962

> <r_epik_Ionization_Penalty_Charging>
0.00107044

> <r_epik_Ionization_Penalty_Neutral>
0.000189176

> <r_epik_State_Penalty>
-0

> <r_epik_Charging_Adjusted_Penalty>
0.00107044

> <i_epik_Tot_Q>
1

> <i_epik_Tot_abs_Q>
1

> <r_epik_Metal_State_Penalty>
0.0179285

> <b_epik_Metal_Only>
0

> <s_lp_Force_Field>
OPLS_2005

> <r_lp_Energy>
40.5286

> <b_lp_Chiralities_Consistent>
1

> <s_lp_Variant>
AV-unprocessed.smi:1965-8

> <Gold.Version>
5.8.1

> <Gold.Id.Protein>
6NUR|6NUR_protein|mol2

> <Gold.PLP.Fitness>
40.3379

> <Gold.PLP.PLP>
-40.9638

> <Gold.PLP.part.hbond>
-1.0000

> <Gold.PLP.part.metal>
0.0000

> <Gold.PLP.part.buried>
-5.1446

> <Gold.PLP.part.nonpolar>
-33.9005

> <Gold.PLP.part.repulsive>
0.9042

> <Gold.PLP.ligand.clash>
0.0000

> <Gold.PLP.ligand.torsion>
0.3171

> <Gold.PLP.Chemscore.Hbond>
0.0000

> <Gold.PLP.Chemscore.CHOScore>
0.0000

> <Gold.PLP.Chemscore.Metal>
0.0000

> <Gold.PLP.Chemscore.Internal.Correction>
0.0082

> <Gold.Rescore>
     Score         DG    S(hbond)    S(metal)    S(lipo)     H(rot)  DE(clash)    DE(int)     intcor
     11.81     -14.32       0.00        0.00      97.42       1.00       1.39       1.11       ----

> <Gold.Chemscore.Fitness>
11.8121

> <Gold.Chemscore.DG>
-14.3179

> <Gold.Chemscore.ZeroCoef>
-5.4800

> <Gold.Chemscore.Hbond>
0.0000

> <Gold.Chemscore.Metal>
0.0000

> <Gold.Chemscore.Lipo>
97.4180

> <Gold.Chemscore.Internal_Hbond>
0.0000

> <Gold.Chemscore.DEClash>
1.3942

> <Gold.Chemscore.DEInternal>
1.1116

> <Gold.Chemscore.Rot>
1.0000

> <Gold.Chemscore.Internal.Correction>
   9.000000E+99

> <Gold.Chemscore.Hbond.Weighted>
-0.0000

> <Gold.Chemscore.Metal.Weighted>
-0.0000

> <Gold.Chemscore.Lipo.Weighted>
-11.3979

> <Gold.Chemscore.Internal_Hbond.Weighted>
0.0000

> <Gold.Chemscore.DEClash.Weighted>
1.3942

> <Gold.Chemscore.DEInternal.Weighted>
1.1116

> <Gold.Chemscore.Rot.Weighted>
2.5600

> <Gold.Chemscore.Internal.Correction.Weighted>
   9.000000E+99

> <Gold.Protein.RotatedTorsions>
[ 6907 6896 6895 6894 ] final  175.11 input  -60.11 | X-H torsion
[ 7974 7965 7964 7962 ] final  -41.39 input  175.53 | X-H torsion
[ 8008 7997 7996 7995 ] final -172.32 input   59.86 | X-H torsion
[ 10167 10162 10161 10158 ] final  -50.52 input  -65.29 | X-H torsion
[ 10718 10713 10712 10709 ] final  152.25 input   66.30 | X-H torsion
[ 10763 10752 10751 10750 ] final   76.58 input  -60.55 | X-H torsion
[ 11005 11000 10999 10996 ] final -148.27 input  -57.11 | X-H torsion

> <Gold.Protein.ActiveResidues>
 VAL166  LYS551  ARG553  GLY616  TRP617  ASP618  TYR619  PRO620  LYS621  CYS622 
 ASP623  PHE694  ASN695  SER759  ASP760  ASP761  ALA762  ILE779  LEU786  VAL792 
 PHE793  MET794  SER795  GLU796  ALA797  LYS798  CYS799  TRP800  GLU811  SER814 

> <Gold.Protein.RotatedAtoms>
  151.7416  133.3322  159.3366 H   0  0  0  0  0  0  0  0  0  0  0  0  # atno 6907 bound_to 6896
  150.7571  134.6273  159.6177 H   0  0  0  0  0  0  0  0  0  0  0  0  # atno 6908 bound_to 6896
  152.3527  134.6985  160.0283 H   0  0  0  0  0  0  0  0  0  0  0  0  # atno 6909 bound_to 6896
  146.0216  140.6843  142.9176 H   0  0  0  0  0  0  0  0  0  0  0  0  # atno 7974 bound_to 7965
  155.9430  140.1112  157.1040 H   0  0  0  0  0  0  0  0  0  0  0  0  # atno 8008 bound_to 7997
  154.4093  140.1215  156.5018 H   0  0  0  0  0  0  0  0  0  0  0  0  # atno 8009 bound_to 7997
  155.6938  140.3472  155.4907 H   0  0  0  0  0  0  0  0  0  0  0  0  # atno 8010 bound_to 7997
  140.6633  143.2654  151.4371 H   0  0  0  0  0  0  0  0  0  0  0  0  # atno 10167 bound_to 10162
  157.2603  131.0796  151.1670 H   0  0  0  0  0  0  0  0  0  0  0  0  # atno 10718 bound_to 10713
  153.0736  135.4946  154.8356 H   0  0  0  0  0  0  0  0  0  0  0  0  # atno 10763 bound_to 10752
  154.7056  135.3010  154.9277 H   0  0  0  0  0  0  0  0  0  0  0  0  # atno 10764 bound_to 10752
  153.9987  135.6769  153.4811 H   0  0  0  0  0  0  0  0  0  0  0  0  # atno 10765 bound_to 10752
  140.7630  134.3276  157.5096 H   0  0  0  0  0  0  0  0  0  0  0  0  # atno 11005 bound_to 11000
  144.6992  140.3576  143.7170 LP  0  0  0  0  0  0  0  0  0  0  0  0  # atno 17320 bound_to 7965
  145.7184  139.1703  143.2498 LP  0  0  0  0  0  0  0  0  0  0  0  0  # atno 17321 bound_to 7965
  139.5874  144.1574  152.2046 LP  0  0  0  0  0  0  0  0  0  0  0  0  # atno 17342 bound_to 10162
  140.0918  144.5614  150.7049 LP  0  0  0  0  0  0  0  0  0  0  0  0  # atno 17343 bound_to 10162
  157.3183  130.6924  149.6254 LP  0  0  0  0  0  0  0  0  0  0  0  0  # atno 17370 bound_to 10713
  155.9664  130.4343  150.5043 LP  0  0  0  0  0  0  0  0  0  0  0  0  # atno 17371 bound_to 10713
  139.8767  134.9214  156.3274 LP  0  0  0  0  0  0  0  0  0  0  0  0  # atno 17394 bound_to 11000
  140.9645  133.7367  156.0448 LP  0  0  0  0  0  0  0  0  0  0  0  0  # atno 17395 bound_to 11000

$$$$
