AV-unprocessed.smi:2217|AV-procd|sdf|8972|dock1
  -GOLD-   2272012183D 1   1.00000     0.00000
 Structure written by MMmdl.
 45 48  0  0  0  0  0  0  0  0  1 V2000
  150.9867  141.9930  156.6803 C   0  0  0  0  0  0  0  0  0  0  0  0
  150.2249  140.9541  155.8846 C   0  0  0  0  0  0  0  0  0  0  0  0
  150.8943  140.0315  155.0589 C   0  0  0  0  0  0  0  0  0  0  0  0
  150.1349  139.0841  154.3457 C   0  0  0  0  0  0  0  0  0  0  0  0
  148.7268  139.0794  154.4685 C   0  0  0  0  0  0  0  0  0  0  0  0
  148.0711  138.0680  153.7058 N   0  0  0  0  0  0  0  0  0  0  0  0
  146.7642  137.7565  153.5703 C   0  0  0  0  0  0  0  0  0  0  0  0
  145.8951  138.3920  154.1649 O   0  0  0  0  0  0  0  0  0  0  0  0
  146.4801  136.7262  152.7588 N   0  0  0  0  0  0  0  0  0  0  0  0
  145.1360  136.2535  152.4501 C   0  0  2  0  0  0  0  0  0  0  0  0
  144.3486  135.8683  153.7125 C   0  0  1  0  0  0  0  0  0  0  0  0
  143.1305  136.6593  154.1036 C   0  0  0  0  0  0  0  0  0  0  0  0
  141.9857  135.8461  153.4932 C   0  0  0  0  0  0  0  0  0  0  0  0
  142.5993  135.0806  152.4583 O   0  0  0  0  0  0  0  0  0  0  0  0
  143.8695  134.6482  152.9400 C   0  0  1  0  0  0  0  0  0  0  0  0
  145.0661  134.7832  151.9739 C   0  0  0  0  0  0  0  0  0  0  0  0
  146.2407  133.8401  152.2513 C   0  0  0  0  0  0  0  0  0  0  0  0
  145.9808  132.5748  151.4337 C   0  0  0  0  0  0  0  0  0  0  0  0
  145.1437  133.0324  150.2357 C   0  0  0  0  0  0  0  0  0  0  0  0
  144.8089  134.5060  150.4946 C   0  0  0  0  0  0  0  0  0  0  0  0
  148.0934  139.9735  155.2700 N   0  0  0  0  0  0  0  0  0  0  0  0
  148.8208  140.8811  155.9545 C   0  0  0  0  0  0  0  0  0  0  0  0
  152.0352  142.0279  156.3831 H   0  0  0  0  0  0  0  0  0  0  0  0
  150.9393  141.7606  157.7442 H   0  0  0  0  0  0  0  0  0  0  0  0
  150.5560  142.9825  156.5243 H   0  0  0  0  0  0  0  0  0  0  0  0
  151.9708  140.0444  154.9715 H   0  0  0  0  0  0  0  0  0  0  0  0
  150.6352  138.3676  153.7101 H   0  0  0  0  0  0  0  0  0  0  0  0
  148.6982  137.4499  153.2118 H   0  0  0  0  0  0  0  0  0  0  0  0
  147.2505  136.2526  152.3078 H   0  0  0  0  0  0  0  0  0  0  0  0
  144.5646  136.9225  151.8024 H   0  0  0  0  0  0  0  0  0  0  0  0
  144.9975  135.5858  154.5439 H   0  0  0  0  0  0  0  0  0  0  0  0
  143.0223  136.7573  155.1841 H   0  0  0  0  0  0  0  0  0  0  0  0
  143.1644  137.6624  153.6770 H   0  0  0  0  0  0  0  0  0  0  0  0
  141.5616  135.1665  154.2338 H   0  0  0  0  0  0  0  0  0  0  0  0
  141.1828  136.4737  153.1065 H   0  0  0  0  0  0  0  0  0  0  0  0
  143.8255  133.7328  153.5320 H   0  0  0  0  0  0  0  0  0  0  0  0
  147.1781  134.2843  151.9150 H   0  0  0  0  0  0  0  0  0  0  0  0
  146.3588  133.6149  153.3117 H   0  0  0  0  0  0  0  0  0  0  0  0
  146.9073  132.0853  151.1321 H   0  0  0  0  0  0  0  0  0  0  0  0
  145.4092  131.8612  152.0284 H   0  0  0  0  0  0  0  0  0  0  0  0
  145.6872  132.9169  149.2974 H   0  0  0  0  0  0  0  0  0  0  0  0
  144.2335  132.4361  150.1639 H   0  0  0  0  0  0  0  0  0  0  0  0
  143.7864  134.7368  150.1952 H   0  0  0  0  0  0  0  0  0  0  0  0
  145.4585  135.1357  149.8854 H   0  0  0  0  0  0  0  0  0  0  0  0
  148.2644  141.5667  156.5768 H   0  0  0  0  0  0  0  0  0  0  0  0
  1  2  1  0  0  0  0
  1 23  1  0  0  0  0
  1 24  1  0  0  0  0
  1 25  1  0  0  0  0
  2 22  1  0  0  0  0
  2  3  2  0  0  0  0
  3  4  1  0  0  0  0
  3 26  1  0  0  0  0
  4  5  2  0  0  0  0
  4 27  1  0  0  0  0
  5  6  1  0  0  0  0
  5 21  1  0  0  0  0
  6  7  1  0  0  0  0
  6 28  1  0  0  0  0
  7  8  2  0  0  0  0
  7  9  1  0  0  0  0
  9 10  1  0  0  0  0
  9 29  1  0  0  0  0
 10 16  1  0  0  0  0
 10 11  1  0  0  0  0
 10 30  1  0  0  0  0
 11 15  1  0  0  0  0
 11 12  1  0  0  0  0
 11 31  1  0  0  0  0
 12 13  1  0  0  0  0
 12 32  1  0  0  0  0
 12 33  1  0  0  0  0
 13 14  1  0  0  0  0
 13 34  1  0  0  0  0
 13 35  1  0  0  0  0
 14 15  1  0  0  0  0
 15 16  1  0  0  0  0
 15 36  1  0  0  0  0
 16 20  1  0  0  0  0
 16 17  1  0  0  0  0
 17 18  1  0  0  0  0
 17 37  1  0  0  0  0
 17 38  1  0  0  0  0
 18 19  1  0  0  0  0
 18 39  1  0  0  0  0
 18 40  1  0  0  0  0
 19 20  1  0  0  0  0
 19 41  1  0  0  0  0
 19 42  1  0  0  0  0
 20 43  1  0  0  0  0
 20 44  1  0  0  0  0
 21 22  2  0  0  0  0
 22 45  1  0  0  0  0
M  END
> <s_m_source_file>
AV-unprocessed.smi

> <i_m_source_file_index>
2217

> <i_lp_mmshare_version>
43012

> <i_f3d_flags>
0

> <s_epik_input>
W0NIM11jMVtjSF1bY0hdYyhuW2NIXTEpW05IXUMoPU8pW05IXVtDQEBIXTJbQ0BASF0oW0NIMl1bQ0gyXU8zKVtDQEhdM0MyNFtDSDJdW0NIMl1bQ0gyXVtDSDJdNA==

> <s_epik_cmdline>
J2VwaWtfcHl0aG9uJywgJy1waCcsICc3LjAnLCAnLXRuJywgJzgnLCAnLW1hJywgJzIwMCcsICctbWV0YWxfYmluZGluZycsICctaW1hZScsICc8aW5maWxlLm1hZT4nLCAnLW9tYWUnLCAnPG91dGZpbGUubWFlPic=

> <r_lp_tautomer_probability>
1

> <r_epik_Ionization_Penalty>
6.14796e-05

> <r_epik_Ionization_Penalty_Charging>
0

> <r_epik_Ionization_Penalty_Neutral>
6.14796e-05

> <r_epik_State_Penalty>
-0

> <r_epik_Charging_Adjusted_Penalty>
0

> <i_epik_Tot_Q>
0

> <i_epik_Tot_abs_Q>
0

> <r_epik_Metal_State_Penalty>
-0

> <b_epik_Metal_Only>
0

> <s_lp_Force_Field>
OPLS_2005

> <r_lp_Energy>
58.5561

> <b_lp_Chiralities_Consistent>
1

> <s_lp_Variant>
AV-unprocessed.smi:2217-5

> <Gold.Version>
5.8.1

> <Gold.Id.Protein>
6NUR|6NUR_protein|mol2

> <Gold.PLP.Fitness>
36.8072

> <Gold.PLP.PLP>
-31.0062

> <Gold.PLP.part.hbond>
-2.0000

> <Gold.PLP.part.metal>
0.0000

> <Gold.PLP.part.buried>
-1.5637

> <Gold.PLP.part.nonpolar>
-27.3149

> <Gold.PLP.part.repulsive>
0.4493

> <Gold.PLP.ligand.clash>
0.0000

> <Gold.PLP.ligand.torsion>
0.1676

> <Gold.PLP.Chemscore.Hbond>
1.9840

> <Gold.PLP.Chemscore.CHOScore>
0.0000

> <Gold.PLP.Chemscore.Metal>
0.0000

> <Gold.Chemscore.Hbonds>
donor molecule, donor type, donor heavy atom, donor atom, acceptor molecule, acceptor atom, score
      L1  H     6    28       P1  7948  0.99
      L1  H     9    29       P1  7948  0.99

> <Gold.PLP.Chemscore.Internal.Correction>
0.1842

> <Gold.Rescore>
     Score         DG    S(hbond)    S(metal)    S(lipo)     H(rot)  DE(clash)    DE(int)     intcor
     16.13     -18.46       1.83        0.00      80.66       1.00       0.05       2.28       ----

> <Gold.Chemscore.Fitness>
16.1290

> <Gold.Chemscore.DG>
-18.4589

> <Gold.Chemscore.ZeroCoef>
-5.4800

> <Gold.Chemscore.Hbond>
1.8269

> <Gold.Chemscore.Metal>
0.0000

> <Gold.Chemscore.Lipo>
80.6570

> <Gold.Chemscore.Internal_Hbond>
0.0000

> <Gold.Chemscore.DEClash>
0.0509

> <Gold.Chemscore.DEInternal>
2.2790

> <Gold.Chemscore.Rot>
1.0000

> <Gold.Chemscore.Internal.Correction>
   9.000000E+99

> <Gold.Chemscore.Hbonds>
donor molecule, donor type, donor heavy atom, donor atom, acceptor molecule, acceptor atom, score
      L1  H     6    28       P1  7948  0.93
      L1  H     9    29       P1  7948  0.94

> <Gold.Chemscore.Hbond.Weighted>
-6.1020

> <Gold.Chemscore.Metal.Weighted>
-0.0000

> <Gold.Chemscore.Lipo.Weighted>
-9.4369

> <Gold.Chemscore.Internal_Hbond.Weighted>
0.0000

> <Gold.Chemscore.DEClash.Weighted>
0.0509

> <Gold.Chemscore.DEInternal.Weighted>
2.2790

> <Gold.Chemscore.Rot.Weighted>
2.5600

> <Gold.Chemscore.Internal.Correction.Weighted>
   9.000000E+99

> <Gold.Protein.RotatedTorsions>
[ 6907 6896 6895 6894 ] final   80.99 input  -60.11 | X-H torsion
[ 7974 7965 7964 7962 ] final  -93.98 input  175.53 | X-H torsion
[ 8008 7997 7996 7995 ] final  119.12 input   59.86 | X-H torsion
[ 10167 10162 10161 10158 ] final  -23.01 input  -65.29 | X-H torsion
[ 10718 10713 10712 10709 ] final   86.58 input   66.30 | X-H torsion
[ 10763 10752 10751 10750 ] final -152.18 input  -60.55 | X-H torsion
[ 11005 11000 10999 10996 ] final  170.23 input  -57.11 | X-H torsion

> <Gold.Protein.ActiveResidues>
 VAL166  LYS551  ARG553  GLY616  TRP617  ASP618  TYR619  PRO620  LYS621  CYS622 
 ASP623  PHE694  ASN695  SER759  ASP760  ASP761  ALA762  ILE779  LEU786  VAL792 
 PHE793  MET794  SER795  GLU796  ALA797  LYS798  CYS799  TRP800  GLU811  SER814 

> <Gold.Protein.RotatedAtoms>
  152.5253  134.3273  159.9169 H   0  0  0  0  0  0  0  0  0  0  0  0  # atno 6907 bound_to 6896
  151.3222  133.4029  159.2663 H   0  0  0  0  0  0  0  0  0  0  0  0  # atno 6908 bound_to 6896
  150.9949  134.9293  159.7978 H   0  0  0  0  0  0  0  0  0  0  0  0  # atno 6909 bound_to 6896
  145.3793  140.9515  143.2402 H   0  0  0  0  0  0  0  0  0  0  0  0  # atno 7974 bound_to 7965
  156.2580  140.2860  156.0942 H   0  0  0  0  0  0  0  0  0  0  0  0  # atno 8008 bound_to 7997
  155.1430  140.0396  157.2820 H   0  0  0  0  0  0  0  0  0  0  0  0  # atno 8009 bound_to 7997
  154.6516  140.2546  155.7214 H   0  0  0  0  0  0  0  0  0  0  0  0  # atno 8010 bound_to 7997
  140.7287  143.4482  151.0555 H   0  0  0  0  0  0  0  0  0  0  0  0  # atno 10167 bound_to 10162
  157.6930  131.0221  150.2994 H   0  0  0  0  0  0  0  0  0  0  0  0  # atno 10718 bound_to 10713
  154.8010  135.3242  154.7549 H   0  0  0  0  0  0  0  0  0  0  0  0  # atno 10763 bound_to 10752
  153.8217  135.6887  153.4830 H   0  0  0  0  0  0  0  0  0  0  0  0  # atno 10764 bound_to 10752
  153.1728  135.4617  154.9868 H   0  0  0  0  0  0  0  0  0  0  0  0  # atno 10765 bound_to 10752
  140.3061  134.7555  157.3955 H   0  0  0  0  0  0  0  0  0  0  0  0  # atno 11005 bound_to 11000
  144.8519  139.5309  143.6852 LP  0  0  0  0  0  0  0  0  0  0  0  0  # atno 17320 bound_to 7965
  146.2849  139.6977  142.9202 LP  0  0  0  0  0  0  0  0  0  0  0  0  # atno 17321 bound_to 7965
  139.8156  143.7891  152.3174 LP  0  0  0  0  0  0  0  0  0  0  0  0  # atno 17342 bound_to 10162
  139.7955  144.7394  150.9896 LP  0  0  0  0  0  0  0  0  0  0  0  0  # atno 17343 bound_to 10162
  156.3512  130.3831  149.7327 LP  0  0  0  0  0  0  0  0  0  0  0  0  # atno 17370 bound_to 10713
  156.4804  130.8038  151.3053 LP  0  0  0  0  0  0  0  0  0  0  0  0  # atno 17371 bound_to 10713
  140.1066  134.5402  155.8304 LP  0  0  0  0  0  0  0  0  0  0  0  0  # atno 17394 bound_to 11000
  141.2118  133.6711  156.6609 LP  0  0  0  0  0  0  0  0  0  0  0  0  # atno 17395 bound_to 11000

$$$$
