AV-unprocessed.smi:672|AV-procd|sdf|3294|dock1
  -GOLD-   22720 0253D 1   1.00000     0.00000
 Structure written by MMmdl.
 35 36  0  0  0  0  0  0  0  0  2 V2000
  153.5468  141.3768  159.9552 C   0  0  0  0  0  0  0  0  0  0  0  0
  152.4793  142.1296  159.1538 C   0  0  0  0  0  0  0  0  0  0  0  0
  152.0367  141.3787  157.9426 C   0  0  0  0  0  0  0  0  0  0  0  0
  152.5416  140.1899  157.6020 N   0  0  0  0  0  0  0  0  0  0  0  0
  151.9924  139.7073  156.4232 N   0  0  0  0  0  0  0  0  0  0  0  0
  151.1016  140.5462  155.8756 C   0  0  0  0  0  0  0  0  0  0  0  0
  150.4575  140.2661  154.7306 N   0  5  0  0  0  0  0  0  0  0  0  0
  149.1162  140.0916  154.7356 C   0  0  0  0  0  0  0  0  0  0  0  0
  148.3869  140.0647  155.7298 O   0  0  0  0  0  0  0  0  0  0  0  0
  148.5861  139.9403  153.5133 N   0  0  0  0  0  0  0  0  0  0  0  0
  147.1707  139.7332  153.2137 C   0  0  1  0  0  0  0  0  0  0  0  0
  146.8985  139.7744  151.6961 C   0  0  0  0  0  0  0  0  0  0  0  0
  146.5272  138.3469  151.2924 C   0  0  0  0  0  0  0  0  0  0  0  0
  145.8767  137.7621  152.5447 C   0  0  1  0  0  0  0  0  0  0  0  0
  145.8461  135.9459  152.5568 S   0  0  0  0  0  0  0  0  0  0  0  0
  145.2787  135.6211  150.8665 C   0  0  0  0  0  0  0  0  0  0  0  0
  146.7057  138.3449  153.6923 C   0  0  0  0  0  0  0  0  0  0  0  0
  150.8546  142.0191  156.8132 S   0  0  0  0  0  0  0  0  0  0  0  0
  153.8515  141.9500  160.8307 H   0  0  0  0  0  0  0  0  0  0  0  0
  154.4354  141.1931  159.3506 H   0  0  0  0  0  0  0  0  0  0  0  0
  153.1714  140.4130  160.3008 H   0  0  0  0  0  0  0  0  0  0  0  0
  151.6114  142.3275  159.7837 H   0  0  0  0  0  0  0  0  0  0  0  0
  152.8652  143.1003  158.8408 H   0  0  0  0  0  0  0  0  0  0  0  0
  149.2190  139.9716  152.7275 H   0  0  0  0  0  0  0  0  0  0  0  0
  146.5750  140.5017  153.7102 H   0  0  0  0  0  0  0  0  0  0  0  0
  146.0533  140.4359  151.5023 H   0  0  0  0  0  0  0  0  0  0  0  0
  147.7392  140.1535  151.1135 H   0  0  0  0  0  0  0  0  0  0  0  0
  145.8715  138.3202  150.4220 H   0  0  0  0  0  0  0  0  0  0  0  0
  147.4331  137.7905  151.0469 H   0  0  0  0  0  0  0  0  0  0  0  0
  144.8540  138.1336  152.6266 H   0  0  0  0  0  0  0  0  0  0  0  0
  145.1671  134.5484  150.7092 H   0  0  0  0  0  0  0  0  0  0  0  0
  145.9958  136.0023  150.1398 H   0  0  0  0  0  0  0  0  0  0  0  0
  144.3147  136.0980  150.6901 H   0  0  0  0  0  0  0  0  0  0  0  0
  147.5673  137.7018  153.8804 H   0  0  0  0  0  0  0  0  0  0  0  0
  146.1372  138.3992  154.6213 H   0  0  0  0  0  0  0  0  0  0  0  0
  1  2  1  0  0  0  0
  1 19  1  0  0  0  0
  1 20  1  0  0  0  0
  1 21  1  0  0  0  0
  2  3  1  0  0  0  0
  2 22  1  0  0  0  0
  2 23  1  0  0  0  0
  3 18  1  0  0  0  0
  3  4  2  0  0  0  0
  4  5  1  0  0  0  0
  5  6  2  0  0  0  0
  6  7  1  0  0  0  0
  6 18  1  0  0  0  0
  7  8  1  0  0  0  0
  8  9  2  0  0  0  0
  8 10  1  0  0  0  0
 10 11  1  0  0  0  0
 10 24  1  0  0  0  0
 11 17  1  0  0  0  0
 11 12  1  0  0  0  0
 11 25  1  0  0  0  0
 12 13  1  0  0  0  0
 12 26  1  0  0  0  0
 12 27  1  0  0  0  0
 13 14  1  0  0  0  0
 13 28  1  0  0  0  0
 13 29  1  0  0  0  0
 14 15  1  0  0  0  0
 14 17  1  0  0  0  0
 14 30  1  0  0  0  0
 15 16  1  0  0  0  0
 16 31  1  0  0  0  0
 16 32  1  0  0  0  0
 16 33  1  0  0  0  0
 17 34  1  0  0  0  0
 17 35  1  0  0  0  0
M  CHG  1   7  -1
M  END
> <s_m_source_file>
AV-unprocessed.smi

> <i_m_source_file_index>
672

> <i_lp_mmshare_version>
43012

> <i_f3d_flags>
0

> <s_epik_input>
W0NIM11bQ0gyXWMxbm5jKHMxKVtOSF1DKD1PKVtOSF1bQ0BASF0yW0NIMl1bQ0gyXVtDQEhdKFtDSDJdMilTW0NIM10=

> <s_epik_cmdline>
J2VwaWtfcHl0aG9uJywgJy1waCcsICc3LjAnLCAnLXRuJywgJzgnLCAnLW1hJywgJzIwMCcsICctbWV0YWxfYmluZGluZycsICctaW1hZScsICc8aW5maWxlLm1hZT4nLCAnLW9tYWUnLCAnPG91dGZpbGUubWFlPic=

> <r_lp_tautomer_probability>
1

> <r_epik_Ionization_Penalty>
4.49964

> <r_epik_Ionization_Penalty_Charging>
4.32991

> <r_epik_Ionization_Penalty_Neutral>
0.169727

> <r_epik_State_Penalty>
4.32952

> <r_epik_Charging_Adjusted_Penalty>
8.65943

> <i_epik_Tot_Q>
-1

> <i_epik_Tot_abs_Q>
1

> <r_epik_Metal_State_Penalty>
0.740482

> <b_epik_Metal_Only>
1

> <s_lp_Force_Field>
OPLS_2005

> <r_lp_Energy>
10.5366

> <b_lp_Chiralities_Consistent>
1

> <s_lp_Variant>
AV-unprocessed.smi:672-6

> <Gold.Version>
5.8.1

> <Gold.Id.Protein>
6NUR|6NUR_protein|mol2

> <Gold.PLP.Fitness>
40.8965

> <Gold.PLP.PLP>
-33.5974

> <Gold.PLP.part.hbond>
-3.0300

> <Gold.PLP.part.metal>
0.0000

> <Gold.PLP.part.buried>
1.6590

> <Gold.PLP.part.nonpolar>
-32.5149

> <Gold.PLP.part.repulsive>
0.2204

> <Gold.PLP.ligand.clash>
0.0000

> <Gold.PLP.ligand.torsion>
0.8056

> <Gold.PLP.Chemscore.Hbond>
2.8800

> <Gold.PLP.Chemscore.CHOScore>
0.0000

> <Gold.PLP.Chemscore.Metal>
0.0000

> <Gold.Chemscore.Hbonds>
donor molecule, donor type, donor heavy atom, donor atom, acceptor molecule, acceptor atom, score
      L1  H    10    24       P1  7957  1.00
      P1  H  7989  7998       L1     7  1.00
      P1  H  7997  8008       L1     4  0.56

> <Gold.PLP.Chemscore.Internal.Correction>
0.2703

> <Gold.Rescore>
     Score         DG    S(hbond)    S(metal)    S(lipo)     H(rot)  DE(clash)    DE(int)     intcor
     15.59     -17.73       1.95        0.00      78.42       1.34       1.53       0.61       ----

> <Gold.Chemscore.Fitness>
15.5885

> <Gold.Chemscore.DG>
-17.7267

> <Gold.Chemscore.ZeroCoef>
-5.4800

> <Gold.Chemscore.Hbond>
1.9473

> <Gold.Chemscore.Metal>
0.0000

> <Gold.Chemscore.Lipo>
78.4246

> <Gold.Chemscore.Internal_Hbond>
0.0000

> <Gold.Chemscore.DEClash>
1.5266

> <Gold.Chemscore.DEInternal>
0.6116

> <Gold.Chemscore.Rot>
1.3410

> <Gold.Chemscore.Internal.Correction>
   9.000000E+99

> <Gold.Chemscore.Hbonds>
donor molecule, donor type, donor heavy atom, donor atom, acceptor molecule, acceptor atom, score
      L1  H    10    24       P1  7957  0.97
      P1  H  7989  7998       L1     7  0.34
      P1  H  7997  8008       L1     4  0.09

> <Gold.Chemscore.Hbond.Weighted>
-6.5040

> <Gold.Chemscore.Metal.Weighted>
-0.0000

> <Gold.Chemscore.Lipo.Weighted>
-9.1757

> <Gold.Chemscore.Internal_Hbond.Weighted>
0.0000

> <Gold.Chemscore.DEClash.Weighted>
1.5266

> <Gold.Chemscore.DEInternal.Weighted>
0.6116

> <Gold.Chemscore.Rot.Weighted>
3.4329

> <Gold.Chemscore.Internal.Correction.Weighted>
   9.000000E+99

> <Gold.Protein.RotatedTorsions>
[ 6907 6896 6895 6894 ] final -114.13 input  -60.11 | X-H torsion
[ 7974 7965 7964 7962 ] final -150.30 input  175.53 | X-H torsion
[ 8008 7997 7996 7995 ] final  -85.01 input   59.86 | X-H torsion
[ 10167 10162 10161 10158 ] final  -31.60 input  -65.29 | X-H torsion
[ 10718 10713 10712 10709 ] final  -35.23 input   66.30 | X-H torsion
[ 10763 10752 10751 10750 ] final  -45.46 input  -60.55 | X-H torsion
[ 11005 11000 10999 10996 ] final   73.59 input  -57.11 | X-H torsion

> <Gold.Protein.ActiveResidues>
 VAL166  LYS551  ARG553  GLY616  TRP617  ASP618  TYR619  PRO620  LYS621  CYS622 
 ASP623  PHE694  ASN695  SER759  ASP760  ASP761  ALA762  ILE779  LEU786  VAL792 
 PHE793  MET794  SER795  GLU796  ALA797  LYS798  CYS799  TRP800  GLU811  SER814 

> <Gold.Protein.RotatedAtoms>
  150.7880  133.8845  159.3295 H   0  0  0  0  0  0  0  0  0  0  0  0  # atno 6907 bound_to 6896
  151.6690  135.0977  160.0204 H   0  0  0  0  0  0  0  0  0  0  0  0  # atno 6908 bound_to 6896
  152.3948  133.6692  159.6302 H   0  0  0  0  0  0  0  0  0  0  0  0  # atno 6909 bound_to 6896
  144.7916  140.4950  143.5769 H   0  0  0  0  0  0  0  0  0  0  0  0  # atno 7974 bound_to 7965
  154.6361  140.0597  156.9790 H   0  0  0  0  0  0  0  0  0  0  0  0  # atno 8008 bound_to 7997
  155.1590  140.3281  155.4397 H   0  0  0  0  0  0  0  0  0  0  0  0  # atno 8009 bound_to 7997
  156.2507  140.1934  156.6698 H   0  0  0  0  0  0  0  0  0  0  0  0  # atno 8010 bound_to 7997
  140.7234  143.3758  151.1692 H   0  0  0  0  0  0  0  0  0  0  0  0  # atno 10167 bound_to 10162
  156.3411  130.4293  149.7787 H   0  0  0  0  0  0  0  0  0  0  0  0  # atno 10718 bound_to 10713
  154.0289  135.6659  153.4779 H   0  0  0  0  0  0  0  0  0  0  0  0  # atno 10763 bound_to 10752
  153.0549  135.5062  154.7952 H   0  0  0  0  0  0  0  0  0  0  0  0  # atno 10764 bound_to 10752
  154.6891  135.3058  154.9471 H   0  0  0  0  0  0  0  0  0  0  0  0  # atno 10765 bound_to 10752
  139.9432  134.7360  156.1045 H   0  0  0  0  0  0  0  0  0  0  0  0  # atno 11005 bound_to 11000
  145.5780  139.1487  143.3251 LP  0  0  0  0  0  0  0  0  0  0  0  0  # atno 17320 bound_to 7965
  146.2170  140.5911  142.9034 LP  0  0  0  0  0  0  0  0  0  0  0  0  # atno 17321 bound_to 7965
  139.7338  143.9031  152.3028 LP  0  0  0  0  0  0  0  0  0  0  0  0  # atno 17342 bound_to 10162
  139.8829  144.7008  150.8857 LP  0  0  0  0  0  0  0  0  0  0  0  0  # atno 17343 bound_to 10162
  156.5023  130.8134  151.3137 LP  0  0  0  0  0  0  0  0  0  0  0  0  # atno 17370 bound_to 10713
  157.7447  130.9941  150.2694 LP  0  0  0  0  0  0  0  0  0  0  0  0  # atno 17371 bound_to 10713
  141.1074  133.6655  156.2897 LP  0  0  0  0  0  0  0  0  0  0  0  0  # atno 17394 bound_to 11000
  140.5899  134.5661  157.5497 LP  0  0  0  0  0  0  0  0  0  0  0  0  # atno 17395 bound_to 11000

$$$$
