AV-unprocessed.smi:201|AV-procd|sdf|1580|dock7
  -GOLD-   2262019463D 1   1.00000     0.00000
 Structure written by MMmdl.
 59 61  0  0  0  0  0  0  0  0  1 V2000
  146.8211  140.5532  155.4639 C   0  0  0  0  0  0  0  0  0  0  0  0
  146.0224  139.3664  156.0356 C   0  0  0  0  0  0  0  0  0  0  0  0
  146.0733  139.4356  157.5778 C   0  0  0  0  0  0  0  0  0  0  0  0
  146.5072  138.0759  155.5146 N   0  0  0  0  0  0  0  0  0  0  0  0
  147.7926  137.5337  155.9651 C   0  0  0  0  0  0  0  0  0  0  0  0
  149.0119  138.3134  155.4317 C   0  0  0  0  0  0  0  0  0  0  0  0
  150.2152  137.5808  155.6135 O   0  0  0  0  0  0  0  0  0  0  0  0
  151.3619  138.1877  155.0344 C   0  0  0  0  0  0  0  0  0  0  0  0
  151.8681  139.2886  155.9735 C   0  0  0  0  0  0  0  0  0  0  0  0
  152.4888  138.7129  157.1030 O   0  0  0  0  0  0  0  0  0  0  0  0
  146.2836  137.7953  154.2067 C   0  0  0  0  0  0  0  0  0  0  0  0
  146.9487  138.5446  153.2915 N   0  0  0  0  0  0  0  0  0  0  0  0
  146.7659  138.3283  151.9858 C   0  0  0  0  0  0  0  0  0  0  0  0
  145.9719  137.4361  151.3907 N   0  0  0  0  0  0  0  0  0  0  0  0
  145.2907  136.6896  152.3066 C   0  0  0  0  0  0  0  0  0  0  0  0
  145.3860  136.7995  153.7226 C   0  0  0  0  0  0  0  0  0  0  0  0
  144.5398  135.8752  154.3240 N   0  0  0  0  0  0  0  0  0  0  0  0
  143.9875  135.2474  153.3226 C   0  0  0  0  0  0  0  0  0  0  0  0
  144.3662  135.6856  152.0739 N   0  0  0  0  0  0  0  0  0  0  0  0
  143.9123  135.1690  150.7905 C   0  0  0  0  0  0  0  0  0  0  0  0
  144.4089  133.7362  150.4231 C   0  0  0  0  0  0  0  0  0  0  0  0
  143.7783  133.3612  149.0515 C   0  0  0  0  0  0  0  0  0  0  0  0
  143.7950  134.4392  148.1363 O   0  0  0  0  0  0  0  0  0  0  0  0
  145.9579  133.6729  150.3682 C   0  0  0  0  0  0  0  0  0  0  0  0
  146.4862  132.2373  150.1939 C   0  0  0  0  0  0  0  0  0  0  0  0
  146.0098  131.4156  151.2525 O   0  0  0  0  0  0  0  0  0  0  0  0
  144.5914  131.3133  151.2839 C   0  0  0  0  0  0  0  0  0  0  0  0
  143.9659  132.7054  151.4947 C   0  0  0  0  0  0  0  0  0  0  0  0
  146.4864  141.4957  155.8983 H   0  0  0  0  0  0  0  0  0  0  0  0
  146.6948  140.6468  154.3854 H   0  0  0  0  0  0  0  0  0  0  0  0
  147.8868  140.4528  155.6730 H   0  0  0  0  0  0  0  0  0  0  0  0
  144.9859  139.4948  155.7250 H   0  0  0  0  0  0  0  0  0  0  0  0
  145.7520  140.4140  157.9356 H   0  0  0  0  0  0  0  0  0  0  0  0
  147.0858  139.2672  157.9461 H   0  0  0  0  0  0  0  0  0  0  0  0
  145.4216  138.7025  158.0522 H   0  0  0  0  0  0  0  0  0  0  0  0
  147.8144  137.5170  157.0540 H   0  0  0  0  0  0  0  0  0  0  0  0
  147.8608  136.4872  155.6673 H   0  0  0  0  0  0  0  0  0  0  0  0
  148.8874  138.5884  154.3836 H   0  0  0  0  0  0  0  0  0  0  0  0
  149.1201  139.2459  155.9855 H   0  0  0  0  0  0  0  0  0  0  0  0
  152.1515  137.4654  154.8253 H   0  0  0  0  0  0  0  0  0  0  0  0
  151.0753  138.6373  154.0825 H   0  0  0  0  0  0  0  0  0  0  0  0
  152.6142  139.8970  155.4615 H   0  0  0  0  0  0  0  0  0  0  0  0
  151.0603  139.9545  156.2788 H   0  0  0  0  0  0  0  0  0  0  0  0
  151.8151  138.4551  157.7137 H   0  0  0  0  0  0  0  0  0  0  0  0
  147.3363  138.9621  151.3228 H   0  0  0  0  0  0  0  0  0  0  0  0
  143.2772  134.4464  153.4683 H   0  0  0  0  0  0  0  0  0  0  0  0
  142.8217  135.1921  150.7936 H   0  0  0  0  0  0  0  0  0  0  0  0
  144.2203  135.8834  150.0259 H   0  0  0  0  0  0  0  0  0  0  0  0
  144.2887  132.5250  148.5773 H   0  0  0  0  0  0  0  0  0  0  0  0
  142.7429  133.0460  149.1853 H   0  0  0  0  0  0  0  0  0  0  0  0
  144.6409  134.4627  147.7153 H   0  0  0  0  0  0  0  0  0  0  0  0
  146.3448  134.3130  149.5749 H   0  0  0  0  0  0  0  0  0  0  0  0
  146.3802  134.0578  151.2954 H   0  0  0  0  0  0  0  0  0  0  0  0
  146.2035  131.8163  149.2288 H   0  0  0  0  0  0  0  0  0  0  0  0
  147.5760  132.2398  150.2229 H   0  0  0  0  0  0  0  0  0  0  0  0
  144.2266  130.8353  150.3749 H   0  0  0  0  0  0  0  0  0  0  0  0
  144.3117  130.6568  152.1081 H   0  0  0  0  0  0  0  0  0  0  0  0
  144.2691  133.0377  152.4868 H   0  0  0  0  0  0  0  0  0  0  0  0
  142.8786  132.6269  151.5206 H   0  0  0  0  0  0  0  0  0  0  0  0
  1  2  1  0  0  0  0
  1 29  1  0  0  0  0
  1 30  1  0  0  0  0
  1 31  1  0  0  0  0
  2  3  1  0  0  0  0
  2  4  1  0  0  0  0
  2 32  1  0  0  0  0
  3 33  1  0  0  0  0
  3 34  1  0  0  0  0
  3 35  1  0  0  0  0
  4  5  1  0  0  0  0
  4 11  1  0  0  0  0
  5  6  1  0  0  0  0
  5 36  1  0  0  0  0
  5 37  1  0  0  0  0
  6  7  1  0  0  0  0
  6 38  1  0  0  0  0
  6 39  1  0  0  0  0
  7  8  1  0  0  0  0
  8  9  1  0  0  0  0
  8 40  1  0  0  0  0
  8 41  1  0  0  0  0
  9 10  1  0  0  0  0
  9 42  1  0  0  0  0
  9 43  1  0  0  0  0
 10 44  1  0  0  0  0
 11 16  1  0  0  0  0
 11 12  2  0  0  0  0
 12 13  1  0  0  0  0
 13 14  2  0  0  0  0
 13 45  1  0  0  0  0
 14 15  1  0  0  0  0
 15 19  1  0  0  0  0
 15 16  2  0  0  0  0
 16 17  1  0  0  0  0
 17 18  2  0  0  0  0
 18 19  1  0  0  0  0
 18 46  1  0  0  0  0
 19 20  1  0  0  0  0
 20 21  1  0  0  0  0
 20 47  1  0  0  0  0
 20 48  1  0  0  0  0
 21 28  1  0  0  0  0
 21 22  1  0  0  0  0
 21 24  1  0  0  0  0
 22 23  1  0  0  0  0
 22 49  1  0  0  0  0
 22 50  1  0  0  0  0
 23 51  1  0  0  0  0
 24 25  1  0  0  0  0
 24 52  1  0  0  0  0
 24 53  1  0  0  0  0
 25 26  1  0  0  0  0
 25 54  1  0  0  0  0
 25 55  1  0  0  0  0
 26 27  1  0  0  0  0
 27 28  1  0  0  0  0
 27 56  1  0  0  0  0
 27 57  1  0  0  0  0
 28 58  1  0  0  0  0
 28 59  1  0  0  0  0
M  END
> <s_m_source_file>
AV-unprocessed.smi

> <i_m_source_file_index>
201

> <i_lp_mmshare_version>
43012

> <i_f3d_flags>
0

> <s_epik_input>
W09IXVtDSDJdW0NIMl1PW0NIMl1bQ0gyXU4oW0NIXShbQ0gzXSlbQ0gzXSljKG5bY0hdbjEpYyhjMTIpbltjSF1uMltDSDJdQzMoW0NIMl1bT0hdKVtDSDJdW0NIMl1PW0NIMl1bQ0gyXTM=

> <s_epik_cmdline>
J2VwaWtfcHl0aG9uJywgJy1waCcsICc3LjAnLCAnLXRuJywgJzgnLCAnLW1hJywgJzIwMCcsICctbWV0YWxfYmluZGluZycsICctaW1hZScsICc8aW5maWxlLm1hZT4nLCAnLW9tYWUnLCAnPG91dGZpbGUubWFlPic=

> <r_lp_tautomer_probability>
1

> <r_epik_Ionization_Penalty>
0.00276835

> <r_epik_Ionization_Penalty_Charging>
0

> <r_epik_Ionization_Penalty_Neutral>
0.00276835

> <r_epik_State_Penalty>
0.00179834

> <r_epik_Charging_Adjusted_Penalty>
0.00179834

> <i_epik_Tot_Q>
0

> <i_epik_Tot_abs_Q>
0

> <r_epik_Metal_State_Penalty>
-0

> <b_epik_Metal_Only>
0

> <s_lp_Force_Field>
OPLS_2005

> <r_lp_Energy>
32.5455

> <b_lp_Chiralities_Consistent>
1

> <s_lp_Variant>
AV-unprocessed.smi:201-1

> <Gold.Version>
5.8.1

> <Gold.Id.Protein>
6NUR|6NUR_protein|mol2

> <Gold.PLP.Fitness>
44.1972

> <Gold.PLP.PLP>
-33.3271

> <Gold.PLP.part.hbond>
-3.9086

> <Gold.PLP.part.metal>
0.0000

> <Gold.PLP.part.buried>
0.9862

> <Gold.PLP.part.nonpolar>
-33.5727

> <Gold.PLP.part.repulsive>
3.5532

> <Gold.PLP.ligand.clash>
0.0000

> <Gold.PLP.ligand.torsion>
1.0345

> <Gold.PLP.Chemscore.Hbond>
2.9263

> <Gold.PLP.Chemscore.CHOScore>
0.9961

> <Gold.PLP.Chemscore.Metal>
0.0000

> <Gold.Chemscore.Hbonds>
donor molecule, donor type, donor heavy atom, donor atom, acceptor molecule, acceptor atom, score
      L1  H    23    51       P1  7921  0.94
      P1  H  7997  8010       L1    10  0.05
      P1  H 10192 10197       L1    23  0.68
      L1  C    13    45       P1  7957  1.00

> <Gold.PLP.Chemscore.Internal.Correction>
1.1721

> <Gold.Rescore>
     Score         DG    S(hbond)    S(metal)    S(lipo)     H(rot)  DE(clash)    DE(int)     intcor
      6.34     -12.32       2.72        0.00      83.19       4.68       3.53       2.45       ----

> <Gold.Chemscore.Fitness>
6.3447

> <Gold.Chemscore.DG>
-12.3169

> <Gold.Chemscore.ZeroCoef>
-5.4800

> <Gold.Chemscore.Hbond>
2.7176

> <Gold.Chemscore.Metal>
0.0000

> <Gold.Chemscore.Lipo>
83.1914

> <Gold.Chemscore.Internal_Hbond>
0.0000

> <Gold.Chemscore.DEClash>
3.5251

> <Gold.Chemscore.DEInternal>
2.4471

> <Gold.Chemscore.Rot>
4.6771

> <Gold.Chemscore.Internal.Correction>
   9.000000E+99

> <Gold.Chemscore.Hbonds>
donor molecule, donor type, donor heavy atom, donor atom, acceptor molecule, acceptor atom, score
      L1  H    23    51       P1  7921  0.89
      P1  H 10192 10197       L1    23  0.67

> <Gold.Chemscore.Hbond.Weighted>
-9.0769

> <Gold.Chemscore.Metal.Weighted>
-0.0000

> <Gold.Chemscore.Lipo.Weighted>
-9.7334

> <Gold.Chemscore.Internal_Hbond.Weighted>
0.0000

> <Gold.Chemscore.DEClash.Weighted>
3.5251

> <Gold.Chemscore.DEInternal.Weighted>
2.4471

> <Gold.Chemscore.Rot.Weighted>
11.9733

> <Gold.Chemscore.Internal.Correction.Weighted>
   9.000000E+99

> <Gold.Protein.RotatedTorsions>
[ 6907 6896 6895 6894 ] final -107.45 input  -60.11 | X-H torsion
[ 7974 7965 7964 7962 ] final  151.64 input  175.53 | X-H torsion
[ 8008 7997 7996 7995 ] final   62.10 input   59.86 | X-H torsion
[ 10167 10162 10161 10158 ] final -159.19 input  -65.29 | X-H torsion
[ 10718 10713 10712 10709 ] final   92.87 input   66.30 | X-H torsion
[ 10763 10752 10751 10750 ] final  126.10 input  -60.55 | X-H torsion
[ 11005 11000 10999 10996 ] final -143.86 input  -57.11 | X-H torsion

> <Gold.Protein.ActiveResidues>
 VAL166  LYS551  ARG553  GLY616  TRP617  ASP618  TYR619  PRO620  LYS621  CYS622 
 ASP623  PHE694  ASN695  SER759  ASP760  ASP761  ALA762  ILE779  LEU786  VAL792 
 PHE793  MET794  SER795  GLU796  ALA797  LYS798  CYS799  TRP800  GLU811  SER814 

> <Gold.Protein.RotatedAtoms>
  150.7445  133.9825  159.3580 H   0  0  0  0  0  0  0  0  0  0  0  0  # atno 6907 bound_to 6896
  151.7767  135.0770  160.0377 H   0  0  0  0  0  0  0  0  0  0  0  0  # atno 6908 bound_to 6896
  152.3302  133.5913  159.5840 H   0  0  0  0  0  0  0  0  0  0  0  0  # atno 6909 bound_to 6896
  144.8278  139.6564  143.6072 H   0  0  0  0  0  0  0  0  0  0  0  0  # atno 7974 bound_to 7965
  155.6089  140.3495  155.4616 H   0  0  0  0  0  0  0  0  0  0  0  0  # atno 8008 bound_to 7997
  156.0170  140.1245  157.0421 H   0  0  0  0  0  0  0  0  0  0  0  0  # atno 8009 bound_to 7997
  154.4301  140.1070  156.5895 H   0  0  0  0  0  0  0  0  0  0  0  0  # atno 8010 bound_to 7997
  139.6634  143.9872  152.2240 H   0  0  0  0  0  0  0  0  0  0  0  0  # atno 10167 bound_to 10162
  157.6957  131.0458  150.3948 H   0  0  0  0  0  0  0  0  0  0  0  0  # atno 10718 bound_to 10713
  153.6878  135.3304  155.3194 H   0  0  0  0  0  0  0  0  0  0  0  0  # atno 10763 bound_to 10752
  154.8448  135.4424  154.1539 H   0  0  0  0  0  0  0  0  0  0  0  0  # atno 10764 bound_to 10752
  153.2573  135.6987  153.7693 H   0  0  0  0  0  0  0  0  0  0  0  0  # atno 10765 bound_to 10752
  140.8083  134.2775  157.4951 H   0  0  0  0  0  0  0  0  0  0  0  0  # atno 11005 bound_to 11000
  146.2582  139.6351  142.9380 LP  0  0  0  0  0  0  0  0  0  0  0  0  # atno 17320 bound_to 7965
  145.4962  141.0438  143.2566 LP  0  0  0  0  0  0  0  0  0  0  0  0  # atno 17321 bound_to 7965
  139.9617  144.6553  150.8073 LP  0  0  0  0  0  0  0  0  0  0  0  0  # atno 17342 bound_to 10162
  140.7589  143.3118  151.2827 LP  0  0  0  0  0  0  0  0  0  0  0  0  # atno 17343 bound_to 10162
  156.4347  130.3979  149.6737 LP  0  0  0  0  0  0  0  0  0  0  0  0  # atno 17370 bound_to 10713
  156.3941  130.7642  151.2645 LP  0  0  0  0  0  0  0  0  0  0  0  0  # atno 17371 bound_to 10713
  139.8716  134.9468  156.3950 LP  0  0  0  0  0  0  0  0  0  0  0  0  # atno 17394 bound_to 11000
  140.9224  133.7635  155.9923 LP  0  0  0  0  0  0  0  0  0  0  0  0  # atno 17395 bound_to 11000

$$$$
