AV-unprocessed.smi:1749|AV-procd|sdf|7050|dock4
  -GOLD-   22720 8263D 1   1.00000     0.00000
 Structure written by MMmdl.
 31 32  0  0  0  0  0  0  0  0  2 V2000
  152.8740  142.9013  162.3298 C   0  0  0  0  0  0  0  0  0  0  0  0
  152.8775  143.0662  160.8034 C   0  0  2  0  0  0  0  0  0  0  0  0
  151.9434  144.2068  160.3567 C   0  0  0  0  0  0  0  0  0  0  0  0
  151.9507  144.3735  158.8291 C   0  0  0  0  0  0  0  0  0  0  0  0
  151.5812  143.0595  158.1244 C   0  0  0  0  0  0  0  0  0  0  0  0
  152.5101  141.9108  158.5570 C   0  0  2  0  0  0  0  0  0  0  0  0
  152.0871  140.6759  157.9029 N   0  0  0  0  0  0  0  0  0  0  0  0
  152.7085  139.4817  157.9663 C   0  0  0  0  0  0  0  0  0  0  0  0
  153.7251  139.3746  158.6509 O   0  0  0  0  0  0  0  0  0  0  0  0
  152.1726  138.4490  157.2635 N   0  5  0  0  0  0  0  0  0  0  0  0
  151.5436  138.6217  156.0861 C   0  0  0  0  0  0  0  0  0  0  0  0
  151.1900  139.8334  155.6280 N   0  0  0  0  0  0  0  0  0  0  0  0
  150.5575  139.7868  154.3931 N   0  0  0  0  0  0  0  0  0  0  0  0
  150.4399  138.5340  153.9543 C   0  0  0  0  0  0  0  0  0  0  0  0
  151.0912  137.2978  155.0093 S   0  0  0  0  0  0  0  0  0  0  0  0
  152.5020  141.7513  160.0920 C   0  0  0  0  0  0  0  0  0  0  0  0
  151.8823  142.6375  162.6985 H   0  0  0  0  0  0  0  0  0  0  0  0
  153.1797  143.8236  162.8247 H   0  0  0  0  0  0  0  0  0  0  0  0
  153.5644  142.1169  162.6408 H   0  0  0  0  0  0  0  0  0  0  0  0
  153.8937  143.3285  160.5056 H   0  0  0  0  0  0  0  0  0  0  0  0
  150.9261  144.0050  160.6949 H   0  0  0  0  0  0  0  0  0  0  0  0
  152.2451  145.1432  160.8272 H   0  0  0  0  0  0  0  0  0  0  0  0
  151.2535  145.1594  158.5375 H   0  0  0  0  0  0  0  0  0  0  0  0
  152.9387  144.6985  158.5010 H   0  0  0  0  0  0  0  0  0  0  0  0
  150.5456  142.8044  158.3552 H   0  0  0  0  0  0  0  0  0  0  0  0
  151.6323  143.1951  157.0434 H   0  0  0  0  0  0  0  0  0  0  0  0
  153.5232  142.1535  158.2307 H   0  0  0  0  0  0  0  0  0  0  0  0
  151.2495  140.7290  157.3421 H   0  0  0  0  0  0  0  0  0  0  0  0
  149.9661  138.3361  153.0045 H   0  0  0  0  0  0  0  0  0  0  0  0
  153.1984  140.9652  160.3868 H   0  0  0  0  0  0  0  0  0  0  0  0
  151.5143  141.4252  160.4215 H   0  0  0  0  0  0  0  0  0  0  0  0
  1  2  1  0  0  0  0
  1 17  1  0  0  0  0
  1 18  1  0  0  0  0
  1 19  1  0  0  0  0
  2 16  1  0  0  0  0
  2  3  1  0  0  0  0
  2 20  1  0  0  0  0
  3  4  1  0  0  0  0
  3 21  1  0  0  0  0
  3 22  1  0  0  0  0
  4  5  1  0  0  0  0
  4 23  1  0  0  0  0
  4 24  1  0  0  0  0
  5  6  1  0  0  0  0
  5 25  1  0  0  0  0
  5 26  1  0  0  0  0
  6  7  1  0  0  0  0
  6 16  1  0  0  0  0
  6 27  1  0  0  0  0
  7  8  1  0  0  0  0
  7 28  1  0  0  0  0
  8  9  2  0  0  0  0
  8 10  1  0  0  0  0
 10 11  1  0  0  0  0
 11 15  1  0  0  0  0
 11 12  2  0  0  0  0
 12 13  1  0  0  0  0
 13 14  2  0  0  0  0
 14 15  1  0  0  0  0
 14 29  1  0  0  0  0
 16 30  1  0  0  0  0
 16 31  1  0  0  0  0
M  CHG  1  10  -1
M  END
> <s_m_source_file>
AV-unprocessed.smi

> <i_m_source_file_index>
1749

> <i_lp_mmshare_version>
43012

> <i_f3d_flags>
0

> <s_epik_input>
W0NIM11bQ0BASF0xW0NIMl1bQ0gyXVtDSDJdW0NASF0oW0NIMl0xKVtOSF1DKD1PKVtOSF1jMm5uW2NIXXMy

> <s_epik_cmdline>
J2VwaWtfcHl0aG9uJywgJy1waCcsICc3LjAnLCAnLXRuJywgJzgnLCAnLW1hJywgJzIwMCcsICctbWV0YWxfYmluZGluZycsICctaW1hZScsICc8aW5maWxlLm1hZT4nLCAnLW9tYWUnLCAnPG91dGZpbGUubWFlPic=

> <r_lp_tautomer_probability>
1

> <r_epik_Ionization_Penalty>
4.55442

> <r_epik_Ionization_Penalty_Charging>
4.5081

> <r_epik_Ionization_Penalty_Neutral>
0.0463156

> <r_epik_State_Penalty>
4.50781

> <r_epik_Charging_Adjusted_Penalty>
9.01591

> <i_epik_Tot_Q>
-1

> <i_epik_Tot_abs_Q>
1

> <r_epik_Metal_State_Penalty>
0.823335

> <b_epik_Metal_Only>
1

> <s_lp_Force_Field>
OPLS_2005

> <r_lp_Energy>
8.86182

> <b_lp_Chiralities_Consistent>
1

> <s_lp_Variant>
AV-unprocessed.smi:1749-7

> <Gold.Version>
5.8.1

> <Gold.Id.Protein>
6NUR|6NUR_protein|mol2

> <Gold.PLP.Fitness>
44.7971

> <Gold.PLP.PLP>
-33.8464

> <Gold.PLP.part.hbond>
-2.0000

> <Gold.PLP.part.metal>
0.0000

> <Gold.PLP.part.buried>
-4.6166

> <Gold.PLP.part.nonpolar>
-27.5688

> <Gold.PLP.part.repulsive>
0.2119

> <Gold.PLP.ligand.clash>
0.0000

> <Gold.PLP.ligand.torsion>
0.2712

> <Gold.PLP.Chemscore.Hbond>
1.9500

> <Gold.PLP.Chemscore.CHOScore>
1.8793

> <Gold.PLP.Chemscore.Metal>
0.0000

> <Gold.Chemscore.Hbonds>
donor molecule, donor type, donor heavy atom, donor atom, acceptor molecule, acceptor atom, score
      P1  H  7989  7998       L1    13  0.95
      P1  H  7997  8008       L1     9  0.95
      L1  C    14    29       P1  7948  0.95
      L1  C    14    29       P1  7957  0.92

> <Gold.PLP.Chemscore.Internal.Correction>
0.0051

> <Gold.Rescore>
     Score         DG    S(hbond)    S(metal)    S(lipo)     H(rot)  DE(clash)    DE(int)     intcor
     14.38     -17.35       0.98        0.00      95.47       1.00       0.04       2.93       ----

> <Gold.Chemscore.Fitness>
14.3770

> <Gold.Chemscore.DG>
-17.3536

> <Gold.Chemscore.ZeroCoef>
-5.4800

> <Gold.Chemscore.Hbond>
0.9771

> <Gold.Chemscore.Metal>
0.0000

> <Gold.Chemscore.Lipo>
95.4712

> <Gold.Chemscore.Internal_Hbond>
0.0000

> <Gold.Chemscore.DEClash>
0.0450

> <Gold.Chemscore.DEInternal>
2.9316

> <Gold.Chemscore.Rot>
1.0000

> <Gold.Chemscore.Internal.Correction>
   9.000000E+99

> <Gold.Chemscore.Hbonds>
donor molecule, donor type, donor heavy atom, donor atom, acceptor molecule, acceptor atom, score
      P1  H  7989  7998       L1    13  0.20
      P1  H  7997  8008       L1     9  0.20

> <Gold.Chemscore.Hbond.Weighted>
-3.2635

> <Gold.Chemscore.Metal.Weighted>
-0.0000

> <Gold.Chemscore.Lipo.Weighted>
-11.1701

> <Gold.Chemscore.Internal_Hbond.Weighted>
0.0000

> <Gold.Chemscore.DEClash.Weighted>
0.0450

> <Gold.Chemscore.DEInternal.Weighted>
2.9316

> <Gold.Chemscore.Rot.Weighted>
2.5600

> <Gold.Chemscore.Internal.Correction.Weighted>
   9.000000E+99

> <Gold.Protein.RotatedTorsions>
[ 6907 6896 6895 6894 ] final   53.51 input  -60.11 | X-H torsion
[ 7974 7965 7964 7962 ] final  -20.54 input  175.53 | X-H torsion
[ 8008 7997 7996 7995 ] final -119.08 input   59.86 | X-H torsion
[ 10167 10162 10161 10158 ] final    7.62 input  -65.29 | X-H torsion
[ 10718 10713 10712 10709 ] final   49.93 input   66.30 | X-H torsion
[ 10763 10752 10751 10750 ] final  -79.64 input  -60.55 | X-H torsion
[ 11005 11000 10999 10996 ] final  -77.69 input  -57.11 | X-H torsion

> <Gold.Protein.ActiveResidues>
 VAL166  LYS551  ARG553  GLY616  TRP617  ASP618  TYR619  PRO620  LYS621  CYS622 
 ASP623  PHE694  ASN695  SER759  ASP760  ASP761  ALA762  ILE779  LEU786  VAL792 
 PHE793  MET794  SER795  GLU796  ALA797  LYS798  CYS799  TRP800  GLU811  SER814 

> <Gold.Protein.RotatedAtoms>
  152.3344  134.7217  160.0280 H   0  0  0  0  0  0  0  0  0  0  0  0  # atno 6907 bound_to 6896
  151.7623  133.3329  159.3429 H   0  0  0  0  0  0  0  0  0  0  0  0  # atno 6908 bound_to 6896
  150.7442  134.6026  159.6089 H   0  0  0  0  0  0  0  0  0  0  0  0  # atno 6909 bound_to 6896
  146.1782  140.4216  142.8505 H   0  0  0  0  0  0  0  0  0  0  0  0  # atno 7974 bound_to 7965
  155.1100  140.0397  157.2721 H   0  0  0  0  0  0  0  0  0  0  0  0  # atno 8008 bound_to 7997
  154.6692  140.2608  155.6999 H   0  0  0  0  0  0  0  0  0  0  0  0  # atno 8009 bound_to 7997
  156.2651  140.2801  156.1195 H   0  0  0  0  0  0  0  0  0  0  0  0  # atno 8010 bound_to 7997
  140.6361  143.7883  150.7361 H   0  0  0  0  0  0  0  0  0  0  0  0  # atno 10167 bound_to 10162
  157.4835  130.8330  149.8120 H   0  0  0  0  0  0  0  0  0  0  0  0  # atno 10718 bound_to 10713
  154.5411  135.5689  153.6840 H   0  0  0  0  0  0  0  0  0  0  0  0  # atno 10763 bound_to 10752
  152.9964  135.6228  154.2500 H   0  0  0  0  0  0  0  0  0  0  0  0  # atno 10764 bound_to 10752
  154.2431  135.2861  155.2825 H   0  0  0  0  0  0  0  0  0  0  0  0  # atno 10765 bound_to 10752
  141.1661  133.7032  156.7859 H   0  0  0  0  0  0  0  0  0  0  0  0  # atno 11005 bound_to 11000
  144.8271  140.6647  143.6315 LP  0  0  0  0  0  0  0  0  0  0  0  0  # atno 17320 bound_to 7965
  145.4151  139.1573  143.4105 LP  0  0  0  0  0  0  0  0  0  0  0  0  # atno 17321 bound_to 7965
  140.1504  143.4362  152.2135 LP  0  0  0  0  0  0  0  0  0  0  0  0  # atno 17342 bound_to 10162
  139.5571  144.7380  151.4261 LP  0  0  0  0  0  0  0  0  0  0  0  0  # atno 17343 bound_to 10162
  156.0134  130.3823  150.2189 LP  0  0  0  0  0  0  0  0  0  0  0  0  # atno 17370 bound_to 10713
  157.0376  131.0026  151.3293 LP  0  0  0  0  0  0  0  0  0  0  0  0  # atno 17371 bound_to 10713
  140.2361  134.8649  157.3526 LP  0  0  0  0  0  0  0  0  0  0  0  0  # atno 17394 bound_to 11000
  140.1842  134.4451  155.7753 LP  0  0  0  0  0  0  0  0  0  0  0  0  # atno 17395 bound_to 11000

$$$$
