AV-unprocessed.smi:1656|AV-procd|sdf|6646|dock9
  -GOLD-   22720 7353D 1   1.00000     0.00000
 Structure written by MMmdl.
 49 52  0  0  0  0  0  0  0  0  1 V2000
  143.6840  145.1128  156.4052 C   0  0  0  0  0  0  0  0  0  0  0  0
  144.2232  143.9453  157.1871 C   0  0  0  0  0  0  0  0  0  0  0  0
  145.3369  143.4348  156.7753 N   0  0  0  0  0  0  0  0  0  0  0  0
  145.9219  142.3653  157.4256 N   0  0  0  0  0  0  0  0  0  0  0  0
  147.2043  141.9379  156.8470 C   0  0  0  0  0  0  0  0  0  0  0  0
  148.3753  142.0561  157.8332 C   0  0  0  0  0  0  0  0  0  0  0  0
  148.5329  141.2116  158.7155 O   0  0  0  0  0  0  0  0  0  0  0  0
  149.1733  143.1253  157.6691 N   0  0  0  0  0  0  0  0  0  0  0  0
  150.3702  143.4906  158.4342 C   0  0  0  0  0  0  0  0  0  0  0  0
  151.2506  142.2498  158.7480 C   0  0  0  0  0  0  0  0  0  0  0  0
  152.4642  142.6712  159.6050 C   0  0  1  0  0  0  0  0  0  0  0  0
  153.3023  143.7155  158.8356 C   0  0  0  0  0  0  0  0  0  0  0  0
  152.4340  144.9596  158.5468 C   0  0  2  0  0  0  0  0  0  0  0  0
  151.9438  145.5689  159.8766 C   0  0  0  0  0  0  0  0  0  0  0  0
  151.1064  144.5198  160.6370 C   0  0  2  0  0  0  0  0  0  0  0  0
  151.9738  143.2795  160.9354 C   0  0  0  0  0  0  0  0  0  0  0  0
  149.8947  144.1051  159.7757 C   0  0  0  0  0  0  0  0  0  0  0  0
  151.2206  144.5522  157.6833 C   0  0  0  0  0  0  0  0  0  0  0  0
  145.3987  141.7415  158.5206 C   0  0  0  0  0  0  0  0  0  0  0  0
  145.9493  140.7815  159.0621 O   0  0  0  0  0  0  0  0  0  0  0  0
  144.1373  142.3254  158.9816 C   0  0  0  0  0  0  0  0  0  0  0  0
  143.5620  141.7100  160.1339 C   0  0  0  0  0  0  0  0  0  0  0  0
  143.1023  141.2262  161.0799 N   0  0  0  0  0  0  0  0  0  0  0  0
  143.5584  143.3819  158.3577 C   0  0  0  0  0  0  0  0  0  0  0  0
  142.2517  144.0268  158.7989 C   0  0  0  0  0  0  0  0  0  0  0  0
  142.7252  144.8634  155.9505 H   0  0  0  0  0  0  0  0  0  0  0  0
  144.3609  145.4136  155.6041 H   0  0  0  0  0  0  0  0  0  0  0  0
  143.5380  145.9780  157.0520 H   0  0  0  0  0  0  0  0  0  0  0  0
  147.1243  140.9103  156.4866 H   0  0  0  0  0  0  0  0  0  0  0  0
  147.4430  142.5385  155.9676 H   0  0  0  0  0  0  0  0  0  0  0  0
  148.9371  143.7506  156.9123 H   0  0  0  0  0  0  0  0  0  0  0  0
  150.6670  141.4927  159.2736 H   0  0  0  0  0  0  0  0  0  0  0  0
  151.6079  141.7783  157.8325 H   0  0  0  0  0  0  0  0  0  0  0  0
  153.0800  141.7958  159.8133 H   0  0  0  0  0  0  0  0  0  0  0  0
  154.1820  143.9960  159.4161 H   0  0  0  0  0  0  0  0  0  0  0  0
  153.6723  143.2889  157.9024 H   0  0  0  0  0  0  0  0  0  0  0  0
  153.0278  145.6986  158.0081 H   0  0  0  0  0  0  0  0  0  0  0  0
  152.7928  145.8873  160.4829 H   0  0  0  0  0  0  0  0  0  0  0  0
  151.3483  146.4628  159.6863 H   0  0  0  0  0  0  0  0  0  0  0  0
  150.7540  144.9493  161.5752 H   0  0  0  0  0  0  0  0  0  0  0  0
  151.3998  142.5434  161.4994 H   0  0  0  0  0  0  0  0  0  0  0  0
  152.8235  143.5541  161.5618 H   0  0  0  0  0  0  0  0  0  0  0  0
  149.2598  144.9730  159.5911 H   0  0  0  0  0  0  0  0  0  0  0  0
  149.2808  143.3890  160.3241 H   0  0  0  0  0  0  0  0  0  0  0  0
  151.5759  144.1673  156.7274 H   0  0  0  0  0  0  0  0  0  0  0  0
  150.6148  145.4297  157.4524 H   0  0  0  0  0  0  0  0  0  0  0  0
  141.7990  143.5077  159.6430 H   0  0  0  0  0  0  0  0  0  0  0  0
  141.5252  144.0211  157.9858 H   0  0  0  0  0  0  0  0  0  0  0  0
  142.4214  145.0606  159.1015 H   0  0  0  0  0  0  0  0  0  0  0  0
  1  2  1  0  0  0  0
  1 26  1  0  0  0  0
  1 27  1  0  0  0  0
  1 28  1  0  0  0  0
  2 24  1  0  0  0  0
  2  3  2  0  0  0  0
  3  4  1  0  0  0  0
  4  5  1  0  0  0  0
  4 19  1  0  0  0  0
  5  6  1  0  0  0  0
  5 29  1  0  0  0  0
  5 30  1  0  0  0  0
  6  7  2  0  0  0  0
  6  8  1  0  0  0  0
  8  9  1  0  0  0  0
  8 31  1  0  0  0  0
  9 17  1  0  0  0  0
  9 18  1  0  0  0  0
  9 10  1  0  0  0  0
 10 11  1  0  0  0  0
 10 32  1  0  0  0  0
 10 33  1  0  0  0  0
 11 16  1  0  0  0  0
 11 12  1  0  0  0  0
 11 34  1  0  0  0  0
 12 13  1  0  0  0  0
 12 35  1  0  0  0  0
 12 36  1  0  0  0  0
 13 14  1  0  0  0  0
 13 18  1  0  0  0  0
 13 37  1  0  0  0  0
 14 15  1  0  0  0  0
 14 38  1  0  0  0  0
 14 39  1  0  0  0  0
 15 16  1  0  0  0  0
 15 17  1  0  0  0  0
 15 40  1  0  0  0  0
 16 41  1  0  0  0  0
 16 42  1  0  0  0  0
 17 43  1  0  0  0  0
 17 44  1  0  0  0  0
 18 45  1  0  0  0  0
 18 46  1  0  0  0  0
 19 20  2  0  0  0  0
 19 21  1  0  0  0  0
 21 22  1  0  0  0  0
 21 24  2  0  0  0  0
 22 23  3  0  0  0  0
 24 25  1  0  0  0  0
 25 47  1  0  0  0  0
 25 48  1  0  0  0  0
 25 49  1  0  0  0  0
M  END
> <s_m_source_file>
AV-unprocessed.smi

> <i_m_source_file_index>
1656

> <i_lp_mmshare_version>
43012

> <i_f3d_flags>
0

> <s_epik_input>
TiNDYyhjMVtDSDNdKWMoPU8pbihuYzFbQ0gzXSlbQ0gyXUMoPU8pW05IXUMyM1tDSDJdW0NASF00W0NIMl1bQ0BASF0oW0NIMl0zKVtDSDJdW0NASF0oW0NIMl00KVtDSDJdMg==

> <s_epik_cmdline>
J2VwaWtfcHl0aG9uJywgJy1waCcsICc3LjAnLCAnLXRuJywgJzgnLCAnLW1hJywgJzIwMCcsICctbWV0YWxfYmluZGluZycsICctaW1hZScsICc8aW5maWxlLm1hZT4nLCAnLW9tYWUnLCAnPG91dGZpbGUubWFlPic=

> <r_lp_tautomer_probability>
1

> <r_epik_Ionization_Penalty>
2.33831e-08

> <r_epik_Ionization_Penalty_Charging>
2.51001e-11

> <r_epik_Ionization_Penalty_Neutral>
2.3358e-08

> <r_epik_State_Penalty>
-0

> <r_epik_Charging_Adjusted_Penalty>
2.51001e-11

> <i_epik_Tot_Q>
0

> <i_epik_Tot_abs_Q>
0

> <r_epik_Metal_State_Penalty>
-0

> <b_epik_Metal_Only>
0

> <s_lp_Force_Field>
OPLS_2005

> <r_lp_Energy>
45.1543

> <b_lp_Chiralities_Consistent>
1

> <s_lp_Variant>
AV-unprocessed.smi:1656-1

> <Gold.Version>
5.8.1

> <Gold.Id.Protein>
6NUR|6NUR_protein|mol2

> <Gold.PLP.Fitness>
43.6270

> <Gold.PLP.PLP>
-38.9970

> <Gold.PLP.part.hbond>
-5.7980

> <Gold.PLP.part.metal>
0.0000

> <Gold.PLP.part.buried>
-1.2881

> <Gold.PLP.part.nonpolar>
-32.9358

> <Gold.PLP.part.repulsive>
0.2318

> <Gold.PLP.ligand.clash>
0.0000

> <Gold.PLP.ligand.torsion>
0.6123

> <Gold.PLP.Chemscore.Hbond>
1.9500

> <Gold.PLP.Chemscore.CHOScore>
0.0000

> <Gold.PLP.Chemscore.Metal>
0.0000

> <Gold.Chemscore.Hbonds>
donor molecule, donor type, donor heavy atom, donor atom, acceptor molecule, acceptor atom, score
      L1  H     8    31       P1  8028  1.00
      P1  H  6934  6946       L1    20  0.48

> <Gold.PLP.Chemscore.Internal.Correction>
0.0045

> <Gold.Rescore>
     Score         DG    S(hbond)    S(metal)    S(lipo)     H(rot)  DE(clash)    DE(int)     intcor
     18.58     -22.09       1.71        0.00     124.75       1.44       1.80       1.70       ----

> <Gold.Chemscore.Fitness>
18.5817

> <Gold.Chemscore.DG>
-22.0877

> <Gold.Chemscore.ZeroCoef>
-5.4800

> <Gold.Chemscore.Hbond>
1.7093

> <Gold.Chemscore.Metal>
0.0000

> <Gold.Chemscore.Lipo>
124.7498

> <Gold.Chemscore.Internal_Hbond>
0.0000

> <Gold.Chemscore.DEClash>
1.8015

> <Gold.Chemscore.DEInternal>
1.7044

> <Gold.Chemscore.Rot>
1.4442

> <Gold.Chemscore.Internal.Correction>
   9.000000E+99

> <Gold.Chemscore.Hbonds>
donor molecule, donor type, donor heavy atom, donor atom, acceptor molecule, acceptor atom, score
      L1  H     8    31       P1  8028  0.38
      P1  H  6934  6946       L1    20  0.48

> <Gold.Chemscore.Hbond.Weighted>
-5.7091

> <Gold.Chemscore.Metal.Weighted>
-0.0000

> <Gold.Chemscore.Lipo.Weighted>
-14.5957

> <Gold.Chemscore.Internal_Hbond.Weighted>
0.0000

> <Gold.Chemscore.DEClash.Weighted>
1.8015

> <Gold.Chemscore.DEInternal.Weighted>
1.7044

> <Gold.Chemscore.Rot.Weighted>
3.6971

> <Gold.Chemscore.Internal.Correction.Weighted>
   9.000000E+99

> <Gold.Protein.RotatedTorsions>
[ 6907 6896 6895 6894 ] final    2.21 input  -60.11 | X-H torsion
[ 7974 7965 7964 7962 ] final  142.76 input  175.53 | X-H torsion
[ 8008 7997 7996 7995 ] final  -41.29 input   59.86 | X-H torsion
[ 10167 10162 10161 10158 ] final   68.89 input  -65.29 | X-H torsion
[ 10718 10713 10712 10709 ] final   97.29 input   66.30 | X-H torsion
[ 10763 10752 10751 10750 ] final    1.85 input  -60.55 | X-H torsion
[ 11005 11000 10999 10996 ] final -145.61 input  -57.11 | X-H torsion

> <Gold.Protein.ActiveResidues>
 VAL166  LYS551  ARG553  GLY616  TRP617  ASP618  TYR619  PRO620  LYS621  CYS622 
 ASP623  PHE694  ASN695  SER759  ASP760  ASP761  ALA762  ILE779  LEU786  VAL792 
 PHE793  MET794  SER795  GLU796  ALA797  LYS798  CYS799  TRP800  GLU811  SER814 

> <Gold.Protein.RotatedAtoms>
  151.6052  135.1044  160.0068 H   0  0  0  0  0  0  0  0  0  0  0  0  # atno 6907 bound_to 6896
  152.4237  133.7155  159.6514 H   0  0  0  0  0  0  0  0  0  0  0  0  # atno 6908 bound_to 6896
  150.8125  133.8324  159.3198 H   0  0  0  0  0  0  0  0  0  0  0  0  # atno 6909 bound_to 6896
  144.8980  139.5463  143.5767 H   0  0  0  0  0  0  0  0  0  0  0  0  # atno 7974 bound_to 7965
  154.4005  140.1503  156.3166 H   0  0  0  0  0  0  0  0  0  0  0  0  # atno 8008 bound_to 7997
  155.8567  140.3455  155.5708 H   0  0  0  0  0  0  0  0  0  0  0  0  # atno 8009 bound_to 7997
  155.7925  140.0858  157.1992 H   0  0  0  0  0  0  0  0  0  0  0  0  # atno 8010 bound_to 7997
  140.0738  144.5130  150.7209 H   0  0  0  0  0  0  0  0  0  0  0  0  # atno 10167 bound_to 10162
  157.6914  131.0605  150.4622 H   0  0  0  0  0  0  0  0  0  0  0  0  # atno 10718 bound_to 10713
  153.3029  135.6957  153.7186 H   0  0  0  0  0  0  0  0  0  0  0  0  # atno 10763 bound_to 10752
  153.6094  135.3447  155.2974 H   0  0  0  0  0  0  0  0  0  0  0  0  # atno 10764 bound_to 10752
  154.8555  135.4359  154.2145 H   0  0  0  0  0  0  0  0  0  0  0  0  # atno 10765 bound_to 10752
  140.7905  134.2974  157.5015 H   0  0  0  0  0  0  0  0  0  0  0  0  # atno 11005 bound_to 11000
  146.3092  139.7686  142.9033 LP  0  0  0  0  0  0  0  0  0  0  0  0  # atno 17320 bound_to 7965
  145.3666  141.0335  143.3254 LP  0  0  0  0  0  0  0  0  0  0  0  0  # atno 17321 bound_to 7965
  140.7112  143.2507  151.4575 LP  0  0  0  0  0  0  0  0  0  0  0  0  # atno 17342 bound_to 10162
  139.5820  144.1688  152.1980 LP  0  0  0  0  0  0  0  0  0  0  0  0  # atno 17343 bound_to 10162
  156.4965  130.4107  149.6377 LP  0  0  0  0  0  0  0  0  0  0  0  0  # atno 17370 bound_to 10713
  156.3368  130.7361  151.2299 LP  0  0  0  0  0  0  0  0  0  0  0  0  # atno 17371 bound_to 10713
  139.8732  134.9372  156.3680 LP  0  0  0  0  0  0  0  0  0  0  0  0  # atno 17394 bound_to 11000
  140.9394  133.7525  156.0127 LP  0  0  0  0  0  0  0  0  0  0  0  0  # atno 17395 bound_to 11000

$$$$
