AV-unprocessed.smi:1535|AV-procd|sdf|6177|dock2
  -GOLD-   22720 6333D 1   1.00000     0.00000
 Structure written by MMmdl.
 47 48  0  0  0  0  0  0  0  0  2 V2000
  152.2474  143.4948  160.6791 C   0  0  0  0  0  0  0  0  0  0  0  0
  152.0594  142.5901  159.4732 C   0  0  0  0  0  0  0  0  0  0  0  0
  151.1513  142.9879  158.4667 C   0  0  0  0  0  0  0  0  0  0  0  0
  151.0006  142.1391  157.3768 C   0  0  0  0  0  0  0  0  0  0  0  0
  150.1961  142.2480  156.2409 N   0  3  0  0  0  0  0  0  0  0  0  0
  150.3865  141.1610  155.4437 C   0  0  0  0  0  0  0  0  0  0  0  0
  151.2921  140.3526  156.0596 N   0  0  0  0  0  0  0  0  0  0  0  0
  151.8265  139.0560  155.6217 C   0  0  0  0  0  0  0  0  0  0  0  0
  150.9390  138.3448  154.5745 C   0  0  1  0  0  0  0  0  0  0  0  0
  151.6740  137.2190  154.1409 O   0  0  0  0  0  0  0  0  0  0  0  0
  149.5733  137.8461  155.1132 C   0  0  0  0  0  0  0  0  0  0  0  0
  149.6112  136.6451  155.9529 N   0  0  0  0  0  0  0  0  0  0  0  0
  149.9461  137.0142  157.3245 C   0  0  0  0  0  0  0  0  0  0  0  0
  148.3536  135.8972  155.9014 C   0  0  0  0  0  0  0  0  0  0  0  0
  148.4776  134.3630  155.9051 C   0  0  1  0  0  0  0  0  0  0  0  0
  149.3685  133.8875  154.7502 C   0  0  0  0  0  0  0  0  0  0  0  0
  148.9887  133.8655  157.1929 C   0  0  0  0  0  0  0  0  0  0  0  0
  149.3917  133.4749  158.2045 N   0  0  0  0  0  0  0  0  0  0  0  0
  151.7149  140.9295  157.2639 C   0  0  0  0  0  0  0  0  0  0  0  0
  152.6176  140.5266  158.2459 C   0  0  0  0  0  0  0  0  0  0  0  0
  152.7817  141.3739  159.3646 C   0  0  0  0  0  0  0  0  0  0  0  0
  153.7519  140.9528  160.4552 C   0  0  0  0  0  0  0  0  0  0  0  0
  151.6574  144.4074  160.5898 H   0  0  0  0  0  0  0  0  0  0  0  0
  153.2934  143.7849  160.7820 H   0  0  0  0  0  0  0  0  0  0  0  0
  151.9378  142.9846  161.5915 H   0  0  0  0  0  0  0  0  0  0  0  0
  150.5974  143.9124  158.5422 H   0  0  0  0  0  0  0  0  0  0  0  0
  149.8979  140.9679  154.4993 H   0  0  0  0  0  0  0  0  0  0  0  0
  152.8066  139.2642  155.1896 H   0  0  0  0  0  0  0  0  0  0  0  0
  152.0108  138.4199  156.4873 H   0  0  0  0  0  0  0  0  0  0  0  0
  150.8039  138.9845  153.7015 H   0  0  0  0  0  0  0  0  0  0  0  0
  151.3757  136.9811  153.2761 H   0  0  0  0  0  0  0  0  0  0  0  0
  149.1255  138.6528  155.6967 H   0  0  0  0  0  0  0  0  0  0  0  0
  148.8782  137.6925  154.2888 H   0  0  0  0  0  0  0  0  0  0  0  0
  150.0963  136.1338  157.9480 H   0  0  0  0  0  0  0  0  0  0  0  0
  149.1604  137.6239  157.7727 H   0  0  0  0  0  0  0  0  0  0  0  0
  150.8754  137.5842  157.3569 H   0  0  0  0  0  0  0  0  0  0  0  0
  147.7120  136.2090  156.7267 H   0  0  0  0  0  0  0  0  0  0  0  0
  147.8250  136.1567  154.9878 H   0  0  0  0  0  0  0  0  0  0  0  0
  147.4961  133.9116  155.7664 H   0  0  0  0  0  0  0  0  0  0  0  0
  149.4407  132.7996  154.7352 H   0  0  0  0  0  0  0  0  0  0  0  0
  150.3790  134.2872  154.8409 H   0  0  0  0  0  0  0  0  0  0  0  0
  148.9684  134.2059  153.7870 H   0  0  0  0  0  0  0  0  0  0  0  0
  153.1706  139.6025  158.1682 H   0  0  0  0  0  0  0  0  0  0  0  0
  154.2010  139.9832  160.2376 H   0  0  0  0  0  0  0  0  0  0  0  0
  153.2396  140.8731  161.4143 H   0  0  0  0  0  0  0  0  0  0  0  0
  154.5585  141.6798  160.5515 H   0  0  0  0  0  0  0  0  0  0  0  0
  149.5647  143.0079  156.0216 H   0  0  0  0  0  0  0  0  0  0  0  0
  1  2  1  0  0  0  0
  1 23  1  0  0  0  0
  1 24  1  0  0  0  0
  1 25  1  0  0  0  0
  2 21  1  0  0  0  0
  2  3  2  0  0  0  0
  3  4  1  0  0  0  0
  3 26  1  0  0  0  0
  4 19  2  0  0  0  0
  4  5  1  0  0  0  0
  5  6  2  0  0  0  0
  5 47  1  0  0  0  0
  6  7  1  0  0  0  0
  6 27  1  0  0  0  0
  7  8  1  0  0  0  0
  7 19  1  0  0  0  0
  8  9  1  0  0  0  0
  8 28  1  0  0  0  0
  8 29  1  0  0  0  0
  9 10  1  0  0  0  0
  9 11  1  0  0  0  0
  9 30  1  0  0  0  0
 10 31  1  0  0  0  0
 11 12  1  0  0  0  0
 11 32  1  0  0  0  0
 11 33  1  0  0  0  0
 12 13  1  0  0  0  0
 12 14  1  0  0  0  0
 13 34  1  0  0  0  0
 13 35  1  0  0  0  0
 13 36  1  0  0  0  0
 14 15  1  0  0  0  0
 14 37  1  0  0  0  0
 14 38  1  0  0  0  0
 15 16  1  0  0  0  0
 15 17  1  0  0  0  0
 15 39  1  0  0  0  0
 16 40  1  0  0  0  0
 16 41  1  0  0  0  0
 16 42  1  0  0  0  0
 17 18  3  0  0  0  0
 19 20  1  0  0  0  0
 20 21  2  0  0  0  0
 20 43  1  0  0  0  0
 21 22  1  0  0  0  0
 22 44  1  0  0  0  0
 22 45  1  0  0  0  0
 22 46  1  0  0  0  0
M  CHG  1   5   1
M  END
> <s_m_source_file>
AV-unprocessed.smi

> <i_m_source_file_index>
1535

> <i_lp_mmshare_version>
43012

> <i_f3d_flags>
0

> <s_epik_input>
W0NIM11jKFtjSF0xKWMoW0NIM10pW2NIXWMoYzEyKW4oW2NIXW4yKVtDSDJdW0NASF0oW09IXSlbQ0gyXU4oW0NIM10pW0NIMl1bQ0BIXShbQ0gzXSlDI04=

> <s_epik_cmdline>
J2VwaWtfcHl0aG9uJywgJy1waCcsICc3LjAnLCAnLXRuJywgJzgnLCAnLW1hJywgJzIwMCcsICctbWV0YWxfYmluZGluZycsICctaW1hZScsICc8aW5maWxlLm1hZT4nLCAnLW9tYWUnLCAnPG91dGZpbGUubWFlPic=

> <r_epik_Ionization_Penalty>
1.22846

> <r_epik_Ionization_Penalty_Charging>
1.21333

> <r_epik_Ionization_Penalty_Neutral>
0.0151341

> <r_epik_State_Penalty>
1.27012

> <r_epik_Charging_Adjusted_Penalty>
2.48344

> <i_epik_Tot_Q>
1

> <i_epik_Tot_abs_Q>
1

> <r_epik_Metal_State_Penalty>
5.28751

> <b_epik_Metal_Only>
0

> <s_lp_Force_Field>
OPLS_2005

> <r_lp_Energy>
29.5902

> <b_lp_Chiralities_Consistent>
1

> <s_lp_Variant>
AV-unprocessed.smi:1535-8

> <Gold.Version>
5.8.1

> <Gold.Id.Protein>
6NUR|6NUR_protein|mol2

> <Gold.PLP.Fitness>
52.9873

> <Gold.PLP.PLP>
-40.6771

> <Gold.PLP.part.hbond>
-4.0000

> <Gold.PLP.part.metal>
0.0000

> <Gold.PLP.part.buried>
-4.7046

> <Gold.PLP.part.nonpolar>
-31.9870

> <Gold.PLP.part.repulsive>
0.1514

> <Gold.PLP.ligand.clash>
0.0000

> <Gold.PLP.ligand.torsion>
1.2352

> <Gold.PLP.Chemscore.Hbond>
4.8345

> <Gold.PLP.Chemscore.CHOScore>
0.0000

> <Gold.PLP.Chemscore.Metal>
0.0000

> <Gold.Chemscore.Hbonds>
donor molecule, donor type, donor heavy atom, donor atom, acceptor molecule, acceptor atom, score
      L1  H     5    47       P1  8028  2.00
      L1  H    10    31       P1  7949  0.94
      P1  H  6896  6909       L1    18  0.85
      P1  H 10752 10763       L1    10  0.75

> <Gold.PLP.Chemscore.Internal.Correction>
0.2773

> <Gold.Rescore>
     Score         DG    S(hbond)    S(metal)    S(lipo)     H(rot)  DE(clash)    DE(int)     intcor
     19.79     -21.56       3.16        0.00     103.91       2.59       0.48       1.30       ----

> <Gold.Chemscore.Fitness>
19.7885

> <Gold.Chemscore.DG>
-21.5596

> <Gold.Chemscore.ZeroCoef>
-5.4800

> <Gold.Chemscore.Hbond>
3.1608

> <Gold.Chemscore.Metal>
0.0000

> <Gold.Chemscore.Lipo>
103.9124

> <Gold.Chemscore.Internal_Hbond>
0.0000

> <Gold.Chemscore.DEClash>
0.4756

> <Gold.Chemscore.DEInternal>
1.2955

> <Gold.Chemscore.Rot>
2.5918

> <Gold.Chemscore.Internal.Correction>
   9.000000E+99

> <Gold.Chemscore.Hbonds>
donor molecule, donor type, donor heavy atom, donor atom, acceptor molecule, acceptor atom, score
      L1  H     5    47       P1  8028  1.00
      L1  H    10    31       P1  7949  0.70
      P1  H  6896  6909       L1    18  0.83
      P1  H 10752 10763       L1    10  0.09

> <Gold.Chemscore.Hbond.Weighted>
-10.5569

> <Gold.Chemscore.Metal.Weighted>
-0.0000

> <Gold.Chemscore.Lipo.Weighted>
-12.1577

> <Gold.Chemscore.Internal_Hbond.Weighted>
0.0000

> <Gold.Chemscore.DEClash.Weighted>
0.4756

> <Gold.Chemscore.DEInternal.Weighted>
1.2955

> <Gold.Chemscore.Rot.Weighted>
6.6351

> <Gold.Chemscore.Internal.Correction.Weighted>
   9.000000E+99

> <Gold.Protein.RotatedTorsions>
[ 6907 6896 6895 6894 ] final  -20.87 input  -60.11 | X-H torsion
[ 7974 7965 7964 7962 ] final   59.80 input  175.53 | X-H torsion
[ 8008 7997 7996 7995 ] final -149.47 input   59.86 | X-H torsion
[ 10167 10162 10161 10158 ] final  -49.69 input  -65.29 | X-H torsion
[ 10718 10713 10712 10709 ] final -141.16 input   66.30 | X-H torsion
[ 10763 10752 10751 10750 ] final   43.60 input  -60.55 | X-H torsion
[ 11005 11000 10999 10996 ] final   80.08 input  -57.11 | X-H torsion

> <Gold.Protein.ActiveResidues>
 VAL166  LYS551  ARG553  GLY616  TRP617  ASP618  TYR619  PRO620  LYS621  CYS622 
 ASP623  PHE694  ASN695  SER759  ASP760  ASP761  ALA762  ILE779  LEU786  VAL792 
 PHE793  MET794  SER795  GLU796  ALA797  LYS798  CYS799  TRP800  GLU811  SER814 

> <Gold.Protein.RotatedAtoms>
  151.2418  135.0591  159.9027 H   0  0  0  0  0  0  0  0  0  0  0  0  # atno 6907 bound_to 6896
  152.5392  134.0426  159.8084 H   0  0  0  0  0  0  0  0  0  0  0  0  # atno 6908 bound_to 6896
  151.0621  133.5486  159.2665 H   0  0  0  0  0  0  0  0  0  0  0  0  # atno 6909 bound_to 6896
  145.9032  139.3597  143.0580 H   0  0  0  0  0  0  0  0  0  0  0  0  # atno 7974 bound_to 7965
  155.6081  140.0669  157.2714 H   0  0  0  0  0  0  0  0  0  0  0  0  # atno 8008 bound_to 7997
  154.4260  140.1806  156.1291 H   0  0  0  0  0  0  0  0  0  0  0  0  # atno 8009 bound_to 7997
  156.0106  140.3327  155.6940 H   0  0  0  0  0  0  0  0  0  0  0  0  # atno 8010 bound_to 7997
  140.6673  143.2687  151.4251 H   0  0  0  0  0  0  0  0  0  0  0  0  # atno 10167 bound_to 10162
  156.3308  130.7585  151.1702 H   0  0  0  0  0  0  0  0  0  0  0  0  # atno 10718 bound_to 10713
  152.9857  135.6096  154.3138 H   0  0  0  0  0  0  0  0  0  0  0  0  # atno 10763 bound_to 10752
  154.2852  135.2776  155.2681 H   0  0  0  0  0  0  0  0  0  0  0  0  # atno 10764 bound_to 10752
  154.5002  135.5869  153.6582 H   0  0  0  0  0  0  0  0  0  0  0  0  # atno 10765 bound_to 10752
  139.9148  134.7893  156.1863 H   0  0  0  0  0  0  0  0  0  0  0  0  # atno 11005 bound_to 11000
  145.8765  140.9388  143.0623 LP  0  0  0  0  0  0  0  0  0  0  0  0  # atno 17320 bound_to 7965
  144.6737  140.0723  143.7472 LP  0  0  0  0  0  0  0  0  0  0  0  0  # atno 17321 bound_to 7965
  139.5927  144.1464  152.2107 LP  0  0  0  0  0  0  0  0  0  0  0  0  # atno 17342 bound_to 10162
  140.0824  144.5690  150.7113 LP  0  0  0  0  0  0  0  0  0  0  0  0  # atno 17343 bound_to 10162
  157.7430  131.0482  150.4982 LP  0  0  0  0  0  0  0  0  0  0  0  0  # atno 17370 bound_to 10713
  156.5147  130.4148  149.6282 LP  0  0  0  0  0  0  0  0  0  0  0  0  # atno 17371 bound_to 10713
  141.0611  133.6841  156.1955 LP  0  0  0  0  0  0  0  0  0  0  0  0  # atno 17394 bound_to 11000
  140.6659  134.4919  157.5585 LP  0  0  0  0  0  0  0  0  0  0  0  0  # atno 17395 bound_to 11000

$$$$
