AV-unprocessed.smi:3091|AV-procd|sdf|11780|dock10
  -GOLD-   2272017163D 1   1.00000     0.00000
 Structure written by MMmdl.
 28 29  0  0  0  0  0  0  0  0  1 V2000
  149.2318  140.7700  153.6562 N   0  0  0  0  0  0  0  0  0  0  0  0
  149.2688  141.1913  155.0417 C   0  0  0  0  0  0  0  0  0  0  0  0
  150.4420  140.5943  155.7896 C   0  0  0  0  0  0  0  0  0  0  0  0
  151.2495  139.6091  155.1876 C   0  0  0  0  0  0  0  0  0  0  0  0
  152.3227  139.0785  155.9290 C   0  0  0  0  0  0  0  0  0  0  0  0
  152.6153  139.4653  157.1888 N   0  0  0  0  0  0  0  0  0  0  0  0
  151.8342  140.4103  157.7698 C   0  0  0  0  0  0  0  0  0  0  0  0
  152.1172  140.8169  159.0587 O   0  0  0  0  0  0  0  0  0  0  0  0
  153.2024  141.7170  159.2932 C   0  0  2  0  0  0  0  0  0  0  0  0
  153.5263  141.8089  160.7788 C   0  0  0  0  0  0  0  0  0  0  0  0
  152.5787  142.9003  161.2528 C   0  0  0  0  0  0  0  0  0  0  0  0
  152.6247  143.8412  160.1938 O   0  0  0  0  0  0  0  0  0  0  0  0
  152.7202  143.1368  158.9592 C   0  0  0  0  0  0  0  0  0  0  0  0
  150.7383  140.9998  157.1068 C   0  0  0  0  0  0  0  0  0  0  0  0
  149.8818  140.0093  153.5181 H   0  0  0  0  0  0  0  0  0  0  0  0
  148.3141  140.4131  153.4322 H   0  0  0  0  0  0  0  0  0  0  0  0
  149.3178  142.2798  155.0849 H   0  0  0  0  0  0  0  0  0  0  0  0
  148.3387  140.8949  155.5276 H   0  0  0  0  0  0  0  0  0  0  0  0
  151.0519  139.2667  154.1825 H   0  0  0  0  0  0  0  0  0  0  0  0
  152.9627  138.3224  155.4991 H   0  0  0  0  0  0  0  0  0  0  0  0
  154.0750  141.4616  158.6898 H   0  0  0  0  0  0  0  0  0  0  0  0
  153.3985  140.8715  161.3201 H   0  0  0  0  0  0  0  0  0  0  0  0
  154.5579  142.1367  160.9125 H   0  0  0  0  0  0  0  0  0  0  0  0
  151.5631  142.5156  161.3583 H   0  0  0  0  0  0  0  0  0  0  0  0
  152.8823  143.3443  162.2008 H   0  0  0  0  0  0  0  0  0  0  0  0
  153.4226  143.6547  158.3059 H   0  0  0  0  0  0  0  0  0  0  0  0
  151.7503  143.1250  158.4602 H   0  0  0  0  0  0  0  0  0  0  0  0
  150.1375  141.7478  157.6032 H   0  0  0  0  0  0  0  0  0  0  0  0
  1  2  1  0  0  0  0
  1 15  1  0  0  0  0
  1 16  1  0  0  0  0
  2  3  1  0  0  0  0
  2 17  1  0  0  0  0
  2 18  1  0  0  0  0
  3 14  1  0  0  0  0
  3  4  2  0  0  0  0
  4  5  1  0  0  0  0
  4 19  1  0  0  0  0
  5  6  2  0  0  0  0
  5 20  1  0  0  0  0
  6  7  1  0  0  0  0
  7  8  1  0  0  0  0
  7 14  2  0  0  0  0
  8  9  1  0  0  0  0
  9 13  1  0  0  0  0
  9 10  1  0  0  0  0
  9 21  1  0  0  0  0
 10 11  1  0  0  0  0
 10 22  1  0  0  0  0
 10 23  1  0  0  0  0
 11 12  1  0  0  0  0
 11 24  1  0  0  0  0
 11 25  1  0  0  0  0
 12 13  1  0  0  0  0
 13 26  1  0  0  0  0
 13 27  1  0  0  0  0
 14 28  1  0  0  0  0
M  END
> <s_m_source_file>
AV-unprocessed.smi

> <i_m_source_file_index>
3091

> <i_lp_mmshare_version>
43012

> <i_f3d_flags>
0

> <s_epik_input>
W05IMl1bQ0gyXWMxW2NIXVtjSF1uYyhbY0hdMSlPW0NAQEhdMltDSDJdW0NIMl1PW0NIMl0y

> <s_epik_cmdline>
J2VwaWtfcHl0aG9uJywgJy1waCcsICc3LjAnLCAnLXRuJywgJzgnLCAnLW1hJywgJzIwMCcsICctbWV0YWxfYmluZGluZycsICctaW1hZScsICc8aW5maWxlLm1hZT4nLCAnLW9tYWUnLCAnPG91dGZpbGUubWFlPic=

> <r_lp_tautomer_probability>
1

> <r_epik_Ionization_Penalty>
1.24495

> <r_epik_Ionization_Penalty_Charging>
0

> <r_epik_Ionization_Penalty_Neutral>
1.24495

> <r_epik_State_Penalty>
1.3141

> <r_epik_Charging_Adjusted_Penalty>
1.3141

> <i_epik_Tot_Q>
0

> <i_epik_Tot_abs_Q>
0

> <r_epik_Metal_State_Penalty>
1.31398

> <b_epik_Metal_Only>
0

> <s_lp_Force_Field>
OPLS_2005

> <r_lp_Energy>
14.7712

> <b_lp_Chiralities_Consistent>
1

> <s_lp_Variant>
AV-unprocessed.smi:3091-3

> <Gold.Version>
5.8.1

> <Gold.Id.Protein>
6NUR|6NUR_protein|mol2

> <Gold.PLP.Fitness>
40.2029

> <Gold.PLP.PLP>
-34.9449

> <Gold.PLP.part.hbond>
-4.0000

> <Gold.PLP.part.metal>
0.0000

> <Gold.PLP.part.buried>
-2.4648

> <Gold.PLP.part.nonpolar>
-29.1727

> <Gold.PLP.part.repulsive>
0.0212

> <Gold.PLP.ligand.clash>
0.0000

> <Gold.PLP.ligand.torsion>
0.4101

> <Gold.PLP.Chemscore.Hbond>
2.0203

> <Gold.PLP.Chemscore.CHOScore>
0.0000

> <Gold.PLP.Chemscore.Metal>
0.0000

> <Gold.Chemscore.Hbonds>
donor molecule, donor type, donor heavy atom, donor atom, acceptor molecule, acceptor atom, score
      P1  H  7997  8010       L1     6  0.80
      P1  H  8011  8017       L1     1  0.62

> <Gold.PLP.Chemscore.Internal.Correction>
0.0174

> <Gold.Rescore>
     Score         DG    S(hbond)    S(metal)    S(lipo)     H(rot)  DE(clash)    DE(int)     intcor
     12.22     -13.58       0.80        0.00      80.21       1.54       0.99       0.37       ----

> <Gold.Chemscore.Fitness>
12.2234

> <Gold.Chemscore.DG>
-13.5763

> <Gold.Chemscore.ZeroCoef>
-5.4800

> <Gold.Chemscore.Hbond>
0.7966

> <Gold.Chemscore.Metal>
0.0000

> <Gold.Chemscore.Lipo>
80.2062

> <Gold.Chemscore.Internal_Hbond>
0.0000

> <Gold.Chemscore.DEClash>
0.9879

> <Gold.Chemscore.DEInternal>
0.3650

> <Gold.Chemscore.Rot>
1.5424

> <Gold.Chemscore.Internal.Correction>
   9.000000E+99

> <Gold.Chemscore.Hbonds>
donor molecule, donor type, donor heavy atom, donor atom, acceptor molecule, acceptor atom, score
      P1  H  7997  8010       L1     6  0.10
      P1  H  8011  8017       L1     1  0.25

> <Gold.Chemscore.Hbond.Weighted>
-2.6608

> <Gold.Chemscore.Metal.Weighted>
-0.0000

> <Gold.Chemscore.Lipo.Weighted>
-9.3841

> <Gold.Chemscore.Internal_Hbond.Weighted>
0.0000

> <Gold.Chemscore.DEClash.Weighted>
0.9879

> <Gold.Chemscore.DEInternal.Weighted>
0.3650

> <Gold.Chemscore.Rot.Weighted>
3.9487

> <Gold.Chemscore.Internal.Correction.Weighted>
   9.000000E+99

> <Gold.Protein.RotatedTorsions>
[ 6907 6896 6895 6894 ] final  -35.60 input  -60.11 | X-H torsion
[ 7974 7965 7964 7962 ] final  172.10 input  175.53 | X-H torsion
[ 8008 7997 7996 7995 ] final   49.63 input   59.86 | X-H torsion
[ 10167 10162 10161 10158 ] final  -43.96 input  -65.29 | X-H torsion
[ 10718 10713 10712 10709 ] final -156.85 input   66.30 | X-H torsion
[ 10763 10752 10751 10750 ] final  -56.81 input  -60.55 | X-H torsion
[ 11005 11000 10999 10996 ] final -172.52 input  -57.11 | X-H torsion

> <Gold.Protein.ActiveResidues>
 VAL166  LYS551  ARG553  GLY616  TRP617  ASP618  TYR619  PRO620  LYS621  CYS622 
 ASP623  PHE694  ASN695  SER759  ASP760  ASP761  ALA762  ILE779  LEU786  VAL792 
 PHE793  MET794  SER795  GLU796  ALA797  LYS798  CYS799  TRP800  GLU811  SER814 

> <Gold.Protein.RotatedAtoms>
  151.0377  134.9585  159.8144 H   0  0  0  0  0  0  0  0  0  0  0  0  # atno 6907 bound_to 6896
  152.5358  134.2698  159.8977 H   0  0  0  0  0  0  0  0  0  0  0  0  # atno 6908 bound_to 6896
  151.2709  133.4213  159.2655 H   0  0  0  0  0  0  0  0  0  0  0  0  # atno 6909 bound_to 6896
  144.7277  139.9449  143.6430 H   0  0  0  0  0  0  0  0  0  0  0  0  # atno 7974 bound_to 7965
  155.4054  140.3440  155.4260 H   0  0  0  0  0  0  0  0  0  0  0  0  # atno 8008 bound_to 7997
  156.1479  140.1562  156.8849 H   0  0  0  0  0  0  0  0  0  0  0  0  # atno 8009 bound_to 7997
  154.5027  140.0810  156.7811 H   0  0  0  0  0  0  0  0  0  0  0  0  # atno 8010 bound_to 7997
  140.6915  143.2955  151.3426 H   0  0  0  0  0  0  0  0  0  0  0  0  # atno 10167 bound_to 10162
  156.5322  130.8526  151.2720 H   0  0  0  0  0  0  0  0  0  0  0  0  # atno 10718 bound_to 10713
  154.2125  135.6392  153.5119 H   0  0  0  0  0  0  0  0  0  0  0  0  # atno 10763 bound_to 10752
  152.9986  135.5477  154.6200 H   0  0  0  0  0  0  0  0  0  0  0  0  # atno 10764 bound_to 10752
  154.5640  135.2911  155.0865 H   0  0  0  0  0  0  0  0  0  0  0  0  # atno 10765 bound_to 10752
  140.4960  134.5939  157.4971 H   0  0  0  0  0  0  0  0  0  0  0  0  # atno 11005 bound_to 11000
  146.0756  139.3744  143.0496 LP  0  0  0  0  0  0  0  0  0  0  0  0  # atno 17320 bound_to 7965
  145.7909  140.9814  143.1049 LP  0  0  0  0  0  0  0  0  0  0  0  0  # atno 17321 bound_to 7965
  139.6322  144.0698  152.2486 LP  0  0  0  0  0  0  0  0  0  0  0  0  # atno 17342 bound_to 10162
  140.0177  144.6177  150.7593 LP  0  0  0  0  0  0  0  0  0  0  0  0  # atno 17343 bound_to 10162
  157.7420  130.9881  150.2483 LP  0  0  0  0  0  0  0  0  0  0  0  0  # atno 17370 bound_to 10713
  156.3049  130.3763  149.7715 LP  0  0  0  0  0  0  0  0  0  0  0  0  # atno 17371 bound_to 10713
  139.9741  134.7244  155.9984 LP  0  0  0  0  0  0  0  0  0  0  0  0  # atno 17394 bound_to 11000
  141.1460  133.6556  156.3868 LP  0  0  0  0  0  0  0  0  0  0  0  0  # atno 17395 bound_to 11000

$$$$
