AV-unprocessed.smi:1643|AV-procd|sdf|6580|dock5
  -GOLD-   22720 7263D 1   1.00000     0.00000
 Structure written by MMmdl.
 55 57  0  0  0  0  0  0  0  0  3 V2000
  153.8932  136.3546  164.3490 C   0  0  0  0  0  0  0  0  0  0  0  0
  155.0605  137.2201  163.8665 C   0  0  0  0  0  0  0  0  0  0  0  0
  155.5613  138.0126  164.6644 O   0  0  0  0  0  0  0  0  0  0  0  0
  155.5081  137.0794  162.5945 N   0  0  0  0  0  0  0  0  0  0  0  0
  156.6949  137.8085  162.1214 C   0  0  0  0  0  0  0  0  0  0  0  0
  156.3204  139.0644  161.3049 C   0  0  0  0  0  0  0  0  0  0  0  0
  154.8825  139.0868  160.7422 C   0  0  0  0  0  0  0  0  0  0  0  0
  154.5801  138.0059  159.7639 N   0  3  2  0  0  0  0  0  0  0  0  0
  153.1633  138.0313  159.3101 C   0  0  0  0  0  0  0  0  0  0  0  0
  152.9344  139.1263  158.2534 C   0  0  1  0  0  0  0  0  0  0  0  0
  153.6229  138.7893  157.0645 O   0  0  0  0  0  0  0  0  0  0  0  0
  151.4392  139.3143  157.9291 C   0  0  0  0  0  0  0  0  0  0  0  0
  151.0902  140.7142  157.6529 N   0  0  0  0  0  0  0  0  0  0  0  0
  150.4175  141.2609  156.6034 C   0  0  0  0  0  0  0  0  0  0  0  0
  150.3541  142.6052  156.8123 N   0  3  0  0  0  0  0  0  0  0  0  0
  150.9934  142.9214  158.0129 C   0  0  0  0  0  0  0  0  0  0  0  0
  151.1874  144.1422  158.6482 C   0  0  0  0  0  0  0  0  0  0  0  0
  151.8867  144.1260  159.8764 C   0  0  0  0  0  0  0  0  0  0  0  0
  152.1131  145.4430  160.5989 C   0  0  0  0  0  0  0  0  0  0  0  0
  152.3674  142.9098  160.4273 C   0  0  0  0  0  0  0  0  0  0  0  0
  153.1177  142.9044  161.7484 C   0  0  0  0  0  0  0  0  0  0  0  0
  152.1597  141.6784  159.7656 C   0  0  0  0  0  0  0  0  0  0  0  0
  151.4677  141.7124  158.5574 C   0  0  0  0  0  0  0  0  0  0  0  0
  155.0554  136.6355  160.1158 C   0  0  0  0  0  0  0  0  0  0  0  0
  154.8426  136.2187  161.5959 C   0  0  0  0  0  0  0  0  0  0  0  0
  154.0596  135.3034  164.1125 H   0  0  0  0  0  0  0  0  0  0  0  0
  152.9581  136.6778  163.8915 H   0  0  0  0  0  0  0  0  0  0  0  0
  153.7797  136.4353  165.4305 H   0  0  0  0  0  0  0  0  0  0  0  0
  157.3538  138.0947  162.9429 H   0  0  0  0  0  0  0  0  0  0  0  0
  157.3147  137.1370  161.5281 H   0  0  0  0  0  0  0  0  0  0  0  0
  156.4314  139.9345  161.9531 H   0  0  0  0  0  0  0  0  0  0  0  0
  157.0419  139.2055  160.4993 H   0  0  0  0  0  0  0  0  0  0  0  0
  154.1606  139.0617  161.5601 H   0  0  0  0  0  0  0  0  0  0  0  0
  154.7217  140.0418  160.2405 H   0  0  0  0  0  0  0  0  0  0  0  0
  152.8461  137.0560  158.9367 H   0  0  0  0  0  0  0  0  0  0  0  0
  152.5101  138.2375  160.1596 H   0  0  0  0  0  0  0  0  0  0  0  0
  153.3400  140.0681  158.6256 H   0  0  0  0  0  0  0  0  0  0  0  0
  153.5292  137.8610  156.9121 H   0  0  0  0  0  0  0  0  0  0  0  0
  151.1613  138.7265  157.0530 H   0  0  0  0  0  0  0  0  0  0  0  0
  150.8121  138.9606  158.7485 H   0  0  0  0  0  0  0  0  0  0  0  0
  150.0104  140.7269  155.7569 H   0  0  0  0  0  0  0  0  0  0  0  0
  150.8190  145.0643  158.2226 H   0  0  0  0  0  0  0  0  0  0  0  0
  151.6603  145.4186  161.5904 H   0  0  0  0  0  0  0  0  0  0  0  0
  151.6738  146.2785  160.0532 H   0  0  0  0  0  0  0  0  0  0  0  0
  153.1796  145.6408  160.7092 H   0  0  0  0  0  0  0  0  0  0  0  0
  153.4376  141.8985  162.0218 H   0  0  0  0  0  0  0  0  0  0  0  0
  152.4828  143.2818  162.5502 H   0  0  0  0  0  0  0  0  0  0  0  0
  154.0082  143.5305  161.6870 H   0  0  0  0  0  0  0  0  0  0  0  0
  152.5242  140.7529  160.1858 H   0  0  0  0  0  0  0  0  0  0  0  0
  154.5664  135.9066  159.4685 H   0  0  0  0  0  0  0  0  0  0  0  0
  156.1057  136.5589  159.8376 H   0  0  0  0  0  0  0  0  0  0  0  0
  155.2002  135.1981  161.7368 H   0  0  0  0  0  0  0  0  0  0  0  0
  153.7664  136.1929  161.7667 H   0  0  0  0  0  0  0  0  0  0  0  0
  155.1113  138.2472  158.9392 H   0  0  0  0  0  0  0  0  0  0  0  0
  149.9058  143.2571  156.1807 H   0  0  0  0  0  0  0  0  0  0  0  0
  1  2  1  0  0  0  0
  1 26  1  0  0  0  0
  1 27  1  0  0  0  0
  1 28  1  0  0  0  0
  2  3  2  0  0  0  0
  2  4  1  0  0  0  0
  4 25  1  0  0  0  0
  4  5  1  0  0  0  0
  5  6  1  0  0  0  0
  5 29  1  0  0  0  0
  5 30  1  0  0  0  0
  6  7  1  0  0  0  0
  6 31  1  0  0  0  0
  6 32  1  0  0  0  0
  7  8  1  0  0  0  0
  7 33  1  0  0  0  0
  7 34  1  0  0  0  0
  8  9  1  0  0  0  0
  8 24  1  0  0  0  0
  8 54  1  0  0  0  0
  9 10  1  0  0  0  0
  9 35  1  0  0  0  0
  9 36  1  0  0  0  0
 10 11  1  0  0  0  0
 10 12  1  0  0  0  0
 10 37  1  0  0  0  0
 11 38  1  0  0  0  0
 12 13  1  0  0  0  0
 12 39  1  0  0  0  0
 12 40  1  0  0  0  0
 13 23  1  0  0  0  0
 13 14  1  0  0  0  0
 14 15  2  0  0  0  0
 14 41  1  0  0  0  0
 15 16  1  0  0  0  0
 15 55  1  0  0  0  0
 16 23  2  0  0  0  0
 16 17  1  0  0  0  0
 17 18  2  0  0  0  0
 17 42  1  0  0  0  0
 18 19  1  0  0  0  0
 18 20  1  0  0  0  0
 19 43  1  0  0  0  0
 19 44  1  0  0  0  0
 19 45  1  0  0  0  0
 20 21  1  0  0  0  0
 20 22  2  0  0  0  0
 21 46  1  0  0  0  0
 21 47  1  0  0  0  0
 21 48  1  0  0  0  0
 22 23  1  0  0  0  0
 22 49  1  0  0  0  0
 24 25  1  0  0  0  0
 24 50  1  0  0  0  0
 24 51  1  0  0  0  0
 25 52  1  0  0  0  0
 25 53  1  0  0  0  0
M  CHG  1   8   1
M  CHG  1  15   1
M  END
> <s_m_source_file>
AV-unprocessed.smi

> <i_m_source_file_index>
1643

> <i_lp_mmshare_version>
43012

> <i_f3d_flags>
0

> <s_epik_input>
W0NIM11DKD1PKU4xW0NIMl1bQ0gyXVtDSDJdTihbQ0gyXVtDSDJdMSlbQ0gyXVtDQEhdKFtPSF0pW0NIMl1uKFtjSF1uMiljKGMyMylbY0hdYyhbQ0gzXSljKFtjSF0zKVtDSDNd

> <s_epik_cmdline>
J2VwaWtfcHl0aG9uJywgJy1waCcsICc3LjAnLCAnLXRuJywgJzgnLCAnLW1hJywgJzIwMCcsICctbWV0YWxfYmluZGluZycsICctaW1hZScsICc8aW5maWxlLm1hZT4nLCAnLW9tYWUnLCAnPG91dGZpbGUubWFlPic=

> <r_epik_Ionization_Penalty>
1.2865

> <r_epik_Ionization_Penalty_Charging>
1.2865

> <r_epik_Ionization_Penalty_Neutral>
2.89706e-06

> <r_epik_State_Penalty>
1.3566

> <r_epik_Charging_Adjusted_Penalty>
2.6431

> <i_epik_Tot_Q>
2

> <i_epik_Tot_abs_Q>
2

> <r_epik_Metal_State_Penalty>
5.37339

> <b_epik_Metal_Only>
0

> <s_lp_Force_Field>
OPLS_2005

> <r_lp_Energy>
57.2213

> <b_lp_Chiralities_Consistent>
1

> <s_lp_Variant>
AV-unprocessed.smi:1643-9

> <Gold.Version>
5.8.1

> <Gold.Id.Protein>
6NUR|6NUR_protein|mol2

> <Gold.PLP.Fitness>
54.7624

> <Gold.PLP.PLP>
-47.6664

> <Gold.PLP.part.hbond>
-1.8575

> <Gold.PLP.part.metal>
0.0000

> <Gold.PLP.part.buried>
-7.3074

> <Gold.PLP.part.nonpolar>
-40.1951

> <Gold.PLP.part.repulsive>
0.1533

> <Gold.PLP.ligand.clash>
0.0000

> <Gold.PLP.ligand.torsion>
0.8817

> <Gold.PLP.Chemscore.Hbond>
2.9200

> <Gold.PLP.Chemscore.CHOScore>
0.0000

> <Gold.PLP.Chemscore.Metal>
0.0000

> <Gold.Chemscore.Hbonds>
donor molecule, donor type, donor heavy atom, donor atom, acceptor molecule, acceptor atom, score
      L1  H    15    55       P1  8028  2.00
      P1  H  7997  8010       L1    11  0.99

> <Gold.PLP.Chemscore.Internal.Correction>
0.0994

> <Gold.Rescore>
     Score         DG    S(hbond)    S(metal)    S(lipo)     H(rot)  DE(clash)    DE(int)     intcor
     18.99     -21.28       1.75        0.00     132.55       2.17       0.54       1.75       ----

> <Gold.Chemscore.Fitness>
18.9916

> <Gold.Chemscore.DG>
-21.2802

> <Gold.Chemscore.ZeroCoef>
-5.4800

> <Gold.Chemscore.Hbond>
1.7539

> <Gold.Chemscore.Metal>
0.0000

> <Gold.Chemscore.Lipo>
132.5537

> <Gold.Chemscore.Internal_Hbond>
0.0000

> <Gold.Chemscore.DEClash>
0.5357

> <Gold.Chemscore.DEInternal>
1.7529

> <Gold.Chemscore.Rot>
2.1744

> <Gold.Chemscore.Internal.Correction>
   9.000000E+99

> <Gold.Chemscore.Hbonds>
donor molecule, donor type, donor heavy atom, donor atom, acceptor molecule, acceptor atom, score
      L1  H    15    55       P1  8028  0.99
      P1  H  7997  8010       L1    11  0.26

> <Gold.Chemscore.Hbond.Weighted>
-5.8580

> <Gold.Chemscore.Metal.Weighted>
-0.0000

> <Gold.Chemscore.Lipo.Weighted>
-15.5088

> <Gold.Chemscore.Internal_Hbond.Weighted>
0.0000

> <Gold.Chemscore.DEClash.Weighted>
0.5357

> <Gold.Chemscore.DEInternal.Weighted>
1.7529

> <Gold.Chemscore.Rot.Weighted>
5.5666

> <Gold.Chemscore.Internal.Correction.Weighted>
   9.000000E+99

> <Gold.Protein.RotatedTorsions>
[ 6907 6896 6895 6894 ] final  -74.68 input  -60.11 | X-H torsion
[ 7974 7965 7964 7962 ] final -143.71 input  175.53 | X-H torsion
[ 8008 7997 7996 7995 ] final   43.30 input   59.86 | X-H torsion
[ 10167 10162 10161 10158 ] final  -82.44 input  -65.29 | X-H torsion
[ 10718 10713 10712 10709 ] final   44.24 input   66.30 | X-H torsion
[ 10763 10752 10751 10750 ] final  140.92 input  -60.55 | X-H torsion
[ 11005 11000 10999 10996 ] final  155.08 input  -57.11 | X-H torsion

> <Gold.Protein.ActiveResidues>
 VAL166  LYS551  ARG553  GLY616  TRP617  ASP618  TYR619  PRO620  LYS621  CYS622 
 ASP623  PHE694  ASN695  SER759  ASP760  ASP761  ALA762  ILE779  LEU786  VAL792 
 PHE793  MET794  SER795  GLU796  ALA797  LYS798  CYS799  TRP800  GLU811  SER814 

> <Gold.Protein.RotatedAtoms>
  150.7085  134.4834  159.5480 H   0  0  0  0  0  0  0  0  0  0  0  0  # atno 6907 bound_to 6896
  152.2466  134.8172  160.0461 H   0  0  0  0  0  0  0  0  0  0  0  0  # atno 6908 bound_to 6896
  151.8934  133.3486  159.3843 H   0  0  0  0  0  0  0  0  0  0  0  0  # atno 6909 bound_to 6896
  144.8350  140.5801  143.5490 H   0  0  0  0  0  0  0  0  0  0  0  0  # atno 7974 bound_to 7965
  155.3005  140.3384  155.4248 H   0  0  0  0  0  0  0  0  0  0  0  0  # atno 8008 bound_to 7997
  156.2003  140.1730  156.7951 H   0  0  0  0  0  0  0  0  0  0  0  0  # atno 8009 bound_to 7997
  154.5551  140.0698  156.8714 H   0  0  0  0  0  0  0  0  0  0  0  0  # atno 8010 bound_to 7997
  140.4319  143.2545  151.8747 H   0  0  0  0  0  0  0  0  0  0  0  0  # atno 10167 bound_to 10162
  157.4246  130.7989  149.7547 H   0  0  0  0  0  0  0  0  0  0  0  0  # atno 10718 bound_to 10713
  153.9306  135.2990  155.3446 H   0  0  0  0  0  0  0  0  0  0  0  0  # atno 10763 bound_to 10752
  154.7528  135.4972  153.9324 H   0  0  0  0  0  0  0  0  0  0  0  0  # atno 10764 bound_to 10752
  153.1093  135.6755  153.9633 H   0  0  0  0  0  0  0  0  0  0  0  0  # atno 10765 bound_to 10752
  140.1548  134.8650  157.2501 H   0  0  0  0  0  0  0  0  0  0  0  0  # atno 11005 bound_to 11000
  145.4814  139.1495  143.3760 LP  0  0  0  0  0  0  0  0  0  0  0  0  # atno 17320 bound_to 7965
  146.2649  140.4950  142.8838 LP  0  0  0  0  0  0  0  0  0  0  0  0  # atno 17321 bound_to 7965
  139.4785  144.5325  151.8646 LP  0  0  0  0  0  0  0  0  0  0  0  0  # atno 17342 bound_to 10162
  140.4417  144.1977  150.5892 LP  0  0  0  0  0  0  0  0  0  0  0  0  # atno 17343 bound_to 10162
  155.9892  130.3953  150.3083 LP  0  0  0  0  0  0  0  0  0  0  0  0  # atno 17370 bound_to 10713
  157.1234  131.0252  151.3000 LP  0  0  0  0  0  0  0  0  0  0  0  0  # atno 17371 bound_to 10713
  140.2560  134.3627  155.7424 LP  0  0  0  0  0  0  0  0  0  0  0  0  # atno 17394 bound_to 11000
  141.2203  133.7343  156.9008 LP  0  0  0  0  0  0  0  0  0  0  0  0  # atno 17395 bound_to 11000

$$$$
