AV-unprocessed.smi:1971|AV-procd|sdf|7962|dock3
  -GOLD-   2272010133D 1   1.00000     0.00000
 Structure written by MMmdl.
 44 45  0  0  0  0  0  0  0  0  2 V2000
  145.6776  143.0436  158.0476 C   0  0  0  0  0  0  0  0  0  0  0  0
  146.9154  142.1440  157.9218 C   0  0  0  0  0  0  0  0  0  0  0  0
  147.5487  142.2230  156.5817 N   0  3  0  0  0  0  0  0  0  0  0  0
  146.5956  141.8957  155.4928 C   0  0  0  0  0  0  0  0  0  0  0  0
  147.2834  142.0135  154.1167 C   0  0  0  0  0  0  0  0  0  0  0  0
  148.4261  141.0961  154.0005 N   0  0  0  0  0  0  0  0  0  0  0  0
  148.0984  139.6525  154.0146 C   0  0  2  0  0  0  0  0  0  0  0  0
  149.3825  138.8089  153.8340 C   0  0  0  0  0  0  0  0  0  0  0  0
  147.0549  139.2779  152.9253 C   0  0  0  0  0  0  0  0  0  0  0  0
  147.1616  137.8844  152.5027 N   0  0  0  0  0  0  0  0  0  0  0  0
  146.1162  137.0728  152.2841 C   0  0  0  0  0  0  0  0  0  0  0  0
  144.9444  137.4298  152.4152 O   0  0  0  0  0  0  0  0  0  0  0  0
  146.5182  135.8444  151.9141 N   0  0  0  0  0  0  0  0  0  0  0  0
  145.7151  134.7090  151.6275 C   0  0  0  0  0  0  0  0  0  0  0  0
  144.3816  134.7367  151.5168 N   0  0  0  0  0  0  0  0  0  0  0  0
  143.8529  133.4744  151.2354 C   0  0  0  0  0  0  0  0  0  0  0  0
  144.8046  132.4902  151.1357 C   0  0  0  0  0  0  0  0  0  0  0  0
  146.4127  133.1133  151.3916 S   0  0  0  0  0  0  0  0  0  0  0  0
  149.3803  141.5174  155.0375 C   0  0  0  0  0  0  0  0  0  0  0  0
  148.7839  141.4063  156.4593 C   0  0  0  0  0  0  0  0  0  0  0  0
  145.1964  142.8970  159.0149 H   0  0  0  0  0  0  0  0  0  0  0  0
  144.9419  142.8149  157.2758 H   0  0  0  0  0  0  0  0  0  0  0  0
  145.9308  144.1007  157.9719 H   0  0  0  0  0  0  0  0  0  0  0  0
  147.6459  142.3867  158.6949 H   0  0  0  0  0  0  0  0  0  0  0  0
  146.6012  141.1157  158.1060 H   0  0  0  0  0  0  0  0  0  0  0  0
  146.1757  140.8999  155.6414 H   0  0  0  0  0  0  0  0  0  0  0  0
  145.7578  142.5927  155.5305 H   0  0  0  0  0  0  0  0  0  0  0  0
  146.5687  141.8658  153.3100 H   0  0  0  0  0  0  0  0  0  0  0  0
  147.6406  143.0353  153.9806 H   0  0  0  0  0  0  0  0  0  0  0  0
  147.6681  139.3949  154.9806 H   0  0  0  0  0  0  0  0  0  0  0  0
  149.1598  137.7454  153.7525 H   0  0  0  0  0  0  0  0  0  0  0  0
  150.0614  138.8981  154.6806 H   0  0  0  0  0  0  0  0  0  0  0  0
  149.9237  139.0976  152.9323 H   0  0  0  0  0  0  0  0  0  0  0  0
  146.0312  139.4163  153.2701 H   0  0  0  0  0  0  0  0  0  0  0  0
  147.1780  139.9157  152.0494 H   0  0  0  0  0  0  0  0  0  0  0  0
  148.0925  137.5156  152.3730 H   0  0  0  0  0  0  0  0  0  0  0  0
  147.5142  135.7002  151.8386 H   0  0  0  0  0  0  0  0  0  0  0  0
  142.7844  133.3656  151.1221 H   0  0  0  0  0  0  0  0  0  0  0  0
  144.6570  131.4407  150.9285 H   0  0  0  0  0  0  0  0  0  0  0  0
  150.3116  140.9585  154.9703 H   0  0  0  0  0  0  0  0  0  0  0  0
  149.6639  142.5540  154.8483 H   0  0  0  0  0  0  0  0  0  0  0  0
  149.5276  141.7600  157.1725 H   0  0  0  0  0  0  0  0  0  0  0  0
  148.5793  140.3682  156.7223 H   0  0  0  0  0  0  0  0  0  0  0  0
  147.8179  143.1859  156.4389 H   0  0  0  0  0  0  0  0  0  0  0  0
  1  2  1  0  0  0  0
  1 21  1  0  0  0  0
  1 22  1  0  0  0  0
  1 23  1  0  0  0  0
  2  3  1  0  0  0  0
  2 24  1  0  0  0  0
  2 25  1  0  0  0  0
  3 20  1  0  0  0  0
  3  4  1  0  0  0  0
  3 44  1  0  0  0  0
  4  5  1  0  0  0  0
  4 26  1  0  0  0  0
  4 27  1  0  0  0  0
  5  6  1  0  0  0  0
  5 28  1  0  0  0  0
  5 29  1  0  0  0  0
  6  7  1  0  0  0  0
  6 19  1  0  0  0  0
  7  8  1  0  0  0  0
  7  9  1  0  0  0  0
  7 30  1  0  0  0  0
  8 31  1  0  0  0  0
  8 32  1  0  0  0  0
  8 33  1  0  0  0  0
  9 10  1  0  0  0  0
  9 34  1  0  0  0  0
  9 35  1  0  0  0  0
 10 11  1  0  0  0  0
 10 36  1  0  0  0  0
 11 12  2  0  0  0  0
 11 13  1  0  0  0  0
 13 14  1  0  0  0  0
 13 37  1  0  0  0  0
 14 18  1  0  0  0  0
 14 15  2  0  0  0  0
 15 16  1  0  0  0  0
 16 17  2  0  0  0  0
 16 38  1  0  0  0  0
 17 18  1  0  0  0  0
 17 39  1  0  0  0  0
 19 20  1  0  0  0  0
 19 40  1  0  0  0  0
 19 41  1  0  0  0  0
 20 42  1  0  0  0  0
 20 43  1  0  0  0  0
M  CHG  1   3   1
M  END
> <s_m_source_file>
AV-unprocessed.smi

> <i_m_source_file_index>
1971

> <i_lp_mmshare_version>
43012

> <i_f3d_flags>
0

> <s_epik_input>
W0NIM11bQ0gyXU4xW0NIMl1bQ0gyXU4oW0NIMl1bQ0gyXTEpW0NASF0oW0NIM10pW0NIMl1bTkhdQyg9TylbTkhdYzJuW2NIXVtjSF1zMg==

> <s_epik_cmdline>
J2VwaWtfcHl0aG9uJywgJy1waCcsICc3LjAnLCAnLXRuJywgJzgnLCAnLW1hJywgJzIwMCcsICctbWV0YWxfYmluZGluZycsICctaW1hZScsICc8aW5maWxlLm1hZT4nLCAnLW9tYWUnLCAnPG91dGZpbGUubWFlPic=

> <r_lp_tautomer_probability>
0.999

> <r_epik_Ionization_Penalty>
0.0459519

> <r_epik_Ionization_Penalty_Charging>
0.0451959

> <r_epik_Ionization_Penalty_Neutral>
0.000756076

> <r_epik_State_Penalty>
0.165541

> <r_epik_Charging_Adjusted_Penalty>
0.210737

> <i_epik_Tot_Q>
1

> <i_epik_Tot_abs_Q>
1

> <r_epik_Metal_State_Penalty>
0.198809

> <b_epik_Metal_Only>
0

> <s_lp_Force_Field>
OPLS_2005

> <r_lp_Energy>
18.3118

> <b_lp_Chiralities_Consistent>
1

> <s_lp_Variant>
AV-unprocessed.smi:1971-1

> <Gold.Version>
5.8.1

> <Gold.Id.Protein>
6NUR|6NUR_protein|mol2

> <Gold.PLP.Fitness>
44.6227

> <Gold.PLP.PLP>
-30.7505

> <Gold.PLP.part.hbond>
-3.0000

> <Gold.PLP.part.metal>
0.0000

> <Gold.PLP.part.buried>
-4.5472

> <Gold.PLP.part.nonpolar>
-24.6075

> <Gold.PLP.part.repulsive>
0.6074

> <Gold.PLP.ligand.clash>
0.0179

> <Gold.PLP.ligand.torsion>
0.4902

> <Gold.PLP.Chemscore.Hbond>
3.9760

> <Gold.PLP.Chemscore.CHOScore>
0.9671

> <Gold.PLP.Chemscore.Metal>
0.0000

> <Gold.Chemscore.Hbonds>
donor molecule, donor type, donor heavy atom, donor atom, acceptor molecule, acceptor atom, score
      L1  H     3    44       P1  8028  1.60
      L1  H    10    36       P1  7948  0.91
      L1  H    13    37       P1  7948  0.93
      L1  C    16    38       P1 10186  0.85

> <Gold.PLP.Chemscore.Internal.Correction>
0.0412

> <Gold.Rescore>
     Score         DG    S(hbond)    S(metal)    S(lipo)     H(rot)  DE(clash)    DE(int)     intcor
     15.57     -17.59       2.72        0.00      65.03       1.79       0.21       1.81       ----

> <Gold.Chemscore.Fitness>
15.5723

> <Gold.Chemscore.DG>
-17.5897

> <Gold.Chemscore.ZeroCoef>
-5.4800

> <Gold.Chemscore.Hbond>
2.7226

> <Gold.Chemscore.Metal>
0.0000

> <Gold.Chemscore.Lipo>
65.0283

> <Gold.Chemscore.Internal_Hbond>
0.0000

> <Gold.Chemscore.DEClash>
0.2060

> <Gold.Chemscore.DEInternal>
1.8114

> <Gold.Chemscore.Rot>
1.7937

> <Gold.Chemscore.Internal.Correction>
   9.000000E+99

> <Gold.Chemscore.Hbonds>
donor molecule, donor type, donor heavy atom, donor atom, acceptor molecule, acceptor atom, score
      L1  H     3    44       P1  8028  0.11
      L1  H    10    36       P1  7948  0.87
      L1  H    13    37       P1  7948  0.85

> <Gold.Chemscore.Hbond.Weighted>
-9.0933

> <Gold.Chemscore.Metal.Weighted>
-0.0000

> <Gold.Chemscore.Lipo.Weighted>
-7.6083

> <Gold.Chemscore.Internal_Hbond.Weighted>
0.0000

> <Gold.Chemscore.DEClash.Weighted>
0.2060

> <Gold.Chemscore.DEInternal.Weighted>
1.8114

> <Gold.Chemscore.Rot.Weighted>
4.5919

> <Gold.Chemscore.Internal.Correction.Weighted>
   9.000000E+99

> <Gold.Protein.RotatedTorsions>
[ 6907 6896 6895 6894 ] final -145.41 input  -60.11 | X-H torsion
[ 7974 7965 7964 7962 ] final  143.53 input  175.53 | X-H torsion
[ 8008 7997 7996 7995 ] final -155.75 input   59.86 | X-H torsion
[ 10167 10162 10161 10158 ] final    8.02 input  -65.29 | X-H torsion
[ 10718 10713 10712 10709 ] final   20.56 input   66.30 | X-H torsion
[ 10763 10752 10751 10750 ] final  179.48 input  -60.55 | X-H torsion
[ 11005 11000 10999 10996 ] final   38.00 input  -57.11 | X-H torsion

> <Gold.Protein.ActiveResidues>
 VAL166  LYS551  ARG553  GLY616  TRP617  ASP618  TYR619  PRO620  LYS621  CYS622 
 ASP623  PHE694  ASN695  SER759  ASP760  ASP761  ALA762  ILE779  LEU786  VAL792 
 PHE793  MET794  SER795  GLU796  ALA797  LYS798  CYS799  TRP800  GLU811  SER814 

> <Gold.Protein.RotatedAtoms>
  151.1274  133.5061  159.2599 H   0  0  0  0  0  0  0  0  0  0  0  0  # atno 6907 bound_to 6896
  151.1795  135.0354  159.8796 H   0  0  0  0  0  0  0  0  0  0  0  0  # atno 6908 bound_to 6896
  152.5458  134.1127  159.8419 H   0  0  0  0  0  0  0  0  0  0  0  0  # atno 6909 bound_to 6896
  144.8913  139.5554  143.5797 H   0  0  0  0  0  0  0  0  0  0  0  0  # atno 7974 bound_to 7965
  155.7066  140.0773  157.2388 H   0  0  0  0  0  0  0  0  0  0  0  0  # atno 8008 bound_to 7997
  154.4065  140.1637  156.2303 H   0  0  0  0  0  0  0  0  0  0  0  0  # atno 8009 bound_to 7997
  155.9320  140.3390  155.6260 H   0  0  0  0  0  0  0  0  0  0  0  0  # atno 8010 bound_to 7997
  140.6338  143.7933  150.7331 H   0  0  0  0  0  0  0  0  0  0  0  0  # atno 10167 bound_to 10162
  157.1262  130.6571  149.5938 H   0  0  0  0  0  0  0  0  0  0  0  0  # atno 10718 bound_to 10713
  154.5212  135.2794  155.1260 H   0  0  0  0  0  0  0  0  0  0  0  0  # atno 10763 bound_to 10752
  154.2817  135.6284  153.5353 H   0  0  0  0  0  0  0  0  0  0  0  0  # atno 10764 bound_to 10752
  152.9937  135.5653  154.5702 H   0  0  0  0  0  0  0  0  0  0  0  0  # atno 10765 bound_to 10752
  140.2169  134.3687  155.8022 H   0  0  0  0  0  0  0  0  0  0  0  0  # atno 11005 bound_to 11000
  146.3055  139.7567  142.9059 LP  0  0  0  0  0  0  0  0  0  0  0  0  # atno 17320 bound_to 7965
  145.3778  141.0353  143.3194 LP  0  0  0  0  0  0  0  0  0  0  0  0  # atno 17321 bound_to 7965
  140.1550  143.4325  152.2106 LP  0  0  0  0  0  0  0  0  0  0  0  0  # atno 17342 bound_to 10162
  139.5550  144.7366  151.4321 LP  0  0  0  0  0  0  0  0  0  0  0  0  # atno 17343 bound_to 10162
  155.9817  130.4827  150.6845 LP  0  0  0  0  0  0  0  0  0  0  0  0  # atno 17370 bound_to 10713
  157.4432  131.0864  151.0922 LP  0  0  0  0  0  0  0  0  0  0  0  0  # atno 17371 bound_to 10713
  141.2224  133.7173  156.8511 LP  0  0  0  0  0  0  0  0  0  0  0  0  # atno 17394 bound_to 11000
  140.1891  134.8979  157.3039 LP  0  0  0  0  0  0  0  0  0  0  0  0  # atno 17395 bound_to 11000

$$$$
