AV-unprocessed.smi:2499|AV-procd|sdf|9836|dock3
  -GOLD-   2272013463D 1   1.00000     0.00000
 Structure written by MMmdl.
 27 28  0  0  0  0  0  0  0  0  1 V2000
  151.3575  141.3323  158.1117 C   0  0  0  0  0  0  0  0  0  0  0  0
  151.3614  142.5682  157.2015 C   0  0  1  0  0  0  0  0  0  0  0  0
  150.2233  142.4800  156.2915 N   0  0  0  0  0  0  0  0  0  0  0  0
  150.0188  141.5169  155.3797 C   0  0  0  0  0  0  0  0  0  0  0  0
  150.8042  140.5738  155.2422 O   0  0  0  0  0  0  0  0  0  0  0  0
  148.8339  141.7472  154.6982 N   0  0  0  0  0  0  0  0  0  0  0  0
  148.2311  140.7485  154.1313 C   0  0  0  0  0  0  0  0  0  0  0  0
  147.0597  140.7747  153.3915 N   0  0  0  0  0  0  0  0  0  0  0  0
  146.7797  139.4967  152.9930 C   0  0  0  0  0  0  0  0  0  0  0  0
  147.7335  138.6979  153.4631 C   0  0  0  0  0  0  0  0  0  0  0  0
  148.6385  139.4343  154.1662 O   0  0  0  0  0  0  0  0  0  0  0  0
  151.3794  143.8459  158.0243 C   0  0  0  0  0  0  0  0  0  0  0  0
  152.6199  144.7023  158.1234 C   0  0  0  0  0  0  0  0  0  0  0  0
  152.1423  143.9213  159.3258 C   0  0  0  0  0  0  0  0  0  0  0  0
  152.2235  141.3295  158.7741 H   0  0  0  0  0  0  0  0  0  0  0  0
  151.3902  140.4123  157.5269 H   0  0  0  0  0  0  0  0  0  0  0  0
  150.4627  141.3003  158.7345 H   0  0  0  0  0  0  0  0  0  0  0  0
  152.2806  142.5317  156.6136 H   0  0  0  0  0  0  0  0  0  0  0  0
  149.5347  143.2157  156.3564 H   0  0  0  0  0  0  0  0  0  0  0  0
  146.4822  141.5708  153.1626 H   0  0  0  0  0  0  0  0  0  0  0  0
  145.9019  139.2894  152.3986 H   0  0  0  0  0  0  0  0  0  0  0  0
  147.9029  137.6340  153.3884 H   0  0  0  0  0  0  0  0  0  0  0  0
  150.4328  144.3832  158.0088 H   0  0  0  0  0  0  0  0  0  0  0  0
  153.5226  144.3522  157.6267 H   0  0  0  0  0  0  0  0  0  0  0  0
  152.4833  145.7816  158.1350 H   0  0  0  0  0  0  0  0  0  0  0  0
  151.6885  144.4801  160.1417 H   0  0  0  0  0  0  0  0  0  0  0  0
  152.7273  143.0532  159.6231 H   0  0  0  0  0  0  0  0  0  0  0  0
  1  2  1  0  0  0  0
  1 15  1  0  0  0  0
  1 16  1  0  0  0  0
  1 17  1  0  0  0  0
  2  3  1  0  0  0  0
  2 12  1  0  0  0  0
  2 18  1  0  0  0  0
  3 19  1  0  0  0  0
  3  4  1  0  0  0  0
  4  6  1  0  0  0  0
  4  5  2  0  0  0  0
  6  7  2  0  0  0  0
  7 11  1  0  0  0  0
  7  8  1  0  0  0  0
  8 20  1  0  0  0  0
  8  9  1  0  0  0  0
  9 21  1  0  0  0  0
  9 10  2  0  0  0  0
 10 22  1  0  0  0  0
 10 11  1  0  0  0  0
 12 14  1  0  0  0  0
 12 13  1  0  0  0  0
 12 23  1  0  0  0  0
 13 14  1  0  0  0  0
 13 24  1  0  0  0  0
 13 25  1  0  0  0  0
 14 26  1  0  0  0  0
 14 27  1  0  0  0  0
M  END
> <s_m_source_file>
AV-unprocessed.smi

> <i_m_source_file_index>
2499

> <i_lp_mmshare_version>
43012

> <i_f3d_flags>
0

> <s_epik_input>
W0NIMl0xW0NIMl1bQ0hdMVtDQEhdKFtDSDNdKVtOSF1DKD1PKVtOSF1jMm5bY0hdW2NIXW8y

> <s_epik_cmdline>
J2VwaWtfcHl0aG9uJywgJy1waCcsICc3LjAnLCAnLXRuJywgJzgnLCAnLW1hJywgJzIwMCcsICctbWV0YWxfYmluZGluZycsICctaW1hZScsICc8aW5maWxlLm1hZT4nLCAnLW9tYWUnLCAnPG91dGZpbGUubWFlPic=

> <r_lp_tautomer_probability>
0.107061

> <r_epik_Ionization_Penalty>
1.51515

> <r_epik_Ionization_Penalty_Charging>
1.51478

> <r_epik_Ionization_Penalty_Neutral>
0.000369309

> <r_epik_State_Penalty>
2.62718

> <r_epik_Charging_Adjusted_Penalty>
4.14196

> <i_epik_Tot_Q>
0

> <i_epik_Tot_abs_Q>
0

> <r_epik_Metal_State_Penalty>
3.5378

> <b_epik_Metal_Only>
0

> <s_lp_Force_Field>
OPLS_2005

> <r_lp_Energy>
35.9469

> <b_lp_Chiralities_Consistent>
1

> <s_lp_Variant>
AV-unprocessed.smi:2499-6

> <Gold.Version>
5.8.1

> <Gold.Id.Protein>
6NUR|6NUR_protein|mol2

> <Gold.PLP.Fitness>
39.7593

> <Gold.PLP.PLP>
-29.0062

> <Gold.PLP.part.hbond>
-2.3984

> <Gold.PLP.part.metal>
0.0000

> <Gold.PLP.part.buried>
-4.2835

> <Gold.PLP.part.nonpolar>
-23.3528

> <Gold.PLP.part.repulsive>
0.5832

> <Gold.PLP.ligand.clash>
0.0000

> <Gold.PLP.ligand.torsion>
1.0566

> <Gold.PLP.Chemscore.Hbond>
1.9760

> <Gold.PLP.Chemscore.CHOScore>
1.9588

> <Gold.PLP.Chemscore.Metal>
0.0000

> <Gold.Chemscore.Hbonds>
donor molecule, donor type, donor heavy atom, donor atom, acceptor molecule, acceptor atom, score
      L1  H     3    19       P1  8028  0.94
      P1  H  7989  7998       L1     5  0.96
      L1  C     9    21       P1 10175  0.96
      L1  C    10    22       P1  7948  1.00

> <Gold.PLP.Chemscore.Internal.Correction>
1.0619

> <Gold.Rescore>
     Score         DG    S(hbond)    S(metal)    S(lipo)     H(rot)  DE(clash)    DE(int)     intcor
     12.36     -15.57       1.51        0.00      71.50       1.29       0.50       2.71       ----

> <Gold.Chemscore.Fitness>
12.3597

> <Gold.Chemscore.DG>
-15.5690

> <Gold.Chemscore.ZeroCoef>
-5.4800

> <Gold.Chemscore.Hbond>
1.5058

> <Gold.Chemscore.Metal>
0.0000

> <Gold.Chemscore.Lipo>
71.5029

> <Gold.Chemscore.Internal_Hbond>
0.0000

> <Gold.Chemscore.DEClash>
0.5017

> <Gold.Chemscore.DEInternal>
2.7076

> <Gold.Chemscore.Rot>
1.2915

> <Gold.Chemscore.Internal.Correction>
   9.000000E+99

> <Gold.Chemscore.Hbonds>
donor molecule, donor type, donor heavy atom, donor atom, acceptor molecule, acceptor atom, score
      L1  H     3    19       P1  8028  0.91
      P1  H  7989  7998       L1     5  0.41

> <Gold.Chemscore.Hbond.Weighted>
-5.0294

> <Gold.Chemscore.Metal.Weighted>
-0.0000

> <Gold.Chemscore.Lipo.Weighted>
-8.3658

> <Gold.Chemscore.Internal_Hbond.Weighted>
0.0000

> <Gold.Chemscore.DEClash.Weighted>
0.5017

> <Gold.Chemscore.DEInternal.Weighted>
2.7076

> <Gold.Chemscore.Rot.Weighted>
3.3062

> <Gold.Chemscore.Internal.Correction.Weighted>
   9.000000E+99

> <Gold.Protein.RotatedTorsions>
[ 6907 6896 6895 6894 ] final  -50.94 input  -60.11 | X-H torsion
[ 7974 7965 7964 7962 ] final -126.49 input  175.53 | X-H torsion
[ 8008 7997 7996 7995 ] final   59.43 input   59.86 | X-H torsion
[ 10167 10162 10161 10158 ] final -161.46 input  -65.29 | X-H torsion
[ 10718 10713 10712 10709 ] final -125.67 input   66.30 | X-H torsion
[ 10763 10752 10751 10750 ] final -164.04 input  -60.55 | X-H torsion
[ 11005 11000 10999 10996 ] final   86.23 input  -57.11 | X-H torsion

> <Gold.Protein.ActiveResidues>
 VAL166  LYS551  ARG553  GLY616  TRP617  ASP618  TYR619  PRO620  LYS621  CYS622 
 ASP623  PHE694  ASN695  SER759  ASP760  ASP761  ALA762  ILE779  LEU786  VAL792 
 PHE793  MET794  SER795  GLU796  ALA797  LYS798  CYS799  TRP800  GLU811  SER814 

> <Gold.Protein.RotatedAtoms>
  150.8659  134.8022  159.7117 H   0  0  0  0  0  0  0  0  0  0  0  0  # atno 6907 bound_to 6896
  152.4681  134.5024  159.9739 H   0  0  0  0  0  0  0  0  0  0  0  0  # atno 6908 bound_to 6896
  151.5121  133.3444  159.2922 H   0  0  0  0  0  0  0  0  0  0  0  0  # atno 6909 bound_to 6896
  144.9867  140.7693  143.4579 H   0  0  0  0  0  0  0  0  0  0  0  0  # atno 7974 bound_to 7965
  155.5660  140.3489  155.4503 H   0  0  0  0  0  0  0  0  0  0  0  0  # atno 8008 bound_to 7997
  156.0479  140.1311  157.0108 H   0  0  0  0  0  0  0  0  0  0  0  0  # atno 8009 bound_to 7997
  154.4421  140.1010  156.6318 H   0  0  0  0  0  0  0  0  0  0  0  0  # atno 8010 bound_to 7997
  139.6463  144.0166  152.2129 H   0  0  0  0  0  0  0  0  0  0  0  0  # atno 10167 bound_to 10162
  156.1696  130.6658  151.0161 H   0  0  0  0  0  0  0  0  0  0  0  0  # atno 10718 bound_to 10713
  154.7065  135.2998  154.9262 H   0  0  0  0  0  0  0  0  0  0  0  0  # atno 10763 bound_to 10752
  154.0177  135.6686  153.4774 H   0  0  0  0  0  0  0  0  0  0  0  0  # atno 10764 bound_to 10752
  153.0722  135.5055  154.8239 H   0  0  0  0  0  0  0  0  0  0  0  0  # atno 10765 bound_to 10752
  139.8950  134.8341  156.2692 H   0  0  0  0  0  0  0  0  0  0  0  0  # atno 11005 bound_to 11000
  145.2343  139.2101  143.5026 LP  0  0  0  0  0  0  0  0  0  0  0  0  # atno 17320 bound_to 7965
  146.3421  140.2227  142.8591 LP  0  0  0  0  0  0  0  0  0  0  0  0  # atno 17321 bound_to 7965
  139.9868  144.6389  150.7850 LP  0  0  0  0  0  0  0  0  0  0  0  0  # atno 17342 bound_to 10162
  140.7516  143.2976  151.3165 LP  0  0  0  0  0  0  0  0  0  0  0  0  # atno 17343 bound_to 10162
  157.6793  131.0842  150.7412 LP  0  0  0  0  0  0  0  0  0  0  0  0  # atno 17370 bound_to 10713
  156.7472  130.4757  149.5464 LP  0  0  0  0  0  0  0  0  0  0  0  0  # atno 17371 bound_to 10713
  141.0112  133.7094  156.1115 LP  0  0  0  0  0  0  0  0  0  0  0  0  # atno 17394 bound_to 11000
  140.7364  134.4198  157.5560 LP  0  0  0  0  0  0  0  0  0  0  0  0  # atno 17395 bound_to 11000

$$$$
