AV-unprocessed.smi:1385|AV-procd|sdf|5634|dock5
  -GOLD-   22720 5253D 1   1.00000     0.00000
 Structure written by MMmdl.
 38 39  0  0  0  0  0  0  0  0  3 V2000
  148.6392  124.4114  152.5796 C   0  0  0  0  0  0  0  0  0  0  0  0
  148.2250  125.8419  152.6408 C   0  0  0  0  0  0  0  0  0  0  0  0
  147.5472  126.3552  153.6749 N   0  0  0  0  0  0  0  0  0  0  0  0
  147.2801  127.7070  153.5099 N   0  0  0  0  0  0  0  0  0  0  0  0
  147.7687  128.1755  152.3530 C   0  0  0  0  0  0  0  0  0  0  0  0
  147.6439  129.5263  151.9328 N   0  0  0  0  0  0  0  0  0  0  0  0
  146.8037  130.4685  152.3964 C   0  0  0  0  0  0  0  0  0  0  0  0
  145.9622  130.3010  153.2795 O   0  0  0  0  0  0  0  0  0  0  0  0
  146.9929  131.6393  151.7703 N   0  0  0  0  0  0  0  0  0  0  0  0
  146.2534  132.8674  152.0472 C   0  0  2  0  0  0  0  0  0  0  0  0
  146.2840  133.8146  150.8338 C   0  0  0  0  0  0  0  0  0  0  0  0
  145.5925  135.1499  151.1545 C   0  0  0  0  0  0  0  0  0  0  0  0
  146.2037  135.8009  152.3448 N   0  3  1  0  0  0  0  0  0  0  0  0
  145.6541  137.1520  152.6188 C   0  0  0  0  0  0  0  0  0  0  0  0
  146.5074  138.2190  151.9252 C   0  0  0  0  0  0  0  0  0  0  0  0
  146.6246  138.0044  150.6011 N   0  5  0  0  0  0  0  0  0  0  0  0
  147.0035  139.1260  152.5905 O   0  0  0  0  0  0  0  0  0  0  0  0
  146.1519  134.9178  153.5375 C   0  0  0  0  0  0  0  0  0  0  0  0
  146.8581  133.5785  153.2682 C   0  0  0  0  0  0  0  0  0  0  0  0
  148.5980  126.9891  151.3599 S   0  0  0  0  0  0  0  0  0  0  0  0
  147.9544  123.7906  153.1582 H   0  0  0  0  0  0  0  0  0  0  0  0
  149.6443  124.2979  152.9859 H   0  0  0  0  0  0  0  0  0  0  0  0
  148.6368  124.0622  151.5469 H   0  0  0  0  0  0  0  0  0  0  0  0
  148.2787  129.8106  151.2017 H   0  0  0  0  0  0  0  0  0  0  0  0
  147.7055  131.6872  151.0569 H   0  0  0  0  0  0  0  0  0  0  0  0
  145.2162  132.6156  152.2772 H   0  0  0  0  0  0  0  0  0  0  0  0
  147.3160  134.0038  150.5344 H   0  0  0  0  0  0  0  0  0  0  0  0
  145.7952  133.3481  149.9777 H   0  0  0  0  0  0  0  0  0  0  0  0
  145.6669  135.8045  150.2858 H   0  0  0  0  0  0  0  0  0  0  0  0
  144.5287  134.9866  151.3341 H   0  0  0  0  0  0  0  0  0  0  0  0
  144.6001  137.2019  152.3362 H   0  0  0  0  0  0  0  0  0  0  0  0
  145.6970  137.3629  153.6883 H   0  0  0  0  0  0  0  0  0  0  0  0
  145.8006  138.1452  150.0042 H   0  0  0  0  0  0  0  0  0  0  0  0
  146.6337  135.4113  154.3825 H   0  0  0  0  0  0  0  0  0  0  0  0
  145.1118  134.7471  153.8203 H   0  0  0  0  0  0  0  0  0  0  0  0
  146.7830  132.9395  154.1489 H   0  0  0  0  0  0  0  0  0  0  0  0
  147.9221  133.7581  153.1053 H   0  0  0  0  0  0  0  0  0  0  0  0
  147.1818  135.9407  152.1348 H   0  0  0  0  0  0  0  0  0  0  0  0
  1  2  1  0  0  0  0
  1 21  1  0  0  0  0
  1 22  1  0  0  0  0
  1 23  1  0  0  0  0
  2 20  1  0  0  0  0
  2  3  2  0  0  0  0
  3  4  1  0  0  0  0
  4  5  2  0  0  0  0
  5  6  1  0  0  0  0
  5 20  1  0  0  0  0
  6  7  1  0  0  0  0
  6 24  1  0  0  0  0
  7  8  2  0  0  0  0
  7  9  1  0  0  0  0
  9 10  1  0  0  0  0
  9 25  1  0  0  0  0
 10 19  1  0  0  0  0
 10 11  1  0  0  0  0
 10 26  1  0  0  0  0
 11 12  1  0  0  0  0
 11 27  1  0  0  0  0
 11 28  1  0  0  0  0
 12 13  1  0  0  0  0
 12 29  1  0  0  0  0
 12 30  1  0  0  0  0
 13 14  1  0  0  0  0
 13 18  1  0  0  0  0
 13 38  1  0  0  0  0
 14 15  1  0  0  0  0
 14 31  1  0  0  0  0
 14 32  1  0  0  0  0
 15 16  1  0  0  0  0
 15 17  2  0  0  0  0
 16 33  1  0  0  0  0
 18 19  1  0  0  0  0
 18 34  1  0  0  0  0
 18 35  1  0  0  0  0
 19 36  1  0  0  0  0
 19 37  1  0  0  0  0
M  CHG  1  13   1
M  CHG  1  16  -1
M  END
> <s_m_source_file>
AV-unprocessed.smi

> <i_m_source_file_index>
1385

> <i_lp_mmshare_version>
43012

> <i_f3d_flags>
0

> <s_epik_input>
W0NIM11jMW5uYyhzMSlbTkhdQyg9TylbTkhdW0NIXTJbQ0gyXVtDSDJdTihbQ0gyXVtDSDJdMilbQ0gyXUMoPU8pW05IMl0=

> <s_epik_cmdline>
J2VwaWtfcHl0aG9uJywgJy1waCcsICc3LjAnLCAnLXRuJywgJzgnLCAnLW1hJywgJzIwMCcsICctbWV0YWxfYmluZGluZycsICctaW1hZScsICc8aW5maWxlLm1hZT4nLCAnLW9tYWUnLCAnPG91dGZpbGUubWFlPic=

> <r_lp_tautomer_probability>
1

> <r_epik_Ionization_Penalty>
5.73549

> <r_epik_Ionization_Penalty_Charging>
5.73152

> <r_epik_Ionization_Penalty_Neutral>
0.00396448

> <r_epik_State_Penalty>
6.57436

> <r_epik_Charging_Adjusted_Penalty>
12.3059

> <i_epik_Tot_Q>
0

> <i_epik_Tot_abs_Q>
2

> <r_epik_Metal_State_Penalty>
2.87628

> <b_epik_Metal_Only>
1

> <s_lp_Force_Field>
OPLS_2005

> <r_lp_Energy>
6.06006

> <b_lp_Chiralities_Consistent>
1

> <s_lp_Variant>
AV-unprocessed.smi:1385-7

> <Gold.Version>
5.8.1

> <Gold.Id.Protein>
6NUR|6NUR_protein|mol2

> <Gold.PLP.Fitness>
47.0041

> <Gold.PLP.PLP>
-31.0303

> <Gold.PLP.part.hbond>
-5.7962

> <Gold.PLP.part.metal>
0.0000

> <Gold.PLP.part.buried>
-4.9039

> <Gold.PLP.part.nonpolar>
-22.0766

> <Gold.PLP.part.repulsive>
0.8657

> <Gold.PLP.ligand.clash>
0.0000

> <Gold.PLP.ligand.torsion>
0.8936

> <Gold.PLP.Chemscore.Hbond>
5.9113

> <Gold.PLP.Chemscore.CHOScore>
0.0000

> <Gold.PLP.Chemscore.Metal>
0.0000

> <Gold.Chemscore.Hbonds>
donor molecule, donor type, donor heavy atom, donor atom, acceptor molecule, acceptor atom, score
      L1  H     6    24       P1 10747  0.98
      L1  H     9    25       P1 10747  0.91
      L1  H    13    38       P1  7948  2.00
      L1  H    16    33       P1 10171  1.00
      P1  H  7954  7966       L1    16  1.00

> <Gold.PLP.Chemscore.Internal.Correction>
0.0273

> <Gold.Rescore>
     Score         DG    S(hbond)    S(metal)    S(lipo)     H(rot)  DE(clash)    DE(int)     intcor
     18.64     -20.80       4.64        0.00      42.98       2.04       0.07       2.09       ----

> <Gold.Chemscore.Fitness>
18.6374

> <Gold.Chemscore.DG>
-20.8003

> <Gold.Chemscore.ZeroCoef>
-5.4800

> <Gold.Chemscore.Hbond>
4.6427

> <Gold.Chemscore.Metal>
0.0000

> <Gold.Chemscore.Lipo>
42.9767

> <Gold.Chemscore.Internal_Hbond>
0.0000

> <Gold.Chemscore.DEClash>
0.0710

> <Gold.Chemscore.DEInternal>
2.0918

> <Gold.Chemscore.Rot>
2.0369

> <Gold.Chemscore.Internal.Correction>
   9.000000E+99

> <Gold.Chemscore.Hbonds>
donor molecule, donor type, donor heavy atom, donor atom, acceptor molecule, acceptor atom, score
      L1  H     6    24       P1 10747  0.59
      L1  H     9    25       P1 10747  0.90
      L1  H    13    38       P1  7948  1.00
      L1  H    16    33       P1 10171  0.94
      P1  H  7954  7966       L1    16  0.90

> <Gold.Chemscore.Hbond.Weighted>
-15.5065

> <Gold.Chemscore.Metal.Weighted>
-0.0000

> <Gold.Chemscore.Lipo.Weighted>
-5.0283

> <Gold.Chemscore.Internal_Hbond.Weighted>
0.0000

> <Gold.Chemscore.DEClash.Weighted>
0.0710

> <Gold.Chemscore.DEInternal.Weighted>
2.0918

> <Gold.Chemscore.Rot.Weighted>
5.2144

> <Gold.Chemscore.Internal.Correction.Weighted>
   9.000000E+99

> <Gold.Protein.RotatedTorsions>
[ 6907 6896 6895 6894 ] final   34.62 input  -60.11 | X-H torsion
[ 7974 7965 7964 7962 ] final  -22.32 input  175.53 | X-H torsion
[ 8008 7997 7996 7995 ] final -144.00 input   59.86 | X-H torsion
[ 10167 10162 10161 10158 ] final  -17.13 input  -65.29 | X-H torsion
[ 10718 10713 10712 10709 ] final -121.98 input   66.30 | X-H torsion
[ 10763 10752 10751 10750 ] final  -41.56 input  -60.55 | X-H torsion
[ 11005 11000 10999 10996 ] final -109.36 input  -57.11 | X-H torsion

> <Gold.Protein.ActiveResidues>
 VAL166  LYS551  ARG553  GLY616  TRP617  ASP618  TYR619  PRO620  LYS621  CYS622 
 ASP623  PHE694  ASN695  SER759  ASP760  ASP761  ALA762  ILE779  LEU786  VAL792 
 PHE793  MET794  SER795  GLU796  ALA797  LYS798  CYS799  TRP800  GLU811  SER814 

> <Gold.Protein.RotatedAtoms>
  152.1050  134.9315  160.0568 H   0  0  0  0  0  0  0  0  0  0  0  0  # atno 6907 bound_to 6896
  152.0515  133.4016  159.4387 H   0  0  0  0  0  0  0  0  0  0  0  0  # atno 6908 bound_to 6896
  150.6841  134.3223  159.4835 H   0  0  0  0  0  0  0  0  0  0  0  0  # atno 6909 bound_to 6896
  146.1682  140.4463  142.8543 H   0  0  0  0  0  0  0  0  0  0  0  0  # atno 7974 bound_to 7965
  155.5197  140.0590  157.2909 H   0  0  0  0  0  0  0  0  0  0  0  0  # atno 8008 bound_to 7997
  154.4522  140.1954  156.0432 H   0  0  0  0  0  0  0  0  0  0  0  0  # atno 8009 bound_to 7997
  156.0727  140.3258  155.7599 H   0  0  0  0  0  0  0  0  0  0  0  0  # atno 8010 bound_to 7997
  140.7243  143.5047  150.9825 H   0  0  0  0  0  0  0  0  0  0  0  0  # atno 10167 bound_to 10162
  156.1381  130.6446  150.9729 H   0  0  0  0  0  0  0  0  0  0  0  0  # atno 10718 bound_to 10713
  153.9645  135.6735  153.4746 H   0  0  0  0  0  0  0  0  0  0  0  0  # atno 10763 bound_to 10752
  153.0822  135.4917  154.8522 H   0  0  0  0  0  0  0  0  0  0  0  0  # atno 10764 bound_to 10752
  154.7254  135.3126  154.8940 H   0  0  0  0  0  0  0  0  0  0  0  0  # atno 10765 bound_to 10752
  141.0851  133.9152  157.2202 H   0  0  0  0  0  0  0  0  0  0  0  0  # atno 11005 bound_to 11000
  144.8124  140.6408  143.6407 LP  0  0  0  0  0  0  0  0  0  0  0  0  # atno 17320 bound_to 7965
  145.4411  139.1535  143.3970 LP  0  0  0  0  0  0  0  0  0  0  0  0  # atno 17321 bound_to 7965
  139.8758  143.7135  152.3162 LP  0  0  0  0  0  0  0  0  0  0  0  0  # atno 17342 bound_to 10162
  139.7399  144.7562  151.0668 LP  0  0  0  0  0  0  0  0  0  0  0  0  # atno 17343 bound_to 10162
  157.6551  131.0890  150.7965 LP  0  0  0  0  0  0  0  0  0  0  0  0  # atno 17370 bound_to 10713
  156.8043  130.4931  149.5365 LP  0  0  0  0  0  0  0  0  0  0  0  0  # atno 17371 bound_to 10713
  139.9669  135.0139  156.9410 LP  0  0  0  0  0  0  0  0  0  0  0  0  # atno 17394 bound_to 11000
  140.5380  134.0748  155.7333 LP  0  0  0  0  0  0  0  0  0  0  0  0  # atno 17395 bound_to 11000

$$$$
