AV-unprocessed.smi:3018|AV-procd|sdf|11484|dock4
  -GOLD-   2272016423D 1   1.00000     0.00000
 Structure written by MMmdl.
 44 45  0  0  0  0  0  0  0  0  2 V2000
  148.8783  141.3283  154.3539 C   0  0  0  0  0  0  0  0  0  0  0  0
  149.2685  140.9188  155.7795 C   0  0  0  0  0  0  0  0  0  0  0  0
  150.7569  141.1702  156.0840 C   0  0  1  0  0  0  0  0  0  0  0  0
  150.9157  141.2090  157.5012 O   0  0  0  0  0  0  0  0  0  0  0  0
  151.9205  142.0866  158.0027 C   0  0  0  0  0  0  0  0  0  0  0  0
  152.1971  141.6864  159.4621 C   0  0  0  0  0  0  0  0  0  0  0  0
  153.2061  142.6389  160.1241 C   0  0  0  0  0  0  0  0  0  0  0  0
  152.7302  144.0979  160.0402 C   0  0  0  0  0  0  0  0  0  0  0  0
  152.4449  144.5058  158.5861 C   0  0  0  0  0  0  0  0  0  0  0  0
  151.4384  143.5498  157.9252 C   0  0  0  0  0  0  0  0  0  0  0  0
  151.6380  140.0579  155.4955 C   0  0  0  0  0  0  0  0  0  0  0  0
  151.6649  139.8684  154.2795 O   0  0  0  0  0  0  0  0  0  0  0  0
  152.3482  139.3344  156.3753 N   0  0  0  0  0  0  0  0  0  0  0  0
  153.2986  138.2774  156.0376 C   0  0  0  0  0  0  0  0  0  0  0  0
  153.0313  136.9846  156.8349 C   0  0  0  0  0  0  0  0  0  0  0  0
  154.2206  136.0591  156.8589 C   0  0  0  0  0  0  0  0  0  0  0  0
  154.9872  135.7881  155.8690 N   0  0  0  0  0  0  0  0  0  0  0  0
  155.8634  134.9175  156.3958 N   0  0  0  0  0  0  0  0  0  0  0  0
  155.6150  134.6827  157.6862 C   0  0  0  0  0  0  0  0  0  0  0  0
  156.2859  133.9212  158.3797 O   0  0  0  0  0  0  0  0  0  0  0  0
  154.5423  135.4236  158.0168 N   0  5  0  0  0  0  0  0  0  0  0  0
  156.5977  134.5256  155.8248 H   0  0  0  0  0  0  0  0  0  0  0  0
  147.8238  141.1246  154.1669 H   0  0  0  0  0  0  0  0  0  0  0  0
  149.4596  140.7784  153.6134 H   0  0  0  0  0  0  0  0  0  0  0  0
  149.0456  142.3931  154.1889 H   0  0  0  0  0  0  0  0  0  0  0  0
  148.6438  141.4578  156.4933 H   0  0  0  0  0  0  0  0  0  0  0  0
  149.0402  139.8598  155.9120 H   0  0  0  0  0  0  0  0  0  0  0  0
  151.0397  142.1268  155.6420 H   0  0  0  0  0  0  0  0  0  0  0  0
  152.8499  141.9794  157.4420 H   0  0  0  0  0  0  0  0  0  0  0  0
  151.2648  141.6931  160.0285 H   0  0  0  0  0  0  0  0  0  0  0  0
  152.5740  140.6637  159.5000 H   0  0  0  0  0  0  0  0  0  0  0  0
  153.3558  142.3564  161.1665 H   0  0  0  0  0  0  0  0  0  0  0  0
  154.1760  142.5415  159.6341 H   0  0  0  0  0  0  0  0  0  0  0  0
  151.8265  144.2219  160.6380 H   0  0  0  0  0  0  0  0  0  0  0  0
  153.4806  144.7604  160.4726 H   0  0  0  0  0  0  0  0  0  0  0  0
  152.0634  145.5267  158.5551 H   0  0  0  0  0  0  0  0  0  0  0  0
  153.3755  144.5055  158.0173 H   0  0  0  0  0  0  0  0  0  0  0  0
  151.2847  143.8501  156.8891 H   0  0  0  0  0  0  0  0  0  0  0  0
  150.4703  143.6418  158.4194 H   0  0  0  0  0  0  0  0  0  0  0  0
  152.2545  139.5621  157.3542 H   0  0  0  0  0  0  0  0  0  0  0  0
  153.1824  138.0690  154.9741 H   0  0  0  0  0  0  0  0  0  0  0  0
  154.3324  138.6032  156.1670 H   0  0  0  0  0  0  0  0  0  0  0  0
  152.7356  137.2330  157.8549 H   0  0  0  0  0  0  0  0  0  0  0  0
  152.1774  136.4660  156.3969 H   0  0  0  0  0  0  0  0  0  0  0  0
  1  2  1  0  0  0  0
  1 23  1  0  0  0  0
  1 24  1  0  0  0  0
  1 25  1  0  0  0  0
  2  3  1  0  0  0  0
  2 26  1  0  0  0  0
  2 27  1  0  0  0  0
  3  4  1  0  0  0  0
  3 11  1  0  0  0  0
  3 28  1  0  0  0  0
  4  5  1  0  0  0  0
  5 10  1  0  0  0  0
  5  6  1  0  0  0  0
  5 29  1  0  0  0  0
  6  7  1  0  0  0  0
  6 30  1  0  0  0  0
  6 31  1  0  0  0  0
  7  8  1  0  0  0  0
  7 32  1  0  0  0  0
  7 33  1  0  0  0  0
  8  9  1  0  0  0  0
  8 34  1  0  0  0  0
  8 35  1  0  0  0  0
  9 10  1  0  0  0  0
  9 36  1  0  0  0  0
  9 37  1  0  0  0  0
 10 38  1  0  0  0  0
 10 39  1  0  0  0  0
 11 12  2  0  0  0  0
 11 13  1  0  0  0  0
 13 14  1  0  0  0  0
 13 40  1  0  0  0  0
 14 15  1  0  0  0  0
 14 41  1  0  0  0  0
 14 42  1  0  0  0  0
 15 16  1  0  0  0  0
 15 43  1  0  0  0  0
 15 44  1  0  0  0  0
 16 21  1  0  0  0  0
 16 17  2  0  0  0  0
 17 18  1  0  0  0  0
 18 22  1  0  0  0  0
 18 19  1  0  0  0  0
 19 20  2  0  0  0  0
 19 21  1  0  0  0  0
M  CHG  1  21  -1
M  END
> <s_m_source_file>
AV-unprocessed.smi

> <i_m_source_file_index>
3018

> <i_lp_mmshare_version>
43012

> <i_f3d_flags>
0

> <s_epik_input>
W0NIMl0xW0NIMl1bQ0gyXVtDSDJdW0NIMl1bQ0hdMU9bQ0BASF0oW0NIMl1bQ0gzXSlDKD1PKVtOSF1bQ0gyXVtDSDJdYzJuW25IXWMoPU8pW25IXTI=

> <s_epik_cmdline>
J2VwaWtfcHl0aG9uJywgJy1waCcsICc3LjAnLCAnLXRuJywgJzgnLCAnLW1hJywgJzIwMCcsICctbWV0YWxfYmluZGluZycsICctaW1hZScsICc8aW5maWxlLm1hZT4nLCAnLW9tYWUnLCAnPG91dGZpbGUubWFlPic=

> <r_lp_tautomer_probability>
1

> <r_epik_Ionization_Penalty>
13.7173

> <r_epik_Ionization_Penalty_Charging>
13.7173

> <r_epik_Ionization_Penalty_Neutral>
5.37575e-06

> <r_epik_State_Penalty>
4.05785

> <r_epik_Charging_Adjusted_Penalty>
17.7751

> <i_epik_Tot_Q>
-1

> <i_epik_Tot_abs_Q>
1

> <r_epik_Metal_State_Penalty>
0.460256

> <b_epik_Metal_Only>
1

> <s_lp_Force_Field>
OPLS_2005

> <r_lp_Energy>
25.1559

> <b_lp_Chiralities_Consistent>
1

> <s_lp_Variant>
AV-unprocessed.smi:3018-6

> <Gold.Version>
5.8.1

> <Gold.Id.Protein>
6NUR|6NUR_protein|mol2

> <Gold.PLP.Fitness>
46.9324

> <Gold.PLP.PLP>
-36.9323

> <Gold.PLP.part.hbond>
-3.0000

> <Gold.PLP.part.metal>
0.0000

> <Gold.PLP.part.buried>
-4.1577

> <Gold.PLP.part.nonpolar>
-30.0498

> <Gold.PLP.part.repulsive>
0.3158

> <Gold.PLP.ligand.clash>
0.0000

> <Gold.PLP.ligand.torsion>
1.1021

> <Gold.PLP.Chemscore.Hbond>
4.0000

> <Gold.PLP.Chemscore.CHOScore>
0.0000

> <Gold.PLP.Chemscore.Metal>
0.0000

> <Gold.Chemscore.Hbonds>
donor molecule, donor type, donor heavy atom, donor atom, acceptor molecule, acceptor atom, score
      P1  H  7989  7998       L1    12  0.32
      P1  H 10752 10765       L1    17  0.01

> <Gold.PLP.Chemscore.Internal.Correction>
0.2043

> <Gold.Rescore>
     Score         DG    S(hbond)    S(metal)    S(lipo)     H(rot)  DE(clash)    DE(int)     intcor
     16.74     -18.20       2.71        0.00      96.61       2.98       0.02       1.44       ----

> <Gold.Chemscore.Fitness>
16.7420

> <Gold.Chemscore.DG>
-18.2033

> <Gold.Chemscore.ZeroCoef>
-5.4800

> <Gold.Chemscore.Hbond>
2.7071

> <Gold.Chemscore.Metal>
0.0000

> <Gold.Chemscore.Lipo>
96.6087

> <Gold.Chemscore.Internal_Hbond>
0.0000

> <Gold.Chemscore.DEClash>
0.0171

> <Gold.Chemscore.DEInternal>
1.4442

> <Gold.Chemscore.Rot>
2.9772

> <Gold.Chemscore.Internal.Correction>
   9.000000E+99

> <Gold.Chemscore.Hbonds>
donor molecule, donor type, donor heavy atom, donor atom, acceptor molecule, acceptor atom, score
      P1  H  7989  7998       L1    12  0.32

> <Gold.Chemscore.Hbond.Weighted>
-9.0417

> <Gold.Chemscore.Metal.Weighted>
-0.0000

> <Gold.Chemscore.Lipo.Weighted>
-11.3032

> <Gold.Chemscore.Internal_Hbond.Weighted>
0.0000

> <Gold.Chemscore.DEClash.Weighted>
0.0171

> <Gold.Chemscore.DEInternal.Weighted>
1.4442

> <Gold.Chemscore.Rot.Weighted>
7.6216

> <Gold.Chemscore.Internal.Correction.Weighted>
   9.000000E+99

> <Gold.Protein.RotatedTorsions>
[ 6907 6896 6895 6894 ] final  178.96 input  -60.11 | X-H torsion
[ 7974 7965 7964 7962 ] final -148.61 input  175.53 | X-H torsion
[ 8008 7997 7996 7995 ] final  101.16 input   59.86 | X-H torsion
[ 10167 10162 10161 10158 ] final -166.88 input  -65.29 | X-H torsion
[ 10718 10713 10712 10709 ] final  -96.73 input   66.30 | X-H torsion
[ 10763 10752 10751 10750 ] final  -96.96 input  -60.55 | X-H torsion
[ 11005 11000 10999 10996 ] final  105.81 input  -57.11 | X-H torsion

> <Gold.Protein.ActiveResidues>
 VAL166  LYS551  ARG553  GLY616  TRP617  ASP618  TYR619  PRO620  LYS621  CYS622 
 ASP623  PHE694  ASN695  SER759  ASP760  ASP761  ALA762  ILE779  LEU786  VAL792 
 PHE793  MET794  SER795  GLU796  ALA797  LYS798  CYS799  TRP800  GLU811  SER814 

> <Gold.Protein.RotatedAtoms>
  151.6793  133.3312  159.3215 H   0  0  0  0  0  0  0  0  0  0  0  0  # atno 6907 bound_to 6896
  150.7830  134.6794  159.6445 H   0  0  0  0  0  0  0  0  0  0  0  0  # atno 6908 bound_to 6896
  152.3893  134.6471  160.0166 H   0  0  0  0  0  0  0  0  0  0  0  0  # atno 6909 bound_to 6896
  144.8019  140.5174  143.5701 H   0  0  0  0  0  0  0  0  0  0  0  0  # atno 7974 bound_to 7965
  156.1272  140.3202  155.8295 H   0  0  0  0  0  0  0  0  0  0  0  0  # atno 8008 bound_to 7997
  155.4397  140.0524  157.3028 H   0  0  0  0  0  0  0  0  0  0  0  0  # atno 8009 bound_to 7997
  154.4872  140.2077  155.9642 H   0  0  0  0  0  0  0  0  0  0  0  0  # atno 8010 bound_to 7997
  139.6086  144.0861  152.1819 H   0  0  0  0  0  0  0  0  0  0  0  0  # atno 10167 bound_to 10162
  156.0068  130.5164  150.6269 H   0  0  0  0  0  0  0  0  0  0  0  0  # atno 10718 bound_to 10713
  154.7286  135.5064  153.8927 H   0  0  0  0  0  0  0  0  0  0  0  0  # atno 10763 bound_to 10752
  153.0928  135.6664  153.9829 H   0  0  0  0  0  0  0  0  0  0  0  0  # atno 10764 bound_to 10752
  153.9635  135.3045  155.3411 H   0  0  0  0  0  0  0  0  0  0  0  0  # atno 10765 bound_to 10752
  139.8806  134.9348  156.5570 H   0  0  0  0  0  0  0  0  0  0  0  0  # atno 11005 bound_to 11000
  145.5533  139.1477  143.3382 LP  0  0  0  0  0  0  0  0  0  0  0  0  # atno 17320 bound_to 7965
  146.2302  140.5670  142.8979 LP  0  0  0  0  0  0  0  0  0  0  0  0  # atno 17321 bound_to 7965
  140.0475  144.5959  150.7362 LP  0  0  0  0  0  0  0  0  0  0  0  0  # atno 17342 bound_to 10162
  140.7303  143.2681  151.3976 LP  0  0  0  0  0  0  0  0  0  0  0  0  # atno 17343 bound_to 10162
  157.4074  131.0819  151.1252 LP  0  0  0  0  0  0  0  0  0  0  0  0  # atno 17370 bound_to 10713
  157.1894  130.6345  149.5699 LP  0  0  0  0  0  0  0  0  0  0  0  0  # atno 17371 bound_to 10713
  140.8198  133.8363  155.8885 LP  0  0  0  0  0  0  0  0  0  0  0  0  # atno 17394 bound_to 11000
  140.9429  134.1877  157.4784 LP  0  0  0  0  0  0  0  0  0  0  0  0  # atno 17395 bound_to 11000

$$$$
