AV-unprocessed.smi:246|AV-procd|sdf|1885|dock1
  -GOLD-   2262020533D 1   1.00000     0.00000
 Structure written by MMmdl.
 57 60  0  0  0  0  0  0  0  0  1 V2000
  151.9084  143.5802  159.6171 C   0  0  0  0  0  0  0  0  0  0  0  0
  152.5173  143.2137  160.9773 C   0  0  0  0  0  0  0  0  0  0  0  0
  152.8113  141.8265  161.0662 O   0  0  0  0  0  0  0  0  0  0  0  0
  153.4585  141.2931  159.9201 C   0  0  0  0  0  0  0  0  0  0  0  0
  152.6812  140.0656  159.4367 C   0  0  0  0  0  0  0  0  0  0  0  0
  153.1178  139.7279  158.1287 O   0  0  0  0  0  0  0  0  0  0  0  0
  152.0576  139.4019  157.2422 C   0  0  2  0  0  0  0  0  0  0  0  0
  152.5833  139.1646  155.8271 C   0  0  0  0  0  0  0  0  0  0  0  0
  151.3524  139.4284  154.9620 C   0  0  0  0  0  0  0  0  0  0  0  0
  150.6230  140.4749  155.6652 N   0  0  0  0  0  0  0  0  0  0  0  0
  149.3798  140.8655  155.2818 C   0  0  0  0  0  0  0  0  0  0  0  0
  149.0735  140.8604  153.9570 N   0  0  0  0  0  0  0  0  0  0  0  0
  147.8596  141.2295  153.5387 C   0  0  0  0  0  0  0  0  0  0  0  0
  146.8172  141.6393  154.2625 N   0  0  0  0  0  0  0  0  0  0  0  0
  147.1190  141.6638  155.5915 C   0  0  0  0  0  0  0  0  0  0  0  0
  148.3630  141.2994  156.1834 C   0  0  0  0  0  0  0  0  0  0  0  0
  148.2884  141.4667  157.5626 N   0  0  0  0  0  0  0  0  0  0  0  0
  147.0729  141.8910  157.7732 C   0  0  0  0  0  0  0  0  0  0  0  0
  146.3004  142.0329  156.6443 N   0  0  0  0  0  0  0  0  0  0  0  0
  144.9184  142.4765  156.5937 C   0  0  0  0  0  0  0  0  0  0  0  0
  144.7846  143.9939  156.8271 C   0  0  2  0  0  0  0  0  0  0  0  0
  144.9811  144.2730  158.2003 O   0  0  0  0  0  0  0  0  0  0  0  0
  143.4062  144.5310  156.4009 C   0  0  1  0  0  0  0  0  0  0  0  0
  143.2539  146.0492  156.5123 C   0  0  0  0  0  0  0  0  0  0  0  0
  142.1785  146.3799  155.4893 C   0  0  0  0  0  0  0  0  0  0  0  0
  142.0908  145.1227  154.6203 C   0  0  0  0  0  0  0  0  0  0  0  0
  143.1972  144.3226  155.0124 O   0  0  0  0  0  0  0  0  0  0  0  0
  151.0474  140.5435  157.0573 C   0  0  0  0  0  0  0  0  0  0  0  0
  151.5402  138.4997  157.5739 H   0  0  0  0  0  0  0  0  0  0  0  0
  151.6070  144.6275  159.6005 H   0  0  0  0  0  0  0  0  0  0  0  0
  151.0242  142.9771  159.4107 H   0  0  0  0  0  0  0  0  0  0  0  0
  152.6149  143.4317  158.8011 H   0  0  0  0  0  0  0  0  0  0  0  0
  153.4020  143.8165  161.1874 H   0  0  0  0  0  0  0  0  0  0  0  0
  151.7933  143.4453  161.7586 H   0  0  0  0  0  0  0  0  0  0  0  0
  153.5364  142.0276  159.1186 H   0  0  0  0  0  0  0  0  0  0  0  0
  154.4722  140.9943  160.1902 H   0  0  0  0  0  0  0  0  0  0  0  0
  152.8766  139.2270  160.1065 H   0  0  0  0  0  0  0  0  0  0  0  0
  151.6087  140.2624  159.4626 H   0  0  0  0  0  0  0  0  0  0  0  0
  153.3608  139.8927  155.5910 H   0  0  0  0  0  0  0  0  0  0  0  0
  152.9992  138.1668  155.6858 H   0  0  0  0  0  0  0  0  0  0  0  0
  151.6272  139.7366  153.9527 H   0  0  0  0  0  0  0  0  0  0  0  0
  150.7360  138.5308  154.8946 H   0  0  0  0  0  0  0  0  0  0  0  0
  147.7005  141.1884  152.4712 H   0  0  0  0  0  0  0  0  0  0  0  0
  146.7022  142.1103  158.7641 H   0  0  0  0  0  0  0  0  0  0  0  0
  144.5149  142.2075  155.6169 H   0  0  0  0  0  0  0  0  0  0  0  0
  144.3398  141.9202  157.3324 H   0  0  0  0  0  0  0  0  0  0  0  0
  145.5616  144.5135  156.2644 H   0  0  0  0  0  0  0  0  0  0  0  0
  145.7456  144.8217  158.2884 H   0  0  0  0  0  0  0  0  0  0  0  0
  142.6097  144.0334  156.9583 H   0  0  0  0  0  0  0  0  0  0  0  0
  142.9925  146.3719  157.5205 H   0  0  0  0  0  0  0  0  0  0  0  0
  144.1856  146.5433  156.2331 H   0  0  0  0  0  0  0  0  0  0  0  0
  141.2200  146.5835  155.9680 H   0  0  0  0  0  0  0  0  0  0  0  0
  142.4552  147.2575  154.9044 H   0  0  0  0  0  0  0  0  0  0  0  0
  141.1661  144.5802  154.8219 H   0  0  0  0  0  0  0  0  0  0  0  0
  142.1283  145.3476  153.5544 H   0  0  0  0  0  0  0  0  0  0  0  0
  150.2150  140.4404  157.7539 H   0  0  0  0  0  0  0  0  0  0  0  0
  151.5207  141.5112  157.2262 H   0  0  0  0  0  0  0  0  0  0  0  0
  1  2  1  0  0  0  0
  1 30  1  0  0  0  0
  1 31  1  0  0  0  0
  1 32  1  0  0  0  0
  2  3  1  0  0  0  0
  2 33  1  0  0  0  0
  2 34  1  0  0  0  0
  3  4  1  0  0  0  0
  4  5  1  0  0  0  0
  4 35  1  0  0  0  0
  4 36  1  0  0  0  0
  5  6  1  0  0  0  0
  5 37  1  0  0  0  0
  5 38  1  0  0  0  0
  6  7  1  0  0  0  0
  7 29  1  0  0  0  0
  7 28  1  0  0  0  0
  7  8  1  0  0  0  0
  8  9  1  0  0  0  0
  8 39  1  0  0  0  0
  8 40  1  0  0  0  0
  9 10  1  0  0  0  0
  9 41  1  0  0  0  0
  9 42  1  0  0  0  0
 10 11  1  0  0  0  0
 10 28  1  0  0  0  0
 11 16  1  0  0  0  0
 11 12  2  0  0  0  0
 12 13  1  0  0  0  0
 13 14  2  0  0  0  0
 13 43  1  0  0  0  0
 14 15  1  0  0  0  0
 15 19  1  0  0  0  0
 15 16  2  0  0  0  0
 16 17  1  0  0  0  0
 17 18  2  0  0  0  0
 18 19  1  0  0  0  0
 18 44  1  0  0  0  0
 19 20  1  0  0  0  0
 20 21  1  0  0  0  0
 20 45  1  0  0  0  0
 20 46  1  0  0  0  0
 21 22  1  0  0  0  0
 21 23  1  0  0  0  0
 21 47  1  0  0  0  0
 22 48  1  0  0  0  0
 23 27  1  0  0  0  0
 23 24  1  0  0  0  0
 23 49  1  0  0  0  0
 24 25  1  0  0  0  0
 24 50  1  0  0  0  0
 24 51  1  0  0  0  0
 25 26  1  0  0  0  0
 25 52  1  0  0  0  0
 25 53  1  0  0  0  0
 26 27  1  0  0  0  0
 26 54  1  0  0  0  0
 26 55  1  0  0  0  0
 28 56  1  0  0  0  0
 28 57  1  0  0  0  0
M  END
> <s_m_source_file>
AV-unprocessed.smi

> <i_m_source_file_index>
246

> <i_lp_mmshare_version>
43012

> <i_f3d_flags>
0

> <s_epik_input>
W0NIM11bQ0gyXU9bQ0gyXVtDSDJdT1tDQEhdMVtDSDJdW0NIMl1OKFtDSDJdMSljKG5bY0hdbjIpYyhjMjMpbltjSF1uM1tDSDJdW0NASF0oW09IXSlbQ0BASF00W0NIMl1bQ0gyXVtDSDJdTzQ=

> <s_epik_cmdline>
J2VwaWtfcHl0aG9uJywgJy1waCcsICc3LjAnLCAnLXRuJywgJzgnLCAnLW1hJywgJzIwMCcsICctbWV0YWxfYmluZGluZycsICctaW1hZScsICc8aW5maWxlLm1hZT4nLCAnLW9tYWUnLCAnPG91dGZpbGUubWFlPic=

> <r_lp_tautomer_probability>
1

> <r_epik_Ionization_Penalty>
0.0024631

> <r_epik_Ionization_Penalty_Charging>
0

> <r_epik_Ionization_Penalty_Neutral>
0.0024631

> <r_epik_State_Penalty>
0.00162428

> <r_epik_Charging_Adjusted_Penalty>
0.00162428

> <i_epik_Tot_Q>
0

> <i_epik_Tot_abs_Q>
0

> <r_epik_Metal_State_Penalty>
-0

> <b_epik_Metal_Only>
0

> <s_lp_Force_Field>
OPLS_2005

> <r_lp_Energy>
48.9745

> <b_lp_Chiralities_Consistent>
1

> <s_lp_Variant>
AV-unprocessed.smi:246-6

> <Gold.Version>
5.8.1

> <Gold.Id.Protein>
6NUR|6NUR_protein|mol2

> <Gold.PLP.Fitness>
52.4511

> <Gold.PLP.PLP>
-46.0860

> <Gold.PLP.part.hbond>
-2.6502

> <Gold.PLP.part.metal>
0.0000

> <Gold.PLP.part.buried>
-5.5525

> <Gold.PLP.part.nonpolar>
-38.3512

> <Gold.PLP.part.repulsive>
1.7412

> <Gold.PLP.ligand.clash>
0.0000

> <Gold.PLP.ligand.torsion>
1.3144

> <Gold.PLP.Chemscore.Hbond>
2.0095

> <Gold.PLP.Chemscore.CHOScore>
0.7079

> <Gold.PLP.Chemscore.Metal>
0.0000

> <Gold.Chemscore.Hbonds>
donor molecule, donor type, donor heavy atom, donor atom, acceptor molecule, acceptor atom, score
      P1  H  7997  8010       L1     6  1.00
      P1  H  8011  8017       L1    12  0.03
      L1  C    13    43       P1  7957  0.65

> <Gold.PLP.Chemscore.Internal.Correction>
0.8417

> <Gold.Rescore>
     Score         DG    S(hbond)    S(metal)    S(lipo)     H(rot)  DE(clash)    DE(int)     intcor
     12.08     -14.84       1.81        0.00      96.20       3.10       0.33       2.42       ----

> <Gold.Chemscore.Fitness>
12.0828

> <Gold.Chemscore.DG>
-14.8359

> <Gold.Chemscore.ZeroCoef>
-5.4800

> <Gold.Chemscore.Hbond>
1.8095

> <Gold.Chemscore.Metal>
0.0000

> <Gold.Chemscore.Lipo>
96.1957

> <Gold.Chemscore.Internal_Hbond>
0.0000

> <Gold.Chemscore.DEClash>
0.3312

> <Gold.Chemscore.DEInternal>
2.4219

> <Gold.Chemscore.Rot>
3.1026

> <Gold.Chemscore.Internal.Correction>
   9.000000E+99

> <Gold.Chemscore.Hbonds>
donor molecule, donor type, donor heavy atom, donor atom, acceptor molecule, acceptor atom, score
      P1  H  7997  8010       L1     6  0.72

> <Gold.Chemscore.Hbond.Weighted>
-6.0437

> <Gold.Chemscore.Metal.Weighted>
-0.0000

> <Gold.Chemscore.Lipo.Weighted>
-11.2549

> <Gold.Chemscore.Internal_Hbond.Weighted>
0.0000

> <Gold.Chemscore.DEClash.Weighted>
0.3312

> <Gold.Chemscore.DEInternal.Weighted>
2.4219

> <Gold.Chemscore.Rot.Weighted>
7.9426

> <Gold.Chemscore.Internal.Correction.Weighted>
   9.000000E+99

> <Gold.Protein.RotatedTorsions>
[ 6907 6896 6895 6894 ] final    8.19 input  -60.11 | X-H torsion
[ 7974 7965 7964 7962 ] final  -34.70 input  175.53 | X-H torsion
[ 8008 7997 7996 7995 ] final   24.09 input   59.86 | X-H torsion
[ 10167 10162 10161 10158 ] final   71.17 input  -65.29 | X-H torsion
[ 10718 10713 10712 10709 ] final  -31.10 input   66.30 | X-H torsion
[ 10763 10752 10751 10750 ] final -111.38 input  -60.55 | X-H torsion
[ 11005 11000 10999 10996 ] final   30.76 input  -57.11 | X-H torsion

> <Gold.Protein.ActiveResidues>
 VAL166  LYS551  ARG553  GLY616  TRP617  ASP618  TYR619  PRO620  LYS621  CYS622 
 ASP623  PHE694  ASN695  SER759  ASP760  ASP761  ALA762  ILE779  LEU786  VAL792 
 PHE793  MET794  SER795  GLU796  ALA797  LYS798  CYS799  TRP800  GLU811  SER814 

> <Gold.Protein.RotatedAtoms>
  151.7020  135.0928  160.0252 H   0  0  0  0  0  0  0  0  0  0  0  0  # atno 6907 bound_to 6896
  152.3714  133.6420  159.6099 H   0  0  0  0  0  0  0  0  0  0  0  0  # atno 6908 bound_to 6896
  150.7676  133.9180  159.3430 H   0  0  0  0  0  0  0  0  0  0  0  0  # atno 6909 bound_to 6896
  146.0807  140.6071  142.8909 H   0  0  0  0  0  0  0  0  0  0  0  0  # atno 7974 bound_to 7965
  154.9910  140.3114  155.4906 H   0  0  0  0  0  0  0  0  0  0  0  0  # atno 8008 bound_to 7997
  156.2940  140.2249  156.4955 H   0  0  0  0  0  0  0  0  0  0  0  0  # atno 8009 bound_to 7997
  154.7703  140.0453  157.1034 H   0  0  0  0  0  0  0  0  0  0  0  0  # atno 8010 bound_to 7997
  140.0490  144.5327  150.7377 H   0  0  0  0  0  0  0  0  0  0  0  0  # atno 10167 bound_to 10162
  156.3915  130.4373  149.7391 H   0  0  0  0  0  0  0  0  0  0  0  0  # atno 10718 bound_to 10713
  154.8297  135.4529  154.1030 H   0  0  0  0  0  0  0  0  0  0  0  0  # atno 10763 bound_to 10752
  153.2314  135.6906  153.7892 H   0  0  0  0  0  0  0  0  0  0  0  0  # atno 10764 bound_to 10752
  153.7273  135.3332  155.3255 H   0  0  0  0  0  0  0  0  0  0  0  0  # atno 10765 bound_to 10752
  140.2910  134.2865  155.7776 H   0  0  0  0  0  0  0  0  0  0  0  0  # atno 11005 bound_to 11000
  144.7291  140.4618  143.6951 LP  0  0  0  0  0  0  0  0  0  0  0  0  # atno 17320 bound_to 7965
  145.6222  139.1525  143.3016 LP  0  0  0  0  0  0  0  0  0  0  0  0  # atno 17321 bound_to 7965
  140.7225  143.2603  151.4229 LP  0  0  0  0  0  0  0  0  0  0  0  0  # atno 17342 bound_to 10162
  139.5965  144.1386  152.2150 LP  0  0  0  0  0  0  0  0  0  0  0  0  # atno 17343 bound_to 10162
  156.4443  130.7876  151.2897 LP  0  0  0  0  0  0  0  0  0  0  0  0  # atno 17370 bound_to 10713
  157.7499  131.0115  150.3348 LP  0  0  0  0  0  0  0  0  0  0  0  0  # atno 17371 bound_to 10713
  141.2146  133.7585  156.9624 LP  0  0  0  0  0  0  0  0  0  0  0  0  # atno 17394 bound_to 11000
  140.1196  134.9425  157.2184 LP  0  0  0  0  0  0  0  0  0  0  0  0  # atno 17395 bound_to 11000

$$$$
