AV-unprocessed.smi:3046|AV-procd|sdf|11616|dock8
  -GOLD-   2272017 03D 1   1.00000     0.00000
 Structure written by MMmdl.
 38 38  0  0  0  0  0  0  0  0  2 V2000
  145.6336  143.6180  153.4652 C   0  0  0  0  0  0  0  0  0  0  0  0
  145.9855  142.6751  154.3519 C   0  0  0  0  0  0  0  0  0  0  0  0
  146.9833  141.5710  154.0769 C   0  0  0  0  0  0  0  0  0  0  0  0
  146.3543  140.4865  153.3381 N   0  0  0  0  0  0  0  0  0  0  0  0
  146.9321  139.3005  153.0998 C   0  0  0  0  0  0  0  0  0  0  0  0
  148.0671  139.0137  153.4820 O   0  0  0  0  0  0  0  0  0  0  0  0
  146.1106  138.2859  152.2934 C   0  0  1  0  0  0  0  0  0  0  0  0
  146.4970  138.3624  150.8086 C   0  0  0  0  0  0  0  0  0  0  0  0
  146.3049  136.9030  152.7901 N   0  3  0  0  0  0  0  0  0  0  0  0
  145.2394  135.9342  152.4397 C   0  0  1  0  0  0  0  0  0  0  0  0
  143.8697  136.5082  152.8363 C   0  0  0  0  0  0  0  0  0  0  0  0
  145.3169  135.5732  150.9409 C   0  0  0  0  0  0  0  0  0  0  0  0
  145.2358  134.1440  150.7021 N   0  0  0  0  0  0  0  0  0  0  0  0
  144.2180  133.4255  150.1105 C   0  0  0  0  0  0  0  0  0  0  0  0
  144.5999  132.1144  150.1016 C   0  0  0  0  0  0  0  0  0  0  0  0
  145.8853  132.1318  150.7118 C   0  0  0  0  0  0  0  0  0  0  0  0
  146.2637  133.3484  151.0688 N   0  0  0  0  0  0  0  0  0  0  0  0
  146.0547  143.6394  152.4707 H   0  0  0  0  0  0  0  0  0  0  0  0
  144.9169  144.3834  153.7246 H   0  0  0  0  0  0  0  0  0  0  0  0
  145.5450  142.6899  155.3383 H   0  0  0  0  0  0  0  0  0  0  0  0
  147.8330  141.9606  153.5140 H   0  0  0  0  0  0  0  0  0  0  0  0
  147.3626  141.1974  155.0292 H   0  0  0  0  0  0  0  0  0  0  0  0
  145.4228  140.6514  152.9842 H   0  0  0  0  0  0  0  0  0  0  0  0
  145.0501  138.5324  152.3722 H   0  0  0  0  0  0  0  0  0  0  0  0
  146.3312  139.3631  150.4073 H   0  0  0  0  0  0  0  0  0  0  0  0
  145.9005  137.6704  150.2129 H   0  0  0  0  0  0  0  0  0  0  0  0
  147.5473  138.1119  150.6525 H   0  0  0  0  0  0  0  0  0  0  0  0
  147.1643  136.5588  152.3866 H   0  0  0  0  0  0  0  0  0  0  0  0
  145.3853  135.0210  153.0192 H   0  0  0  0  0  0  0  0  0  0  0  0
  143.0691  135.7886  152.6635 H   0  0  0  0  0  0  0  0  0  0  0  0
  143.6365  137.4087  152.2671 H   0  0  0  0  0  0  0  0  0  0  0  0
  143.8465  136.7680  153.8951 H   0  0  0  0  0  0  0  0  0  0  0  0
  144.5120  136.0626  150.3909 H   0  0  0  0  0  0  0  0  0  0  0  0
  146.2506  135.9305  150.5059 H   0  0  0  0  0  0  0  0  0  0  0  0
  143.3165  133.8994  149.7510 H   0  0  0  0  0  0  0  0  0  0  0  0
  144.0465  131.2712  149.7156 H   0  0  0  0  0  0  0  0  0  0  0  0
  146.5502  131.3026  150.9041 H   0  0  0  0  0  0  0  0  0  0  0  0
  146.4132  136.9298  153.7942 H   0  0  0  0  0  0  0  0  0  0  0  0
  1  2  2  0  0  0  0
  1 18  1  0  0  0  0
  1 19  1  0  0  0  0
  2  3  1  0  0  0  0
  2 20  1  0  0  0  0
  3  4  1  0  0  0  0
  3 21  1  0  0  0  0
  3 22  1  0  0  0  0
  4  5  1  0  0  0  0
  4 23  1  0  0  0  0
  5  6  2  0  0  0  0
  5  7  1  0  0  0  0
  7  8  1  0  0  0  0
  7  9  1  0  0  0  0
  7 24  1  0  0  0  0
  8 25  1  0  0  0  0
  8 26  1  0  0  0  0
  8 27  1  0  0  0  0
  9 10  1  0  0  0  0
  9 28  1  0  0  0  0
  9 38  1  0  0  0  0
 10 11  1  0  0  0  0
 10 12  1  0  0  0  0
 10 29  1  0  0  0  0
 11 30  1  0  0  0  0
 11 31  1  0  0  0  0
 11 32  1  0  0  0  0
 12 13  1  0  0  0  0
 12 33  1  0  0  0  0
 12 34  1  0  0  0  0
 13 17  1  0  0  0  0
 13 14  1  0  0  0  0
 14 15  2  0  0  0  0
 14 35  1  0  0  0  0
 15 16  1  0  0  0  0
 15 36  1  0  0  0  0
 16 17  2  0  0  0  0
 16 37  1  0  0  0  0
M  CHG  1   9   1
M  END
> <s_m_source_file>
AV-unprocessed.smi

> <i_m_source_file_index>
3046

> <i_lp_mmshare_version>
43012

> <i_f3d_flags>
0

> <s_epik_input>
W0NIMl09W0NIXVtDSDJdW05IXUMoPU8pW0NASF0oW0NIM10pW05IXVtDQEhdKFtDSDNdKVtDSDJdbjFbY0hdW2NIXVtjSF1uMQ==

> <s_epik_cmdline>
J2VwaWtfcHl0aG9uJywgJy1waCcsICc3LjAnLCAnLXRuJywgJzgnLCAnLW1hJywgJzIwMCcsICctbWV0YWxfYmluZGluZycsICctaW1hZScsICc8aW5maWxlLm1hZT4nLCAnLW9tYWUnLCAnPG91dGZpbGUubWFlPic=

> <r_lp_tautomer_probability>
1

> <r_epik_Ionization_Penalty>
0.132961

> <r_epik_Ionization_Penalty_Charging>
0.132956

> <r_epik_Ionization_Penalty_Neutral>
5.00268e-06

> <r_epik_State_Penalty>
0.122332

> <r_epik_Charging_Adjusted_Penalty>
0.255288

> <i_epik_Tot_Q>
1

> <i_epik_Tot_abs_Q>
1

> <r_epik_Metal_State_Penalty>
0.122338

> <b_epik_Metal_Only>
0

> <s_lp_Force_Field>
OPLS_2005

> <r_lp_Energy>
6.90886

> <b_lp_Chiralities_Consistent>
1

> <s_lp_Variant>
AV-unprocessed.smi:3046-4

> <Gold.Version>
5.8.1

> <Gold.Id.Protein>
6NUR|6NUR_protein|mol2

> <Gold.PLP.Fitness>
46.1762

> <Gold.PLP.PLP>
-34.7159

> <Gold.PLP.part.hbond>
-2.0000

> <Gold.PLP.part.metal>
0.0000

> <Gold.PLP.part.buried>
-1.5250

> <Gold.PLP.part.nonpolar>
-33.9842

> <Gold.PLP.part.repulsive>
1.4047

> <Gold.PLP.ligand.clash>
0.0000

> <Gold.PLP.ligand.torsion>
1.8086

> <Gold.PLP.Chemscore.Hbond>
3.0000

> <Gold.PLP.Chemscore.CHOScore>
2.0000

> <Gold.PLP.Chemscore.Metal>
0.0000

> <Gold.Chemscore.Hbonds>
donor molecule, donor type, donor heavy atom, donor atom, acceptor molecule, acceptor atom, score
      L1  H     4    23       P1 10175  1.00
      L1  H     9    28       P1  7948  2.00
      L1  C    14    35       P1 10186  1.00
      L1  C    16    37       P1 10747  0.97

> <Gold.PLP.Chemscore.Internal.Correction>
0.0775

> <Gold.Rescore>
     Score         DG    S(hbond)    S(metal)    S(lipo)     H(rot)  DE(clash)    DE(int)     intcor
     12.80     -15.24       1.97        0.00      76.52       2.26       0.69       1.74       ----

> <Gold.Chemscore.Fitness>
12.8044

> <Gold.Chemscore.DG>
-15.2367

> <Gold.Chemscore.ZeroCoef>
-5.4800

> <Gold.Chemscore.Hbond>
1.9748

> <Gold.Chemscore.Metal>
0.0000

> <Gold.Chemscore.Lipo>
76.5224

> <Gold.Chemscore.Internal_Hbond>
0.0000

> <Gold.Chemscore.DEClash>
0.6913

> <Gold.Chemscore.DEInternal>
1.7410

> <Gold.Chemscore.Rot>
2.2626

> <Gold.Chemscore.Internal.Correction>
   9.000000E+99

> <Gold.Chemscore.Hbonds>
donor molecule, donor type, donor heavy atom, donor atom, acceptor molecule, acceptor atom, score
      L1  H     4    23       P1 10175  0.70
      L1  H     9    28       P1  7948  1.00

> <Gold.Chemscore.Hbond.Weighted>
-6.5957

> <Gold.Chemscore.Metal.Weighted>
-0.0000

> <Gold.Chemscore.Lipo.Weighted>
-8.9531

> <Gold.Chemscore.Internal_Hbond.Weighted>
0.0000

> <Gold.Chemscore.DEClash.Weighted>
0.6913

> <Gold.Chemscore.DEInternal.Weighted>
1.7410

> <Gold.Chemscore.Rot.Weighted>
5.7922

> <Gold.Chemscore.Internal.Correction.Weighted>
   9.000000E+99

> <Gold.Protein.RotatedTorsions>
[ 6907 6896 6895 6894 ] final   92.45 input  -60.11 | X-H torsion
[ 7974 7965 7964 7962 ] final  -53.83 input  175.53 | X-H torsion
[ 8008 7997 7996 7995 ] final   66.34 input   59.86 | X-H torsion
[ 10167 10162 10161 10158 ] final   88.81 input  -65.29 | X-H torsion
[ 10718 10713 10712 10709 ] final  -61.84 input   66.30 | X-H torsion
[ 10763 10752 10751 10750 ] final  -91.27 input  -60.55 | X-H torsion
[ 11005 11000 10999 10996 ] final  132.79 input  -57.11 | X-H torsion

> <Gold.Protein.ActiveResidues>
 VAL166  LYS551  ARG553  GLY616  TRP617  ASP618  TYR619  PRO620  LYS621  CYS622 
 ASP623  PHE694  ASN695  SER759  ASP760  ASP761  ALA762  ILE779  LEU786  VAL792 
 PHE793  MET794  SER795  GLU796  ALA797  LYS798  CYS799  TRP800  GLU811  SER814 

> <Gold.Protein.RotatedAtoms>
  152.5452  134.1501  159.8514 H   0  0  0  0  0  0  0  0  0  0  0  0  # atno 6907 bound_to 6896
  151.1528  133.4889  159.2602 H   0  0  0  0  0  0  0  0  0  0  0  0  # atno 6908 bound_to 6896
  151.1454  135.0211  159.8699 H   0  0  0  0  0  0  0  0  0  0  0  0  # atno 6909 bound_to 6896
  145.8924  140.8060  142.9785 H   0  0  0  0  0  0  0  0  0  0  0  0  # atno 7974 bound_to 7965
  155.6758  140.3497  155.4836 H   0  0  0  0  0  0  0  0  0  0  0  0  # atno 8008 bound_to 7997
  155.9649  140.1144  157.0886 H   0  0  0  0  0  0  0  0  0  0  0  0  # atno 8009 bound_to 7997
  154.4152  140.1168  156.5214 H   0  0  0  0  0  0  0  0  0  0  0  0  # atno 8010 bound_to 7997
  139.8636  144.6531  150.9030 H   0  0  0  0  0  0  0  0  0  0  0  0  # atno 10167 bound_to 10162
  156.0895  130.4202  150.1050 H   0  0  0  0  0  0  0  0  0  0  0  0  # atno 10718 bound_to 10713
  154.6743  135.5274  153.8179 H   0  0  0  0  0  0  0  0  0  0  0  0  # atno 10763 bound_to 10752
  153.0522  135.6537  154.0675 H   0  0  0  0  0  0  0  0  0  0  0  0  # atno 10764 bound_to 10752
  154.0570  135.2965  155.3311 H   0  0  0  0  0  0  0  0  0  0  0  0  # atno 10765 bound_to 10752
  139.9811  134.9547  156.9632 H   0  0  0  0  0  0  0  0  0  0  0  0  # atno 11005 bound_to 11000
  144.6731  140.1550  143.7427 LP  0  0  0  0  0  0  0  0  0  0  0  0  # atno 17320 bound_to 7965
  145.8892  139.2366  143.1559 LP  0  0  0  0  0  0  0  0  0  0  0  0  # atno 17321 bound_to 7965
  140.7771  143.3723  151.1626 LP  0  0  0  0  0  0  0  0  0  0  0  0  # atno 17342 bound_to 10162
  139.7350  143.9013  152.3032 LP  0  0  0  0  0  0  0  0  0  0  0  0  # atno 17343 bound_to 10162
  156.9064  130.9637  151.3569 LP  0  0  0  0  0  0  0  0  0  0  0  0  # atno 17370 bound_to 10713
  157.6040  130.8533  149.8846 LP  0  0  0  0  0  0  0  0  0  0  0  0  # atno 17371 bound_to 10713
  140.5094  134.1018  155.7267 LP  0  0  0  0  0  0  0  0  0  0  0  0  # atno 17394 bound_to 11000
  141.1483  133.9015  157.2161 LP  0  0  0  0  0  0  0  0  0  0  0  0  # atno 17395 bound_to 11000

$$$$
