AV-unprocessed.smi:685|AV-procd|sdf|3333|dock10
  -GOLD-   22720 0303D 1   1.00000     0.00000
 Structure written by MMmdl.
 50 51  0  0  0  0  0  0  0  0  1 V2000
  152.6938  139.4121  154.4507 C   0  0  0  0  0  0  0  0  0  0  0  0
  151.6047  138.3878  154.5990 C   0  0  0  0  0  0  0  0  0  0  0  0
  151.8903  137.2167  155.1428 N   0  0  0  0  0  0  0  0  0  0  0  0
  150.7227  136.5434  155.1428 N   0  0  0  0  0  0  0  0  0  0  0  0
  150.6784  135.1977  155.6813 C   0  0  0  0  0  0  0  0  0  0  0  0
  149.6967  137.2900  154.5963 C   0  0  0  0  0  0  0  0  0  0  0  0
  148.3016  136.7630  154.4917 C   0  0  0  0  0  0  0  0  0  0  0  0
  150.2310  138.4976  154.2321 C   0  0  0  0  0  0  0  0  0  0  0  0
  149.5503  139.6844  153.5983 C   0  0  0  0  0  0  0  0  0  0  0  0
  148.4254  140.2626  154.4841 C   0  0  2  0  0  0  0  0  0  0  0  0
  147.7694  141.5116  153.8732 C   0  0  0  0  0  0  0  0  0  0  0  0
  148.9436  140.6004  155.8069 N   0  0  0  0  0  0  0  0  0  0  0  0
  150.1380  141.1603  156.0563 C   0  0  0  0  0  0  0  0  0  0  0  0
  150.9429  141.4578  155.1732 O   0  0  0  0  0  0  0  0  0  0  0  0
  150.4735  141.4184  157.5276 C   0  0  0  0  0  0  0  0  0  0  0  0
  150.8059  142.8958  157.8076 C   0  0  0  0  0  0  0  0  0  0  0  0
  150.7273  143.2624  159.3005 C   0  0  0  0  0  0  0  0  0  0  0  0
  151.0715  144.7207  159.6176 C   0  0  0  0  0  0  0  0  0  0  0  0
  151.4032  144.7286  161.1128 C   0  0  0  0  0  0  0  0  0  0  0  0
  151.8713  143.3059  161.4545 C   0  0  0  0  0  0  0  0  0  0  0  0
  151.7130  142.4793  160.1723 C   0  0  0  0  0  0  0  0  0  0  0  0
  152.5185  140.0544  153.5878 H   0  0  0  0  0  0  0  0  0  0  0  0
  153.6691  138.9430  154.3180 H   0  0  0  0  0  0  0  0  0  0  0  0
  152.7486  140.0509  155.3323 H   0  0  0  0  0  0  0  0  0  0  0  0
  149.8644  135.1164  156.4020 H   0  0  0  0  0  0  0  0  0  0  0  0
  151.6157  134.9517  156.1826 H   0  0  0  0  0  0  0  0  0  0  0  0
  150.5116  134.4862  154.8724 H   0  0  0  0  0  0  0  0  0  0  0  0
  147.6618  137.4351  153.9209 H   0  0  0  0  0  0  0  0  0  0  0  0
  147.8604  136.6450  155.4814 H   0  0  0  0  0  0  0  0  0  0  0  0
  148.2882  135.7920  153.9964 H   0  0  0  0  0  0  0  0  0  0  0  0
  150.2874  140.4621  153.3965 H   0  0  0  0  0  0  0  0  0  0  0  0
  149.1416  139.4257  152.6215 H   0  0  0  0  0  0  0  0  0  0  0  0
  147.6479  139.5058  154.6041 H   0  0  0  0  0  0  0  0  0  0  0  0
  147.3005  141.2890  152.9145 H   0  0  0  0  0  0  0  0  0  0  0  0
  148.5007  142.3039  153.7098 H   0  0  0  0  0  0  0  0  0  0  0  0
  146.9917  141.9057  154.5281 H   0  0  0  0  0  0  0  0  0  0  0  0
  148.3486  140.3884  156.5947 H   0  0  0  0  0  0  0  0  0  0  0  0
  149.6358  141.1011  158.1503 H   0  0  0  0  0  0  0  0  0  0  0  0
  151.3205  140.7882  157.8006 H   0  0  0  0  0  0  0  0  0  0  0  0
  151.8137  143.1133  157.4505 H   0  0  0  0  0  0  0  0  0  0  0  0
  150.1361  143.5398  157.2355 H   0  0  0  0  0  0  0  0  0  0  0  0
  149.7190  143.0586  159.6654 H   0  0  0  0  0  0  0  0  0  0  0  0
  151.9499  145.0285  159.0483 H   0  0  0  0  0  0  0  0  0  0  0  0
  150.2611  145.4078  159.3719 H   0  0  0  0  0  0  0  0  0  0  0  0
  152.1561  145.4794  161.3544 H   0  0  0  0  0  0  0  0  0  0  0  0
  150.5083  144.9668  161.6894 H   0  0  0  0  0  0  0  0  0  0  0  0
  152.9046  143.2929  161.8029 H   0  0  0  0  0  0  0  0  0  0  0  0
  151.2536  142.8935  162.2530 H   0  0  0  0  0  0  0  0  0  0  0  0
  151.3739  141.4627  160.3737 H   0  0  0  0  0  0  0  0  0  0  0  0
  152.6784  142.4087  159.6688 H   0  0  0  0  0  0  0  0  0  0  0  0
  1  2  1  0  0  0  0
  1 22  1  0  0  0  0
  1 23  1  0  0  0  0
  1 24  1  0  0  0  0
  2  8  1  0  0  0  0
  2  3  2  0  0  0  0
  3  4  1  0  0  0  0
  4  5  1  0  0  0  0
  4  6  1  0  0  0  0
  5 25  1  0  0  0  0
  5 26  1  0  0  0  0
  5 27  1  0  0  0  0
  6  7  1  0  0  0  0
  6  8  2  0  0  0  0
  7 28  1  0  0  0  0
  7 29  1  0  0  0  0
  7 30  1  0  0  0  0
  8  9  1  0  0  0  0
  9 10  1  0  0  0  0
  9 31  1  0  0  0  0
  9 32  1  0  0  0  0
 10 11  1  0  0  0  0
 10 12  1  0  0  0  0
 10 33  1  0  0  0  0
 11 34  1  0  0  0  0
 11 35  1  0  0  0  0
 11 36  1  0  0  0  0
 12 13  1  0  0  0  0
 12 37  1  0  0  0  0
 13 14  2  0  0  0  0
 13 15  1  0  0  0  0
 15 16  1  0  0  0  0
 15 38  1  0  0  0  0
 15 39  1  0  0  0  0
 16 17  1  0  0  0  0
 16 40  1  0  0  0  0
 16 41  1  0  0  0  0
 17 21  1  0  0  0  0
 17 18  1  0  0  0  0
 17 42  1  0  0  0  0
 18 19  1  0  0  0  0
 18 43  1  0  0  0  0
 18 44  1  0  0  0  0
 19 20  1  0  0  0  0
 19 45  1  0  0  0  0
 19 46  1  0  0  0  0
 20 21  1  0  0  0  0
 20 47  1  0  0  0  0
 20 48  1  0  0  0  0
 21 49  1  0  0  0  0
 21 50  1  0  0  0  0
M  END
> <s_m_source_file>
AV-unprocessed.smi

> <i_m_source_file_index>
685

> <i_lp_mmshare_version>
43012

> <i_f3d_flags>
0

> <s_epik_input>
W0NIM11jMW5uKFtDSDNdKWMoW0NIM10pYzFbQ0gyXVtDQEhdKFtDSDNdKVtOSF1DKD1PKVtDSDJdW0NIMl1bQ0hdMltDSDJdW0NIMl1bQ0gyXVtDSDJdMg==

> <s_epik_cmdline>
J2VwaWtfcHl0aG9uJywgJy1waCcsICc3LjAnLCAnLXRuJywgJzgnLCAnLW1hJywgJzIwMCcsICctbWV0YWxfYmluZGluZycsICctaW1hZScsICc8aW5maWxlLm1hZT4nLCAnLW9tYWUnLCAnPG91dGZpbGUubWFlPic=

> <r_lp_tautomer_probability>
1

> <r_epik_Ionization_Penalty>
0.0131144

> <r_epik_Ionization_Penalty_Charging>
0

> <r_epik_Ionization_Penalty_Neutral>
0.0131144

> <r_epik_State_Penalty>
0.0101889

> <r_epik_Charging_Adjusted_Penalty>
0.0101889

> <i_epik_Tot_Q>
0

> <i_epik_Tot_abs_Q>
0

> <r_epik_Metal_State_Penalty>
0.00996794

> <b_epik_Metal_Only>
0

> <s_lp_Force_Field>
OPLS_2005

> <r_lp_Energy>
16.135

> <b_lp_Chiralities_Consistent>
1

> <s_lp_Variant>
AV-unprocessed.smi:685-1

> <Gold.Version>
5.8.1

> <Gold.Id.Protein>
6NUR|6NUR_protein|mol2

> <Gold.PLP.Fitness>
47.0290

> <Gold.PLP.PLP>
-42.7061

> <Gold.PLP.part.hbond>
-2.0000

> <Gold.PLP.part.metal>
0.0000

> <Gold.PLP.part.buried>
-2.2452

> <Gold.PLP.part.nonpolar>
-39.5577

> <Gold.PLP.part.repulsive>
0.1189

> <Gold.PLP.ligand.clash>
0.0000

> <Gold.PLP.ligand.torsion>
0.4107

> <Gold.PLP.Chemscore.Hbond>
1.7040

> <Gold.PLP.Chemscore.CHOScore>
0.0000

> <Gold.PLP.Chemscore.Metal>
0.0000

> <Gold.Chemscore.Hbonds>
donor molecule, donor type, donor heavy atom, donor atom, acceptor molecule, acceptor atom, score
      P1  H  7989  7998       L1    14  0.43
      P1  H 10752 10765       L1     3  0.40

> <Gold.PLP.Chemscore.Internal.Correction>
0.0322

> <Gold.Rescore>
     Score         DG    S(hbond)    S(metal)    S(lipo)     H(rot)  DE(clash)    DE(int)     intcor
     18.78     -20.50       1.74        0.00     112.21       1.53       0.40       1.33       ----

> <Gold.Chemscore.Fitness>
18.7765

> <Gold.Chemscore.DG>
-20.5043

> <Gold.Chemscore.ZeroCoef>
-5.4800

> <Gold.Chemscore.Hbond>
1.7379

> <Gold.Chemscore.Metal>
0.0000

> <Gold.Chemscore.Lipo>
112.2059

> <Gold.Chemscore.Internal_Hbond>
0.0000

> <Gold.Chemscore.DEClash>
0.3967

> <Gold.Chemscore.DEInternal>
1.3311

> <Gold.Chemscore.Rot>
1.5268

> <Gold.Chemscore.Internal.Correction>
   9.000000E+99

> <Gold.Chemscore.Hbonds>
donor molecule, donor type, donor heavy atom, donor atom, acceptor molecule, acceptor atom, score
      P1  H  7989  7998       L1    14  0.44
      P1  H 10752 10765       L1     3  0.06

> <Gold.Chemscore.Hbond.Weighted>
-5.8047

> <Gold.Chemscore.Metal.Weighted>
-0.0000

> <Gold.Chemscore.Lipo.Weighted>
-13.1281

> <Gold.Chemscore.Internal_Hbond.Weighted>
0.0000

> <Gold.Chemscore.DEClash.Weighted>
0.3967

> <Gold.Chemscore.DEInternal.Weighted>
1.3311

> <Gold.Chemscore.Rot.Weighted>
3.9086

> <Gold.Chemscore.Internal.Correction.Weighted>
   9.000000E+99

> <Gold.Protein.RotatedTorsions>
[ 6907 6896 6895 6894 ] final   -5.19 input  -60.11 | X-H torsion
[ 7974 7965 7964 7962 ] final  -15.53 input  175.53 | X-H torsion
[ 8008 7997 7996 7995 ] final  160.11 input   59.86 | X-H torsion
[ 10167 10162 10161 10158 ] final  -10.90 input  -65.29 | X-H torsion
[ 10718 10713 10712 10709 ] final -152.63 input   66.30 | X-H torsion
[ 10763 10752 10751 10750 ] final -150.36 input  -60.55 | X-H torsion
[ 11005 11000 10999 10996 ] final  -42.38 input  -57.11 | X-H torsion

> <Gold.Protein.ActiveResidues>
 VAL166  LYS551  ARG553  GLY616  TRP617  ASP618  TYR619  PRO620  LYS621  CYS622 
 ASP623  PHE694  ASN695  SER759  ASP760  ASP761  ALA762  ILE779  LEU786  VAL792 
 PHE793  MET794  SER795  GLU796  ALA797  LYS798  CYS799  TRP800  GLU811  SER814 

> <Gold.Protein.RotatedAtoms>
  151.4856  135.1055  159.9789 H   0  0  0  0  0  0  0  0  0  0  0  0  # atno 6907 bound_to 6896
  152.4761  133.8139  159.7028 H   0  0  0  0  0  0  0  0  0  0  0  0  # atno 6908 bound_to 6896
  150.8801  133.7322  159.2961 H   0  0  0  0  0  0  0  0  0  0  0  0  # atno 6909 bound_to 6896
  146.2028  140.3506  142.8417 H   0  0  0  0  0  0  0  0  0  0  0  0  # atno 7974 bound_to 7965
  156.2194  140.1813  156.7512 H   0  0  0  0  0  0  0  0  0  0  0  0  # atno 8008 bound_to 7997
  154.5842  140.0661  156.9176 H   0  0  0  0  0  0  0  0  0  0  0  0  # atno 8009 bound_to 7997
  155.2449  140.3324  155.4291 H   0  0  0  0  0  0  0  0  0  0  0  0  # atno 8010 bound_to 7997
  140.7125  143.5697  150.9105 H   0  0  0  0  0  0  0  0  0  0  0  0  # atno 10167 bound_to 10162
  156.4750  130.8276  151.2505 H   0  0  0  0  0  0  0  0  0  0  0  0  # atno 10718 bound_to 10713
  154.8123  135.3286  154.7271 H   0  0  0  0  0  0  0  0  0  0  0  0  # atno 10763 bound_to 10752
  153.7918  135.6910  153.4874 H   0  0  0  0  0  0  0  0  0  0  0  0  # atno 10764 bound_to 10752
  153.1911  135.4550  155.0097 H   0  0  0  0  0  0  0  0  0  0  0  0  # atno 10765 bound_to 10752
  141.0311  133.6819  156.2586 H   0  0  0  0  0  0  0  0  0  0  0  0  # atno 11005 bound_to 11000
  144.8722  140.7288  143.6040 LP  0  0  0  0  0  0  0  0  0  0  0  0  # atno 17320 bound_to 7965
  145.3425  139.1728  143.4478 LP  0  0  0  0  0  0  0  0  0  0  0  0  # atno 17321 bound_to 7965
  139.9423  143.6367  152.3050 LP  0  0  0  0  0  0  0  0  0  0  0  0  # atno 17342 bound_to 10162
  139.6856  144.7652  151.1529 LP  0  0  0  0  0  0  0  0  0  0  0  0  # atno 17343 bound_to 10162
  157.7488  131.0063  150.3148 LP  0  0  0  0  0  0  0  0  0  0  0  0  # atno 17370 bound_to 10713
  156.3579  130.3842  149.7275 LP  0  0  0  0  0  0  0  0  0  0  0  0  # atno 17371 bound_to 10713
  140.6404  134.5171  157.5569 LP  0  0  0  0  0  0  0  0  0  0  0  0  # atno 17394 bound_to 11000
  139.9209  134.8152  156.1216 LP  0  0  0  0  0  0  0  0  0  0  0  0  # atno 17395 bound_to 11000

$$$$
