AV-unprocessed.smi:2202|AV-procd|sdf|8932|dock8
  -GOLD-   2272012143D 1   1.00000     0.00000
 Structure written by MMmdl.
 43 45  0  0  0  0  0  0  0  0  2 V2000
  149.7898  136.6659  156.1219 O   0  0  0  0  0  0  0  0  0  0  0  0
  149.9207  136.6321  154.8970 C   0  0  0  0  0  0  0  0  0  0  0  0
  150.8631  137.6034  154.1715 C   0  0  0  0  0  0  0  0  0  0  0  0
  150.6344  139.0130  154.5215 N   0  0  0  0  0  0  0  0  0  0  0  0
  151.4973  139.7591  155.2233 C   0  0  0  0  0  0  0  0  0  0  0  0
  152.5780  139.3774  155.6743 O   0  0  0  0  0  0  0  0  0  0  0  0
  150.9886  141.1919  155.3963 C   0  0  2  0  0  0  0  0  0  0  0  0
  150.9243  141.5980  156.8924 C   0  0  0  0  0  0  0  0  0  0  0  0
  149.6607  141.1178  157.5759 C   0  0  0  0  0  0  0  0  0  0  0  0
  148.4889  141.0918  156.9274 C   0  0  0  0  0  0  0  0  0  0  0  0
  148.3814  141.5414  155.4850 C   0  0  0  0  0  0  0  0  0  0  0  0
  149.6283  141.1603  154.6439 C   0  0  2  0  0  0  0  0  0  0  0  0
  149.5546  139.7133  154.1508 C   0  0  0  0  0  0  0  0  0  0  0  0
  148.6108  139.2840  153.4866 O   0  0  0  0  0  0  0  0  0  0  0  0
  149.2648  135.7601  154.1166 N   0  0  0  0  0  0  0  0  0  0  0  0
  148.3248  134.7555  154.5992 C   0  0  0  0  0  0  0  0  0  0  0  0
  148.6426  133.3626  154.0292 C   0  0  0  0  0  0  0  0  0  0  0  0
  147.6296  132.9234  152.9905 C   0  0  0  0  0  0  0  0  0  0  0  0
  146.9017  131.7194  153.1088 C   0  0  0  0  0  0  0  0  0  0  0  0
  145.9707  131.3763  152.1060 C   0  0  0  0  0  0  0  0  0  0  0  0
  145.7869  132.2433  151.0088 C   0  0  0  0  0  0  0  0  0  0  0  0
  146.5401  133.4333  150.9415 C   0  0  0  0  0  0  0  0  0  0  0  0
  147.4222  133.7269  151.9219 N   0  3  0  0  0  0  0  0  0  0  0  0
  151.8932  137.3214  154.3961 H   0  0  0  0  0  0  0  0  0  0  0  0
  150.7498  137.4667  153.0944 H   0  0  0  0  0  0  0  0  0  0  0  0
  151.6872  141.8493  154.8772 H   0  0  0  0  0  0  0  0  0  0  0  0
  151.7875  141.2162  157.4390 H   0  0  0  0  0  0  0  0  0  0  0  0
  150.9651  142.6836  156.9862 H   0  0  0  0  0  0  0  0  0  0  0  0
  149.7213  140.8475  158.6198 H   0  0  0  0  0  0  0  0  0  0  0  0
  147.5815  140.8001  157.4354 H   0  0  0  0  0  0  0  0  0  0  0  0
  147.4733  141.1202  155.0514 H   0  0  0  0  0  0  0  0  0  0  0  0
  148.2442  142.6231  155.4797 H   0  0  0  0  0  0  0  0  0  0  0  0
  149.6748  141.8013  153.7626 H   0  0  0  0  0  0  0  0  0  0  0  0
  149.4316  135.7935  153.1210 H   0  0  0  0  0  0  0  0  0  0  0  0
  148.3782  134.7329  155.6879 H   0  0  0  0  0  0  0  0  0  0  0  0
  147.3059  135.0523  154.3446 H   0  0  0  0  0  0  0  0  0  0  0  0
  149.6325  133.3555  153.5707 H   0  0  0  0  0  0  0  0  0  0  0  0
  148.6728  132.6281  154.8351 H   0  0  0  0  0  0  0  0  0  0  0  0
  147.0516  131.0667  153.9568 H   0  0  0  0  0  0  0  0  0  0  0  0
  145.4036  130.4596  152.1784 H   0  0  0  0  0  0  0  0  0  0  0  0
  145.0788  131.9989  150.2304 H   0  0  0  0  0  0  0  0  0  0  0  0
  146.4643  134.1538  150.1402 H   0  0  0  0  0  0  0  0  0  0  0  0
  147.9566  134.5935  151.8535 H   0  0  0  0  0  0  0  0  0  0  0  0
  1  2  2  0  0  0  0
  2  3  1  0  0  0  0
  2 15  1  0  0  0  0
  3  4  1  0  0  0  0
  3 24  1  0  0  0  0
  3 25  1  0  0  0  0
  4 13  1  0  0  0  0
  4  5  1  0  0  0  0
  5  6  2  0  0  0  0
  5  7  1  0  0  0  0
  7 12  1  0  0  0  0
  7  8  1  0  0  0  0
  7 26  1  0  0  0  0
  8  9  1  0  0  0  0
  8 27  1  0  0  0  0
  8 28  1  0  0  0  0
  9 10  2  0  0  0  0
  9 29  1  0  0  0  0
 10 11  1  0  0  0  0
 10 30  1  0  0  0  0
 11 12  1  0  0  0  0
 11 31  1  0  0  0  0
 11 32  1  0  0  0  0
 12 13  1  0  0  0  0
 12 33  1  0  0  0  0
 13 14  2  0  0  0  0
 15 16  1  0  0  0  0
 15 34  1  0  0  0  0
 16 17  1  0  0  0  0
 16 35  1  0  0  0  0
 16 36  1  0  0  0  0
 17 18  1  0  0  0  0
 17 37  1  0  0  0  0
 17 38  1  0  0  0  0
 18 23  1  0  0  0  0
 18 19  2  0  0  0  0
 19 20  1  0  0  0  0
 19 39  1  0  0  0  0
 20 21  2  0  0  0  0
 20 40  1  0  0  0  0
 21 22  1  0  0  0  0
 21 41  1  0  0  0  0
 22 23  2  0  0  0  0
 22 42  1  0  0  0  0
 23 43  1  0  0  0  0
M  CHG  1  23   1
M  END
> <s_m_source_file>
AV-unprocessed.smi

> <i_m_source_file_index>
2202

> <i_lp_mmshare_version>
43012

> <i_f3d_flags>
0

> <s_epik_input>
W0NIMl0xW0NIXT1bQ0hdW0NIMl1bQ0BIXShbQ0BIXTEyKUMoPU8pTihDMj1PKVtDSDJdQyg9TylbTkhdW0NIMl1bQ0gyXWMzW2NIXVtjSF1bY0hdW2NIXW4z

> <s_epik_cmdline>
J2VwaWtfcHl0aG9uJywgJy1waCcsICc3LjAnLCAnLXRuJywgJzgnLCAnLW1hJywgJzIwMCcsICctbWV0YWxfYmluZGluZycsICctaW1hZScsICc8aW5maWxlLm1hZT4nLCAnLW9tYWUnLCAnPG91dGZpbGUubWFlPic=

> <r_lp_tautomer_probability>
1

> <r_epik_Ionization_Penalty>
1.90039

> <r_epik_Ionization_Penalty_Charging>
1.90039

> <r_epik_Ionization_Penalty_Neutral>
1.50224e-07

> <r_epik_State_Penalty>
2.02162

> <r_epik_Charging_Adjusted_Penalty>
3.922

> <i_epik_Tot_Q>
1

> <i_epik_Tot_abs_Q>
1

> <r_epik_Metal_State_Penalty>
2.04542

> <b_epik_Metal_Only>
0

> <s_lp_Force_Field>
OPLS_2005

> <r_lp_Energy>
20.8283

> <b_lp_Chiralities_Consistent>
1

> <s_lp_Variant>
AV-unprocessed.smi:2202-4

> <Gold.Version>
5.8.1

> <Gold.Id.Protein>
6NUR|6NUR_protein|mol2

> <Gold.PLP.Fitness>
51.9706

> <Gold.PLP.PLP>
-41.0494

> <Gold.PLP.part.hbond>
-3.0000

> <Gold.PLP.part.metal>
0.0000

> <Gold.PLP.part.buried>
-5.2661

> <Gold.PLP.part.nonpolar>
-32.8790

> <Gold.PLP.part.repulsive>
0.2390

> <Gold.PLP.ligand.clash>
0.0000

> <Gold.PLP.ligand.torsion>
0.5538

> <Gold.PLP.Chemscore.Hbond>
4.0000

> <Gold.PLP.Chemscore.CHOScore>
0.0000

> <Gold.PLP.Chemscore.Metal>
0.0000

> <Gold.Chemscore.Hbonds>
donor molecule, donor type, donor heavy atom, donor atom, acceptor molecule, acceptor atom, score
      L1  H    15    34       P1  7948  0.54
      L1  H    23    43       P1  7948  1.70
      P1  H  7997  8010       L1     6  1.00

> <Gold.PLP.Chemscore.Internal.Correction>
0.0288

> <Gold.Rescore>
     Score         DG    S(hbond)    S(metal)    S(lipo)     H(rot)  DE(clash)    DE(int)     intcor
     17.53     -18.04       2.76        0.00      71.40       1.96       0.00       0.52       ----

> <Gold.Chemscore.Fitness>
17.5251

> <Gold.Chemscore.DG>
-18.0432

> <Gold.Chemscore.ZeroCoef>
-5.4800

> <Gold.Chemscore.Hbond>
2.7644

> <Gold.Chemscore.Metal>
0.0000

> <Gold.Chemscore.Lipo>
71.4037

> <Gold.Chemscore.Internal_Hbond>
0.0000

> <Gold.Chemscore.DEClash>
0.0000

> <Gold.Chemscore.DEInternal>
0.5181

> <Gold.Chemscore.Rot>
1.9625

> <Gold.Chemscore.Internal.Correction>
   9.000000E+99

> <Gold.Chemscore.Hbonds>
donor molecule, donor type, donor heavy atom, donor atom, acceptor molecule, acceptor atom, score
      L1  H    15    34       P1  7948  0.10
      L1  H    23    43       P1  7948  0.15
      P1  H  7997  8010       L1     6  0.96

> <Gold.Chemscore.Hbond.Weighted>
-9.2329

> <Gold.Chemscore.Metal.Weighted>
-0.0000

> <Gold.Chemscore.Lipo.Weighted>
-8.3542

> <Gold.Chemscore.Internal_Hbond.Weighted>
0.0000

> <Gold.Chemscore.DEClash.Weighted>
0.0000

> <Gold.Chemscore.DEInternal.Weighted>
0.5181

> <Gold.Chemscore.Rot.Weighted>
5.0240

> <Gold.Chemscore.Internal.Correction.Weighted>
   9.000000E+99

> <Gold.Protein.RotatedTorsions>
[ 6907 6896 6895 6894 ] final  -52.00 input  -60.11 | X-H torsion
[ 7974 7965 7964 7962 ] final  -36.79 input  175.53 | X-H torsion
[ 8008 7997 7996 7995 ] final   82.69 input   59.86 | X-H torsion
[ 10167 10162 10161 10158 ] final  -71.78 input  -65.29 | X-H torsion
[ 10718 10713 10712 10709 ] final  166.10 input   66.30 | X-H torsion
[ 10763 10752 10751 10750 ] final   60.01 input  -60.55 | X-H torsion
[ 11005 11000 10999 10996 ] final   -0.17 input  -57.11 | X-H torsion

> <Gold.Protein.ActiveResidues>
 VAL166  LYS551  ARG553  GLY616  TRP617  ASP618  TYR619  PRO620  LYS621  CYS622 
 ASP623  PHE694  ASN695  SER759  ASP760  ASP761  ALA762  ILE779  LEU786  VAL792 
 PHE793  MET794  SER795  GLU796  ALA797  LYS798  CYS799  TRP800  GLU811  SER814 

> <Gold.Protein.RotatedAtoms>
  150.8559  134.7897  159.7044 H   0  0  0  0  0  0  0  0  0  0  0  0  # atno 6907 bound_to 6896
  152.4610  134.5180  159.9784 H   0  0  0  0  0  0  0  0  0  0  0  0  # atno 6908 bound_to 6896
  151.5293  133.3414  159.2951 H   0  0  0  0  0  0  0  0  0  0  0  0  # atno 6909 bound_to 6896
  146.0631  140.6319  142.8987 H   0  0  0  0  0  0  0  0  0  0  0  0  # atno 7974 bound_to 7965
  155.9140  140.3425  155.6120 H   0  0  0  0  0  0  0  0  0  0  0  0  # atno 8008 bound_to 7997
  155.7354  140.0801  157.2289 H   0  0  0  0  0  0  0  0  0  0  0  0  # atno 8009 bound_to 7997
  154.4060  140.1580  156.2543 H   0  0  0  0  0  0  0  0  0  0  0  0  # atno 8010 bound_to 7997
  140.5246  143.2328  151.7370 H   0  0  0  0  0  0  0  0  0  0  0  0  # atno 10167 bound_to 10162
  157.0707  131.0365  151.2612 H   0  0  0  0  0  0  0  0  0  0  0  0  # atno 10718 bound_to 10713
  152.9909  135.5551  154.5805 H   0  0  0  0  0  0  0  0  0  0  0  0  # atno 10763 bound_to 10752
  154.5187  135.2806  155.1283 H   0  0  0  0  0  0  0  0  0  0  0  0  # atno 10764 bound_to 10752
  154.2645  135.6375  153.5340 H   0  0  0  0  0  0  0  0  0  0  0  0  # atno 10765 bound_to 10752
  140.6333  133.9555  155.8286 H   0  0  0  0  0  0  0  0  0  0  0  0  # atno 11005 bound_to 11000
  144.7186  140.4298  143.7025 LP  0  0  0  0  0  0  0  0  0  0  0  0  # atno 17320 bound_to 7965
  145.6524  139.1567  143.2854 LP  0  0  0  0  0  0  0  0  0  0  0  0  # atno 17321 bound_to 7965
  139.4934  144.4205  151.9983 LP  0  0  0  0  0  0  0  0  0  0  0  0  # atno 17342 bound_to 10162
  140.3303  144.3324  150.5989 LP  0  0  0  0  0  0  0  0  0  0  0  0  # atno 17343 bound_to 10162
  157.4880  130.7805  149.7479 LP  0  0  0  0  0  0  0  0  0  0  0  0  # atno 17370 bound_to 10713
  155.9951  130.3914  150.2832 LP  0  0  0  0  0  0  0  0  0  0  0  0  # atno 17371 bound_to 10713
  141.0660  134.0277  157.3593 LP  0  0  0  0  0  0  0  0  0  0  0  0  # atno 17394 bound_to 11000
  139.9108  135.0189  156.7682 LP  0  0  0  0  0  0  0  0  0  0  0  0  # atno 17395 bound_to 11000

$$$$
