AV-unprocessed.smi:102|AV-procd|sdf|975|dock3
  -GOLD-   2262017533D 1   1.00000     0.00000
 Structure written by MMmdl.
 43 44  0  0  0  0  0  0  0  0  2 V2000
  152.0121  145.5133  160.0386 C   0  0  0  0  0  0  0  0  0  0  0  0
  151.5543  144.1129  159.6531 C   0  0  0  0  0  0  0  0  0  0  0  0
  150.4288  143.7024  159.9370 O   0  0  0  0  0  0  0  0  0  0  0  0
  152.5015  143.4277  158.9959 O   0  0  0  0  0  0  0  0  0  0  0  0
  152.1792  142.1782  158.4082 C   0  0  0  0  0  0  0  0  0  0  0  0
  150.9321  142.3335  157.5271 C   0  0  2  0  0  0  0  0  0  0  0  0
  149.7672  141.8661  158.1966 O   0  0  0  0  0  0  0  0  0  0  0  0
  148.7837  141.5609  157.2519 C   0  0  2  0  0  0  0  0  0  0  0  0
  148.1317  140.2494  157.6390 N   0  0  0  0  0  0  0  0  0  0  0  0
  148.9040  139.1328  157.9113 C   0  0  0  0  0  0  0  0  0  0  0  0
  148.3381  137.9522  158.2329 C   0  0  0  0  0  0  0  0  0  0  0  0
  149.1147  136.8855  158.4889 F   0  0  0  0  0  0  0  0  0  0  0  0
  146.8820  137.8425  158.2971 C   0  0  0  0  0  0  0  0  0  0  0  0
  146.3708  136.7645  158.5962 O   0  0  0  0  0  0  0  0  0  0  0  0
  146.1455  138.9566  158.0166 N   0  5  0  0  0  0  0  0  0  0  0  0
  146.7137  140.1517  157.6808 C   0  0  0  0  0  0  0  0  0  0  0  0
  146.0556  141.1528  157.3976 O   0  0  0  0  0  0  0  0  0  0  0  0
  149.4683  141.5010  155.8691 C   0  0  2  0  0  0  0  0  0  0  0  0
  149.0850  140.3660  155.0965 O   0  0  0  0  0  0  0  0  0  0  0  0
  148.1295  140.4728  154.1605 C   0  0  0  0  0  0  0  0  0  0  0  0
  147.8005  139.1324  153.5178 C   0  0  0  0  0  0  0  0  0  0  0  0
  147.5626  141.5099  153.8163 O   0  0  0  0  0  0  0  0  0  0  0  0
  150.9502  141.5154  156.2338 C   0  0  2  0  0  0  0  0  0  0  0  0
  151.4388  140.2048  156.5172 O   0  0  0  0  0  0  0  0  0  0  0  0
  151.5838  139.2927  155.5404 C   0  0  0  0  0  0  0  0  0  0  0  0
  152.1667  137.9819  156.0520 C   0  0  0  0  0  0  0  0  0  0  0  0
  151.2904  139.4438  154.3547 O   0  0  0  0  0  0  0  0  0  0  0  0
  152.3709  146.0503  159.1603 H   0  0  0  0  0  0  0  0  0  0  0  0
  152.8211  145.4594  160.7672 H   0  0  0  0  0  0  0  0  0  0  0  0
  151.1892  146.0787  160.4766 H   0  0  0  0  0  0  0  0  0  0  0  0
  153.0227  141.8491  157.7999 H   0  0  0  0  0  0  0  0  0  0  0  0
  152.0128  141.4225  159.1775 H   0  0  0  0  0  0  0  0  0  0  0  0
  150.7868  143.3845  157.2706 H   0  0  0  0  0  0  0  0  0  0  0  0
  148.0061  142.3239  157.3077 H   0  0  0  0  0  0  0  0  0  0  0  0
  149.9807  139.1959  157.8643 H   0  0  0  0  0  0  0  0  0  0  0  0
  149.2114  142.4288  155.3553 H   0  0  0  0  0  0  0  0  0  0  0  0
  147.5173  138.4071  154.2808 H   0  0  0  0  0  0  0  0  0  0  0  0
  148.6675  138.7493  152.9795 H   0  0  0  0  0  0  0  0  0  0  0  0
  146.9738  139.2362  152.8148 H   0  0  0  0  0  0  0  0  0  0  0  0
  151.5513  142.0092  155.4690 H   0  0  0  0  0  0  0  0  0  0  0  0
  152.1606  137.9528  157.1421 H   0  0  0  0  0  0  0  0  0  0  0  0
  153.1945  137.8675  155.7083 H   0  0  0  0  0  0  0  0  0  0  0  0
  151.5815  137.1396  155.6826 H   0  0  0  0  0  0  0  0  0  0  0  0
  1  2  1  0  0  0  0
  1 28  1  0  0  0  0
  1 29  1  0  0  0  0
  1 30  1  0  0  0  0
  2  3  2  0  0  0  0
  2  4  1  0  0  0  0
  4  5  1  0  0  0  0
  5  6  1  0  0  0  0
  5 31  1  0  0  0  0
  5 32  1  0  0  0  0
  6 23  1  0  0  0  0
  6  7  1  0  0  0  0
  6 33  1  0  0  0  0
  7  8  1  0  0  0  0
  8  9  1  0  0  0  0
  8 18  1  0  0  0  0
  8 34  1  0  0  0  0
  9 16  1  0  0  0  0
  9 10  1  0  0  0  0
 10 11  2  0  0  0  0
 10 35  1  0  0  0  0
 11 12  1  0  0  0  0
 11 13  1  0  0  0  0
 13 14  2  0  0  0  0
 13 15  1  0  0  0  0
 15 16  1  0  0  0  0
 16 17  2  0  0  0  0
 18 19  1  0  0  0  0
 18 23  1  0  0  0  0
 18 36  1  0  0  0  0
 19 20  1  0  0  0  0
 20 21  1  0  0  0  0
 20 22  2  0  0  0  0
 21 37  1  0  0  0  0
 21 38  1  0  0  0  0
 21 39  1  0  0  0  0
 23 24  1  0  0  0  0
 23 40  1  0  0  0  0
 24 25  1  0  0  0  0
 25 26  1  0  0  0  0
 25 27  2  0  0  0  0
 26 41  1  0  0  0  0
 26 42  1  0  0  0  0
 26 43  1  0  0  0  0
M  CHG  1  15  -1
M  END
> <s_m_source_file>
AV-unprocessed.smi

> <i_m_source_file_index>
102

> <i_lp_mmshare_version>
43012

> <i_f3d_flags>
0

> <s_epik_input>
W0NIM11DKD1PKU9bQ0gyXVtDQEBIXTFPW0NASF0oW0NAQEhdKE9DKD1PKVtDSDNdKVtDQEhdMU9DKD1PKVtDSDNdKW4yW2NIXWMoRiljKD1PKVtuSF1jMj1P

> <s_epik_cmdline>
J2VwaWtfcHl0aG9uJywgJy1waCcsICc3LjAnLCAnLXRuJywgJzgnLCAnLW1hJywgJzIwMCcsICctbWV0YWxfYmluZGluZycsICctaW1hZScsICc8aW5maWxlLm1hZT4nLCAnLW9tYWUnLCAnPG91dGZpbGUubWFlPic=

> <r_epik_Ionization_Penalty>
1.40304

> <r_epik_Ionization_Penalty_Charging>
1.43915e-08

> <r_epik_Ionization_Penalty_Neutral>
1.40304

> <r_epik_State_Penalty>
1.48536

> <r_epik_Charging_Adjusted_Penalty>
1.48536

> <i_epik_Tot_Q>
-1

> <i_epik_Tot_abs_Q>
1

> <r_epik_Metal_State_Penalty>
0.00663881

> <b_epik_Metal_Only>
0

> <s_epik_Chemistry_Notes>
This compound has an ester and may undergo hydrolysis at high or low pH. This compound contains an acetal/aminal-like group ( X-CH(R)-Y where X, Y are N, S, or O) that may be acid/base labile, releasing an aldehyde.

> <s_lp_Force_Field>
OPLS_2005

> <r_lp_Energy>
23.9264

> <b_lp_Chiralities_Consistent>
1

> <s_lp_Variant>
AV-unprocessed.smi:102-31

> <Gold.Version>
5.8.1

> <Gold.Id.Protein>
6NUR|6NUR_protein|mol2

> <Gold.PLP.Fitness>
34.5920

> <Gold.PLP.PLP>
-34.0520

> <Gold.PLP.part.hbond>
-1.5927

> <Gold.PLP.part.metal>
0.0000

> <Gold.PLP.part.buried>
-6.8352

> <Gold.PLP.part.nonpolar>
-26.4145

> <Gold.PLP.part.repulsive>
0.5818

> <Gold.PLP.ligand.clash>
0.0000

> <Gold.PLP.ligand.torsion>
1.3326

> <Gold.PLP.Chemscore.Hbond>
1.0000

> <Gold.PLP.Chemscore.CHOScore>
0.0000

> <Gold.PLP.Chemscore.Metal>
0.0000

> <Gold.Chemscore.Hbonds>
donor molecule, donor type, donor heavy atom, donor atom, acceptor molecule, acceptor atom, score
      P1  H  7989  7998       L1    27  1.00

> <Gold.PLP.Chemscore.Internal.Correction>
0.2053

> <Gold.Rescore>
     Score         DG    S(hbond)    S(metal)    S(lipo)     H(rot)  DE(clash)    DE(int)     intcor
      0.69      -5.19       0.99        0.00      56.71       4.00       0.10       4.40       ----

> <Gold.Chemscore.Fitness>
0.6947

> <Gold.Chemscore.DG>
-5.1944

> <Gold.Chemscore.ZeroCoef>
-5.4800

> <Gold.Chemscore.Hbond>
0.9901

> <Gold.Chemscore.Metal>
0.0000

> <Gold.Chemscore.Lipo>
56.7087

> <Gold.Chemscore.Internal_Hbond>
0.0000

> <Gold.Chemscore.DEClash>
0.1001

> <Gold.Chemscore.DEInternal>
4.3996

> <Gold.Chemscore.Rot>
3.9951

> <Gold.Chemscore.Internal.Correction>
   9.000000E+99

> <Gold.Chemscore.Hbonds>
donor molecule, donor type, donor heavy atom, donor atom, acceptor molecule, acceptor atom, score
      P1  H  7989  7998       L1    27  0.99

> <Gold.Chemscore.Hbond.Weighted>
-3.3069

> <Gold.Chemscore.Metal.Weighted>
-0.0000

> <Gold.Chemscore.Lipo.Weighted>
-6.6349

> <Gold.Chemscore.Internal_Hbond.Weighted>
0.0000

> <Gold.Chemscore.DEClash.Weighted>
0.1001

> <Gold.Chemscore.DEInternal.Weighted>
4.3996

> <Gold.Chemscore.Rot.Weighted>
10.2274

> <Gold.Chemscore.Internal.Correction.Weighted>
   9.000000E+99

> <Gold.Protein.RotatedTorsions>
[ 6907 6896 6895 6894 ] final   24.76 input  -60.11 | X-H torsion
[ 7974 7965 7964 7962 ] final -117.29 input  175.53 | X-H torsion
[ 8008 7997 7996 7995 ] final   94.24 input   59.86 | X-H torsion
[ 10167 10162 10161 10158 ] final -113.29 input  -65.29 | X-H torsion
[ 10718 10713 10712 10709 ] final  -26.74 input   66.30 | X-H torsion
[ 10763 10752 10751 10750 ] final  -32.29 input  -60.55 | X-H torsion
[ 11005 11000 10999 10996 ] final   11.36 input  -57.11 | X-H torsion

> <Gold.Protein.ActiveResidues>
 VAL166  LYS551  ARG553  GLY616  TRP617  ASP618  TYR619  PRO620  LYS621  CYS622 
 ASP623  PHE694  ASN695  SER759  ASP760  ASP761  ALA762  ILE779  LEU786  VAL792 
 PHE793  MET794  SER795  GLU796  ALA797  LYS798  CYS799  TRP800  GLU811  SER814 

> <Gold.Protein.RotatedAtoms>
  151.9623  135.0117  160.0548 H   0  0  0  0  0  0  0  0  0  0  0  0  # atno 6907 bound_to 6896
  152.1857  133.4733  159.4990 H   0  0  0  0  0  0  0  0  0  0  0  0  # atno 6908 bound_to 6896
  150.6925  134.1694  159.4249 H   0  0  0  0  0  0  0  0  0  0  0  0  # atno 6909 bound_to 6896
  145.0869  140.8464  143.4005 H   0  0  0  0  0  0  0  0  0  0  0  0  # atno 7974 bound_to 7965
  156.0557  140.3302  155.7402 H   0  0  0  0  0  0  0  0  0  0  0  0  # atno 8008 bound_to 7997
  155.5533  140.0612  157.2863 H   0  0  0  0  0  0  0  0  0  0  0  0  # atno 8009 bound_to 7997
  154.4457  140.1890  156.0696 H   0  0  0  0  0  0  0  0  0  0  0  0  # atno 8010 bound_to 7997
  140.1134  143.4507  152.1737 H   0  0  0  0  0  0  0  0  0  0  0  0  # atno 10167 bound_to 10162
  156.4472  130.4476  149.7013 H   0  0  0  0  0  0  0  0  0  0  0  0  # atno 10718 bound_to 10713
  153.8113  135.6882  153.4840 H   0  0  0  0  0  0  0  0  0  0  0  0  # atno 10763 bound_to 10752
  153.1627  135.4573  154.9792 H   0  0  0  0  0  0  0  0  0  0  0  0  # atno 10764 bound_to 10752
  154.7966  135.3321  154.7593 H   0  0  0  0  0  0  0  0  0  0  0  0  # atno 10765 bound_to 10752
  140.5041  134.0717  155.7801 H   0  0  0  0  0  0  0  0  0  0  0  0  # atno 11005 bound_to 11000
  145.1111  139.2756  143.5637 LP  0  0  0  0  0  0  0  0  0  0  0  0  # atno 17320 bound_to 7965
  146.3531  140.0707  142.8623 LP  0  0  0  0  0  0  0  0  0  0  0  0  # atno 17321 bound_to 7965
  139.5607  144.7403  151.4164 LP  0  0  0  0  0  0  0  0  0  0  0  0  # atno 17342 bound_to 10162
  140.6913  143.7856  150.7259 LP  0  0  0  0  0  0  0  0  0  0  0  0  # atno 17343 bound_to 10162
  156.3854  130.7600  151.2597 LP  0  0  0  0  0  0  0  0  0  0  0  0  # atno 17370 bound_to 10713
  157.7504  131.0283  150.4044 LP  0  0  0  0  0  0  0  0  0  0  0  0  # atno 17371 bound_to 10713
  141.1420  133.9121  157.2303 LP  0  0  0  0  0  0  0  0  0  0  0  0  # atno 17394 bound_to 11000
  139.9696  135.0132  156.9478 LP  0  0  0  0  0  0  0  0  0  0  0  0  # atno 17395 bound_to 11000

$$$$
