AV-unprocessed.smi:1445|AV-procd|sdf|5885|dock6
  -GOLD-   22720 5563D 1   1.00000     0.00000
 Structure written by MMmdl.
 46 47  0  0  0  0  0  0  0  0  2 V2000
  150.4200  145.2233  159.7529 C   0  0  0  0  0  0  0  0  0  0  0  0
  150.3981  144.2500  158.7143 O   0  0  0  0  0  0  0  0  0  0  0  0
  151.1638  143.1090  158.8624 C   0  0  0  0  0  0  0  0  0  0  0  0
  151.9732  143.0122  159.9471 N   0  0  0  0  0  0  0  0  0  0  0  0
  152.7246  141.9018  160.0914 C   0  0  0  0  0  0  0  0  0  0  0  0
  152.7149  140.8407  159.1681 C   0  0  0  0  0  0  0  0  0  0  0  0
  151.8766  140.9385  158.0423 C   0  0  0  0  0  0  0  0  0  0  0  0
  151.0704  142.0925  157.8825 C   0  0  0  0  0  0  0  0  0  0  0  0
  150.1962  142.3086  156.7798 N   0  0  0  0  0  0  0  0  0  0  0  0
  149.7561  141.4329  155.8602 C   0  0  0  0  0  0  0  0  0  0  0  0
  150.0378  140.2357  155.8167 O   0  0  0  0  0  0  0  0  0  0  0  0
  148.9380  142.0265  154.9795 N   0  0  0  0  0  0  0  0  0  0  0  0
  148.3018  141.3592  153.8494 C   0  0  0  0  0  0  0  0  0  0  0  0
  146.7669  141.3410  153.9877 C   0  0  0  0  0  0  0  0  0  0  0  0
  146.1822  140.0321  153.6013 N   0  3  1  0  0  0  0  0  0  0  0  0
  146.9456  139.3762  152.5082 C   0  0  0  0  0  0  0  0  0  0  0  0
  146.2411  138.0964  152.0314 C   0  0  0  0  0  0  0  0  0  0  0  0
  146.0182  137.1256  153.1975 C   0  0  0  0  0  0  0  0  0  0  0  0
  145.2528  137.8244  154.3335 C   0  0  1  0  0  0  0  0  0  0  0  0
  145.0385  136.8822  155.5266 C   0  0  0  0  0  0  0  0  0  0  0  0
  145.9840  139.1148  154.7560 C   0  0  0  0  0  0  0  0  0  0  0  0
  149.7686  146.0538  159.4811 H   0  0  0  0  0  0  0  0  0  0  0  0
  151.4232  145.6255  159.9022 H   0  0  0  0  0  0  0  0  0  0  0  0
  150.0546  144.8112  160.6947 H   0  0  0  0  0  0  0  0  0  0  0  0
  153.3565  141.8598  160.9663 H   0  0  0  0  0  0  0  0  0  0  0  0
  153.3397  139.9726  159.3180 H   0  0  0  0  0  0  0  0  0  0  0  0
  151.8829  140.1336  157.3250 H   0  0  0  0  0  0  0  0  0  0  0  0
  149.8207  143.2435  156.7136 H   0  0  0  0  0  0  0  0  0  0  0  0
  148.7546  143.0132  155.0909 H   0  0  0  0  0  0  0  0  0  0  0  0
  148.6052  141.8913  152.9487 H   0  0  0  0  0  0  0  0  0  0  0  0
  148.6886  140.3430  153.7552 H   0  0  0  0  0  0  0  0  0  0  0  0
  146.5145  141.5466  155.0288 H   0  0  0  0  0  0  0  0  0  0  0  0
  146.3126  142.1399  153.3995 H   0  0  0  0  0  0  0  0  0  0  0  0
  147.0468  140.0603  151.6647 H   0  0  0  0  0  0  0  0  0  0  0  0
  147.9549  139.1456  152.8535 H   0  0  0  0  0  0  0  0  0  0  0  0
  145.2825  138.3522  151.5777 H   0  0  0  0  0  0  0  0  0  0  0  0
  146.8323  137.6133  151.2530 H   0  0  0  0  0  0  0  0  0  0  0  0
  145.4672  136.2505  152.8509 H   0  0  0  0  0  0  0  0  0  0  0  0
  146.9808  136.7644  153.5625 H   0  0  0  0  0  0  0  0  0  0  0  0
  144.2678  138.1034  153.9554 H   0  0  0  0  0  0  0  0  0  0  0  0
  145.9884  136.5644  155.9575 H   0  0  0  0  0  0  0  0  0  0  0  0
  144.4940  135.9865  155.2263 H   0  0  0  0  0  0  0  0  0  0  0  0
  144.4618  137.3685  156.3138 H   0  0  0  0  0  0  0  0  0  0  0  0
  146.9527  138.8725  155.1967 H   0  0  0  0  0  0  0  0  0  0  0  0
  145.4027  139.6119  155.5317 H   0  0  0  0  0  0  0  0  0  0  0  0
  145.2678  140.2312  153.2215 H   0  0  0  0  0  0  0  0  0  0  0  0
  1  2  1  0  0  0  0
  1 22  1  0  0  0  0
  1 23  1  0  0  0  0
  1 24  1  0  0  0  0
  2  3  1  0  0  0  0
  3  8  1  0  0  0  0
  3  4  2  0  0  0  0
  4  5  1  0  0  0  0
  5  6  2  0  0  0  0
  5 25  1  0  0  0  0
  6  7  1  0  0  0  0
  6 26  1  0  0  0  0
  7  8  2  0  0  0  0
  7 27  1  0  0  0  0
  8  9  1  0  0  0  0
  9 10  1  0  0  0  0
  9 28  1  0  0  0  0
 10 11  2  0  0  0  0
 10 12  1  0  0  0  0
 12 13  1  0  0  0  0
 12 29  1  0  0  0  0
 13 14  1  0  0  0  0
 13 30  1  0  0  0  0
 13 31  1  0  0  0  0
 14 15  1  0  0  0  0
 14 32  1  0  0  0  0
 14 33  1  0  0  0  0
 15 21  1  0  0  0  0
 15 16  1  0  0  0  0
 15 46  1  0  0  0  0
 16 17  1  0  0  0  0
 16 34  1  0  0  0  0
 16 35  1  0  0  0  0
 17 18  1  0  0  0  0
 17 36  1  0  0  0  0
 17 37  1  0  0  0  0
 18 19  1  0  0  0  0
 18 38  1  0  0  0  0
 18 39  1  0  0  0  0
 19 20  1  0  0  0  0
 19 21  1  0  0  0  0
 19 40  1  0  0  0  0
 20 41  1  0  0  0  0
 20 42  1  0  0  0  0
 20 43  1  0  0  0  0
 21 44  1  0  0  0  0
 21 45  1  0  0  0  0
M  CHG  1  15   1
M  END
> <s_m_source_file>
AV-unprocessed.smi

> <i_m_source_file_index>
1445

> <i_lp_mmshare_version>
43012

> <i_f3d_flags>
0

> <s_epik_input>
W0NIM11PYzFuW2NIXVtjSF1bY0hdYzFbTkhdQyg9TylbTkhdW0NIMl1bQ0gyXU4yW0NIMl1bQ0gyXVtDSDJdW0NAQEhdKFtDSDNdKVtDSDJdMg==

> <s_epik_cmdline>
J2VwaWtfcHl0aG9uJywgJy1waCcsICc3LjAnLCAnLXRuJywgJzgnLCAnLW1hJywgJzIwMCcsICctbWV0YWxfYmluZGluZycsICctaW1hZScsICc8aW5maWxlLm1hZT4nLCAnLW9tYWUnLCAnPG91dGZpbGUubWFlPic=

> <r_lp_tautomer_probability>
1

> <r_epik_Ionization_Penalty>
0.00179544

> <r_epik_Ionization_Penalty_Charging>
0.00171832

> <r_epik_Ionization_Penalty_Neutral>
7.71118e-05

> <r_epik_State_Penalty>
0.0011618

> <r_epik_Charging_Adjusted_Penalty>
0.00288012

> <i_epik_Tot_Q>
1

> <i_epik_Tot_abs_Q>
1

> <r_epik_Metal_State_Penalty>
-0

> <b_epik_Metal_Only>
0

> <s_lp_Force_Field>
OPLS_2005

> <r_lp_Energy>
18.8564

> <b_lp_Chiralities_Consistent>
1

> <s_lp_Variant>
AV-unprocessed.smi:1445-1

> <Gold.Version>
5.8.1

> <Gold.Id.Protein>
6NUR|6NUR_protein|mol2

> <Gold.PLP.Fitness>
45.7611

> <Gold.PLP.PLP>
-35.2710

> <Gold.PLP.part.hbond>
-3.0000

> <Gold.PLP.part.metal>
0.0000

> <Gold.PLP.part.buried>
-5.0699

> <Gold.PLP.part.nonpolar>
-28.0507

> <Gold.PLP.part.repulsive>
0.4684

> <Gold.PLP.ligand.clash>
0.0000

> <Gold.PLP.ligand.torsion>
0.7525

> <Gold.PLP.Chemscore.Hbond>
3.9913

> <Gold.PLP.Chemscore.CHOScore>
0.0000

> <Gold.PLP.Chemscore.Metal>
0.0000

> <Gold.Chemscore.Hbonds>
donor molecule, donor type, donor heavy atom, donor atom, acceptor molecule, acceptor atom, score
      L1  H     9    28       P1  8028  0.99
      L1  H    12    29       P1  8028  1.00
      L1  H    15    46       P1 10175  2.00

> <Gold.PLP.Chemscore.Internal.Correction>
0.0214

> <Gold.Rescore>
     Score         DG    S(hbond)    S(metal)    S(lipo)     H(rot)  DE(clash)    DE(int)     intcor
     19.06     -20.12       2.95        0.00      78.28       1.71       0.10       0.96       ----

> <Gold.Chemscore.Fitness>
19.0637

> <Gold.Chemscore.DG>
-20.1166

> <Gold.Chemscore.ZeroCoef>
-5.4800

> <Gold.Chemscore.Hbond>
2.9513

> <Gold.Chemscore.Metal>
0.0000

> <Gold.Chemscore.Lipo>
78.2784

> <Gold.Chemscore.Internal_Hbond>
0.0000

> <Gold.Chemscore.DEClash>
0.0970

> <Gold.Chemscore.DEInternal>
0.9558

> <Gold.Chemscore.Rot>
1.7107

> <Gold.Chemscore.Internal.Correction>
   9.000000E+99

> <Gold.Chemscore.Hbonds>
donor molecule, donor type, donor heavy atom, donor atom, acceptor molecule, acceptor atom, score
      L1  H     9    28       P1  8028  0.89
      L1  H    12    29       P1  8028  1.00
      L1  H    15    46       P1 10175  1.00

> <Gold.Chemscore.Hbond.Weighted>
-9.8574

> <Gold.Chemscore.Metal.Weighted>
-0.0000

> <Gold.Chemscore.Lipo.Weighted>
-9.1586

> <Gold.Chemscore.Internal_Hbond.Weighted>
0.0000

> <Gold.Chemscore.DEClash.Weighted>
0.0970

> <Gold.Chemscore.DEInternal.Weighted>
0.9558

> <Gold.Chemscore.Rot.Weighted>
4.3794

> <Gold.Chemscore.Internal.Correction.Weighted>
   9.000000E+99

> <Gold.Protein.RotatedTorsions>
[ 6907 6896 6895 6894 ] final  116.70 input  -60.11 | X-H torsion
[ 7974 7965 7964 7962 ] final   71.96 input  175.53 | X-H torsion
[ 8008 7997 7996 7995 ] final  100.12 input   59.86 | X-H torsion
[ 10167 10162 10161 10158 ] final  -97.57 input  -65.29 | X-H torsion
[ 10718 10713 10712 10709 ] final  123.36 input   66.30 | X-H torsion
[ 10763 10752 10751 10750 ] final -176.05 input  -60.55 | X-H torsion
[ 11005 11000 10999 10996 ] final   10.76 input  -57.11 | X-H torsion

> <Gold.Protein.ActiveResidues>
 VAL166  LYS551  ARG553  GLY616  TRP617  ASP618  TYR619  PRO620  LYS621  CYS622 
 ASP623  PHE694  ASN695  SER759  ASP760  ASP761  ALA762  ILE779  LEU786  VAL792 
 PHE793  MET794  SER795  GLU796  ALA797  LYS798  CYS799  TRP800  GLU811  SER814 

> <Gold.Protein.RotatedAtoms>
  152.4661  133.7925  159.6909 H   0  0  0  0  0  0  0  0  0  0  0  0  # atno 6907 bound_to 6896
  150.8626  133.7612  159.2994 H   0  0  0  0  0  0  0  0  0  0  0  0  # atno 6908 bound_to 6896
  151.5172  135.1069  159.9921 H   0  0  0  0  0  0  0  0  0  0  0  0  # atno 6909 bound_to 6896
  145.7593  139.2794  143.1385 H   0  0  0  0  0  0  0  0  0  0  0  0  # atno 7974 bound_to 7965
  156.1172  140.3218  155.8156 H   0  0  0  0  0  0  0  0  0  0  0  0  # atno 8008 bound_to 7997
  155.4569  140.0536  157.3012 H   0  0  0  0  0  0  0  0  0  0  0  0  # atno 8009 bound_to 7997
  154.4801  140.2049  155.9797 H   0  0  0  0  0  0  0  0  0  0  0  0  # atno 8010 bound_to 7997
  140.2820  143.3276  152.0431 H   0  0  0  0  0  0  0  0  0  0  0  0  # atno 10167 bound_to 10162
  157.5670  131.1086  150.8436 H   0  0  0  0  0  0  0  0  0  0  0  0  # atno 10718 bound_to 10713
  154.5770  135.2833  155.0771 H   0  0  0  0  0  0  0  0  0  0  0  0  # atno 10763 bound_to 10752
  154.2122  135.6406  153.5122 H   0  0  0  0  0  0  0  0  0  0  0  0  # atno 10764 bound_to 10752
  153.0075  135.5494  154.6411 H   0  0  0  0  0  0  0  0  0  0  0  0  # atno 10765 bound_to 10752
  140.5109  134.0653  155.7818 H   0  0  0  0  0  0  0  0  0  0  0  0  # atno 11005 bound_to 11000
  146.0279  140.8286  142.9890 LP  0  0  0  0  0  0  0  0  0  0  0  0  # atno 17320 bound_to 7965
  144.6833  140.2726  143.7304 LP  0  0  0  0  0  0  0  0  0  0  0  0  # atno 17321 bound_to 7965
  139.4960  144.6585  151.6519 LP  0  0  0  0  0  0  0  0  0  0  0  0  # atno 17342 bound_to 10162
  140.5804  143.9956  150.6265 LP  0  0  0  0  0  0  0  0  0  0  0  0  # atno 17343 bound_to 10162
  156.8918  130.5215  149.5286 LP  0  0  0  0  0  0  0  0  0  0  0  0  # atno 17370 bound_to 10713
  156.0718  130.5749  150.9397 LP  0  0  0  0  0  0  0  0  0  0  0  0  # atno 17371 bound_to 10713
  141.1386  133.9178  157.2377 LP  0  0  0  0  0  0  0  0  0  0  0  0  # atno 17394 bound_to 11000
  139.9660  135.0142  156.9387 LP  0  0  0  0  0  0  0  0  0  0  0  0  # atno 17395 bound_to 11000

$$$$
