AV-unprocessed.smi:2949|AV-procd|sdf|11287|dock1
  -GOLD-   2272016173D 1   1.00000     0.00000
 Structure written by MMmdl.
 34 35  0  0  0  0  0  0  0  0  1 V2000
  143.7865  133.7358  153.2101 N   0  0  0  0  0  0  0  0  0  0  0  0
  144.5735  133.4345  152.2379 C   0  0  0  0  0  0  0  0  0  0  0  0
  145.1751  131.7647  151.8032 S   0  0  0  0  0  0  0  0  0  0  0  0
  146.0611  132.4443  150.4550 C   0  0  0  0  0  0  0  0  0  0  0  0
  145.9100  133.7649  150.3691 C   0  0  0  0  0  0  0  0  0  0  0  0
  145.1101  134.3500  151.3295 N   0  0  0  0  0  0  0  0  0  0  0  0
  144.7917  135.7777  151.3169 C   0  0  0  0  0  0  0  0  0  0  0  0
  145.1819  136.5570  152.5793 C   0  0  0  0  0  0  0  0  0  0  0  0
  144.3071  136.9266  153.3668 O   0  0  0  0  0  0  0  0  0  0  0  0
  146.5094  136.7800  152.7157 N   0  0  0  0  0  0  0  0  0  0  0  0
  147.2099  137.4214  153.6812 C   0  0  0  0  0  0  0  0  0  0  0  0
  146.6308  137.9387  154.6350 O   0  0  0  0  0  0  0  0  0  0  0  0
  148.5485  137.4640  153.5441 N   0  0  0  0  0  0  0  0  0  0  0  0
  149.4903  137.9197  154.5624 C   0  0  0  0  0  0  0  0  0  0  0  0
  150.2370  139.1968  154.1226 C   0  0  0  0  0  0  0  0  0  0  0  0
  151.7259  138.9125  154.3289 C   0  0  0  0  0  0  0  0  0  0  0  0
  151.8491  137.4013  154.1640 C   0  0  0  0  0  0  0  0  0  0  0  0
  150.5738  136.8535  154.8042 C   0  0  0  0  0  0  0  0  0  0  0  0
  143.5319  132.9074  153.7275 H   0  0  0  0  0  0  0  0  0  0  0  0
  146.6448  131.8189  149.7961 H   0  0  0  0  0  0  0  0  0  0  0  0
  146.3494  134.4127  149.6246 H   0  0  0  0  0  0  0  0  0  0  0  0
  145.2560  136.2529  150.4511 H   0  0  0  0  0  0  0  0  0  0  0  0
  143.7168  135.8930  151.1695 H   0  0  0  0  0  0  0  0  0  0  0  0
  147.0778  136.4071  151.9693 H   0  0  0  0  0  0  0  0  0  0  0  0
  148.9423  137.1533  152.6670 H   0  0  0  0  0  0  0  0  0  0  0  0
  148.9530  138.0962  155.4962 H   0  0  0  0  0  0  0  0  0  0  0  0
  150.0590  139.4042  153.0661 H   0  0  0  0  0  0  0  0  0  0  0  0
  149.9108  140.0750  154.6805 H   0  0  0  0  0  0  0  0  0  0  0  0
  152.3588  139.4642  153.6334 H   0  0  0  0  0  0  0  0  0  0  0  0
  152.0180  139.1946  155.3412 H   0  0  0  0  0  0  0  0  0  0  0  0
  151.8676  137.1471  153.1034 H   0  0  0  0  0  0  0  0  0  0  0  0
  152.7543  137.0003  154.6206 H   0  0  0  0  0  0  0  0  0  0  0  0
  150.7333  136.7413  155.8773 H   0  0  0  0  0  0  0  0  0  0  0  0
  150.3090  135.8690  154.4159 H   0  0  0  0  0  0  0  0  0  0  0  0
  1  2  2  0  0  0  0
  1 19  1  0  0  0  0
  2  6  1  0  0  0  0
  2  3  1  0  0  0  0
  3  4  1  0  0  0  0
  4  5  2  0  0  0  0
  4 20  1  0  0  0  0
  5  6  1  0  0  0  0
  5 21  1  0  0  0  0
  6  7  1  0  0  0  0
  7  8  1  0  0  0  0
  7 22  1  0  0  0  0
  7 23  1  0  0  0  0
  8  9  2  0  0  0  0
  8 10  1  0  0  0  0
 10 11  1  0  0  0  0
 10 24  1  0  0  0  0
 11 12  2  0  0  0  0
 11 13  1  0  0  0  0
 13 14  1  0  0  0  0
 13 25  1  0  0  0  0
 14 18  1  0  0  0  0
 14 15  1  0  0  0  0
 14 26  1  0  0  0  0
 15 16  1  0  0  0  0
 15 27  1  0  0  0  0
 15 28  1  0  0  0  0
 16 17  1  0  0  0  0
 16 29  1  0  0  0  0
 16 30  1  0  0  0  0
 17 18  1  0  0  0  0
 17 31  1  0  0  0  0
 17 32  1  0  0  0  0
 18 33  1  0  0  0  0
 18 34  1  0  0  0  0
M  END
> <s_m_source_file>
AV-unprocessed.smi

> <i_m_source_file_index>
2949

> <i_lp_mmshare_version>
43012

> <i_f3d_flags>
0

> <s_epik_input>
W0hdL049YzFcc1tjSF1bY0hdbjFbQ0gyXUMoPU8pW05IXUMoPU8pW05IXVtDSF0yW0NIMl1bQ0gyXVtDSDJdW0NIMl0y

> <s_epik_cmdline>
J2VwaWtfcHl0aG9uJywgJy1waCcsICc3LjAnLCAnLXRuJywgJzgnLCAnLW1hJywgJzIwMCcsICctbWV0YWxfYmluZGluZycsICctaW1hZScsICc8aW5maWxlLm1hZT4nLCAnLW9tYWUnLCAnPG91dGZpbGUubWFlPic=

> <r_epik_Ionization_Penalty>
2.0346

> <r_epik_Ionization_Penalty_Charging>
2.03458

> <r_epik_Ionization_Penalty_Neutral>
2.61125e-05

> <r_epik_State_Penalty>
2.18096

> <r_epik_Charging_Adjusted_Penalty>
4.21554

> <i_epik_Tot_Q>
0

> <i_epik_Tot_abs_Q>
0

> <r_epik_Metal_State_Penalty>
2.18096

> <b_epik_Metal_Only>
0

> <s_lp_Force_Field>
OPLS_2005

> <r_lp_Energy>
19.3427

> <b_lp_Chiralities_Consistent>
1

> <s_lp_Variant>
AV-unprocessed.smi:2949-3

> <Gold.Version>
5.8.1

> <Gold.Id.Protein>
6NUR|6NUR_protein|mol2

> <Gold.PLP.Fitness>
40.8040

> <Gold.PLP.PLP>
-27.6080

> <Gold.PLP.part.hbond>
-2.9714

> <Gold.PLP.part.metal>
0.0000

> <Gold.PLP.part.buried>
-1.1677

> <Gold.PLP.part.nonpolar>
-23.4066

> <Gold.PLP.part.repulsive>
0.2959

> <Gold.PLP.ligand.clash>
0.0000

> <Gold.PLP.ligand.torsion>
0.2200

> <Gold.PLP.Chemscore.Hbond>
2.8480

> <Gold.PLP.Chemscore.CHOScore>
1.6787

> <Gold.PLP.Chemscore.Metal>
0.0000

> <Gold.Chemscore.Hbonds>
donor molecule, donor type, donor heavy atom, donor atom, acceptor molecule, acceptor atom, score
      L1  H     1    19       P1 10957  1.00
      L1  H    10    24       P1  7948  0.62
      L1  H    13    25       P1  7948  0.16
      L1  C     4    20       P1 10747  0.90
      L1  C     5    21       P1  7921  0.78

> <Gold.PLP.Chemscore.Internal.Correction>
0.0558

> <Gold.Rescore>
     Score         DG    S(hbond)    S(metal)    S(lipo)     H(rot)  DE(clash)    DE(int)     intcor
     14.14     -17.22       2.83        0.00      56.42       1.69       0.04       3.04       ----

> <Gold.Chemscore.Fitness>
14.1438

> <Gold.Chemscore.DG>
-17.2182

> <Gold.Chemscore.ZeroCoef>
-5.4800

> <Gold.Chemscore.Hbond>
2.8312

> <Gold.Chemscore.Metal>
0.0000

> <Gold.Chemscore.Lipo>
56.4196

> <Gold.Chemscore.Internal_Hbond>
0.0000

> <Gold.Chemscore.DEClash>
0.0365

> <Gold.Chemscore.DEInternal>
3.0380

> <Gold.Chemscore.Rot>
1.6871

> <Gold.Chemscore.Internal.Correction>
   9.000000E+99

> <Gold.Chemscore.Hbonds>
donor molecule, donor type, donor heavy atom, donor atom, acceptor molecule, acceptor atom, score
      L1  H     1    19       P1 10957  0.93
      L1  H    10    24       P1  7948  0.62
      L1  H    13    25       P1  7948  0.17

> <Gold.Chemscore.Hbond.Weighted>
-9.4562

> <Gold.Chemscore.Metal.Weighted>
-0.0000

> <Gold.Chemscore.Lipo.Weighted>
-6.6011

> <Gold.Chemscore.Internal_Hbond.Weighted>
0.0000

> <Gold.Chemscore.DEClash.Weighted>
0.0365

> <Gold.Chemscore.DEInternal.Weighted>
3.0380

> <Gold.Chemscore.Rot.Weighted>
4.3191

> <Gold.Chemscore.Internal.Correction.Weighted>
   9.000000E+99

> <Gold.Protein.RotatedTorsions>
[ 6907 6896 6895 6894 ] final  168.40 input  -60.11 | X-H torsion
[ 7974 7965 7964 7962 ] final -145.24 input  175.53 | X-H torsion
[ 8008 7997 7996 7995 ] final   91.61 input   59.86 | X-H torsion
[ 10167 10162 10161 10158 ] final  147.22 input  -65.29 | X-H torsion
[ 10718 10713 10712 10709 ] final  -82.50 input   66.30 | X-H torsion
[ 10763 10752 10751 10750 ] final -107.19 input  -60.55 | X-H torsion
[ 11005 11000 10999 10996 ] final  -62.14 input  -57.11 | X-H torsion

> <Gold.Protein.ActiveResidues>
 VAL166  LYS551  ARG553  GLY616  TRP617  ASP618  TYR619  PRO620  LYS621  CYS622 
 ASP623  PHE694  ASN695  SER759  ASP760  ASP761  ALA762  ILE779  LEU786  VAL792 
 PHE793  MET794  SER795  GLU796  ALA797  LYS798  CYS799  TRP800  GLU811  SER814 

> <Gold.Protein.RotatedAtoms>
  151.8481  133.3435  159.3664 H   0  0  0  0  0  0  0  0  0  0  0  0  # atno 6907 bound_to 6896
  150.7214  134.5325  159.5717 H   0  0  0  0  0  0  0  0  0  0  0  0  # atno 6908 bound_to 6896
  152.2813  134.7826  160.0447 H   0  0  0  0  0  0  0  0  0  0  0  0  # atno 6909 bound_to 6896
  144.8241  140.5608  143.5559 H   0  0  0  0  0  0  0  0  0  0  0  0  # atno 7974 bound_to 7965
  156.0258  140.3335  155.7087 H   0  0  0  0  0  0  0  0  0  0  0  0  # atno 8008 bound_to 7997
  155.5957  140.0650  157.2764 H   0  0  0  0  0  0  0  0  0  0  0  0  # atno 8009 bound_to 7997
  154.4333  140.1819  156.1108 H   0  0  0  0  0  0  0  0  0  0  0  0  # atno 8010 bound_to 7997
  139.4893  144.5771  151.6943 H   0  0  0  0  0  0  0  0  0  0  0  0  # atno 10167 bound_to 10162
  156.0032  130.4636  150.4115 H   0  0  0  0  0  0  0  0  0  0  0  0  # atno 10718 bound_to 10713
  154.8060  135.4684  154.0393 H   0  0  0  0  0  0  0  0  0  0  0  0  # atno 10763 bound_to 10752
  153.1862  135.6848  153.8419 H   0  0  0  0  0  0  0  0  0  0  0  0  # atno 10764 bound_to 10752
  153.7953  135.3237  155.3361 H   0  0  0  0  0  0  0  0  0  0  0  0  # atno 10765 bound_to 10752
  141.1349  133.6637  156.5482 H   0  0  0  0  0  0  0  0  0  0  0  0  # atno 11005 bound_to 11000
  145.5040  139.1482  143.3641 LP  0  0  0  0  0  0  0  0  0  0  0  0  # atno 17320 bound_to 7965
  146.2546  140.5180  142.8879 LP  0  0  0  0  0  0  0  0  0  0  0  0  # atno 17321 bound_to 7965
  140.5370  144.0640  150.6074 LP  0  0  0  0  0  0  0  0  0  0  0  0  # atno 17342 bound_to 10162
  140.3649  143.2887  152.0342 LP  0  0  0  0  0  0  0  0  0  0  0  0  # atno 17343 bound_to 10162
  157.2177  131.0475  151.2564 LP  0  0  0  0  0  0  0  0  0  0  0  0  # atno 17370 bound_to 10713
  157.3829  130.7241  149.6643 LP  0  0  0  0  0  0  0  0  0  0  0  0  # atno 17371 bound_to 10713
  140.4084  134.7294  157.4822 LP  0  0  0  0  0  0  0  0  0  0  0  0  # atno 17394 bound_to 11000
  140.0445  134.6220  155.8939 LP  0  0  0  0  0  0  0  0  0  0  0  0  # atno 17395 bound_to 11000

$$$$
