AV-unprocessed.smi:2594|AV-procd|sdf|10167|dock9
  -GOLD-   2272014183D 1   1.00000     0.00000
 Structure written by MMmdl.
 29 30  0  0  0  0  0  0  0  0  1 V2000
  152.2180  136.8570  155.6094 O   0  0  0  0  0  0  0  0  0  0  0  0
  151.3874  137.0165  154.7131 C   0  0  0  0  0  0  0  0  0  0  0  0
  151.3253  138.3278  153.9182 C   0  0  0  0  0  0  0  0  0  0  0  0
  150.8092  139.4536  154.6982 N   0  0  0  0  0  0  0  0  0  0  0  0
  149.5663  139.9225  154.4058 N   0  0  0  0  0  0  0  0  0  0  0  0
  149.2492  140.9114  155.1566 C   0  0  0  0  0  0  0  0  0  0  0  0
  150.4578  141.4044  156.3496 S   0  0  0  0  0  0  0  0  0  0  0  0
  151.4966  140.0934  155.7259 C   0  0  0  0  0  0  0  0  0  0  0  0
  152.6171  139.8462  156.1679 O   0  0  0  0  0  0  0  0  0  0  0  0
  150.5058  136.0716  154.3537 N   0  0  0  0  0  0  0  0  0  0  0  0
  150.4010  134.7485  154.9579 C   0  0  0  0  0  0  0  0  0  0  0  0
  150.5995  133.6338  153.9177 C   0  0  1  0  0  0  0  0  0  0  0  0
  150.9591  132.2809  154.5266 C   0  0  0  0  0  0  0  0  0  0  0  0
  150.5335  131.3346  153.4273 C   0  0  0  0  0  0  0  0  0  0  0  0
  149.2616  132.0013  152.9080 C   0  0  0  0  0  0  0  0  0  0  0  0
  149.3914  133.3910  153.2013 O   0  0  0  0  0  0  0  0  0  0  0  0
  152.3259  138.5553  153.5467 H   0  0  0  0  0  0  0  0  0  0  0  0
  150.6954  138.1886  153.0380 H   0  0  0  0  0  0  0  0  0  0  0  0
  148.3129  141.4682  155.1258 H   0  0  0  0  0  0  0  0  0  0  0  0
  149.8660  136.2801  153.6009 H   0  0  0  0  0  0  0  0  0  0  0  0
  151.1324  134.6500  155.7618 H   0  0  0  0  0  0  0  0  0  0  0  0
  149.4180  134.6584  155.4215 H   0  0  0  0  0  0  0  0  0  0  0  0
  151.3713  133.9123  153.1980 H   0  0  0  0  0  0  0  0  0  0  0  0
  152.0162  132.1958  154.7795 H   0  0  0  0  0  0  0  0  0  0  0  0
  150.3734  132.0938  155.4280 H   0  0  0  0  0  0  0  0  0  0  0  0
  151.2916  131.3107  152.6435 H   0  0  0  0  0  0  0  0  0  0  0  0
  150.3702  130.3145  153.7758 H   0  0  0  0  0  0  0  0  0  0  0  0
  149.1162  131.8338  151.8405 H   0  0  0  0  0  0  0  0  0  0  0  0
  148.3854  131.6186  153.4327 H   0  0  0  0  0  0  0  0  0  0  0  0
  1  2  2  0  0  0  0
  2  3  1  0  0  0  0
  2 10  1  0  0  0  0
  3  4  1  0  0  0  0
  3 17  1  0  0  0  0
  3 18  1  0  0  0  0
  4  8  1  0  0  0  0
  4  5  1  0  0  0  0
  5  6  2  0  0  0  0
  6  7  1  0  0  0  0
  6 19  1  0  0  0  0
  7  8  1  0  0  0  0
  8  9  2  0  0  0  0
 10 11  1  0  0  0  0
 10 20  1  0  0  0  0
 11 12  1  0  0  0  0
 11 21  1  0  0  0  0
 11 22  1  0  0  0  0
 12 16  1  0  0  0  0
 12 13  1  0  0  0  0
 12 23  1  0  0  0  0
 13 14  1  0  0  0  0
 13 24  1  0  0  0  0
 13 25  1  0  0  0  0
 14 15  1  0  0  0  0
 14 26  1  0  0  0  0
 14 27  1  0  0  0  0
 15 16  1  0  0  0  0
 15 28  1  0  0  0  0
 15 29  1  0  0  0  0
M  END
> <s_m_source_file>
AV-unprocessed.smi

> <i_m_source_file_index>
2594

> <i_lp_mmshare_version>
43012

> <i_f3d_flags>
0

> <s_epik_input>
TzFbQ0gyXVtDSDJdW0NIMl1bQ0BIXTFbQ0gyXVtOSF1DKD1PKVtDSDJdbjJuW2NIXXNjMj1P

> <s_epik_cmdline>
J2VwaWtfcHl0aG9uJywgJy1waCcsICc3LjAnLCAnLXRuJywgJzgnLCAnLW1hJywgJzIwMCcsICctbWV0YWxfYmluZGluZycsICctaW1hZScsICc8aW5maWxlLm1hZT4nLCAnLW9tYWUnLCAnPG91dGZpbGUubWFlPic=

> <r_lp_tautomer_probability>
1

> <r_epik_Ionization_Penalty>
2.49222e-07

> <r_epik_Ionization_Penalty_Charging>
1.4085e-08

> <r_epik_Ionization_Penalty_Neutral>
2.35137e-07

> <r_epik_State_Penalty>
-0

> <r_epik_Charging_Adjusted_Penalty>
1.4085e-08

> <i_epik_Tot_Q>
0

> <i_epik_Tot_abs_Q>
0

> <r_epik_Metal_State_Penalty>
-0

> <b_epik_Metal_Only>
0

> <s_lp_Force_Field>
OPLS_2005

> <r_lp_Energy>
18.288

> <b_lp_Chiralities_Consistent>
1

> <s_lp_Variant>
AV-unprocessed.smi:2594-2

> <Gold.Version>
5.8.1

> <Gold.Id.Protein>
6NUR|6NUR_protein|mol2

> <Gold.PLP.Fitness>
41.1159

> <Gold.PLP.PLP>
-32.9605

> <Gold.PLP.part.hbond>
-4.2593

> <Gold.PLP.part.metal>
0.0000

> <Gold.PLP.part.buried>
-2.6778

> <Gold.PLP.part.nonpolar>
-26.3895

> <Gold.PLP.part.repulsive>
0.8473

> <Gold.PLP.ligand.clash>
0.0000

> <Gold.PLP.ligand.torsion>
0.4257

> <Gold.PLP.Chemscore.Hbond>
3.0000

> <Gold.PLP.Chemscore.CHOScore>
0.0000

> <Gold.PLP.Chemscore.Metal>
0.0000

> <Gold.Chemscore.Hbonds>
donor molecule, donor type, donor heavy atom, donor atom, acceptor molecule, acceptor atom, score
      L1  H    10    20       P1  7948  0.90
      P1  H  7997  8008       L1     9  1.00
      P1  H 10752 10765       L1     1  0.77

> <Gold.PLP.Chemscore.Internal.Correction>
0.0068

> <Gold.Rescore>
     Score         DG    S(hbond)    S(metal)    S(lipo)     H(rot)  DE(clash)    DE(int)     intcor
     14.05     -14.88       2.62        0.00      49.24       2.00       0.06       0.78       ----

> <Gold.Chemscore.Fitness>
14.0471

> <Gold.Chemscore.DG>
-14.8802

> <Gold.Chemscore.ZeroCoef>
-5.4800

> <Gold.Chemscore.Hbond>
2.6187

> <Gold.Chemscore.Metal>
0.0000

> <Gold.Chemscore.Lipo>
49.2428

> <Gold.Chemscore.Internal_Hbond>
0.0000

> <Gold.Chemscore.DEClash>
0.0554

> <Gold.Chemscore.DEInternal>
0.7777

> <Gold.Chemscore.Rot>
1.9952

> <Gold.Chemscore.Internal.Correction>
   9.000000E+99

> <Gold.Chemscore.Hbonds>
donor molecule, donor type, donor heavy atom, donor atom, acceptor molecule, acceptor atom, score
      L1  H    10    20       P1  7948  0.18
      P1  H  7997  8008       L1     9  1.00
      P1  H 10752 10765       L1     1  0.46

> <Gold.Chemscore.Hbond.Weighted>
-8.7465

> <Gold.Chemscore.Metal.Weighted>
-0.0000

> <Gold.Chemscore.Lipo.Weighted>
-5.7614

> <Gold.Chemscore.Internal_Hbond.Weighted>
0.0000

> <Gold.Chemscore.DEClash.Weighted>
0.0554

> <Gold.Chemscore.DEInternal.Weighted>
0.7777

> <Gold.Chemscore.Rot.Weighted>
5.1077

> <Gold.Chemscore.Internal.Correction.Weighted>
   9.000000E+99

> <Gold.Protein.RotatedTorsions>
[ 6907 6896 6895 6894 ] final -164.77 input  -60.11 | X-H torsion
[ 7974 7965 7964 7962 ] final -151.68 input  175.53 | X-H torsion
[ 8008 7997 7996 7995 ] final  -32.44 input   59.86 | X-H torsion
[ 10167 10162 10161 10158 ] final -137.55 input  -65.29 | X-H torsion
[ 10718 10713 10712 10709 ] final  -28.23 input   66.30 | X-H torsion
[ 10763 10752 10751 10750 ] final -141.71 input  -60.55 | X-H torsion
[ 11005 11000 10999 10996 ] final -145.19 input  -57.11 | X-H torsion

> <Gold.Protein.ActiveResidues>
 VAL166  LYS551  ARG553  GLY616  TRP617  ASP618  TYR619  PRO620  LYS621  CYS622 
 ASP623  PHE694  ASN695  SER759  ASP760  ASP761  ALA762  ILE779  LEU786  VAL792 
 PHE793  MET794  SER795  GLU796  ALA797  LYS798  CYS799  TRP800  GLU811  SER814 

> <Gold.Protein.RotatedAtoms>
  151.4171  133.3709  159.2751 H   0  0  0  0  0  0  0  0  0  0  0  0  # atno 6907 bound_to 6896
  150.9321  134.8736  159.7568 H   0  0  0  0  0  0  0  0  0  0  0  0  # atno 6908 bound_to 6896
  152.5033  134.4116  159.9502 H   0  0  0  0  0  0  0  0  0  0  0  0  # atno 6909 bound_to 6896
  144.7836  140.4765  143.5822 H   0  0  0  0  0  0  0  0  0  0  0  0  # atno 7974 bound_to 7965
  154.4180  140.1737  156.1728 H   0  0  0  0  0  0  0  0  0  0  0  0  # atno 8008 bound_to 7997
  155.9746  140.3383  155.6583 H   0  0  0  0  0  0  0  0  0  0  0  0  # atno 8009 bound_to 7997
  155.6580  140.0698  157.2554 H   0  0  0  0  0  0  0  0  0  0  0  0  # atno 8010 bound_to 7997
  139.8567  143.7129  152.2653 H   0  0  0  0  0  0  0  0  0  0  0  0  # atno 10167 bound_to 10162
  156.4279  130.4439  149.7138 H   0  0  0  0  0  0  0  0  0  0  0  0  # atno 10718 bound_to 10713
  154.8535  135.3516  154.5912 H   0  0  0  0  0  0  0  0  0  0  0  0  # atno 10763 bound_to 10752
  153.6522  135.6993  153.5210 H   0  0  0  0  0  0  0  0  0  0  0  0  # atno 10764 bound_to 10752
  153.2885  135.4242  155.1103 H   0  0  0  0  0  0  0  0  0  0  0  0  # atno 10765 bound_to 10752
  140.7948  134.2926  157.5000 H   0  0  0  0  0  0  0  0  0  0  0  0  # atno 11005 bound_to 11000
  145.5982  139.1501  143.3144 LP  0  0  0  0  0  0  0  0  0  0  0  0  # atno 17320 bound_to 7965
  146.2057  140.6105  142.9082 LP  0  0  0  0  0  0  0  0  0  0  0  0  # atno 17321 bound_to 7965
  139.7413  144.7558  151.0648 LP  0  0  0  0  0  0  0  0  0  0  0  0  # atno 17342 bound_to 10162
  140.7780  143.4969  150.9821 LP  0  0  0  0  0  0  0  0  0  0  0  0  # atno 17343 bound_to 10162
  156.4052  130.7695  151.2705 LP  0  0  0  0  0  0  0  0  0  0  0  0  # atno 17370 bound_to 10713
  157.7508  131.0228  150.3806 LP  0  0  0  0  0  0  0  0  0  0  0  0  # atno 17371 bound_to 10713
  139.8727  134.9395  156.3745 LP  0  0  0  0  0  0  0  0  0  0  0  0  # atno 17394 bound_to 11000
  140.9354  133.7551  156.0077 LP  0  0  0  0  0  0  0  0  0  0  0  0  # atno 17395 bound_to 11000

$$$$
