AV-unprocessed.smi:2229|AV-procd|sdf|9034|dock6
  -GOLD-   2272012243D 1   1.00000     0.00000
 Structure written by MMmdl.
 43 44  0  0  0  0  0  0  0  0  2 V2000
  152.4881  142.7464  160.2783 C   0  0  0  0  0  0  0  0  0  0  0  0
  152.1834  143.4051  158.9219 C   0  0  0  0  0  0  0  0  0  0  0  0
  151.9679  144.9159  159.0999 C   0  0  0  0  0  0  0  0  0  0  0  0
  150.9753  142.7626  158.2096 C   0  0  0  0  0  0  0  0  0  0  0  0
  151.1139  141.2463  157.9809 C   0  0  0  0  0  0  0  0  0  0  0  0
  150.1871  140.7080  156.8745 C   0  0  1  0  0  0  0  0  0  0  0  0
  150.1273  141.5995  155.6259 C   0  0  0  0  0  0  0  0  0  0  0  0
  149.7579  140.6484  154.4935 C   0  0  0  0  0  0  0  0  0  0  0  0
  150.5316  139.3738  154.8220 C   0  0  0  0  0  0  0  0  0  0  0  0
  150.5977  139.3067  156.3581 C   0  0  2  0  0  0  0  0  0  0  0  0
  149.6871  138.2774  156.8493 N   0  0  0  0  0  0  0  0  0  0  0  0
  148.3592  138.2387  156.6493 C   0  0  0  0  0  0  0  0  0  0  0  0
  147.7505  139.1162  156.0385 O   0  0  0  0  0  0  0  0  0  0  0  0
  147.5754  137.0402  157.2113 C   0  0  0  0  0  0  0  0  0  0  0  0
  147.5857  136.9255  158.6744 N   0  0  0  0  0  0  0  0  0  0  0  0
  146.4615  137.0906  159.4442 C   0  0  0  0  0  0  0  0  0  0  0  0
  146.7395  136.9545  160.6910 N   0  0  0  0  0  0  0  0  0  0  0  0
  148.1421  136.6776  160.7656 N   0  5  0  0  0  0  0  0  0  0  0  0
  148.6052  136.6697  159.4963 C   0  0  0  0  0  0  0  0  0  0  0  0
  149.7546  136.4764  159.1033 O   0  0  0  0  0  0  0  0  0  0  0  0
  151.6279  142.7983  160.9463 H   0  0  0  0  0  0  0  0  0  0  0  0
  153.3227  143.2420  160.7748 H   0  0  0  0  0  0  0  0  0  0  0  0
  152.7623  141.6978  160.1666 H   0  0  0  0  0  0  0  0  0  0  0  0
  153.0589  143.2775  158.2840 H   0  0  0  0  0  0  0  0  0  0  0  0
  151.1033  145.1207  159.7321 H   0  0  0  0  0  0  0  0  0  0  0  0
  151.8024  145.4072  158.1407 H   0  0  0  0  0  0  0  0  0  0  0  0
  152.8364  145.3862  159.5619 H   0  0  0  0  0  0  0  0  0  0  0  0
  150.0647  142.9666  158.7745 H   0  0  0  0  0  0  0  0  0  0  0  0
  150.8438  143.2484  157.2422 H   0  0  0  0  0  0  0  0  0  0  0  0
  152.1500  140.9997  157.7455 H   0  0  0  0  0  0  0  0  0  0  0  0
  150.8803  140.7226  158.9068 H   0  0  0  0  0  0  0  0  0  0  0  0
  149.1732  140.6474  157.2757 H   0  0  0  0  0  0  0  0  0  0  0  0
  149.4132  142.4171  155.7292 H   0  0  0  0  0  0  0  0  0  0  0  0
  151.1062  142.0372  155.4255 H   0  0  0  0  0  0  0  0  0  0  0  0
  148.6861  140.4459  154.5158 H   0  0  0  0  0  0  0  0  0  0  0  0
  150.0041  141.0482  153.5096 H   0  0  0  0  0  0  0  0  0  0  0  0
  150.0818  138.4903  154.3664 H   0  0  0  0  0  0  0  0  0  0  0  0
  151.5435  139.4579  154.4236 H   0  0  0  0  0  0  0  0  0  0  0  0
  151.6213  139.0631  156.6493 H   0  0  0  0  0  0  0  0  0  0  0  0
  150.1033  137.5100  157.3579 H   0  0  0  0  0  0  0  0  0  0  0  0
  146.5488  137.0979  156.8455 H   0  0  0  0  0  0  0  0  0  0  0  0
  147.9950  136.1275  156.7858 H   0  0  0  0  0  0  0  0  0  0  0  0
  145.5006  137.3093  158.9754 H   0  0  0  0  0  0  0  0  0  0  0  0
  1  2  1  0  0  0  0
  1 21  1  0  0  0  0
  1 22  1  0  0  0  0
  1 23  1  0  0  0  0
  2  3  1  0  0  0  0
  2  4  1  0  0  0  0
  2 24  1  0  0  0  0
  3 25  1  0  0  0  0
  3 26  1  0  0  0  0
  3 27  1  0  0  0  0
  4  5  1  0  0  0  0
  4 28  1  0  0  0  0
  4 29  1  0  0  0  0
  5  6  1  0  0  0  0
  5 30  1  0  0  0  0
  5 31  1  0  0  0  0
  6 10  1  0  0  0  0
  6  7  1  0  0  0  0
  6 32  1  0  0  0  0
  7  8  1  0  0  0  0
  7 33  1  0  0  0  0
  7 34  1  0  0  0  0
  8  9  1  0  0  0  0
  8 35  1  0  0  0  0
  8 36  1  0  0  0  0
  9 10  1  0  0  0  0
  9 37  1  0  0  0  0
  9 38  1  0  0  0  0
 10 11  1  0  0  0  0
 10 39  1  0  0  0  0
 11 12  1  0  0  0  0
 11 40  1  0  0  0  0
 12 13  2  0  0  0  0
 12 14  1  0  0  0  0
 14 15  1  0  0  0  0
 14 41  1  0  0  0  0
 14 42  1  0  0  0  0
 15 19  1  0  0  0  0
 15 16  1  0  0  0  0
 16 17  2  0  0  0  0
 16 43  1  0  0  0  0
 17 18  1  0  0  0  0
 18 19  1  0  0  0  0
 19 20  2  0  0  0  0
M  CHG  1  18  -1
M  END
> <s_m_source_file>
AV-unprocessed.smi

> <i_m_source_file_index>
2229

> <i_lp_mmshare_version>
43012

> <i_f3d_flags>
0

> <s_epik_input>
W0NIM11bQ0hdKFtDSDNdKVtDSDJdW0NIMl1bQ0BASF0xW0NIMl1bQ0gyXVtDSDJdW0NASF0xW05IXUMoPU8pW0NIMl1uMltjSF1uW25IXWMyPU8=

> <s_epik_cmdline>
J2VwaWtfcHl0aG9uJywgJy1waCcsICc3LjAnLCAnLXRuJywgJzgnLCAnLW1hJywgJzIwMCcsICctbWV0YWxfYmluZGluZycsICctaW1hZScsICc8aW5maWxlLm1hZT4nLCAnLW9tYWUnLCAnPG91dGZpbGUubWFlPic=

> <r_lp_tautomer_probability>
1

> <r_epik_Ionization_Penalty>
13.6733

> <r_epik_Ionization_Penalty_Charging>
13.6725

> <r_epik_Ionization_Penalty_Neutral>
0.000837689

> <r_epik_State_Penalty>
5.67062

> <r_epik_Charging_Adjusted_Penalty>
19.3431

> <i_epik_Tot_Q>
-1

> <i_epik_Tot_abs_Q>
1

> <r_epik_Metal_State_Penalty>
1.61781

> <b_epik_Metal_Only>
1

> <s_lp_Force_Field>
OPLS_2005

> <r_lp_Energy>
24.9867

> <b_lp_Chiralities_Consistent>
1

> <s_lp_Variant>
AV-unprocessed.smi:2229-8

> <Gold.Version>
5.8.1

> <Gold.Id.Protein>
6NUR|6NUR_protein|mol2

> <Gold.PLP.Fitness>
43.3336

> <Gold.PLP.PLP>
-34.1128

> <Gold.PLP.part.hbond>
-3.2499

> <Gold.PLP.part.metal>
0.0000

> <Gold.PLP.part.buried>
-2.9279

> <Gold.PLP.part.nonpolar>
-28.7096

> <Gold.PLP.part.repulsive>
0.0006

> <Gold.PLP.ligand.clash>
0.0000

> <Gold.PLP.ligand.torsion>
0.2969

> <Gold.PLP.Chemscore.Hbond>
3.2625

> <Gold.PLP.Chemscore.CHOScore>
0.0000

> <Gold.PLP.Chemscore.Metal>
0.0000

> <Gold.Chemscore.Hbonds>
donor molecule, donor type, donor heavy atom, donor atom, acceptor molecule, acceptor atom, score
      P1  H  6896  6909       L1    20  1.00
      P1  H  6931  6943       L1    18  1.50
      P1  H  6934  6947       L1    17  0.22

> <Gold.PLP.Chemscore.Internal.Correction>
0.0271

> <Gold.Rescore>
     Score         DG    S(hbond)    S(metal)    S(lipo)     H(rot)  DE(clash)    DE(int)     intcor
      9.07     -12.83       1.35        0.00      81.20       2.59       0.04       3.73       ----

> <Gold.Chemscore.Fitness>
9.0683

> <Gold.Chemscore.DG>
-12.8333

> <Gold.Chemscore.ZeroCoef>
-5.4800

> <Gold.Chemscore.Hbond>
1.3453

> <Gold.Chemscore.Metal>
0.0000

> <Gold.Chemscore.Lipo>
81.2018

> <Gold.Chemscore.Internal_Hbond>
0.0000

> <Gold.Chemscore.DEClash>
0.0358

> <Gold.Chemscore.DEInternal>
3.7292

> <Gold.Chemscore.Rot>
2.5939

> <Gold.Chemscore.Internal.Correction>
   9.000000E+99

> <Gold.Chemscore.Hbonds>
donor molecule, donor type, donor heavy atom, donor atom, acceptor molecule, acceptor atom, score
      P1  H  6896  6909       L1    20  0.93
      P1  H  6931  6943       L1    18  0.33

> <Gold.Chemscore.Hbond.Weighted>
-4.4932

> <Gold.Chemscore.Metal.Weighted>
-0.0000

> <Gold.Chemscore.Lipo.Weighted>
-9.5006

> <Gold.Chemscore.Internal_Hbond.Weighted>
0.0000

> <Gold.Chemscore.DEClash.Weighted>
0.0358

> <Gold.Chemscore.DEInternal.Weighted>
3.7292

> <Gold.Chemscore.Rot.Weighted>
6.6405

> <Gold.Chemscore.Internal.Correction.Weighted>
   9.000000E+99

> <Gold.Protein.RotatedTorsions>
[ 6907 6896 6895 6894 ] final   73.40 input  -60.11 | X-H torsion
[ 7974 7965 7964 7962 ] final  107.19 input  175.53 | X-H torsion
[ 8008 7997 7996 7995 ] final   72.90 input   59.86 | X-H torsion
[ 10167 10162 10161 10158 ] final  -55.28 input  -65.29 | X-H torsion
[ 10718 10713 10712 10709 ] final -138.78 input   66.30 | X-H torsion
[ 10763 10752 10751 10750 ] final -170.71 input  -60.55 | X-H torsion
[ 11005 11000 10999 10996 ] final  -36.06 input  -57.11 | X-H torsion

> <Gold.Protein.ActiveResidues>
 VAL166  LYS551  ARG553  GLY616  TRP617  ASP618  TYR619  PRO620  LYS621  CYS622 
 ASP623  PHE694  ASN695  SER759  ASP760  ASP761  ALA762  ILE779  LEU786  VAL792 
 PHE793  MET794  SER795  GLU796  ALA797  LYS798  CYS799  TRP800  GLU811  SER814 

> <Gold.Protein.RotatedAtoms>
  152.4921  134.4427  159.9548 H   0  0  0  0  0  0  0  0  0  0  0  0  # atno 6907 bound_to 6896
  151.4412  133.3637  159.2790 H   0  0  0  0  0  0  0  0  0  0  0  0  # atno 6908 bound_to 6896
  150.9086  134.8526  159.7470 H   0  0  0  0  0  0  0  0  0  0  0  0  # atno 6909 bound_to 6896
  145.2969  139.2582  143.3835 H   0  0  0  0  0  0  0  0  0  0  0  0  # atno 7974 bound_to 7965
  155.7758  140.3483  155.5271 H   0  0  0  0  0  0  0  0  0  0  0  0  # atno 8008 bound_to 7997
  155.8777  140.0997  157.1527 H   0  0  0  0  0  0  0  0  0  0  0  0  # atno 8009 bound_to 7997
  154.4022  140.1328  156.4145 H   0  0  0  0  0  0  0  0  0  0  0  0  # atno 8010 bound_to 7997
  140.6383  143.2494  151.5057 H   0  0  0  0  0  0  0  0  0  0  0  0  # atno 10167 bound_to 10162
  156.3032  130.7440  151.1497 H   0  0  0  0  0  0  0  0  0  0  0  0  # atno 10718 bound_to 10713
  154.6385  135.2895  155.0132 H   0  0  0  0  0  0  0  0  0  0  0  0  # atno 10763 bound_to 10752
  154.1267  135.6540  153.4917 H   0  0  0  0  0  0  0  0  0  0  0  0  # atno 10764 bound_to 10752
  153.0314  135.5300  154.7242 H   0  0  0  0  0  0  0  0  0  0  0  0  # atno 10765 bound_to 10752
  140.9845  133.7038  156.1742 H   0  0  0  0  0  0  0  0  0  0  0  0  # atno 11005 bound_to 11000
  146.3165  140.3474  142.8653 LP  0  0  0  0  0  0  0  0  0  0  0  0  # atno 17320 bound_to 7965
  144.9126  140.7775  143.5798 LP  0  0  0  0  0  0  0  0  0  0  0  0  # atno 17321 bound_to 7965
  139.5593  144.2196  152.1665 LP  0  0  0  0  0  0  0  0  0  0  0  0  # atno 17342 bound_to 10162
  140.1459  144.5159  150.6716 LP  0  0  0  0  0  0  0  0  0  0  0  0  # atno 17343 bound_to 10162
  157.7373  131.0553  150.5363 LP  0  0  0  0  0  0  0  0  0  0  0  0  # atno 17370 bound_to 10713
  156.5493  130.4227  149.6115 LP  0  0  0  0  0  0  0  0  0  0  0  0  # atno 17371 bound_to 10713
  140.7135  134.4435  157.5580 LP  0  0  0  0  0  0  0  0  0  0  0  0  # atno 17394 bound_to 11000
  139.8964  134.8659  156.2087 LP  0  0  0  0  0  0  0  0  0  0  0  0  # atno 17395 bound_to 11000

$$$$
