AV-unprocessed.smi:2868|AV-procd|sdf|11027|dock2
  -GOLD-   2272015493D 1   1.00000     0.00000
 Structure written by MMmdl.
 49 50  0  0  0  0  0  0  0  0  1 V2000
  147.2020  134.2727  159.1982 C   0  0  0  0  0  0  0  0  0  0  0  0
  148.1733  135.4121  158.8434 C   0  0  0  0  0  0  0  0  0  0  0  0
  147.3654  136.7090  158.6265 C   0  0  0  0  0  0  0  0  0  0  0  0
  149.1836  135.5859  159.9971 C   0  0  0  0  0  0  0  0  0  0  0  0
  148.8594  135.0165  157.6075 N   0  0  0  0  0  0  0  0  0  0  0  0
  149.5465  133.8869  157.3482 C   0  0  0  0  0  0  0  0  0  0  0  0
  149.6764  132.9838  158.1753 O   0  0  0  0  0  0  0  0  0  0  0  0
  150.0695  133.8213  156.0969 N   0  0  0  0  0  0  0  0  0  0  0  0
  150.9493  132.7640  155.5701 C   0  0  0  0  0  0  0  0  0  0  0  0
  150.1327  131.8685  154.6212 C   0  0  0  0  0  0  0  0  0  0  0  0
  149.4851  132.6943  153.4882 C   0  0  0  0  0  0  0  0  0  0  0  0
  148.5746  131.8467  152.7250 N   0  0  0  0  0  0  0  0  0  0  0  0
  147.3423  131.4840  153.1138 C   0  0  0  0  0  0  0  0  0  0  0  0
  146.8373  131.8273  154.1824 O   0  0  0  0  0  0  0  0  0  0  0  0
  146.5545  130.6017  152.1455 C   0  0  0  0  0  0  0  0  0  0  0  0
  145.6103  131.4495  151.3125 C   0  0  0  0  0  0  0  0  0  0  0  0
  144.5623  132.1751  151.9161 C   0  0  0  0  0  0  0  0  0  0  0  0
  143.7120  132.9452  151.0995 C   0  0  0  0  0  0  0  0  0  0  0  0
  143.9471  132.9577  149.7101 C   0  0  0  0  0  0  0  0  0  0  0  0
  144.9475  132.2677  149.1212 N   0  0  0  0  0  0  0  0  0  0  0  0
  145.7578  131.5309  149.9112 C   0  0  0  0  0  0  0  0  0  0  0  0
  148.7449  133.9336  154.0436 C   0  0  0  0  0  0  0  0  0  0  0  0
  149.6323  134.7223  155.0237 C   0  0  0  0  0  0  0  0  0  0  0  0
  146.6551  134.4884  160.1169 H   0  0  0  0  0  0  0  0  0  0  0  0
  147.7305  133.3300  159.3461 H   0  0  0  0  0  0  0  0  0  0  0  0
  146.4656  134.1162  158.4087 H   0  0  0  0  0  0  0  0  0  0  0  0
  146.6737  136.6107  157.7890 H   0  0  0  0  0  0  0  0  0  0  0  0
  148.0091  137.5650  158.4240 H   0  0  0  0  0  0  0  0  0  0  0  0
  146.7762  136.9564  159.5101 H   0  0  0  0  0  0  0  0  0  0  0  0
  148.6720  135.7757  160.9415 H   0  0  0  0  0  0  0  0  0  0  0  0
  149.8598  136.4237  159.8281 H   0  0  0  0  0  0  0  0  0  0  0  0
  149.7930  134.6913  160.1291 H   0  0  0  0  0  0  0  0  0  0  0  0
  148.8100  135.6876  156.8549 H   0  0  0  0  0  0  0  0  0  0  0  0
  151.7745  133.2246  155.0250 H   0  0  0  0  0  0  0  0  0  0  0  0
  151.4216  132.1545  156.3403 H   0  0  0  0  0  0  0  0  0  0  0  0
  150.7723  131.0927  154.1989 H   0  0  0  0  0  0  0  0  0  0  0  0
  149.3600  131.3536  155.1947 H   0  0  0  0  0  0  0  0  0  0  0  0
  150.2866  133.0378  152.8312 H   0  0  0  0  0  0  0  0  0  0  0  0
  148.9040  131.5156  151.8300 H   0  0  0  0  0  0  0  0  0  0  0  0
  147.2337  130.0503  151.4936 H   0  0  0  0  0  0  0  0  0  0  0  0
  145.9871  129.8593  152.7083 H   0  0  0  0  0  0  0  0  0  0  0  0
  144.4099  132.1405  152.9849 H   0  0  0  0  0  0  0  0  0  0  0  0
  142.8986  133.5123  151.5275 H   0  0  0  0  0  0  0  0  0  0  0  0
  143.3148  133.5375  149.0541 H   0  0  0  0  0  0  0  0  0  0  0  0
  146.5460  130.9891  149.4095 H   0  0  0  0  0  0  0  0  0  0  0  0
  148.4297  134.5836  153.2268 H   0  0  0  0  0  0  0  0  0  0  0  0
  147.8347  133.6215  154.5584 H   0  0  0  0  0  0  0  0  0  0  0  0
  149.0925  135.5939  155.3964 H   0  0  0  0  0  0  0  0  0  0  0  0
  150.5049  135.1189  154.5027 H   0  0  0  0  0  0  0  0  0  0  0  0
  1  2  1  0  0  0  0
  1 24  1  0  0  0  0
  1 25  1  0  0  0  0
  1 26  1  0  0  0  0
  2  3  1  0  0  0  0
  2  4  1  0  0  0  0
  2  5  1  0  0  0  0
  3 27  1  0  0  0  0
  3 28  1  0  0  0  0
  3 29  1  0  0  0  0
  4 30  1  0  0  0  0
  4 31  1  0  0  0  0
  4 32  1  0  0  0  0
  5  6  1  0  0  0  0
  5 33  1  0  0  0  0
  6  7  2  0  0  0  0
  6  8  1  0  0  0  0
  8 23  1  0  0  0  0
  8  9  1  0  0  0  0
  9 10  1  0  0  0  0
  9 34  1  0  0  0  0
  9 35  1  0  0  0  0
 10 11  1  0  0  0  0
 10 36  1  0  0  0  0
 10 37  1  0  0  0  0
 11 12  1  0  0  0  0
 11 22  1  0  0  0  0
 11 38  1  0  0  0  0
 12 13  1  0  0  0  0
 12 39  1  0  0  0  0
 13 14  2  0  0  0  0
 13 15  1  0  0  0  0
 15 16  1  0  0  0  0
 15 40  1  0  0  0  0
 15 41  1  0  0  0  0
 16 21  1  0  0  0  0
 16 17  2  0  0  0  0
 17 18  1  0  0  0  0
 17 42  1  0  0  0  0
 18 19  2  0  0  0  0
 18 43  1  0  0  0  0
 19 20  1  0  0  0  0
 19 44  1  0  0  0  0
 20 21  2  0  0  0  0
 21 45  1  0  0  0  0
 22 23  1  0  0  0  0
 22 46  1  0  0  0  0
 22 47  1  0  0  0  0
 23 48  1  0  0  0  0
 23 49  1  0  0  0  0
M  END
> <s_m_source_file>
AV-unprocessed.smi

> <i_m_source_file_index>
2868

> <i_lp_mmshare_version>
43012

> <i_f3d_flags>
0

> <s_epik_input>
W0NIM11DKFtDSDNdKShbQ0gzXSlbTkhdQyg9TylOMVtDSDJdW0NIMl1bQ0hdKFtDSDJdW0NIMl0xKVtOSF1DKD1PKVtDSDJdYzJbY0hdW2NIXVtjSF1uW2NIXTI=

> <s_epik_cmdline>
J2VwaWtfcHl0aG9uJywgJy1waCcsICc3LjAnLCAnLXRuJywgJzgnLCAnLW1hJywgJzIwMCcsICctbWV0YWxfYmluZGluZycsICctaW1hZScsICc8aW5maWxlLm1hZT4nLCAnLW9tYWUnLCAnPG91dGZpbGUubWFlPic=

> <r_epik_Ionization_Penalty>
0.00419782

> <r_epik_Ionization_Penalty_Charging>
0

> <r_epik_Ionization_Penalty_Neutral>
0.00419782

> <r_epik_State_Penalty>
0.0029617

> <r_epik_Charging_Adjusted_Penalty>
0.0029617

> <i_epik_Tot_Q>
0

> <i_epik_Tot_abs_Q>
0

> <r_epik_Metal_State_Penalty>
-0

> <b_epik_Metal_Only>
0

> <s_lp_Force_Field>
OPLS_2005

> <r_lp_Energy>
29.348

> <b_lp_Chiralities_Consistent>
1

> <s_lp_Variant>
AV-unprocessed.smi:2868-1

> <Gold.Version>
5.8.1

> <Gold.Id.Protein>
6NUR|6NUR_protein|mol2

> <Gold.PLP.Fitness>
42.7791

> <Gold.PLP.PLP>
-33.6714

> <Gold.PLP.part.hbond>
-2.2045

> <Gold.PLP.part.metal>
0.0000

> <Gold.PLP.part.buried>
-3.5915

> <Gold.PLP.part.nonpolar>
-29.3932

> <Gold.PLP.part.repulsive>
0.3298

> <Gold.PLP.ligand.clash>
1.3385

> <Gold.PLP.ligand.torsion>
0.6467

> <Gold.PLP.Chemscore.Hbond>
2.0000

> <Gold.PLP.Chemscore.CHOScore>
1.8887

> <Gold.PLP.Chemscore.Metal>
0.0000

> <Gold.Chemscore.Hbonds>
donor molecule, donor type, donor heavy atom, donor atom, acceptor molecule, acceptor atom, score
      L1  H    12    39       P1 10747  1.00
      P1  H  6896  6907       L1     7  1.00
      L1  C    19    44       P1 10186  0.96
      L1  C    21    45       P1 10747  0.84

> <Gold.PLP.Chemscore.Internal.Correction>
0.0736

> <Gold.Rescore>
     Score         DG    S(hbond)    S(metal)    S(lipo)     H(rot)  DE(clash)    DE(int)     intcor
     15.91     -18.39       1.92        0.00      88.74       1.52       0.00       2.48       ----

> <Gold.Chemscore.Fitness>
15.9107

> <Gold.Chemscore.DG>
-18.3909

> <Gold.Chemscore.ZeroCoef>
-5.4800

> <Gold.Chemscore.Hbond>
1.9217

> <Gold.Chemscore.Metal>
0.0000

> <Gold.Chemscore.Lipo>
88.7433

> <Gold.Chemscore.Internal_Hbond>
0.0000

> <Gold.Chemscore.DEClash>
0.0004

> <Gold.Chemscore.DEInternal>
2.4798

> <Gold.Chemscore.Rot>
1.5197

> <Gold.Chemscore.Internal.Correction>
   9.000000E+99

> <Gold.Chemscore.Hbonds>
donor molecule, donor type, donor heavy atom, donor atom, acceptor molecule, acceptor atom, score
      L1  H    12    39       P1 10747  0.88
      P1  H  6896  6907       L1     7  0.35

> <Gold.Chemscore.Hbond.Weighted>
-6.4184

> <Gold.Chemscore.Metal.Weighted>
-0.0000

> <Gold.Chemscore.Lipo.Weighted>
-10.3830

> <Gold.Chemscore.Internal_Hbond.Weighted>
0.0000

> <Gold.Chemscore.DEClash.Weighted>
0.0004

> <Gold.Chemscore.DEInternal.Weighted>
2.4798

> <Gold.Chemscore.Rot.Weighted>
3.8904

> <Gold.Chemscore.Internal.Correction.Weighted>
   9.000000E+99

> <Gold.Protein.RotatedTorsions>
[ 6907 6896 6895 6894 ] final -129.48 input  -60.11 | X-H torsion
[ 7974 7965 7964 7962 ] final  -42.69 input  175.53 | X-H torsion
[ 8008 7997 7996 7995 ] final  -71.87 input   59.86 | X-H torsion
[ 10167 10162 10161 10158 ] final  -58.02 input  -65.29 | X-H torsion
[ 10718 10713 10712 10709 ] final   21.90 input   66.30 | X-H torsion
[ 10763 10752 10751 10750 ] final  174.05 input  -60.55 | X-H torsion
[ 11005 11000 10999 10996 ] final    5.90 input  -57.11 | X-H torsion

> <Gold.Protein.ActiveResidues>
 VAL166  LYS551  ARG553  GLY616  TRP617  ASP618  TYR619  PRO620  LYS621  CYS622 
 ASP623  PHE694  ASN695  SER759  ASP760  ASP761  ALA762  ILE779  LEU786  VAL792 
 PHE793  MET794  SER795  GLU796  ALA797  LYS798  CYS799  TRP800  GLU811  SER814 

> <Gold.Protein.RotatedAtoms>
  150.9292  133.6787  159.2814 H   0  0  0  0  0  0  0  0  0  0  0  0  # atno 6907 bound_to 6896
  151.4215  135.0997  159.9625 H   0  0  0  0  0  0  0  0  0  0  0  0  # atno 6908 bound_to 6896
  152.5017  133.8742  159.7369 H   0  0  0  0  0  0  0  0  0  0  0  0  # atno 6909 bound_to 6896
  146.0092  140.6984  142.9233 H   0  0  0  0  0  0  0  0  0  0  0  0  # atno 7974 bound_to 7965
  154.5122  140.0807  156.8011 H   0  0  0  0  0  0  0  0  0  0  0  0  # atno 8008 bound_to 7997
  155.3760  140.3425  155.4227 H   0  0  0  0  0  0  0  0  0  0  0  0  # atno 8009 bound_to 7997
  156.1586  140.1581  156.8638 H   0  0  0  0  0  0  0  0  0  0  0  0  # atno 8010 bound_to 7997
  140.6222  143.2424  151.5451 H   0  0  0  0  0  0  0  0  0  0  0  0  # atno 10167 bound_to 10162
  157.1449  130.6649  149.5993 H   0  0  0  0  0  0  0  0  0  0  0  0  # atno 10718 bound_to 10713
  154.4486  135.2764  155.1797 H   0  0  0  0  0  0  0  0  0  0  0  0  # atno 10763 bound_to 10752
  154.3634  135.6124  153.5706 H   0  0  0  0  0  0  0  0  0  0  0  0  # atno 10764 bound_to 10752
  152.9845  135.5840  154.4826 H   0  0  0  0  0  0  0  0  0  0  0  0  # atno 10765 bound_to 10752
  140.5655  134.0151  155.7988 H   0  0  0  0  0  0  0  0  0  0  0  0  # atno 11005 bound_to 11000
  144.6946  140.3368  143.7206 LP  0  0  0  0  0  0  0  0  0  0  0  0  # atno 17320 bound_to 7965
  145.7369  139.1752  143.2398 LP  0  0  0  0  0  0  0  0  0  0  0  0  # atno 17321 bound_to 7965
  139.5449  144.2548  152.1422 LP  0  0  0  0  0  0  0  0  0  0  0  0  # atno 17342 bound_to 10162
  140.1771  144.4880  150.6548 LP  0  0  0  0  0  0  0  0  0  0  0  0  # atno 17343 bound_to 10162
  155.9781  130.4764  150.6637 LP  0  0  0  0  0  0  0  0  0  0  0  0  # atno 17370 bound_to 10713
  157.4273  131.0845  151.1073 LP  0  0  0  0  0  0  0  0  0  0  0  0  # atno 17371 bound_to 10713
  141.1088  133.9650  157.2948 LP  0  0  0  0  0  0  0  0  0  0  0  0  # atno 17394 bound_to 11000
  139.9387  135.0193  156.8638 LP  0  0  0  0  0  0  0  0  0  0  0  0  # atno 17395 bound_to 11000

$$$$
