AV-unprocessed.smi:1020|AV-procd|sdf|4453|dock7
  -GOLD-   22720 2423D 1   1.00000     0.00000
 Structure written by MMmdl.
 46 47  0  0  0  0  0  0  0  0  1 V2000
  151.8924  145.4727  159.5077 C   0  0  0  0  0  0  0  0  0  0  0  0
  152.0272  143.9725  159.2237 C   0  0  0  0  0  0  0  0  0  0  0  0
  153.4967  143.5239  159.2474 C   0  0  0  0  0  0  0  0  0  0  0  0
  151.4588  143.7382  157.9422 O   0  0  0  0  0  0  0  0  0  0  0  0
  150.9831  142.4147  157.7391 C   0  0  0  0  0  0  0  0  0  0  0  0
  150.8782  142.1361  156.2342 C   0  0  0  0  0  0  0  0  0  0  0  0
  150.9552  140.6814  155.9071 C   0  0  0  0  0  0  0  0  0  0  0  0
  151.2155  140.1378  154.7207 N   0  0  0  0  0  0  0  0  0  0  0  0
  151.0758  138.8128  155.0027 C   0  0  0  0  0  0  0  0  0  0  0  0
  151.2624  137.7398  153.9771 C   0  0  0  0  0  0  0  0  0  0  0  0
  151.2232  136.3556  154.6279 C   0  0  0  0  0  0  0  0  0  0  0  0
  151.9988  136.0844  155.5446 O   0  0  0  0  0  0  0  0  0  0  0  0
  150.3158  135.4906  154.1461 N   0  0  0  0  0  0  0  0  0  0  0  0
  150.1357  134.1153  154.5993 C   0  0  0  0  0  0  0  0  0  0  0  0
  151.5014  133.4600  154.8922 C   0  0  0  0  0  0  0  0  0  0  0  0
  151.3465  131.9837  155.2901 C   0  0  0  0  0  0  0  0  0  0  0  0
  150.5758  131.1954  154.2198 C   0  0  0  0  0  0  0  0  0  0  0  0
  149.2112  131.8408  153.9317 C   0  0  0  0  0  0  0  0  0  0  0  0
  149.3657  133.3169  153.5304 C   0  0  0  0  0  0  0  0  0  0  0  0
  150.7552  138.5191  156.2581 N   0  0  0  0  0  0  0  0  0  0  0  0
  150.6584  139.7767  156.8708 O   0  0  0  0  0  0  0  0  0  0  0  0
  152.3024  145.7284  160.4849 H   0  0  0  0  0  0  0  0  0  0  0  0
  150.8453  145.7730  159.4998 H   0  0  0  0  0  0  0  0  0  0  0  0
  152.4148  146.0675  158.7578 H   0  0  0  0  0  0  0  0  0  0  0  0
  151.4660  143.4336  159.9892 H   0  0  0  0  0  0  0  0  0  0  0  0
  153.9563  143.7476  160.2105 H   0  0  0  0  0  0  0  0  0  0  0  0
  154.0756  144.0335  158.4766 H   0  0  0  0  0  0  0  0  0  0  0  0
  153.5950  142.4512  159.0832 H   0  0  0  0  0  0  0  0  0  0  0  0
  151.6534  141.6886  158.1989 H   0  0  0  0  0  0  0  0  0  0  0  0
  150.0033  142.2961  158.2047 H   0  0  0  0  0  0  0  0  0  0  0  0
  149.9374  142.5310  155.8491 H   0  0  0  0  0  0  0  0  0  0  0  0
  151.6757  142.6563  155.7030 H   0  0  0  0  0  0  0  0  0  0  0  0
  150.4776  137.8180  153.2235 H   0  0  0  0  0  0  0  0  0  0  0  0
  152.2136  137.8761  153.4605 H   0  0  0  0  0  0  0  0  0  0  0  0
  149.7192  135.8021  153.3930 H   0  0  0  0  0  0  0  0  0  0  0  0
  149.5413  134.1183  155.5152 H   0  0  0  0  0  0  0  0  0  0  0  0
  152.1395  133.5306  154.0099 H   0  0  0  0  0  0  0  0  0  0  0  0
  152.0154  133.9984  155.6895 H   0  0  0  0  0  0  0  0  0  0  0  0
  152.3288  131.5370  155.4465 H   0  0  0  0  0  0  0  0  0  0  0  0
  150.8207  131.9164  156.2436 H   0  0  0  0  0  0  0  0  0  0  0  0
  151.1628  131.1559  153.3014 H   0  0  0  0  0  0  0  0  0  0  0  0
  150.4384  130.1635  154.5442 H   0  0  0  0  0  0  0  0  0  0  0  0
  148.7005  131.2921  153.1397 H   0  0  0  0  0  0  0  0  0  0  0  0
  148.5778  131.7675  154.8168 H   0  0  0  0  0  0  0  0  0  0  0  0
  148.3812  133.7581  153.3707 H   0  0  0  0  0  0  0  0  0  0  0  0
  149.8896  133.3768  152.5750 H   0  0  0  0  0  0  0  0  0  0  0  0
  1  2  1  0  0  0  0
  1 22  1  0  0  0  0
  1 23  1  0  0  0  0
  1 24  1  0  0  0  0
  2  3  1  0  0  0  0
  2  4  1  0  0  0  0
  2 25  1  0  0  0  0
  3 26  1  0  0  0  0
  3 27  1  0  0  0  0
  3 28  1  0  0  0  0
  4  5  1  0  0  0  0
  5  6  1  0  0  0  0
  5 29  1  0  0  0  0
  5 30  1  0  0  0  0
  6  7  1  0  0  0  0
  6 31  1  0  0  0  0
  6 32  1  0  0  0  0
  7 21  1  0  0  0  0
  7  8  2  0  0  0  0
  8  9  1  0  0  0  0
  9 10  1  0  0  0  0
  9 20  2  0  0  0  0
 10 11  1  0  0  0  0
 10 33  1  0  0  0  0
 10 34  1  0  0  0  0
 11 12  2  0  0  0  0
 11 13  1  0  0  0  0
 13 14  1  0  0  0  0
 13 35  1  0  0  0  0
 14 19  1  0  0  0  0
 14 15  1  0  0  0  0
 14 36  1  0  0  0  0
 15 16  1  0  0  0  0
 15 37  1  0  0  0  0
 15 38  1  0  0  0  0
 16 17  1  0  0  0  0
 16 39  1  0  0  0  0
 16 40  1  0  0  0  0
 17 18  1  0  0  0  0
 17 41  1  0  0  0  0
 17 42  1  0  0  0  0
 18 19  1  0  0  0  0
 18 43  1  0  0  0  0
 18 44  1  0  0  0  0
 19 45  1  0  0  0  0
 19 46  1  0  0  0  0
 20 21  1  0  0  0  0
M  END
> <s_m_source_file>
AV-unprocessed.smi

> <i_m_source_file_index>
1020

> <i_lp_mmshare_version>
43012

> <i_f3d_flags>
0

> <s_epik_input>
W0NIM11bQ0hdKFtDSDNdKU9bQ0gyXVtDSDJdYzFuYyhubzEpW0NIMl1DKD1PKVtOSF1bQ0hdMltDSDJdW0NIMl1bQ0gyXVtDSDJdW0NIMl0y

> <s_epik_cmdline>
J2VwaWtfcHl0aG9uJywgJy1waCcsICc3LjAnLCAnLXRuJywgJzgnLCAnLW1hJywgJzIwMCcsICctbWV0YWxfYmluZGluZycsICctaW1hZScsICc8aW5maWxlLm1hZT4nLCAnLW9tYWUnLCAnPG91dGZpbGUubWFlPic=

> <r_lp_tautomer_probability>
1

> <r_epik_Ionization_Penalty>
6.23671e-08

> <r_epik_Ionization_Penalty_Charging>
0

> <r_epik_Ionization_Penalty_Neutral>
6.23671e-08

> <r_epik_State_Penalty>
-0

> <r_epik_Charging_Adjusted_Penalty>
0

> <i_epik_Tot_Q>
0

> <i_epik_Tot_abs_Q>
0

> <r_epik_Metal_State_Penalty>
-0

> <b_epik_Metal_Only>
0

> <s_lp_Force_Field>
OPLS_2005

> <r_lp_Energy>
5.58856

> <b_lp_Chiralities_Consistent>
1

> <s_lp_Variant>
AV-unprocessed.smi:1020-1

> <Gold.Version>
5.8.1

> <Gold.Id.Protein>
6NUR|6NUR_protein|mol2

> <Gold.PLP.Fitness>
49.1887

> <Gold.PLP.PLP>
-42.2935

> <Gold.PLP.part.hbond>
-3.5991

> <Gold.PLP.part.metal>
0.0000

> <Gold.PLP.part.buried>
-4.2910

> <Gold.PLP.part.nonpolar>
-35.1488

> <Gold.PLP.part.repulsive>
0.2651

> <Gold.PLP.ligand.clash>
0.0131

> <Gold.PLP.ligand.torsion>
1.1220

> <Gold.PLP.Chemscore.Hbond>
3.0000

> <Gold.PLP.Chemscore.CHOScore>
0.0000

> <Gold.PLP.Chemscore.Metal>
0.0000

> <Gold.Chemscore.Hbonds>
donor molecule, donor type, donor heavy atom, donor atom, acceptor molecule, acceptor atom, score
      L1  H    13    35       P1  7948  0.70
      P1  H  7989  7998       L1     8  0.88
      P1  H 10752 10763       L1    12  0.73

> <Gold.PLP.Chemscore.Internal.Correction>
0.1524

> <Gold.Rescore>
     Score         DG    S(hbond)    S(metal)    S(lipo)     H(rot)  DE(clash)    DE(int)     intcor
     15.51     -19.65       2.57        0.00      93.55       2.10       0.16       3.98       ----

> <Gold.Chemscore.Fitness>
15.5059

> <Gold.Chemscore.DG>
-19.6525

> <Gold.Chemscore.ZeroCoef>
-5.4800

> <Gold.Chemscore.Hbond>
2.5743

> <Gold.Chemscore.Metal>
0.0000

> <Gold.Chemscore.Lipo>
93.5532

> <Gold.Chemscore.Internal_Hbond>
0.0000

> <Gold.Chemscore.DEClash>
0.1619

> <Gold.Chemscore.DEInternal>
3.9846

> <Gold.Chemscore.Rot>
2.0982

> <Gold.Chemscore.Internal.Correction>
   9.000000E+99

> <Gold.Chemscore.Hbonds>
donor molecule, donor type, donor heavy atom, donor atom, acceptor molecule, acceptor atom, score
      L1  H    13    35       P1  7948  0.07
      P1  H  7989  7998       L1     8  0.85
      P1  H 10752 10763       L1    12  0.61

> <Gold.Chemscore.Hbond.Weighted>
-8.5980

> <Gold.Chemscore.Metal.Weighted>
-0.0000

> <Gold.Chemscore.Lipo.Weighted>
-10.9457

> <Gold.Chemscore.Internal_Hbond.Weighted>
0.0000

> <Gold.Chemscore.DEClash.Weighted>
0.1619

> <Gold.Chemscore.DEInternal.Weighted>
3.9846

> <Gold.Chemscore.Rot.Weighted>
5.3713

> <Gold.Chemscore.Internal.Correction.Weighted>
   9.000000E+99

> <Gold.Protein.RotatedTorsions>
[ 6907 6896 6895 6894 ] final -128.95 input  -60.11 | X-H torsion
[ 7974 7965 7964 7962 ] final   85.37 input  175.53 | X-H torsion
[ 8008 7997 7996 7995 ] final  -52.73 input   59.86 | X-H torsion
[ 10167 10162 10161 10158 ] final   41.65 input  -65.29 | X-H torsion
[ 10718 10713 10712 10709 ] final -157.86 input   66.30 | X-H torsion
[ 10763 10752 10751 10750 ] final   95.91 input  -60.55 | X-H torsion
[ 11005 11000 10999 10996 ] final  170.39 input  -57.11 | X-H torsion

> <Gold.Protein.ActiveResidues>
 VAL166  LYS551  ARG553  GLY616  TRP617  ASP618  TYR619  PRO620  LYS621  CYS622 
 ASP623  PHE694  ASN695  SER759  ASP760  ASP761  ALA762  ILE779  LEU786  VAL792 
 PHE793  MET794  SER795  GLU796  ALA797  LYS798  CYS799  TRP800  GLU811  SER814 

> <Gold.Protein.RotatedAtoms>
  150.9235  133.6852  159.2826 H   0  0  0  0  0  0  0  0  0  0  0  0  # atno 6907 bound_to 6896
  151.4299  135.1007  159.9649 H   0  0  0  0  0  0  0  0  0  0  0  0  # atno 6908 bound_to 6896
  152.4991  133.8667  159.7333 H   0  0  0  0  0  0  0  0  0  0  0  0  # atno 6909 bound_to 6896
  145.5864  139.2332  143.2324 H   0  0  0  0  0  0  0  0  0  0  0  0  # atno 7974 bound_to 7965
  154.4114  140.1217  156.5038 H   0  0  0  0  0  0  0  0  0  0  0  0  # atno 8008 bound_to 7997
  155.6868  140.3495  155.4858 H   0  0  0  0  0  0  0  0  0  0  0  0  # atno 8009 bound_to 7997
  155.9504  140.1104  157.0971 H   0  0  0  0  0  0  0  0  0  0  0  0  # atno 8010 bound_to 7997
  140.3622  144.2213  150.6137 H   0  0  0  0  0  0  0  0  0  0  0  0  # atno 10167 bound_to 10162
  156.5461  130.8585  151.2765 H   0  0  0  0  0  0  0  0  0  0  0  0  # atno 10718 bound_to 10713
  153.2587  135.4237  155.0872 H   0  0  0  0  0  0  0  0  0  0  0  0  # atno 10763 bound_to 10752
  154.8411  135.3443  154.6408 H   0  0  0  0  0  0  0  0  0  0  0  0  # atno 10764 bound_to 10752
  153.6829  135.7038  153.5170 H   0  0  0  0  0  0  0  0  0  0  0  0  # atno 10765 bound_to 10752
  140.3078  134.7541  157.3968 H   0  0  0  0  0  0  0  0  0  0  0  0  # atno 11005 bound_to 11000
  146.1679  140.6690  142.9247 LP  0  0  0  0  0  0  0  0  0  0  0  0  # atno 17320 bound_to 7965
  144.7371  140.4838  143.6896 LP  0  0  0  0  0  0  0  0  0  0  0  0  # atno 17321 bound_to 7965
  140.5116  143.2289  151.8527 LP  0  0  0  0  0  0  0  0  0  0  0  0  # atno 17342 bound_to 10162
  139.4813  144.4943  151.9144 LP  0  0  0  0  0  0  0  0  0  0  0  0  # atno 17343 bound_to 10162
  157.7396  130.9835  150.2326 LP  0  0  0  0  0  0  0  0  0  0  0  0  # atno 17370 bound_to 10713
  156.2927  130.3748  149.7826 LP  0  0  0  0  0  0  0  0  0  0  0  0  # atno 17371 bound_to 10713
  140.1051  134.5420  155.8317 LP  0  0  0  0  0  0  0  0  0  0  0  0  # atno 17394 bound_to 11000
  141.2114  133.6707  156.6584 LP  0  0  0  0  0  0  0  0  0  0  0  0  # atno 17395 bound_to 11000

$$$$
