AV-unprocessed.smi:1151|AV-procd|sdf|4896|dock6
  -GOLD-   22720 3473D 1   1.00000     0.00000
 Structure written by MMmdl.
 35 36  0  0  0  0  0  0  0  0  1 V2000
  153.0005  138.5438  154.6901 C   0  0  0  0  0  0  0  0  0  0  0  0
  151.6060  138.0257  154.7796 C   0  0  0  0  0  0  0  0  0  0  0  0
  151.2945  136.7289  154.7079 N   0  0  0  0  0  0  0  0  0  0  0  0
  149.9197  136.4991  154.8183 C   0  0  0  0  0  0  0  0  0  0  0  0
  149.3831  135.0986  154.7460 C   0  0  0  0  0  0  0  0  0  0  0  0
  147.8430  135.0258  154.7968 C   0  0  0  0  0  0  0  0  0  0  0  0
  147.2493  134.6541  153.5157 N   0  0  0  0  0  0  0  0  0  0  0  0
  146.3382  133.6856  153.3376 C   0  0  0  0  0  0  0  0  0  0  0  0
  145.9358  132.9623  154.2493 O   0  0  0  0  0  0  0  0  0  0  0  0
  145.7862  133.5229  151.9154 C   0  0  1  0  0  0  0  0  0  0  0  0
  146.1099  132.1325  151.3436 C   0  0  0  0  0  0  0  0  0  0  0  0
  145.5983  131.9970  149.9004 C   0  0  0  0  0  0  0  0  0  0  0  0
  144.1622  132.5077  149.7106 C   0  0  0  0  0  0  0  0  0  0  0  0
  143.5288  132.1728  148.7123 O   0  0  0  0  0  0  0  0  0  0  0  0
  143.6399  133.3426  150.6261 N   0  0  0  0  0  0  0  0  0  0  0  0
  144.2593  133.7436  151.8894 C   0  0  0  0  0  0  0  0  0  0  0  0
  149.1893  137.6509  154.9753 C   0  0  0  0  0  0  0  0  0  0  0  0
  150.2026  139.0672  154.9830 S   0  0  0  0  0  0  0  0  0  0  0  0
  153.7162  137.7614  154.9446 H   0  0  0  0  0  0  0  0  0  0  0  0
  153.1358  139.3766  155.3802 H   0  0  0  0  0  0  0  0  0  0  0  0
  153.2044  138.8905  153.6770 H   0  0  0  0  0  0  0  0  0  0  0  0
  149.7329  134.6114  153.8354 H   0  0  0  0  0  0  0  0  0  0  0  0
  149.7952  134.5083  155.5653 H   0  0  0  0  0  0  0  0  0  0  0  0
  147.5417  134.2696  155.5223 H   0  0  0  0  0  0  0  0  0  0  0  0
  147.4268  135.9719  155.1462 H   0  0  0  0  0  0  0  0  0  0  0  0
  147.5247  135.1999  152.7121 H   0  0  0  0  0  0  0  0  0  0  0  0
  146.2543  134.2707  151.2722 H   0  0  0  0  0  0  0  0  0  0  0  0
  147.1860  131.9546  151.3655 H   0  0  0  0  0  0  0  0  0  0  0  0
  145.6565  131.3544  151.9605 H   0  0  0  0  0  0  0  0  0  0  0  0
  146.2421  132.5685  149.2310 H   0  0  0  0  0  0  0  0  0  0  0  0
  145.6603  130.9567  149.5789 H   0  0  0  0  0  0  0  0  0  0  0  0
  142.7065  133.6882  150.4558 H   0  0  0  0  0  0  0  0  0  0  0  0
  143.7732  133.1770  152.6852 H   0  0  0  0  0  0  0  0  0  0  0  0
  144.0294  134.7942  152.0707 H   0  0  0  0  0  0  0  0  0  0  0  0
  148.1187  137.7506  155.0778 H   0  0  0  0  0  0  0  0  0  0  0  0
  1  2  1  0  0  0  0
  1 19  1  0  0  0  0
  1 20  1  0  0  0  0
  1 21  1  0  0  0  0
  2 18  1  0  0  0  0
  2  3  2  0  0  0  0
  3  4  1  0  0  0  0
  4  5  1  0  0  0  0
  4 17  2  0  0  0  0
  5  6  1  0  0  0  0
  5 22  1  0  0  0  0
  5 23  1  0  0  0  0
  6  7  1  0  0  0  0
  6 24  1  0  0  0  0
  6 25  1  0  0  0  0
  7  8  1  0  0  0  0
  7 26  1  0  0  0  0
  8  9  2  0  0  0  0
  8 10  1  0  0  0  0
 10 16  1  0  0  0  0
 10 11  1  0  0  0  0
 10 27  1  0  0  0  0
 11 12  1  0  0  0  0
 11 28  1  0  0  0  0
 11 29  1  0  0  0  0
 12 13  1  0  0  0  0
 12 30  1  0  0  0  0
 12 31  1  0  0  0  0
 13 14  2  0  0  0  0
 13 15  1  0  0  0  0
 15 16  1  0  0  0  0
 15 32  1  0  0  0  0
 16 33  1  0  0  0  0
 16 34  1  0  0  0  0
 17 18  1  0  0  0  0
 17 35  1  0  0  0  0
M  END
> <s_m_source_file>
AV-unprocessed.smi

> <i_m_source_file_index>
1151

> <i_lp_mmshare_version>
43012

> <i_f3d_flags>
0

> <s_epik_input>
W0NIM11jMW5jKFtjSF1zMSlbQ0gyXVtDSDJdW05IXUMoPU8pW0NAQEhdMltDSDJdW0NIMl1DKD1PKVtOSF1bQ0gyXTI=

> <s_epik_cmdline>
J2VwaWtfcHl0aG9uJywgJy1waCcsICc3LjAnLCAnLXRuJywgJzgnLCAnLW1hJywgJzIwMCcsICctbWV0YWxfYmluZGluZycsICctaW1hZScsICc8aW5maWxlLm1hZT4nLCAnLW9tYWUnLCAnPG91dGZpbGUubWFlPic=

> <r_epik_Ionization_Penalty>
0.00105008

> <r_epik_Ionization_Penalty_Charging>
0

> <r_epik_Ionization_Penalty_Neutral>
0.00105008

> <r_epik_State_Penalty>
0.000686749

> <r_epik_Charging_Adjusted_Penalty>
0.000686749

> <i_epik_Tot_Q>
0

> <i_epik_Tot_abs_Q>
0

> <r_epik_Metal_State_Penalty>
-0

> <b_epik_Metal_Only>
0

> <s_lp_Force_Field>
OPLS_2005

> <r_lp_Energy>
7.51238

> <b_lp_Chiralities_Consistent>
1

> <s_lp_Variant>
AV-unprocessed.smi:1151-2

> <Gold.Version>
5.8.1

> <Gold.Id.Protein>
6NUR|6NUR_protein|mol2

> <Gold.PLP.Fitness>
41.3191

> <Gold.PLP.PLP>
-31.1318

> <Gold.PLP.part.hbond>
-4.0000

> <Gold.PLP.part.metal>
0.0000

> <Gold.PLP.part.buried>
-4.8050

> <Gold.PLP.part.nonpolar>
-24.3633

> <Gold.PLP.part.repulsive>
0.5830

> <Gold.PLP.ligand.clash>
0.0000

> <Gold.PLP.ligand.torsion>
0.4053

> <Gold.PLP.Chemscore.Hbond>
3.6633

> <Gold.PLP.Chemscore.CHOScore>
0.0000

> <Gold.PLP.Chemscore.Metal>
0.0000

> <Gold.Chemscore.Hbonds>
donor molecule, donor type, donor heavy atom, donor atom, acceptor molecule, acceptor atom, score
      L1  H     7    26       P1  7948  0.93
      L1  H    15    32       P1 10186  0.93
      P1  H 10752 10764       L1     3  1.00
      P1  H 10785 10796       L1    14  0.74

> <Gold.PLP.Chemscore.Internal.Correction>
0.0081

> <Gold.Rescore>
     Score         DG    S(hbond)    S(metal)    S(lipo)     H(rot)  DE(clash)    DE(int)     intcor
     19.81     -20.49       3.38        0.00      69.00       1.70       0.27       0.41       ----

> <Gold.Chemscore.Fitness>
19.8098

> <Gold.Chemscore.DG>
-20.4928

> <Gold.Chemscore.ZeroCoef>
-5.4800

> <Gold.Chemscore.Hbond>
3.3791

> <Gold.Chemscore.Metal>
0.0000

> <Gold.Chemscore.Lipo>
69.0003

> <Gold.Chemscore.Internal_Hbond>
0.0000

> <Gold.Chemscore.DEClash>
0.2685

> <Gold.Chemscore.DEInternal>
0.4145

> <Gold.Chemscore.Rot>
1.6978

> <Gold.Chemscore.Internal.Correction>
   9.000000E+99

> <Gold.Chemscore.Hbonds>
donor molecule, donor type, donor heavy atom, donor atom, acceptor molecule, acceptor atom, score
      L1  H     7    26       P1  7948  0.89
      L1  H    15    32       P1 10186  0.87
      P1  H 10752 10764       L1     3  0.76
      P1  H 10785 10796       L1    14  0.52

> <Gold.Chemscore.Hbond.Weighted>
-11.2862

> <Gold.Chemscore.Metal.Weighted>
-0.0000

> <Gold.Chemscore.Lipo.Weighted>
-8.0730

> <Gold.Chemscore.Internal_Hbond.Weighted>
0.0000

> <Gold.Chemscore.DEClash.Weighted>
0.2685

> <Gold.Chemscore.DEInternal.Weighted>
0.4145

> <Gold.Chemscore.Rot.Weighted>
4.3463

> <Gold.Chemscore.Internal.Correction.Weighted>
   9.000000E+99

> <Gold.Protein.RotatedTorsions>
[ 6907 6896 6895 6894 ] final   80.91 input  -60.11 | X-H torsion
[ 7974 7965 7964 7962 ] final  -36.46 input  175.53 | X-H torsion
[ 8008 7997 7996 7995 ] final  -61.12 input   59.86 | X-H torsion
[ 10167 10162 10161 10158 ] final  -26.00 input  -65.29 | X-H torsion
[ 10718 10713 10712 10709 ] final   17.47 input   66.30 | X-H torsion
[ 10763 10752 10751 10750 ] final  -60.55 input  -60.55 | X-H torsion
[ 11005 11000 10999 10996 ] final  -94.01 input  -57.11 | X-H torsion

> <Gold.Protein.ActiveResidues>
 VAL166  LYS551  ARG553  GLY616  TRP617  ASP618  TYR619  PRO620  LYS621  CYS622 
 ASP623  PHE694  ASN695  SER759  ASP760  ASP761  ALA762  ILE779  LEU786  VAL792 
 PHE793  MET794  SER795  GLU796  ALA797  LYS798  CYS799  TRP800  GLU811  SER814 

> <Gold.Protein.RotatedAtoms>
  152.5251  134.3285  159.9174 H   0  0  0  0  0  0  0  0  0  0  0  0  # atno 6907 bound_to 6896
  151.3234  133.4024  159.2664 H   0  0  0  0  0  0  0  0  0  0  0  0  # atno 6908 bound_to 6896
  150.9940  134.9285  159.7973 H   0  0  0  0  0  0  0  0  0  0  0  0  # atno 6909 bound_to 6896
  146.0660  140.6281  142.8975 H   0  0  0  0  0  0  0  0  0  0  0  0  # atno 7974 bound_to 7965
  154.4432  140.1024  156.6381 H   0  0  0  0  0  0  0  0  0  0  0  0  # atno 8008 bound_to 7997
  155.5531  140.3486  155.4455 H   0  0  0  0  0  0  0  0  0  0  0  0  # atno 8009 bound_to 7997
  156.0514  140.1305  157.0035 H   0  0  0  0  0  0  0  0  0  0  0  0  # atno 8010 bound_to 7997
  140.7284  143.4216  151.0942 H   0  0  0  0  0  0  0  0  0  0  0  0  # atno 10167 bound_to 10162
  157.0826  130.6394  149.5830 H   0  0  0  0  0  0  0  0  0  0  0  0  # atno 10718 bound_to 10713
  154.2709  135.6290  153.5310 H   0  0  0  0  0  0  0  0  0  0  0  0  # atno 10763 bound_to 10752
  152.9880  135.5610  154.5601 H   0  0  0  0  0  0  0  0  0  0  0  0  # atno 10764 bound_to 10752
  154.5171  135.2880  155.1269 H   0  0  0  0  0  0  0  0  0  0  0  0  # atno 10765 bound_to 10752
  141.1482  133.7927  157.0239 H   0  0  0  0  0  0  0  0  0  0  0  0  # atno 11005 bound_to 11000
  144.7202  140.4349  143.7013 LP  0  0  0  0  0  0  0  0  0  0  0  0  # atno 17320 bound_to 7965
  145.6477  139.1560  143.2880 LP  0  0  0  0  0  0  0  0  0  0  0  0  # atno 17321 bound_to 7965
  139.7862  143.8284  152.3145 LP  0  0  0  0  0  0  0  0  0  0  0  0  # atno 17342 bound_to 10162
  139.8252  144.7278  150.9521 LP  0  0  0  0  0  0  0  0  0  0  0  0  # atno 17343 bound_to 10162
  155.9919  130.4976  150.7320 LP  0  0  0  0  0  0  0  0  0  0  0  0  # atno 17370 bound_to 10713
  157.4788  131.0900  151.0560 LP  0  0  0  0  0  0  0  0  0  0  0  0  # atno 17371 bound_to 10713
  140.0798  134.9655  157.1605 LP  0  0  0  0  0  0  0  0  0  0  0  0  # atno 17394 bound_to 11000
  140.3593  134.2512  155.7189 LP  0  0  0  0  0  0  0  0  0  0  0  0  # atno 17395 bound_to 11000

$$$$
