AV-unprocessed.smi:1013|AV-procd|sdf|4427|dock8
  -GOLD-   22720 2383D 1   1.00000     0.00000
 Structure written by MMmdl.
 30 31  0  0  0  0  0  0  0  0  3 V2000
  151.9548  137.2586  155.2945 O   0  0  0  0  0  0  0  0  0  0  0  0
  152.0822  138.2599  156.0324 C   0  0  0  0  0  0  0  0  0  0  0  0
  153.0875  138.5131  156.7348 O   0  5  0  0  0  0  0  0  0  0  0  0
  150.9146  139.2608  156.0612 C   0  0  1  0  0  0  0  0  0  0  0  0
  151.4524  140.7001  155.8786 C   0  0  0  0  0  0  0  0  0  0  0  0
  150.9929  141.6216  156.9056 N   0  0  0  0  0  0  0  0  0  0  0  0
  149.6956  141.9063  157.2738 C   0  0  0  0  0  0  0  0  0  0  0  0
  149.7496  142.8511  158.2578 C   0  0  0  0  0  0  0  0  0  0  0  0
  151.1427  143.1028  158.4208 C   0  0  0  0  0  0  0  0  0  0  0  0
  151.8156  144.0598  159.3694 C   0  0  0  0  0  0  0  0  0  0  0  0
  150.9015  144.6844  160.1115 F   0  0  0  0  0  0  0  0  0  0  0  0
  152.6478  143.4020  160.1765 F   0  0  0  0  0  0  0  0  0  0  0  0
  152.5114  144.9651  158.6815 F   0  0  0  0  0  0  0  0  0  0  0  0
  151.8796  142.3667  157.6001 N   0  0  0  0  0  0  0  0  0  0  0  0
  149.9438  138.9249  154.9946 N   0  3  0  0  0  0  0  0  0  0  0  0
  148.6872  139.7018  155.0322 C   0  0  0  0  0  0  0  0  0  0  0  0
  147.9067  139.6757  153.7402 C   0  0  0  0  0  0  0  0  0  0  0  0
  148.7110  140.9015  154.1168 C   0  0  0  0  0  0  0  0  0  0  0  0
  150.4073  139.1962  157.0263 H   0  0  0  0  0  0  0  0  0  0  0  0
  152.5434  140.6996  155.8964 H   0  0  0  0  0  0  0  0  0  0  0  0
  151.1577  141.1024  154.9078 H   0  0  0  0  0  0  0  0  0  0  0  0
  148.8503  141.4178  156.8116 H   0  0  0  0  0  0  0  0  0  0  0  0
  148.9178  143.3010  158.7793 H   0  0  0  0  0  0  0  0  0  0  0  0
  150.3909  139.1144  154.1096 H   0  0  0  0  0  0  0  0  0  0  0  0
  148.1911  139.7788  155.9981 H   0  0  0  0  0  0  0  0  0  0  0  0
  148.2808  139.0564  152.9267 H   0  0  0  0  0  0  0  0  0  0  0  0
  146.8230  139.7463  153.8093 H   0  0  0  0  0  0  0  0  0  0  0  0
  148.1556  141.7837  154.4287 H   0  0  0  0  0  0  0  0  0  0  0  0
  149.6185  141.1001  153.5494 H   0  0  0  0  0  0  0  0  0  0  0  0
  149.7333  137.9387  155.0509 H   0  0  0  0  0  0  0  0  0  0  0  0
  1  2  2  0  0  0  0
  2  3  1  0  0  0  0
  2  4  1  0  0  0  0
  4  5  1  0  0  0  0
  4 15  1  0  0  0  0
  4 19  1  0  0  0  0
  5  6  1  0  0  0  0
  5 20  1  0  0  0  0
  5 21  1  0  0  0  0
  6 14  1  0  0  0  0
  6  7  1  0  0  0  0
  7  8  2  0  0  0  0
  7 22  1  0  0  0  0
  8  9  1  0  0  0  0
  8 23  1  0  0  0  0
  9 10  1  0  0  0  0
  9 14  2  0  0  0  0
 10 11  1  0  0  0  0
 10 12  1  0  0  0  0
 10 13  1  0  0  0  0
 15 16  1  0  0  0  0
 15 24  1  0  0  0  0
 15 30  1  0  0  0  0
 16 18  1  0  0  0  0
 16 17  1  0  0  0  0
 16 25  1  0  0  0  0
 17 18  1  0  0  0  0
 17 26  1  0  0  0  0
 17 27  1  0  0  0  0
 18 28  1  0  0  0  0
 18 29  1  0  0  0  0
M  CHG  1   3  -1
M  CHG  1  15   1
M  END
> <s_m_source_file>
AV-unprocessed.smi

> <i_m_source_file_index>
1013

> <i_lp_mmshare_version>
43012

> <i_f3d_flags>
0

> <s_epik_input>
W0NIMl0xW0NIMl1bQ0hdMVtOSF1bQ0BIXShDKD1PKVtPSF0pW0NIMl1uMltjSF1bY0hdYyhuMilDKEYpKEYpRg==

> <s_epik_cmdline>
J2VwaWtfcHl0aG9uJywgJy1waCcsICc3LjAnLCAnLXRuJywgJzgnLCAnLW1hJywgJzIwMCcsICctbWV0YWxfYmluZGluZycsICctaW1hZScsICc8aW5maWxlLm1hZT4nLCAnLW9tYWUnLCAnPG91dGZpbGUubWFlPic=

> <r_lp_tautomer_probability>
1

> <r_epik_Ionization_Penalty>
0.183175

> <r_epik_Ionization_Penalty_Charging>
0.183175

> <r_epik_Ionization_Penalty_Neutral>
3.57035e-11

> <r_epik_State_Penalty>
0.172705

> <r_epik_Charging_Adjusted_Penalty>
0.35588

> <i_epik_Tot_Q>
0

> <i_epik_Tot_abs_Q>
2

> <r_epik_Metal_State_Penalty>
0.172705

> <b_epik_Metal_Only>
0

> <s_lp_Force_Field>
OPLS_2005

> <r_lp_Energy>
10.483

> <b_lp_Chiralities_Consistent>
1

> <s_lp_Variant>
AV-unprocessed.smi:1013-2

> <Gold.Version>
5.8.1

> <Gold.Id.Protein>
6NUR|6NUR_protein|mol2

> <Gold.PLP.Fitness>
43.6775

> <Gold.PLP.PLP>
-34.0036

> <Gold.PLP.part.hbond>
-2.0000

> <Gold.PLP.part.metal>
0.0000

> <Gold.PLP.part.buried>
-1.7986

> <Gold.PLP.part.nonpolar>
-30.1413

> <Gold.PLP.part.repulsive>
0.1501

> <Gold.PLP.ligand.clash>
0.0000

> <Gold.PLP.ligand.torsion>
1.3203

> <Gold.PLP.Chemscore.Hbond>
3.8560

> <Gold.PLP.Chemscore.CHOScore>
0.0000

> <Gold.PLP.Chemscore.Metal>
0.0000

> <Gold.Chemscore.Hbonds>
donor molecule, donor type, donor heavy atom, donor atom, acceptor molecule, acceptor atom, score
      P1  H  7997  8008       L1     3  1.98
      P1  H 10752 10765       L1     1  1.81

> <Gold.PLP.Chemscore.Internal.Correction>
0.7465

> <Gold.Rescore>
     Score         DG    S(hbond)    S(metal)    S(lipo)     H(rot)  DE(clash)    DE(int)     intcor
      9.75     -12.02       1.79        0.00      61.70       2.60       0.98       1.30       ----

> <Gold.Chemscore.Fitness>
9.7463

> <Gold.Chemscore.DG>
-12.0249

> <Gold.Chemscore.ZeroCoef>
-5.4800

> <Gold.Chemscore.Hbond>
1.7888

> <Gold.Chemscore.Metal>
0.0000

> <Gold.Chemscore.Lipo>
61.6991

> <Gold.Chemscore.Internal_Hbond>
0.0000

> <Gold.Chemscore.DEClash>
0.9765

> <Gold.Chemscore.DEInternal>
1.3021

> <Gold.Chemscore.Rot>
2.5970

> <Gold.Chemscore.Internal.Correction>
   9.000000E+99

> <Gold.Chemscore.Hbonds>
donor molecule, donor type, donor heavy atom, donor atom, acceptor molecule, acceptor atom, score
      P1  H  7997  8008       L1     3  0.89
      P1  H 10752 10765       L1     1  0.83

> <Gold.Chemscore.Hbond.Weighted>
-5.9745

> <Gold.Chemscore.Metal.Weighted>
-0.0000

> <Gold.Chemscore.Lipo.Weighted>
-7.2188

> <Gold.Chemscore.Internal_Hbond.Weighted>
0.0000

> <Gold.Chemscore.DEClash.Weighted>
0.9765

> <Gold.Chemscore.DEInternal.Weighted>
1.3021

> <Gold.Chemscore.Rot.Weighted>
6.6484

> <Gold.Chemscore.Internal.Correction.Weighted>
   9.000000E+99

> <Gold.Protein.RotatedTorsions>
[ 6907 6896 6895 6894 ] final  -16.43 input  -60.11 | X-H torsion
[ 7974 7965 7964 7962 ] final -157.27 input  175.53 | X-H torsion
[ 8008 7997 7996 7995 ] final  -66.80 input   59.86 | X-H torsion
[ 10167 10162 10161 10158 ] final  -57.41 input  -65.29 | X-H torsion
[ 10718 10713 10712 10709 ] final  162.63 input   66.30 | X-H torsion
[ 10763 10752 10751 10750 ] final -172.97 input  -60.55 | X-H torsion
[ 11005 11000 10999 10996 ] final  -59.30 input  -57.11 | X-H torsion

> <Gold.Protein.ActiveResidues>
 VAL166  LYS551  ARG553  GLY616  TRP617  ASP618  TYR619  PRO620  LYS621  CYS622 
 ASP623  PHE694  ASN695  SER759  ASP760  ASP761  ALA762  ILE779  LEU786  VAL792 
 PHE793  MET794  SER795  GLU796  ALA797  LYS798  CYS799  TRP800  GLU811  SER814 

> <Gold.Protein.RotatedAtoms>
  151.3087  135.0788  159.9264 H   0  0  0  0  0  0  0  0  0  0  0  0  # atno 6907 bound_to 6896
  152.5282  133.9758  159.7794 H   0  0  0  0  0  0  0  0  0  0  0  0  # atno 6908 bound_to 6896
  151.0058  133.5961  159.2719 H   0  0  0  0  0  0  0  0  0  0  0  0  # atno 6909 bound_to 6896
  144.7556  140.3993  143.6015 H   0  0  0  0  0  0  0  0  0  0  0  0  # atno 7974 bound_to 7965
  154.4758  140.0905  156.7258 H   0  0  0  0  0  0  0  0  0  0  0  0  # atno 8008 bound_to 7997
  155.4601  140.3460  155.4293 H   0  0  0  0  0  0  0  0  0  0  0  0  # atno 8009 bound_to 7997
  156.1114  140.1448  156.9322 H   0  0  0  0  0  0  0  0  0  0  0  0  # atno 8010 bound_to 7997
  140.6259  143.2438  151.5364 H   0  0  0  0  0  0  0  0  0  0  0  0  # atno 10167 bound_to 10162
  157.1198  131.0489  151.2420 H   0  0  0  0  0  0  0  0  0  0  0  0  # atno 10718 bound_to 10713
  154.6132  135.2867  155.0409 H   0  0  0  0  0  0  0  0  0  0  0  0  # atno 10763 bound_to 10752
  154.1631  135.6485  153.4994 H   0  0  0  0  0  0  0  0  0  0  0  0  # atno 10764 bound_to 10752
  153.0204  135.5383  154.6893 H   0  0  0  0  0  0  0  0  0  0  0  0  # atno 10765 bound_to 10752
  141.1243  133.6616  156.5051 H   0  0  0  0  0  0  0  0  0  0  0  0  # atno 11005 bound_to 11000
  145.6792  139.1615  143.2710 LP  0  0  0  0  0  0  0  0  0  0  0  0  # atno 17320 bound_to 7965
  146.1561  140.6855  142.9299 LP  0  0  0  0  0  0  0  0  0  0  0  0  # atno 17321 bound_to 7965
  139.5480  144.2471  152.1478 LP  0  0  0  0  0  0  0  0  0  0  0  0  # atno 17342 bound_to 10162
  140.1702  144.4943  150.6584 LP  0  0  0  0  0  0  0  0  0  0  0  0  # atno 17343 bound_to 10162
  157.4486  130.7585  149.7131 LP  0  0  0  0  0  0  0  0  0  0  0  0  # atno 17370 bound_to 10713
  155.9831  130.4003  150.3381 LP  0  0  0  0  0  0  0  0  0  0  0  0  # atno 17371 bound_to 10713
  140.4414  134.7012  157.4993 LP  0  0  0  0  0  0  0  0  0  0  0  0  # atno 17394 bound_to 11000
  140.0226  134.6524  155.9217 LP  0  0  0  0  0  0  0  0  0  0  0  0  # atno 17395 bound_to 11000

$$$$
