AV-unprocessed.smi:166|AV-procd|sdf|1389|dock6
  -GOLD-   2262019123D 1   1.00000     0.00000
 Structure written by MMmdl.
 54 58  0  0  0  0  0  0  0  0  1 V2000
  146.4898  140.6072  153.2269 O   0  0  0  0  0  0  0  0  0  0  0  0
  147.0997  141.1321  154.3939 C   0  0  2  0  0  0  0  0  0  0  0  0
  148.6019  141.3758  154.1158 C   0  0  0  0  0  0  0  0  0  0  0  0
  149.4265  141.3887  155.3151 N   0  0  0  0  0  0  0  0  0  0  0  0
  149.2455  142.1779  156.4289 C   0  0  0  0  0  0  0  0  0  0  0  0
  150.1274  142.0153  157.3766 N   0  0  0  0  0  0  0  0  0  0  0  0
  150.9888  141.0459  156.8768 C   0  0  0  0  0  0  0  0  0  0  0  0
  152.1636  140.4137  157.3733 C   0  0  0  0  0  0  0  0  0  0  0  0
  152.6845  140.6927  158.5950 N   0  0  0  0  0  0  0  0  0  0  0  0
  151.8372  141.5232  159.4497 C   0  0  0  0  0  0  0  0  0  0  0  0
  152.6533  142.1319  160.6013 C   0  0  0  0  0  0  0  0  0  0  0  0
  153.4013  141.0402  161.3811 C   0  0  0  0  0  0  0  0  0  0  0  0
  154.2739  140.2028  160.4316 C   0  0  1  0  0  0  0  0  0  0  0  0
  154.8663  139.1647  161.2003 O   0  0  0  0  0  0  0  0  0  0  0  0
  153.9602  138.1564  161.6287 C   0  0  0  0  0  0  0  0  0  0  0  0
  154.6303  137.1869  162.5851 C   0  0  0  0  0  0  0  0  0  0  0  0
  153.8557  136.5497  163.7205 C   0  0  0  0  0  0  0  0  0  0  0  0
  154.9133  137.5771  164.0214 C   0  0  0  0  0  0  0  0  0  0  0  0
  153.4162  139.6282  159.2843 C   0  0  0  0  0  0  0  0  0  0  0  0
  152.7706  139.5014  156.5677 N   0  0  0  0  0  0  0  0  0  0  0  0
  152.2639  139.2213  155.3633 C   0  0  0  0  0  0  0  0  0  0  0  0
  151.1798  139.7304  154.7751 N   0  0  0  0  0  0  0  0  0  0  0  0
  150.5668  140.6481  155.5763 C   0  0  0  0  0  0  0  0  0  0  0  0
  146.8643  140.1511  155.5364 C   0  0  0  0  0  0  0  0  0  0  0  0
  145.5318  140.6136  156.1097 C   0  0  0  0  0  0  0  0  0  0  0  0
  145.6369  142.0253  156.0457 O   0  0  0  0  0  0  0  0  0  0  0  0
  146.3094  142.3802  154.8412 C   0  0  0  0  0  0  0  0  0  0  0  0
  145.5575  140.7468  153.2891 H   0  0  0  0  0  0  0  0  0  0  0  0
  148.9876  140.6090  153.4427 H   0  0  0  0  0  0  0  0  0  0  0  0
  148.7379  142.3277  153.6008 H   0  0  0  0  0  0  0  0  0  0  0  0
  148.4322  142.8838  156.5172 H   0  0  0  0  0  0  0  0  0  0  0  0
  151.3604  142.3229  158.8839 H   0  0  0  0  0  0  0  0  0  0  0  0
  151.0340  140.9038  159.8512 H   0  0  0  0  0  0  0  0  0  0  0  0
  153.3687  142.8510  160.2006 H   0  0  0  0  0  0  0  0  0  0  0  0
  151.9965  142.6873  161.2710 H   0  0  0  0  0  0  0  0  0  0  0  0
  154.0184  141.4916  162.1586 H   0  0  0  0  0  0  0  0  0  0  0  0
  152.6824  140.3950  161.8880 H   0  0  0  0  0  0  0  0  0  0  0  0
  155.0519  140.8496  160.0217 H   0  0  0  0  0  0  0  0  0  0  0  0
  153.1004  138.5975  162.1325 H   0  0  0  0  0  0  0  0  0  0  0  0
  153.5893  137.5943  160.7706 H   0  0  0  0  0  0  0  0  0  0  0  0
  155.3803  136.5574  162.1099 H   0  0  0  0  0  0  0  0  0  0  0  0
  152.8170  136.8423  163.8617 H   0  0  0  0  0  0  0  0  0  0  0  0
  154.0813  135.5125  163.9599 H   0  0  0  0  0  0  0  0  0  0  0  0
  155.8439  137.2247  164.4616 H   0  0  0  0  0  0  0  0  0  0  0  0
  154.5804  138.5553  164.3627 H   0  0  0  0  0  0  0  0  0  0  0  0
  152.7050  138.9013  159.6790 H   0  0  0  0  0  0  0  0  0  0  0  0
  154.0524  139.1047  158.5701 H   0  0  0  0  0  0  0  0  0  0  0  0
  152.8051  138.4843  154.7885 H   0  0  0  0  0  0  0  0  0  0  0  0
  146.8581  139.1057  155.2252 H   0  0  0  0  0  0  0  0  0  0  0  0
  147.6360  140.2652  156.2990 H   0  0  0  0  0  0  0  0  0  0  0  0
  144.6988  140.2779  155.4899 H   0  0  0  0  0  0  0  0  0  0  0  0
  145.3663  140.2673  157.1300 H   0  0  0  0  0  0  0  0  0  0  0  0
  146.9569  143.2294  155.0546 H   0  0  0  0  0  0  0  0  0  0  0  0
  145.5859  142.7022  154.0908 H   0  0  0  0  0  0  0  0  0  0  0  0
  1  2  1  0  0  0  0
  1 28  1  0  0  0  0
  2 27  1  0  0  0  0
  2  3  1  0  0  0  0
  2 24  1  0  0  0  0
  3  4  1  0  0  0  0
  3 29  1  0  0  0  0
  3 30  1  0  0  0  0
  4 23  1  0  0  0  0
  4  5  1  0  0  0  0
  5  6  2  0  0  0  0
  5 31  1  0  0  0  0
  6  7  1  0  0  0  0
  7 23  2  0  0  0  0
  7  8  1  0  0  0  0
  8  9  1  0  0  0  0
  8 20  2  0  0  0  0
  9 19  1  0  0  0  0
  9 10  1  0  0  0  0
 10 11  1  0  0  0  0
 10 32  1  0  0  0  0
 10 33  1  0  0  0  0
 11 12  1  0  0  0  0
 11 34  1  0  0  0  0
 11 35  1  0  0  0  0
 12 13  1  0  0  0  0
 12 36  1  0  0  0  0
 12 37  1  0  0  0  0
 13 14  1  0  0  0  0
 13 19  1  0  0  0  0
 13 38  1  0  0  0  0
 14 15  1  0  0  0  0
 15 16  1  0  0  0  0
 15 39  1  0  0  0  0
 15 40  1  0  0  0  0
 16 18  1  0  0  0  0
 16 17  1  0  0  0  0
 16 41  1  0  0  0  0
 17 18  1  0  0  0  0
 17 42  1  0  0  0  0
 17 43  1  0  0  0  0
 18 44  1  0  0  0  0
 18 45  1  0  0  0  0
 19 46  1  0  0  0  0
 19 47  1  0  0  0  0
 20 21  1  0  0  0  0
 21 22  2  0  0  0  0
 21 48  1  0  0  0  0
 22 23  1  0  0  0  0
 24 25  1  0  0  0  0
 24 49  1  0  0  0  0
 24 50  1  0  0  0  0
 25 26  1  0  0  0  0
 25 51  1  0  0  0  0
 25 52  1  0  0  0  0
 26 27  1  0  0  0  0
 27 53  1  0  0  0  0
 27 54  1  0  0  0  0
M  END
> <s_m_source_file>
AV-unprocessed.smi

> <i_m_source_file_index>
166

> <i_lp_mmshare_version>
43012

> <i_f3d_flags>
0

> <s_epik_input>
W0NIMl0xT1tDSDJdW0NIMl1bQ0BAXTEoW09IXSlbQ0gyXW4oW2NIXW4yKWMoYzIzKW5bY0hdbmMzTjRbQ0gyXVtDSDJdW0NIMl1bQ0BIXShbQ0gyXTQpT1tDSDJdW0NIXTVbQ0gyXVtDSDJdNQ==

> <s_epik_cmdline>
J2VwaWtfcHl0aG9uJywgJy1waCcsICc3LjAnLCAnLXRuJywgJzgnLCAnLW1hJywgJzIwMCcsICctbWV0YWxfYmluZGluZycsICctaW1hZScsICc8aW5maWxlLm1hZT4nLCAnLW9tYWUnLCAnPG91dGZpbGUubWFlPic=

> <r_lp_tautomer_probability>
1

> <r_epik_Ionization_Penalty>
0.00342552

> <r_epik_Ionization_Penalty_Charging>
0

> <r_epik_Ionization_Penalty_Neutral>
0.00342552

> <r_epik_State_Penalty>
0.0022204

> <r_epik_Charging_Adjusted_Penalty>
0.0022204

> <i_epik_Tot_Q>
0

> <i_epik_Tot_abs_Q>
0

> <r_epik_Metal_State_Penalty>
-0

> <b_epik_Metal_Only>
0

> <s_lp_Force_Field>
OPLS_2005

> <r_lp_Energy>
44.6649

> <b_lp_Chiralities_Consistent>
1

> <s_lp_Variant>
AV-unprocessed.smi:166-2

> <Gold.Version>
5.8.1

> <Gold.Id.Protein>
6NUR|6NUR_protein|mol2

> <Gold.PLP.Fitness>
54.7291

> <Gold.PLP.PLP>
-46.8483

> <Gold.PLP.part.hbond>
-3.0164

> <Gold.PLP.part.metal>
0.0000

> <Gold.PLP.part.buried>
-2.5607

> <Gold.PLP.part.nonpolar>
-41.4738

> <Gold.PLP.part.repulsive>
0.2655

> <Gold.PLP.ligand.clash>
0.6570

> <Gold.PLP.ligand.torsion>
1.1994

> <Gold.PLP.Chemscore.Hbond>
2.6590

> <Gold.PLP.Chemscore.CHOScore>
0.6627

> <Gold.PLP.Chemscore.Metal>
0.0000

> <Gold.Chemscore.Hbonds>
donor molecule, donor type, donor heavy atom, donor atom, acceptor molecule, acceptor atom, score
      L1  H     1    28       P1 10175  0.92
      P1  H  7989  7998       L1    22  0.85
      P1  H  7997  8009       L1    20  1.00
      L1  C     5    31       P1  8028  0.67

> <Gold.PLP.Chemscore.Internal.Correction>
0.9715

> <Gold.Rescore>
     Score         DG    S(hbond)    S(metal)    S(lipo)     H(rot)  DE(clash)    DE(int)     intcor
     12.96     -16.64       1.93        0.00      99.06       2.68       1.24       2.44       ----

> <Gold.Chemscore.Fitness>
12.9640

> <Gold.Chemscore.DG>
-16.6420

> <Gold.Chemscore.ZeroCoef>
-5.4800

> <Gold.Chemscore.Hbond>
1.9273

> <Gold.Chemscore.Metal>
0.0000

> <Gold.Chemscore.Lipo>
99.0603

> <Gold.Chemscore.Internal_Hbond>
0.0000

> <Gold.Chemscore.DEClash>
1.2360

> <Gold.Chemscore.DEInternal>
2.4420

> <Gold.Chemscore.Rot>
2.6817

> <Gold.Chemscore.Internal.Correction>
   9.000000E+99

> <Gold.Chemscore.Hbonds>
donor molecule, donor type, donor heavy atom, donor atom, acceptor molecule, acceptor atom, score
      L1  H     1    28       P1 10175  0.66
      P1  H  7989  7998       L1    22  0.11
      P1  H  7997  8009       L1    20  0.20

> <Gold.Chemscore.Hbond.Weighted>
-6.4370

> <Gold.Chemscore.Metal.Weighted>
-0.0000

> <Gold.Chemscore.Lipo.Weighted>
-11.5901

> <Gold.Chemscore.Internal_Hbond.Weighted>
0.0000

> <Gold.Chemscore.DEClash.Weighted>
1.2360

> <Gold.Chemscore.DEInternal.Weighted>
2.4420

> <Gold.Chemscore.Rot.Weighted>
6.8651

> <Gold.Chemscore.Internal.Correction.Weighted>
   9.000000E+99

> <Gold.Protein.RotatedTorsions>
[ 6907 6896 6895 6894 ] final  -51.12 input  -60.11 | X-H torsion
[ 7974 7965 7964 7962 ] final   59.31 input  175.53 | X-H torsion
[ 8008 7997 7996 7995 ] final -149.84 input   59.86 | X-H torsion
[ 10167 10162 10161 10158 ] final -168.39 input  -65.29 | X-H torsion
[ 10718 10713 10712 10709 ] final  105.42 input   66.30 | X-H torsion
[ 10763 10752 10751 10750 ] final   10.80 input  -60.55 | X-H torsion
[ 11005 11000 10999 10996 ] final  -72.02 input  -57.11 | X-H torsion

> <Gold.Protein.ActiveResidues>
 VAL166  LYS551  ARG553  GLY616  TRP617  ASP618  TYR619  PRO620  LYS621  CYS622 
 ASP623  PHE694  ASN695  SER759  ASP760  ASP761  ALA762  ILE779  LEU786  VAL792 
 PHE793  MET794  SER795  GLU796  ALA797  LYS798  CYS799  TRP800  GLU811  SER814 

> <Gold.Protein.RotatedAtoms>
  150.8641  134.8001  159.7105 H   0  0  0  0  0  0  0  0  0  0  0  0  # atno 6907 bound_to 6896
  152.4669  134.5052  159.9746 H   0  0  0  0  0  0  0  0  0  0  0  0  # atno 6908 bound_to 6896
  151.5150  133.3439  159.2927 H   0  0  0  0  0  0  0  0  0  0  0  0  # atno 6909 bound_to 6896
  145.9085  139.3636  143.0549 H   0  0  0  0  0  0  0  0  0  0  0  0  # atno 7974 bound_to 7965
  155.6141  140.0674  157.2697 H   0  0  0  0  0  0  0  0  0  0  0  0  # atno 8008 bound_to 7997
  154.4246  140.1796  156.1351 H   0  0  0  0  0  0  0  0  0  0  0  0  # atno 8009 bound_to 7997
  156.0062  140.3331  155.6898 H   0  0  0  0  0  0  0  0  0  0  0  0  # atno 8010 bound_to 7997
  139.5988  144.1055  152.1719 H   0  0  0  0  0  0  0  0  0  0  0  0  # atno 10167 bound_to 10162
  157.6706  131.0827  150.5854 H   0  0  0  0  0  0  0  0  0  0  0  0  # atno 10718 bound_to 10713
  153.1993  135.6854  153.8251 H   0  0  0  0  0  0  0  0  0  0  0  0  # atno 10763 bound_to 10752
  153.7523  135.3222  155.3324 H   0  0  0  0  0  0  0  0  0  0  0  0  # atno 10764 bound_to 10752
  154.8162  135.4684  154.0752 H   0  0  0  0  0  0  0  0  0  0  0  0  # atno 10765 bound_to 10752
  141.1602  133.6834  156.6995 H   0  0  0  0  0  0  0  0  0  0  0  0  # atno 11005 bound_to 11000
  145.8701  140.9425  143.0655 LP  0  0  0  0  0  0  0  0  0  0  0  0  # atno 17320 bound_to 7965
  144.6741  140.0643  143.7475 LP  0  0  0  0  0  0  0  0  0  0  0  0  # atno 17321 bound_to 7965
  140.0646  144.5829  150.7237 LP  0  0  0  0  0  0  0  0  0  0  0  0  # atno 17342 bound_to 10162
  140.7233  143.2610  151.4205 LP  0  0  0  0  0  0  0  0  0  0  0  0  # atno 17343 bound_to 10162
  156.6155  130.4391  149.5842 LP  0  0  0  0  0  0  0  0  0  0  0  0  # atno 17370 bound_to 10713
  156.2397  130.6844  151.1543 LP  0  0  0  0  0  0  0  0  0  0  0  0  # atno 17371 bound_to 10713
  140.2969  134.8195  157.4065 LP  0  0  0  0  0  0  0  0  0  0  0  0  # atno 17394 bound_to 11000
  140.1296  134.5112  155.8116 LP  0  0  0  0  0  0  0  0  0  0  0  0  # atno 17395 bound_to 11000

$$$$
