AV-unprocessed.smi:3285|AV-procd|sdf|12587|dock9
  -GOLD-   2272018513D 1   1.00000     0.00000
 Structure written by MMmdl.
 45 46  0  0  0  0  0  0  0  0  2 V2000
  146.9521  140.6942  153.8411 C   0  0  0  0  0  0  0  0  0  0  0  0
  148.2501  139.9727  154.0640 C   0  0  0  0  0  0  0  0  0  0  0  0
  148.3483  138.6912  153.7531 N   0  0  0  0  0  0  0  0  0  0  0  0
  149.6575  138.3187  154.0718 O   0  0  0  0  0  0  0  0  0  0  0  0
  150.3048  139.4042  154.5661 C   0  0  0  0  0  0  0  0  0  0  0  0
  151.7278  139.2095  154.9677 C   0  0  0  0  0  0  0  0  0  0  0  0
  149.4703  140.4878  154.5880 C   0  0  0  0  0  0  0  0  0  0  0  0
  149.7619  141.8900  155.0493 C   0  0  0  0  0  0  0  0  0  0  0  0
  150.7626  141.9019  156.2121 C   0  0  0  0  0  0  0  0  0  0  0  0
  151.0060  143.2801  156.6863 N   0  3  0  0  0  0  0  0  0  0  0  0
  151.8004  143.3892  157.9299 C   0  0  1  0  0  0  0  0  0  0  0  0
  151.4114  144.6743  158.6821 C   0  0  0  0  0  0  0  0  0  0  0  0
  152.1789  144.8145  160.0060 C   0  0  0  0  0  0  0  0  0  0  0  0
  151.9735  143.5814  160.9073 C   0  0  2  0  0  0  0  0  0  0  0  0
  152.6636  143.7482  162.2711 C   0  0  0  0  0  0  0  0  0  0  0  0
  152.3629  142.2710  160.1763 C   0  0  2  0  0  0  0  0  0  0  0  0
  153.8813  142.0836  159.9805 C   0  0  0  0  0  0  0  0  0  0  0  0
  151.5984  142.1565  158.8400 C   0  0  0  0  0  0  0  0  0  0  0  0
  147.0673  141.4792  153.0940 H   0  0  0  0  0  0  0  0  0  0  0  0
  146.6023  141.1606  154.7621 H   0  0  0  0  0  0  0  0  0  0  0  0
  146.1675  140.0199  153.4956 H   0  0  0  0  0  0  0  0  0  0  0  0
  152.3338  140.0691  154.6824 H   0  0  0  0  0  0  0  0  0  0  0  0
  152.1526  138.3266  154.4894 H   0  0  0  0  0  0  0  0  0  0  0  0
  151.8086  139.0816  156.0469 H   0  0  0  0  0  0  0  0  0  0  0  0
  150.1564  142.4897  154.2283 H   0  0  0  0  0  0  0  0  0  0  0  0
  148.8416  142.3861  155.3599 H   0  0  0  0  0  0  0  0  0  0  0  0
  150.3803  141.2908  157.0295 H   0  0  0  0  0  0  0  0  0  0  0  0
  151.7076  141.4597  155.8931 H   0  0  0  0  0  0  0  0  0  0  0  0
  151.5123  143.7613  155.9568 H   0  0  0  0  0  0  0  0  0  0  0  0
  152.8516  143.4683  157.6500 H   0  0  0  0  0  0  0  0  0  0  0  0
  151.6030  145.5468  158.0565 H   0  0  0  0  0  0  0  0  0  0  0  0
  150.3398  144.6723  158.8872 H   0  0  0  0  0  0  0  0  0  0  0  0
  153.2403  144.9624  159.8039 H   0  0  0  0  0  0  0  0  0  0  0  0
  151.8415  145.7127  160.5245 H   0  0  0  0  0  0  0  0  0  0  0  0
  150.9043  143.5175  161.1160 H   0  0  0  0  0  0  0  0  0  0  0  0
  153.7362  143.9113  162.1653 H   0  0  0  0  0  0  0  0  0  0  0  0
  152.5176  142.8672  162.8966 H   0  0  0  0  0  0  0  0  0  0  0  0
  152.2565  144.6040  162.8103 H   0  0  0  0  0  0  0  0  0  0  0  0
  152.0320  141.4398  160.8007 H   0  0  0  0  0  0  0  0  0  0  0  0
  154.3297  142.9022  159.4185 H   0  0  0  0  0  0  0  0  0  0  0  0
  154.0926  141.1610  159.4393 H   0  0  0  0  0  0  0  0  0  0  0  0
  154.4017  142.0143  160.9357 H   0  0  0  0  0  0  0  0  0  0  0  0
  150.5344  142.0392  159.0512 H   0  0  0  0  0  0  0  0  0  0  0  0
  151.9036  141.2433  158.3293 H   0  0  0  0  0  0  0  0  0  0  0  0
  150.1211  143.7475  156.8231 H   0  0  0  0  0  0  0  0  0  0  0  0
  1  2  1  0  0  0  0
  1 19  1  0  0  0  0
  1 20  1  0  0  0  0
  1 21  1  0  0  0  0
  2  7  1  0  0  0  0
  2  3  2  0  0  0  0
  3  4  1  0  0  0  0
  4  5  1  0  0  0  0
  5  6  1  0  0  0  0
  5  7  2  0  0  0  0
  6 22  1  0  0  0  0
  6 23  1  0  0  0  0
  6 24  1  0  0  0  0
  7  8  1  0  0  0  0
  8  9  1  0  0  0  0
  8 25  1  0  0  0  0
  8 26  1  0  0  0  0
  9 10  1  0  0  0  0
  9 27  1  0  0  0  0
  9 28  1  0  0  0  0
 10 11  1  0  0  0  0
 10 29  1  0  0  0  0
 10 45  1  0  0  0  0
 11 18  1  0  0  0  0
 11 12  1  0  0  0  0
 11 30  1  0  0  0  0
 12 13  1  0  0  0  0
 12 31  1  0  0  0  0
 12 32  1  0  0  0  0
 13 14  1  0  0  0  0
 13 33  1  0  0  0  0
 13 34  1  0  0  0  0
 14 15  1  0  0  0  0
 14 16  1  0  0  0  0
 14 35  1  0  0  0  0
 15 36  1  0  0  0  0
 15 37  1  0  0  0  0
 15 38  1  0  0  0  0
 16 17  1  0  0  0  0
 16 18  1  0  0  0  0
 16 39  1  0  0  0  0
 17 40  1  0  0  0  0
 17 41  1  0  0  0  0
 17 42  1  0  0  0  0
 18 43  1  0  0  0  0
 18 44  1  0  0  0  0
M  CHG  1  10   1
M  END
> <s_m_source_file>
AV-unprocessed.smi

> <i_m_source_file_index>
3285

> <i_lp_mmshare_version>
43012

> <i_f3d_flags>
0

> <s_epik_input>
W0NIM11jMW5vYyhbQ0gzXSljMVtDSDJdW0NIMl1bTkhdW0NAQEhdMltDSDJdW0NIMl1bQ0BASF0oW0NIM10pW0NAQEhdKFtDSDNdKVtDSDJdMg==

> <s_epik_cmdline>
J2VwaWtfcHl0aG9uJywgJy1waCcsICc3LjAnLCAnLXRuJywgJzgnLCAnLW1hJywgJzIwMCcsICctbWV0YWxfYmluZGluZycsICctaW1hZScsICc8aW5maWxlLm1hZT4nLCAnLW9tYWUnLCAnPG91dGZpbGUubWFlPic=

> <r_lp_tautomer_probability>
1

> <r_epik_Ionization_Penalty>
0.000204615

> <r_epik_Ionization_Penalty_Charging>
0.000204615

> <r_epik_Ionization_Penalty_Neutral>
9.28663e-11

> <r_epik_State_Penalty>
-0

> <r_epik_Charging_Adjusted_Penalty>
0.000204615

> <i_epik_Tot_Q>
1

> <i_epik_Tot_abs_Q>
1

> <r_epik_Metal_State_Penalty>
-0

> <b_epik_Metal_Only>
0

> <s_lp_Force_Field>
OPLS_2005

> <r_lp_Energy>
12.1842

> <b_lp_Chiralities_Consistent>
1

> <s_lp_Variant>
AV-unprocessed.smi:3285-8

> <Gold.Version>
5.8.1

> <Gold.Id.Protein>
6NUR|6NUR_protein|mol2

> <Gold.PLP.Fitness>
47.7977

> <Gold.PLP.PLP>
-44.9579

> <Gold.PLP.part.hbond>
-1.0000

> <Gold.PLP.part.metal>
0.0000

> <Gold.PLP.part.buried>
-3.0485

> <Gold.PLP.part.nonpolar>
-40.4532

> <Gold.PLP.part.repulsive>
0.6607

> <Gold.PLP.ligand.clash>
0.0000

> <Gold.PLP.ligand.torsion>
0.7468

> <Gold.PLP.Chemscore.Hbond>
1.4400

> <Gold.PLP.Chemscore.CHOScore>
0.0000

> <Gold.PLP.Chemscore.Metal>
0.0000

> <Gold.Chemscore.Hbonds>
donor molecule, donor type, donor heavy atom, donor atom, acceptor molecule, acceptor atom, score
      L1  H    10    45       P1  8028  1.41

> <Gold.PLP.Chemscore.Internal.Correction>
0.0135

> <Gold.Rescore>
     Score         DG    S(hbond)    S(metal)    S(lipo)     H(rot)  DE(clash)    DE(int)     intcor
     20.40     -21.42       0.85        0.00     141.49       1.35       0.31       0.71       ----

> <Gold.Chemscore.Fitness>
20.4019

> <Gold.Chemscore.DG>
-21.4213

> <Gold.Chemscore.ZeroCoef>
-5.4800

> <Gold.Chemscore.Hbond>
0.8486

> <Gold.Chemscore.Metal>
0.0000

> <Gold.Chemscore.Lipo>
141.4870

> <Gold.Chemscore.Internal_Hbond>
0.0000

> <Gold.Chemscore.DEClash>
0.3131

> <Gold.Chemscore.DEInternal>
0.7063

> <Gold.Chemscore.Rot>
1.3465

> <Gold.Chemscore.Internal.Correction>
   9.000000E+99

> <Gold.Chemscore.Hbonds>
donor molecule, donor type, donor heavy atom, donor atom, acceptor molecule, acceptor atom, score
      L1  H    10    45       P1  8028  0.69

> <Gold.Chemscore.Hbond.Weighted>
-2.8343

> <Gold.Chemscore.Metal.Weighted>
-0.0000

> <Gold.Chemscore.Lipo.Weighted>
-16.5540

> <Gold.Chemscore.Internal_Hbond.Weighted>
0.0000

> <Gold.Chemscore.DEClash.Weighted>
0.3131

> <Gold.Chemscore.DEInternal.Weighted>
0.7063

> <Gold.Chemscore.Rot.Weighted>
3.4470

> <Gold.Chemscore.Internal.Correction.Weighted>
   9.000000E+99

> <Gold.Protein.RotatedTorsions>
[ 6907 6896 6895 6894 ] final  134.51 input  -60.11 | X-H torsion
[ 7974 7965 7964 7962 ] final  144.82 input  175.53 | X-H torsion
[ 8008 7997 7996 7995 ] final  -74.09 input   59.86 | X-H torsion
[ 10167 10162 10161 10158 ] final -173.03 input  -65.29 | X-H torsion
[ 10718 10713 10712 10709 ] final  152.37 input   66.30 | X-H torsion
[ 10763 10752 10751 10750 ] final  -19.70 input  -60.55 | X-H torsion
[ 11005 11000 10999 10996 ] final -119.06 input  -57.11 | X-H torsion

> <Gold.Protein.ActiveResidues>
 VAL166  LYS551  ARG553  GLY616  TRP617  ASP618  TYR619  PRO620  LYS621  CYS622 
 ASP623  PHE694  ASN695  SER759  ASP760  ASP761  ALA762  ILE779  LEU786  VAL792 
 PHE793  MET794  SER795  GLU796  ALA797  LYS798  CYS799  TRP800  GLU811  SER814 

> <Gold.Protein.RotatedAtoms>
  152.3105  133.5747  159.5677 H   0  0  0  0  0  0  0  0  0  0  0  0  # atno 6907 bound_to 6896
  150.7320  134.0159  159.3694 H   0  0  0  0  0  0  0  0  0  0  0  0  # atno 6908 bound_to 6896
  151.8053  135.0697  160.0456 H   0  0  0  0  0  0  0  0  0  0  0  0  # atno 6909 bound_to 6896
  144.8804  139.5708  143.5845 H   0  0  0  0  0  0  0  0  0  0  0  0  # atno 7974 bound_to 7965
  154.5301  140.0767  156.8329 H   0  0  0  0  0  0  0  0  0  0  0  0  # atno 8008 bound_to 7997
  155.3393  140.3406  155.4221 H   0  0  0  0  0  0  0  0  0  0  0  0  # atno 8009 bound_to 7997
  156.1772  140.1640  156.8327 H   0  0  0  0  0  0  0  0  0  0  0  0  # atno 8010 bound_to 7997
  139.5711  144.1640  152.1385 H   0  0  0  0  0  0  0  0  0  0  0  0  # atno 10167 bound_to 10162
  157.2587  131.0793  151.1681 H   0  0  0  0  0  0  0  0  0  0  0  0  # atno 10718 bound_to 10713
  153.6088  135.6997  153.5355 H   0  0  0  0  0  0  0  0  0  0  0  0  # atno 10763 bound_to 10752
  153.3034  135.4122  155.1272 H   0  0  0  0  0  0  0  0  0  0  0  0  # atno 10764 bound_to 10752
  154.8567  135.3654  154.5626 H   0  0  0  0  0  0  0  0  0  0  0  0  # atno 10765 bound_to 10752
  141.0242  134.0078  157.3238 H   0  0  0  0  0  0  0  0  0  0  0  0  # atno 11005 bound_to 11000
  146.2990  139.7368  142.9105 LP  0  0  0  0  0  0  0  0  0  0  0  0  # atno 17320 bound_to 7965
  145.3965  141.0379  143.3094 LP  0  0  0  0  0  0  0  0  0  0  0  0  # atno 17321 bound_to 7965
  140.1173  144.5404  150.6886 LP  0  0  0  0  0  0  0  0  0  0  0  0  # atno 17342 bound_to 10162
  140.6995  143.2425  151.4905 LP  0  0  0  0  0  0  0  0  0  0  0  0  # atno 17343 bound_to 10162
  157.3199  130.6932  149.6263 LP  0  0  0  0  0  0  0  0  0  0  0  0  # atno 17370 bound_to 10713
  155.9664  130.4338  150.5023 LP  0  0  0  0  0  0  0  0  0  0  0  0  # atno 17371 bound_to 10713
  139.9165  135.0197  156.7902 LP  0  0  0  0  0  0  0  0  0  0  0  0  # atno 17394 bound_to 11000
  140.6520  133.9723  155.7760 LP  0  0  0  0  0  0  0  0  0  0  0  0  # atno 17395 bound_to 11000

$$$$
