AV-unprocessed.smi:105|AV-procd|sdf|1010|dock6
  -GOLD-   2262018 03D 1   1.00000     0.00000
 Structure written by MMmdl.
 42 45  0  0  0  0  0  0  0  0  1 V2000
  152.2176  144.4497  161.3926 C   0  0  0  0  0  0  0  0  0  0  0  0
  152.5461  143.0885  161.5440 C   0  0  0  0  0  0  0  0  0  0  0  0
  152.4964  142.2239  160.4329 C   0  0  0  0  0  0  0  0  0  0  0  0
  152.1196  142.7191  159.1671 C   0  0  0  0  0  0  0  0  0  0  0  0
  152.0564  141.7870  157.9752 C   0  0  0  0  0  0  0  0  0  0  0  0
  150.6942  141.4034  157.6321 N   0  0  0  0  0  0  0  0  0  0  0  0
  150.4733  140.3523  156.8139 C   0  0  0  0  0  0  0  0  0  0  0  0
  150.4309  140.5117  155.4647 N   0  0  0  0  0  0  0  0  0  0  0  0
  150.2086  139.4575  154.6730 C   0  0  0  0  0  0  0  0  0  0  0  0
  150.0064  138.1829  155.0160 N   0  0  0  0  0  0  0  0  0  0  0  0
  150.0479  138.0219  156.3701 C   0  0  0  0  0  0  0  0  0  0  0  0
  150.2760  139.0460  157.3320 C   0  0  0  0  0  0  0  0  0  0  0  0
  150.2518  138.5120  158.6138 N   0  0  0  0  0  0  0  0  0  0  0  0
  150.0199  137.2416  158.4213 C   0  0  0  0  0  0  0  0  0  0  0  0
  149.8848  136.8597  157.1039 N   0  0  0  0  0  0  0  0  0  0  0  0
  149.6196  135.5214  156.6058 C   0  0  1  0  0  0  0  0  0  0  0  0
  150.7069  135.0586  155.6159 C   0  0  0  0  0  0  0  0  0  0  0  0
  150.3688  133.6350  155.1575 C   0  0  0  0  0  0  0  0  0  0  0  0
  150.2444  132.7230  156.3821 C   0  0  0  0  0  0  0  0  0  0  0  0
  149.2313  133.3195  157.3734 C   0  0  0  0  0  0  0  0  0  0  0  0
  149.6053  134.6550  157.7032 O   0  0  0  0  0  0  0  0  0  0  0  0
  151.7899  144.0825  159.0188 C   0  0  0  0  0  0  0  0  0  0  0  0
  151.8395  144.9465  160.1302 C   0  0  0  0  0  0  0  0  0  0  0  0
  152.2549  145.1125  162.2447 H   0  0  0  0  0  0  0  0  0  0  0  0
  152.8353  142.7079  162.5125 H   0  0  0  0  0  0  0  0  0  0  0  0
  152.7471  141.1802  160.5545 H   0  0  0  0  0  0  0  0  0  0  0  0
  152.5259  142.2713  157.1176 H   0  0  0  0  0  0  0  0  0  0  0  0
  152.6410  140.8930  158.1971 H   0  0  0  0  0  0  0  0  0  0  0  0
  149.9566  141.9730  158.0215 H   0  0  0  0  0  0  0  0  0  0  0  0
  150.1895  139.6650  153.6133 H   0  0  0  0  0  0  0  0  0  0  0  0
  149.9383  136.5421  159.2408 H   0  0  0  0  0  0  0  0  0  0  0  0
  148.6322  135.5229  156.1400 H   0  0  0  0  0  0  0  0  0  0  0  0
  150.7359  135.7432  154.7674 H   0  0  0  0  0  0  0  0  0  0  0  0
  151.6815  135.0890  156.1050 H   0  0  0  0  0  0  0  0  0  0  0  0
  149.4343  133.6351  154.5949 H   0  0  0  0  0  0  0  0  0  0  0  0
  151.1412  133.2617  154.4845 H   0  0  0  0  0  0  0  0  0  0  0  0
  149.9372  131.7208  156.0817 H   0  0  0  0  0  0  0  0  0  0  0  0
  151.2164  132.6230  156.8668 H   0  0  0  0  0  0  0  0  0  0  0  0
  148.2232  133.3061  156.9559 H   0  0  0  0  0  0  0  0  0  0  0  0
  149.2047  132.7248  158.2864 H   0  0  0  0  0  0  0  0  0  0  0  0
  151.4965  144.4686  158.0535 H   0  0  0  0  0  0  0  0  0  0  0  0
  151.5865  145.9903  160.0145 H   0  0  0  0  0  0  0  0  0  0  0  0
  1 23  1  0  0  0  0
  1  2  2  0  0  0  0
  1 24  1  0  0  0  0
  2  3  1  0  0  0  0
  2 25  1  0  0  0  0
  3  4  2  0  0  0  0
  3 26  1  0  0  0  0
  4  5  1  0  0  0  0
  4 22  1  0  0  0  0
  5  6  1  0  0  0  0
  5 27  1  0  0  0  0
  5 28  1  0  0  0  0
  6  7  1  0  0  0  0
  6 29  1  0  0  0  0
  7 12  1  0  0  0  0
  7  8  2  0  0  0  0
  8  9  1  0  0  0  0
  9 10  2  0  0  0  0
  9 30  1  0  0  0  0
 10 11  1  0  0  0  0
 11 15  1  0  0  0  0
 11 12  2  0  0  0  0
 12 13  1  0  0  0  0
 13 14  2  0  0  0  0
 14 15  1  0  0  0  0
 14 31  1  0  0  0  0
 15 16  1  0  0  0  0
 16 21  1  0  0  0  0
 16 17  1  0  0  0  0
 16 32  1  0  0  0  0
 17 18  1  0  0  0  0
 17 33  1  0  0  0  0
 17 34  1  0  0  0  0
 18 19  1  0  0  0  0
 18 35  1  0  0  0  0
 18 36  1  0  0  0  0
 19 20  1  0  0  0  0
 19 37  1  0  0  0  0
 19 38  1  0  0  0  0
 20 21  1  0  0  0  0
 20 39  1  0  0  0  0
 20 40  1  0  0  0  0
 22 23  2  0  0  0  0
 22 41  1  0  0  0  0
 23 42  1  0  0  0  0
M  END
> <s_m_source_file>
AV-unprocessed.smi

> <i_m_source_file_index>
105

> <i_lp_mmshare_version>
43012

> <i_f3d_flags>
0

> <s_epik_input>
W2NIXTFbY0hdW2NIXVtjSF1bY0hdYzFbQ0gyXVtOSF1jKG5bY0hdbjIpYyhjMjMpbltjSF1uM1tDQEBIXTRbQ0gyXVtDSDJdW0NIMl1bQ0gyXU80

> <s_epik_cmdline>
J2VwaWtfcHl0aG9uJywgJy1waCcsICc3LjAnLCAnLXRuJywgJzgnLCAnLW1hJywgJzIwMCcsICctbWV0YWxfYmluZGluZycsICctaW1hZScsICc8aW5maWxlLm1hZT4nLCAnLW9tYWUnLCAnPG91dGZpbGUubWFlPic=

> <r_lp_tautomer_probability>
1

> <r_epik_Ionization_Penalty>
0.000653933

> <r_epik_Ionization_Penalty_Charging>
0

> <r_epik_Ionization_Penalty_Neutral>
0.000653933

> <r_epik_State_Penalty>
-0

> <r_epik_Charging_Adjusted_Penalty>
0

> <i_epik_Tot_Q>
0

> <i_epik_Tot_abs_Q>
0

> <r_epik_Metal_State_Penalty>
-0

> <b_epik_Metal_Only>
0

> <s_epik_Chemistry_Notes>
This compound contains an acetal/aminal-like group ( X-CH(R)-Y where X, Y are N, S, or O) that may be acid/base labile, releasing an aldehyde.

> <s_lp_Force_Field>
OPLS_2005

> <r_lp_Energy>
23.9687

> <b_lp_Chiralities_Consistent>
1

> <s_lp_Variant>
AV-unprocessed.smi:105-2

> <Gold.Version>
5.8.1

> <Gold.Id.Protein>
6NUR|6NUR_protein|mol2

> <Gold.PLP.Fitness>
41.1156

> <Gold.PLP.PLP>
-38.5018

> <Gold.PLP.part.hbond>
-1.3501

> <Gold.PLP.part.metal>
0.0000

> <Gold.PLP.part.buried>
-6.4458

> <Gold.PLP.part.nonpolar>
-30.4547

> <Gold.PLP.part.repulsive>
0.2294

> <Gold.PLP.ligand.clash>
0.0000

> <Gold.PLP.ligand.torsion>
1.0952

> <Gold.PLP.Chemscore.Hbond>
0.6338

> <Gold.PLP.Chemscore.CHOScore>
0.9631

> <Gold.PLP.Chemscore.Metal>
0.0000

> <Gold.Chemscore.Hbonds>
donor molecule, donor type, donor heavy atom, donor atom, acceptor molecule, acceptor atom, score
      P1  H  6896  6907       L1    21  0.59
      L1  C     9    30       P1  7957  0.97

> <Gold.PLP.Chemscore.Internal.Correction>
0.0138

> <Gold.Rescore>
     Score         DG    S(hbond)    S(metal)    S(lipo)     H(rot)  DE(clash)    DE(int)     intcor
     14.61     -15.64       0.88        0.00      95.78       1.55       0.02       1.01       ----

> <Gold.Chemscore.Fitness>
14.6128

> <Gold.Chemscore.DG>
-15.6398

> <Gold.Chemscore.ZeroCoef>
-5.4800

> <Gold.Chemscore.Hbond>
0.8783

> <Gold.Chemscore.Metal>
0.0000

> <Gold.Chemscore.Lipo>
95.7789

> <Gold.Chemscore.Internal_Hbond>
0.0000

> <Gold.Chemscore.DEClash>
0.0174

> <Gold.Chemscore.DEInternal>
1.0096

> <Gold.Chemscore.Rot>
1.5547

> <Gold.Chemscore.Internal.Correction>
   9.000000E+99

> <Gold.Chemscore.Hbonds>
donor molecule, donor type, donor heavy atom, donor atom, acceptor molecule, acceptor atom, score
      P1  H  6896  6907       L1    21  0.04

> <Gold.Chemscore.Hbond.Weighted>
-2.9336

> <Gold.Chemscore.Metal.Weighted>
-0.0000

> <Gold.Chemscore.Lipo.Weighted>
-11.2061

> <Gold.Chemscore.Internal_Hbond.Weighted>
0.0000

> <Gold.Chemscore.DEClash.Weighted>
0.0174

> <Gold.Chemscore.DEInternal.Weighted>
1.0096

> <Gold.Chemscore.Rot.Weighted>
3.9800

> <Gold.Chemscore.Internal.Correction.Weighted>
   9.000000E+99

> <Gold.Protein.RotatedTorsions>
[ 6907 6896 6895 6894 ] final -104.67 input  -60.11 | X-H torsion
[ 7974 7965 7964 7962 ] final  -46.02 input  175.53 | X-H torsion
[ 8008 7997 7996 7995 ] final  -61.20 input   59.86 | X-H torsion
[ 10167 10162 10161 10158 ] final  100.45 input  -65.29 | X-H torsion
[ 10718 10713 10712 10709 ] final   43.71 input   66.30 | X-H torsion
[ 10763 10752 10751 10750 ] final   74.12 input  -60.55 | X-H torsion
[ 11005 11000 10999 10996 ] final  135.45 input  -57.11 | X-H torsion

> <Gold.Protein.ActiveResidues>
 VAL166  LYS551  ARG553  GLY616  TRP617  ASP618  TYR619  PRO620  LYS621  CYS622 
 ASP623  PHE694  ASN695  SER759  ASP760  ASP761  ALA762  ILE779  LEU786  VAL792 
 PHE793  MET794  SER795  GLU796  ALA797  LYS798  CYS799  TRP800  GLU811  SER814 

> <Gold.Protein.RotatedAtoms>
  150.7299  134.0242  159.3711 H   0  0  0  0  0  0  0  0  0  0  0  0  # atno 6907 bound_to 6896
  151.8208  135.0650  160.0434 H   0  0  0  0  0  0  0  0  0  0  0  0  # atno 6908 bound_to 6896
  152.3005  133.5614  159.5651 H   0  0  0  0  0  0  0  0  0  0  0  0  # atno 6909 bound_to 6896
  145.9762  140.7332  142.9386 H   0  0  0  0  0  0  0  0  0  0  0  0  # atno 7974 bound_to 7965
  154.4436  140.1023  156.6393 H   0  0  0  0  0  0  0  0  0  0  0  0  # atno 8008 bound_to 7997
  155.5519  140.3486  155.4452 H   0  0  0  0  0  0  0  0  0  0  0  0  # atno 8009 bound_to 7997
  156.0523  140.1307  157.0026 H   0  0  0  0  0  0  0  0  0  0  0  0  # atno 8010 bound_to 7997
  139.7526  144.6979  151.0409 H   0  0  0  0  0  0  0  0  0  0  0  0  # atno 10167 bound_to 10162
  157.4189  130.7957  149.7497 H   0  0  0  0  0  0  0  0  0  0  0  0  # atno 10718 bound_to 10713
  153.0566  135.5037  154.7995 H   0  0  0  0  0  0  0  0  0  0  0  0  # atno 10763 bound_to 10752
  154.6816  135.2969  154.9607 H   0  0  0  0  0  0  0  0  0  0  0  0  # atno 10764 bound_to 10752
  154.0392  135.6719  153.4841 H   0  0  0  0  0  0  0  0  0  0  0  0  # atno 10765 bound_to 10752
  139.9981  134.9489  157.0009 H   0  0  0  0  0  0  0  0  0  0  0  0  # atno 11005 bound_to 11000
  144.6849  140.2831  143.7289 LP  0  0  0  0  0  0  0  0  0  0  0  0  # atno 17320 bound_to 7965
  145.7835  139.1900  143.2144 LP  0  0  0  0  0  0  0  0  0  0  0  0  # atno 17321 bound_to 7965
  140.7799  143.4791  151.0043 LP  0  0  0  0  0  0  0  0  0  0  0  0  # atno 17342 bound_to 10162
  139.8478  143.7478  152.3179 LP  0  0  0  0  0  0  0  0  0  0  0  0  # atno 17343 bound_to 10162
  155.9874  130.3967  150.3167 LP  0  0  0  0  0  0  0  0  0  0  0  0  # atno 17370 bound_to 10713
  157.1313  131.0272  151.2968 LP  0  0  0  0  0  0  0  0  0  0  0  0  # atno 17371 bound_to 10713
  140.4780  134.1318  155.7212 LP  0  0  0  0  0  0  0  0  0  0  0  0  # atno 17394 bound_to 11000
  141.1620  133.8775  157.1821 LP  0  0  0  0  0  0  0  0  0  0  0  0  # atno 17395 bound_to 11000

$$$$
