AV-unprocessed.smi:3252|AV-procd|sdf|12442|dock7
  -GOLD-   2272018333D 1   1.00000     0.00000
 Structure written by MMmdl.
 37 38  0  0  0  0  0  0  0  0  2 V2000
  146.8906  141.9250  153.8844 C   0  0  0  0  0  0  0  0  0  0  0  0
  147.5288  141.6629  155.2560 C   0  0  0  0  0  0  0  0  0  0  0  0
  148.9253  141.1716  155.1518 N   0  3  2  0  0  0  0  0  0  0  0  0
  148.9949  139.7824  154.6403 C   0  0  0  0  0  0  0  0  0  0  0  0
  150.4573  139.3286  154.5077 C   0  0  0  0  0  0  0  0  0  0  0  0
  151.1079  139.4561  155.7649 O   0  0  0  0  0  0  0  0  0  0  0  0
  151.1434  140.8050  156.2204 C   0  0  2  0  0  0  0  0  0  0  0  0
  151.9381  140.8457  157.5329 C   0  0  0  0  0  0  0  0  0  0  0  0
  151.6418  142.0455  158.3036 N   0  0  0  0  0  0  0  0  0  0  0  0
  152.0730  142.1673  159.6312 C   0  0  0  0  0  0  0  0  0  0  0  0
  153.0594  141.2770  160.1058 C   0  0  0  0  0  0  0  0  0  0  0  0
  153.4999  141.3982  161.4385 C   0  0  0  0  0  0  0  0  0  0  0  0
  152.9393  142.4051  162.2488 C   0  0  0  0  0  0  0  0  0  0  0  0
  153.3624  142.5728  163.6286 C   0  0  0  0  0  0  0  0  0  0  0  0
  153.6997  142.7065  164.7272 N   0  0  0  0  0  0  0  0  0  0  0  0
  151.9583  143.2468  161.6862 C   0  0  0  0  0  0  0  0  0  0  0  0
  151.5325  143.1356  160.4090 N   0  0  0  0  0  0  0  0  0  0  0  0
  149.6950  141.2961  156.4147 C   0  0  0  0  0  0  0  0  0  0  0  0
  145.8397  142.1920  153.9970 H   0  0  0  0  0  0  0  0  0  0  0  0
  146.9385  141.0389  153.2509 H   0  0  0  0  0  0  0  0  0  0  0  0
  147.3761  142.7452  153.3562 H   0  0  0  0  0  0  0  0  0  0  0  0
  147.4923  142.5601  155.8756 H   0  0  0  0  0  0  0  0  0  0  0  0
  146.9257  140.9101  155.7658 H   0  0  0  0  0  0  0  0  0  0  0  0
  148.4574  139.1163  155.3172 H   0  0  0  0  0  0  0  0  0  0  0  0
  148.5032  139.7182  153.6688 H   0  0  0  0  0  0  0  0  0  0  0  0
  150.5004  138.2860  154.1924 H   0  0  0  0  0  0  0  0  0  0  0  0
  150.9816  139.9125  153.7499 H   0  0  0  0  0  0  0  0  0  0  0  0
  151.6425  141.4329  155.4794 H   0  0  0  0  0  0  0  0  0  0  0  0
  151.6841  139.9756  158.1398 H   0  0  0  0  0  0  0  0  0  0  0  0
  153.0082  140.7942  157.3273 H   0  0  0  0  0  0  0  0  0  0  0  0
  151.2329  142.8410  157.8348 H   0  0  0  0  0  0  0  0  0  0  0  0
  153.4744  140.5135  159.4638 H   0  0  0  0  0  0  0  0  0  0  0  0
  154.2545  140.7283  161.8253 H   0  0  0  0  0  0  0  0  0  0  0  0
  151.5006  144.0320  162.2705 H   0  0  0  0  0  0  0  0  0  0  0  0
  149.7107  142.3347  156.7440 H   0  0  0  0  0  0  0  0  0  0  0  0
  149.2034  140.7193  157.2001 H   0  0  0  0  0  0  0  0  0  0  0  0
  149.3864  141.7513  154.4649 H   0  0  0  0  0  0  0  0  0  0  0  0
  1  2  1  0  0  0  0
  1 19  1  0  0  0  0
  1 20  1  0  0  0  0
  1 21  1  0  0  0  0
  2  3  1  0  0  0  0
  2 22  1  0  0  0  0
  2 23  1  0  0  0  0
  3 18  1  0  0  0  0
  3  4  1  0  0  0  0
  3 37  1  0  0  0  0
  4  5  1  0  0  0  0
  4 24  1  0  0  0  0
  4 25  1  0  0  0  0
  5  6  1  0  0  0  0
  5 26  1  0  0  0  0
  5 27  1  0  0  0  0
  6  7  1  0  0  0  0
  7  8  1  0  0  0  0
  7 18  1  0  0  0  0
  7 28  1  0  0  0  0
  8  9  1  0  0  0  0
  8 29  1  0  0  0  0
  8 30  1  0  0  0  0
  9 10  1  0  0  0  0
  9 31  1  0  0  0  0
 10 17  1  0  0  0  0
 10 11  2  0  0  0  0
 11 12  1  0  0  0  0
 11 32  1  0  0  0  0
 12 13  2  0  0  0  0
 12 33  1  0  0  0  0
 13 14  1  0  0  0  0
 13 16  1  0  0  0  0
 14 15  3  0  0  0  0
 16 17  2  0  0  0  0
 16 34  1  0  0  0  0
 18 35  1  0  0  0  0
 18 36  1  0  0  0  0
M  CHG  1   3   1
M  END
> <s_m_source_file>
AV-unprocessed.smi

> <i_m_source_file_index>
3252

> <i_lp_mmshare_version>
43012

> <i_f3d_flags>
0

> <s_epik_input>
W0NIM11bQ0gyXU4xW0NIMl1bQ0gyXU9bQ0BIXShbQ0gyXTEpW0NIMl1bTkhdYzJbY0hdW2NIXWMoQyNOKVtjSF1uMg==

> <s_epik_cmdline>
J2VwaWtfcHl0aG9uJywgJy1waCcsICc3LjAnLCAnLXRuJywgJzgnLCAnLW1hJywgJzIwMCcsICctbWV0YWxfYmluZGluZycsICctaW1hZScsICc8aW5maWxlLm1hZT4nLCAnLW9tYWUnLCAnPG91dGZpbGUubWFlPic=

> <r_epik_Ionization_Penalty>
0.178512

> <r_epik_Ionization_Penalty_Charging>
0.178504

> <r_epik_Ionization_Penalty_Neutral>
8.15545e-06

> <r_epik_State_Penalty>
0.167974

> <r_epik_Charging_Adjusted_Penalty>
0.346478

> <i_epik_Tot_Q>
1

> <i_epik_Tot_abs_Q>
1

> <r_epik_Metal_State_Penalty>
0.167974

> <b_epik_Metal_Only>
0

> <s_lp_Force_Field>
OPLS_2005

> <r_lp_Energy>
17.709

> <b_lp_Chiralities_Consistent>
1

> <s_lp_Variant>
AV-unprocessed.smi:3252-4

> <Gold.Version>
5.8.1

> <Gold.Id.Protein>
6NUR|6NUR_protein|mol2

> <Gold.PLP.Fitness>
41.5621

> <Gold.PLP.PLP>
-42.3432

> <Gold.PLP.part.hbond>
-0.7301

> <Gold.PLP.part.metal>
0.0000

> <Gold.PLP.part.buried>
-6.8220

> <Gold.PLP.part.nonpolar>
-33.7587

> <Gold.PLP.part.repulsive>
0.2974

> <Gold.PLP.ligand.clash>
0.0000

> <Gold.PLP.ligand.torsion>
0.3962

> <Gold.PLP.Chemscore.Hbond>
0.0000

> <Gold.PLP.Chemscore.CHOScore>
0.0000

> <Gold.PLP.Chemscore.Metal>
0.0000

> <Gold.PLP.Chemscore.Internal.Correction>
0.0112

> <Gold.Rescore>
     Score         DG    S(hbond)    S(metal)    S(lipo)     H(rot)  DE(clash)    DE(int)     intcor
     11.59     -12.01       0.00        0.00      87.91       1.47       0.02       0.40       ----

> <Gold.Chemscore.Fitness>
11.5935

> <Gold.Chemscore.DG>
-12.0069

> <Gold.Chemscore.ZeroCoef>
-5.4800

> <Gold.Chemscore.Hbond>
0.0000

> <Gold.Chemscore.Metal>
0.0000

> <Gold.Chemscore.Lipo>
87.9084

> <Gold.Chemscore.Internal_Hbond>
0.0000

> <Gold.Chemscore.DEClash>
0.0152

> <Gold.Chemscore.DEInternal>
0.3982

> <Gold.Chemscore.Rot>
1.4681

> <Gold.Chemscore.Internal.Correction>
   9.000000E+99

> <Gold.Chemscore.Hbond.Weighted>
-0.0000

> <Gold.Chemscore.Metal.Weighted>
-0.0000

> <Gold.Chemscore.Lipo.Weighted>
-10.2853

> <Gold.Chemscore.Internal_Hbond.Weighted>
0.0000

> <Gold.Chemscore.DEClash.Weighted>
0.0152

> <Gold.Chemscore.DEInternal.Weighted>
0.3982

> <Gold.Chemscore.Rot.Weighted>
3.7584

> <Gold.Chemscore.Internal.Correction.Weighted>
   9.000000E+99

> <Gold.Protein.RotatedTorsions>
[ 6907 6896 6895 6894 ] final -151.26 input  -60.11 | X-H torsion
[ 7974 7965 7964 7962 ] final  177.52 input  175.53 | X-H torsion
[ 8008 7997 7996 7995 ] final  174.43 input   59.86 | X-H torsion
[ 10167 10162 10161 10158 ] final  -54.85 input  -65.29 | X-H torsion
[ 10718 10713 10712 10709 ] final  164.81 input   66.30 | X-H torsion
[ 10763 10752 10751 10750 ] final   23.85 input  -60.55 | X-H torsion
[ 11005 11000 10999 10996 ] final  152.44 input  -57.11 | X-H torsion

> <Gold.Protein.ActiveResidues>
 VAL166  LYS551  ARG553  GLY616  TRP617  ASP618  TYR619  PRO620  LYS621  CYS622 
 ASP623  PHE694  ASN695  SER759  ASP760  ASP761  ALA762  ILE779  LEU786  VAL792 
 PHE793  MET794  SER795  GLU796  ALA797  LYS798  CYS799  TRP800  GLU811  SER814 

> <Gold.Protein.RotatedAtoms>
  151.2105  133.4559  159.2597 H   0  0  0  0  0  0  0  0  0  0  0  0  # atno 6907 bound_to 6896
  151.0981  134.9956  159.8445 H   0  0  0  0  0  0  0  0  0  0  0  0  # atno 6908 bound_to 6896
  152.5441  134.2034  159.8774 H   0  0  0  0  0  0  0  0  0  0  0  0  # atno 6909 bound_to 6896
  144.7168  140.0260  143.6439 H   0  0  0  0  0  0  0  0  0  0  0  0  # atno 7974 bound_to 7965
  156.0974  140.1434  156.9512 H   0  0  0  0  0  0  0  0  0  0  0  0  # atno 8008 bound_to 7997
  154.4680  140.0919  156.7118 H   0  0  0  0  0  0  0  0  0  0  0  0  # atno 8009 bound_to 7997
  155.4817  140.3445  155.4343 H   0  0  0  0  0  0  0  0  0  0  0  0  # atno 8010 bound_to 7997
  140.6408  143.2506  151.4995 H   0  0  0  0  0  0  0  0  0  0  0  0  # atno 10167 bound_to 10162
  157.0891  131.0413  151.2544 H   0  0  0  0  0  0  0  0  0  0  0  0  # atno 10718 bound_to 10713
  153.0807  135.6618  154.0051 H   0  0  0  0  0  0  0  0  0  0  0  0  # atno 10763 bound_to 10752
  153.9674  135.2968  155.3431 H   0  0  0  0  0  0  0  0  0  0  0  0  # atno 10764 bound_to 10752
  154.7206  135.5166  153.8877 H   0  0  0  0  0  0  0  0  0  0  0  0  # atno 10765 bound_to 10752
  140.1308  134.8803  157.2201 H   0  0  0  0  0  0  0  0  0  0  0  0  # atno 11005 bound_to 11000
  146.0142  139.3195  143.0852 LP  0  0  0  0  0  0  0  0  0  0  0  0  # atno 17320 bound_to 7965
  145.8646  140.9455  143.0682 LP  0  0  0  0  0  0  0  0  0  0  0  0  # atno 17321 bound_to 7965
  139.5617  144.2140  152.1701 LP  0  0  0  0  0  0  0  0  0  0  0  0  # atno 17342 bound_to 10162
  140.1410  144.5202  150.6744 LP  0  0  0  0  0  0  0  0  0  0  0  0  # atno 17343 bound_to 10162
  157.4736  130.7723  149.7347 LP  0  0  0  0  0  0  0  0  0  0  0  0  # atno 17370 bound_to 10713
  155.9903  130.3946  150.3036 LP  0  0  0  0  0  0  0  0  0  0  0  0  # atno 17371 bound_to 10713
  140.2845  134.3312  155.7333 LP  0  0  0  0  0  0  0  0  0  0  0  0  # atno 17394 bound_to 11000
  141.2170  133.7498  156.9412 LP  0  0  0  0  0  0  0  0  0  0  0  0  # atno 17395 bound_to 11000

$$$$
