AV-unprocessed.smi:2087|AV-procd|sdf|8522|dock6
  -GOLD-   2272011233D 1   1.00000     0.00000
 Structure written by MMmdl.
 51 52  0  0  0  0  0  0  0  0  2 V2000
  145.6688  129.0624  151.8043 C   0  0  0  0  0  0  0  0  0  0  0  0
  146.7628  129.9115  152.4736 C   0  0  0  0  0  0  0  0  0  0  0  0
  146.9623  129.4730  153.9325 C   0  0  0  0  0  0  0  0  0  0  0  0
  146.4470  131.4215  152.4019 C   0  0  0  0  0  0  0  0  0  0  0  0
  146.7267  132.0179  151.0666 N   0  3  1  0  0  0  0  0  0  0  0  0
  145.8314  131.5160  149.9957 C   0  0  0  0  0  0  0  0  0  0  0  0
  144.4509  132.1936  150.0613 C   0  0  0  0  0  0  0  0  0  0  0  0
  144.6164  133.6033  149.9777 O   0  0  0  0  0  0  0  0  0  0  0  0
  145.3718  134.1281  151.0655 C   0  0  2  0  0  0  0  0  0  0  0  0
  145.4179  135.6608  150.9276 C   0  0  0  0  0  0  0  0  0  0  0  0
  146.1461  136.2751  152.0318 N   0  0  0  0  0  0  0  0  0  0  0  0
  145.6006  137.0749  152.9598 C   0  0  0  0  0  0  0  0  0  0  0  0
  144.3959  137.3269  153.0083 O   0  0  0  0  0  0  0  0  0  0  0  0
  146.5653  137.6766  153.9892 C   0  0  0  0  0  0  0  0  0  0  0  0
  146.5250  139.1445  154.0083 N   0  0  0  0  0  0  0  0  0  0  0  0
  147.0843  139.8607  152.9658 C   0  0  0  0  0  0  0  0  0  0  0  0
  147.0930  141.2104  152.9101 C   0  0  0  0  0  0  0  0  0  0  0  0
  146.4998  142.0087  153.9763 C   0  0  0  0  0  0  0  0  0  0  0  0
  146.4732  143.2397  153.9558 O   0  0  0  0  0  0  0  0  0  0  0  0
  145.9460  141.2511  155.0366 N   0  0  0  0  0  0  0  0  0  0  0  0
  145.3227  141.9475  156.1431 C   0  0  0  0  0  0  0  0  0  0  0  0
  145.9275  139.8397  155.0822 C   0  0  0  0  0  0  0  0  0  0  0  0
  145.4110  139.2254  156.0196 O   0  0  0  0  0  0  0  0  0  0  0  0
  146.7835  133.5027  151.0398 C   0  0  0  0  0  0  0  0  0  0  0  0
  144.7003  129.2153  152.2815 H   0  0  0  0  0  0  0  0  0  0  0  0
  145.9051  127.9998  151.8679 H   0  0  0  0  0  0  0  0  0  0  0  0
  145.5625  129.3069  150.7472 H   0  0  0  0  0  0  0  0  0  0  0  0
  147.7022  129.7145  151.9581 H   0  0  0  0  0  0  0  0  0  0  0  0
  146.0581  129.6301  154.5221 H   0  0  0  0  0  0  0  0  0  0  0  0
  147.7696  130.0332  154.4056 H   0  0  0  0  0  0  0  0  0  0  0  0
  147.2196  128.4151  153.9939 H   0  0  0  0  0  0  0  0  0  0  0  0
  145.3905  131.5552  152.6393 H   0  0  0  0  0  0  0  0  0  0  0  0
  146.9951  131.9600  153.1749 H   0  0  0  0  0  0  0  0  0  0  0  0
  146.2932  131.7362  149.0323 H   0  0  0  0  0  0  0  0  0  0  0  0
  145.7356  130.4309  150.0468 H   0  0  0  0  0  0  0  0  0  0  0  0
  143.8321  131.8632  149.2272 H   0  0  0  0  0  0  0  0  0  0  0  0
  143.9184  131.9272  150.9755 H   0  0  0  0  0  0  0  0  0  0  0  0
  144.8756  133.8741  152.0029 H   0  0  0  0  0  0  0  0  0  0  0  0
  145.8821  135.9445  149.9816 H   0  0  0  0  0  0  0  0  0  0  0  0
  144.4066  136.0685  150.9116 H   0  0  0  0  0  0  0  0  0  0  0  0
  147.1421  136.1125  152.0700 H   0  0  0  0  0  0  0  0  0  0  0  0
  146.3063  137.2789  154.9712 H   0  0  0  0  0  0  0  0  0  0  0  0
  147.5847  137.3394  153.7922 H   0  0  0  0  0  0  0  0  0  0  0  0
  147.5393  139.3164  152.1510 H   0  0  0  0  0  0  0  0  0  0  0  0
  147.5451  141.7070  152.0640 H   0  0  0  0  0  0  0  0  0  0  0  0
  145.6767  141.4942  157.0708 H   0  0  0  0  0  0  0  0  0  0  0  0
  144.2447  141.8281  156.0259 H   0  0  0  0  0  0  0  0  0  0  0  0
  145.5986  143.0017  156.1461 H   0  0  0  0  0  0  0  0  0  0  0  0
  147.3892  133.8886  151.8584 H   0  0  0  0  0  0  0  0  0  0  0  0
  147.2927  133.8013  150.1226 H   0  0  0  0  0  0  0  0  0  0  0  0
  147.6514  131.6902  150.8260 H   0  0  0  0  0  0  0  0  0  0  0  0
  1  2  1  0  0  0  0
  1 25  1  0  0  0  0
  1 26  1  0  0  0  0
  1 27  1  0  0  0  0
  2  3  1  0  0  0  0
  2  4  1  0  0  0  0
  2 28  1  0  0  0  0
  3 29  1  0  0  0  0
  3 30  1  0  0  0  0
  3 31  1  0  0  0  0
  4  5  1  0  0  0  0
  4 32  1  0  0  0  0
  4 33  1  0  0  0  0
  5 24  1  0  0  0  0
  5  6  1  0  0  0  0
  5 51  1  0  0  0  0
  6  7  1  0  0  0  0
  6 34  1  0  0  0  0
  6 35  1  0  0  0  0
  7  8  1  0  0  0  0
  7 36  1  0  0  0  0
  7 37  1  0  0  0  0
  8  9  1  0  0  0  0
  9 10  1  0  0  0  0
  9 24  1  0  0  0  0
  9 38  1  0  0  0  0
 10 11  1  0  0  0  0
 10 39  1  0  0  0  0
 10 40  1  0  0  0  0
 11 12  1  0  0  0  0
 11 41  1  0  0  0  0
 12 13  2  0  0  0  0
 12 14  1  0  0  0  0
 14 15  1  0  0  0  0
 14 42  1  0  0  0  0
 14 43  1  0  0  0  0
 15 22  1  0  0  0  0
 15 16  1  0  0  0  0
 16 17  2  0  0  0  0
 16 44  1  0  0  0  0
 17 18  1  0  0  0  0
 17 45  1  0  0  0  0
 18 19  2  0  0  0  0
 18 20  1  0  0  0  0
 20 21  1  0  0  0  0
 20 22  1  0  0  0  0
 21 46  1  0  0  0  0
 21 47  1  0  0  0  0
 21 48  1  0  0  0  0
 22 23  2  0  0  0  0
 24 49  1  0  0  0  0
 24 50  1  0  0  0  0
M  CHG  1   5   1
M  END
> <s_m_source_file>
AV-unprocessed.smi

> <i_m_source_file_index>
2087

> <i_lp_mmshare_version>
43012

> <i_f3d_flags>
0

> <s_epik_input>
W0NIM11bQ0hdKFtDSDNdKVtDSDJdTjFbQ0gyXVtDSDJdT1tDQEhdKFtDSDJdMSlbQ0gyXVtOSF1DKD1PKVtDSDJdbjJbY0hdW2NIXWMoPU8pbihbQ0gzXSljMj1P

> <s_epik_cmdline>
J2VwaWtfcHl0aG9uJywgJy1waCcsICc3LjAnLCAnLXRuJywgJzgnLCAnLW1hJywgJzIwMCcsICctbWV0YWxfYmluZGluZycsICctaW1hZScsICc8aW5maWxlLm1hZT4nLCAnLW9tYWUnLCAnPG91dGZpbGUubWFlPic=

> <r_lp_tautomer_probability>
1

> <r_epik_Ionization_Penalty>
0.097593

> <r_epik_Ionization_Penalty_Charging>
0.097593

> <r_epik_Ionization_Penalty_Neutral>
6.27044e-08

> <r_epik_State_Penalty>
0.0877056

> <r_epik_Charging_Adjusted_Penalty>
0.185299

> <i_epik_Tot_Q>
1

> <i_epik_Tot_abs_Q>
1

> <r_epik_Metal_State_Penalty>
0.0877109

> <b_epik_Metal_Only>
0

> <s_lp_Force_Field>
OPLS_2005

> <r_lp_Energy>
27.8921

> <b_lp_Chiralities_Consistent>
1

> <s_lp_Variant>
AV-unprocessed.smi:2087-3

> <Gold.Version>
5.8.1

> <Gold.Id.Protein>
6NUR|6NUR_protein|mol2

> <Gold.PLP.Fitness>
46.1205

> <Gold.PLP.PLP>
-38.1162

> <Gold.PLP.part.hbond>
-2.3801

> <Gold.PLP.part.metal>
0.0000

> <Gold.PLP.part.buried>
-8.0011

> <Gold.PLP.part.nonpolar>
-28.9684

> <Gold.PLP.part.repulsive>
1.6598

> <Gold.PLP.ligand.clash>
0.0000

> <Gold.PLP.ligand.torsion>
0.4108

> <Gold.PLP.Chemscore.Hbond>
2.0000

> <Gold.PLP.Chemscore.CHOScore>
0.9093

> <Gold.PLP.Chemscore.Metal>
0.0000

> <Gold.Chemscore.Hbonds>
donor molecule, donor type, donor heavy atom, donor atom, acceptor molecule, acceptor atom, score
      L1  H     5    51       P1 10747  1.00
      L1  H    11    41       P1  7948  1.00
      L1  C    16    44       P1  7957  0.85

> <Gold.PLP.Chemscore.Internal.Correction>
0.0981

> <Gold.Rescore>
     Score         DG    S(hbond)    S(metal)    S(lipo)     H(rot)  DE(clash)    DE(int)     intcor
     16.47     -17.07       2.00        0.00      90.68       2.22       0.12       0.48       ----

> <Gold.Chemscore.Fitness>
16.4731

> <Gold.Chemscore.DG>
-17.0711

> <Gold.Chemscore.ZeroCoef>
-5.4800

> <Gold.Chemscore.Hbond>
1.9991

> <Gold.Chemscore.Metal>
0.0000

> <Gold.Chemscore.Lipo>
90.6825

> <Gold.Chemscore.Internal_Hbond>
0.0000

> <Gold.Chemscore.DEClash>
0.1213

> <Gold.Chemscore.DEInternal>
0.4767

> <Gold.Chemscore.Rot>
2.2249

> <Gold.Chemscore.Internal.Correction>
   9.000000E+99

> <Gold.Chemscore.Hbonds>
donor molecule, donor type, donor heavy atom, donor atom, acceptor molecule, acceptor atom, score
      L1  H     5    51       P1 10747  1.00
      L1  H    11    41       P1  7948  1.00

> <Gold.Chemscore.Hbond.Weighted>
-6.6769

> <Gold.Chemscore.Metal.Weighted>
-0.0000

> <Gold.Chemscore.Lipo.Weighted>
-10.6098

> <Gold.Chemscore.Internal_Hbond.Weighted>
0.0000

> <Gold.Chemscore.DEClash.Weighted>
0.1213

> <Gold.Chemscore.DEInternal.Weighted>
0.4767

> <Gold.Chemscore.Rot.Weighted>
5.6957

> <Gold.Chemscore.Internal.Correction.Weighted>
   9.000000E+99

> <Gold.Protein.RotatedTorsions>
[ 6907 6896 6895 6894 ] final  159.41 input  -60.11 | X-H torsion
[ 7974 7965 7964 7962 ] final   99.91 input  175.53 | X-H torsion
[ 8008 7997 7996 7995 ] final  149.16 input   59.86 | X-H torsion
[ 10167 10162 10161 10158 ] final  -48.21 input  -65.29 | X-H torsion
[ 10718 10713 10712 10709 ] final  -26.15 input   66.30 | X-H torsion
[ 10763 10752 10751 10750 ] final  159.79 input  -60.55 | X-H torsion
[ 11005 11000 10999 10996 ] final  -71.66 input  -57.11 | X-H torsion

> <Gold.Protein.ActiveResidues>
 VAL166  LYS551  ARG553  GLY616  TRP617  ASP618  TYR619  PRO620  LYS621  CYS622 
 ASP623  PHE694  ASN695  SER759  ASP760  ASP761  ALA762  ILE779  LEU786  VAL792 
 PHE793  MET794  SER795  GLU796  ALA797  LYS798  CYS799  TRP800  GLU811  SER814 

> <Gold.Protein.RotatedAtoms>
  151.9860  133.3774  159.4125 H   0  0  0  0  0  0  0  0  0  0  0  0  # atno 6907 bound_to 6896
  150.6928  134.3988  159.5118 H   0  0  0  0  0  0  0  0  0  0  0  0  # atno 6908 bound_to 6896
  152.1714  134.8831  160.0585 H   0  0  0  0  0  0  0  0  0  0  0  0  # atno 6909 bound_to 6896
  145.3925  139.2360  143.3344 H   0  0  0  0  0  0  0  0  0  0  0  0  # atno 7974 bound_to 7965
  156.2765  140.2109  156.5814 H   0  0  0  0  0  0  0  0  0  0  0  0  # atno 8008 bound_to 7997
  154.7056  140.0517  157.0523 H   0  0  0  0  0  0  0  0  0  0  0  0  # atno 8009 bound_to 7997
  155.0675  140.3173  155.4644 H   0  0  0  0  0  0  0  0  0  0  0  0  # atno 8010 bound_to 7997
  140.6741  143.2750  151.4038 H   0  0  0  0  0  0  0  0  0  0  0  0  # atno 10167 bound_to 10162
  156.4550  130.4492  149.6965 H   0  0  0  0  0  0  0  0  0  0  0  0  # atno 10718 bound_to 10713
  154.2373  135.2776  155.2867 H   0  0  0  0  0  0  0  0  0  0  0  0  # atno 10763 bound_to 10752
  154.5574  135.5657  153.6980 H   0  0  0  0  0  0  0  0  0  0  0  0  # atno 10764 bound_to 10752
  153.0007  135.6289  154.2516 H   0  0  0  0  0  0  0  0  0  0  0  0  # atno 10765 bound_to 10752
  141.1596  133.6824  156.6940 H   0  0  0  0  0  0  0  0  0  0  0  0  # atno 11005 bound_to 11000
  146.2791  140.4610  142.8784 LP  0  0  0  0  0  0  0  0  0  0  0  0  # atno 17320 bound_to 7965
  144.8430  140.6886  143.6217 LP  0  0  0  0  0  0  0  0  0  0  0  0  # atno 17321 bound_to 7965
  139.6024  144.1268  152.2212 LP  0  0  0  0  0  0  0  0  0  0  0  0  # atno 17342 bound_to 10162
  140.0656  144.5821  150.7230 LP  0  0  0  0  0  0  0  0  0  0  0  0  # atno 17343 bound_to 10162
  156.3776  130.7562  151.2552 LP  0  0  0  0  0  0  0  0  0  0  0  0  # atno 17370 bound_to 10713
  157.7501  131.0305  150.4139 LP  0  0  0  0  0  0  0  0  0  0  0  0  # atno 17371 bound_to 10713
  140.3009  134.8165  157.4096 LP  0  0  0  0  0  0  0  0  0  0  0  0  # atno 17394 bound_to 11000
  140.1263  134.5153  155.8142 LP  0  0  0  0  0  0  0  0  0  0  0  0  # atno 17395 bound_to 11000

$$$$
