AV-unprocessed.smi:3234|AV-procd|sdf|12352|dock8
  -GOLD-   2272018213D 1   1.00000     0.00000
 Structure written by MMmdl.
 38 40  0  0  0  0  0  0  0  0  3 V2000
  145.3609  138.5843  153.0105 O   0  0  0  0  0  0  0  0  0  0  0  0
  146.4434  138.0647  152.7438 C   0  0  0  0  0  0  0  0  0  0  0  0
  147.6537  138.5855  153.0146 N   0  0  0  0  0  0  0  0  0  0  0  0
  147.9952  139.8116  153.6533 C   0  0  0  0  0  0  0  0  0  0  0  0
  147.0493  140.8586  153.5743 C   0  0  0  0  0  0  0  0  0  0  0  0
  147.3263  142.0994  154.1836 C   0  0  0  0  0  0  0  0  0  0  0  0
  148.4931  142.2810  154.8371 N   0  3  0  0  0  0  0  0  0  0  0  0
  149.4297  141.3141  154.9387 C   0  0  0  0  0  0  0  0  0  0  0  0
  149.2086  140.0523  154.3495 C   0  0  0  0  0  0  0  0  0  0  0  0
  146.5529  136.8780  152.1296 N   0  0  0  0  0  0  0  0  0  0  0  0
  145.4228  136.0561  151.7086 C   0  0  2  0  0  0  0  0  0  0  0  0
  144.2701  136.0025  152.7066 C   0  0  0  0  0  0  0  0  0  0  0  0
  143.5253  134.7298  152.2879 C   0  0  0  0  0  0  0  0  0  0  0  0
  144.5287  133.8331  151.6608 N   0  3  1  0  0  0  0  0  0  0  0  0
  144.0887  133.2687  150.3661 C   0  0  0  0  0  0  0  0  0  0  0  0
  143.7978  131.7878  150.4204 C   0  0  0  0  0  0  0  0  0  0  0  0
  145.0696  132.2875  149.7697 C   0  0  0  0  0  0  0  0  0  0  0  0
  145.8024  134.5818  151.5775 C   0  0  0  0  0  0  0  0  0  0  0  0
  148.4418  138.0302  152.7153 H   0  0  0  0  0  0  0  0  0  0  0  0
  146.1146  140.7166  153.0511 H   0  0  0  0  0  0  0  0  0  0  0  0
  146.6546  142.9452  154.1672 H   0  0  0  0  0  0  0  0  0  0  0  0
  150.3243  141.5767  155.4845 H   0  0  0  0  0  0  0  0  0  0  0  0
  149.9805  139.3063  154.4482 H   0  0  0  0  0  0  0  0  0  0  0  0
  147.4776  136.5190  151.9408 H   0  0  0  0  0  0  0  0  0  0  0  0
  145.0507  136.4095  150.7445 H   0  0  0  0  0  0  0  0  0  0  0  0
  144.6523  135.8936  153.7229 H   0  0  0  0  0  0  0  0  0  0  0  0
  143.6373  136.8903  152.6765 H   0  0  0  0  0  0  0  0  0  0  0  0
  143.0404  134.2425  153.1342 H   0  0  0  0  0  0  0  0  0  0  0  0
  142.7466  134.9866  151.5676 H   0  0  0  0  0  0  0  0  0  0  0  0
  143.5032  133.9250  149.7242 H   0  0  0  0  0  0  0  0  0  0  0  0
  143.8891  131.2791  151.3785 H   0  0  0  0  0  0  0  0  0  0  0  0
  143.0193  131.4051  149.7636 H   0  0  0  0  0  0  0  0  0  0  0  0
  145.1283  132.2336  148.6845 H   0  0  0  0  0  0  0  0  0  0  0  0
  146.0065  132.1112  150.2952 H   0  0  0  0  0  0  0  0  0  0  0  0
  146.3578  134.3741  150.6613 H   0  0  0  0  0  0  0  0  0  0  0  0
  146.4267  134.2730  152.4173 H   0  0  0  0  0  0  0  0  0  0  0  0
  144.6830  133.0555  152.2866 H   0  0  0  0  0  0  0  0  0  0  0  0
  148.6754  143.1863  155.2714 H   0  0  0  0  0  0  0  0  0  0  0  0
  1  2  2  0  0  0  0
  2  3  1  0  0  0  0
  2 10  1  0  0  0  0
  3  4  1  0  0  0  0
  3 19  1  0  0  0  0
  4  9  1  0  0  0  0
  4  5  2  0  0  0  0
  5  6  1  0  0  0  0
  5 20  1  0  0  0  0
  6  7  2  0  0  0  0
  6 21  1  0  0  0  0
  7  8  1  0  0  0  0
  7 38  1  0  0  0  0
  8  9  2  0  0  0  0
  8 22  1  0  0  0  0
  9 23  1  0  0  0  0
 10 11  1  0  0  0  0
 10 24  1  0  0  0  0
 11 18  1  0  0  0  0
 11 12  1  0  0  0  0
 11 25  1  0  0  0  0
 12 13  1  0  0  0  0
 12 26  1  0  0  0  0
 12 27  1  0  0  0  0
 13 14  1  0  0  0  0
 13 28  1  0  0  0  0
 13 29  1  0  0  0  0
 14 15  1  0  0  0  0
 14 18  1  0  0  0  0
 14 37  1  0  0  0  0
 15 17  1  0  0  0  0
 15 16  1  0  0  0  0
 15 30  1  0  0  0  0
 16 17  1  0  0  0  0
 16 31  1  0  0  0  0
 16 32  1  0  0  0  0
 17 33  1  0  0  0  0
 17 34  1  0  0  0  0
 18 35  1  0  0  0  0
 18 36  1  0  0  0  0
M  CHG  1   7   1
M  CHG  1  14   1
M  END
> <s_m_source_file>
AV-unprocessed.smi

> <i_m_source_file_index>
3234

> <i_lp_mmshare_version>
43012

> <i_f3d_flags>
0

> <s_epik_input>
W2NIXTFbY0hdbltjSF1bY0hdYzFbTkhdQyg9TylbTkhdW0NAQEhdMltDSDJdW0NIMl1OKFtDSDJdMilbQ0hdM1tDSDJdW0NIMl0z

> <s_epik_cmdline>
J2VwaWtfcHl0aG9uJywgJy1waCcsICc3LjAnLCAnLXRuJywgJzgnLCAnLW1hJywgJzIwMCcsICctbWV0YWxfYmluZGluZycsICctaW1hZScsICc8aW5maWxlLm1hZT4nLCAnLW9tYWUnLCAnPG91dGZpbGUubWFlPic=

> <r_epik_Ionization_Penalty>
1.14489

> <r_epik_Ionization_Penalty_Charging>
1.14487

> <r_epik_Ionization_Penalty_Neutral>
1.95212e-05

> <r_epik_State_Penalty>
1.205

> <r_epik_Charging_Adjusted_Penalty>
2.34987

> <i_epik_Tot_Q>
2

> <i_epik_Tot_abs_Q>
2

> <r_epik_Metal_State_Penalty>
1.28709

> <b_epik_Metal_Only>
0

> <s_lp_Force_Field>
OPLS_2005

> <r_lp_Energy>
49.761

> <b_lp_Chiralities_Consistent>
1

> <s_lp_Variant>
AV-unprocessed.smi:3234-5

> <Gold.Version>
5.8.1

> <Gold.Id.Protein>
6NUR|6NUR_protein|mol2

> <Gold.PLP.Fitness>
43.7927

> <Gold.PLP.PLP>
-33.6253

> <Gold.PLP.part.hbond>
-3.8064

> <Gold.PLP.part.metal>
0.0000

> <Gold.PLP.part.buried>
-4.6017

> <Gold.PLP.part.nonpolar>
-30.5333

> <Gold.PLP.part.repulsive>
4.1179

> <Gold.PLP.ligand.clash>
0.0000

> <Gold.PLP.ligand.torsion>
1.1604

> <Gold.PLP.Chemscore.Hbond>
3.7412

> <Gold.PLP.Chemscore.CHOScore>
0.0000

> <Gold.PLP.Chemscore.Metal>
0.0000

> <Gold.Chemscore.Hbonds>
donor molecule, donor type, donor heavy atom, donor atom, acceptor molecule, acceptor atom, score
      L1  H     3    19       P1  7948  0.87
      L1  H     7    38       P1  8028  2.00
      L1  H    10    24       P1  7948  0.88

> <Gold.PLP.Chemscore.Internal.Correction>
1.2645

> <Gold.Rescore>
     Score         DG    S(hbond)    S(metal)    S(lipo)     H(rot)  DE(clash)    DE(int)     intcor
     16.46     -21.86       2.85        0.00      85.40       1.22       1.74       3.66       ----

> <Gold.Chemscore.Fitness>
16.4554

> <Gold.Chemscore.DG>
-21.8614

> <Gold.Chemscore.ZeroCoef>
-5.4800

> <Gold.Chemscore.Hbond>
2.8519

> <Gold.Chemscore.Metal>
0.0000

> <Gold.Chemscore.Lipo>
85.3970

> <Gold.Chemscore.Internal_Hbond>
0.0000

> <Gold.Chemscore.DEClash>
1.7433

> <Gold.Chemscore.DEInternal>
3.6627

> <Gold.Chemscore.Rot>
1.2248

> <Gold.Chemscore.Internal.Correction>
   9.000000E+99

> <Gold.Chemscore.Hbonds>
donor molecule, donor type, donor heavy atom, donor atom, acceptor molecule, acceptor atom, score
      L1  H     3    19       P1  7948  0.80
      L1  H     7    38       P1  8028  0.98
      L1  H    10    24       P1  7948  0.86

> <Gold.Chemscore.Hbond.Weighted>
-9.5254

> <Gold.Chemscore.Metal.Weighted>
-0.0000

> <Gold.Chemscore.Lipo.Weighted>
-9.9914

> <Gold.Chemscore.Internal_Hbond.Weighted>
0.0000

> <Gold.Chemscore.DEClash.Weighted>
1.7433

> <Gold.Chemscore.DEInternal.Weighted>
3.6627

> <Gold.Chemscore.Rot.Weighted>
3.1355

> <Gold.Chemscore.Internal.Correction.Weighted>
   9.000000E+99

> <Gold.Protein.RotatedTorsions>
[ 6907 6896 6895 6894 ] final -121.08 input  -60.11 | X-H torsion
[ 7974 7965 7964 7962 ] final  113.61 input  175.53 | X-H torsion
[ 8008 7997 7996 7995 ] final -153.34 input   59.86 | X-H torsion
[ 10167 10162 10161 10158 ] final   -2.02 input  -65.29 | X-H torsion
[ 10718 10713 10712 10709 ] final -114.33 input   66.30 | X-H torsion
[ 10763 10752 10751 10750 ] final  -59.15 input  -60.55 | X-H torsion
[ 11005 11000 10999 10996 ] final  123.51 input  -57.11 | X-H torsion

> <Gold.Protein.ActiveResidues>
 VAL166  LYS551  ARG553  GLY616  TRP617  ASP618  TYR619  PRO620  LYS621  CYS622 
 ASP623  PHE694  ASN695  SER759  ASP760  ASP761  ALA762  ILE779  LEU786  VAL792 
 PHE793  MET794  SER795  GLU796  ALA797  LYS798  CYS799  TRP800  GLU811  SER814 

> <Gold.Protein.RotatedAtoms>
  150.8451  133.7874  159.3045 H   0  0  0  0  0  0  0  0  0  0  0  0  # atno 6907 bound_to 6896
  151.5563  135.1065  159.9971 H   0  0  0  0  0  0  0  0  0  0  0  0  # atno 6908 bound_to 6896
  152.4507  133.7580  159.6787 H   0  0  0  0  0  0  0  0  0  0  0  0  # atno 6909 bound_to 6896
  145.2148  139.2889  143.4249 H   0  0  0  0  0  0  0  0  0  0  0  0  # atno 7974 bound_to 7965
  155.6693  140.0731  157.2526 H   0  0  0  0  0  0  0  0  0  0  0  0  # atno 8008 bound_to 7997
  154.4126  140.1702  156.1913 H   0  0  0  0  0  0  0  0  0  0  0  0  # atno 8009 bound_to 7997
  155.9630  140.3368  155.6510 H   0  0  0  0  0  0  0  0  0  0  0  0  # atno 8010 bound_to 7997
  140.6834  143.6707  150.8188 H   0  0  0  0  0  0  0  0  0  0  0  0  # atno 10167 bound_to 10162
  156.0823  130.6021  150.8761 H   0  0  0  0  0  0  0  0  0  0  0  0  # atno 10718 bound_to 10713
  154.2492  135.6329  153.5234 H   0  0  0  0  0  0  0  0  0  0  0  0  # atno 10763 bound_to 10752
  152.9915  135.5561  154.5826 H   0  0  0  0  0  0  0  0  0  0  0  0  # atno 10764 bound_to 10752
  154.5349  135.2891  155.1122 H   0  0  0  0  0  0  0  0  0  0  0  0  # atno 10765 bound_to 10752
  139.9316  134.9641  156.8270 H   0  0  0  0  0  0  0  0  0  0  0  0  # atno 11005 bound_to 11000
  146.3389  140.2435  142.8596 LP  0  0  0  0  0  0  0  0  0  0  0  0  # atno 17320 bound_to 7965
  144.9822  140.8469  143.5390 LP  0  0  0  0  0  0  0  0  0  0  0  0  # atno 17321 bound_to 7965
  140.0410  143.5346  152.2718 LP  0  0  0  0  0  0  0  0  0  0  0  0  # atno 17342 bound_to 10162
  139.6173  144.7622  151.2818 LP  0  0  0  0  0  0  0  0  0  0  0  0  # atno 17343 bound_to 10162
  157.5945  131.0943  150.9064 LP  0  0  0  0  0  0  0  0  0  0  0  0  # atno 17370 bound_to 10713
  156.9233  130.5323  149.5279 LP  0  0  0  0  0  0  0  0  0  0  0  0  # atno 17371 bound_to 10713
  140.6187  134.0014  155.7609 LP  0  0  0  0  0  0  0  0  0  0  0  0  # atno 17394 bound_to 11000
  141.0907  133.9920  157.3241 LP  0  0  0  0  0  0  0  0  0  0  0  0  # atno 17395 bound_to 11000

$$$$
