AV-unprocessed.smi:1534|AV-procd|sdf|6167|dock2
  -GOLD-   22720 6313D 1   1.00000     0.00000
 Structure written by MMmdl.
 36 37  0  0  0  0  0  0  0  0  1 V2000
  145.8727  135.4928  154.8033 O   0  0  0  0  0  0  0  0  0  0  0  0
  146.6818  135.6824  153.8972 C   0  0  0  0  0  0  0  0  0  0  0  0
  146.3250  135.9808  152.6366 N   0  0  0  0  0  0  0  0  0  0  0  0
  144.9524  136.0658  152.1530 C   0  0  0  0  0  0  0  0  0  0  0  0
  144.7972  135.3679  150.7916 C   0  0  0  0  0  0  0  0  0  0  0  0
  144.8599  133.8569  150.9065 C   0  0  0  0  0  0  0  0  0  0  0  0
  145.9802  133.2241  151.4866 C   0  0  0  0  0  0  0  0  0  0  0  0
  145.9888  131.8183  151.5686 C   0  0  0  0  0  0  0  0  0  0  0  0
  144.8820  131.1032  151.0720 C   0  0  0  0  0  0  0  0  0  0  0  0
  143.8110  131.8291  150.5133 C   0  0  0  0  0  0  0  0  0  0  0  0
  143.7932  133.1770  150.4289 N   0  0  0  0  0  0  0  0  0  0  0  0
  148.0084  135.5988  154.1023 N   0  0  0  0  0  0  0  0  0  0  0  0
  148.7132  135.2941  155.3484 C   0  0  1  0  0  0  0  0  0  0  0  0
  149.6347  134.0725  155.1719 C   0  0  0  0  0  0  0  0  0  0  0  0
  150.6082  134.0105  156.3553 C   0  0  0  0  0  0  0  0  0  0  0  0
  150.8814  135.7441  156.8836 S   0  0  0  0  0  0  0  0  0  0  0  0
  150.4883  135.8789  158.2942 O   0  0  0  0  0  0  0  0  0  0  0  0
  152.1984  136.2027  156.4166 O   0  0  0  0  0  0  0  0  0  0  0  0
  149.5831  136.4731  155.8176 C   0  0  0  0  0  0  0  0  0  0  0  0
  147.0569  136.1307  151.9576 H   0  0  0  0  0  0  0  0  0  0  0  0
  144.2665  135.6357  152.8848 H   0  0  0  0  0  0  0  0  0  0  0  0
  144.6912  137.1208  152.0638 H   0  0  0  0  0  0  0  0  0  0  0  0
  143.8465  135.6474  150.3351 H   0  0  0  0  0  0  0  0  0  0  0  0
  145.5759  135.7040  150.1054 H   0  0  0  0  0  0  0  0  0  0  0  0
  146.8139  133.8006  151.8601 H   0  0  0  0  0  0  0  0  0  0  0  0
  146.8289  131.2983  152.0045 H   0  0  0  0  0  0  0  0  0  0  0  0
  144.8540  130.0247  151.1182 H   0  0  0  0  0  0  0  0  0  0  0  0
  142.9459  131.3132  150.1238 H   0  0  0  0  0  0  0  0  0  0  0  0
  148.5965  135.7918  153.3043 H   0  0  0  0  0  0  0  0  0  0  0  0
  147.9928  135.0512  156.1318 H   0  0  0  0  0  0  0  0  0  0  0  0
  149.0668  133.1469  155.0735 H   0  0  0  0  0  0  0  0  0  0  0  0
  150.2129  134.1889  154.2539 H   0  0  0  0  0  0  0  0  0  0  0  0
  150.1654  133.4704  157.1924 H   0  0  0  0  0  0  0  0  0  0  0  0
  151.5576  133.5395  156.1006 H   0  0  0  0  0  0  0  0  0  0  0  0
  150.0792  136.9566  154.9752 H   0  0  0  0  0  0  0  0  0  0  0  0
  149.0257  137.2284  156.3721 H   0  0  0  0  0  0  0  0  0  0  0  0
  1  2  2  0  0  0  0
  2  3  1  0  0  0  0
  2 12  1  0  0  0  0
  3  4  1  0  0  0  0
  3 20  1  0  0  0  0
  4  5  1  0  0  0  0
  4 21  1  0  0  0  0
  4 22  1  0  0  0  0
  5  6  1  0  0  0  0
  5 23  1  0  0  0  0
  5 24  1  0  0  0  0
  6 11  1  0  0  0  0
  6  7  2  0  0  0  0
  7  8  1  0  0  0  0
  7 25  1  0  0  0  0
  8  9  2  0  0  0  0
  8 26  1  0  0  0  0
  9 10  1  0  0  0  0
  9 27  1  0  0  0  0
 10 11  2  0  0  0  0
 10 28  1  0  0  0  0
 12 13  1  0  0  0  0
 12 29  1  0  0  0  0
 13 19  1  0  0  0  0
 13 14  1  0  0  0  0
 13 30  1  0  0  0  0
 14 15  1  0  0  0  0
 14 31  1  0  0  0  0
 14 32  1  0  0  0  0
 15 16  1  0  0  0  0
 15 33  1  0  0  0  0
 15 34  1  0  0  0  0
 16 17  2  0  0  0  0
 16 18  2  0  0  0  0
 16 19  1  0  0  0  0
 19 35  1  0  0  0  0
 19 36  1  0  0  0  0
M  END
> <s_m_source_file>
AV-unprocessed.smi

> <i_m_source_file_index>
1534

> <i_lp_mmshare_version>
43012

> <i_f3d_flags>
0

> <s_epik_input>
Tz1TMSg9TylbQ0gyXVtDSDJdW0NASF0oW0NIMl0xKVtOSF1DKD1PKVtOSF1bQ0gyXVtDSDJdYzJbY0hdW2NIXVtjSF1bY0hdbjI=

> <s_epik_cmdline>
J2VwaWtfcHl0aG9uJywgJy1waCcsICc3LjAnLCAnLXRuJywgJzgnLCAnLW1hJywgJzIwMCcsICctbWV0YWxfYmluZGluZycsICctaW1hZScsICc8aW5maWxlLm1hZT4nLCAnLW9tYWUnLCAnPG91dGZpbGUubWFlPic=

> <r_epik_Ionization_Penalty>
0.0423605

> <r_epik_Ionization_Penalty_Charging>
0

> <r_epik_Ionization_Penalty_Neutral>
0.0423605

> <r_epik_State_Penalty>
0.0357408

> <r_epik_Charging_Adjusted_Penalty>
0.0357408

> <i_epik_Tot_Q>
0

> <i_epik_Tot_abs_Q>
0

> <r_epik_Metal_State_Penalty>
0.033344

> <b_epik_Metal_Only>
0

> <s_lp_Force_Field>
OPLS_2005

> <r_lp_Energy>
9.82399

> <b_lp_Chiralities_Consistent>
1

> <s_lp_Variant>
AV-unprocessed.smi:1534-2

> <Gold.Version>
5.8.1

> <Gold.Id.Protein>
6NUR|6NUR_protein|mol2

> <Gold.PLP.Fitness>
42.0371

> <Gold.PLP.PLP>
-28.5263

> <Gold.PLP.part.hbond>
-3.9037

> <Gold.PLP.part.metal>
0.0000

> <Gold.PLP.part.buried>
-4.8316

> <Gold.PLP.part.nonpolar>
-20.9841

> <Gold.PLP.part.repulsive>
0.2499

> <Gold.PLP.ligand.clash>
0.0000

> <Gold.PLP.ligand.torsion>
0.1627

> <Gold.PLP.Chemscore.Hbond>
3.6000

> <Gold.PLP.Chemscore.CHOScore>
1.0000

> <Gold.PLP.Chemscore.Metal>
0.0000

> <Gold.Chemscore.Hbonds>
donor molecule, donor type, donor heavy atom, donor atom, acceptor molecule, acceptor atom, score
      L1  H     3    20       P1  7948  0.83
      L1  H    12    29       P1  7948  1.00
      P1  H  6896  6909       L1    17  0.77
      P1  H 10752 10763       L1    18  1.00
      L1  C    10    28       P1 10952  1.00

> <Gold.PLP.Chemscore.Internal.Correction>
0.0361

> <Gold.Rescore>
     Score         DG    S(hbond)    S(metal)    S(lipo)     H(rot)  DE(clash)    DE(int)     intcor
     21.21     -21.54       3.68        0.00      70.21       1.73       0.11       0.22       ----

> <Gold.Chemscore.Fitness>
21.2059

> <Gold.Chemscore.DG>
-21.5364

> <Gold.Chemscore.ZeroCoef>
-5.4800

> <Gold.Chemscore.Hbond>
3.6776

> <Gold.Chemscore.Metal>
0.0000

> <Gold.Chemscore.Lipo>
70.2068

> <Gold.Chemscore.Internal_Hbond>
0.0000

> <Gold.Chemscore.DEClash>
0.1101

> <Gold.Chemscore.DEInternal>
0.2205

> <Gold.Chemscore.Rot>
1.7348

> <Gold.Chemscore.Internal.Correction>
   9.000000E+99

> <Gold.Chemscore.Hbonds>
donor molecule, donor type, donor heavy atom, donor atom, acceptor molecule, acceptor atom, score
      L1  H     3    20       P1  7948  0.81
      L1  H    12    29       P1  7948  0.93
      P1  H  6896  6909       L1    17  0.76
      P1  H 10752 10763       L1    18  0.96

> <Gold.Chemscore.Hbond.Weighted>
-12.2832

> <Gold.Chemscore.Metal.Weighted>
-0.0000

> <Gold.Chemscore.Lipo.Weighted>
-8.2142

> <Gold.Chemscore.Internal_Hbond.Weighted>
0.0000

> <Gold.Chemscore.DEClash.Weighted>
0.1101

> <Gold.Chemscore.DEInternal.Weighted>
0.2205

> <Gold.Chemscore.Rot.Weighted>
4.4410

> <Gold.Chemscore.Internal.Correction.Weighted>
   9.000000E+99

> <Gold.Protein.RotatedTorsions>
[ 6907 6896 6895 6894 ] final   65.97 input  -60.11 | X-H torsion
[ 7974 7965 7964 7962 ] final -176.09 input  175.53 | X-H torsion
[ 8008 7997 7996 7995 ] final  -52.43 input   59.86 | X-H torsion
[ 10167 10162 10161 10158 ] final  -99.42 input  -65.29 | X-H torsion
[ 10718 10713 10712 10709 ] final   27.45 input   66.30 | X-H torsion
[ 10763 10752 10751 10750 ] final   77.94 input  -60.55 | X-H torsion
[ 11005 11000 10999 10996 ] final  135.38 input  -57.11 | X-H torsion

> <Gold.Protein.ActiveResidues>
 VAL166  LYS551  ARG553  GLY616  TRP617  ASP618  TYR619  PRO620  LYS621  CYS622 
 ASP623  PHE694  ASN695  SER759  ASP760  ASP761  ALA762  ILE779  LEU786  VAL792 
 PHE793  MET794  SER795  GLU796  ALA797  LYS798  CYS799  TRP800  GLU811  SER814 

> <Gold.Protein.RotatedAtoms>
  152.4446  134.5520  159.9869 H   0  0  0  0  0  0  0  0  0  0  0  0  # atno 6907 bound_to 6896
  151.5608  133.3397  159.2979 H   0  0  0  0  0  0  0  0  0  0  0  0  # atno 6908 bound_to 6896
  150.8360  134.7666  159.6957 H   0  0  0  0  0  0  0  0  0  0  0  0  # atno 6909 bound_to 6896
  144.7127  140.1222  143.6404 H   0  0  0  0  0  0  0  0  0  0  0  0  # atno 7974 bound_to 7965
  154.4106  140.1224  156.4990 H   0  0  0  0  0  0  0  0  0  0  0  0  # atno 8008 bound_to 7997
  155.6914  140.3495  155.4876 H   0  0  0  0  0  0  0  0  0  0  0  0  # atno 8009 bound_to 7997
  155.9465  140.1097  157.1002 H   0  0  0  0  0  0  0  0  0  0  0  0  # atno 8010 bound_to 7997
  140.2627  143.3397  152.0610 H   0  0  0  0  0  0  0  0  0  0  0  0  # atno 10167 bound_to 10162
  157.2204  130.6976  149.6267 H   0  0  0  0  0  0  0  0  0  0  0  0  # atno 10718 bound_to 10713
  153.0836  135.4895  154.8553 H   0  0  0  0  0  0  0  0  0  0  0  0  # atno 10763 bound_to 10752
  154.7183  135.3034  154.9091 H   0  0  0  0  0  0  0  0  0  0  0  0  # atno 10764 bound_to 10752
  153.9764  135.6795  153.4801 H   0  0  0  0  0  0  0  0  0  0  0  0  # atno 10765 bound_to 10752
  139.9976  134.9491  157.0000 H   0  0  0  0  0  0  0  0  0  0  0  0  # atno 11005 bound_to 11000
  145.9361  139.2638  143.1296 LP  0  0  0  0  0  0  0  0  0  0  0  0  # atno 17320 bound_to 7965
  145.9473  140.8935  143.0277 LP  0  0  0  0  0  0  0  0  0  0  0  0  # atno 17321 bound_to 7965
  139.5012  144.6708  151.6246 LP  0  0  0  0  0  0  0  0  0  0  0  0  # atno 17342 bound_to 10162
  140.5953  143.9707  150.6350 LP  0  0  0  0  0  0  0  0  0  0  0  0  # atno 17343 bound_to 10162
  155.9683  130.4522  150.5764 LP  0  0  0  0  0  0  0  0  0  0  0  0  # atno 17370 bound_to 10713
  157.3582  131.0745  151.1658 LP  0  0  0  0  0  0  0  0  0  0  0  0  # atno 17371 bound_to 10713
  140.4788  134.1310  155.7214 LP  0  0  0  0  0  0  0  0  0  0  0  0  # atno 17394 bound_to 11000
  141.1617  133.8781  157.1830 LP  0  0  0  0  0  0  0  0  0  0  0  0  # atno 17395 bound_to 11000

$$$$
