AV-unprocessed.smi:1362|AV-procd|sdf|5562|dock5
  -GOLD-   22720 5153D 1   1.00000     0.00000
 Structure written by MMmdl.
 38 38  0  0  0  0  0  0  0  0  2 V2000
  153.6897  141.9411  161.9004 C   0  0  0  0  0  0  0  0  0  0  0  0
  153.0480  142.1324  160.5429 C   0  0  0  0  0  0  0  0  0  0  0  0
  152.5004  143.2535  160.2629 N   0  0  0  0  0  0  0  0  0  0  0  0
  151.9016  143.4353  159.0048 C   0  0  0  0  0  0  0  0  0  0  0  0
  151.2722  144.7954  158.7587 C   0  0  0  0  0  0  0  0  0  0  0  0
  151.8947  142.4370  158.0757 C   0  0  0  0  0  0  0  0  0  0  0  0
  151.2523  142.5831  156.6957 C   0  0  0  0  0  0  0  0  0  0  0  0
  150.0519  141.6786  156.4044 C   0  0  0  0  0  0  0  0  0  0  0  0
  150.0438  140.5026  156.7695 O   0  0  0  0  0  0  0  0  0  0  0  0
  149.0392  142.2497  155.7343 N   0  0  0  0  0  0  0  0  0  0  0  0
  147.7932  141.5893  155.3468 C   0  0  2  0  0  0  0  0  0  0  0  0
  147.7983  141.3766  153.8206 C   0  0  0  0  0  0  0  0  0  0  0  0
  146.5754  142.4103  155.8484 C   0  0  0  0  0  0  0  0  0  0  0  0
  146.5489  142.5369  157.3846 C   0  0  0  0  0  0  0  0  0  0  0  0
  145.2352  141.8320  155.3594 C   0  0  0  0  0  0  0  0  0  0  0  0
  152.5424  141.1628  158.4349 C   0  0  0  0  0  0  0  0  0  0  0  0
  152.5783  140.2352  157.6273 O   0  0  0  0  0  0  0  0  0  0  0  0
  153.0932  141.0617  159.6783 N   0  5  0  0  0  0  0  0  0  0  0  0
  153.7686  142.8890  162.4343 H   0  0  0  0  0  0  0  0  0  0  0  0
  154.6929  141.5270  161.7934 H   0  0  0  0  0  0  0  0  0  0  0  0
  153.0945  141.2556  162.5039 H   0  0  0  0  0  0  0  0  0  0  0  0
  150.1930  144.6988  158.6401 H   0  0  0  0  0  0  0  0  0  0  0  0
  151.6823  145.2519  157.8577 H   0  0  0  0  0  0  0  0  0  0  0  0
  151.4591  145.4745  159.5914 H   0  0  0  0  0  0  0  0  0  0  0  0
  150.9562  143.6175  156.5193 H   0  0  0  0  0  0  0  0  0  0  0  0
  152.0132  142.3820  155.9414 H   0  0  0  0  0  0  0  0  0  0  0  0
  149.1363  143.2207  155.4760 H   0  0  0  0  0  0  0  0  0  0  0  0
  147.7538  140.6094  155.8265 H   0  0  0  0  0  0  0  0  0  0  0  0
  146.9510  140.7753  153.4927 H   0  0  0  0  0  0  0  0  0  0  0  0
  148.6978  140.8506  153.4990 H   0  0  0  0  0  0  0  0  0  0  0  0
  147.7635  142.3269  153.2872 H   0  0  0  0  0  0  0  0  0  0  0  0
  146.6595  143.4199  155.4436 H   0  0  0  0  0  0  0  0  0  0  0  0
  146.5081  141.5568  157.8607 H   0  0  0  0  0  0  0  0  0  0  0  0
  145.6781  143.1023  157.7175 H   0  0  0  0  0  0  0  0  0  0  0  0
  147.4278  143.0559  157.7670 H   0  0  0  0  0  0  0  0  0  0  0  0
  145.1131  140.7944  155.6718 H   0  0  0  0  0  0  0  0  0  0  0  0
  145.1489  141.8690  154.2740 H   0  0  0  0  0  0  0  0  0  0  0  0
  144.3945  142.3988  155.7601 H   0  0  0  0  0  0  0  0  0  0  0  0
  1  2  1  0  0  0  0
  1 19  1  0  0  0  0
  1 20  1  0  0  0  0
  1 21  1  0  0  0  0
  2 18  1  0  0  0  0
  2  3  2  0  0  0  0
  3  4  1  0  0  0  0
  4  5  1  0  0  0  0
  4  6  2  0  0  0  0
  5 22  1  0  0  0  0
  5 23  1  0  0  0  0
  5 24  1  0  0  0  0
  6  7  1  0  0  0  0
  6 16  1  0  0  0  0
  7  8  1  0  0  0  0
  7 25  1  0  0  0  0
  7 26  1  0  0  0  0
  8  9  2  0  0  0  0
  8 10  1  0  0  0  0
 10 11  1  0  0  0  0
 10 27  1  0  0  0  0
 11 12  1  0  0  0  0
 11 13  1  0  0  0  0
 11 28  1  0  0  0  0
 12 29  1  0  0  0  0
 12 30  1  0  0  0  0
 12 31  1  0  0  0  0
 13 14  1  0  0  0  0
 13 15  1  0  0  0  0
 13 32  1  0  0  0  0
 14 33  1  0  0  0  0
 14 34  1  0  0  0  0
 14 35  1  0  0  0  0
 15 36  1  0  0  0  0
 15 37  1  0  0  0  0
 15 38  1  0  0  0  0
 16 17  2  0  0  0  0
 16 18  1  0  0  0  0
M  CHG  1  18  -1
M  END
> <s_m_source_file>
AV-unprocessed.smi

> <i_m_source_file_index>
1362

> <i_lp_mmshare_version>
43012

> <i_f3d_flags>
0

> <s_epik_input>
W0NIM11jMW5jKFtDSDNdKWMoYyg9TylbbkhdMSlbQ0gyXUMoPU8pW05IXVtDQEhdKFtDSDNdKVtDSF0oW0NIM10pW0NIM10=

> <s_epik_cmdline>
J2VwaWtfcHl0aG9uJywgJy1waCcsICc3LjAnLCAnLXRuJywgJzgnLCAnLW1hJywgJzIwMCcsICctbWV0YWxfYmluZGluZycsICctaW1hZScsICc8aW5maWxlLm1hZT4nLCAnLW9tYWUnLCAnPG91dGZpbGUubWFlPic=

> <r_lp_tautomer_probability>
0.839158

> <r_epik_Ionization_Penalty>
6.62204

> <r_epik_Ionization_Penalty_Charging>
7.30593e-08

> <r_epik_Ionization_Penalty_Neutral>
6.62204

> <r_epik_State_Penalty>
4.44062

> <r_epik_Charging_Adjusted_Penalty>
4.44062

> <i_epik_Tot_Q>
-1

> <i_epik_Tot_abs_Q>
1

> <r_epik_Metal_State_Penalty>
0.802984

> <b_epik_Metal_Only>
1

> <s_lp_Force_Field>
OPLS_2005

> <r_lp_Energy>
10.6651

> <b_lp_Chiralities_Consistent>
1

> <s_lp_Variant>
AV-unprocessed.smi:1362-5

> <Gold.Version>
5.8.1

> <Gold.Id.Protein>
6NUR|6NUR_protein|mol2

> <Gold.PLP.Fitness>
39.1673

> <Gold.PLP.PLP>
-33.9634

> <Gold.PLP.part.hbond>
-1.8274

> <Gold.PLP.part.metal>
0.0000

> <Gold.PLP.part.buried>
-5.7736

> <Gold.PLP.part.nonpolar>
-25.5705

> <Gold.PLP.part.repulsive>
0.1686

> <Gold.PLP.ligand.clash>
0.0000

> <Gold.PLP.ligand.torsion>
0.3992

> <Gold.PLP.Chemscore.Hbond>
1.9913

> <Gold.PLP.Chemscore.CHOScore>
0.0000

> <Gold.PLP.Chemscore.Metal>
0.0000

> <Gold.Chemscore.Hbonds>
donor molecule, donor type, donor heavy atom, donor atom, acceptor molecule, acceptor atom, score
      L1  H    10    27       P1  8028  0.99
      P1  H  7997  8008       L1    17  0.99

> <Gold.PLP.Chemscore.Internal.Correction>
0.0286

> <Gold.Rescore>
     Score         DG    S(hbond)    S(metal)    S(lipo)     H(rot)  DE(clash)    DE(int)     intcor
     13.63     -15.53       1.88        0.00      68.13       1.64       0.05       1.86       ----

> <Gold.Chemscore.Fitness>
13.6263

> <Gold.Chemscore.DG>
-15.5300

> <Gold.Chemscore.ZeroCoef>
-5.4800

> <Gold.Chemscore.Hbond>
1.8821

> <Gold.Chemscore.Metal>
0.0000

> <Gold.Chemscore.Lipo>
68.1264

> <Gold.Chemscore.Internal_Hbond>
0.0000

> <Gold.Chemscore.DEClash>
0.0456

> <Gold.Chemscore.DEInternal>
1.8580

> <Gold.Chemscore.Rot>
1.6433

> <Gold.Chemscore.Internal.Correction>
   9.000000E+99

> <Gold.Chemscore.Hbonds>
donor molecule, donor type, donor heavy atom, donor atom, acceptor molecule, acceptor atom, score
      L1  H    10    27       P1  8028  0.90
      P1  H  7997  8008       L1    17  0.68

> <Gold.Chemscore.Hbond.Weighted>
-6.2861

> <Gold.Chemscore.Metal.Weighted>
-0.0000

> <Gold.Chemscore.Lipo.Weighted>
-7.9708

> <Gold.Chemscore.Internal_Hbond.Weighted>
0.0000

> <Gold.Chemscore.DEClash.Weighted>
0.0456

> <Gold.Chemscore.DEInternal.Weighted>
1.8580

> <Gold.Chemscore.Rot.Weighted>
4.2069

> <Gold.Chemscore.Internal.Correction.Weighted>
   9.000000E+99

> <Gold.Protein.RotatedTorsions>
[ 6907 6896 6895 6894 ] final   92.72 input  -60.11 | X-H torsion
[ 7974 7965 7964 7962 ] final  -55.53 input  175.53 | X-H torsion
[ 8008 7997 7996 7995 ] final  -66.75 input   59.86 | X-H torsion
[ 10167 10162 10161 10158 ] final -157.37 input  -65.29 | X-H torsion
[ 10718 10713 10712 10709 ] final -121.48 input   66.30 | X-H torsion
[ 10763 10752 10751 10750 ] final    4.42 input  -60.55 | X-H torsion
[ 11005 11000 10999 10996 ] final   41.46 input  -57.11 | X-H torsion

> <Gold.Protein.ActiveResidues>
 VAL166  LYS551  ARG553  GLY616  TRP617  ASP618  TYR619  PRO620  LYS621  CYS622 
 ASP623  PHE694  ASN695  SER759  ASP760  ASP761  ALA762  ILE779  LEU786  VAL792 
 PHE793  MET794  SER795  GLU796  ALA797  LYS798  CYS799  TRP800  GLU811  SER814 

> <Gold.Protein.RotatedAtoms>
  152.5453  134.1458  159.8497 H   0  0  0  0  0  0  0  0  0  0  0  0  # atno 6907 bound_to 6896
  151.1490  133.4913  159.2603 H   0  0  0  0  0  0  0  0  0  0  0  0  # atno 6908 bound_to 6896
  151.1492  135.0229  159.8715 H   0  0  0  0  0  0  0  0  0  0  0  0  # atno 6909 bound_to 6896
  145.8731  140.8201  142.9878 H   0  0  0  0  0  0  0  0  0  0  0  0  # atno 7974 bound_to 7965
  154.4754  140.0906  156.7250 H   0  0  0  0  0  0  0  0  0  0  0  0  # atno 8008 bound_to 7997
  155.4610  140.3461  155.4294 H   0  0  0  0  0  0  0  0  0  0  0  0  # atno 8009 bound_to 7997
  156.1108  140.1447  156.9329 H   0  0  0  0  0  0  0  0  0  0  0  0  # atno 8010 bound_to 7997
  139.6776  143.9636  152.2319 H   0  0  0  0  0  0  0  0  0  0  0  0  # atno 10167 bound_to 10162
  156.1341  130.6417  150.9668 H   0  0  0  0  0  0  0  0  0  0  0  0  # atno 10718 bound_to 10713
  153.2715  135.6932  153.7476 H   0  0  0  0  0  0  0  0  0  0  0  0  # atno 10763 bound_to 10752
  153.6498  135.3379  155.3097 H   0  0  0  0  0  0  0  0  0  0  0  0  # atno 10764 bound_to 10752
  154.8465  135.4451  154.1739 H   0  0  0  0  0  0  0  0  0  0  0  0  # atno 10765 bound_to 10752
  140.1832  134.4078  155.8188 H   0  0  0  0  0  0  0  0  0  0  0  0  # atno 11005 bound_to 11000
  144.6726  140.1269  143.7446 LP  0  0  0  0  0  0  0  0  0  0  0  0  # atno 17320 bound_to 7965
  145.9113  139.2489  143.1435 LP  0  0  0  0  0  0  0  0  0  0  0  0  # atno 17321 bound_to 7965
  139.9418  144.6677  150.8259 LP  0  0  0  0  0  0  0  0  0  0  0  0  # atno 17342 bound_to 10162
  140.7641  143.3240  151.2558 LP  0  0  0  0  0  0  0  0  0  0  0  0  # atno 17343 bound_to 10162
  157.6515  131.0896  150.8039 LP  0  0  0  0  0  0  0  0  0  0  0  0  # atno 17370 bound_to 10713
  156.8121  130.4956  149.5354 LP  0  0  0  0  0  0  0  0  0  0  0  0  # atno 17371 bound_to 10713
  141.2224  133.7010  156.7967 LP  0  0  0  0  0  0  0  0  0  0  0  0  # atno 17394 bound_to 11000
  140.2243  134.8733  157.3410 LP  0  0  0  0  0  0  0  0  0  0  0  0  # atno 17395 bound_to 11000

$$$$
