AV-unprocessed.smi:2438|AV-procd|sdf|9597|dock3
  -GOLD-   2272013233D 1   1.00000     0.00000
 Structure written by MMmdl.
 43 44  0  0  0  0  0  0  0  0  1 V2000
  150.1167  137.6126  155.9865 C   0  0  0  0  0  0  0  0  0  0  0  0
  150.3339  138.2648  154.7013 N   0  0  0  0  0  0  0  0  0  0  0  0
  151.7077  138.2827  154.2176 C   0  0  0  0  0  0  0  0  0  0  0  0
  149.6553  139.4827  154.4942 C   0  0  0  0  0  0  0  0  0  0  0  0
  150.1299  140.5897  155.1159 N   0  0  0  0  0  0  0  0  0  0  0  0
  149.4969  141.7426  154.8936 C   0  0  0  0  0  0  0  0  0  0  0  0
  148.4285  141.9287  154.1186 N   0  0  0  0  0  0  0  0  0  0  0  0
  147.9368  140.8399  153.4915 C   0  0  0  0  0  0  0  0  0  0  0  0
  148.5253  139.5600  153.6386 C   0  0  0  0  0  0  0  0  0  0  0  0
  147.9908  138.3882  153.0366 N   0  0  0  0  0  0  0  0  0  0  0  0
  146.6979  138.0925  152.8288 C   0  0  0  0  0  0  0  0  0  0  0  0
  145.7507  138.8240  153.1173 O   0  0  0  0  0  0  0  0  0  0  0  0
  146.5650  136.8991  152.2335 N   0  0  0  0  0  0  0  0  0  0  0  0
  145.3030  136.2955  151.8167 C   0  0  2  0  0  0  0  0  0  0  0  0
  144.2768  136.4093  152.9577 C   0  0  0  0  0  0  0  0  0  0  0  0
  142.9576  135.7135  152.5927 C   0  0  0  0  0  0  0  0  0  0  0  0
  143.1913  134.2440  152.2102 C   0  0  0  0  0  0  0  0  0  0  0  0
  144.2048  134.1112  151.0541 C   0  0  2  0  0  0  0  0  0  0  0  0
  144.4339  132.6390  150.6537 C   0  0  0  0  0  0  0  0  0  0  0  0
  144.8734  131.9276  151.6924 F   0  0  0  0  0  0  0  0  0  0  0  0
  143.2954  132.1022  150.2149 F   0  0  0  0  0  0  0  0  0  0  0  0
  145.3326  132.5672  149.6719 F   0  0  0  0  0  0  0  0  0  0  0  0
  145.5257  134.8219  151.4201 C   0  0  0  0  0  0  0  0  0  0  0  0
  149.0561  137.5968  156.2412 H   0  0  0  0  0  0  0  0  0  0  0  0
  150.6582  138.1268  156.7816 H   0  0  0  0  0  0  0  0  0  0  0  0
  150.4668  136.5808  155.9489 H   0  0  0  0  0  0  0  0  0  0  0  0
  151.7741  138.6403  153.1900 H   0  0  0  0  0  0  0  0  0  0  0  0
  152.1333  137.2794  154.2488 H   0  0  0  0  0  0  0  0  0  0  0  0
  152.3216  138.9318  154.8431 H   0  0  0  0  0  0  0  0  0  0  0  0
  149.8886  142.6146  155.3961 H   0  0  0  0  0  0  0  0  0  0  0  0
  147.0510  141.0008  152.8959 H   0  0  0  0  0  0  0  0  0  0  0  0
  148.6693  137.7503  152.6465 H   0  0  0  0  0  0  0  0  0  0  0  0
  147.4039  136.3732  152.0368 H   0  0  0  0  0  0  0  0  0  0  0  0
  144.9076  136.8362  150.9544 H   0  0  0  0  0  0  0  0  0  0  0  0
  144.6808  135.9612  153.8669 H   0  0  0  0  0  0  0  0  0  0  0  0
  144.0874  137.4585  153.1875 H   0  0  0  0  0  0  0  0  0  0  0  0
  142.2628  135.7735  153.4308 H   0  0  0  0  0  0  0  0  0  0  0  0
  142.4844  136.2377  151.7612 H   0  0  0  0  0  0  0  0  0  0  0  0
  143.5499  133.6955  153.0821 H   0  0  0  0  0  0  0  0  0  0  0  0
  142.2410  133.7889  151.9306 H   0  0  0  0  0  0  0  0  0  0  0  0
  143.7849  134.6228  150.1865 H   0  0  0  0  0  0  0  0  0  0  0  0
  146.2164  134.7722  150.5777 H   0  0  0  0  0  0  0  0  0  0  0  0
  146.0078  134.2915  152.2425 H   0  0  0  0  0  0  0  0  0  0  0  0
  1  2  1  0  0  0  0
  1 24  1  0  0  0  0
  1 25  1  0  0  0  0
  1 26  1  0  0  0  0
  2  3  1  0  0  0  0
  2  4  1  0  0  0  0
  3 27  1  0  0  0  0
  3 28  1  0  0  0  0
  3 29  1  0  0  0  0
  4  9  1  0  0  0  0
  4  5  2  0  0  0  0
  5  6  1  0  0  0  0
  6  7  2  0  0  0  0
  6 30  1  0  0  0  0
  7  8  1  0  0  0  0
  8  9  2  0  0  0  0
  8 31  1  0  0  0  0
  9 10  1  0  0  0  0
 10 11  1  0  0  0  0
 10 32  1  0  0  0  0
 11 12  2  0  0  0  0
 11 13  1  0  0  0  0
 13 14  1  0  0  0  0
 13 33  1  0  0  0  0
 14 23  1  0  0  0  0
 14 15  1  0  0  0  0
 14 34  1  0  0  0  0
 15 16  1  0  0  0  0
 15 35  1  0  0  0  0
 15 36  1  0  0  0  0
 16 17  1  0  0  0  0
 16 37  1  0  0  0  0
 16 38  1  0  0  0  0
 17 18  1  0  0  0  0
 17 39  1  0  0  0  0
 17 40  1  0  0  0  0
 18 19  1  0  0  0  0
 18 23  1  0  0  0  0
 18 41  1  0  0  0  0
 19 20  1  0  0  0  0
 19 21  1  0  0  0  0
 19 22  1  0  0  0  0
 23 42  1  0  0  0  0
 23 43  1  0  0  0  0
M  END
> <s_m_source_file>
AV-unprocessed.smi

> <i_m_source_file_index>
2438

> <i_lp_mmshare_version>
43012

> <i_f3d_flags>
0

> <s_epik_input>
W0NIM11OKFtDSDNdKWMxbltjSF1uW2NIXWMxW05IXUMoPU8pW05IXVtDQEBIXTJbQ0gyXVtDSDJdW0NIMl1bQ0BASF0oQyhGKShGKUYpW0NIMl0y

> <s_epik_cmdline>
J2VwaWtfcHl0aG9uJywgJy1waCcsICc3LjAnLCAnLXRuJywgJzgnLCAnLW1hJywgJzIwMCcsICctbWV0YWxfYmluZGluZycsICctaW1hZScsICc8aW5maWxlLm1hZT4nLCAnLW9tYWUnLCAnPG91dGZpbGUubWFlPic=

> <r_lp_tautomer_probability>
1

> <r_epik_Ionization_Penalty>
0.01759

> <r_epik_Ionization_Penalty_Charging>
0

> <r_epik_Ionization_Penalty_Neutral>
0.01759

> <r_epik_State_Penalty>
0.0133536

> <r_epik_Charging_Adjusted_Penalty>
0.0133536

> <i_epik_Tot_Q>
0

> <i_epik_Tot_abs_Q>
0

> <r_epik_Metal_State_Penalty>
0.0129828

> <b_epik_Metal_Only>
0

> <s_lp_Force_Field>
OPLS_2005

> <r_lp_Energy>
11.5061

> <b_lp_Chiralities_Consistent>
1

> <s_lp_Variant>
AV-unprocessed.smi:2438-3

> <Gold.Version>
5.8.1

> <Gold.Id.Protein>
6NUR|6NUR_protein|mol2

> <Gold.PLP.Fitness>
45.4408

> <Gold.PLP.PLP>
-36.7305

> <Gold.PLP.part.hbond>
-4.6281

> <Gold.PLP.part.metal>
0.0000

> <Gold.PLP.part.buried>
0.8031

> <Gold.PLP.part.nonpolar>
-35.7204

> <Gold.PLP.part.repulsive>
3.3041

> <Gold.PLP.ligand.clash>
0.0000

> <Gold.PLP.ligand.torsion>
0.6153

> <Gold.PLP.Chemscore.Hbond>
2.2319

> <Gold.PLP.Chemscore.CHOScore>
0.9685

> <Gold.PLP.Chemscore.Metal>
0.0000

> <Gold.Chemscore.Hbonds>
donor molecule, donor type, donor heavy atom, donor atom, acceptor molecule, acceptor atom, score
      L1  H    10    32       P1  7948  0.96
      L1  H    13    33       P1  7948  1.00
      P1  H  7989  7998       L1     5  0.19
      P1  H  8011  8017       L1     7  0.05
      L1  C     6    30       P1  8028  0.97

> <Gold.PLP.Chemscore.Internal.Correction>
0.3398

> <Gold.Rescore>
     Score         DG    S(hbond)    S(metal)    S(lipo)     H(rot)  DE(clash)    DE(int)     intcor
     11.39     -15.43       1.86        0.00      60.39       1.30       1.04       2.99       ----

> <Gold.Chemscore.Fitness>
11.3928

> <Gold.Chemscore.DG>
-15.4260

> <Gold.Chemscore.ZeroCoef>
-5.4800

> <Gold.Chemscore.Hbond>
1.8576

> <Gold.Chemscore.Metal>
0.0000

> <Gold.Chemscore.Lipo>
60.3943

> <Gold.Chemscore.Internal_Hbond>
0.0000

> <Gold.Chemscore.DEClash>
1.0444

> <Gold.Chemscore.DEInternal>
2.9889

> <Gold.Chemscore.Rot>
1.2987

> <Gold.Chemscore.Internal.Correction>
   9.000000E+99

> <Gold.Chemscore.Hbonds>
donor molecule, donor type, donor heavy atom, donor atom, acceptor molecule, acceptor atom, score
      L1  H    10    32       P1  7948  0.92
      L1  H    13    33       P1  7948  0.92

> <Gold.Chemscore.Hbond.Weighted>
-6.2045

> <Gold.Chemscore.Metal.Weighted>
-0.0000

> <Gold.Chemscore.Lipo.Weighted>
-7.0661

> <Gold.Chemscore.Internal_Hbond.Weighted>
0.0000

> <Gold.Chemscore.DEClash.Weighted>
1.0444

> <Gold.Chemscore.DEInternal.Weighted>
2.9889

> <Gold.Chemscore.Rot.Weighted>
3.3246

> <Gold.Chemscore.Internal.Correction.Weighted>
   9.000000E+99

> <Gold.Protein.RotatedTorsions>
[ 6907 6896 6895 6894 ] final  -58.52 input  -60.11 | X-H torsion
[ 7974 7965 7964 7962 ] final  -14.47 input  175.53 | X-H torsion
[ 8008 7997 7996 7995 ] final  151.72 input   59.86 | X-H torsion
[ 10167 10162 10161 10158 ] final  118.57 input  -65.29 | X-H torsion
[ 10718 10713 10712 10709 ] final -175.68 input   66.30 | X-H torsion
[ 10763 10752 10751 10750 ] final  -25.90 input  -60.55 | X-H torsion
[ 11005 11000 10999 10996 ] final   33.43 input  -57.11 | X-H torsion

> <Gold.Protein.ActiveResidues>
 VAL166  LYS551  ARG553  GLY616  TRP617  ASP618  TYR619  PRO620  LYS621  CYS622 
 ASP623  PHE694  ASN695  SER759  ASP760  ASP761  ALA762  ILE779  LEU786  VAL792 
 PHE793  MET794  SER795  GLU796  ALA797  LYS798  CYS799  TRP800  GLU811  SER814 

> <Gold.Protein.RotatedAtoms>
  150.8000  134.7087  159.6591 H   0  0  0  0  0  0  0  0  0  0  0  0  # atno 6907 bound_to 6896
  152.4116  134.6111  160.0035 H   0  0  0  0  0  0  0  0  0  0  0  0  # atno 6908 bound_to 6896
  151.6352  133.3292  159.3154 H   0  0  0  0  0  0  0  0  0  0  0  0  # atno 6909 bound_to 6896
  146.2072  140.3354  142.8403 H   0  0  0  0  0  0  0  0  0  0  0  0  # atno 7974 bound_to 7965
  156.2661  140.2040  156.6221 H   0  0  0  0  0  0  0  0  0  0  0  0  # atno 8008 bound_to 7997
  154.6749  140.0546  157.0229 H   0  0  0  0  0  0  0  0  0  0  0  0  # atno 8009 bound_to 7997
  155.1084  140.3213  155.4531 H   0  0  0  0  0  0  0  0  0  0  0  0  # atno 8010 bound_to 7997
  139.6102  144.7080  151.2860 H   0  0  0  0  0  0  0  0  0  0  0  0  # atno 10167 bound_to 10162
  156.8035  130.9561  151.3118 H   0  0  0  0  0  0  0  0  0  0  0  0  # atno 10718 bound_to 10713
  153.7073  135.6953  153.5047 H   0  0  0  0  0  0  0  0  0  0  0  0  # atno 10763 bound_to 10752
  153.2298  135.4341  155.0582 H   0  0  0  0  0  0  0  0  0  0  0  0  # atno 10764 bound_to 10752
  154.8326  135.3481  154.6611 H   0  0  0  0  0  0  0  0  0  0  0  0  # atno 10765 bound_to 10752
  140.2632  134.3168  155.7851 H   0  0  0  0  0  0  0  0  0  0  0  0  # atno 11005 bound_to 11000
  144.8823  140.7416  143.5979 LP  0  0  0  0  0  0  0  0  0  0  0  0  # atno 17320 bound_to 7965
  145.3274  139.1770  143.4555 LP  0  0  0  0  0  0  0  0  0  0  0  0  # atno 17321 bound_to 7965
  140.7314  143.6853  150.7967 LP  0  0  0  0  0  0  0  0  0  0  0  0  # atno 17342 bound_to 10162
  140.0446  143.5311  152.2702 LP  0  0  0  0  0  0  0  0  0  0  0  0  # atno 17343 bound_to 10162
  157.6542  130.8910  149.9694 LP  0  0  0  0  0  0  0  0  0  0  0  0  # atno 17370 bound_to 10713
  156.1087  130.3651  150.0088 LP  0  0  0  0  0  0  0  0  0  0  0  0  # atno 17371 bound_to 10713
  141.2187  133.7422  156.9219 LP  0  0  0  0  0  0  0  0  0  0  0  0  # atno 17394 bound_to 11000
  140.1445  134.9272  157.2510 LP  0  0  0  0  0  0  0  0  0  0  0  0  # atno 17395 bound_to 11000

$$$$
