AV-unprocessed.smi:3042|AV-procd|sdf|11600|dock7
  -GOLD-   2272016583D 1   1.00000     0.00000
 Structure written by MMmdl.
 33 34  0  0  0  0  0  0  0  0  2 V2000
  148.5181  142.2980  155.3504 N   0  3  0  0  0  0  0  0  0  0  0  0
  149.0413  141.1845  156.1631 C   0  0  0  0  0  0  0  0  0  0  0  0
  150.5801  141.0412  156.0360 C   0  0  1  0  0  0  0  0  0  0  0  0
  151.2326  141.6290  157.2867 C   0  0  0  0  0  0  0  0  0  0  0  0
  152.0142  140.8321  158.1525 C   0  0  0  0  0  0  0  0  0  0  0  0
  152.5835  141.4252  159.2952 C   0  0  0  0  0  0  0  0  0  0  0  0
  152.3520  142.7956  159.5257 C   0  0  0  0  0  0  0  0  0  0  0  0
  151.6076  143.5686  158.7061 N   0  0  0  0  0  0  0  0  0  0  0  0
  151.0662  142.9932  157.6118 C   0  0  0  0  0  0  0  0  0  0  0  0
  151.0464  139.6621  155.7806 N   0  0  0  0  0  0  0  0  0  0  0  0
  152.4750  139.6196  155.4457 C   0  0  0  0  0  0  0  0  0  0  0  0
  152.9766  138.1905  155.1782 C   0  0  0  0  0  0  0  0  0  0  0  0
  152.2116  137.6076  154.1313 O   0  0  0  0  0  0  0  0  0  0  0  0
  150.8233  137.5690  154.4340 C   0  0  0  0  0  0  0  0  0  0  0  0
  150.3097  138.9945  154.7035 C   0  0  0  0  0  0  0  0  0  0  0  0
  148.8814  142.2303  154.4104 H   0  0  0  0  0  0  0  0  0  0  0  0
  148.8018  143.1770  155.7587 H   0  0  0  0  0  0  0  0  0  0  0  0
  148.7512  141.3406  157.2027 H   0  0  0  0  0  0  0  0  0  0  0  0
  148.5255  140.2901  155.8170 H   0  0  0  0  0  0  0  0  0  0  0  0
  150.8901  141.6589  155.1913 H   0  0  0  0  0  0  0  0  0  0  0  0
  152.1744  139.7841  157.9456 H   0  0  0  0  0  0  0  0  0  0  0  0
  153.1853  140.8444  159.9787 H   0  0  0  0  0  0  0  0  0  0  0  0
  152.7745  143.2829  160.3918 H   0  0  0  0  0  0  0  0  0  0  0  0
  150.4770  143.6412  156.9796 H   0  0  0  0  0  0  0  0  0  0  0  0
  152.6657  140.2362  154.5659 H   0  0  0  0  0  0  0  0  0  0  0  0
  153.0735  140.0404  156.2533 H   0  0  0  0  0  0  0  0  0  0  0  0
  154.0262  138.2070  154.8846 H   0  0  0  0  0  0  0  0  0  0  0  0
  152.9046  137.5791  156.0792 H   0  0  0  0  0  0  0  0  0  0  0  0
  150.2884  137.1264  153.5938 H   0  0  0  0  0  0  0  0  0  0  0  0
  150.6494  136.9258  155.2983 H   0  0  0  0  0  0  0  0  0  0  0  0
  149.2533  138.9145  154.9532 H   0  0  0  0  0  0  0  0  0  0  0  0
  150.3774  139.5833  153.7875 H   0  0  0  0  0  0  0  0  0  0  0  0
  147.5094  142.2486  155.3263 H   0  0  0  0  0  0  0  0  0  0  0  0
  1  2  1  0  0  0  0
  1 16  1  0  0  0  0
  1 17  1  0  0  0  0
  1 33  1  0  0  0  0
  2  3  1  0  0  0  0
  2 18  1  0  0  0  0
  2 19  1  0  0  0  0
  3  4  1  0  0  0  0
  3 10  1  0  0  0  0
  3 20  1  0  0  0  0
  4  9  1  0  0  0  0
  4  5  2  0  0  0  0
  5  6  1  0  0  0  0
  5 21  1  0  0  0  0
  6  7  2  0  0  0  0
  6 22  1  0  0  0  0
  7  8  1  0  0  0  0
  7 23  1  0  0  0  0
  8  9  2  0  0  0  0
  9 24  1  0  0  0  0
 10 15  1  0  0  0  0
 10 11  1  0  0  0  0
 11 12  1  0  0  0  0
 11 25  1  0  0  0  0
 11 26  1  0  0  0  0
 12 13  1  0  0  0  0
 12 27  1  0  0  0  0
 12 28  1  0  0  0  0
 13 14  1  0  0  0  0
 14 15  1  0  0  0  0
 14 29  1  0  0  0  0
 14 30  1  0  0  0  0
 15 31  1  0  0  0  0
 15 32  1  0  0  0  0
M  CHG  1   1   1
M  END
> <s_m_source_file>
AV-unprocessed.smi

> <i_m_source_file_index>
3042

> <i_lp_mmshare_version>
43012

> <i_f3d_flags>
0

> <s_epik_input>
W0NIMl0xW0NIMl1PW0NIMl1bQ0gyXU4xW0NASF0oW0NIMl1bTkgyXSljMltjSF1bY0hdW2NIXW5bY0hdMg==

> <s_epik_cmdline>
J2VwaWtfcHl0aG9uJywgJy1waCcsICc3LjAnLCAnLXRuJywgJzgnLCAnLW1hJywgJzIwMCcsICctbWV0YWxfYmluZGluZycsICctaW1hZScsICc8aW5maWxlLm1hZT4nLCAnLW9tYWUnLCAnPG91dGZpbGUubWFlPic=

> <r_epik_Ionization_Penalty>
0.0112597

> <r_epik_Ionization_Penalty_Charging>
0.00794922

> <r_epik_Ionization_Penalty_Neutral>
0.00331052

> <r_epik_State_Penalty>
0.00596555

> <r_epik_Charging_Adjusted_Penalty>
0.0139148

> <i_epik_Tot_Q>
1

> <i_epik_Tot_abs_Q>
1

> <r_epik_Metal_State_Penalty>
0.00603286

> <b_epik_Metal_Only>
0

> <s_lp_Force_Field>
OPLS_2005

> <r_lp_Energy>
28.2789

> <b_lp_Chiralities_Consistent>
1

> <s_lp_Variant>
AV-unprocessed.smi:3042-2

> <Gold.Version>
5.8.1

> <Gold.Id.Protein>
6NUR|6NUR_protein|mol2

> <Gold.PLP.Fitness>
39.4073

> <Gold.PLP.PLP>
-29.4844

> <Gold.PLP.part.hbond>
-1.7673

> <Gold.PLP.part.metal>
0.0000

> <Gold.PLP.part.buried>
-3.1806

> <Gold.PLP.part.nonpolar>
-26.1827

> <Gold.PLP.part.repulsive>
0.3767

> <Gold.PLP.ligand.clash>
0.0000

> <Gold.PLP.ligand.torsion>
0.7999

> <Gold.PLP.Chemscore.Hbond>
2.8160

> <Gold.PLP.Chemscore.CHOScore>
1.0000

> <Gold.PLP.Chemscore.Metal>
0.0000

> <Gold.Chemscore.Hbonds>
donor molecule, donor type, donor heavy atom, donor atom, acceptor molecule, acceptor atom, score
      L1  H     1    17       P1  8028  1.92
      P1  H 10752 10765       L1    13  0.72
      L1  C     9    24       P1  8028  1.00

> <Gold.PLP.Chemscore.Internal.Correction>
0.0748

> <Gold.Rescore>
     Score         DG    S(hbond)    S(metal)    S(lipo)     H(rot)  DE(clash)    DE(int)     intcor
     15.87     -17.02       1.62        0.00      84.91       1.48       0.08       1.06       ----

> <Gold.Chemscore.Fitness>
15.8695

> <Gold.Chemscore.DG>
-17.0157

> <Gold.Chemscore.ZeroCoef>
-5.4800

> <Gold.Chemscore.Hbond>
1.6173

> <Gold.Chemscore.Metal>
0.0000

> <Gold.Chemscore.Lipo>
84.9082

> <Gold.Chemscore.Internal_Hbond>
0.0000

> <Gold.Chemscore.DEClash>
0.0837

> <Gold.Chemscore.DEInternal>
1.0625

> <Gold.Chemscore.Rot>
1.4846

> <Gold.Chemscore.Internal.Correction>
   9.000000E+99

> <Gold.Chemscore.Hbonds>
donor molecule, donor type, donor heavy atom, donor atom, acceptor molecule, acceptor atom, score
      L1  H     1    17       P1  8028  0.87
      P1  H 10752 10765       L1    13  0.11

> <Gold.Chemscore.Hbond.Weighted>
-5.4019

> <Gold.Chemscore.Metal.Weighted>
-0.0000

> <Gold.Chemscore.Lipo.Weighted>
-9.9343

> <Gold.Chemscore.Internal_Hbond.Weighted>
0.0000

> <Gold.Chemscore.DEClash.Weighted>
0.0837

> <Gold.Chemscore.DEInternal.Weighted>
1.0625

> <Gold.Chemscore.Rot.Weighted>
3.8005

> <Gold.Chemscore.Internal.Correction.Weighted>
   9.000000E+99

> <Gold.Protein.RotatedTorsions>
[ 6907 6896 6895 6894 ] final  114.55 input  -60.11 | X-H torsion
[ 7974 7965 7964 7962 ] final    3.99 input  175.53 | X-H torsion
[ 8008 7997 7996 7995 ] final  175.82 input   59.86 | X-H torsion
[ 10167 10162 10161 10158 ] final   23.07 input  -65.29 | X-H torsion
[ 10718 10713 10712 10709 ] final   26.82 input   66.30 | X-H torsion
[ 10763 10752 10751 10750 ] final  155.19 input  -60.55 | X-H torsion
[ 11005 11000 10999 10996 ] final  154.20 input  -57.11 | X-H torsion

> <Gold.Protein.ActiveResidues>
 VAL166  LYS551  ARG553  GLY616  TRP617  ASP618  TYR619  PRO620  LYS621  CYS622 
 ASP623  PHE694  ASN695  SER759  ASP760  ASP761  ALA762  ILE779  LEU786  VAL792 
 PHE793  MET794  SER795  GLU796  ALA797  LYS798  CYS799  TRP800  GLU811  SER814 

> <Gold.Protein.RotatedAtoms>
  152.4795  133.8220  159.7058 H   0  0  0  0  0  0  0  0  0  0  0  0  # atno 6907 bound_to 6896
  150.8835  133.7330  159.2931 H   0  0  0  0  0  0  0  0  0  0  0  0  # atno 6908 bound_to 6896
  151.4826  135.1056  159.9834 H   0  0  0  0  0  0  0  0  0  0  0  0  # atno 6909 bound_to 6896
  146.2444  140.0602  142.8369 H   0  0  0  0  0  0  0  0  0  0  0  0  # atno 7974 bound_to 7965
  156.0830  140.1399  156.9688 H   0  0  0  0  0  0  0  0  0  0  0  0  # atno 8008 bound_to 7997
  154.4596  140.0948  156.6905 H   0  0  0  0  0  0  0  0  0  0  0  0  # atno 8009 bound_to 7997
  155.5044  140.3452  155.4379 H   0  0  0  0  0  0  0  0  0  0  0  0  # atno 8010 bound_to 7997
  140.5298  143.9861  150.6459 H   0  0  0  0  0  0  0  0  0  0  0  0  # atno 10167 bound_to 10162
  157.2120  130.6938  149.6232 H   0  0  0  0  0  0  0  0  0  0  0  0  # atno 10718 bound_to 10713
  154.1643  135.2808  155.3099 H   0  0  0  0  0  0  0  0  0  0  0  0  # atno 10763 bound_to 10752
  154.6123  135.5495  153.7489 H   0  0  0  0  0  0  0  0  0  0  0  0  # atno 10764 bound_to 10752
  153.0183  135.6418  154.1785 H   0  0  0  0  0  0  0  0  0  0  0  0  # atno 10765 bound_to 10752
  140.1468  134.8702  157.2402 H   0  0  0  0  0  0  0  0  0  0  0  0  # atno 11005 bound_to 11000
  145.0907  140.9282  143.4771 LP  0  0  0  0  0  0  0  0  0  0  0  0  # atno 17320 bound_to 7965
  145.0774  139.2985  143.5801 LP  0  0  0  0  0  0  0  0  0  0  0  0  # atno 17321 bound_to 7965
  140.3233  143.3123  152.0762 LP  0  0  0  0  0  0  0  0  0  0  0  0  # atno 17342 bound_to 10162
  139.4950  144.6559  151.6573 LP  0  0  0  0  0  0  0  0  0  0  0  0  # atno 17343 bound_to 10162
  155.9690  130.4548  150.5864 LP  0  0  0  0  0  0  0  0  0  0  0  0  # atno 17370 bound_to 10713
  157.3663  131.0758  151.1595 LP  0  0  0  0  0  0  0  0  0  0  0  0  # atno 17371 bound_to 10713
  140.2654  134.3522  155.7392 LP  0  0  0  0  0  0  0  0  0  0  0  0  # atno 17394 bound_to 11000
  141.2193  133.7393  156.9143 LP  0  0  0  0  0  0  0  0  0  0  0  0  # atno 17395 bound_to 11000

$$$$
