AV-unprocessed.smi:719|AV-procd|sdf|3494|dock2
  -GOLD-   22720 0493D 1   1.00000     0.00000
 Structure written by MMmdl.
 41 43  0  0  0  0  0  0  0  0  1 V2000
  154.2104  133.4289  163.3586 C   0  0  0  0  0  0  0  0  0  0  0  0
  154.2530  134.5598  164.3920 C   0  0  0  0  0  0  0  0  0  0  0  0
  154.7060  135.8598  163.7949 C   0  0  0  0  0  0  0  0  0  0  0  0
  153.9614  136.4350  162.7605 N   0  0  0  0  0  0  0  0  0  0  0  0
  154.4860  137.5815  162.3233 C   0  0  0  0  0  0  0  0  0  0  0  0
  153.8721  138.4109  161.2460 C   0  0  0  0  0  0  0  0  0  0  0  0
  154.6314  139.7280  161.0181 C   0  0  0  0  0  0  0  0  0  0  0  0
  153.7256  140.8334  160.7269 N   0  0  0  0  0  0  0  0  0  0  0  0
  153.1575  141.0735  159.5353 C   0  0  0  0  0  0  0  0  0  0  0  0
  153.3413  140.3593  158.5485 O   0  0  0  0  0  0  0  0  0  0  0  0
  152.2803  142.2824  159.5149 C   0  0  2  0  0  0  0  0  0  0  0  0
  152.7282  143.4548  158.6607 C   0  0  1  0  0  0  0  0  0  0  0  0
  151.7646  144.5108  158.1703 C   0  0  0  0  0  0  0  0  0  0  0  0
  151.0013  144.9915  159.4168 C   0  0  0  0  0  0  0  0  0  0  0  0
  151.9123  144.6705  160.6144 C   0  0  0  0  0  0  0  0  0  0  0  0
  152.8178  143.5514  160.1533 C   0  0  1  0  0  0  0  0  0  0  0  0
  155.9361  138.0549  163.1965 S   0  0  0  0  0  0  0  0  0  0  0  0
  155.8032  136.6053  164.1591 C   0  0  0  0  0  0  0  0  0  0  0  0
  156.8035  136.3012  165.2247 C   0  0  0  0  0  0  0  0  0  0  0  0
  153.8718  132.4985  163.8147 H   0  0  0  0  0  0  0  0  0  0  0  0
  155.1966  133.2496  162.9294 H   0  0  0  0  0  0  0  0  0  0  0  0
  153.5275  133.6679  162.5428 H   0  0  0  0  0  0  0  0  0  0  0  0
  153.2660  134.6725  164.8413 H   0  0  0  0  0  0  0  0  0  0  0  0
  154.9175  134.2733  165.2079 H   0  0  0  0  0  0  0  0  0  0  0  0
  153.8493  137.8196  160.3300 H   0  0  0  0  0  0  0  0  0  0  0  0
  152.8342  138.6157  161.5108 H   0  0  0  0  0  0  0  0  0  0  0  0
  155.2007  139.9860  161.9115 H   0  0  0  0  0  0  0  0  0  0  0  0
  155.3559  139.6173  160.2093 H   0  0  0  0  0  0  0  0  0  0  0  0
  153.5196  141.4663  161.4864 H   0  0  0  0  0  0  0  0  0  0  0  0
  151.2084  142.1034  159.5878 H   0  0  0  0  0  0  0  0  0  0  0  0
  153.6507  143.3505  158.0918 H   0  0  0  0  0  0  0  0  0  0  0  0
  152.3360  145.3315  157.7355 H   0  0  0  0  0  0  0  0  0  0  0  0
  151.1022  144.1106  157.4024 H   0  0  0  0  0  0  0  0  0  0  0  0
  150.7367  146.0478  159.3632 H   0  0  0  0  0  0  0  0  0  0  0  0
  150.0723  144.4274  159.5098 H   0  0  0  0  0  0  0  0  0  0  0  0
  152.5261  145.5360  160.8665 H   0  0  0  0  0  0  0  0  0  0  0  0
  151.3505  144.3791  161.5022 H   0  0  0  0  0  0  0  0  0  0  0  0
  153.8029  143.5164  160.6160 H   0  0  0  0  0  0  0  0  0  0  0  0
  156.3077  136.1015  166.1749 H   0  0  0  0  0  0  0  0  0  0  0  0
  157.4891  137.1359  165.3740 H   0  0  0  0  0  0  0  0  0  0  0  0
  157.3944  135.4243  164.9602 H   0  0  0  0  0  0  0  0  0  0  0  0
  1  2  1  0  0  0  0
  1 20  1  0  0  0  0
  1 21  1  0  0  0  0
  1 22  1  0  0  0  0
  2  3  1  0  0  0  0
  2 23  1  0  0  0  0
  2 24  1  0  0  0  0
  3 18  2  0  0  0  0
  3  4  1  0  0  0  0
  4  5  2  0  0  0  0
  5  6  1  0  0  0  0
  5 17  1  0  0  0  0
  6  7  1  0  0  0  0
  6 25  1  0  0  0  0
  6 26  1  0  0  0  0
  7  8  1  0  0  0  0
  7 27  1  0  0  0  0
  7 28  1  0  0  0  0
  8  9  1  0  0  0  0
  8 29  1  0  0  0  0
  9 10  2  0  0  0  0
  9 11  1  0  0  0  0
 11 16  1  0  0  0  0
 11 12  1  0  0  0  0
 11 30  1  0  0  0  0
 12 16  1  0  0  0  0
 12 13  1  0  0  0  0
 12 31  1  0  0  0  0
 13 14  1  0  0  0  0
 13 32  1  0  0  0  0
 13 33  1  0  0  0  0
 14 15  1  0  0  0  0
 14 34  1  0  0  0  0
 14 35  1  0  0  0  0
 15 16  1  0  0  0  0
 15 36  1  0  0  0  0
 15 37  1  0  0  0  0
 16 38  1  0  0  0  0
 17 18  1  0  0  0  0
 18 19  1  0  0  0  0
 19 39  1  0  0  0  0
 19 40  1  0  0  0  0
 19 41  1  0  0  0  0
M  END
> <s_m_source_file>
AV-unprocessed.smi

> <i_m_source_file_index>
719

> <i_lp_mmshare_version>
43012

> <i_f3d_flags>
0

> <s_epik_input>
W0NIM11bQ0gyXWMxbmMoc2MxW0NIM10pW0NIMl1bQ0gyXVtOSF1DKD1PKVtDQEhdMltDQEhdKFtDQEBIXTIzKVtDSDJdW0NIMl1bQ0gyXTM=

> <s_epik_cmdline>
J2VwaWtfcHl0aG9uJywgJy1waCcsICc3LjAnLCAnLXRuJywgJzgnLCAnLW1hJywgJzIwMCcsICctbWV0YWxfYmluZGluZycsICctaW1hZScsICc8aW5maWxlLm1hZT4nLCAnLW9tYWUnLCAnPG91dGZpbGUubWFlPic=

> <r_epik_Ionization_Penalty>
0.00247473

> <r_epik_Ionization_Penalty_Charging>
0

> <r_epik_Ionization_Penalty_Neutral>
0.00247473

> <r_epik_State_Penalty>
0.00171502

> <r_epik_Charging_Adjusted_Penalty>
0.00171502

> <i_epik_Tot_Q>
0

> <i_epik_Tot_abs_Q>
0

> <r_epik_Metal_State_Penalty>
-0

> <b_epik_Metal_Only>
0

> <s_lp_Force_Field>
OPLS_2005

> <r_lp_Energy>
19.4586

> <b_lp_Chiralities_Consistent>
1

> <s_lp_Variant>
AV-unprocessed.smi:719-2

> <Gold.Version>
5.8.1

> <Gold.Id.Protein>
6NUR|6NUR_protein|mol2

> <Gold.PLP.Fitness>
43.0696

> <Gold.PLP.PLP>
-41.5513

> <Gold.PLP.part.hbond>
-1.0000

> <Gold.PLP.part.metal>
0.0000

> <Gold.PLP.part.buried>
-4.4342

> <Gold.PLP.part.nonpolar>
-36.5336

> <Gold.PLP.part.repulsive>
0.0455

> <Gold.PLP.ligand.clash>
0.0000

> <Gold.PLP.ligand.torsion>
0.6159

> <Gold.PLP.Chemscore.Hbond>
0.8800

> <Gold.PLP.Chemscore.CHOScore>
0.0000

> <Gold.PLP.Chemscore.Metal>
0.0000

> <Gold.Chemscore.Hbonds>
donor molecule, donor type, donor heavy atom, donor atom, acceptor molecule, acceptor atom, score
      P1  H  7997  8010       L1    10  0.86

> <Gold.PLP.Chemscore.Internal.Correction>
0.1100

> <Gold.Rescore>
     Score         DG    S(hbond)    S(metal)    S(lipo)     H(rot)  DE(clash)    DE(int)     intcor
     19.58     -20.17       0.89        0.00     131.11       1.42       0.05       0.54       ----

> <Gold.Chemscore.Fitness>
19.5819

> <Gold.Chemscore.DG>
-20.1675

> <Gold.Chemscore.ZeroCoef>
-5.4800

> <Gold.Chemscore.Hbond>
0.8939

> <Gold.Chemscore.Metal>
0.0000

> <Gold.Chemscore.Lipo>
131.1050

> <Gold.Chemscore.Internal_Hbond>
0.0000

> <Gold.Chemscore.DEClash>
0.0472

> <Gold.Chemscore.DEInternal>
0.5384

> <Gold.Chemscore.Rot>
1.4209

> <Gold.Chemscore.Internal.Correction>
   9.000000E+99

> <Gold.Chemscore.Hbonds>
donor molecule, donor type, donor heavy atom, donor atom, acceptor molecule, acceptor atom, score
      P1  H  7997  8010       L1    10  0.83

> <Gold.Chemscore.Hbond.Weighted>
-2.9857

> <Gold.Chemscore.Metal.Weighted>
-0.0000

> <Gold.Chemscore.Lipo.Weighted>
-15.3393

> <Gold.Chemscore.Internal_Hbond.Weighted>
0.0000

> <Gold.Chemscore.DEClash.Weighted>
0.0472

> <Gold.Chemscore.DEInternal.Weighted>
0.5384

> <Gold.Chemscore.Rot.Weighted>
3.6376

> <Gold.Chemscore.Internal.Correction.Weighted>
   9.000000E+99

> <Gold.Protein.RotatedTorsions>
[ 6907 6896 6895 6894 ] final  -55.82 input  -60.11 | X-H torsion
[ 7974 7965 7964 7962 ] final   15.17 input  175.53 | X-H torsion
[ 8008 7997 7996 7995 ] final   27.85 input   59.86 | X-H torsion
[ 10167 10162 10161 10158 ] final  153.87 input  -65.29 | X-H torsion
[ 10718 10713 10712 10709 ] final   56.87 input   66.30 | X-H torsion
[ 10763 10752 10751 10750 ] final   17.27 input  -60.55 | X-H torsion
[ 11005 11000 10999 10996 ] final   97.61 input  -57.11 | X-H torsion

> <Gold.Protein.ActiveResidues>
 VAL166  LYS551  ARG553  GLY616  TRP617  ASP618  TYR619  PRO620  LYS621  CYS622 
 ASP623  PHE694  ASN695  SER759  ASP760  ASP761  ALA762  ILE779  LEU786  VAL792 
 PHE793  MET794  SER795  GLU796  ALA797  LYS798  CYS799  TRP800  GLU811  SER814 

> <Gold.Protein.RotatedAtoms>
  150.8219  134.7431  159.6779 H   0  0  0  0  0  0  0  0  0  0  0  0  # atno 6907 bound_to 6896
  152.4334  134.5731  159.9936 H   0  0  0  0  0  0  0  0  0  0  0  0  # atno 6908 bound_to 6896
  151.5913  133.3329  159.3064 H   0  0  0  0  0  0  0  0  0  0  0  0  # atno 6909 bound_to 6896
  146.2285  139.8933  142.8551 H   0  0  0  0  0  0  0  0  0  0  0  0  # atno 7974 bound_to 7965
  155.0494  140.3178  155.4697 H   0  0  0  0  0  0  0  0  0  0  0  0  # atno 8008 bound_to 7997
  156.2838  140.2149  156.5563 H   0  0  0  0  0  0  0  0  0  0  0  0  # atno 8009 bound_to 7997
  154.7223  140.0488  157.0638 H   0  0  0  0  0  0  0  0  0  0  0  0  # atno 8010 bound_to 7997
  139.4825  144.5236  151.7837 H   0  0  0  0  0  0  0  0  0  0  0  0  # atno 10167 bound_to 10162
  157.5467  130.8736  149.8902 H   0  0  0  0  0  0  0  0  0  0  0  0  # atno 10718 bound_to 10713
  153.1354  135.6749  153.9111 H   0  0  0  0  0  0  0  0  0  0  0  0  # atno 10763 bound_to 10752
  153.8584  135.3084  155.3437 H   0  0  0  0  0  0  0  0  0  0  0  0  # atno 10764 bound_to 10752
  154.7743  135.4923  153.9795 H   0  0  0  0  0  0  0  0  0  0  0  0  # atno 10765 bound_to 10752
  139.8775  134.9009  156.4333 H   0  0  0  0  0  0  0  0  0  0  0  0  # atno 11005 bound_to 11000
  145.2396  141.0004  143.3944 LP  0  0  0  0  0  0  0  0  0  0  0  0  # atno 17320 bound_to 7965
  144.9463  139.4132  143.6424 LP  0  0  0  0  0  0  0  0  0  0  0  0  # atno 17321 bound_to 7965
  140.4753  144.1528  150.5924 LP  0  0  0  0  0  0  0  0  0  0  0  0  # atno 17342 bound_to 10162
  140.4337  143.2556  151.9562 LP  0  0  0  0  0  0  0  0  0  0  0  0  # atno 17343 bound_to 10162
  156.0542  130.3711  150.1130 LP  0  0  0  0  0  0  0  0  0  0  0  0  # atno 17370 bound_to 10713
  156.9306  130.9712  151.3533 LP  0  0  0  0  0  0  0  0  0  0  0  0  # atno 17371 bound_to 10713
  140.9051  133.7751  155.9726 LP  0  0  0  0  0  0  0  0  0  0  0  0  # atno 17394 bound_to 11000
  140.8608  134.2843  157.5235 LP  0  0  0  0  0  0  0  0  0  0  0  0  # atno 17395 bound_to 11000

$$$$
