AV-unprocessed.smi:153|AV-procd|sdf|1264|dock6
  -GOLD-   2262018513D 1   1.00000     0.00000
 Structure written by MMmdl.
 59 62  0  0  0  0  0  0  0  0  1 V2000
  152.7902  142.2886  160.8079 C   0  0  0  0  0  0  0  0  0  0  0  0
  152.8876  142.4881  159.2827 C   0  0  2  0  0  0  0  0  0  0  0  0
  153.1739  143.8635  159.0495 O   0  0  0  0  0  0  0  0  0  0  0  0
  151.9703  144.5922  158.8219 C   0  0  0  0  0  0  0  0  0  0  0  0
  150.8549  143.5554  158.6641 C   0  0  0  0  0  0  0  0  0  0  0  0
  151.5879  142.2276  158.4918 C   0  0  2  0  0  0  0  0  0  0  0  0
  150.8216  141.1864  159.0684 O   0  0  0  0  0  0  0  0  0  0  0  0
  151.8262  141.8206  157.0107 C   0  0  0  0  0  0  0  0  0  0  0  0
  150.6446  141.3333  156.3165 N   0  0  0  0  0  0  0  0  0  0  0  0
  149.3960  141.9108  156.3103 C   0  0  0  0  0  0  0  0  0  0  0  0
  148.4882  141.2598  155.6384 N   0  0  0  0  0  0  0  0  0  0  0  0
  149.1596  140.1529  155.1299 C   0  0  0  0  0  0  0  0  0  0  0  0
  148.7781  139.0284  154.3386 C   0  0  0  0  0  0  0  0  0  0  0  0
  147.4992  138.7779  153.9438 N   0  0  0  0  0  0  0  0  0  0  0  0
  146.6044  139.9152  153.7461 C   0  0  0  0  0  0  0  0  0  0  0  0
  147.2726  137.5895  153.1192 C   0  0  0  0  0  0  0  0  0  0  0  0
  146.5931  137.8932  151.7633 C   0  0  1  0  0  0  0  0  0  0  0  0
  147.3909  138.7390  150.9579 O   0  0  0  0  0  0  0  0  0  0  0  0
  146.2560  136.6205  150.9539 C   0  0  0  0  0  0  0  0  0  0  0  0
  145.4450  135.6024  151.6312 N   0  0  0  0  0  0  0  0  0  0  0  0
  145.3100  134.3662  150.8614 C   0  0  0  0  0  0  0  0  0  0  0  0
  144.4296  133.3308  151.5823 C   0  0  0  0  0  0  0  0  0  0  0  0
  143.1544  133.8964  151.8653 O   0  0  0  0  0  0  0  0  0  0  0  0
  143.2423  135.0756  152.6580 C   0  0  0  0  0  0  0  0  0  0  0  0
  144.1134  136.1170  151.9345 C   0  0  0  0  0  0  0  0  0  0  0  0
  149.7608  138.1513  153.9978 N   0  0  0  0  0  0  0  0  0  0  0  0
  151.0141  138.3346  154.4209 C   0  0  0  0  0  0  0  0  0  0  0  0
  151.5005  139.3111  155.1873 N   0  0  0  0  0  0  0  0  0  0  0  0
  150.5286  140.2071  155.5201 C   0  0  0  0  0  0  0  0  0  0  0  0
  152.6096  141.2439  161.0612 H   0  0  0  0  0  0  0  0  0  0  0  0
  151.9882  142.8827  161.2460 H   0  0  0  0  0  0  0  0  0  0  0  0
  153.7204  142.5831  161.2940 H   0  0  0  0  0  0  0  0  0  0  0  0
  153.7058  141.8714  158.9104 H   0  0  0  0  0  0  0  0  0  0  0  0
  151.7697  145.2654  159.6557 H   0  0  0  0  0  0  0  0  0  0  0  0
  152.0834  145.1990  157.9237 H   0  0  0  0  0  0  0  0  0  0  0  0
  150.2598  143.5445  159.5788 H   0  0  0  0  0  0  0  0  0  0  0  0
  150.1729  143.7836  157.8454 H   0  0  0  0  0  0  0  0  0  0  0  0
  150.1215  141.5730  159.5718 H   0  0  0  0  0  0  0  0  0  0  0  0
  152.2166  142.6710  156.4498 H   0  0  0  0  0  0  0  0  0  0  0  0
  152.5929  141.0467  156.9546 H   0  0  0  0  0  0  0  0  0  0  0  0
  149.1718  142.8261  156.8383 H   0  0  0  0  0  0  0  0  0  0  0  0
  146.6217  140.5784  154.6119 H   0  0  0  0  0  0  0  0  0  0  0  0
  145.5771  139.5765  153.6110 H   0  0  0  0  0  0  0  0  0  0  0  0
  146.8905  140.4885  152.8636 H   0  0  0  0  0  0  0  0  0  0  0  0
  148.1826  137.0116  152.9790 H   0  0  0  0  0  0  0  0  0  0  0  0
  146.6159  136.9323  153.6901 H   0  0  0  0  0  0  0  0  0  0  0  0
  145.6577  138.4250  151.9399 H   0  0  0  0  0  0  0  0  0  0  0  0
  148.0492  139.1381  151.5057 H   0  0  0  0  0  0  0  0  0  0  0  0
  145.7008  136.9557  150.0768 H   0  0  0  0  0  0  0  0  0  0  0  0
  147.1708  136.1740  150.5608 H   0  0  0  0  0  0  0  0  0  0  0  0
  144.8852  134.5840  149.8803 H   0  0  0  0  0  0  0  0  0  0  0  0
  146.2866  133.9162  150.6893 H   0  0  0  0  0  0  0  0  0  0  0  0
  144.2976  132.4465  150.9587 H   0  0  0  0  0  0  0  0  0  0  0  0
  144.9031  133.0016  152.5087 H   0  0  0  0  0  0  0  0  0  0  0  0
  142.2395  135.4690  152.8239 H   0  0  0  0  0  0  0  0  0  0  0  0
  143.6593  134.8354  153.6372 H   0  0  0  0  0  0  0  0  0  0  0  0
  144.1941  137.0091  152.5564 H   0  0  0  0  0  0  0  0  0  0  0  0
  143.6161  136.4236  151.0131 H   0  0  0  0  0  0  0  0  0  0  0  0
  151.7268  137.5854  154.1094 H   0  0  0  0  0  0  0  0  0  0  0  0
  1  2  1  0  0  0  0
  1 30  1  0  0  0  0
  1 31  1  0  0  0  0
  1 32  1  0  0  0  0
  2  6  1  0  0  0  0
  2  3  1  0  0  0  0
  2 33  1  0  0  0  0
  3  4  1  0  0  0  0
  4  5  1  0  0  0  0
  4 34  1  0  0  0  0
  4 35  1  0  0  0  0
  5  6  1  0  0  0  0
  5 36  1  0  0  0  0
  5 37  1  0  0  0  0
  6  7  1  0  0  0  0
  6  8  1  0  0  0  0
  7 38  1  0  0  0  0
  8  9  1  0  0  0  0
  8 39  1  0  0  0  0
  8 40  1  0  0  0  0
  9 29  1  0  0  0  0
  9 10  1  0  0  0  0
 10 11  2  0  0  0  0
 10 41  1  0  0  0  0
 11 12  1  0  0  0  0
 12 29  2  0  0  0  0
 12 13  1  0  0  0  0
 13 14  1  0  0  0  0
 13 26  2  0  0  0  0
 14 15  1  0  0  0  0
 14 16  1  0  0  0  0
 15 42  1  0  0  0  0
 15 43  1  0  0  0  0
 15 44  1  0  0  0  0
 16 17  1  0  0  0  0
 16 45  1  0  0  0  0
 16 46  1  0  0  0  0
 17 18  1  0  0  0  0
 17 19  1  0  0  0  0
 17 47  1  0  0  0  0
 18 48  1  0  0  0  0
 19 20  1  0  0  0  0
 19 49  1  0  0  0  0
 19 50  1  0  0  0  0
 20 25  1  0  0  0  0
 20 21  1  0  0  0  0
 21 22  1  0  0  0  0
 21 51  1  0  0  0  0
 21 52  1  0  0  0  0
 22 23  1  0  0  0  0
 22 53  1  0  0  0  0
 22 54  1  0  0  0  0
 23 24  1  0  0  0  0
 24 25  1  0  0  0  0
 24 55  1  0  0  0  0
 24 56  1  0  0  0  0
 25 57  1  0  0  0  0
 25 58  1  0  0  0  0
 26 27  1  0  0  0  0
 27 28  2  0  0  0  0
 27 59  1  0  0  0  0
 28 29  1  0  0  0  0
M  END
> <s_m_source_file>
AV-unprocessed.smi

> <i_m_source_file_index>
153

> <i_lp_mmshare_version>
43012

> <i_f3d_flags>
0

> <s_epik_input>
W0NIMl0xW0NIMl1PW0NAQEhdKFtDSDNdKVtDQEBdMShbT0hdKVtDSDJdbihbY0hdbjIpYyhjMjMpbltjSF1uYzNOKFtDSDNdKVtDSDJdW0NASF0oW09IXSlbQ0gyXU40W0NIMl1bQ0gyXU9bQ0gyXVtDSDJdNA==

> <s_epik_cmdline>
J2VwaWtfcHl0aG9uJywgJy1waCcsICc3LjAnLCAnLXRuJywgJzgnLCAnLW1hJywgJzIwMCcsICctbWV0YWxfYmluZGluZycsICctaW1hZScsICc8aW5maWxlLm1hZT4nLCAnLW9tYWUnLCAnPG91dGZpbGUubWFlPic=

> <r_lp_tautomer_probability>
1

> <r_epik_Ionization_Penalty>
0.424123

> <r_epik_Ionization_Penalty_Charging>
0

> <r_epik_Ionization_Penalty_Neutral>
0.424123

> <r_epik_State_Penalty>
0.421495

> <r_epik_Charging_Adjusted_Penalty>
0.421495

> <i_epik_Tot_Q>
0

> <i_epik_Tot_abs_Q>
0

> <r_epik_Metal_State_Penalty>
0.421223

> <b_epik_Metal_Only>
0

> <s_lp_Force_Field>
OPLS_2005

> <r_lp_Energy>
59.2103

> <b_lp_Chiralities_Consistent>
1

> <s_lp_Variant>
AV-unprocessed.smi:153-15

> <Gold.Version>
5.8.1

> <Gold.Id.Protein>
6NUR|6NUR_protein|mol2

> <Gold.PLP.Fitness>
48.3987

> <Gold.PLP.PLP>
-42.2513

> <Gold.PLP.part.hbond>
-3.4788

> <Gold.PLP.part.metal>
0.0000

> <Gold.PLP.part.buried>
1.6269

> <Gold.PLP.part.nonpolar>
-41.4016

> <Gold.PLP.part.repulsive>
1.4257

> <Gold.PLP.ligand.clash>
0.0000

> <Gold.PLP.ligand.torsion>
0.6722

> <Gold.PLP.Chemscore.Hbond>
1.5093

> <Gold.PLP.Chemscore.CHOScore>
0.7852

> <Gold.PLP.Chemscore.Metal>
0.0000

> <Gold.Chemscore.Hbonds>
donor molecule, donor type, donor heavy atom, donor atom, acceptor molecule, acceptor atom, score
      L1  H    18    48       P1  7957  0.64
      P1  H  7954  7966       L1    18  0.85
      L1  C    10    41       P1  8028  0.79

> <Gold.PLP.Chemscore.Internal.Correction>
0.6083

> <Gold.Rescore>
     Score         DG    S(hbond)    S(metal)    S(lipo)     H(rot)  DE(clash)    DE(int)     intcor
      5.61     -11.96       0.76        0.00     110.70       3.52       4.56       1.80       ----

> <Gold.Chemscore.Fitness>
5.6069

> <Gold.Chemscore.DG>
-11.9599

> <Gold.Chemscore.ZeroCoef>
-5.4800

> <Gold.Chemscore.Hbond>
0.7580

> <Gold.Chemscore.Metal>
0.0000

> <Gold.Chemscore.Lipo>
110.6992

> <Gold.Chemscore.Internal_Hbond>
0.0000

> <Gold.Chemscore.DEClash>
4.5569

> <Gold.Chemscore.DEInternal>
1.7961

> <Gold.Chemscore.Rot>
3.5170

> <Gold.Chemscore.Internal.Correction>
   9.000000E+99

> <Gold.Chemscore.Hbonds>
donor molecule, donor type, donor heavy atom, donor atom, acceptor molecule, acceptor atom, score
      L1  H    18    48       P1  7957  0.56
      P1  H  7954  7966       L1    18  0.36

> <Gold.Chemscore.Hbond.Weighted>
-2.5316

> <Gold.Chemscore.Metal.Weighted>
-0.0000

> <Gold.Chemscore.Lipo.Weighted>
-12.9518

> <Gold.Chemscore.Internal_Hbond.Weighted>
0.0000

> <Gold.Chemscore.DEClash.Weighted>
4.5569

> <Gold.Chemscore.DEInternal.Weighted>
1.7961

> <Gold.Chemscore.Rot.Weighted>
9.0036

> <Gold.Chemscore.Internal.Correction.Weighted>
   9.000000E+99

> <Gold.Protein.RotatedTorsions>
[ 6907 6896 6895 6894 ] final   96.86 input  -60.11 | X-H torsion
[ 7974 7965 7964 7962 ] final -112.64 input  175.53 | X-H torsion
[ 8008 7997 7996 7995 ] final  129.65 input   59.86 | X-H torsion
[ 10167 10162 10161 10158 ] final -144.96 input  -65.29 | X-H torsion
[ 10718 10713 10712 10709 ] final  -44.35 input   66.30 | X-H torsion
[ 10763 10752 10751 10750 ] final   63.76 input  -60.55 | X-H torsion
[ 11005 11000 10999 10996 ] final   11.78 input  -57.11 | X-H torsion

> <Gold.Protein.ActiveResidues>
 VAL166  LYS551  ARG553  GLY616  TRP617  ASP618  TYR619  PRO620  LYS621  CYS622 
 ASP623  PHE694  ASN695  SER759  ASP760  ASP761  ALA762  ILE779  LEU786  VAL792 
 PHE793  MET794  SER795  GLU796  ALA797  LYS798  CYS799  TRP800  GLU811  SER814 

> <Gold.Protein.RotatedAtoms>
  152.5430  134.0822  159.8240 H   0  0  0  0  0  0  0  0  0  0  0  0  # atno 6907 bound_to 6896
  151.0922  133.5299  159.2621 H   0  0  0  0  0  0  0  0  0  0  0  0  # atno 6908 bound_to 6896
  151.2086  135.0481  159.8956 H   0  0  0  0  0  0  0  0  0  0  0  0  # atno 6909 bound_to 6896
  145.1416  140.8781  143.3699 H   0  0  0  0  0  0  0  0  0  0  0  0  # atno 7974 bound_to 7965
  156.2940  140.2615  156.2633 H   0  0  0  0  0  0  0  0  0  0  0  0  # atno 8008 bound_to 7997
  154.9767  140.0390  157.2277 H   0  0  0  0  0  0  0  0  0  0  0  0  # atno 8009 bound_to 7997
  154.7809  140.2795  155.6069 H   0  0  0  0  0  0  0  0  0  0  0  0  # atno 8010 bound_to 7997
  139.7850  143.8047  152.2643 H   0  0  0  0  0  0  0  0  0  0  0  0  # atno 10167 bound_to 10162
  156.2395  130.4179  149.8777 H   0  0  0  0  0  0  0  0  0  0  0  0  # atno 10718 bound_to 10713
  153.0030  135.5417  154.6403 H   0  0  0  0  0  0  0  0  0  0  0  0  # atno 10763 bound_to 10752
  154.5660  135.2837  155.0876 H   0  0  0  0  0  0  0  0  0  0  0  0  # atno 10764 bound_to 10752
  154.2060  135.6475  153.5153 H   0  0  0  0  0  0  0  0  0  0  0  0  # atno 10765 bound_to 10752
  140.4994  134.0761  155.7790 H   0  0  0  0  0  0  0  0  0  0  0  0  # atno 11005 bound_to 11000
  145.0526  139.3169  143.5921 LP  0  0  0  0  0  0  0  0  0  0  0  0  # atno 17320 bound_to 7965
  146.3504  139.9940  142.8683 LP  0  0  0  0  0  0  0  0  0  0  0  0  # atno 17321 bound_to 7965
  139.8121  144.7331  150.9683 LP  0  0  0  0  0  0  0  0  0  0  0  0  # atno 17342 bound_to 10162
  140.7819  143.4240  151.0796 LP  0  0  0  0  0  0  0  0  0  0  0  0  # atno 17343 bound_to 10162
  156.6364  130.8687  151.3505 LP  0  0  0  0  0  0  0  0  0  0  0  0  # atno 17370 bound_to 10713
  157.7169  130.9508  150.1289 LP  0  0  0  0  0  0  0  0  0  0  0  0  # atno 17371 bound_to 10713
  141.1443  133.9082  157.2252 LP  0  0  0  0  0  0  0  0  0  0  0  0  # atno 17394 bound_to 11000
  139.9722  135.0125  156.9541 LP  0  0  0  0  0  0  0  0  0  0  0  0  # atno 17395 bound_to 11000

$$$$
