AV-unprocessed.smi:36|AV-procd|sdf|280|dock6
  -GOLD-   2262016 53D 1   1.00000     0.00000
 Structure written by MMmdl.
 64 67  0  0  0  0  0  0  0  0  1 V2000
  145.9855  134.3511  163.1140 C   0  0  0  0  0  0  0  0  0  0  0  0
  147.2314  134.4546  162.2182 C   0  0  0  0  0  0  0  0  0  0  0  0
  148.1366  135.5894  162.7265 C   0  0  0  0  0  0  0  0  0  0  0  0
  148.0023  133.1245  162.2478 C   0  0  0  0  0  0  0  0  0  0  0  0
  146.6803  134.8200  160.4212 Si  0  0  0  0  0  0  0  0  0  0  0  0
  145.5382  133.4412  159.7857 C   0  0  0  0  0  0  0  0  0  0  0  0
  145.7883  136.4964  160.3127 C   0  0  0  0  0  0  0  0  0  0  0  0
  148.0436  134.8600  159.4166 O   0  0  0  0  0  0  0  0  0  0  0  0
  148.8480  133.7286  159.1530 C   0  0  0  0  0  0  0  0  0  0  0  0
  148.8916  133.4387  157.6407 C   0  0  1  0  0  0  0  0  0  0  0  0
  148.7201  134.6837  156.9624 O   0  0  0  0  0  0  0  0  0  0  0  0
  149.9168  135.0859  156.3626 C   0  0  1  0  0  0  0  0  0  0  0  0
  150.1959  136.4939  156.7668 N   0  0  0  0  0  0  0  0  0  0  0  0
  150.3635  137.0126  158.0326 C   0  0  0  0  0  0  0  0  0  0  0  0
  150.5961  138.2970  158.0828 N   0  0  0  0  0  0  0  0  0  0  0  0
  150.5924  138.6913  156.7508 C   0  0  0  0  0  0  0  0  0  0  0  0
  150.7742  139.9351  156.0933 C   0  0  0  0  0  0  0  0  0  0  0  0
  151.0003  141.0567  156.8161 N   0  0  0  0  0  0  0  0  0  0  0  0
  151.6964  141.1820  158.0843 C   0  0  0  0  0  0  0  0  0  0  0  0
  152.0912  140.2010  158.7154 O   0  0  0  0  0  0  0  0  0  0  0  0
  151.8327  142.5754  158.6254 C   0  0  0  0  0  0  0  0  0  0  0  0
  152.4368  142.7896  159.8849 C   0  0  0  0  0  0  0  0  0  0  0  0
  152.5897  144.0957  160.3894 C   0  0  0  0  0  0  0  0  0  0  0  0
  152.1473  145.1990  159.6356 C   0  0  0  0  0  0  0  0  0  0  0  0
  151.5543  144.9957  158.3753 C   0  0  0  0  0  0  0  0  0  0  0  0
  151.3994  143.6900  157.8703 C   0  0  0  0  0  0  0  0  0  0  0  0
  150.7026  139.9415  154.7358 N   0  0  0  0  0  0  0  0  0  0  0  0
  150.4701  138.8066  154.0688 C   0  0  0  0  0  0  0  0  0  0  0  0
  150.2792  137.5775  154.5539 N   0  0  0  0  0  0  0  0  0  0  0  0
  150.3472  137.5663  155.9162 C   0  0  0  0  0  0  0  0  0  0  0  0
  151.0162  134.1579  156.8720 C   0  0  0  0  0  0  0  0  0  0  0  0
  150.2220  132.8915  157.1001 C   0  0  1  0  0  0  0  0  0  0  0  0
  150.8877  131.9990  157.9691 O   0  0  0  0  0  0  0  0  0  0  0  0
  146.2575  134.1321  164.1471 H   0  0  0  0  0  0  0  0  0  0  0  0
  145.3172  133.5585  162.7770 H   0  0  0  0  0  0  0  0  0  0  0  0
  145.4183  135.2822  163.1150 H   0  0  0  0  0  0  0  0  0  0  0  0
  147.6280  136.5527  162.6896 H   0  0  0  0  0  0  0  0  0  0  0  0
  149.0456  135.6724  162.1323 H   0  0  0  0  0  0  0  0  0  0  0  0
  148.4418  135.4182  163.7594 H   0  0  0  0  0  0  0  0  0  0  0  0
  148.3499  132.8899  163.2545 H   0  0  0  0  0  0  0  0  0  0  0  0
  148.8762  133.1575  161.5973 H   0  0  0  0  0  0  0  0  0  0  0  0
  147.3774  132.2950  161.9164 H   0  0  0  0  0  0  0  0  0  0  0  0
  144.6429  133.3459  160.3996 H   0  0  0  0  0  0  0  0  0  0  0  0
  146.0377  132.4728  159.7863 H   0  0  0  0  0  0  0  0  0  0  0  0
  145.2112  133.6357  158.7646 H   0  0  0  0  0  0  0  0  0  0  0  0
  144.8890  136.5116  160.9279 H   0  0  0  0  0  0  0  0  0  0  0  0
  145.4841  136.7204  159.2905 H   0  0  0  0  0  0  0  0  0  0  0  0
  146.4245  137.3150  160.6487 H   0  0  0  0  0  0  0  0  0  0  0  0
  149.8546  133.9527  159.5074 H   0  0  0  0  0  0  0  0  0  0  0  0
  148.4995  132.8657  159.7191 H   0  0  0  0  0  0  0  0  0  0  0  0
  148.0649  132.7778  157.3781 H   0  0  0  0  0  0  0  0  0  0  0  0
  149.8122  135.0933  155.2770 H   0  0  0  0  0  0  0  0  0  0  0  0
  150.3044  136.4081  158.9251 H   0  0  0  0  0  0  0  0  0  0  0  0
  150.6704  141.9183  156.4058 H   0  0  0  0  0  0  0  0  0  0  0  0
  152.7844  141.9534  160.4745 H   0  0  0  0  0  0  0  0  0  0  0  0
  153.0490  144.2505  161.3546 H   0  0  0  0  0  0  0  0  0  0  0  0
  152.2666  146.2006  160.0215 H   0  0  0  0  0  0  0  0  0  0  0  0
  151.2207  145.8421  157.7929 H   0  0  0  0  0  0  0  0  0  0  0  0
  150.9500  143.5577  156.8968 H   0  0  0  0  0  0  0  0  0  0  0  0
  150.4289  138.8975  152.9935 H   0  0  0  0  0  0  0  0  0  0  0  0
  151.8191  134.0556  156.1413 H   0  0  0  0  0  0  0  0  0  0  0  0
  151.4273  134.5412  157.8076 H   0  0  0  0  0  0  0  0  0  0  0  0
  150.0502  132.3948  156.1441 H   0  0  0  0  0  0  0  0  0  0  0  0
  150.7375  131.1163  157.6661 H   0  0  0  0  0  0  0  0  0  0  0  0
  1  2  1  0  0  0  0
  1 34  1  0  0  0  0
  1 35  1  0  0  0  0
  1 36  1  0  0  0  0
  2  3  1  0  0  0  0
  2  4  1  0  0  0  0
  2  5  1  0  0  0  0
  3 37  1  0  0  0  0
  3 38  1  0  0  0  0
  3 39  1  0  0  0  0
  4 40  1  0  0  0  0
  4 41  1  0  0  0  0
  4 42  1  0  0  0  0
  5  6  1  0  0  0  0
  5  7  1  0  0  0  0
  5  8  1  0  0  0  0
  6 43  1  0  0  0  0
  6 44  1  0  0  0  0
  6 45  1  0  0  0  0
  7 46  1  0  0  0  0
  7 47  1  0  0  0  0
  7 48  1  0  0  0  0
  8  9  1  0  0  0  0
  9 10  1  0  0  0  0
  9 49  1  0  0  0  0
  9 50  1  0  0  0  0
 10 32  1  0  0  0  0
 10 11  1  0  0  0  0
 10 51  1  0  0  0  0
 11 12  1  0  0  0  0
 12 13  1  0  0  0  0
 12 31  1  0  0  0  0
 12 52  1  0  0  0  0
 13 30  1  0  0  0  0
 13 14  1  0  0  0  0
 14 15  2  0  0  0  0
 14 53  1  0  0  0  0
 15 16  1  0  0  0  0
 16 30  2  0  0  0  0
 16 17  1  0  0  0  0
 17 18  1  0  0  0  0
 17 27  2  0  0  0  0
 18 19  1  0  0  0  0
 18 54  1  0  0  0  0
 19 20  2  0  0  0  0
 19 21  1  0  0  0  0
 21 26  1  0  0  0  0
 21 22  2  0  0  0  0
 22 23  1  0  0  0  0
 22 55  1  0  0  0  0
 23 24  2  0  0  0  0
 23 56  1  0  0  0  0
 24 25  1  0  0  0  0
 24 57  1  0  0  0  0
 25 26  2  0  0  0  0
 25 58  1  0  0  0  0
 26 59  1  0  0  0  0
 27 28  1  0  0  0  0
 28 29  2  0  0  0  0
 28 60  1  0  0  0  0
 29 30  1  0  0  0  0
 31 32  1  0  0  0  0
 31 61  1  0  0  0  0
 31 62  1  0  0  0  0
 32 33  1  0  0  0  0
 32 63  1  0  0  0  0
 33 64  1  0  0  0  0
M  END
> <s_m_source_file>
AV-unprocessed.smi

> <i_m_source_file_index>
36

> <i_lp_mmshare_version>
43012

> <i_f3d_flags>
0

> <s_epik_input>
W0NIM11DKFtDSDNdKShbQ0gzXSlbU2ldKFtDSDNdKShbQ0gzXSlPW0NIMl1bQ0BASF0xT1tDQEhdKFtDSDJdW0NASF0xW09IXSluKFtjSF1uMiljKGMyMyluW2NIXW5jM1tOSF1DKD1PKWM0W2NIXVtjSF1bY0hdW2NIXVtjSF00

> <s_epik_cmdline>
J2VwaWtfcHl0aG9uJywgJy1waCcsICc3LjAnLCAnLXRuJywgJzgnLCAnLW1hJywgJzIwMCcsICctbWV0YWxfYmluZGluZycsICctaW1hZScsICc8aW5maWxlLm1hZT4nLCAnLW9tYWUnLCAnPG91dGZpbGUubWFlPic=

> <r_lp_tautomer_probability>
1

> <r_epik_Ionization_Penalty>
0.00150433

> <r_epik_Ionization_Penalty_Charging>
0

> <r_epik_Ionization_Penalty_Neutral>
0.00150433

> <r_epik_State_Penalty>
0.00724046

> <r_epik_Charging_Adjusted_Penalty>
0.00724046

> <i_epik_Tot_Q>
0

> <i_epik_Tot_abs_Q>
0

> <r_epik_Metal_State_Penalty>
0.323355

> <b_epik_Metal_Only>
0

> <s_epik_Chemistry_Notes>
This compound contains an acetal/aminal-like group ( X-CH(R)-Y where X, Y are N, S, or O) that may be acid/base labile, releasing an aldehyde.

> <s_lp_Force_Field>
OPLS_2005

> <r_lp_Energy>
33.9603

> <b_lp_Chiralities_Consistent>
1

> <s_lp_Variant>
AV-unprocessed.smi:36-2

> <Gold.Version>
5.8.1

> <Gold.Id.Protein>
6NUR|6NUR_protein|mol2

> <Gold.PLP.Fitness>
55.6392

> <Gold.PLP.PLP>
-48.5500

> <Gold.PLP.part.hbond>
-2.0000

> <Gold.PLP.part.metal>
0.0000

> <Gold.PLP.part.buried>
-7.1311

> <Gold.PLP.part.nonpolar>
-39.4747

> <Gold.PLP.part.repulsive>
0.3677

> <Gold.PLP.ligand.clash>
0.0000

> <Gold.PLP.ligand.torsion>
1.0671

> <Gold.PLP.Chemscore.Hbond>
2.0000

> <Gold.PLP.Chemscore.CHOScore>
1.0000

> <Gold.PLP.Chemscore.Metal>
0.0000

> <Gold.Chemscore.Hbonds>
donor molecule, donor type, donor heavy atom, donor atom, acceptor molecule, acceptor atom, score
      P1  H  6896  6909       L1    33  0.65
      P1  H  7989  7998       L1    27  1.00
      L1  C    28    60       P1  7957  1.00

> <Gold.PLP.Chemscore.Internal.Correction>
0.2235

> <Gold.Rescore>
     Score         DG    S(hbond)    S(metal)    S(lipo)     H(rot)  DE(clash)    DE(int)     intcor
     11.86     -16.00       0.84        0.00     124.99       2.70       0.17       3.97       ----

> <Gold.Chemscore.Fitness>
11.8600

> <Gold.Chemscore.DG>
-15.9968

> <Gold.Chemscore.ZeroCoef>
-5.4800

> <Gold.Chemscore.Hbond>
0.8430

> <Gold.Chemscore.Metal>
0.0000

> <Gold.Chemscore.Lipo>
124.9874

> <Gold.Chemscore.Internal_Hbond>
0.0000

> <Gold.Chemscore.DEClash>
0.1687

> <Gold.Chemscore.DEInternal>
3.9681

> <Gold.Chemscore.Rot>
2.7041

> <Gold.Chemscore.Internal.Correction>
   9.000000E+99

> <Gold.Chemscore.Hbonds>
donor molecule, donor type, donor heavy atom, donor atom, acceptor molecule, acceptor atom, score
      P1  H  6896  6909       L1    33  0.06
      P1  H  7989  7998       L1    27  0.26

> <Gold.Chemscore.Hbond.Weighted>
-2.8158

> <Gold.Chemscore.Metal.Weighted>
-0.0000

> <Gold.Chemscore.Lipo.Weighted>
-14.6235

> <Gold.Chemscore.Internal_Hbond.Weighted>
0.0000

> <Gold.Chemscore.DEClash.Weighted>
0.1687

> <Gold.Chemscore.DEInternal.Weighted>
3.9681

> <Gold.Chemscore.Rot.Weighted>
6.9225

> <Gold.Chemscore.Internal.Correction.Weighted>
   9.000000E+99

> <Gold.Protein.RotatedTorsions>
[ 6907 6896 6895 6894 ] final  -38.61 input  -60.11 | X-H torsion
[ 7974 7965 7964 7962 ] final -108.51 input  175.53 | X-H torsion
[ 8008 7997 7996 7995 ] final  -25.67 input   59.86 | X-H torsion
[ 10167 10162 10161 10158 ] final   66.80 input  -65.29 | X-H torsion
[ 10718 10713 10712 10709 ] final  146.63 input   66.30 | X-H torsion
[ 10763 10752 10751 10750 ] final   30.97 input  -60.55 | X-H torsion
[ 11005 11000 10999 10996 ] final  -78.17 input  -57.11 | X-H torsion

> <Gold.Protein.ActiveResidues>
 VAL166  LYS551  ARG553  GLY616  TRP617  ASP618  TYR619  PRO620  LYS621  CYS622 
 ASP623  PHE694  ASN695  SER759  ASP760  ASP761  ALA762  ILE779  LEU786  VAL792 
 PHE793  MET794  SER795  GLU796  ALA797  LYS798  CYS799  TRP800  GLU811  SER814 

> <Gold.Protein.RotatedAtoms>
  151.0004  134.9317  159.7950 H   0  0  0  0  0  0  0  0  0  0  0  0  # atno 6907 bound_to 6896
  152.5276  134.3162  159.9142 H   0  0  0  0  0  0  0  0  0  0  0  0  # atno 6908 bound_to 6896
  151.3168  133.4015  159.2685 H   0  0  0  0  0  0  0  0  0  0  0  0  # atno 6909 bound_to 6896
  145.1920  140.9019  143.3419 H   0  0  0  0  0  0  0  0  0  0  0  0  # atno 7974 bound_to 7965
  154.4463  140.1920  156.0656 H   0  0  0  0  0  0  0  0  0  0  0  0  # atno 8008 bound_to 7997
  156.0550  140.3304  155.7367 H   0  0  0  0  0  0  0  0  0  0  0  0  # atno 8009 bound_to 7997
  155.5500  140.0594  157.2843 H   0  0  0  0  0  0  0  0  0  0  0  0  # atno 8010 bound_to 7997
  140.0965  144.4942  150.7065 H   0  0  0  0  0  0  0  0  0  0  0  0  # atno 10167 bound_to 10162
  157.3309  131.0920  151.1163 H   0  0  0  0  0  0  0  0  0  0  0  0  # atno 10718 bound_to 10713
  153.0341  135.6451  154.1127 H   0  0  0  0  0  0  0  0  0  0  0  0  # atno 10763 bound_to 10752
  154.0845  135.2871  155.3285 H   0  0  0  0  0  0  0  0  0  0  0  0  # atno 10764 bound_to 10752
  154.6507  135.5427  153.7962 H   0  0  0  0  0  0  0  0  0  0  0  0  # atno 10765 bound_to 10752
  141.1664  133.7052  156.7931 H   0  0  0  0  0  0  0  0  0  0  0  0  # atno 11005 bound_to 11000
  145.0032  139.3579  143.6157 LP  0  0  0  0  0  0  0  0  0  0  0  0  # atno 17320 bound_to 7965
  146.3434  139.9263  142.8759 LP  0  0  0  0  0  0  0  0  0  0  0  0  # atno 17321 bound_to 7965
  140.7001  143.2429  151.4889 LP  0  0  0  0  0  0  0  0  0  0  0  0  # atno 17342 bound_to 10162
  139.5695  144.1961  152.1816 LP  0  0  0  0  0  0  0  0  0  0  0  0  # atno 17343 bound_to 10162
  157.2412  130.6570  149.5890 LP  0  0  0  0  0  0  0  0  0  0  0  0  # atno 17370 bound_to 10713
  155.9696  130.4568  150.5938 LP  0  0  0  0  0  0  0  0  0  0  0  0  # atno 17371 bound_to 10713
  140.2311  134.8685  157.3477 LP  0  0  0  0  0  0  0  0  0  0  0  0  # atno 17394 bound_to 11000
  140.1890  134.4395  155.7727 LP  0  0  0  0  0  0  0  0  0  0  0  0  # atno 17395 bound_to 11000

$$$$
