AV-unprocessed.smi:1157|AV-procd|sdf|4910|dock1
  -GOLD-   22720 3483D 1   1.00000     0.00000
 Structure written by MMmdl.
 55 57  0  0  0  0  0  0  0  0  4 V2000
  150.1943  133.2901  154.5566 C   0  0  0  0  0  0  0  0  0  0  0  0
  149.0091  134.1883  155.0189 C   0  0  0  0  0  0  0  0  0  0  0  0
  148.4087  133.4761  156.2672 C   0  0  0  0  0  0  0  0  0  0  0  0
  149.5212  135.6340  155.3963 C   0  0  0  0  0  0  0  0  0  0  0  0
  150.5728  135.5974  156.4188 N   0  5  0  0  0  0  0  0  0  0  0  0
  150.8826  136.6203  157.2595 C   0  0  0  0  0  0  0  0  0  0  0  0
  151.0357  136.5687  158.4849 O   0  0  0  0  0  0  0  0  0  0  0  0
  151.0049  137.7898  156.6061 N   0  0  0  0  0  0  0  0  0  0  0  0
  151.2733  139.0837  157.1280 C   0  0  0  0  0  0  0  0  0  0  0  0
  150.9110  140.1977  156.3426 C   0  0  0  0  0  0  0  0  0  0  0  0
  151.1654  141.5011  156.8159 C   0  0  0  0  0  0  0  0  0  0  0  0
  151.7961  141.6799  158.0696 C   0  0  0  0  0  0  0  0  0  0  0  0
  152.0697  142.9499  158.6113 N   0  0  0  0  0  0  0  0  0  0  0  0
  151.4644  144.1589  158.0767 C   0  0  0  0  0  0  0  0  0  0  0  0
  151.9249  145.2678  159.0218 C   0  0  0  0  0  0  0  0  0  0  0  0
  152.0284  144.5537  160.3701 C   0  0  0  0  0  0  0  0  0  0  0  0
  152.4476  143.1239  160.0064 C   0  0  0  0  0  0  0  0  0  0  0  0
  152.1424  140.5816  158.7823 N   0  3  0  0  0  0  0  0  0  0  0  0
  151.9162  139.3164  158.3667 C   0  0  0  0  0  0  0  0  0  0  0  0
  147.9587  134.1970  153.9207 N   0  3  0  0  0  0  0  0  0  0  0  0
  147.7046  132.9140  153.1957 C   0  0  0  0  0  0  0  0  0  0  0  0
  146.8481  133.1634  151.9438 C   0  0  0  0  0  0  0  0  0  0  0  0
  145.6252  133.7847  152.3133 O   0  0  0  0  0  0  0  0  0  0  0  0
  145.8413  135.0508  152.9199 C   0  0  0  0  0  0  0  0  0  0  0  0
  146.6588  134.8775  154.2105 C   0  0  0  0  0  0  0  0  0  0  0  0
  150.8809  133.0577  155.3730 H   0  0  0  0  0  0  0  0  0  0  0  0
  150.8013  133.7355  153.7664 H   0  0  0  0  0  0  0  0  0  0  0  0
  149.8316  132.3320  154.1823 H   0  0  0  0  0  0  0  0  0  0  0  0
  149.1700  133.2316  157.0107 H   0  0  0  0  0  0  0  0  0  0  0  0
  147.9423  132.5308  155.9873 H   0  0  0  0  0  0  0  0  0  0  0  0
  147.6536  134.0665  156.7892 H   0  0  0  0  0  0  0  0  0  0  0  0
  149.8922  136.1196  154.4940 H   0  0  0  0  0  0  0  0  0  0  0  0
  148.6661  136.2364  155.7044 H   0  0  0  0  0  0  0  0  0  0  0  0
  150.7872  137.7543  155.6209 H   0  0  0  0  0  0  0  0  0  0  0  0
  150.4293  140.0572  155.3858 H   0  0  0  0  0  0  0  0  0  0  0  0
  150.8663  142.3461  156.2141 H   0  0  0  0  0  0  0  0  0  0  0  0
  151.7777  144.3486  157.0495 H   0  0  0  0  0  0  0  0  0  0  0  0
  150.3780  144.0617  158.0967 H   0  0  0  0  0  0  0  0  0  0  0  0
  152.9100  145.6262  158.7195 H   0  0  0  0  0  0  0  0  0  0  0  0
  151.2458  146.1205  159.0389 H   0  0  0  0  0  0  0  0  0  0  0  0
  152.7247  145.0377  161.0554 H   0  0  0  0  0  0  0  0  0  0  0  0
  151.0476  144.5364  160.8474 H   0  0  0  0  0  0  0  0  0  0  0  0
  151.9640  142.3968  160.6599 H   0  0  0  0  0  0  0  0  0  0  0  0
  153.5277  143.0030  160.0964 H   0  0  0  0  0  0  0  0  0  0  0  0
  152.2661  138.5466  159.0381 H   0  0  0  0  0  0  0  0  0  0  0  0
  148.6297  132.4400  152.8745 H   0  0  0  0  0  0  0  0  0  0  0  0
  147.1900  132.2039  153.8443 H   0  0  0  0  0  0  0  0  0  0  0  0
  147.3836  133.7828  151.2222 H   0  0  0  0  0  0  0  0  0  0  0  0
  146.6257  132.2184  151.4477 H   0  0  0  0  0  0  0  0  0  0  0  0
  146.3478  135.7215  152.2239 H   0  0  0  0  0  0  0  0  0  0  0  0
  144.8747  135.5005  153.1467 H   0  0  0  0  0  0  0  0  0  0  0  0
  146.0751  134.2976  154.9263 H   0  0  0  0  0  0  0  0  0  0  0  0
  146.8064  135.8640  154.6447 H   0  0  0  0  0  0  0  0  0  0  0  0
  148.3834  134.7859  153.2190 H   0  0  0  0  0  0  0  0  0  0  0  0
  152.6011  140.7144  159.6834 H   0  0  0  0  0  0  0  0  0  0  0  0
  1  2  1  0  0  0  0
  1 26  1  0  0  0  0
  1 27  1  0  0  0  0
  1 28  1  0  0  0  0
  2  3  1  0  0  0  0
  2  4  1  0  0  0  0
  2 20  1  0  0  0  0
  3 29  1  0  0  0  0
  3 30  1  0  0  0  0
  3 31  1  0  0  0  0
  4  5  1  0  0  0  0
  4 32  1  0  0  0  0
  4 33  1  0  0  0  0
  5  6  1  0  0  0  0
  6  7  2  0  0  0  0
  6  8  1  0  0  0  0
  8  9  1  0  0  0  0
  8 34  1  0  0  0  0
  9 19  1  0  0  0  0
  9 10  2  0  0  0  0
 10 11  1  0  0  0  0
 10 35  1  0  0  0  0
 11 12  2  0  0  0  0
 11 36  1  0  0  0  0
 12 13  1  0  0  0  0
 12 18  1  0  0  0  0
 13 17  1  0  0  0  0
 13 14  1  0  0  0  0
 14 15  1  0  0  0  0
 14 37  1  0  0  0  0
 14 38  1  0  0  0  0
 15 16  1  0  0  0  0
 15 39  1  0  0  0  0
 15 40  1  0  0  0  0
 16 17  1  0  0  0  0
 16 41  1  0  0  0  0
 16 42  1  0  0  0  0
 17 43  1  0  0  0  0
 17 44  1  0  0  0  0
 18 19  2  0  0  0  0
 18 55  1  0  0  0  0
 19 45  1  0  0  0  0
 20 25  1  0  0  0  0
 20 21  1  0  0  0  0
 20 54  1  0  0  0  0
 21 22  1  0  0  0  0
 21 46  1  0  0  0  0
 21 47  1  0  0  0  0
 22 23  1  0  0  0  0
 22 48  1  0  0  0  0
 22 49  1  0  0  0  0
 23 24  1  0  0  0  0
 24 25  1  0  0  0  0
 24 50  1  0  0  0  0
 24 51  1  0  0  0  0
 25 52  1  0  0  0  0
 25 53  1  0  0  0  0
M  CHG  1   5  -1
M  CHG  1  18   1
M  CHG  1  20   1
M  END
> <s_m_source_file>
AV-unprocessed.smi

> <i_m_source_file_index>
1157

> <i_lp_mmshare_version>
43012

> <i_f3d_flags>
0

> <s_epik_input>
W0NIMl0xW0NIMl1PW0NIMl1bQ0gyXU4xQyhbQ0gzXSkoW0NIM10pW0NIMl1bTkhdQyg9TylbTkhdYzJbY0hdW2NIXWMobltjSF0yKU4zW0NIMl1bQ0gyXVtDSDJdW0NIMl0z

> <s_epik_cmdline>
J2VwaWtfcHl0aG9uJywgJy1waCcsICc3LjAnLCAnLXRuJywgJzgnLCAnLW1hJywgJzIwMCcsICctbWV0YWxfYmluZGluZycsICctaW1hZScsICc8aW5maWxlLm1hZT4nLCAnLW9tYWUnLCAnPG91dGZpbGUubWFlPic=

> <r_lp_tautomer_probability>
0.999994

> <r_epik_Ionization_Penalty>
8.57565

> <r_epik_Ionization_Penalty_Charging>
8.57565

> <r_epik_Ionization_Penalty_Neutral>
3.57932e-06

> <r_epik_State_Penalty>
8.56988

> <r_epik_Charging_Adjusted_Penalty>
17.1455

> <i_epik_Tot_Q>
1

> <i_epik_Tot_abs_Q>
3

> <r_epik_Metal_State_Penalty>
4.56714

> <b_epik_Metal_Only>
1

> <s_lp_Force_Field>
OPLS_2005

> <r_lp_Energy>
57.9076

> <b_lp_Chiralities_Consistent>
1

> <s_lp_Variant>
AV-unprocessed.smi:1157-5

> <Gold.Version>
5.8.1

> <Gold.Id.Protein>
6NUR|6NUR_protein|mol2

> <Gold.PLP.Fitness>
50.2982

> <Gold.PLP.PLP>
-42.9402

> <Gold.PLP.part.hbond>
-2.0000

> <Gold.PLP.part.metal>
0.0000

> <Gold.PLP.part.buried>
-5.7420

> <Gold.PLP.part.nonpolar>
-35.1447

> <Gold.PLP.part.repulsive>
0.2650

> <Gold.PLP.ligand.clash>
0.0000

> <Gold.PLP.ligand.torsion>
1.0376

> <Gold.PLP.Chemscore.Hbond>
2.9199

> <Gold.PLP.Chemscore.CHOScore>
0.0000

> <Gold.PLP.Chemscore.Metal>
0.0000

> <Gold.Chemscore.Hbonds>
donor molecule, donor type, donor heavy atom, donor atom, acceptor molecule, acceptor atom, score
      L1  H    20    54       P1  7948  2.00
      P1  H  6896  6908       L1     7  0.78

> <Gold.PLP.Chemscore.Internal.Correction>
0.6736

> <Gold.Rescore>
     Score         DG    S(hbond)    S(metal)    S(lipo)     H(rot)  DE(clash)    DE(int)     intcor
     17.86     -20.16       1.85        0.00     103.85       1.42       0.03       2.27       ----

> <Gold.Chemscore.Fitness>
17.8574

> <Gold.Chemscore.DG>
-20.1587

> <Gold.Chemscore.ZeroCoef>
-5.4800

> <Gold.Chemscore.Hbond>
1.8487

> <Gold.Chemscore.Metal>
0.0000

> <Gold.Chemscore.Lipo>
103.8472

> <Gold.Chemscore.Internal_Hbond>
0.0000

> <Gold.Chemscore.DEClash>
0.0319

> <Gold.Chemscore.DEInternal>
2.2695

> <Gold.Chemscore.Rot>
1.4243

> <Gold.Chemscore.Internal.Correction>
   9.000000E+99

> <Gold.Chemscore.Hbonds>
donor molecule, donor type, donor heavy atom, donor atom, acceptor molecule, acceptor atom, score
      L1  H    20    54       P1  7948  0.65
      P1  H  6896  6908       L1     7  0.73

> <Gold.Chemscore.Hbond.Weighted>
-6.1747

> <Gold.Chemscore.Metal.Weighted>
-0.0000

> <Gold.Chemscore.Lipo.Weighted>
-12.1501

> <Gold.Chemscore.Internal_Hbond.Weighted>
0.0000

> <Gold.Chemscore.DEClash.Weighted>
0.0319

> <Gold.Chemscore.DEInternal.Weighted>
2.2695

> <Gold.Chemscore.Rot.Weighted>
3.6462

> <Gold.Chemscore.Internal.Correction.Weighted>
   9.000000E+99

> <Gold.Protein.RotatedTorsions>
[ 6907 6896 6895 6894 ] final -155.51 input  -60.11 | X-H torsion
[ 7974 7965 7964 7962 ] final  163.70 input  175.53 | X-H torsion
[ 8008 7997 7996 7995 ] final   43.65 input   59.86 | X-H torsion
[ 10167 10162 10161 10158 ] final -100.77 input  -65.29 | X-H torsion
[ 10718 10713 10712 10709 ] final  120.91 input   66.30 | X-H torsion
[ 10763 10752 10751 10750 ] final -128.26 input  -60.55 | X-H torsion
[ 11005 11000 10999 10996 ] final -173.40 input  -57.11 | X-H torsion

> <Gold.Protein.ActiveResidues>
 VAL166  LYS551  ARG553  GLY616  TRP617  ASP618  TYR619  PRO620  LYS621  CYS622 
 ASP623  PHE694  ASN695  SER759  ASP760  ASP761  ALA762  ILE779  LEU786  VAL792 
 PHE793  MET794  SER795  GLU796  ALA797  LYS798  CYS799  TRP800  GLU811  SER814 

> <Gold.Protein.RotatedAtoms>
  151.2737  133.4243  159.2622 H   0  0  0  0  0  0  0  0  0  0  0  0  # atno 6907 bound_to 6896
  151.0423  134.9616  159.8178 H   0  0  0  0  0  0  0  0  0  0  0  0  # atno 6908 bound_to 6896
  152.5367  134.2694  159.9018 H   0  0  0  0  0  0  0  0  0  0  0  0  # atno 6909 bound_to 6896
  144.7578  139.8220  143.6343 H   0  0  0  0  0  0  0  0  0  0  0  0  # atno 7974 bound_to 7965
  155.3062  140.3388  155.4245 H   0  0  0  0  0  0  0  0  0  0  0  0  # atno 8008 bound_to 7997
  156.1977  140.1721  156.8002 H   0  0  0  0  0  0  0  0  0  0  0  0  # atno 8009 bound_to 7997
  154.5520  140.0704  156.8667 H   0  0  0  0  0  0  0  0  0  0  0  0  # atno 8010 bound_to 7997
  140.2484  143.3489  152.0737 H   0  0  0  0  0  0  0  0  0  0  0  0  # atno 10167 bound_to 10162
  157.5856  131.1070  150.8101 H   0  0  0  0  0  0  0  0  0  0  0  0  # atno 10718 bound_to 10713
  154.8756  135.3934  154.3727 H   0  0  0  0  0  0  0  0  0  0  0  0  # atno 10763 bound_to 10752
  153.4485  135.7028  153.6129 H   0  0  0  0  0  0  0  0  0  0  0  0  # atno 10764 bound_to 10752
  153.4679  135.3797  155.2344 H   0  0  0  0  0  0  0  0  0  0  0  0  # atno 10765 bound_to 10752
  140.4861  134.6029  157.4937 H   0  0  0  0  0  0  0  0  0  0  0  0  # atno 11005 bound_to 11000
  146.1608  139.4721  142.9990 LP  0  0  0  0  0  0  0  0  0  0  0  0  # atno 17320 bound_to 7965
  145.6721  141.0214  143.1652 LP  0  0  0  0  0  0  0  0  0  0  0  0  # atno 17321 bound_to 7965
  139.5054  144.6794  151.6046 LP  0  0  0  0  0  0  0  0  0  0  0  0  # atno 17342 bound_to 10162
  140.6059  143.9524  150.6418 LP  0  0  0  0  0  0  0  0  0  0  0  0  # atno 17343 bound_to 10162
  156.8536  130.5089  149.5309 LP  0  0  0  0  0  0  0  0  0  0  0  0  # atno 17370 bound_to 10713
  156.0905  130.5892  150.9725 LP  0  0  0  0  0  0  0  0  0  0  0  0  # atno 17371 bound_to 10713
  139.9797  134.7157  155.9883 LP  0  0  0  0  0  0  0  0  0  0  0  0  # atno 17394 bound_to 11000
  141.1507  133.6549  156.4005 LP  0  0  0  0  0  0  0  0  0  0  0  0  # atno 17395 bound_to 11000

$$$$
