AV-unprocessed.smi:2367|AV-procd|sdf|9424|dock1
  -GOLD-   2272013 63D 1   1.00000     0.00000
 Structure written by MMmdl.
 34 35  0  0  0  0  0  0  0  0  1 V2000
  146.2333  139.4442  155.8692 C   0  0  0  0  0  0  0  0  0  0  0  0
  146.0374  139.0375  154.5209 O   0  0  0  0  0  0  0  0  0  0  0  0
  146.8392  139.7016  153.5436 C   0  0  0  0  0  0  0  0  0  0  0  0
  146.5310  139.2117  152.1209 C   0  0  0  0  0  0  0  0  0  0  0  0
  146.8153  137.7862  151.9874 N   0  0  0  0  0  0  0  0  0  0  0  0
  145.8989  136.8096  151.9406 C   0  0  0  0  0  0  0  0  0  0  0  0
  144.6858  137.0010  152.0285 O   0  0  0  0  0  0  0  0  0  0  0  0
  146.4728  135.6086  151.7616 N   0  0  0  0  0  0  0  0  0  0  0  0
  145.8062  134.3622  151.6439 C   0  0  0  0  0  0  0  0  0  0  0  0
  144.4988  134.3476  151.1158 C   0  0  0  0  0  0  0  0  0  0  0  0
  143.8386  133.1101  150.9796 C   0  0  0  0  0  0  0  0  0  0  0  0
  144.3997  131.9287  151.3144 N   0  0  0  0  0  0  0  0  0  0  0  0
  145.6616  131.9437  151.7950 C   0  0  0  0  0  0  0  0  0  0  0  0
  146.4116  133.1242  151.9708 C   0  0  0  0  0  0  0  0  0  0  0  0
  147.6893  133.0507  152.4154 F   0  0  0  0  0  0  0  0  0  0  0  0
  146.7606  141.2164  153.8136 C   0  0  0  0  0  0  0  0  0  0  0  0
  148.2804  141.2855  153.6538 C   0  0  0  0  0  0  0  0  0  0  0  0
  148.3115  139.7945  153.9933 C   0  0  0  0  0  0  0  0  0  0  0  0
  145.4992  138.9464  156.5021 H   0  0  0  0  0  0  0  0  0  0  0  0
  146.1024  140.5190  155.9954 H   0  0  0  0  0  0  0  0  0  0  0  0
  147.2200  139.1666  156.2382 H   0  0  0  0  0  0  0  0  0  0  0  0
  145.4734  139.3527  151.8966 H   0  0  0  0  0  0  0  0  0  0  0  0
  147.0621  139.8064  151.3771 H   0  0  0  0  0  0  0  0  0  0  0  0
  147.7871  137.5282  151.8979 H   0  0  0  0  0  0  0  0  0  0  0  0
  147.4642  135.6019  151.5732 H   0  0  0  0  0  0  0  0  0  0  0  0
  144.0036  135.2646  150.8311 H   0  0  0  0  0  0  0  0  0  0  0  0
  142.8325  133.0683  150.5889 H   0  0  0  0  0  0  0  0  0  0  0  0
  146.0926  130.9831  152.0352 H   0  0  0  0  0  0  0  0  0  0  0  0
  146.2042  141.7900  153.0717 H   0  0  0  0  0  0  0  0  0  0  0  0
  146.4368  141.4572  154.8279 H   0  0  0  0  0  0  0  0  0  0  0  0
  148.5912  141.4950  152.6292 H   0  0  0  0  0  0  0  0  0  0  0  0
  148.7876  141.9292  154.3728 H   0  0  0  0  0  0  0  0  0  0  0  0
  148.4512  139.6168  155.0611 H   0  0  0  0  0  0  0  0  0  0  0  0
  149.0106  139.2089  153.3954 H   0  0  0  0  0  0  0  0  0  0  0  0
  1  2  1  0  0  0  0
  1 19  1  0  0  0  0
  1 20  1  0  0  0  0
  1 21  1  0  0  0  0
  2  3  1  0  0  0  0
  3 18  1  0  0  0  0
  3  4  1  0  0  0  0
  3 16  1  0  0  0  0
  4  5  1  0  0  0  0
  4 22  1  0  0  0  0
  4 23  1  0  0  0  0
  5  6  1  0  0  0  0
  5 24  1  0  0  0  0
  6  7  2  0  0  0  0
  6  8  1  0  0  0  0
  8  9  1  0  0  0  0
  8 25  1  0  0  0  0
  9 14  1  0  0  0  0
  9 10  2  0  0  0  0
 10 11  1  0  0  0  0
 10 26  1  0  0  0  0
 11 12  2  0  0  0  0
 11 27  1  0  0  0  0
 12 13  1  0  0  0  0
 13 14  2  0  0  0  0
 13 28  1  0  0  0  0
 14 15  1  0  0  0  0
 16 17  1  0  0  0  0
 16 29  1  0  0  0  0
 16 30  1  0  0  0  0
 17 18  1  0  0  0  0
 17 31  1  0  0  0  0
 17 32  1  0  0  0  0
 18 33  1  0  0  0  0
 18 34  1  0  0  0  0
M  END
> <s_m_source_file>
AV-unprocessed.smi

> <i_m_source_file_index>
2367

> <i_lp_mmshare_version>
43012

> <i_f3d_flags>
0

> <s_epik_input>
W0NIMl0xW0NIMl1bQ0gyXUMxKE9bQ0gzXSlbQ0gyXVtOSF1DKD1PKVtOSF1jMltjSF1bY0hdbltjSF1jMkY=

> <s_epik_cmdline>
J2VwaWtfcHl0aG9uJywgJy1waCcsICc3LjAnLCAnLXRuJywgJzgnLCAnLW1hJywgJzIwMCcsICctbWV0YWxfYmluZGluZycsICctaW1hZScsICc8aW5maWxlLm1hZT4nLCAnLW9tYWUnLCAnPG91dGZpbGUubWFlPic=

> <r_epik_Ionization_Penalty>
0.00342397

> <r_epik_Ionization_Penalty_Charging>
0

> <r_epik_Ionization_Penalty_Neutral>
0.00342397

> <r_epik_State_Penalty>
0.00239946

> <r_epik_Charging_Adjusted_Penalty>
0.00239946

> <i_epik_Tot_Q>
0

> <i_epik_Tot_abs_Q>
0

> <r_epik_Metal_State_Penalty>
-0

> <b_epik_Metal_Only>
0

> <s_lp_Force_Field>
OPLS_2005

> <r_lp_Energy>
23.3759

> <b_lp_Chiralities_Consistent>
1

> <s_lp_Variant>
AV-unprocessed.smi:2367-1

> <Gold.Version>
5.8.1

> <Gold.Id.Protein>
6NUR|6NUR_protein|mol2

> <Gold.PLP.Fitness>
37.0036

> <Gold.PLP.PLP>
-28.4099

> <Gold.PLP.part.hbond>
-1.9993

> <Gold.PLP.part.metal>
0.0000

> <Gold.PLP.part.buried>
-2.0839

> <Gold.PLP.part.nonpolar>
-26.4857

> <Gold.PLP.part.repulsive>
2.1478

> <Gold.PLP.ligand.clash>
0.0000

> <Gold.PLP.ligand.torsion>
0.3808

> <Gold.PLP.Chemscore.Hbond>
1.9760

> <Gold.PLP.Chemscore.CHOScore>
1.0000

> <Gold.PLP.Chemscore.Metal>
0.0000

> <Gold.Chemscore.Hbonds>
donor molecule, donor type, donor heavy atom, donor atom, acceptor molecule, acceptor atom, score
      L1  H     5    24       P1  7948  0.94
      L1  H     8    25       P1  7948  1.00
      L1  C    11    27       P1 10186  1.00

> <Gold.PLP.Chemscore.Internal.Correction>
0.4274

> <Gold.Rescore>
     Score         DG    S(hbond)    S(metal)    S(lipo)     H(rot)  DE(clash)    DE(int)     intcor
     13.37     -15.15       1.92        0.00      60.90       1.51       0.02       1.76       ----

> <Gold.Chemscore.Fitness>
13.3661

> <Gold.Chemscore.DG>
-15.1470

> <Gold.Chemscore.ZeroCoef>
-5.4800

> <Gold.Chemscore.Hbond>
1.9156

> <Gold.Chemscore.Metal>
0.0000

> <Gold.Chemscore.Lipo>
60.8999

> <Gold.Chemscore.Internal_Hbond>
0.0000

> <Gold.Chemscore.DEClash>
0.0182

> <Gold.Chemscore.DEInternal>
1.7628

> <Gold.Chemscore.Rot>
1.5064

> <Gold.Chemscore.Internal.Correction>
   9.000000E+99

> <Gold.Chemscore.Hbonds>
donor molecule, donor type, donor heavy atom, donor atom, acceptor molecule, acceptor atom, score
      L1  H     5    24       P1  7948  0.92
      L1  H     8    25       P1  7948  0.92

> <Gold.Chemscore.Hbond.Weighted>
-6.3981

> <Gold.Chemscore.Metal.Weighted>
-0.0000

> <Gold.Chemscore.Lipo.Weighted>
-7.1253

> <Gold.Chemscore.Internal_Hbond.Weighted>
0.0000

> <Gold.Chemscore.DEClash.Weighted>
0.0182

> <Gold.Chemscore.DEInternal.Weighted>
1.7628

> <Gold.Chemscore.Rot.Weighted>
3.8563

> <Gold.Chemscore.Internal.Correction.Weighted>
   9.000000E+99

> <Gold.Protein.RotatedTorsions>
[ 6907 6896 6895 6894 ] final  150.41 input  -60.11 | X-H torsion
[ 7974 7965 7964 7962 ] final  -53.08 input  175.53 | X-H torsion
[ 8008 7997 7996 7995 ] final  121.91 input   59.86 | X-H torsion
[ 10167 10162 10161 10158 ] final  -95.34 input  -65.29 | X-H torsion
[ 10718 10713 10712 10709 ] final   43.92 input   66.30 | X-H torsion
[ 10763 10752 10751 10750 ] final  -82.12 input  -60.55 | X-H torsion
[ 11005 11000 10999 10996 ] final  166.17 input  -57.11 | X-H torsion

> <Gold.Protein.ActiveResidues>
 VAL166  LYS551  ARG553  GLY616  TRP617  ASP618  TYR619  PRO620  LYS621  CYS622 
 ASP623  PHE694  ASN695  SER759  ASP760  ASP761  ALA762  ILE779  LEU786  VAL792 
 PHE793  MET794  SER795  GLU796  ALA797  LYS798  CYS799  TRP800  GLU811  SER814 

> <Gold.Protein.RotatedAtoms>
  152.1148  133.4321  159.4647 H   0  0  0  0  0  0  0  0  0  0  0  0  # atno 6907 bound_to 6896
  150.6869  134.2605  159.4556 H   0  0  0  0  0  0  0  0  0  0  0  0  # atno 6908 bound_to 6896
  152.0476  134.9672  160.0625 H   0  0  0  0  0  0  0  0  0  0  0  0  # atno 6909 bound_to 6896
  145.9008  140.7995  142.9744 H   0  0  0  0  0  0  0  0  0  0  0  0  # atno 7974 bound_to 7965
  156.2706  140.2798  156.1383 H   0  0  0  0  0  0  0  0  0  0  0  0  # atno 8008 bound_to 7997
  155.0981  140.0389  157.2706 H   0  0  0  0  0  0  0  0  0  0  0  0  # atno 8009 bound_to 7997
  154.6837  140.2614  155.6888 H   0  0  0  0  0  0  0  0  0  0  0  0  # atno 8010 bound_to 7997
  140.3051  143.3138  152.0207 H   0  0  0  0  0  0  0  0  0  0  0  0  # atno 10167 bound_to 10162
  157.4211  130.7970  149.7516 H   0  0  0  0  0  0  0  0  0  0  0  0  # atno 10718 bound_to 10713
  154.5719  135.5602  153.7103 H   0  0  0  0  0  0  0  0  0  0  0  0  # atno 10763 bound_to 10752
  153.0051  135.6299  154.2102 H   0  0  0  0  0  0  0  0  0  0  0  0  # atno 10764 bound_to 10752
  154.2042  135.2876  155.2960 H   0  0  0  0  0  0  0  0  0  0  0  0  # atno 10765 bound_to 10752
  140.2637  134.7882  157.3613 H   0  0  0  0  0  0  0  0  0  0  0  0  # atno 11005 bound_to 11000
  144.6736  140.1675  143.7417 LP  0  0  0  0  0  0  0  0  0  0  0  0  # atno 17320 bound_to 7965
  145.8793  139.2314  143.1615 LP  0  0  0  0  0  0  0  0  0  0  0  0  # atno 17321 bound_to 7965
  139.4906  144.6427  151.6844 LP  0  0  0  0  0  0  0  0  0  0  0  0  # atno 17342 bound_to 10162
  140.5617  144.0257  150.6173 LP  0  0  0  0  0  0  0  0  0  0  0  0  # atno 17343 bound_to 10162
  155.9881  130.3962  150.3134 LP  0  0  0  0  0  0  0  0  0  0  0  0  # atno 17370 bound_to 10713
  157.1282  131.0265  151.2980 LP  0  0  0  0  0  0  0  0  0  0  0  0  # atno 17371 bound_to 10713
  140.1440  134.4935  155.8010 LP  0  0  0  0  0  0  0  0  0  0  0  0  # atno 17394 bound_to 11000
  141.2187  133.6836  156.7261 LP  0  0  0  0  0  0  0  0  0  0  0  0  # atno 17395 bound_to 11000

$$$$
