AV-unprocessed.smi:1852|AV-procd|sdf|7526|dock10
  -GOLD-   22720 9233D 1   1.00000     0.00000
 Structure written by MMmdl.
 46 48  0  0  0  0  0  0  0  0  2 V2000
  151.0004  145.2402  159.6203 C   0  0  0  0  0  0  0  0  0  0  0  0
  151.6360  143.8857  159.8579 C   0  0  0  0  0  0  0  0  0  0  0  0
  152.5161  143.6923  160.9402 C   0  0  0  0  0  0  0  0  0  0  0  0
  153.1004  142.4308  161.1544 C   0  0  0  0  0  0  0  0  0  0  0  0
  152.8088  141.3557  160.2895 C   0  0  0  0  0  0  0  0  0  0  0  0
  153.4414  139.9989  160.5375 C   0  0  0  0  0  0  0  0  0  0  0  0
  151.9274  141.5371  159.1991 C   0  0  0  0  0  0  0  0  0  0  0  0
  151.6894  140.4467  158.3898 O   0  0  0  0  0  0  0  0  0  0  0  0
  150.6464  140.5265  157.4279 C   0  0  0  0  0  0  0  0  0  0  0  0
  151.2590  140.7526  156.0388 C   0  0  0  0  0  0  0  0  0  0  0  0
  150.5178  140.0382  154.9870 N   0  0  0  0  0  0  0  0  0  0  0  0
  150.7498  138.8207  154.4160 C   0  0  0  0  0  0  0  0  0  0  0  0
  151.8581  137.8665  154.7374 C   0  0  0  0  0  0  0  0  0  0  0  0
  151.7652  137.3183  156.0852 N   0  0  0  0  0  0  0  0  0  0  0  0
  152.5295  137.6928  157.1211 C   0  0  0  0  0  0  0  0  0  0  0  0
  153.3982  138.5618  157.0662 O   0  0  0  0  0  0  0  0  0  0  0  0
  149.7786  138.6231  153.4801 N   0  3  0  0  0  0  0  0  0  0  0  0
  148.9237  139.7249  153.4446 C   0  0  0  0  0  0  0  0  0  0  0  0
  147.8048  139.9844  152.6589 C   0  0  0  0  0  0  0  0  0  0  0  0
  147.1572  141.2196  152.8682 C   0  0  0  0  0  0  0  0  0  0  0  0
  147.6261  142.1408  153.8267 C   0  0  0  0  0  0  0  0  0  0  0  0
  148.7594  141.8650  154.6192 C   0  0  0  0  0  0  0  0  0  0  0  0
  149.3935  140.6403  154.4083 C   0  0  0  0  0  0  0  0  0  0  0  0
  151.3439  142.8128  158.9919 C   0  0  0  0  0  0  0  0  0  0  0  0
  151.4213  145.9988  160.2809 H   0  0  0  0  0  0  0  0  0  0  0  0
  149.9262  145.1887  159.7999 H   0  0  0  0  0  0  0  0  0  0  0  0
  151.1618  145.5603  158.5906 H   0  0  0  0  0  0  0  0  0  0  0  0
  152.7469  144.5082  161.6093 H   0  0  0  0  0  0  0  0  0  0  0  0
  153.7733  142.2929  161.9880 H   0  0  0  0  0  0  0  0  0  0  0  0
  154.0782  139.7199  159.6978 H   0  0  0  0  0  0  0  0  0  0  0  0
  152.6707  139.2361  160.6526 H   0  0  0  0  0  0  0  0  0  0  0  0
  154.0516  140.0013  161.4410 H   0  0  0  0  0  0  0  0  0  0  0  0
  150.0698  139.6001  157.4217 H   0  0  0  0  0  0  0  0  0  0  0  0
  149.9683  141.3464  157.6680 H   0  0  0  0  0  0  0  0  0  0  0  0
  151.2553  141.8143  155.7936 H   0  0  0  0  0  0  0  0  0  0  0  0
  152.3036  140.4433  156.0178 H   0  0  0  0  0  0  0  0  0  0  0  0
  151.8231  137.0406  154.0266 H   0  0  0  0  0  0  0  0  0  0  0  0
  152.8260  138.3491  154.5985 H   0  0  0  0  0  0  0  0  0  0  0  0
  151.0822  136.5905  156.2380 H   0  0  0  0  0  0  0  0  0  0  0  0
  152.2743  137.1184  158.0250 H   0  0  0  0  0  0  0  0  0  0  0  0
  147.4456  139.2818  151.9216 H   0  0  0  0  0  0  0  0  0  0  0  0
  146.2847  141.4660  152.2806 H   0  0  0  0  0  0  0  0  0  0  0  0
  147.1072  143.0795  153.9569 H   0  0  0  0  0  0  0  0  0  0  0  0
  149.1120  142.5822  155.3454 H   0  0  0  0  0  0  0  0  0  0  0  0
  150.6693  142.9936  158.1688 H   0  0  0  0  0  0  0  0  0  0  0  0
  149.7098  137.7929  152.9060 H   0  0  0  0  0  0  0  0  0  0  0  0
  1  2  1  0  0  0  0
  1 25  1  0  0  0  0
  1 26  1  0  0  0  0
  1 27  1  0  0  0  0
  2 24  1  0  0  0  0
  2  3  2  0  0  0  0
  3  4  1  0  0  0  0
  3 28  1  0  0  0  0
  4  5  2  0  0  0  0
  4 29  1  0  0  0  0
  5  6  1  0  0  0  0
  5  7  1  0  0  0  0
  6 30  1  0  0  0  0
  6 31  1  0  0  0  0
  6 32  1  0  0  0  0
  7  8  1  0  0  0  0
  7 24  2  0  0  0  0
  8  9  1  0  0  0  0
  9 10  1  0  0  0  0
  9 33  1  0  0  0  0
  9 34  1  0  0  0  0
 10 11  1  0  0  0  0
 10 35  1  0  0  0  0
 10 36  1  0  0  0  0
 11 23  1  0  0  0  0
 11 12  1  0  0  0  0
 12 13  1  0  0  0  0
 12 17  2  0  0  0  0
 13 14  1  0  0  0  0
 13 37  1  0  0  0  0
 13 38  1  0  0  0  0
 14 15  1  0  0  0  0
 14 39  1  0  0  0  0
 15 16  2  0  0  0  0
 15 40  1  0  0  0  0
 17 18  1  0  0  0  0
 17 46  1  0  0  0  0
 18 23  2  0  0  0  0
 18 19  1  0  0  0  0
 19 20  2  0  0  0  0
 19 41  1  0  0  0  0
 20 21  1  0  0  0  0
 20 42  1  0  0  0  0
 21 22  2  0  0  0  0
 21 43  1  0  0  0  0
 22 23  1  0  0  0  0
 22 44  1  0  0  0  0
 24 45  1  0  0  0  0
M  CHG  1  17   1
M  END
> <s_m_source_file>
AV-unprocessed.smi

> <i_m_source_file_index>
1852

> <i_lp_mmshare_version>
43012

> <i_f3d_flags>
0

> <s_epik_input>
W0NIM11jMVtjSF1bY0hdYyhbQ0gzXSljKFtjSF0xKU9bQ0gyXVtDSDJdbihjKG4yKVtDSDJdW05IXVtDSF09TyljKGMyMylbY0hdW2NIXVtjSF1bY0hdMw==

> <s_epik_cmdline>
J2VwaWtfcHl0aG9uJywgJy1waCcsICc3LjAnLCAnLXRuJywgJzgnLCAnLW1hJywgJzIwMCcsICctbWV0YWxfYmluZGluZycsICctaW1hZScsICc8aW5maWxlLm1hZT4nLCAnLW9tYWUnLCAnPG91dGZpbGUubWFlPic=

> <r_lp_tautomer_probability>
1

> <r_epik_Ionization_Penalty>
1.39865

> <r_epik_Ionization_Penalty_Charging>
1.39865

> <r_epik_Ionization_Penalty_Neutral>
7.38905e-08

> <r_epik_State_Penalty>
1.48061

> <r_epik_Charging_Adjusted_Penalty>
2.87925

> <i_epik_Tot_Q>
1

> <i_epik_Tot_abs_Q>
1

> <r_epik_Metal_State_Penalty>
1.53473

> <b_epik_Metal_Only>
0

> <s_lp_Force_Field>
OPLS_2005

> <r_lp_Energy>
13.537

> <b_lp_Chiralities_Consistent>
1

> <s_lp_Variant>
AV-unprocessed.smi:1852-2

> <Gold.Version>
5.8.1

> <Gold.Id.Protein>
6NUR|6NUR_protein|mol2

> <Gold.PLP.Fitness>
59.1320

> <Gold.PLP.PLP>
-52.3638

> <Gold.PLP.part.hbond>
-2.7557

> <Gold.PLP.part.metal>
0.0000

> <Gold.PLP.part.buried>
1.0787

> <Gold.PLP.part.nonpolar>
-50.8598

> <Gold.PLP.part.repulsive>
0.1920

> <Gold.PLP.ligand.clash>
0.0000

> <Gold.PLP.ligand.torsion>
1.1386

> <Gold.PLP.Chemscore.Hbond>
2.9920

> <Gold.PLP.Chemscore.CHOScore>
0.0000

> <Gold.PLP.Chemscore.Metal>
0.0000

> <Gold.Chemscore.Hbonds>
donor molecule, donor type, donor heavy atom, donor atom, acceptor molecule, acceptor atom, score
      L1  H    17    46       P1  7948  2.00
      P1  H  7997  8009       L1    16  1.00

> <Gold.PLP.Chemscore.Internal.Correction>
0.0693

> <Gold.Rescore>
     Score         DG    S(hbond)    S(metal)    S(lipo)     H(rot)  DE(clash)    DE(int)     intcor
     19.13     -22.01       1.83        0.00     142.60       2.44       1.72       1.16       ----

> <Gold.Chemscore.Fitness>
19.1308

> <Gold.Chemscore.DG>
-22.0116

> <Gold.Chemscore.ZeroCoef>
-5.4800

> <Gold.Chemscore.Hbond>
1.8255

> <Gold.Chemscore.Metal>
0.0000

> <Gold.Chemscore.Lipo>
142.5959

> <Gold.Chemscore.Internal_Hbond>
0.0000

> <Gold.Chemscore.DEClash>
1.7163

> <Gold.Chemscore.DEInternal>
1.1646

> <Gold.Chemscore.Rot>
2.4411

> <Gold.Chemscore.Internal.Correction>
   9.000000E+99

> <Gold.Chemscore.Hbonds>
donor molecule, donor type, donor heavy atom, donor atom, acceptor molecule, acceptor atom, score
      L1  H    17    46       P1  7948  0.59
      P1  H  7997  8009       L1    16  0.96

> <Gold.Chemscore.Hbond.Weighted>
-6.0972

> <Gold.Chemscore.Metal.Weighted>
-0.0000

> <Gold.Chemscore.Lipo.Weighted>
-16.6837

> <Gold.Chemscore.Internal_Hbond.Weighted>
0.0000

> <Gold.Chemscore.DEClash.Weighted>
1.7163

> <Gold.Chemscore.DEInternal.Weighted>
1.1646

> <Gold.Chemscore.Rot.Weighted>
6.2493

> <Gold.Chemscore.Internal.Correction.Weighted>
   9.000000E+99

> <Gold.Protein.RotatedTorsions>
[ 6907 6896 6895 6894 ] final  -58.77 input  -60.11 | X-H torsion
[ 7974 7965 7964 7962 ] final -102.28 input  175.53 | X-H torsion
[ 8008 7997 7996 7995 ] final  169.29 input   59.86 | X-H torsion
[ 10167 10162 10161 10158 ] final -178.33 input  -65.29 | X-H torsion
[ 10718 10713 10712 10709 ] final -171.17 input   66.30 | X-H torsion
[ 10763 10752 10751 10750 ] final  -97.26 input  -60.55 | X-H torsion
[ 11005 11000 10999 10996 ] final   -0.61 input  -57.11 | X-H torsion

> <Gold.Protein.ActiveResidues>
 VAL166  LYS551  ARG553  GLY616  TRP617  ASP618  TYR619  PRO620  LYS621  CYS622 
 ASP623  PHE694  ASN695  SER759  ASP760  ASP761  ALA762  ILE779  LEU786  VAL792 
 PHE793  MET794  SER795  GLU796  ALA797  LYS798  CYS799  TRP800  GLU811  SER814 

> <Gold.Protein.RotatedAtoms>
  150.7981  134.7055  159.6574 H   0  0  0  0  0  0  0  0  0  0  0  0  # atno 6907 bound_to 6896
  152.4096  134.6145  160.0044 H   0  0  0  0  0  0  0  0  0  0  0  0  # atno 6908 bound_to 6896
  151.6392  133.3290  159.3162 H   0  0  0  0  0  0  0  0  0  0  0  0  # atno 6909 bound_to 6896
  145.2708  140.9298  143.2987 H   0  0  0  0  0  0  0  0  0  0  0  0  # atno 7974 bound_to 7965
  156.1470  140.1568  156.8830 H   0  0  0  0  0  0  0  0  0  0  0  0  # atno 8008 bound_to 7997
  154.5037  140.0818  156.7889 H   0  0  0  0  0  0  0  0  0  0  0  0  # atno 8009 bound_to 7997
  155.3969  140.3412  155.4257 H   0  0  0  0  0  0  0  0  0  0  0  0  # atno 8010 bound_to 7997
  139.5437  144.2292  152.0947 H   0  0  0  0  0  0  0  0  0  0  0  0  # atno 10167 bound_to 10162
  156.7369  130.9327  151.3108 H   0  0  0  0  0  0  0  0  0  0  0  0  # atno 10718 bound_to 10713
  154.7312  135.5053  153.8967 H   0  0  0  0  0  0  0  0  0  0  0  0  # atno 10763 bound_to 10752
  153.0951  135.6670  153.9786 H   0  0  0  0  0  0  0  0  0  0  0  0  # atno 10764 bound_to 10752
  153.9587  135.3050  155.3414 H   0  0  0  0  0  0  0  0  0  0  0  0  # atno 10765 bound_to 10752
  140.6382  133.9514  155.8311 H   0  0  0  0  0  0  0  0  0  0  0  0  # atno 11005 bound_to 11000
  144.9337  139.4269  143.6483 LP  0  0  0  0  0  0  0  0  0  0  0  0  # atno 17320 bound_to 7965
  146.3247  139.8261  142.8917 LP  0  0  0  0  0  0  0  0  0  0  0  0  # atno 17321 bound_to 7965
  140.1775  144.4876  150.6546 LP  0  0  0  0  0  0  0  0  0  0  0  0  # atno 17342 bound_to 10162
  140.6678  143.2274  151.5700 LP  0  0  0  0  0  0  0  0  0  0  0  0  # atno 17343 bound_to 10162
  157.6835  130.9163  150.0327 LP  0  0  0  0  0  0  0  0  0  0  0  0  # atno 17370 bound_to 10713
  156.1491  130.3642  149.9466 LP  0  0  0  0  0  0  0  0  0  0  0  0  # atno 17371 bound_to 10713
  141.0626  134.0323  157.3637 LP  0  0  0  0  0  0  0  0  0  0  0  0  # atno 17394 bound_to 11000
  139.9090  135.0186  156.7611 LP  0  0  0  0  0  0  0  0  0  0  0  0  # atno 17395 bound_to 11000

$$$$
