AV-unprocessed.smi:140|AV-procd|sdf|1186|dock10
  -GOLD-   2262018343D 1   1.00000     0.00000
 Structure written by MMmdl.
 52 55  0  0  0  0  0  0  0  0  1 V2000
  151.4215  138.7058  154.7787 C   0  0  0  0  0  0  0  0  0  0  0  0
  150.9416  137.5355  155.5762 C   0  0  0  0  0  0  0  0  0  0  0  0
  151.0976  136.2022  155.3374 C   0  0  0  0  0  0  0  0  0  0  0  0
  150.4625  135.4768  156.3831 C   0  0  0  0  0  0  0  0  0  0  0  0
  150.3519  134.0053  156.5485 C   0  0  0  0  0  0  0  0  0  0  0  0
  149.8431  133.4734  157.5365 O   0  0  0  0  0  0  0  0  0  0  0  0
  150.9142  133.1590  155.3909 C   0  0  0  0  0  0  0  0  0  0  0  0
  149.9206  132.2750  154.7949 N   0  0  0  0  0  0  0  0  0  0  0  0
  150.1688  130.8799  154.8280 C   0  0  0  0  0  0  0  0  0  0  0  0
  151.1849  130.4068  155.3401 O   0  0  0  0  0  0  0  0  0  0  0  0
  149.1339  130.0661  154.1998 C   0  0  0  0  0  0  0  0  0  0  0  0
  149.2592  128.7282  154.1847 F   0  0  0  0  0  0  0  0  0  0  0  0
  148.0479  130.6335  153.6314 C   0  0  0  0  0  0  0  0  0  0  0  0
  147.8398  132.0030  153.5994 N   0  0  0  0  0  0  0  0  0  0  0  0
  146.6196  132.6162  152.9470 C   0  0  1  0  0  0  0  0  0  0  0  0
  147.0113  133.3576  151.6555 C   0  0  0  0  0  0  0  0  0  0  0  0
  146.0277  132.8047  150.6437 C   0  0  0  0  0  0  0  0  0  0  0  0
  145.7811  131.4031  151.1811 C   0  0  0  0  0  0  0  0  0  0  0  0
  145.7166  131.6096  152.5864 O   0  0  0  0  0  0  0  0  0  0  0  0
  148.7868  132.8679  154.1893 C   0  0  0  0  0  0  0  0  0  0  0  0
  148.6273  134.0907  154.1610 O   0  0  0  0  0  0  0  0  0  0  0  0
  149.9341  136.3972  157.2589 C   0  0  0  0  0  0  0  0  0  0  0  0
  149.1737  136.2041  158.5418 C   0  0  0  0  0  0  0  0  0  0  0  0
  150.2146  137.6685  156.7536 N   0  0  0  0  0  0  0  0  0  0  0  0
  149.8206  138.9376  157.3588 C   0  0  0  0  0  0  0  0  0  0  0  0
  149.1615  139.8688  156.3899 C   0  0  0  0  0  0  0  0  0  0  0  0
  147.9441  139.7277  155.7717 C   0  0  0  0  0  0  0  0  0  0  0  0
  147.6255  140.8121  154.9031 C   0  0  0  0  0  0  0  0  0  0  0  0
  148.6030  141.7703  154.8703 C   0  0  0  0  0  0  0  0  0  0  0  0
  149.9375  141.3577  155.9110 S   0  0  0  0  0  0  0  0  0  0  0  0
  152.0745  138.3808  153.9685 H   0  0  0  0  0  0  0  0  0  0  0  0
  151.9861  139.4013  155.3998 H   0  0  0  0  0  0  0  0  0  0  0  0
  150.5838  139.2442  154.3351 H   0  0  0  0  0  0  0  0  0  0  0  0
  151.6176  135.7895  154.4854 H   0  0  0  0  0  0  0  0  0  0  0  0
  151.3186  133.7952  154.6023 H   0  0  0  0  0  0  0  0  0  0  0  0
  151.7528  132.5464  155.7254 H   0  0  0  0  0  0  0  0  0  0  0  0
  147.3214  129.9706  153.1872 H   0  0  0  0  0  0  0  0  0  0  0  0
  146.1627  133.2525  153.7070 H   0  0  0  0  0  0  0  0  0  0  0  0
  146.9373  134.4377  151.7849 H   0  0  0  0  0  0  0  0  0  0  0  0
  148.0335  133.1036  151.3698 H   0  0  0  0  0  0  0  0  0  0  0  0
  145.1022  133.3815  150.6646 H   0  0  0  0  0  0  0  0  0  0  0  0
  146.4134  132.8098  149.6239 H   0  0  0  0  0  0  0  0  0  0  0  0
  144.8623  130.9586  150.7985 H   0  0  0  0  0  0  0  0  0  0  0  0
  146.6133  130.7424  150.9346 H   0  0  0  0  0  0  0  0  0  0  0  0
  149.6547  135.4529  159.1680 H   0  0  0  0  0  0  0  0  0  0  0  0
  148.1563  135.8707  158.3376 H   0  0  0  0  0  0  0  0  0  0  0  0
  149.1133  137.1093  159.1427 H   0  0  0  0  0  0  0  0  0  0  0  0
  149.1517  138.7522  158.1983 H   0  0  0  0  0  0  0  0  0  0  0  0
  150.7043  139.4027  157.7964 H   0  0  0  0  0  0  0  0  0  0  0  0
  147.2779  138.8888  155.9085 H   0  0  0  0  0  0  0  0  0  0  0  0
  146.7041  140.8498  154.3407 H   0  0  0  0  0  0  0  0  0  0  0  0
  148.6210  142.6885  154.3018 H   0  0  0  0  0  0  0  0  0  0  0  0
  1  2  1  0  0  0  0
  1 31  1  0  0  0  0
  1 32  1  0  0  0  0
  1 33  1  0  0  0  0
  2 24  1  0  0  0  0
  2  3  2  0  0  0  0
  3  4  1  0  0  0  0
  3 34  1  0  0  0  0
  4  5  1  0  0  0  0
  4 22  2  0  0  0  0
  5  6  2  0  0  0  0
  5  7  1  0  0  0  0
  7  8  1  0  0  0  0
  7 35  1  0  0  0  0
  7 36  1  0  0  0  0
  8 20  1  0  0  0  0
  8  9  1  0  0  0  0
  9 10  2  0  0  0  0
  9 11  1  0  0  0  0
 11 12  1  0  0  0  0
 11 13  2  0  0  0  0
 13 14  1  0  0  0  0
 13 37  1  0  0  0  0
 14 15  1  0  0  0  0
 14 20  1  0  0  0  0
 15 19  1  0  0  0  0
 15 16  1  0  0  0  0
 15 38  1  0  0  0  0
 16 17  1  0  0  0  0
 16 39  1  0  0  0  0
 16 40  1  0  0  0  0
 17 18  1  0  0  0  0
 17 41  1  0  0  0  0
 17 42  1  0  0  0  0
 18 19  1  0  0  0  0
 18 43  1  0  0  0  0
 18 44  1  0  0  0  0
 20 21  2  0  0  0  0
 22 23  1  0  0  0  0
 22 24  1  0  0  0  0
 23 45  1  0  0  0  0
 23 46  1  0  0  0  0
 23 47  1  0  0  0  0
 24 25  1  0  0  0  0
 25 26  1  0  0  0  0
 25 48  1  0  0  0  0
 25 49  1  0  0  0  0
 26 30  1  0  0  0  0
 26 27  2  0  0  0  0
 27 28  1  0  0  0  0
 27 50  1  0  0  0  0
 28 29  2  0  0  0  0
 28 51  1  0  0  0  0
 29 30  1  0  0  0  0
 29 52  1  0  0  0  0
M  END
> <s_m_source_file>
AV-unprocessed.smi

> <i_m_source_file_index>
140

> <i_lp_mmshare_version>
43012

> <i_f3d_flags>
0

> <s_epik_input>
czFbY0hdW2NIXVtjSF1jMVtDSDJdbjJjKFtDSDNdKWMoW2NIXWMyW0NIM10pQyg9TylbQ0gyXW4zYyg9TyljKEYpW2NIXW4oYzM9TylbQ0BASF00W0NIMl1bQ0gyXVtDSDJdTzQ=

> <s_epik_cmdline>
J2VwaWtfcHl0aG9uJywgJy1waCcsICc3LjAnLCAnLXRuJywgJzgnLCAnLW1hJywgJzIwMCcsICctbWV0YWxfYmluZGluZycsICctaW1hZScsICc8aW5maWxlLm1hZT4nLCAnLW9tYWUnLCAnPG91dGZpbGUubWFlPic=

> <r_lp_tautomer_probability>
1

> <r_epik_Ionization_Penalty>
5.024e-09

> <r_epik_Ionization_Penalty_Charging>
5.01743e-09

> <r_epik_Ionization_Penalty_Neutral>
6.5712e-12

> <r_epik_State_Penalty>
-0

> <r_epik_Charging_Adjusted_Penalty>
5.01743e-09

> <i_epik_Tot_Q>
0

> <i_epik_Tot_abs_Q>
0

> <r_epik_Metal_State_Penalty>
-0

> <b_epik_Metal_Only>
0

> <s_epik_Chemistry_Notes>
This compound contains an acetal/aminal-like group ( X-CH(R)-Y where X, Y are N, S, or O) that may be acid/base labile, releasing an aldehyde.

> <s_lp_Force_Field>
OPLS_2005

> <r_lp_Energy>
38.6163

> <b_lp_Chiralities_Consistent>
1

> <s_lp_Variant>
AV-unprocessed.smi:140-2

> <Gold.Version>
5.8.1

> <Gold.Id.Protein>
6NUR|6NUR_protein|mol2

> <Gold.PLP.Fitness>
46.0537

> <Gold.PLP.PLP>
-41.8149

> <Gold.PLP.part.hbond>
-1.0000

> <Gold.PLP.part.metal>
0.0000

> <Gold.PLP.part.buried>
-5.5758

> <Gold.PLP.part.nonpolar>
-35.6258

> <Gold.PLP.part.repulsive>
0.7562

> <Gold.PLP.ligand.clash>
0.0000

> <Gold.PLP.ligand.torsion>
0.3194

> <Gold.PLP.Chemscore.Hbond>
0.9913

> <Gold.PLP.Chemscore.CHOScore>
0.6112

> <Gold.PLP.Chemscore.Metal>
0.0000

> <Gold.Chemscore.Hbonds>
donor molecule, donor type, donor heavy atom, donor atom, acceptor molecule, acceptor atom, score
      P1  H  6896  6908       L1     6  1.00
      L1  C    29    52       P1  8028  0.71

> <Gold.PLP.Chemscore.Internal.Correction>
0.0702

> <Gold.Rescore>
     Score         DG    S(hbond)    S(metal)    S(lipo)     H(rot)  DE(clash)    DE(int)     intcor
     12.49     -15.24       0.98        0.00      96.48       1.87       0.11       2.64       ----

> <Gold.Chemscore.Fitness>
12.4897

> <Gold.Chemscore.DG>
-15.2377

> <Gold.Chemscore.ZeroCoef>
-5.4800

> <Gold.Chemscore.Hbond>
0.9761

> <Gold.Chemscore.Metal>
0.0000

> <Gold.Chemscore.Lipo>
96.4781

> <Gold.Chemscore.Internal_Hbond>
0.0000

> <Gold.Chemscore.DEClash>
0.1087

> <Gold.Chemscore.DEInternal>
2.6393

> <Gold.Chemscore.Rot>
1.8713

> <Gold.Chemscore.Internal.Correction>
   9.000000E+99

> <Gold.Chemscore.Hbonds>
donor molecule, donor type, donor heavy atom, donor atom, acceptor molecule, acceptor atom, score
      P1  H  6896  6908       L1     6  0.87

> <Gold.Chemscore.Hbond.Weighted>
-3.2602

> <Gold.Chemscore.Metal.Weighted>
-0.0000

> <Gold.Chemscore.Lipo.Weighted>
-11.2879

> <Gold.Chemscore.Internal_Hbond.Weighted>
0.0000

> <Gold.Chemscore.DEClash.Weighted>
0.1087

> <Gold.Chemscore.DEInternal.Weighted>
2.6393

> <Gold.Chemscore.Rot.Weighted>
4.7905

> <Gold.Chemscore.Internal.Correction.Weighted>
   9.000000E+99

> <Gold.Protein.RotatedTorsions>
[ 6907 6896 6895 6894 ] final  120.84 input  -60.11 | X-H torsion
[ 7974 7965 7964 7962 ] final  143.16 input  175.53 | X-H torsion
[ 8008 7997 7996 7995 ] final -134.57 input   59.86 | X-H torsion
[ 10167 10162 10161 10158 ] final -142.80 input  -65.29 | X-H torsion
[ 10718 10713 10712 10709 ] final  110.29 input   66.30 | X-H torsion
[ 10763 10752 10751 10750 ] final  -72.16 input  -60.55 | X-H torsion
[ 11005 11000 10999 10996 ] final   31.88 input  -57.11 | X-H torsion

> <Gold.Protein.ActiveResidues>
 VAL166  LYS551  ARG553  GLY616  TRP617  ASP618  TYR619  PRO620  LYS621  CYS622 
 ASP623  PHE694  ASN695  SER759  ASP760  ASP761  ALA762  ILE779  LEU786  VAL792 
 PHE793  MET794  SER795  GLU796  ALA797  LYS798  CYS799  TRP800  GLU811  SER814 

> <Gold.Protein.RotatedAtoms>
  152.4367  133.7374  159.6621 H   0  0  0  0  0  0  0  0  0  0  0  0  # atno 6907 bound_to 6896
  150.8252  133.8173  159.3128 H   0  0  0  0  0  0  0  0  0  0  0  0  # atno 6908 bound_to 6896
  151.5843  135.1059  160.0076 H   0  0  0  0  0  0  0  0  0  0  0  0  # atno 6909 bound_to 6896
  144.8945  139.5511  143.5783 H   0  0  0  0  0  0  0  0  0  0  0  0  # atno 7974 bound_to 7965
  155.3643  140.0484  157.3046 H   0  0  0  0  0  0  0  0  0  0  0  0  # atno 8008 bound_to 7997
  154.5162  140.2209  155.9025 H   0  0  0  0  0  0  0  0  0  0  0  0  # atno 8009 bound_to 7997
  156.1639  140.3110  155.8860 H   0  0  0  0  0  0  0  0  0  0  0  0  # atno 8010 bound_to 7997
  139.8054  143.7775  152.2661 H   0  0  0  0  0  0  0  0  0  0  0  0  # atno 10167 bound_to 10162
  157.6501  131.0930  150.6580 H   0  0  0  0  0  0  0  0  0  0  0  0  # atno 10718 bound_to 10713
  154.4418  135.5939  153.6134 H   0  0  0  0  0  0  0  0  0  0  0  0  # atno 10763 bound_to 10752
  152.9806  135.6000  154.3713 H   0  0  0  0  0  0  0  0  0  0  0  0  # atno 10764 bound_to 10752
  154.3564  135.2841  155.2323 H   0  0  0  0  0  0  0  0  0  0  0  0  # atno 10765 bound_to 10752
  140.2793  134.2992  155.7805 H   0  0  0  0  0  0  0  0  0  0  0  0  # atno 11005 bound_to 11000
  146.3073  139.7623  142.9046 LP  0  0  0  0  0  0  0  0  0  0  0  0  # atno 17320 bound_to 7965
  145.3725  141.0345  143.3223 LP  0  0  0  0  0  0  0  0  0  0  0  0  # atno 17321 bound_to 7965
  139.7908  144.7411  150.9958 LP  0  0  0  0  0  0  0  0  0  0  0  0  # atno 17342 bound_to 10162
  140.7819  143.4444  151.0504 LP  0  0  0  0  0  0  0  0  0  0  0  0  # atno 17343 bound_to 10162
  156.6892  130.4590  149.5605 LP  0  0  0  0  0  0  0  0  0  0  0  0  # atno 17370 bound_to 10713
  156.1874  130.6538  151.1022 LP  0  0  0  0  0  0  0  0  0  0  0  0  # atno 17371 bound_to 10713
  141.2165  133.7515  156.9455 LP  0  0  0  0  0  0  0  0  0  0  0  0  # atno 17394 bound_to 11000
  140.1299  134.9363  157.2322 LP  0  0  0  0  0  0  0  0  0  0  0  0  # atno 17395 bound_to 11000

$$$$
