AV-unprocessed.smi:1830|AV-procd|sdf|7432|dock6
  -GOLD-   22720 9113D 1   1.00000     0.00000
 Structure written by MMmdl.
 53 56  0  0  0  0  0  0  0  0  2 V2000
  151.3088  135.3141  155.3584 O   0  0  0  0  0  0  0  0  0  0  0  0
  150.2997  135.6445  154.7354 C   0  0  0  0  0  0  0  0  0  0  0  0
  149.3311  134.7910  154.3763 N   0  0  0  0  0  0  0  0  0  0  0  0
  149.2321  133.4037  154.8215 C   0  0  0  0  0  0  0  0  0  0  0  0
  148.7085  132.4719  153.7077 C   0  0  2  0  0  0  0  0  0  0  0  0
  147.5207  133.0768  152.9128 C   0  0  0  0  0  0  0  0  0  0  0  0
  147.0081  132.0588  151.9785 N   0  3  2  0  0  0  0  0  0  0  0  0
  145.8651  132.4160  151.1191 C   0  0  0  0  0  0  0  0  0  0  0  0
  145.1647  131.0780  150.8070 C   0  0  0  0  0  0  0  0  0  0  0  0
  145.9294  130.0109  151.6088 C   0  0  0  0  0  0  0  0  0  0  0  0
  146.6248  130.8352  152.6858 C   0  0  1  0  0  0  0  0  0  0  0  0
  147.8663  130.2451  153.3634 C   0  0  0  0  0  0  0  0  0  0  0  0
  148.3462  131.2154  154.2939 O   0  0  0  0  0  0  0  0  0  0  0  0
  150.0000  136.9011  154.3729 N   0  0  0  0  0  0  0  0  0  0  0  0
  150.6263  138.0718  154.8737 C   0  0  0  0  0  0  0  0  0  0  0  0
  151.9890  138.0409  155.2513 C   0  0  0  0  0  0  0  0  0  0  0  0
  152.6100  139.2255  155.6822 C   0  0  0  0  0  0  0  0  0  0  0  0
  151.8456  140.4041  155.7052 C   0  0  0  0  0  0  0  0  0  0  0  0
  150.5483  140.4493  155.3395 N   0  0  0  0  0  0  0  0  0  0  0  0
  149.9283  139.3125  154.9367 C   0  0  0  0  0  0  0  0  0  0  0  0
  148.5588  139.4222  154.5955 N   0  0  0  0  0  0  0  0  0  0  0  0
  148.0741  138.9420  153.3053 C   0  0  0  0  0  0  0  0  0  0  0  0
  146.6883  139.5618  153.1430 C   0  0  0  0  0  0  0  0  0  0  0  0
  146.8559  140.9203  153.8155 C   0  0  0  0  0  0  0  0  0  0  0  0
  147.8310  140.6338  154.9604 C   0  0  0  0  0  0  0  0  0  0  0  0
  148.5549  135.1534  153.8423 H   0  0  0  0  0  0  0  0  0  0  0  0
  150.2285  133.0825  155.1256 H   0  0  0  0  0  0  0  0  0  0  0  0
  148.6029  133.3287  155.7099 H   0  0  0  0  0  0  0  0  0  0  0  0
  149.5303  132.2823  153.0151 H   0  0  0  0  0  0  0  0  0  0  0  0
  146.7140  133.3864  153.5770 H   0  0  0  0  0  0  0  0  0  0  0  0
  147.8400  133.9596  152.3581 H   0  0  0  0  0  0  0  0  0  0  0  0
  145.1845  133.0814  151.6519 H   0  0  0  0  0  0  0  0  0  0  0  0
  146.2053  132.9287  150.2191 H   0  0  0  0  0  0  0  0  0  0  0  0
  144.1227  131.1220  151.1263 H   0  0  0  0  0  0  0  0  0  0  0  0
  145.1725  130.8518  149.7404 H   0  0  0  0  0  0  0  0  0  0  0  0
  145.2762  129.2409  152.0208 H   0  0  0  0  0  0  0  0  0  0  0  0
  146.6674  129.5229  150.9706 H   0  0  0  0  0  0  0  0  0  0  0  0
  145.8872  131.0866  153.4511 H   0  0  0  0  0  0  0  0  0  0  0  0
  147.6137  129.3301  153.8991 H   0  0  0  0  0  0  0  0  0  0  0  0
  148.6417  129.9975  152.6369 H   0  0  0  0  0  0  0  0  0  0  0  0
  149.1038  137.0385  153.9289 H   0  0  0  0  0  0  0  0  0  0  0  0
  152.5614  137.1264  155.1987 H   0  0  0  0  0  0  0  0  0  0  0  0
  153.6489  139.2320  155.9769 H   0  0  0  0  0  0  0  0  0  0  0  0
  152.2870  141.3368  156.0235 H   0  0  0  0  0  0  0  0  0  0  0  0
  148.7225  139.2876  152.4992 H   0  0  0  0  0  0  0  0  0  0  0  0
  148.0371  137.8528  153.2743 H   0  0  0  0  0  0  0  0  0  0  0  0
  146.3748  139.6350  152.1015 H   0  0  0  0  0  0  0  0  0  0  0  0
  145.9480  138.9682  153.6813 H   0  0  0  0  0  0  0  0  0  0  0  0
  147.3080  141.6235  153.1148 H   0  0  0  0  0  0  0  0  0  0  0  0
  145.9128  141.3462  154.1582 H   0  0  0  0  0  0  0  0  0  0  0  0
  147.2759  140.4374  155.8772 H   0  0  0  0  0  0  0  0  0  0  0  0
  148.4970  141.4793  155.1371 H   0  0  0  0  0  0  0  0  0  0  0  0
  147.7650  131.8055  151.3596 H   0  0  0  0  0  0  0  0  0  0  0  0
  1  2  2  0  0  0  0
  2  3  1  0  0  0  0
  2 14  1  0  0  0  0
  3  4  1  0  0  0  0
  3 26  1  0  0  0  0
  4  5  1  0  0  0  0
  4 27  1  0  0  0  0
  4 28  1  0  0  0  0
  5 13  1  0  0  0  0
  5  6  1  0  0  0  0
  5 29  1  0  0  0  0
  6  7  1  0  0  0  0
  6 30  1  0  0  0  0
  6 31  1  0  0  0  0
  7 11  1  0  0  0  0
  7  8  1  0  0  0  0
  7 53  1  0  0  0  0
  8  9  1  0  0  0  0
  8 32  1  0  0  0  0
  8 33  1  0  0  0  0
  9 10  1  0  0  0  0
  9 34  1  0  0  0  0
  9 35  1  0  0  0  0
 10 11  1  0  0  0  0
 10 36  1  0  0  0  0
 10 37  1  0  0  0  0
 11 12  1  0  0  0  0
 11 38  1  0  0  0  0
 12 13  1  0  0  0  0
 12 39  1  0  0  0  0
 12 40  1  0  0  0  0
 14 15  1  0  0  0  0
 14 41  1  0  0  0  0
 15 20  1  0  0  0  0
 15 16  2  0  0  0  0
 16 17  1  0  0  0  0
 16 42  1  0  0  0  0
 17 18  2  0  0  0  0
 17 43  1  0  0  0  0
 18 19  1  0  0  0  0
 18 44  1  0  0  0  0
 19 20  2  0  0  0  0
 20 21  1  0  0  0  0
 21 25  1  0  0  0  0
 21 22  1  0  0  0  0
 22 23  1  0  0  0  0
 22 45  1  0  0  0  0
 22 46  1  0  0  0  0
 23 24  1  0  0  0  0
 23 47  1  0  0  0  0
 23 48  1  0  0  0  0
 24 25  1  0  0  0  0
 24 49  1  0  0  0  0
 24 50  1  0  0  0  0
 25 51  1  0  0  0  0
 25 52  1  0  0  0  0
M  CHG  1   7   1
M  END
> <s_m_source_file>
AV-unprocessed.smi

> <i_m_source_file_index>
1830

> <i_lp_mmshare_version>
43012

> <i_f3d_flags>
0

> <s_epik_input>
W0NIMl0xW0NIMl1bQ0gyXVtDQEhdKE4xMilbQ0gyXU9bQ0BASF0oW0NIMl0yKVtDSDJdW05IXUMoPU8pW05IXWMzW2NIXVtjSF1bY0hdbmMzTjRbQ0gyXVtDSDJdW0NIMl1bQ0gyXTQ=

> <s_epik_cmdline>
J2VwaWtfcHl0aG9uJywgJy1waCcsICc3LjAnLCAnLXRuJywgJzgnLCAnLW1hJywgJzIwMCcsICctbWV0YWxfYmluZGluZycsICctaW1hZScsICc8aW5maWxlLm1hZT4nLCAnLW9tYWUnLCAnPG91dGZpbGUubWFlPic=

> <r_lp_tautomer_probability>
1

> <r_epik_Ionization_Penalty>
0.193547

> <r_epik_Ionization_Penalty_Charging>
0.10673

> <r_epik_Ionization_Penalty_Neutral>
0.0868166

> <r_epik_State_Penalty>
0.173595

> <r_epik_Charging_Adjusted_Penalty>
0.280326

> <i_epik_Tot_Q>
1

> <i_epik_Tot_abs_Q>
1

> <r_epik_Metal_State_Penalty>
0.164683

> <b_epik_Metal_Only>
0

> <s_lp_Force_Field>
OPLS_2005

> <r_lp_Energy>
64.1667

> <b_lp_Chiralities_Consistent>
1

> <s_lp_Variant>
AV-unprocessed.smi:1830-1

> <Gold.Version>
5.8.1

> <Gold.Id.Protein>
6NUR|6NUR_protein|mol2

> <Gold.PLP.Fitness>
46.7430

> <Gold.PLP.PLP>
-39.7299

> <Gold.PLP.part.hbond>
-5.3203

> <Gold.PLP.part.metal>
0.0000

> <Gold.PLP.part.buried>
2.0737

> <Gold.PLP.part.nonpolar>
-38.1884

> <Gold.PLP.part.repulsive>
0.3833

> <Gold.PLP.ligand.clash>
0.0000

> <Gold.PLP.ligand.torsion>
0.6654

> <Gold.PLP.Chemscore.Hbond>
2.6224

> <Gold.PLP.Chemscore.CHOScore>
0.0000

> <Gold.PLP.Chemscore.Metal>
0.0000

> <Gold.Chemscore.Hbonds>
donor molecule, donor type, donor heavy atom, donor atom, acceptor molecule, acceptor atom, score
      L1  H     3    26       P1  7948  0.15
      L1  H     7    53       P1 10747  1.00
      L1  H    14    41       P1  7948  0.15
      P1  H 10752 10764       L1     1  1.00

> <Gold.PLP.Chemscore.Internal.Correction>
0.4769

> <Gold.Rescore>
     Score         DG    S(hbond)    S(metal)    S(lipo)     H(rot)  DE(clash)    DE(int)     intcor
     19.72     -23.72       2.50        0.00     115.32       1.41       1.94       2.07       ----

> <Gold.Chemscore.Fitness>
19.7164

> <Gold.Chemscore.DG>
-23.7247

> <Gold.Chemscore.ZeroCoef>
-5.4800

> <Gold.Chemscore.Hbond>
2.5010

> <Gold.Chemscore.Metal>
0.0000

> <Gold.Chemscore.Lipo>
115.3199

> <Gold.Chemscore.Internal_Hbond>
0.0000

> <Gold.Chemscore.DEClash>
1.9404

> <Gold.Chemscore.DEInternal>
2.0679

> <Gold.Chemscore.Rot>
1.4067

> <Gold.Chemscore.Internal.Correction>
   9.000000E+99

> <Gold.Chemscore.Hbonds>
donor molecule, donor type, donor heavy atom, donor atom, acceptor molecule, acceptor atom, score
      L1  H     3    26       P1  7948  0.15
      L1  H     7    53       P1 10747  1.00
      L1  H    14    41       P1  7948  0.16
      P1  H 10752 10764       L1     1  0.95

> <Gold.Chemscore.Hbond.Weighted>
-8.3534

> <Gold.Chemscore.Metal.Weighted>
-0.0000

> <Gold.Chemscore.Lipo.Weighted>
-13.4924

> <Gold.Chemscore.Internal_Hbond.Weighted>
0.0000

> <Gold.Chemscore.DEClash.Weighted>
1.9404

> <Gold.Chemscore.DEInternal.Weighted>
2.0679

> <Gold.Chemscore.Rot.Weighted>
3.6011

> <Gold.Chemscore.Internal.Correction.Weighted>
   9.000000E+99

> <Gold.Protein.RotatedTorsions>
[ 6907 6896 6895 6894 ] final  -48.22 input  -60.11 | X-H torsion
[ 7974 7965 7964 7962 ] final   84.83 input  175.53 | X-H torsion
[ 8008 7997 7996 7995 ] final   28.13 input   59.86 | X-H torsion
[ 10167 10162 10161 10158 ] final -124.35 input  -65.29 | X-H torsion
[ 10718 10713 10712 10709 ] final  138.41 input   66.30 | X-H torsion
[ 10763 10752 10751 10750 ] final  -42.71 input  -60.55 | X-H torsion
[ 11005 11000 10999 10996 ] final   51.54 input  -57.11 | X-H torsion

> <Gold.Protein.ActiveResidues>
 VAL166  LYS551  ARG553  GLY616  TRP617  ASP618  TYR619  PRO620  LYS621  CYS622 
 ASP623  PHE694  ASN695  SER759  ASP760  ASP761  ALA762  ILE779  LEU786  VAL792 
 PHE793  MET794  SER795  GLU796  ALA797  LYS798  CYS799  TRP800  GLU811  SER814 

> <Gold.Protein.RotatedAtoms>
  150.8927  134.8332  159.7304 H   0  0  0  0  0  0  0  0  0  0  0  0  # atno 6907 bound_to 6896
  152.4846  134.4623  159.9619 H   0  0  0  0  0  0  0  0  0  0  0  0  # atno 6908 bound_to 6896
  151.4684  133.3536  159.2855 H   0  0  0  0  0  0  0  0  0  0  0  0  # atno 6909 bound_to 6896
  145.5936  139.2341  143.2285 H   0  0  0  0  0  0  0  0  0  0  0  0  # atno 7974 bound_to 7965
  155.0538  140.3183  155.4683 H   0  0  0  0  0  0  0  0  0  0  0  0  # atno 8008 bound_to 7997
  156.2828  140.2141  156.5609 H   0  0  0  0  0  0  0  0  0  0  0  0  # atno 8009 bound_to 7997
  154.7188  140.0491  157.0607 H   0  0  0  0  0  0  0  0  0  0  0  0  # atno 8010 bound_to 7997
  139.9937  143.5614  152.2331 H   0  0  0  0  0  0  0  0  0  0  0  0  # atno 10167 bound_to 10162
  157.4256  131.1043  151.0306 H   0  0  0  0  0  0  0  0  0  0  0  0  # atno 10718 bound_to 10713
  153.9836  135.6714  153.4751 H   0  0  0  0  0  0  0  0  0  0  0  0  # atno 10763 bound_to 10752
  153.0737  135.4960  154.8356 H   0  0  0  0  0  0  0  0  0  0  0  0  # atno 10764 bound_to 10752
  154.7150  135.3105  154.9099 H   0  0  0  0  0  0  0  0  0  0  0  0  # atno 10765 bound_to 10752
  140.0924  134.5191  155.8839 H   0  0  0  0  0  0  0  0  0  0  0  0  # atno 11005 bound_to 11000
  146.1628  140.6762  142.9269 LP  0  0  0  0  0  0  0  0  0  0  0  0  # atno 17320 bound_to 7965
  144.7340  140.4756  143.6917 LP  0  0  0  0  0  0  0  0  0  0  0  0  # atno 17321 bound_to 7965
  139.6321  144.7645  151.2514 LP  0  0  0  0  0  0  0  0  0  0  0  0  # atno 17342 bound_to 10162
  140.7445  143.6461  150.8291 LP  0  0  0  0  0  0  0  0  0  0  0  0  # atno 17343 bound_to 10162
  157.1221  130.6066  149.5507 LP  0  0  0  0  0  0  0  0  0  0  0  0  # atno 17370 bound_to 10713
  155.9895  130.4943  150.7218 LP  0  0  0  0  0  0  0  0  0  0  0  0  # atno 17371 bound_to 10713
  141.2082  133.6671  156.6354 LP  0  0  0  0  0  0  0  0  0  0  0  0  # atno 17394 bound_to 11000
  140.3333  134.7910  157.4343 LP  0  0  0  0  0  0  0  0  0  0  0  0  # atno 17395 bound_to 11000

$$$$
