AV-unprocessed.smi:804|AV-procd|sdf|3794|dock10
  -GOLD-   22720 1233D 1   1.00000     0.00000
 Structure written by MMmdl.
 39 40  0  0  0  0  0  0  0  0  1 V2000
  145.3513  135.7256  161.8157 C   0  0  0  0  0  0  0  0  0  0  0  0
  146.6180  134.8754  162.0177 C   0  0  0  0  0  0  0  0  0  0  0  0
  147.4263  135.4533  163.1985 C   0  0  0  0  0  0  0  0  0  0  0  0
  146.2042  133.4167  162.3036 C   0  0  0  0  0  0  0  0  0  0  0  0
  147.3897  134.9598  160.7731 N   0  0  0  0  0  0  0  0  0  0  0  0
  147.9002  136.0518  160.1748 C   0  0  0  0  0  0  0  0  0  0  0  0
  147.8235  137.1929  160.6308 O   0  0  0  0  0  0  0  0  0  0  0  0
  148.6657  135.7871  158.9110 C   0  0  0  0  0  0  0  0  0  0  0  0
  149.4369  136.7995  158.4526 N   0  0  0  0  0  0  0  0  0  0  0  0
  150.1401  136.6131  157.3287 C   0  0  0  0  0  0  0  0  0  0  0  0
  150.9406  137.6727  156.8815 N   0  0  0  0  0  0  0  0  0  0  0  0
  151.4246  138.7088  157.7980 C   0  0  0  0  0  0  0  0  0  0  0  0
  151.6392  140.0419  157.0612 C   0  0  0  0  0  0  0  0  0  0  0  0
  152.5051  139.8468  155.9507 O   0  0  0  0  0  0  0  0  0  0  0  0
  151.9453  138.9414  155.0084 C   0  0  0  0  0  0  0  0  0  0  0  0
  151.7485  137.5643  155.6637 C   0  0  0  0  0  0  0  0  0  0  0  0
  150.1357  135.4873  156.6044 N   0  0  0  0  0  0  0  0  0  0  0  0
  149.3636  134.4672  157.0323 C   0  0  0  0  0  0  0  0  0  0  0  0
  148.5860  134.5598  158.2026 C   0  0  0  0  0  0  0  0  0  0  0  0
  147.5839  133.2306  158.6777 Cl  0  0  0  0  0  0  0  0  0  0  0  0
  144.7192  135.7144  162.7045 H   0  0  0  0  0  0  0  0  0  0  0  0
  144.7514  135.3556  160.9832 H   0  0  0  0  0  0  0  0  0  0  0  0
  145.5996  136.7665  161.6041 H   0  0  0  0  0  0  0  0  0  0  0  0
  147.7553  136.4727  162.9931 H   0  0  0  0  0  0  0  0  0  0  0  0
  148.3129  134.8591  163.4193 H   0  0  0  0  0  0  0  0  0  0  0  0
  146.8260  135.4797  164.1084 H   0  0  0  0  0  0  0  0  0  0  0  0
  145.5515  133.3582  163.1751 H   0  0  0  0  0  0  0  0  0  0  0  0
  147.0637  132.7778  162.5063 H   0  0  0  0  0  0  0  0  0  0  0  0
  145.6637  132.9847  161.4604 H   0  0  0  0  0  0  0  0  0  0  0  0
  147.5468  134.0813  160.3010 H   0  0  0  0  0  0  0  0  0  0  0  0
  150.7296  138.8852  158.6187 H   0  0  0  0  0  0  0  0  0  0  0  0
  152.3610  138.3709  158.2429 H   0  0  0  0  0  0  0  0  0  0  0  0
  150.6879  140.4597  156.7277 H   0  0  0  0  0  0  0  0  0  0  0  0
  152.0874  140.7724  157.7347 H   0  0  0  0  0  0  0  0  0  0  0  0
  150.9989  139.3302  154.6288 H   0  0  0  0  0  0  0  0  0  0  0  0
  152.6188  138.8570  154.1555 H   0  0  0  0  0  0  0  0  0  0  0  0
  152.7154  137.1315  155.9230 H   0  0  0  0  0  0  0  0  0  0  0  0
  151.2915  136.9025  154.9286 H   0  0  0  0  0  0  0  0  0  0  0  0
  149.3615  133.5711  156.4297 H   0  0  0  0  0  0  0  0  0  0  0  0
  1  2  1  0  0  0  0
  1 21  1  0  0  0  0
  1 22  1  0  0  0  0
  1 23  1  0  0  0  0
  2  3  1  0  0  0  0
  2  4  1  0  0  0  0
  2  5  1  0  0  0  0
  3 24  1  0  0  0  0
  3 25  1  0  0  0  0
  3 26  1  0  0  0  0
  4 27  1  0  0  0  0
  4 28  1  0  0  0  0
  4 29  1  0  0  0  0
  5  6  1  0  0  0  0
  5 30  1  0  0  0  0
  6  7  2  0  0  0  0
  6  8  1  0  0  0  0
  8 19  1  0  0  0  0
  8  9  2  0  0  0  0
  9 10  1  0  0  0  0
 10 11  1  0  0  0  0
 10 17  2  0  0  0  0
 11 16  1  0  0  0  0
 11 12  1  0  0  0  0
 12 13  1  0  0  0  0
 12 31  1  0  0  0  0
 12 32  1  0  0  0  0
 13 14  1  0  0  0  0
 13 33  1  0  0  0  0
 13 34  1  0  0  0  0
 14 15  1  0  0  0  0
 15 16  1  0  0  0  0
 15 35  1  0  0  0  0
 15 36  1  0  0  0  0
 16 37  1  0  0  0  0
 16 38  1  0  0  0  0
 17 18  1  0  0  0  0
 18 19  2  0  0  0  0
 18 39  1  0  0  0  0
 19 20  1  0  0  0  0
M  END
> <s_m_source_file>
AV-unprocessed.smi

> <i_m_source_file_index>
804

> <i_lp_mmshare_version>
43012

> <i_f3d_flags>
0

> <s_epik_input>
W0NIM11DKFtDSDNdKShbQ0gzXSlbTkhdQyg9TyljMW5jKG5bY0hdYzFDbClOMltDSDJdW0NIMl1PW0NIMl1bQ0gyXTI=

> <s_epik_cmdline>
J2VwaWtfcHl0aG9uJywgJy1waCcsICc3LjAnLCAnLXRuJywgJzgnLCAnLW1hJywgJzIwMCcsICctbWV0YWxfYmluZGluZycsICctaW1hZScsICc8aW5maWxlLm1hZT4nLCAnLW9tYWUnLCAnPG91dGZpbGUubWFlPic=

> <r_lp_tautomer_probability>
1

> <r_epik_Ionization_Penalty>
1.02082e-05

> <r_epik_Ionization_Penalty_Charging>
0

> <r_epik_Ionization_Penalty_Neutral>
1.02082e-05

> <r_epik_State_Penalty>
-0

> <r_epik_Charging_Adjusted_Penalty>
0

> <i_epik_Tot_Q>
0

> <i_epik_Tot_abs_Q>
0

> <r_epik_Metal_State_Penalty>
0.00994437

> <b_epik_Metal_Only>
0

> <s_lp_Force_Field>
OPLS_2005

> <r_lp_Energy>
15.0003

> <b_lp_Chiralities_Consistent>
1

> <s_lp_Variant>
AV-unprocessed.smi:804-1

> <Gold.Version>
5.8.1

> <Gold.Id.Protein>
6NUR|6NUR_protein|mol2

> <Gold.PLP.Fitness>
35.5527

> <Gold.PLP.PLP>
-27.9027

> <Gold.PLP.part.hbond>
-3.0000

> <Gold.PLP.part.metal>
0.0000

> <Gold.PLP.part.buried>
-4.0508

> <Gold.PLP.part.nonpolar>
-21.0459

> <Gold.PLP.part.repulsive>
0.0461

> <Gold.PLP.ligand.clash>
0.0000

> <Gold.PLP.ligand.torsion>
0.2036

> <Gold.PLP.Chemscore.Hbond>
2.6410

> <Gold.PLP.Chemscore.CHOScore>
0.0000

> <Gold.PLP.Chemscore.Metal>
0.0000

> <Gold.Chemscore.Hbonds>
donor molecule, donor type, donor heavy atom, donor atom, acceptor molecule, acceptor atom, score
      P1  H  6931  6943       L1     7  0.77
      P1  H  6934  6947       L1     7  0.85
      P1  H  7997  8009       L1    14  1.00

> <Gold.PLP.Chemscore.Internal.Correction>
0.1342

> <Gold.Rescore>
     Score         DG    S(hbond)    S(metal)    S(lipo)     H(rot)  DE(clash)    DE(int)     intcor
     18.11     -19.77       2.69        0.00      67.31       1.00       0.00       1.66       ----

> <Gold.Chemscore.Fitness>
18.1062

> <Gold.Chemscore.DG>
-19.7692

> <Gold.Chemscore.ZeroCoef>
-5.4800

> <Gold.Chemscore.Hbond>
2.6868

> <Gold.Chemscore.Metal>
0.0000

> <Gold.Chemscore.Lipo>
67.3093

> <Gold.Chemscore.Internal_Hbond>
0.0000

> <Gold.Chemscore.DEClash>
0.0029

> <Gold.Chemscore.DEInternal>
1.6600

> <Gold.Chemscore.Rot>
1.0000

> <Gold.Chemscore.Internal.Correction>
   9.000000E+99

> <Gold.Chemscore.Hbonds>
donor molecule, donor type, donor heavy atom, donor atom, acceptor molecule, acceptor atom, score
      P1  H  6931  6943       L1     7  0.73
      P1  H  6934  6947       L1     7  0.84
      P1  H  7997  8009       L1    14  0.97

> <Gold.Chemscore.Hbond.Weighted>
-8.9740

> <Gold.Chemscore.Metal.Weighted>
-0.0000

> <Gold.Chemscore.Lipo.Weighted>
-7.8752

> <Gold.Chemscore.Internal_Hbond.Weighted>
0.0000

> <Gold.Chemscore.DEClash.Weighted>
0.0029

> <Gold.Chemscore.DEInternal.Weighted>
1.6600

> <Gold.Chemscore.Rot.Weighted>
2.5600

> <Gold.Chemscore.Internal.Correction.Weighted>
   9.000000E+99

> <Gold.Protein.RotatedTorsions>
[ 6907 6896 6895 6894 ] final  -30.21 input  -60.11 | X-H torsion
[ 7974 7965 7964 7962 ] final   70.53 input  175.53 | X-H torsion
[ 8008 7997 7996 7995 ] final -144.04 input   59.86 | X-H torsion
[ 10167 10162 10161 10158 ] final   34.52 input  -65.29 | X-H torsion
[ 10718 10713 10712 10709 ] final -166.86 input   66.30 | X-H torsion
[ 10763 10752 10751 10750 ] final -165.78 input  -60.55 | X-H torsion
[ 11005 11000 10999 10996 ] final   82.91 input  -57.11 | X-H torsion

> <Gold.Protein.ActiveResidues>
 VAL166  LYS551  ARG553  GLY616  TRP617  ASP618  TYR619  PRO620  LYS621  CYS622 
 ASP623  PHE694  ASN695  SER759  ASP760  ASP761  ALA762  ILE779  LEU786  VAL792 
 PHE793  MET794  SER795  GLU796  ALA797  LYS798  CYS799  TRP800  GLU811  SER814 

> <Gold.Protein.RotatedAtoms>
  151.1087  135.0014  159.8483 H   0  0  0  0  0  0  0  0  0  0  0  0  # atno 6907 bound_to 6896
  152.5442  134.1862  159.8665 H   0  0  0  0  0  0  0  0  0  0  0  0  # atno 6908 bound_to 6896
  151.1910  133.4622  159.2628 H   0  0  0  0  0  0  0  0  0  0  0  0  # atno 6909 bound_to 6896
  145.7771  139.2870  143.1287 H   0  0  0  0  0  0  0  0  0  0  0  0  # atno 7974 bound_to 7965
  155.5205  140.0591  157.2907 H   0  0  0  0  0  0  0  0  0  0  0  0  # atno 8008 bound_to 7997
  154.4519  140.1953  156.0439 H   0  0  0  0  0  0  0  0  0  0  0  0  # atno 8009 bound_to 7997
  156.0722  140.3258  155.7594 H   0  0  0  0  0  0  0  0  0  0  0  0  # atno 8010 bound_to 7997
  140.4307  144.1329  150.6159 H   0  0  0  0  0  0  0  0  0  0  0  0  # atno 10167 bound_to 10162
  156.6740  130.9095  151.3048 H   0  0  0  0  0  0  0  0  0  0  0  0  # atno 10718 bound_to 10713
  154.6898  135.2969  154.9496 H   0  0  0  0  0  0  0  0  0  0  0  0  # atno 10763 bound_to 10752
  154.0463  135.6650  153.4799 H   0  0  0  0  0  0  0  0  0  0  0  0  # atno 10764 bound_to 10752
  153.0604  135.5119  154.7984 H   0  0  0  0  0  0  0  0  0  0  0  0  # atno 10765 bound_to 10752
  139.9048  134.8106  156.2238 H   0  0  0  0  0  0  0  0  0  0  0  0  # atno 11005 bound_to 11000
  146.0112  140.8434  142.9970 LP  0  0  0  0  0  0  0  0  0  0  0  0  # atno 17320 bound_to 7965
  144.6802  140.2492  143.7334 LP  0  0  0  0  0  0  0  0  0  0  0  0  # atno 17321 bound_to 7965
  140.4430  143.2518  151.9448 LP  0  0  0  0  0  0  0  0  0  0  0  0  # atno 17342 bound_to 10162
  139.4785  144.5636  151.8201 LP  0  0  0  0  0  0  0  0  0  0  0  0  # atno 17343 bound_to 10162
  157.7067  130.9393  150.0954 LP  0  0  0  0  0  0  0  0  0  0  0  0  # atno 17370 bound_to 10713
  156.1917  130.3655  149.8901 LP  0  0  0  0  0  0  0  0  0  0  0  0  # atno 17371 bound_to 10713
  141.0389  133.6948  156.1562 LP  0  0  0  0  0  0  0  0  0  0  0  0  # atno 17394 bound_to 11000
  140.6985  134.4589  157.5587 LP  0  0  0  0  0  0  0  0  0  0  0  0  # atno 17395 bound_to 11000

$$$$
