AV-unprocessed.smi:2740|AV-procd|sdf|10555|dock9
  -GOLD-   2272015 03D 1   1.00000     0.00000
 Structure written by MMmdl.
 31 32  0  0  0  0  0  0  0  0  1 V2000
  144.6638  131.1701  150.8329 C   0  0  0  0  0  0  0  0  0  0  0  0
  144.8086  132.6194  151.1528 C   0  0  0  0  0  0  0  0  0  0  0  0
  143.8192  133.5720  151.1960 C   0  0  0  0  0  0  0  0  0  0  0  0
  144.2768  134.8485  151.5318 N   0  0  0  0  0  0  0  0  0  0  0  0
  145.5976  134.8686  151.7413 C   0  0  0  0  0  0  0  0  0  0  0  0
  146.3348  136.0270  152.1026 N   0  0  0  0  0  0  0  0  0  0  0  0
  145.8819  137.1537  152.6797 C   0  0  0  0  0  0  0  0  0  0  0  0
  144.7096  137.3746  152.9847 O   0  0  0  0  0  0  0  0  0  0  0  0
  146.8780  138.0278  152.8843 N   0  0  0  0  0  0  0  0  0  0  0  0
  146.7336  139.3485  153.4891 C   0  0  0  0  0  0  0  0  0  0  0  0
  148.0638  140.1209  153.5045 C   0  0  1  0  0  0  0  0  0  0  0  0
  148.0153  141.4842  154.1960 C   0  0  0  0  0  0  0  0  0  0  0  0
  149.4602  141.6750  154.5949 C   0  0  0  0  0  0  0  0  0  0  0  0
  149.8592  140.2593  155.0004 C   0  0  0  0  0  0  0  0  0  0  0  0
  149.0523  139.3822  154.2176 O   0  0  0  0  0  0  0  0  0  0  0  0
  146.3690  133.3042  151.5320 S   0  0  0  0  0  0  0  0  0  0  0  0
  143.6192  130.8612  150.8767 H   0  0  0  0  0  0  0  0  0  0  0  0
  145.2237  130.5584  151.5407 H   0  0  0  0  0  0  0  0  0  0  0  0
  145.0371  130.9567  149.8312 H   0  0  0  0  0  0  0  0  0  0  0  0
  142.7659  133.4296  151.0043 H   0  0  0  0  0  0  0  0  0  0  0  0
  147.3239  135.9899  151.9059 H   0  0  0  0  0  0  0  0  0  0  0  0
  147.8095  137.7607  152.6020 H   0  0  0  0  0  0  0  0  0  0  0  0
  145.9595  139.9297  152.9851 H   0  0  0  0  0  0  0  0  0  0  0  0
  146.3866  139.2061  154.5128 H   0  0  0  0  0  0  0  0  0  0  0  0
  148.4303  140.2503  152.4848 H   0  0  0  0  0  0  0  0  0  0  0  0
  147.6409  142.2779  153.5487 H   0  0  0  0  0  0  0  0  0  0  0  0
  147.3868  141.4429  155.0867 H   0  0  0  0  0  0  0  0  0  0  0  0
  150.0465  142.0002  153.7344 H   0  0  0  0  0  0  0  0  0  0  0  0
  149.5928  142.4024  155.3961 H   0  0  0  0  0  0  0  0  0  0  0  0
  150.9213  140.0679  154.8459 H   0  0  0  0  0  0  0  0  0  0  0  0
  149.6341  140.0877  156.0537 H   0  0  0  0  0  0  0  0  0  0  0  0
  1  2  1  0  0  0  0
  1 17  1  0  0  0  0
  1 18  1  0  0  0  0
  1 19  1  0  0  0  0
  2 16  1  0  0  0  0
  2  3  2  0  0  0  0
  3  4  1  0  0  0  0
  3 20  1  0  0  0  0
  4  5  2  0  0  0  0
  5  6  1  0  0  0  0
  5 16  1  0  0  0  0
  6  7  1  0  0  0  0
  6 21  1  0  0  0  0
  7  8  2  0  0  0  0
  7  9  1  0  0  0  0
  9 10  1  0  0  0  0
  9 22  1  0  0  0  0
 10 11  1  0  0  0  0
 10 23  1  0  0  0  0
 10 24  1  0  0  0  0
 11 15  1  0  0  0  0
 11 12  1  0  0  0  0
 11 25  1  0  0  0  0
 12 13  1  0  0  0  0
 12 26  1  0  0  0  0
 12 27  1  0  0  0  0
 13 14  1  0  0  0  0
 13 28  1  0  0  0  0
 13 29  1  0  0  0  0
 14 15  1  0  0  0  0
 14 30  1  0  0  0  0
 14 31  1  0  0  0  0
M  END
> <s_m_source_file>
AV-unprocessed.smi

> <i_m_source_file_index>
2740

> <i_lp_mmshare_version>
43012

> <i_f3d_flags>
0

> <s_epik_input>
W0NIM11jMVtjSF1uYyhzMSlbTkhdQyg9TylbTkhdW0NIMl1bQ0BASF0yW0NIMl1bQ0gyXVtDSDJdTzI=

> <s_epik_cmdline>
J2VwaWtfcHl0aG9uJywgJy1waCcsICc3LjAnLCAnLXRuJywgJzgnLCAnLW1hJywgJzIwMCcsICctbWV0YWxfYmluZGluZycsICctaW1hZScsICc8aW5maWxlLm1hZT4nLCAnLW9tYWUnLCAnPG91dGZpbGUubWFlPic=

> <r_lp_tautomer_probability>
0.999

> <r_epik_Ionization_Penalty>
0.000387528

> <r_epik_Ionization_Penalty_Charging>
0

> <r_epik_Ionization_Penalty_Neutral>
0.000387528

> <r_epik_State_Penalty>
0.000177984

> <r_epik_Charging_Adjusted_Penalty>
0.000177984

> <i_epik_Tot_Q>
0

> <i_epik_Tot_abs_Q>
0

> <r_epik_Metal_State_Penalty>
0.00626158

> <b_epik_Metal_Only>
0

> <s_lp_Force_Field>
OPLS_2005

> <r_lp_Energy>
15.3507

> <b_lp_Chiralities_Consistent>
1

> <s_lp_Variant>
AV-unprocessed.smi:2740-2

> <Gold.Version>
5.8.1

> <Gold.Id.Protein>
6NUR|6NUR_protein|mol2

> <Gold.PLP.Fitness>
34.3825

> <Gold.PLP.PLP>
-25.8713

> <Gold.PLP.part.hbond>
-2.0000

> <Gold.PLP.part.metal>
0.0000

> <Gold.PLP.part.buried>
-1.8059

> <Gold.PLP.part.nonpolar>
-22.3249

> <Gold.PLP.part.repulsive>
0.5582

> <Gold.PLP.ligand.clash>
0.0000

> <Gold.PLP.ligand.torsion>
0.1132

> <Gold.PLP.Chemscore.Hbond>
1.9120

> <Gold.PLP.Chemscore.CHOScore>
1.0000

> <Gold.PLP.Chemscore.Metal>
0.0000

> <Gold.Chemscore.Hbonds>
donor molecule, donor type, donor heavy atom, donor atom, acceptor molecule, acceptor atom, score
      L1  H     6    21       P1  7948  1.00
      L1  H     9    22       P1  7948  0.89
      L1  C     3    20       P1 10186  1.00

> <Gold.PLP.Chemscore.Internal.Correction>
0.0016

> <Gold.Rescore>
     Score         DG    S(hbond)    S(metal)    S(lipo)     H(rot)  DE(clash)    DE(int)     intcor
     14.48     -16.05       1.89        0.00      64.08       1.27       0.27       1.30       ----

> <Gold.Chemscore.Fitness>
14.4848

> <Gold.Chemscore.DG>
-16.0504

> <Gold.Chemscore.ZeroCoef>
-5.4800

> <Gold.Chemscore.Hbond>
1.8916

> <Gold.Chemscore.Metal>
0.0000

> <Gold.Chemscore.Lipo>
64.0846

> <Gold.Chemscore.Internal_Hbond>
0.0000

> <Gold.Chemscore.DEClash>
0.2671

> <Gold.Chemscore.DEInternal>
1.2985

> <Gold.Chemscore.Rot>
1.2678

> <Gold.Chemscore.Internal.Correction>
   9.000000E+99

> <Gold.Chemscore.Hbonds>
donor molecule, donor type, donor heavy atom, donor atom, acceptor molecule, acceptor atom, score
      L1  H     6    21       P1  7948  0.99
      L1  H     9    22       P1  7948  0.81

> <Gold.Chemscore.Hbond.Weighted>
-6.3180

> <Gold.Chemscore.Metal.Weighted>
-0.0000

> <Gold.Chemscore.Lipo.Weighted>
-7.4979

> <Gold.Chemscore.Internal_Hbond.Weighted>
0.0000

> <Gold.Chemscore.DEClash.Weighted>
0.2671

> <Gold.Chemscore.DEInternal.Weighted>
1.2985

> <Gold.Chemscore.Rot.Weighted>
3.2455

> <Gold.Chemscore.Internal.Correction.Weighted>
   9.000000E+99

> <Gold.Protein.RotatedTorsions>
[ 6907 6896 6895 6894 ] final  130.35 input  -60.11 | X-H torsion
[ 7974 7965 7964 7962 ] final  160.36 input  175.53 | X-H torsion
[ 8008 7997 7996 7995 ] final  125.71 input   59.86 | X-H torsion
[ 10167 10162 10161 10158 ] final  135.22 input  -65.29 | X-H torsion
[ 10718 10713 10712 10709 ] final   19.14 input   66.30 | X-H torsion
[ 10763 10752 10751 10750 ] final  145.62 input  -60.55 | X-H torsion
[ 11005 11000 10999 10996 ] final   83.25 input  -57.11 | X-H torsion

> <Gold.Protein.ActiveResidues>
 VAL166  LYS551  ARG553  GLY616  TRP617  ASP618  TYR619  PRO620  LYS621  CYS622 
 ASP623  PHE694  ASN695  SER759  ASP760  ASP761  ALA762  ILE779  LEU786  VAL792 
 PHE793  MET794  SER795  GLU796  ALA797  LYS798  CYS799  TRP800  GLU811  SER814 

> <Gold.Protein.RotatedAtoms>
  152.3534  133.6207  159.5961 H   0  0  0  0  0  0  0  0  0  0  0  0  # atno 6907 bound_to 6896
  150.7553  133.9538  159.3503 H   0  0  0  0  0  0  0  0  0  0  0  0  # atno 6908 bound_to 6896
  151.7386  135.0860  160.0363 H   0  0  0  0  0  0  0  0  0  0  0  0  # atno 6909 bound_to 6896
  144.7741  139.7746  143.6285 H   0  0  0  0  0  0  0  0  0  0  0  0  # atno 7974 bound_to 7965
  156.2842  140.2710  156.1994 H   0  0  0  0  0  0  0  0  0  0  0  0  # atno 8008 bound_to 7997
  155.0377  140.0386  157.2516 H   0  0  0  0  0  0  0  0  0  0  0  0  # atno 8009 bound_to 7997
  154.7301  140.2705  155.6469 H   0  0  0  0  0  0  0  0  0  0  0  0  # atno 8010 bound_to 7997
  139.5226  144.6528  151.5252 H   0  0  0  0  0  0  0  0  0  0  0  0  # atno 10167 bound_to 10162
  157.1062  130.6489  149.5885 H   0  0  0  0  0  0  0  0  0  0  0  0  # atno 10718 bound_to 10713
  154.0083  135.2917  155.3395 H   0  0  0  0  0  0  0  0  0  0  0  0  # atno 10763 bound_to 10752
  154.7118  135.5146  153.8681 H   0  0  0  0  0  0  0  0  0  0  0  0  # atno 10764 bound_to 10752
  153.0734  135.6655  154.0318 H   0  0  0  0  0  0  0  0  0  0  0  0  # atno 10765 bound_to 10752
  139.9037  134.8131  156.2284 H   0  0  0  0  0  0  0  0  0  0  0  0  # atno 11005 bound_to 11000
  146.1909  139.5148  142.9806 LP  0  0  0  0  0  0  0  0  0  0  0  0  # atno 17320 bound_to 7965
  145.6237  141.0317  143.1901 LP  0  0  0  0  0  0  0  0  0  0  0  0  # atno 17321 bound_to 7965
  140.6340  143.9020  150.6631 LP  0  0  0  0  0  0  0  0  0  0  0  0  # atno 17342 bound_to 10162
  140.2333  143.3719  152.1547 LP  0  0  0  0  0  0  0  0  0  0  0  0  # atno 17343 bound_to 10162
  155.9861  130.4894  150.7064 LP  0  0  0  0  0  0  0  0  0  0  0  0  # atno 17370 bound_to 10713
  157.4598  131.0882  151.0758 LP  0  0  0  0  0  0  0  0  0  0  0  0  # atno 17371 bound_to 10713
  141.0361  133.6962  156.1515 LP  0  0  0  0  0  0  0  0  0  0  0  0  # atno 17394 bound_to 11000
  140.7025  134.4549  157.5585 LP  0  0  0  0  0  0  0  0  0  0  0  0  # atno 17395 bound_to 11000

$$$$
