AV-unprocessed.smi:2061|AV-procd|sdf|8379|dock5
  -GOLD-   2272011 53D 1   1.00000     0.00000
 Structure written by MMmdl.
 44 45  0  0  0  0  0  0  0  0  2 V2000
  143.8877  134.3167  162.2910 C   0  0  0  0  0  0  0  0  0  0  0  0
  145.1774  134.9741  161.9362 C   0  0  0  0  0  0  0  0  0  0  0  0
  145.4946  135.9948  161.0857 C   0  0  0  0  0  0  0  0  0  0  0  0
  146.9030  136.1176  161.2365 C   0  0  0  0  0  0  0  0  0  0  0  0
  147.6916  136.9892  160.5893 N   0  5  0  0  0  0  0  0  0  0  0  0
  148.6611  136.5430  159.7573 C   0  0  0  0  0  0  0  0  0  0  0  0
  148.8578  135.3710  159.4285 O   0  0  0  0  0  0  0  0  0  0  0  0
  149.4547  137.5167  159.2869 N   0  0  0  0  0  0  0  0  0  0  0  0
  150.5844  137.3553  158.3729 C   0  0  0  0  0  0  0  0  0  0  0  0
  151.8043  138.2457  158.7464 C   0  0  1  0  0  0  0  0  0  0  0  0
  152.9403  138.0056  157.7193 C   0  0  0  0  0  0  0  0  0  0  0  0
  151.4605  139.6812  158.8907 N   0  0  0  0  0  0  0  0  0  0  0  0
  151.2517  140.3417  157.5966 C   0  0  0  0  0  0  0  0  0  0  0  0
  150.9168  141.8421  157.7127 C   0  0  1  0  0  0  0  0  0  0  0  0
  149.4866  142.1107  158.2120 C   0  0  0  0  0  0  0  0  0  0  0  0
  151.8931  142.5091  158.5090 O   0  0  0  0  0  0  0  0  0  0  0  0
  152.1139  141.9270  159.7888 C   0  0  2  0  0  0  0  0  0  0  0  0
  153.2278  142.7181  160.4831 C   0  0  0  0  0  0  0  0  0  0  0  0
  152.4772  140.4402  159.6248 C   0  0  0  0  0  0  0  0  0  0  0  0
  147.3990  135.2366  162.0889 N   0  0  0  0  0  0  0  0  0  0  0  0
  146.2979  134.5033  162.5471 O   0  0  0  0  0  0  0  0  0  0  0  0
  143.5252  133.7084  161.4626 H   0  0  0  0  0  0  0  0  0  0  0  0
  143.1265  135.0617  162.5226 H   0  0  0  0  0  0  0  0  0  0  0  0
  144.0019  133.6700  163.1613 H   0  0  0  0  0  0  0  0  0  0  0  0
  144.8270  136.5667  160.4588 H   0  0  0  0  0  0  0  0  0  0  0  0
  149.2516  138.4577  159.5904 H   0  0  0  0  0  0  0  0  0  0  0  0
  150.8927  136.3119  158.2896 H   0  0  0  0  0  0  0  0  0  0  0  0
  150.1787  137.6309  157.4017 H   0  0  0  0  0  0  0  0  0  0  0  0
  152.1695  137.8902  159.7112 H   0  0  0  0  0  0  0  0  0  0  0  0
  153.1726  136.9489  157.5959 H   0  0  0  0  0  0  0  0  0  0  0  0
  153.8811  138.4619  158.0220 H   0  0  0  0  0  0  0  0  0  0  0  0
  152.6731  138.3985  156.7378 H   0  0  0  0  0  0  0  0  0  0  0  0
  152.1481  140.2266  156.9853 H   0  0  0  0  0  0  0  0  0  0  0  0
  150.4381  139.8729  157.0465 H   0  0  0  0  0  0  0  0  0  0  0  0
  150.9900  142.2778  156.7160 H   0  0  0  0  0  0  0  0  0  0  0  0
  148.7517  141.7054  157.5162 H   0  0  0  0  0  0  0  0  0  0  0  0
  149.3006  143.1809  158.3028 H   0  0  0  0  0  0  0  0  0  0  0  0
  149.2987  141.6541  159.1837 H   0  0  0  0  0  0  0  0  0  0  0  0
  151.2086  142.0154  160.3898 H   0  0  0  0  0  0  0  0  0  0  0  0
  153.4295  142.3211  161.4784 H   0  0  0  0  0  0  0  0  0  0  0  0
  152.9498  143.7666  160.5941 H   0  0  0  0  0  0  0  0  0  0  0  0
  154.1558  142.6779  159.9120 H   0  0  0  0  0  0  0  0  0  0  0  0
  152.6039  140.0411  160.6289 H   0  0  0  0  0  0  0  0  0  0  0  0
  153.4408  140.3488  159.1213 H   0  0  0  0  0  0  0  0  0  0  0  0
  1  2  1  0  0  0  0
  1 22  1  0  0  0  0
  1 23  1  0  0  0  0
  1 24  1  0  0  0  0
  2 21  1  0  0  0  0
  2  3  2  0  0  0  0
  3  4  1  0  0  0  0
  3 25  1  0  0  0  0
  4  5  1  0  0  0  0
  4 20  2  0  0  0  0
  5  6  1  0  0  0  0
  6  7  2  0  0  0  0
  6  8  1  0  0  0  0
  8  9  1  0  0  0  0
  8 26  1  0  0  0  0
  9 10  1  0  0  0  0
  9 27  1  0  0  0  0
  9 28  1  0  0  0  0
 10 11  1  0  0  0  0
 10 12  1  0  0  0  0
 10 29  1  0  0  0  0
 11 30  1  0  0  0  0
 11 31  1  0  0  0  0
 11 32  1  0  0  0  0
 12 19  1  0  0  0  0
 12 13  1  0  0  0  0
 13 14  1  0  0  0  0
 13 33  1  0  0  0  0
 13 34  1  0  0  0  0
 14 15  1  0  0  0  0
 14 16  1  0  0  0  0
 14 35  1  0  0  0  0
 15 36  1  0  0  0  0
 15 37  1  0  0  0  0
 15 38  1  0  0  0  0
 16 17  1  0  0  0  0
 17 18  1  0  0  0  0
 17 19  1  0  0  0  0
 17 39  1  0  0  0  0
 18 40  1  0  0  0  0
 18 41  1  0  0  0  0
 18 42  1  0  0  0  0
 19 43  1  0  0  0  0
 19 44  1  0  0  0  0
 20 21  1  0  0  0  0
M  CHG  1   5  -1
M  END
> <s_m_source_file>
AV-unprocessed.smi

> <i_m_source_file_index>
2061

> <i_lp_mmshare_version>
43012

> <i_f3d_flags>
0

> <s_epik_input>
W0NIM11jMVtjSF1jKG5vMSlbTkhdQyg9TylbTkhdW0NIMl1bQ0BIXShbQ0gzXSlOMltDSDJdW0NAQEhdKFtDSDNdKU9bQ0BASF0oW0NIM10pW0NIMl0y

> <s_epik_cmdline>
J2VwaWtfcHl0aG9uJywgJy1waCcsICc3LjAnLCAnLXRuJywgJzgnLCAnLW1hJywgJzIwMCcsICctbWV0YWxfYmluZGluZycsICctaW1hZScsICc8aW5maWxlLm1hZT4nLCAnLW9tYWUnLCAnPG91dGZpbGUubWFlPic=

> <r_epik_Ionization_Penalty>
6.88367

> <r_epik_Ionization_Penalty_Charging>
6.57198

> <r_epik_Ionization_Penalty_Neutral>
0.311681

> <r_epik_State_Penalty>
6.77619

> <r_epik_Charging_Adjusted_Penalty>
13.3482

> <i_epik_Tot_Q>
-1

> <i_epik_Tot_abs_Q>
1

> <r_epik_Metal_State_Penalty>
2.70524

> <b_epik_Metal_Only>
1

> <s_lp_Force_Field>
OPLS_2005

> <r_lp_Energy>
24.642

> <b_lp_Chiralities_Consistent>
1

> <s_lp_Variant>
AV-unprocessed.smi:2061-20

> <Gold.Version>
5.8.1

> <Gold.Id.Protein>
6NUR|6NUR_protein|mol2

> <Gold.PLP.Fitness>
45.3213

> <Gold.PLP.PLP>
-33.6285

> <Gold.PLP.part.hbond>
-3.6873

> <Gold.PLP.part.metal>
0.0000

> <Gold.PLP.part.buried>
-8.0581

> <Gold.PLP.part.nonpolar>
-23.6177

> <Gold.PLP.part.repulsive>
0.7794

> <Gold.PLP.ligand.clash>
0.0000

> <Gold.PLP.ligand.torsion>
0.9428

> <Gold.PLP.Chemscore.Hbond>
4.4886

> <Gold.PLP.Chemscore.CHOScore>
0.0000

> <Gold.PLP.Chemscore.Metal>
0.0000

> <Gold.Chemscore.Hbonds>
donor molecule, donor type, donor heavy atom, donor atom, acceptor molecule, acceptor atom, score
      P1  H  6896  6908       L1     7  1.00
      P1  H  6931  6943       L1     5  0.62
      P1  H  6934  6947       L1     5  1.50

> <Gold.PLP.Chemscore.Internal.Correction>
0.1128

> <Gold.Rescore>
     Score         DG    S(hbond)    S(metal)    S(lipo)     H(rot)  DE(clash)    DE(int)     intcor
     14.50     -16.09       1.77        0.00      73.22       1.52       0.49       1.09       ----

> <Gold.Chemscore.Fitness>
14.5010

> <Gold.Chemscore.DG>
-16.0857

> <Gold.Chemscore.ZeroCoef>
-5.4800

> <Gold.Chemscore.Hbond>
1.7746

> <Gold.Chemscore.Metal>
0.0000

> <Gold.Chemscore.Lipo>
73.2231

> <Gold.Chemscore.Internal_Hbond>
0.0000

> <Gold.Chemscore.DEClash>
0.4939

> <Gold.Chemscore.DEInternal>
1.0908

> <Gold.Chemscore.Rot>
1.5190

> <Gold.Chemscore.Internal.Correction>
   9.000000E+99

> <Gold.Chemscore.Hbonds>
donor molecule, donor type, donor heavy atom, donor atom, acceptor molecule, acceptor atom, score
      P1  H  6896  6908       L1     7  0.93
      P1  H  6931  6943       L1     5  0.05
      P1  H  6934  6947       L1     5  0.62

> <Gold.Chemscore.Hbond.Weighted>
-5.9273

> <Gold.Chemscore.Metal.Weighted>
-0.0000

> <Gold.Chemscore.Lipo.Weighted>
-8.5671

> <Gold.Chemscore.Internal_Hbond.Weighted>
0.0000

> <Gold.Chemscore.DEClash.Weighted>
0.4939

> <Gold.Chemscore.DEInternal.Weighted>
1.0908

> <Gold.Chemscore.Rot.Weighted>
3.8886

> <Gold.Chemscore.Internal.Correction.Weighted>
   9.000000E+99

> <Gold.Protein.RotatedTorsions>
[ 6907 6896 6895 6894 ] final  175.40 input  -60.11 | X-H torsion
[ 7974 7965 7964 7962 ] final   50.54 input  175.53 | X-H torsion
[ 8008 7997 7996 7995 ] final   93.23 input   59.86 | X-H torsion
[ 10167 10162 10161 10158 ] final  128.57 input  -65.29 | X-H torsion
[ 10718 10713 10712 10709 ] final  126.92 input   66.30 | X-H torsion
[ 10763 10752 10751 10750 ] final  136.36 input  -60.55 | X-H torsion
[ 11005 11000 10999 10996 ] final   90.21 input  -57.11 | X-H torsion

> <Gold.Protein.ActiveResidues>
 VAL166  LYS551  ARG553  GLY616  TRP617  ASP618  TYR619  PRO620  LYS621  CYS622 
 ASP623  PHE694  ASN695  SER759  ASP760  ASP761  ALA762  ILE779  LEU786  VAL792 
 PHE793  MET794  SER795  GLU796  ALA797  LYS798  CYS799  TRP800  GLU811  SER814 

> <Gold.Protein.RotatedAtoms>
  151.7369  133.3320  159.3354 H   0  0  0  0  0  0  0  0  0  0  0  0  # atno 6907 bound_to 6896
  150.7589  134.6313  159.6197 H   0  0  0  0  0  0  0  0  0  0  0  0  # atno 6908 bound_to 6896
  152.3556  134.6947  160.0275 H   0  0  0  0  0  0  0  0  0  0  0  0  # atno 6909 bound_to 6896
  146.0002  139.4431  143.0020 H   0  0  0  0  0  0  0  0  0  0  0  0  # atno 7974 bound_to 7965
  156.0444  140.3315  155.7279 H   0  0  0  0  0  0  0  0  0  0  0  0  # atno 8008 bound_to 7997
  155.5696  140.0626  157.2827 H   0  0  0  0  0  0  0  0  0  0  0  0  # atno 8009 bound_to 7997
  154.4407  140.1863  156.0854 H   0  0  0  0  0  0  0  0  0  0  0  0  # atno 8010 bound_to 7997
  139.5521  144.6821  151.4293 H   0  0  0  0  0  0  0  0  0  0  0  0  # atno 10167 bound_to 10162
  157.5378  131.1097  150.8908 H   0  0  0  0  0  0  0  0  0  0  0  0  # atno 10718 bound_to 10713
  153.8553  135.3074  155.3435 H   0  0  0  0  0  0  0  0  0  0  0  0  # atno 10763 bound_to 10752
  154.7873  135.4802  153.9977 H   0  0  0  0  0  0  0  0  0  0  0  0  # atno 10764 bound_to 10752
  153.1494  135.6840  153.8999 H   0  0  0  0  0  0  0  0  0  0  0  0  # atno 10765 bound_to 10752
  139.8860  134.8599  156.3252 H   0  0  0  0  0  0  0  0  0  0  0  0  # atno 11005 bound_to 11000
  145.7499  140.9976  143.1256 LP  0  0  0  0  0  0  0  0  0  0  0  0  # atno 17320 bound_to 7965
  144.6917  139.9202  143.7467 LP  0  0  0  0  0  0  0  0  0  0  0  0  # atno 17321 bound_to 7965
  140.6785  143.8135  150.7090 LP  0  0  0  0  0  0  0  0  0  0  0  0  # atno 17342 bound_to 10162
  140.1581  143.4299  152.2086 LP  0  0  0  0  0  0  0  0  0  0  0  0  # atno 17343 bound_to 10162
  156.9470  130.5405  149.5281 LP  0  0  0  0  0  0  0  0  0  0  0  0  # atno 17370 bound_to 10713
  156.0472  130.5547  150.8908 LP  0  0  0  0  0  0  0  0  0  0  0  0  # atno 17371 bound_to 10713
  140.9760  133.7297  156.0602 LP  0  0  0  0  0  0  0  0  0  0  0  0  # atno 17394 bound_to 11000
  140.7810  134.3725  157.5487 LP  0  0  0  0  0  0  0  0  0  0  0  0  # atno 17395 bound_to 11000

$$$$
