AV-unprocessed.smi:2279|AV-procd|sdf|9189|dock6
  -GOLD-   2272012403D 1   1.00000     0.00000
 Structure written by MMmdl.
 57 59  0  0  0  0  0  0  0  0  2 V2000
  146.8167  130.7369  152.8188 C   0  0  0  0  0  0  0  0  0  0  0  0
  148.0150  131.3024  153.5516 C   0  0  0  0  0  0  0  0  0  0  0  0
  148.8701  130.4650  154.2935 C   0  0  0  0  0  0  0  0  0  0  0  0
  149.9679  131.0524  154.9522 C   0  0  0  0  0  0  0  0  0  0  0  0
  150.9296  130.2113  155.7646 C   0  0  0  0  0  0  0  0  0  0  0  0
  150.2350  132.3750  154.9033 N   0  0  0  0  0  0  0  0  0  0  0  0
  149.4184  133.1911  154.1919 C   0  0  0  0  0  0  0  0  0  0  0  0
  149.6108  134.5941  154.0794 N   0  0  0  0  0  0  0  0  0  0  0  0
  150.4203  135.3818  154.8095 C   0  0  0  0  0  0  0  0  0  0  0  0
  151.1562  135.0002  155.7202 O   0  0  0  0  0  0  0  0  0  0  0  0
  150.3312  136.6635  154.4238 N   0  0  0  0  0  0  0  0  0  0  0  0
  151.0841  137.7690  155.0098 C   0  0  2  0  0  0  0  0  0  0  0  0
  151.1228  137.6613  156.5419 C   0  0  0  0  0  0  0  0  0  0  0  0
  151.8444  138.8690  157.1605 C   0  0  0  0  0  0  0  0  0  0  0  0
  151.2089  140.1609  156.7700 N   0  3  1  0  0  0  0  0  0  0  0  0
  151.8102  141.3304  157.4927 C   0  0  0  0  0  0  0  0  0  0  0  0
  151.9291  141.0469  159.0086 C   0  0  0  0  0  0  0  0  0  0  0  0
  152.4886  142.2550  159.7799 C   0  0  0  0  0  0  0  0  0  0  0  0
  151.6251  143.4168  159.5858 N   0  0  0  0  0  0  0  0  0  0  0  0
  152.1294  144.5320  160.3749 C   0  0  0  0  0  0  0  0  0  0  0  0
  151.6164  143.7887  158.1735 C   0  0  0  0  0  0  0  0  0  0  0  0
  151.0170  142.6502  157.3303 C   0  0  0  0  0  0  0  0  0  0  0  0
  151.1611  140.2929  155.2836 C   0  0  0  0  0  0  0  0  0  0  0  0
  150.4400  139.1056  154.6222 C   0  0  0  0  0  0  0  0  0  0  0  0
  148.2951  132.6829  153.5016 C   0  0  0  0  0  0  0  0  0  0  0  0
  146.7206  129.6633  152.9839 H   0  0  0  0  0  0  0  0  0  0  0  0
  146.9141  130.9098  151.7469 H   0  0  0  0  0  0  0  0  0  0  0  0
  145.9012  131.2180  153.1637 H   0  0  0  0  0  0  0  0  0  0  0  0
  148.6902  129.4017  154.3558 H   0  0  0  0  0  0  0  0  0  0  0  0
  150.5677  129.1882  155.8699 H   0  0  0  0  0  0  0  0  0  0  0  0
  151.0546  130.6314  156.7631 H   0  0  0  0  0  0  0  0  0  0  0  0
  151.9055  130.1804  155.2795 H   0  0  0  0  0  0  0  0  0  0  0  0
  149.0670  135.0490  153.3614 H   0  0  0  0  0  0  0  0  0  0  0  0
  149.7023  136.8894  153.6670 H   0  0  0  0  0  0  0  0  0  0  0  0
  152.1046  137.7520  154.6216 H   0  0  0  0  0  0  0  0  0  0  0  0
  150.1085  137.5985  156.9389 H   0  0  0  0  0  0  0  0  0  0  0  0
  151.6293  136.7433  156.8426 H   0  0  0  0  0  0  0  0  0  0  0  0
  151.8399  138.7405  158.2408 H   0  0  0  0  0  0  0  0  0  0  0  0
  152.8913  138.8721  156.8523 H   0  0  0  0  0  0  0  0  0  0  0  0
  152.8090  141.4998  157.0859 H   0  0  0  0  0  0  0  0  0  0  0  0
  150.9513  140.7811  159.4131 H   0  0  0  0  0  0  0  0  0  0  0  0
  152.5818  140.1984  159.2054 H   0  0  0  0  0  0  0  0  0  0  0  0
  152.5393  142.0139  160.8427 H   0  0  0  0  0  0  0  0  0  0  0  0
  153.5058  142.4780  159.4538 H   0  0  0  0  0  0  0  0  0  0  0  0
  151.4886  145.4061  160.2533 H   0  0  0  0  0  0  0  0  0  0  0  0
  153.1424  144.8067  160.0776 H   0  0  0  0  0  0  0  0  0  0  0  0
  152.1417  144.2764  161.4351 H   0  0  0  0  0  0  0  0  0  0  0  0
  151.0200  144.6920  158.0387 H   0  0  0  0  0  0  0  0  0  0  0  0
  152.6283  144.0199  157.8359 H   0  0  0  0  0  0  0  0  0  0  0  0
  151.0209  142.9784  156.2909 H   0  0  0  0  0  0  0  0  0  0  0  0
  149.9738  142.5008  157.6138 H   0  0  0  0  0  0  0  0  0  0  0  0
  150.6166  141.1889  154.9894 H   0  0  0  0  0  0  0  0  0  0  0  0
  152.1754  140.3860  154.8923 H   0  0  0  0  0  0  0  0  0  0  0  0
  150.4550  139.2259  153.5382 H   0  0  0  0  0  0  0  0  0  0  0  0
  149.3897  139.1115  154.9181 H   0  0  0  0  0  0  0  0  0  0  0  0
  147.6520  133.3428  152.9374 H   0  0  0  0  0  0  0  0  0  0  0  0
  150.2456  140.1144  157.0703 H   0  0  0  0  0  0  0  0  0  0  0  0
  1  2  1  0  0  0  0
  1 26  1  0  0  0  0
  1 27  1  0  0  0  0
  1 28  1  0  0  0  0
  2 25  1  0  0  0  0
  2  3  2  0  0  0  0
  3  4  1  0  0  0  0
  3 29  1  0  0  0  0
  4  5  1  0  0  0  0
  4  6  2  0  0  0  0
  5 30  1  0  0  0  0
  5 31  1  0  0  0  0
  5 32  1  0  0  0  0
  6  7  1  0  0  0  0
  7  8  1  0  0  0  0
  7 25  2  0  0  0  0
  8  9  1  0  0  0  0
  8 33  1  0  0  0  0
  9 10  2  0  0  0  0
  9 11  1  0  0  0  0
 11 12  1  0  0  0  0
 11 34  1  0  0  0  0
 12 24  1  0  0  0  0
 12 13  1  0  0  0  0
 12 35  1  0  0  0  0
 13 14  1  0  0  0  0
 13 36  1  0  0  0  0
 13 37  1  0  0  0  0
 14 15  1  0  0  0  0
 14 38  1  0  0  0  0
 14 39  1  0  0  0  0
 15 16  1  0  0  0  0
 15 23  1  0  0  0  0
 15 57  1  0  0  0  0
 16 22  1  0  0  0  0
 16 17  1  0  0  0  0
 16 40  1  0  0  0  0
 17 18  1  0  0  0  0
 17 41  1  0  0  0  0
 17 42  1  0  0  0  0
 18 19  1  0  0  0  0
 18 43  1  0  0  0  0
 18 44  1  0  0  0  0
 19 20  1  0  0  0  0
 19 21  1  0  0  0  0
 20 45  1  0  0  0  0
 20 46  1  0  0  0  0
 20 47  1  0  0  0  0
 21 22  1  0  0  0  0
 21 48  1  0  0  0  0
 21 49  1  0  0  0  0
 22 50  1  0  0  0  0
 22 51  1  0  0  0  0
 23 24  1  0  0  0  0
 23 52  1  0  0  0  0
 23 53  1  0  0  0  0
 24 54  1  0  0  0  0
 24 55  1  0  0  0  0
 25 56  1  0  0  0  0
M  CHG  1  15   1
M  END
> <s_m_source_file>
AV-unprocessed.smi

> <i_m_source_file_index>
2279

> <i_lp_mmshare_version>
43012

> <i_f3d_flags>
0

> <s_epik_input>
W0NIM11jMVtjSF1jKFtDSDNdKW5jKFtjSF0xKVtOSF1DKD1PKVtOSF1bQ0hdMltDSDJdW0NIMl1OKFtDSDJdW0NIMl0yKVtDSF0zW0NIMl1bQ0gyXU4oW0NIM10pW0NIMl1bQ0gyXTM=

> <s_epik_cmdline>
J2VwaWtfcHl0aG9uJywgJy1waCcsICc3LjAnLCAnLXRuJywgJzgnLCAnLW1hJywgJzIwMCcsICctbWV0YWxfYmluZGluZycsICctaW1hZScsICc8aW5maWxlLm1hZT4nLCAnLW9tYWUnLCAnPG91dGZpbGUubWFlPic=

> <r_epik_Ionization_Penalty>
1.37263

> <r_epik_Ionization_Penalty_Charging>
0.00081195

> <r_epik_Ionization_Penalty_Neutral>
1.37182

> <r_epik_State_Penalty>
1.55149

> <r_epik_Charging_Adjusted_Penalty>
1.5523

> <i_epik_Tot_Q>
1

> <i_epik_Tot_abs_Q>
1

> <r_epik_Metal_State_Penalty>
1.5515

> <b_epik_Metal_Only>
0

> <s_lp_Force_Field>
OPLS_2005

> <r_lp_Energy>
32.7052

> <b_lp_Chiralities_Consistent>
1

> <s_lp_Variant>
AV-unprocessed.smi:2279-7

> <Gold.Version>
5.8.1

> <Gold.Id.Protein>
6NUR|6NUR_protein|mol2

> <Gold.PLP.Fitness>
53.1092

> <Gold.PLP.PLP>
-45.6105

> <Gold.PLP.part.hbond>
-3.9267

> <Gold.PLP.part.metal>
0.0000

> <Gold.PLP.part.buried>
-1.7316

> <Gold.PLP.part.nonpolar>
-39.7025

> <Gold.PLP.part.repulsive>
0.2449

> <Gold.PLP.ligand.clash>
0.0000

> <Gold.PLP.ligand.torsion>
0.3468

> <Gold.PLP.Chemscore.Hbond>
2.7205

> <Gold.PLP.Chemscore.CHOScore>
0.0000

> <Gold.PLP.Chemscore.Metal>
0.0000

> <Gold.Chemscore.Hbonds>
donor molecule, donor type, donor heavy atom, donor atom, acceptor molecule, acceptor atom, score
      L1  H     8    33       P1  7948  0.98
      L1  H    11    34       P1  7948  0.86
      P1  H 10752 10763       L1    10  0.78

> <Gold.PLP.Chemscore.Internal.Correction>
0.0309

> <Gold.Rescore>
     Score         DG    S(hbond)    S(metal)    S(lipo)     H(rot)  DE(clash)    DE(int)     intcor
     16.65     -19.73       1.35        0.00     109.24       1.19       0.04       3.04       ----

> <Gold.Chemscore.Fitness>
16.6529

> <Gold.Chemscore.DG>
-19.7328

> <Gold.Chemscore.ZeroCoef>
-5.4800

> <Gold.Chemscore.Hbond>
1.3537

> <Gold.Chemscore.Metal>
0.0000

> <Gold.Chemscore.Lipo>
109.2409

> <Gold.Chemscore.Internal_Hbond>
0.0000

> <Gold.Chemscore.DEClash>
0.0419

> <Gold.Chemscore.DEInternal>
3.0381

> <Gold.Chemscore.Rot>
1.1913

> <Gold.Chemscore.Internal.Correction>
   9.000000E+99

> <Gold.Chemscore.Hbonds>
donor molecule, donor type, donor heavy atom, donor atom, acceptor molecule, acceptor atom, score
      L1  H     8    33       P1  7948  0.24
      L1  H    11    34       P1  7948  0.52
      P1  H 10752 10763       L1    10  0.22

> <Gold.Chemscore.Hbond.Weighted>
-4.5213

> <Gold.Chemscore.Metal.Weighted>
-0.0000

> <Gold.Chemscore.Lipo.Weighted>
-12.7812

> <Gold.Chemscore.Internal_Hbond.Weighted>
0.0000

> <Gold.Chemscore.DEClash.Weighted>
0.0419

> <Gold.Chemscore.DEInternal.Weighted>
3.0381

> <Gold.Chemscore.Rot.Weighted>
3.0497

> <Gold.Chemscore.Internal.Correction.Weighted>
   9.000000E+99

> <Gold.Protein.RotatedTorsions>
[ 6907 6896 6895 6894 ] final   14.90 input  -60.11 | X-H torsion
[ 7974 7965 7964 7962 ] final  115.59 input  175.53 | X-H torsion
[ 8008 7997 7996 7995 ] final   37.36 input   59.86 | X-H torsion
[ 10167 10162 10161 10158 ] final  113.53 input  -65.29 | X-H torsion
[ 10718 10713 10712 10709 ] final    1.16 input   66.30 | X-H torsion
[ 10763 10752 10751 10750 ] final   80.83 input  -60.55 | X-H torsion
[ 11005 11000 10999 10996 ] final  145.73 input  -57.11 | X-H torsion

> <Gold.Protein.ActiveResidues>
 VAL166  LYS551  ARG553  GLY616  TRP617  ASP618  TYR619  PRO620  LYS621  CYS622 
 ASP623  PHE694  ASN695  SER759  ASP760  ASP761  ALA762  ILE779  LEU786  VAL792 
 PHE793  MET794  SER795  GLU796  ALA797  LYS798  CYS799  TRP800  GLU811  SER814 

> <Gold.Protein.RotatedAtoms>
  151.8096  135.0684  160.0410 H   0  0  0  0  0  0  0  0  0  0  0  0  # atno 6907 bound_to 6896
  152.3030  133.5670  159.5639 H   0  0  0  0  0  0  0  0  0  0  0  0  # atno 6908 bound_to 6896
  150.7282  134.0180  159.3734 H   0  0  0  0  0  0  0  0  0  0  0  0  # atno 6909 bound_to 6896
  145.1901  139.3005  143.4373 H   0  0  0  0  0  0  0  0  0  0  0  0  # atno 7974 bound_to 7965
  155.2025  140.3317  155.4341 H   0  0  0  0  0  0  0  0  0  0  0  0  # atno 8008 bound_to 7997
  156.2401  140.1891  156.7061 H   0  0  0  0  0  0  0  0  0  0  0  0  # atno 8009 bound_to 7997
  154.6131  140.0606  156.9506 H   0  0  0  0  0  0  0  0  0  0  0  0  # atno 8010 bound_to 7997
  139.6455  144.7126  151.2152 H   0  0  0  0  0  0  0  0  0  0  0  0  # atno 10167 bound_to 10162
  156.8441  130.5531  149.5675 H   0  0  0  0  0  0  0  0  0  0  0  0  # atno 10718 bound_to 10713
  153.1066  135.4788  154.8961 H   0  0  0  0  0  0  0  0  0  0  0  0  # atno 10763 bound_to 10752
  154.7436  135.3088  154.8687 H   0  0  0  0  0  0  0  0  0  0  0  0  # atno 10764 bound_to 10752
  153.9288  135.6847  153.4799 H   0  0  0  0  0  0  0  0  0  0  0  0  # atno 10765 bound_to 10752
  140.0735  134.9138  157.1385 H   0  0  0  0  0  0  0  0  0  0  0  0  # atno 11005 bound_to 11000
  146.3438  140.2110  142.8590 LP  0  0  0  0  0  0  0  0  0  0  0  0  # atno 17320 bound_to 7965
  145.0050  140.8665  143.5258 LP  0  0  0  0  0  0  0  0  0  0  0  0  # atno 17321 bound_to 7965
  140.7512  143.6239  150.8487 LP  0  0  0  0  0  0  0  0  0  0  0  0  # atno 17342 bound_to 10162
  139.9881  143.5877  152.2920 LP  0  0  0  0  0  0  0  0  0  0  0  0  # atno 17343 bound_to 10162
  156.0864  130.5861  150.9656 LP  0  0  0  0  0  0  0  0  0  0  0  0  # atno 17370 bound_to 10713
  157.6339  131.0918  150.8386 LP  0  0  0  0  0  0  0  0  0  0  0  0  # atno 17371 bound_to 10713
  140.3591  134.2513  155.7189 LP  0  0  0  0  0  0  0  0  0  0  0  0  # atno 17394 bound_to 11000
  141.2021  133.7946  157.0408 LP  0  0  0  0  0  0  0  0  0  0  0  0  # atno 17395 bound_to 11000

$$$$
