AV-unprocessed.smi:1885|AV-procd|sdf|7652|dock5
  -GOLD-   22720 9383D 1   1.00000     0.00000
 Structure written by MMmdl.
 44 46  0  0  0  0  0  0  0  0  2 V2000
  145.9000  132.0564  152.1679 C   0  0  0  0  0  0  0  0  0  0  0  0
  145.8490  133.2085  152.9963 O   0  0  0  0  0  0  0  0  0  0  0  0
  147.0220  133.6439  153.5747 C   0  0  0  0  0  0  0  0  0  0  0  0
  148.2881  133.0435  153.3589 C   0  0  0  0  0  0  0  0  0  0  0  0
  149.4372  133.5546  153.9935 C   0  0  0  0  0  0  0  0  0  0  0  0
  149.3441  134.6737  154.8450 C   0  0  0  0  0  0  0  0  0  0  0  0
  150.5854  135.2044  155.5376 C   0  0  0  0  0  0  0  0  0  0  0  0
  150.5532  136.6146  155.6874 O   0  0  0  0  0  0  0  0  0  0  0  0
  151.8167  137.1636  156.0218 C   0  0  0  0  0  0  0  0  0  0  0  0
  151.7357  138.6924  155.9120 C   0  0  2  0  0  0  0  0  0  0  0  0
  153.0261  139.1990  155.6349 O   0  0  0  0  0  0  0  0  0  0  0  0
  151.1878  139.3463  157.1963 C   0  0  0  0  0  0  0  0  0  0  0  0
  150.9340  140.7836  157.0365 N   0  0  0  0  0  0  0  0  0  0  0  0
  150.2486  141.4522  156.0698 C   0  0  0  0  0  0  0  0  0  0  0  0
  150.2973  142.7788  156.3754 N   0  3  0  0  0  0  0  0  0  0  0  0
  151.0246  142.9596  157.5543 C   0  0  0  0  0  0  0  0  0  0  0  0
  151.3457  144.1137  158.2613 C   0  0  0  0  0  0  0  0  0  0  0  0
  152.1060  143.9471  159.4378 C   0  0  0  0  0  0  0  0  0  0  0  0
  152.4455  145.0382  160.1644 F   0  0  0  0  0  0  0  0  0  0  0  0
  152.5185  142.6688  159.8709 C   0  0  0  0  0  0  0  0  0  0  0  0
  153.2470  142.5531  161.0064 F   0  0  0  0  0  0  0  0  0  0  0  0
  152.1880  141.5057  159.1444 C   0  0  0  0  0  0  0  0  0  0  0  0
  151.4362  141.6810  157.9839 C   0  0  0  0  0  0  0  0  0  0  0  0
  148.0854  135.2682  155.0703 C   0  0  0  0  0  0  0  0  0  0  0  0
  146.9372  134.7568  154.4357 C   0  0  0  0  0  0  0  0  0  0  0  0
  144.9017  131.8445  151.7850 H   0  0  0  0  0  0  0  0  0  0  0  0
  146.2324  131.1791  152.7246 H   0  0  0  0  0  0  0  0  0  0  0  0
  146.5560  132.2111  151.3102 H   0  0  0  0  0  0  0  0  0  0  0  0
  148.4045  132.1874  152.7121 H   0  0  0  0  0  0  0  0  0  0  0  0
  150.3937  133.0828  153.8224 H   0  0  0  0  0  0  0  0  0  0  0  0
  150.6621  134.7275  156.5159 H   0  0  0  0  0  0  0  0  0  0  0  0
  151.4686  134.9183  154.9637 H   0  0  0  0  0  0  0  0  0  0  0  0
  152.1095  136.8678  157.0308 H   0  0  0  0  0  0  0  0  0  0  0  0
  152.5698  136.7768  155.3332 H   0  0  0  0  0  0  0  0  0  0  0  0
  151.0973  138.9493  155.0659 H   0  0  0  0  0  0  0  0  0  0  0  0
  153.0317  139.5407  154.7538 H   0  0  0  0  0  0  0  0  0  0  0  0
  150.2603  138.8688  157.5155 H   0  0  0  0  0  0  0  0  0  0  0  0
  151.8958  139.2257  158.0175 H   0  0  0  0  0  0  0  0  0  0  0  0
  149.7529  141.0105  155.2173 H   0  0  0  0  0  0  0  0  0  0  0  0
  151.0318  145.0940  157.9338 H   0  0  0  0  0  0  0  0  0  0  0  0
  152.5066  140.5313  159.4842 H   0  0  0  0  0  0  0  0  0  0  0  0
  147.9926  136.1181  155.7303 H   0  0  0  0  0  0  0  0  0  0  0  0
  145.9792  135.2228  154.6142 H   0  0  0  0  0  0  0  0  0  0  0  0
  149.8634  143.5044  155.8188 H   0  0  0  0  0  0  0  0  0  0  0  0
  1  2  1  0  0  0  0
  1 26  1  0  0  0  0
  1 27  1  0  0  0  0
  1 28  1  0  0  0  0
  2  3  1  0  0  0  0
  3 25  1  0  0  0  0
  3  4  2  0  0  0  0
  4  5  1  0  0  0  0
  4 29  1  0  0  0  0
  5  6  2  0  0  0  0
  5 30  1  0  0  0  0
  6  7  1  0  0  0  0
  6 24  1  0  0  0  0
  7  8  1  0  0  0  0
  7 31  1  0  0  0  0
  7 32  1  0  0  0  0
  8  9  1  0  0  0  0
  9 10  1  0  0  0  0
  9 33  1  0  0  0  0
  9 34  1  0  0  0  0
 10 11  1  0  0  0  0
 10 12  1  0  0  0  0
 10 35  1  0  0  0  0
 11 36  1  0  0  0  0
 12 13  1  0  0  0  0
 12 37  1  0  0  0  0
 12 38  1  0  0  0  0
 13 23  1  0  0  0  0
 13 14  1  0  0  0  0
 14 15  2  0  0  0  0
 14 39  1  0  0  0  0
 15 16  1  0  0  0  0
 15 44  1  0  0  0  0
 16 23  2  0  0  0  0
 16 17  1  0  0  0  0
 17 18  2  0  0  0  0
 17 40  1  0  0  0  0
 18 19  1  0  0  0  0
 18 20  1  0  0  0  0
 20 21  1  0  0  0  0
 20 22  2  0  0  0  0
 22 23  1  0  0  0  0
 22 41  1  0  0  0  0
 24 25  2  0  0  0  0
 24 42  1  0  0  0  0
 25 43  1  0  0  0  0
M  CHG  1  15   1
M  END
> <s_m_source_file>
AV-unprocessed.smi

> <i_m_source_file_index>
1885

> <i_lp_mmshare_version>
43012

> <i_f3d_flags>
0

> <s_epik_input>
W0NIM11PYzFbY0hdW2NIXWMoW2NIXVtjSF0xKVtDSDJdT1tDSDJdW0NASF0oW09IXSlbQ0gyXW4oW2NIXW4yKWMoYzIzKVtjSF1jKEYpYyhGKVtjSF0z

> <s_epik_cmdline>
J2VwaWtfcHl0aG9uJywgJy1waCcsICc3LjAnLCAnLXRuJywgJzgnLCAnLW1hJywgJzIwMCcsICctbWV0YWxfYmluZGluZycsICctaW1hZScsICc8aW5maWxlLm1hZT4nLCAnLW9tYWUnLCAnPG91dGZpbGUubWFlPic=

> <r_lp_tautomer_probability>
1

> <r_epik_Ionization_Penalty>
2.14697

> <r_epik_Ionization_Penalty_Charging>
2.14697

> <r_epik_Ionization_Penalty_Neutral>
9.74819e-07

> <r_epik_State_Penalty>
2.28651

> <r_epik_Charging_Adjusted_Penalty>
4.43348

> <i_epik_Tot_Q>
1

> <i_epik_Tot_abs_Q>
1

> <r_epik_Metal_State_Penalty>
6.36664

> <b_epik_Metal_Only>
0

> <s_lp_Force_Field>
OPLS_2005

> <r_lp_Energy>
20.6569

> <b_lp_Chiralities_Consistent>
1

> <s_lp_Variant>
AV-unprocessed.smi:1885-3

> <Gold.Version>
5.8.1

> <Gold.Id.Protein>
6NUR|6NUR_protein|mol2

> <Gold.PLP.Fitness>
56.6139

> <Gold.PLP.PLP>
-49.2974

> <Gold.PLP.part.hbond>
-1.7720

> <Gold.PLP.part.metal>
0.0000

> <Gold.PLP.part.buried>
-7.4971

> <Gold.PLP.part.nonpolar>
-42.1568

> <Gold.PLP.part.repulsive>
0.2864

> <Gold.PLP.ligand.clash>
0.0000

> <Gold.PLP.ligand.torsion>
0.8509

> <Gold.PLP.Chemscore.Hbond>
2.9840

> <Gold.PLP.Chemscore.CHOScore>
0.0000

> <Gold.PLP.Chemscore.Metal>
0.0000

> <Gold.Chemscore.Hbonds>
donor molecule, donor type, donor heavy atom, donor atom, acceptor molecule, acceptor atom, score
      L1  H    15    44       P1  8028  2.00
      P1  H  7997  8009       L1    11  1.00

> <Gold.PLP.Chemscore.Internal.Correction>
0.0662

> <Gold.Rescore>
     Score         DG    S(hbond)    S(metal)    S(lipo)     H(rot)  DE(clash)    DE(int)     intcor
     15.95     -17.08       1.82        0.00     113.36       3.03       0.14       0.98       ----

> <Gold.Chemscore.Fitness>
15.9539

> <Gold.Chemscore.DG>
-17.0780

> <Gold.Chemscore.ZeroCoef>
-5.4800

> <Gold.Chemscore.Hbond>
1.8220

> <Gold.Chemscore.Metal>
0.0000

> <Gold.Chemscore.Lipo>
113.3645

> <Gold.Chemscore.Internal_Hbond>
0.0000

> <Gold.Chemscore.DEClash>
0.1445

> <Gold.Chemscore.DEInternal>
0.9796

> <Gold.Chemscore.Rot>
3.0278

> <Gold.Chemscore.Internal.Correction>
   9.000000E+99

> <Gold.Chemscore.Hbonds>
donor molecule, donor type, donor heavy atom, donor atom, acceptor molecule, acceptor atom, score
      L1  H    15    44       P1  8028  0.93
      P1  H  7997  8009       L1    11  0.34

> <Gold.Chemscore.Hbond.Weighted>
-6.0855

> <Gold.Chemscore.Metal.Weighted>
-0.0000

> <Gold.Chemscore.Lipo.Weighted>
-13.2636

> <Gold.Chemscore.Internal_Hbond.Weighted>
0.0000

> <Gold.Chemscore.DEClash.Weighted>
0.1445

> <Gold.Chemscore.DEInternal.Weighted>
0.9796

> <Gold.Chemscore.Rot.Weighted>
7.7512

> <Gold.Chemscore.Internal.Correction.Weighted>
   9.000000E+99

> <Gold.Protein.RotatedTorsions>
[ 6907 6896 6895 6894 ] final  123.77 input  -60.11 | X-H torsion
[ 7974 7965 7964 7962 ] final -153.17 input  175.53 | X-H torsion
[ 8008 7997 7996 7995 ] final -166.20 input   59.86 | X-H torsion
[ 10167 10162 10161 10158 ] final  -94.83 input  -65.29 | X-H torsion
[ 10718 10713 10712 10709 ] final  140.20 input   66.30 | X-H torsion
[ 10763 10752 10751 10750 ] final   53.91 input  -60.55 | X-H torsion
[ 11005 11000 10999 10996 ] final -173.21 input  -57.11 | X-H torsion

> <Gold.Protein.ActiveResidues>
 VAL166  LYS551  ARG553  GLY616  TRP617  ASP618  TYR619  PRO620  LYS621  CYS622 
 ASP623  PHE694  ASN695  SER759  ASP760  ASP761  ALA762  ILE779  LEU786  VAL792 
 PHE793  MET794  SER795  GLU796  ALA797  LYS798  CYS799  TRP800  GLU811  SER814 

> <Gold.Protein.RotatedAtoms>
  152.4134  133.7000  159.6417 H   0  0  0  0  0  0  0  0  0  0  0  0  # atno 6907 bound_to 6896
  150.8013  133.8583  159.3233 H   0  0  0  0  0  0  0  0  0  0  0  0  # atno 6908 bound_to 6896
  151.6319  135.1024  160.0175 H   0  0  0  0  0  0  0  0  0  0  0  0  # atno 6909 bound_to 6896
  144.7755  140.4562  143.5877 H   0  0  0  0  0  0  0  0  0  0  0  0  # atno 7974 bound_to 7965
  155.8604  140.0977  157.1617 H   0  0  0  0  0  0  0  0  0  0  0  0  # atno 8008 bound_to 7997
  154.3990  140.1366  156.4017 H   0  0  0  0  0  0  0  0  0  0  0  0  # atno 8009 bound_to 7997
  155.7862  140.3457  155.5327 H   0  0  0  0  0  0  0  0  0  0  0  0  # atno 8010 bound_to 7997
  140.3104  143.3108  152.0154 H   0  0  0  0  0  0  0  0  0  0  0  0  # atno 10167 bound_to 10162
  157.4059  131.1022  151.0504 H   0  0  0  0  0  0  0  0  0  0  0  0  # atno 10718 bound_to 10713
  152.9799  135.5763  154.4819 H   0  0  0  0  0  0  0  0  0  0  0  0  # atno 10763 bound_to 10752
  154.4366  135.2775  155.1878 H   0  0  0  0  0  0  0  0  0  0  0  0  # atno 10764 bound_to 10752
  154.3564  135.6198  153.5722 H   0  0  0  0  0  0  0  0  0  0  0  0  # atno 10765 bound_to 10752
  140.4882  134.6010  157.4945 H   0  0  0  0  0  0  0  0  0  0  0  0  # atno 11005 bound_to 11000
  145.6200  139.1523  143.3028 LP  0  0  0  0  0  0  0  0  0  0  0  0  # atno 17320 bound_to 7965
  146.1931  140.6310  142.9136 LP  0  0  0  0  0  0  0  0  0  0  0  0  # atno 17321 bound_to 7965
  139.4895  144.6389  151.6918 LP  0  0  0  0  0  0  0  0  0  0  0  0  # atno 17342 bound_to 10162
  140.5573  144.0327  150.6153 LP  0  0  0  0  0  0  0  0  0  0  0  0  # atno 17343 bound_to 10162
  157.1486  130.6174  149.5576 LP  0  0  0  0  0  0  0  0  0  0  0  0  # atno 17370 bound_to 10713
  155.9836  130.4857  150.6942 LP  0  0  0  0  0  0  0  0  0  0  0  0  # atno 17371 bound_to 10713
  139.9785  134.7176  155.9904 LP  0  0  0  0  0  0  0  0  0  0  0  0  # atno 17394 bound_to 11000
  141.1497  133.6550  156.3975 LP  0  0  0  0  0  0  0  0  0  0  0  0  # atno 17395 bound_to 11000

$$$$
