AV-unprocessed.smi:2691|AV-procd|sdf|10392|dock4
  -GOLD-   2272014423D 1   1.00000     0.00000
 Structure written by MMmdl.
 50 52  0  0  0  0  0  0  0  0  2 V2000
  152.9708  142.9887  161.4589 C   0  0  0  0  0  0  0  0  0  0  0  0
  152.4087  142.4241  160.1653 C   0  0  0  0  0  0  0  0  0  0  0  0
  152.6418  141.0624  159.8663 C   0  0  0  0  0  0  0  0  0  0  0  0
  152.1134  140.5745  158.6767 C   0  0  0  0  0  0  0  0  0  0  0  0
  152.1637  139.3007  158.1054 N   0  3  0  0  0  0  0  0  0  0  0  0
  151.4908  139.3071  156.9211 C   0  0  0  0  0  0  0  0  0  0  0  0
  151.0136  140.5666  156.7282 N   0  0  0  0  0  0  0  0  0  0  0  0
  150.2181  141.1180  155.6234 C   0  0  0  0  0  0  0  0  0  0  0  0
  149.5208  140.0251  154.7894 C   0  0  2  0  0  0  0  0  0  0  0  0
  150.4307  139.5882  153.7980 O   0  0  0  0  0  0  0  0  0  0  0  0
  148.2425  140.5533  154.1018 C   0  0  0  0  0  0  0  0  0  0  0  0
  147.2749  139.4742  153.8445 N   0  0  0  0  0  0  0  0  0  0  0  0
  147.1027  139.0901  152.5000 C   0  0  0  0  0  0  0  0  0  0  0  0
  146.2648  138.1644  152.1570 N   0  0  0  0  0  0  0  0  0  0  0  0
  145.5020  137.5192  153.1369 C   0  0  0  0  0  0  0  0  0  0  0  0
  144.5338  136.4427  152.6638 C   0  0  0  0  0  0  0  0  0  0  0  0
  144.9053  135.9222  151.2661 C   0  0  0  0  0  0  0  0  0  0  0  0
  143.0776  136.9304  152.7185 C   0  0  0  0  0  0  0  0  0  0  0  0
  145.6292  137.8574  154.4431 C   0  0  0  0  0  0  0  0  0  0  0  0
  146.5635  138.9031  154.8591 C   0  0  0  0  0  0  0  0  0  0  0  0
  146.6933  139.2468  156.0339 O   0  0  0  0  0  0  0  0  0  0  0  0
  151.3769  141.3912  157.7974 C   0  0  0  0  0  0  0  0  0  0  0  0
  151.1382  142.7346  158.0755 C   0  0  0  0  0  0  0  0  0  0  0  0
  151.6669  143.2496  159.2807 C   0  0  0  0  0  0  0  0  0  0  0  0
  151.4237  144.7122  159.6111 C   0  0  0  0  0  0  0  0  0  0  0  0
  153.4973  142.2254  162.0325 H   0  0  0  0  0  0  0  0  0  0  0  0
  152.1703  143.3823  162.0861 H   0  0  0  0  0  0  0  0  0  0  0  0
  153.6758  143.7937  161.2501 H   0  0  0  0  0  0  0  0  0  0  0  0
  153.2060  140.4281  160.5345 H   0  0  0  0  0  0  0  0  0  0  0  0
  151.3553  138.4652  156.2573 H   0  0  0  0  0  0  0  0  0  0  0  0
  149.4914  141.8155  156.0418 H   0  0  0  0  0  0  0  0  0  0  0  0
  150.8878  141.7080  154.9961 H   0  0  0  0  0  0  0  0  0  0  0  0
  149.2797  139.1821  155.4380 H   0  0  0  0  0  0  0  0  0  0  0  0
  149.9751  139.5411  152.9708 H   0  0  0  0  0  0  0  0  0  0  0  0
  147.7715  141.3045  154.7392 H   0  0  0  0  0  0  0  0  0  0  0  0
  148.4878  141.1009  153.1895 H   0  0  0  0  0  0  0  0  0  0  0  0
  147.7162  139.6293  151.7759 H   0  0  0  0  0  0  0  0  0  0  0  0
  144.6167  135.6002  153.3525 H   0  0  0  0  0  0  0  0  0  0  0  0
  145.9326  135.5569  151.2440 H   0  0  0  0  0  0  0  0  0  0  0  0
  144.8116  136.7001  150.5077 H   0  0  0  0  0  0  0  0  0  0  0  0
  144.2571  135.0962  150.9719 H   0  0  0  0  0  0  0  0  0  0  0  0
  142.8149  137.2681  153.7216 H   0  0  0  0  0  0  0  0  0  0  0  0
  142.3879  136.1299  152.4503 H   0  0  0  0  0  0  0  0  0  0  0  0
  142.9050  137.7590  152.0312 H   0  0  0  0  0  0  0  0  0  0  0  0
  145.0357  137.3555  155.1935 H   0  0  0  0  0  0  0  0  0  0  0  0
  150.5724  143.3611  157.4019 H   0  0  0  0  0  0  0  0  0  0  0  0
  150.8646  145.2123  158.8196 H   0  0  0  0  0  0  0  0  0  0  0  0
  152.3691  145.2411  159.7344 H   0  0  0  0  0  0  0  0  0  0  0  0
  150.8507  144.8054  160.5339 H   0  0  0  0  0  0  0  0  0  0  0  0
  152.6195  138.4848  158.4939 H   0  0  0  0  0  0  0  0  0  0  0  0
  1  2  1  0  0  0  0
  1 26  1  0  0  0  0
  1 27  1  0  0  0  0
  1 28  1  0  0  0  0
  2 24  1  0  0  0  0
  2  3  2  0  0  0  0
  3  4  1  0  0  0  0
  3 29  1  0  0  0  0
  4 22  2  0  0  0  0
  4  5  1  0  0  0  0
  5  6  2  0  0  0  0
  5 50  1  0  0  0  0
  6  7  1  0  0  0  0
  6 30  1  0  0  0  0
  7  8  1  0  0  0  0
  7 22  1  0  0  0  0
  8  9  1  0  0  0  0
  8 31  1  0  0  0  0
  8 32  1  0  0  0  0
  9 10  1  0  0  0  0
  9 11  1  0  0  0  0
  9 33  1  0  0  0  0
 10 34  1  0  0  0  0
 11 12  1  0  0  0  0
 11 35  1  0  0  0  0
 11 36  1  0  0  0  0
 12 20  1  0  0  0  0
 12 13  1  0  0  0  0
 13 14  2  0  0  0  0
 13 37  1  0  0  0  0
 14 15  1  0  0  0  0
 15 16  1  0  0  0  0
 15 19  2  0  0  0  0
 16 17  1  0  0  0  0
 16 18  1  0  0  0  0
 16 38  1  0  0  0  0
 17 39  1  0  0  0  0
 17 40  1  0  0  0  0
 17 41  1  0  0  0  0
 18 42  1  0  0  0  0
 18 43  1  0  0  0  0
 18 44  1  0  0  0  0
 19 20  1  0  0  0  0
 19 45  1  0  0  0  0
 20 21  2  0  0  0  0
 22 23  1  0  0  0  0
 23 24  2  0  0  0  0
 23 46  1  0  0  0  0
 24 25  1  0  0  0  0
 25 47  1  0  0  0  0
 25 48  1  0  0  0  0
 25 49  1  0  0  0  0
M  CHG  1   5   1
M  END
> <s_m_source_file>
AV-unprocessed.smi

> <i_m_source_file_index>
2691

> <i_lp_mmshare_version>
43012

> <i_f3d_flags>
0

> <s_epik_input>
W0NIM11jKFtjSF0xKWMoW0NIM10pW2NIXWMoYzEyKW4oW2NIXW4yKVtDSDJdW0NASF0oW09IXSlbQ0gyXW4zW2NIXW5jKFtDSF0oW0NIM10pW0NIM10pW2NIXWMzPU8=

> <s_epik_cmdline>
J2VwaWtfcHl0aG9uJywgJy1waCcsICc3LjAnLCAnLXRuJywgJzgnLCAnLW1hJywgJzIwMCcsICctbWV0YWxfYmluZGluZycsICctaW1hZScsICc8aW5maWxlLm1hZT4nLCAnLW9tYWUnLCAnPG91dGZpbGUubWFlPic=

> <r_lp_tautomer_probability>
1

> <r_epik_Ionization_Penalty>
1.0357

> <r_epik_Ionization_Penalty_Charging>
1.03568

> <r_epik_Ionization_Penalty_Neutral>
1.29543e-05

> <r_epik_State_Penalty>
1.08724

> <r_epik_Charging_Adjusted_Penalty>
2.12292

> <i_epik_Tot_Q>
1

> <i_epik_Tot_abs_Q>
1

> <r_epik_Metal_State_Penalty>
1.18376

> <b_epik_Metal_Only>
0

> <s_lp_Force_Field>
OPLS_2005

> <r_lp_Energy>
24.5824

> <b_lp_Chiralities_Consistent>
1

> <s_lp_Variant>
AV-unprocessed.smi:2691-3

> <Gold.Version>
5.8.1

> <Gold.Id.Protein>
6NUR|6NUR_protein|mol2

> <Gold.PLP.Fitness>
52.6830

> <Gold.PLP.PLP>
-46.4809

> <Gold.PLP.part.hbond>
-2.0000

> <Gold.PLP.part.metal>
0.0000

> <Gold.PLP.part.buried>
-4.1295

> <Gold.PLP.part.nonpolar>
-40.3508

> <Gold.PLP.part.repulsive>
0.3992

> <Gold.PLP.ligand.clash>
0.0000

> <Gold.PLP.ligand.torsion>
1.4324

> <Gold.PLP.Chemscore.Hbond>
2.0000

> <Gold.PLP.Chemscore.CHOScore>
0.9955

> <Gold.PLP.Chemscore.Metal>
0.0000

> <Gold.Chemscore.Hbonds>
donor molecule, donor type, donor heavy atom, donor atom, acceptor molecule, acceptor atom, score
      L1  H    10    34       P1  7957  1.00
      P1  H  7989  7998       L1    10  1.00
      L1  C    13    37       P1  7957  0.92

> <Gold.PLP.Chemscore.Internal.Correction>
0.0805

> <Gold.Rescore>
     Score         DG    S(hbond)    S(metal)    S(lipo)     H(rot)  DE(clash)    DE(int)     intcor
     14.62     -16.35       1.23        0.00     113.03       2.52       0.40       1.33       ----

> <Gold.Chemscore.Fitness>
14.6179

> <Gold.Chemscore.DG>
-16.3490

> <Gold.Chemscore.ZeroCoef>
-5.4800

> <Gold.Chemscore.Hbond>
1.2266

> <Gold.Chemscore.Metal>
0.0000

> <Gold.Chemscore.Lipo>
113.0254

> <Gold.Chemscore.Internal_Hbond>
0.0000

> <Gold.Chemscore.DEClash>
0.4037

> <Gold.Chemscore.DEInternal>
1.3273

> <Gold.Chemscore.Rot>
2.5202

> <Gold.Chemscore.Internal.Correction>
   9.000000E+99

> <Gold.Chemscore.Hbonds>
donor molecule, donor type, donor heavy atom, donor atom, acceptor molecule, acceptor atom, score
      L1  H    10    34       P1  7957  0.97
      P1  H  7989  7998       L1    10  0.21

> <Gold.Chemscore.Hbond.Weighted>
-4.0967

> <Gold.Chemscore.Metal.Weighted>
-0.0000

> <Gold.Chemscore.Lipo.Weighted>
-13.2240

> <Gold.Chemscore.Internal_Hbond.Weighted>
0.0000

> <Gold.Chemscore.DEClash.Weighted>
0.4037

> <Gold.Chemscore.DEInternal.Weighted>
1.3273

> <Gold.Chemscore.Rot.Weighted>
6.4517

> <Gold.Chemscore.Internal.Correction.Weighted>
   9.000000E+99

> <Gold.Protein.RotatedTorsions>
[ 6907 6896 6895 6894 ] final  163.43 input  -60.11 | X-H torsion
[ 7974 7965 7964 7962 ] final  -70.74 input  175.53 | X-H torsion
[ 8008 7997 7996 7995 ] final  121.41 input   59.86 | X-H torsion
[ 10167 10162 10161 10158 ] final -152.53 input  -65.29 | X-H torsion
[ 10718 10713 10712 10709 ] final   -0.50 input   66.30 | X-H torsion
[ 10763 10752 10751 10750 ] final -172.45 input  -60.55 | X-H torsion
[ 11005 11000 10999 10996 ] final  -92.97 input  -57.11 | X-H torsion

> <Gold.Protein.ActiveResidues>
 VAL166  LYS551  ARG553  GLY616  TRP617  ASP618  TYR619  PRO620  LYS621  CYS622 
 ASP623  PHE694  ASN695  SER759  ASP760  ASP761  ALA762  ILE779  LEU786  VAL792 
 PHE793  MET794  SER795  GLU796  ALA797  LYS798  CYS799  TRP800  GLU811  SER814 

> <Gold.Protein.RotatedAtoms>
  151.9253  133.3596  159.3911 H   0  0  0  0  0  0  0  0  0  0  0  0  # atno 6907 bound_to 6896
  150.7028  134.4593  159.5382 H   0  0  0  0  0  0  0  0  0  0  0  0  # atno 6908 bound_to 6896
  152.2224  134.8400  160.0535 H   0  0  0  0  0  0  0  0  0  0  0  0  # atno 6909 bound_to 6896
  145.6871  140.9167  143.0801 H   0  0  0  0  0  0  0  0  0  0  0  0  # atno 7974 bound_to 7965
  156.2685  140.2809  156.1304 H   0  0  0  0  0  0  0  0  0  0  0  0  # atno 8008 bound_to 7997
  155.1060  140.0390  157.2728 H   0  0  0  0  0  0  0  0  0  0  0  0  # atno 8009 bound_to 7997
  154.6779  140.2602  155.6945 H   0  0  0  0  0  0  0  0  0  0  0  0  # atno 8010 bound_to 7997
  139.7173  143.9013  152.2491 H   0  0  0  0  0  0  0  0  0  0  0  0  # atno 10167 bound_to 10162
  156.8195  130.5451  149.5699 H   0  0  0  0  0  0  0  0  0  0  0  0  # atno 10718 bound_to 10713
  154.6192  135.2873  155.0345 H   0  0  0  0  0  0  0  0  0  0  0  0  # atno 10763 bound_to 10752
  154.1547  135.6498  153.4975 H   0  0  0  0  0  0  0  0  0  0  0  0  # atno 10764 bound_to 10752
  153.0228  135.5364  154.6975 H   0  0  0  0  0  0  0  0  0  0  0  0  # atno 10765 bound_to 10752
  141.1509  133.7856  157.0094 H   0  0  0  0  0  0  0  0  0  0  0  0  # atno 11005 bound_to 11000
  144.7008  139.8772  143.7444 LP  0  0  0  0  0  0  0  0  0  0  0  0  # atno 17320 bound_to 7965
  146.0914  139.3904  143.0403 LP  0  0  0  0  0  0  0  0  0  0  0  0  # atno 17321 bound_to 7965
  139.8899  144.6971  150.8782 LP  0  0  0  0  0  0  0  0  0  0  0  0  # atno 17342 bound_to 10162
  140.7746  143.3595  151.1856 LP  0  0  0  0  0  0  0  0  0  0  0  0  # atno 17343 bound_to 10162
  156.0997  130.5959  150.9873 LP  0  0  0  0  0  0  0  0  0  0  0  0  # atno 17370 bound_to 10713
  157.6464  131.0903  150.8144 LP  0  0  0  0  0  0  0  0  0  0  0  0  # atno 17371 bound_to 10713
  140.0888  134.9605  157.1743 LP  0  0  0  0  0  0  0  0  0  0  0  0  # atno 17394 bound_to 11000
  140.3475  134.2636  155.7203 LP  0  0  0  0  0  0  0  0  0  0  0  0  # atno 17395 bound_to 11000

$$$$
