AV-unprocessed.smi:1245|AV-procd|sdf|5239|dock4
  -GOLD-   22720 4343D 1   1.00000     0.00000
 Structure written by MMmdl.
 43 44  0  0  0  0  0  0  0  0  1 V2000
  149.7804  135.1757  156.3426 O   0  0  0  0  0  0  0  0  0  0  0  0
  149.7278  135.6711  155.2170 C   0  0  0  0  0  0  0  0  0  0  0  0
  150.5516  136.9170  154.8870 C   0  0  0  0  0  0  0  0  0  0  0  0
  150.9788  137.6989  156.1412 C   0  0  0  0  0  0  0  0  0  0  0  0
  151.6026  139.3862  155.7145 S   0  0  0  0  0  0  0  0  0  0  0  0
  153.0522  139.4191  155.9628 O   0  0  0  0  0  0  0  0  0  0  0  0
  151.0946  139.7438  154.3812 O   0  0  0  0  0  0  0  0  0  0  0  0
  150.7611  140.4554  156.9722 C   0  0  0  0  0  0  0  0  0  0  0  0
  151.1069  141.9396  156.7375 C   0  0  0  0  0  0  0  0  0  0  0  0
  151.8269  142.4339  157.9978 C   0  0  0  0  0  0  0  0  0  0  0  0
  152.3226  141.1726  158.7000 C   0  0  0  0  0  0  0  0  0  0  0  0
  151.2392  140.1393  158.3992 C   0  0  0  0  0  0  0  0  0  0  0  0
  148.9691  135.1784  154.2271 N   0  0  0  0  0  0  0  0  0  0  0  0
  148.1100  134.0033  154.3332 C   0  0  0  0  0  0  0  0  0  0  0  0
  148.4099  132.9446  153.2536 C   0  0  0  0  0  0  0  0  0  0  0  0
  147.2201  132.6357  152.3603 C   0  0  0  0  0  0  0  0  0  0  0  0
  146.5640  131.3883  152.4379 C   0  0  0  0  0  0  0  0  0  0  0  0
  145.4585  131.1577  151.5965 C   0  0  0  0  0  0  0  0  0  0  0  0
  145.0538  132.1778  150.7141 C   0  0  0  0  0  0  0  0  0  0  0  0
  145.7765  133.3875  150.7115 C   0  0  0  0  0  0  0  0  0  0  0  0
  146.8380  133.6188  151.5140 N   0  0  0  0  0  0  0  0  0  0  0  0
  151.4256  136.6526  154.2902 H   0  0  0  0  0  0  0  0  0  0  0  0
  149.9354  137.5587  154.2568 H   0  0  0  0  0  0  0  0  0  0  0  0
  150.1239  137.8217  156.8056 H   0  0  0  0  0  0  0  0  0  0  0  0
  151.7476  137.1648  156.6990 H   0  0  0  0  0  0  0  0  0  0  0  0
  149.6880  140.2870  156.8768 H   0  0  0  0  0  0  0  0  0  0  0  0
  151.7611  142.0523  155.8722 H   0  0  0  0  0  0  0  0  0  0  0  0
  150.2142  142.5335  156.5394 H   0  0  0  0  0  0  0  0  0  0  0  0
  152.6344  143.1310  157.7723 H   0  0  0  0  0  0  0  0  0  0  0  0
  151.1154  142.9510  158.6431 H   0  0  0  0  0  0  0  0  0  0  0  0
  153.2730  140.8563  158.2686 H   0  0  0  0  0  0  0  0  0  0  0  0
  152.4751  141.3204  159.7695 H   0  0  0  0  0  0  0  0  0  0  0  0
  150.4108  140.2782  159.0946 H   0  0  0  0  0  0  0  0  0  0  0  0
  151.5977  139.1183  158.5247 H   0  0  0  0  0  0  0  0  0  0  0  0
  148.9892  135.6487  153.3336 H   0  0  0  0  0  0  0  0  0  0  0  0
  148.2727  133.5703  155.3205 H   0  0  0  0  0  0  0  0  0  0  0  0
  147.0602  134.2982  154.2967 H   0  0  0  0  0  0  0  0  0  0  0  0
  149.2415  133.2803  152.6328 H   0  0  0  0  0  0  0  0  0  0  0  0
  148.7457  132.0215  153.7279 H   0  0  0  0  0  0  0  0  0  0  0  0
  146.8954  130.6281  153.1303 H   0  0  0  0  0  0  0  0  0  0  0  0
  144.9301  130.2163  151.6291 H   0  0  0  0  0  0  0  0  0  0  0  0
  144.2098  132.0369  150.0552 H   0  0  0  0  0  0  0  0  0  0  0  0
  145.4938  134.1917  150.0485 H   0  0  0  0  0  0  0  0  0  0  0  0
  1  2  2  0  0  0  0
  2  3  1  0  0  0  0
  2 13  1  0  0  0  0
  3  4  1  0  0  0  0
  3 22  1  0  0  0  0
  3 23  1  0  0  0  0
  4  5  1  0  0  0  0
  4 24  1  0  0  0  0
  4 25  1  0  0  0  0
  5  6  2  0  0  0  0
  5  7  2  0  0  0  0
  5  8  1  0  0  0  0
  8 12  1  0  0  0  0
  8  9  1  0  0  0  0
  8 26  1  0  0  0  0
  9 10  1  0  0  0  0
  9 27  1  0  0  0  0
  9 28  1  0  0  0  0
 10 11  1  0  0  0  0
 10 29  1  0  0  0  0
 10 30  1  0  0  0  0
 11 12  1  0  0  0  0
 11 31  1  0  0  0  0
 11 32  1  0  0  0  0
 12 33  1  0  0  0  0
 12 34  1  0  0  0  0
 13 14  1  0  0  0  0
 13 35  1  0  0  0  0
 14 15  1  0  0  0  0
 14 36  1  0  0  0  0
 14 37  1  0  0  0  0
 15 16  1  0  0  0  0
 15 38  1  0  0  0  0
 15 39  1  0  0  0  0
 16 21  1  0  0  0  0
 16 17  2  0  0  0  0
 17 18  1  0  0  0  0
 17 40  1  0  0  0  0
 18 19  2  0  0  0  0
 18 41  1  0  0  0  0
 19 20  1  0  0  0  0
 19 42  1  0  0  0  0
 20 21  2  0  0  0  0
 20 43  1  0  0  0  0
M  END
> <s_m_source_file>
AV-unprocessed.smi

> <i_m_source_file_index>
1245

> <i_lp_mmshare_version>
43012

> <i_f3d_flags>
0

> <s_epik_input>
W0NIMl0xW0NIMl1bQ0gyXVtDSDJdW0NIXTFTKD1PKSg9TylbQ0gyXVtDSDJdQyg9TylbTkhdW0NIMl1bQ0gyXWMyW2NIXVtjSF1bY0hdW2NIXW4y

> <s_epik_cmdline>
J2VwaWtfcHl0aG9uJywgJy1waCcsICc3LjAnLCAnLXRuJywgJzgnLCAnLW1hJywgJzIwMCcsICctbWV0YWxfYmluZGluZycsICctaW1hZScsICc8aW5maWxlLm1hZT4nLCAnLW9tYWUnLCAnPG91dGZpbGUubWFlPic=

> <r_epik_Ionization_Penalty>
0.0243247

> <r_epik_Ionization_Penalty_Charging>
0

> <r_epik_Ionization_Penalty_Neutral>
0.0243247

> <r_epik_State_Penalty>
0.0197389

> <r_epik_Charging_Adjusted_Penalty>
0.0197389

> <i_epik_Tot_Q>
0

> <i_epik_Tot_abs_Q>
0

> <r_epik_Metal_State_Penalty>
0.0189562

> <b_epik_Metal_Only>
0

> <s_lp_Force_Field>
OPLS_2005

> <r_lp_Energy>
12.2182

> <b_lp_Chiralities_Consistent>
1

> <s_lp_Variant>
AV-unprocessed.smi:1245-1

> <Gold.Version>
5.8.1

> <Gold.Id.Protein>
6NUR|6NUR_protein|mol2

> <Gold.PLP.Fitness>
45.5181

> <Gold.PLP.PLP>
-35.6144

> <Gold.PLP.part.hbond>
-3.0000

> <Gold.PLP.part.metal>
0.0000

> <Gold.PLP.part.buried>
-5.9245

> <Gold.PLP.part.nonpolar>
-27.5615

> <Gold.PLP.part.repulsive>
0.3414

> <Gold.PLP.ligand.clash>
0.0000

> <Gold.PLP.ligand.torsion>
1.1954

> <Gold.PLP.Chemscore.Hbond>
3.0000

> <Gold.PLP.Chemscore.CHOScore>
1.0000

> <Gold.PLP.Chemscore.Metal>
0.0000

> <Gold.Chemscore.Hbonds>
donor molecule, donor type, donor heavy atom, donor atom, acceptor molecule, acceptor atom, score
      L1  H    13    35       P1  7948  1.00
      P1  H  7989  7998       L1     7  0.99
      P1  H  7997  8010       L1     6  0.98
      L1  C    20    43       P1  7921  0.90

> <Gold.PLP.Chemscore.Internal.Correction>
0.2945

> <Gold.Rescore>
     Score         DG    S(hbond)    S(metal)    S(lipo)     H(rot)  DE(clash)    DE(int)     intcor
     19.74     -20.98       2.93        0.00      92.50       2.00       0.00       1.24       ----

> <Gold.Chemscore.Fitness>
19.7353

> <Gold.Chemscore.DG>
-20.9808

> <Gold.Chemscore.ZeroCoef>
-5.4800

> <Gold.Chemscore.Hbond>
2.9349

> <Gold.Chemscore.Metal>
0.0000

> <Gold.Chemscore.Lipo>
92.4952

> <Gold.Chemscore.Internal_Hbond>
0.0000

> <Gold.Chemscore.DEClash>
0.0019

> <Gold.Chemscore.DEInternal>
1.2436

> <Gold.Chemscore.Rot>
2.0014

> <Gold.Chemscore.Internal.Correction>
   9.000000E+99

> <Gold.Chemscore.Hbonds>
donor molecule, donor type, donor heavy atom, donor atom, acceptor molecule, acceptor atom, score
      L1  H    13    35       P1  7948  0.75
      P1  H  7989  7998       L1     7  0.92
      P1  H  7997  8010       L1     6  0.91

> <Gold.Chemscore.Hbond.Weighted>
-9.8024

> <Gold.Chemscore.Metal.Weighted>
-0.0000

> <Gold.Chemscore.Lipo.Weighted>
-10.8219

> <Gold.Chemscore.Internal_Hbond.Weighted>
0.0000

> <Gold.Chemscore.DEClash.Weighted>
0.0019

> <Gold.Chemscore.DEInternal.Weighted>
1.2436

> <Gold.Chemscore.Rot.Weighted>
5.1236

> <Gold.Chemscore.Internal.Correction.Weighted>
   9.000000E+99

> <Gold.Protein.RotatedTorsions>
[ 6907 6896 6895 6894 ] final  -27.10 input  -60.11 | X-H torsion
[ 7974 7965 7964 7962 ] final   60.54 input  175.53 | X-H torsion
[ 8008 7997 7996 7995 ] final   92.71 input   59.86 | X-H torsion
[ 10167 10162 10161 10158 ] final  -70.33 input  -65.29 | X-H torsion
[ 10718 10713 10712 10709 ] final  -65.32 input   66.30 | X-H torsion
[ 10763 10752 10751 10750 ] final  -76.86 input  -60.55 | X-H torsion
[ 11005 11000 10999 10996 ] final   80.82 input  -57.11 | X-H torsion

> <Gold.Protein.ActiveResidues>
 VAL166  LYS551  ARG553  GLY616  TRP617  ASP618  TYR619  PRO620  LYS621  CYS622 
 ASP623  PHE694  ASN695  SER759  ASP760  ASP761  ALA762  ILE779  LEU786  VAL792 
 PHE793  MET794  SER795  GLU796  ALA797  LYS798  CYS799  TRP800  GLU811  SER814 

> <Gold.Protein.RotatedAtoms>
  151.1517  135.0230  159.8670 H   0  0  0  0  0  0  0  0  0  0  0  0  # atno 6907 bound_to 6896
  152.5452  134.1381  159.8477 H   0  0  0  0  0  0  0  0  0  0  0  0  # atno 6908 bound_to 6896
  151.1467  133.4889  159.2628 H   0  0  0  0  0  0  0  0  0  0  0  0  # atno 6909 bound_to 6896
  145.8949  139.3538  143.0627 H   0  0  0  0  0  0  0  0  0  0  0  0  # atno 7974 bound_to 7965
  156.0384  140.3322  155.7217 H   0  0  0  0  0  0  0  0  0  0  0  0  # atno 8008 bound_to 7997
  155.5780  140.0634  157.2808 H   0  0  0  0  0  0  0  0  0  0  0  0  # atno 8009 bound_to 7997
  154.4382  140.1849  156.0936 H   0  0  0  0  0  0  0  0  0  0  0  0  # atno 8010 bound_to 7997
  140.5361  143.2318  151.7174 H   0  0  0  0  0  0  0  0  0  0  0  0  # atno 10167 bound_to 10162
  156.0676  130.4245  150.1547 H   0  0  0  0  0  0  0  0  0  0  0  0  # atno 10718 bound_to 10713
  154.5054  135.5783  153.6563 H   0  0  0  0  0  0  0  0  0  0  0  0  # atno 10763 bound_to 10752
  152.9886  135.6146  154.2948 H   0  0  0  0  0  0  0  0  0  0  0  0  # atno 10764 bound_to 10752
  154.2859  135.2850  155.2656 H   0  0  0  0  0  0  0  0  0  0  0  0  # atno 10765 bound_to 10752
  139.9120  134.7949  156.1959 H   0  0  0  0  0  0  0  0  0  0  0  0  # atno 11005 bound_to 11000
  145.8863  140.9331  143.0575 LP  0  0  0  0  0  0  0  0  0  0  0  0  # atno 17320 bound_to 7965
  144.6732  140.0847  143.7468 LP  0  0  0  0  0  0  0  0  0  0  0  0  # atno 17321 bound_to 7965
  139.4971  144.4040  152.0151 LP  0  0  0  0  0  0  0  0  0  0  0  0  # atno 17342 bound_to 10162
  140.3146  144.3498  150.6025 LP  0  0  0  0  0  0  0  0  0  0  0  0  # atno 17343 bound_to 10162
  156.9604  130.9803  151.3480 LP  0  0  0  0  0  0  0  0  0  0  0  0  # atno 17370 bound_to 10713
  157.5728  130.8322  149.8414 LP  0  0  0  0  0  0  0  0  0  0  0  0  # atno 17371 bound_to 10713
  141.0555  133.6867  156.1852 LP  0  0  0  0  0  0  0  0  0  0  0  0  # atno 17394 bound_to 11000
  140.6744  134.4834  157.5588 LP  0  0  0  0  0  0  0  0  0  0  0  0  # atno 17395 bound_to 11000

$$$$
