AV-unprocessed.smi:2506|AV-procd|sdf|9862|dock8
  -GOLD-   2272013493D 1   1.00000     0.00000
 Structure written by MMmdl.
 39 40  0  0  0  0  0  0  0  0  2 V2000
  150.4740  138.7033  154.1277 C   0  0  0  0  0  0  0  0  0  0  0  0
  149.3889  139.7662  154.1198 C   0  0  0  0  0  0  0  0  0  0  0  0
  149.7919  141.0095  154.4746 N   0  0  0  0  0  0  0  0  0  0  0  0
  148.8751  141.9910  154.4858 N   0  3  0  0  0  0  0  0  0  0  0  0
  147.5749  141.7911  154.1676 C   0  0  0  0  0  0  0  0  0  0  0  0
  147.1206  140.5127  153.7960 C   0  0  0  0  0  0  0  0  0  0  0  0
  148.0577  139.4557  153.7556 C   0  0  0  0  0  0  0  0  0  0  0  0
  147.7214  138.1165  153.4113 N   0  0  0  0  0  0  0  0  0  0  0  0
  146.5460  137.4854  153.5703 C   0  0  0  0  0  0  0  0  0  0  0  0
  145.5383  137.9799  154.0748 O   0  0  0  0  0  0  0  0  0  0  0  0
  146.5973  136.2390  153.0799 N   0  0  0  0  0  0  0  0  0  0  0  0
  145.4905  135.2846  153.0582 C   0  0  0  0  0  0  0  0  0  0  0  0
  145.3253  134.5865  151.6851 C   0  0  0  0  0  0  0  0  0  0  0  0
  145.0391  135.6226  150.5740 C   0  0  0  0  0  0  0  0  0  0  0  0
  146.5460  133.7227  151.3213 C   0  0  0  0  0  0  0  0  0  0  0  0
  146.0295  132.6361  150.3715 C   0  0  0  0  0  0  0  0  0  0  0  0
  144.5245  132.5103  150.6435 C   0  0  0  0  0  0  0  0  0  0  0  0
  144.1971  133.5415  151.7307 C   0  0  0  0  0  0  0  0  0  0  0  0
  150.5795  138.2615  153.1363 H   0  0  0  0  0  0  0  0  0  0  0  0
  150.2254  137.9113  154.8348 H   0  0  0  0  0  0  0  0  0  0  0  0
  151.4413  139.1183  154.4142 H   0  0  0  0  0  0  0  0  0  0  0  0
  146.9372  142.6610  154.2258 H   0  0  0  0  0  0  0  0  0  0  0  0
  146.0759  140.3695  153.5660 H   0  0  0  0  0  0  0  0  0  0  0  0
  148.4332  137.6055  152.9094 H   0  0  0  0  0  0  0  0  0  0  0  0
  147.4685  135.9226  152.6794 H   0  0  0  0  0  0  0  0  0  0  0  0
  145.6968  134.5429  153.8305 H   0  0  0  0  0  0  0  0  0  0  0  0
  144.5553  135.7639  153.3527 H   0  0  0  0  0  0  0  0  0  0  0  0
  144.8333  135.1465  149.6151 H   0  0  0  0  0  0  0  0  0  0  0  0
  145.8844  136.2932  150.4205 H   0  0  0  0  0  0  0  0  0  0  0  0
  144.1731  136.2366  150.8235 H   0  0  0  0  0  0  0  0  0  0  0  0
  147.3613  134.3007  150.8843 H   0  0  0  0  0  0  0  0  0  0  0  0
  146.9391  133.2433  152.2190 H   0  0  0  0  0  0  0  0  0  0  0  0
  146.1929  132.9341  149.3351 H   0  0  0  0  0  0  0  0  0  0  0  0
  146.5527  131.6916  150.5243 H   0  0  0  0  0  0  0  0  0  0  0  0
  143.9650  132.7296  149.7331 H   0  0  0  0  0  0  0  0  0  0  0  0
  144.2504  131.5028  150.9581 H   0  0  0  0  0  0  0  0  0  0  0  0
  144.1970  133.0355  152.6973 H   0  0  0  0  0  0  0  0  0  0  0  0
  143.2066  133.9801  151.6024 H   0  0  0  0  0  0  0  0  0  0  0  0
  149.1686  142.9314  154.7520 H   0  0  0  0  0  0  0  0  0  0  0  0
  1  2  1  0  0  0  0
  1 19  1  0  0  0  0
  1 20  1  0  0  0  0
  1 21  1  0  0  0  0
  2  7  1  0  0  0  0
  2  3  2  0  0  0  0
  3  4  1  0  0  0  0
  4  5  2  0  0  0  0
  4 39  1  0  0  0  0
  5  6  1  0  0  0  0
  5 22  1  0  0  0  0
  6  7  2  0  0  0  0
  6 23  1  0  0  0  0
  7  8  1  0  0  0  0
  8  9  1  0  0  0  0
  8 24  1  0  0  0  0
  9 10  2  0  0  0  0
  9 11  1  0  0  0  0
 11 12  1  0  0  0  0
 11 25  1  0  0  0  0
 12 13  1  0  0  0  0
 12 26  1  0  0  0  0
 12 27  1  0  0  0  0
 13 18  1  0  0  0  0
 13 14  1  0  0  0  0
 13 15  1  0  0  0  0
 14 28  1  0  0  0  0
 14 29  1  0  0  0  0
 14 30  1  0  0  0  0
 15 16  1  0  0  0  0
 15 31  1  0  0  0  0
 15 32  1  0  0  0  0
 16 17  1  0  0  0  0
 16 33  1  0  0  0  0
 16 34  1  0  0  0  0
 17 18  1  0  0  0  0
 17 35  1  0  0  0  0
 17 36  1  0  0  0  0
 18 37  1  0  0  0  0
 18 38  1  0  0  0  0
M  CHG  1   4   1
M  END
> <s_m_source_file>
AV-unprocessed.smi

> <i_m_source_file_index>
2506

> <i_lp_mmshare_version>
43012

> <i_f3d_flags>
0

> <s_epik_input>
W0NIM11jMW5uW2NIXVtjSF1jMVtOSF1DKD1PKVtOSF1bQ0gyXUMyKFtDSDNdKVtDSDJdW0NIMl1bQ0gyXVtDSDJdMg==

> <s_epik_cmdline>
J2VwaWtfcHl0aG9uJywgJy1waCcsICc3LjAnLCAnLXRuJywgJzgnLCAnLW1hJywgJzIwMCcsICctbWV0YWxfYmluZGluZycsICctaW1hZScsICc8aW5maWxlLm1hZT4nLCAnLW9tYWUnLCAnPG91dGZpbGUubWFlPic=

> <r_lp_tautomer_probability>
0.5088

> <r_epik_Ionization_Penalty>
1.13414

> <r_epik_Ionization_Penalty_Charging>
1.1341

> <r_epik_Ionization_Penalty_Neutral>
4.35135e-05

> <r_epik_State_Penalty>
2.14502

> <r_epik_Charging_Adjusted_Penalty>
3.27912

> <i_epik_Tot_Q>
1

> <i_epik_Tot_abs_Q>
1

> <r_epik_Metal_State_Penalty>
2.23434

> <b_epik_Metal_Only>
0

> <s_lp_Force_Field>
OPLS_2005

> <r_lp_Energy>
34.1821

> <b_lp_Chiralities_Consistent>
1

> <s_lp_Variant>
AV-unprocessed.smi:2506-2

> <Gold.Version>
5.8.1

> <Gold.Id.Protein>
6NUR|6NUR_protein|mol2

> <Gold.PLP.Fitness>
45.6043

> <Gold.PLP.PLP>
-32.8839

> <Gold.PLP.part.hbond>
-4.0000

> <Gold.PLP.part.metal>
0.0000

> <Gold.PLP.part.buried>
-1.8614

> <Gold.PLP.part.nonpolar>
-26.4849

> <Gold.PLP.part.repulsive>
1.4338

> <Gold.PLP.ligand.clash>
0.0000

> <Gold.PLP.ligand.torsion>
0.2588

> <Gold.PLP.Chemscore.Hbond>
4.4079

> <Gold.PLP.Chemscore.CHOScore>
0.0000

> <Gold.PLP.Chemscore.Metal>
0.0000

> <Gold.Chemscore.Hbonds>
donor molecule, donor type, donor heavy atom, donor atom, acceptor molecule, acceptor atom, score
      L1  H     4    39       P1  8028  2.00
      L1  H     8    24       P1  7948  1.00
      L1  H    11    25       P1  7948  1.00
      P1  H  7989  7998       L1     3  0.39

> <Gold.PLP.Chemscore.Internal.Correction>
0.0143

> <Gold.Rescore>
     Score         DG    S(hbond)    S(metal)    S(lipo)     H(rot)  DE(clash)    DE(int)     intcor
     19.90     -21.56       2.95        0.00      79.86       1.22       0.33       1.33       ----

> <Gold.Chemscore.Fitness>
19.9019

> <Gold.Chemscore.DG>
-21.5637

> <Gold.Chemscore.ZeroCoef>
-5.4800

> <Gold.Chemscore.Hbond>
2.9536

> <Gold.Chemscore.Metal>
0.0000

> <Gold.Chemscore.Lipo>
79.8614

> <Gold.Chemscore.Internal_Hbond>
0.0000

> <Gold.Chemscore.DEClash>
0.3331

> <Gold.Chemscore.DEInternal>
1.3287

> <Gold.Chemscore.Rot>
1.2207

> <Gold.Chemscore.Internal.Correction>
   9.000000E+99

> <Gold.Chemscore.Hbonds>
donor molecule, donor type, donor heavy atom, donor atom, acceptor molecule, acceptor atom, score
      L1  H     4    39       P1  8028  0.92
      L1  H     8    24       P1  7948  0.96
      L1  H    11    25       P1  7948  0.96
      P1  H  7989  7998       L1     3  0.05

> <Gold.Chemscore.Hbond.Weighted>
-9.8649

> <Gold.Chemscore.Metal.Weighted>
-0.0000

> <Gold.Chemscore.Lipo.Weighted>
-9.3438

> <Gold.Chemscore.Internal_Hbond.Weighted>
0.0000

> <Gold.Chemscore.DEClash.Weighted>
0.3331

> <Gold.Chemscore.DEInternal.Weighted>
1.3287

> <Gold.Chemscore.Rot.Weighted>
3.1250

> <Gold.Chemscore.Internal.Correction.Weighted>
   9.000000E+99

> <Gold.Protein.RotatedTorsions>
[ 6907 6896 6895 6894 ] final  118.31 input  -60.11 | X-H torsion
[ 7974 7965 7964 7962 ] final   26.18 input  175.53 | X-H torsion
[ 8008 7997 7996 7995 ] final  -35.11 input   59.86 | X-H torsion
[ 10167 10162 10161 10158 ] final  130.53 input  -65.29 | X-H torsion
[ 10718 10713 10712 10709 ] final   39.31 input   66.30 | X-H torsion
[ 10763 10752 10751 10750 ] final  -42.22 input  -60.55 | X-H torsion
[ 11005 11000 10999 10996 ] final   97.81 input  -57.11 | X-H torsion

> <Gold.Protein.ActiveResidues>
 VAL166  LYS551  ARG553  GLY616  TRP617  ASP618  TYR619  PRO620  LYS621  CYS622 
 ASP623  PHE694  ASN695  SER759  ASP760  ASP761  ALA762  ILE779  LEU786  VAL792 
 PHE793  MET794  SER795  GLU796  ALA797  LYS798  CYS799  TRP800  GLU811  SER814 

> <Gold.Protein.RotatedAtoms>
  152.4552  133.7708  159.6797 H   0  0  0  0  0  0  0  0  0  0  0  0  # atno 6907 bound_to 6896
  150.8476  133.7828  159.3044 H   0  0  0  0  0  0  0  0  0  0  0  0  # atno 6908 bound_to 6896
  151.5433  135.1071  159.9983 H   0  0  0  0  0  0  0  0  0  0  0  0  # atno 6909 bound_to 6896
  146.1851  139.7364  142.8872 H   0  0  0  0  0  0  0  0  0  0  0  0  # atno 7974 bound_to 7965
  154.4103  140.1666  156.2159 H   0  0  0  0  0  0  0  0  0  0  0  0  # atno 8008 bound_to 7997
  155.9405  140.3408  155.6300 H   0  0  0  0  0  0  0  0  0  0  0  0  # atno 8009 bound_to 7997
  155.6995  140.0743  157.2407 H   0  0  0  0  0  0  0  0  0  0  0  0  # atno 8010 bound_to 7997
  139.5425  144.6744  151.4577 H   0  0  0  0  0  0  0  0  0  0  0  0  # atno 10167 bound_to 10162
  157.3690  130.7691  149.7105 H   0  0  0  0  0  0  0  0  0  0  0  0  # atno 10718 bound_to 10713
  153.9755  135.6723  153.4748 H   0  0  0  0  0  0  0  0  0  0  0  0  # atno 10763 bound_to 10752
  153.0773  135.4942  154.8427 H   0  0  0  0  0  0  0  0  0  0  0  0  # atno 10764 bound_to 10752
  154.7195  135.3114  154.9032 H   0  0  0  0  0  0  0  0  0  0  0  0  # atno 10765 bound_to 10752
  139.8774  134.9019  156.4363 H   0  0  0  0  0  0  0  0  0  0  0  0  # atno 11005 bound_to 11000
  145.3963  141.0379  143.3095 LP  0  0  0  0  0  0  0  0  0  0  0  0  # atno 17320 bound_to 7965
  144.8382  139.5515  143.6912 LP  0  0  0  0  0  0  0  0  0  0  0  0  # atno 17321 bound_to 7965
  140.6661  143.8394  150.6944 LP  0  0  0  0  0  0  0  0  0  0  0  0  # atno 17342 bound_to 10162
  140.1804  143.4120  152.1937 LP  0  0  0  0  0  0  0  0  0  0  0  0  # atno 17343 bound_to 10162
  155.9752  130.4092  150.3868 LP  0  0  0  0  0  0  0  0  0  0  0  0  # atno 17370 bound_to 10713
  157.1957  131.0426  151.2677 LP  0  0  0  0  0  0  0  0  0  0  0  0  # atno 17371 bound_to 10713
  140.9031  133.7765  155.9703 LP  0  0  0  0  0  0  0  0  0  0  0  0  # atno 17394 bound_to 11000
  140.8629  134.2819  157.5226 LP  0  0  0  0  0  0  0  0  0  0  0  0  # atno 17395 bound_to 11000

$$$$
