AV-unprocessed.smi:456|AV-procd|sdf|2616|dock8
  -GOLD-   2262023 13D 1   1.00000     0.00000
 Structure written by MMmdl.
 32 34  0  0  0  0  0  0  0  0  1 V2000
  149.4900  140.8861  153.3483 O   0  0  0  0  0  0  0  0  0  0  0  0
  150.2931  140.3839  154.3966 C   0  0  1  0  0  0  0  0  0  0  0  0
  150.0796  141.2719  155.6385 C   0  0  0  0  0  0  0  0  0  0  0  0
  151.0781  141.0303  156.6651 N   0  0  0  0  0  0  0  0  0  0  0  0
  151.9310  139.9901  156.7331 C   0  0  0  0  0  0  0  0  0  0  0  0
  152.7632  139.9508  157.7697 N   0  0  0  0  0  0  0  0  0  0  0  0
  152.4099  141.1000  158.4555 C   0  0  0  0  0  0  0  0  0  0  0  0
  152.9163  141.6413  159.6587 C   0  0  0  0  0  0  0  0  0  0  0  0
  152.3902  142.8416  160.1799 C   0  0  0  0  0  0  0  0  0  0  0  0
  152.8865  143.3457  161.3347 F   0  0  0  0  0  0  0  0  0  0  0  0
  151.3520  143.5185  159.5060 C   0  0  0  0  0  0  0  0  0  0  0  0
  150.8509  144.6694  160.0141 F   0  0  0  0  0  0  0  0  0  0  0  0
  150.8339  143.0002  158.3039 C   0  0  0  0  0  0  0  0  0  0  0  0
  151.3601  141.8009  157.7887 C   0  0  0  0  0  0  0  0  0  0  0  0
  150.0139  138.9147  154.6826 C   0  0  0  0  0  0  0  0  0  0  0  0
  151.0508  137.9644  154.5619 C   0  0  0  0  0  0  0  0  0  0  0  0
  150.8091  136.6083  154.8552 C   0  0  0  0  0  0  0  0  0  0  0  0
  149.5290  136.1941  155.2699 C   0  0  0  0  0  0  0  0  0  0  0  0
  148.4901  137.1368  155.3901 C   0  0  0  0  0  0  0  0  0  0  0  0
  148.7311  138.4931  155.0979 C   0  0  0  0  0  0  0  0  0  0  0  0
  149.4355  140.2278  152.6725 H   0  0  0  0  0  0  0  0  0  0  0  0
  151.3274  140.4842  154.0642 H   0  0  0  0  0  0  0  0  0  0  0  0
  150.1380  142.3252  155.3599 H   0  0  0  0  0  0  0  0  0  0  0  0
  149.0867  141.1176  156.0630 H   0  0  0  0  0  0  0  0  0  0  0  0
  151.9384  139.2155  155.9800 H   0  0  0  0  0  0  0  0  0  0  0  0
  153.7102  141.1315  160.1838 H   0  0  0  0  0  0  0  0  0  0  0  0
  150.0374  143.5156  157.7886 H   0  0  0  0  0  0  0  0  0  0  0  0
  152.0390  138.2744  154.2553 H   0  0  0  0  0  0  0  0  0  0  0  0
  151.6074  135.8864  154.7655 H   0  0  0  0  0  0  0  0  0  0  0  0
  149.3443  135.1545  155.4973 H   0  0  0  0  0  0  0  0  0  0  0  0
  147.5086  136.8201  155.7105 H   0  0  0  0  0  0  0  0  0  0  0  0
  147.9299  139.2100  155.2033 H   0  0  0  0  0  0  0  0  0  0  0  0
  1  2  1  0  0  0  0
  1 21  1  0  0  0  0
  2  3  1  0  0  0  0
  2 15  1  0  0  0  0
  2 22  1  0  0  0  0
  3  4  1  0  0  0  0
  3 23  1  0  0  0  0
  3 24  1  0  0  0  0
  4 14  1  0  0  0  0
  4  5  1  0  0  0  0
  5  6  2  0  0  0  0
  5 25  1  0  0  0  0
  6  7  1  0  0  0  0
  7 14  2  0  0  0  0
  7  8  1  0  0  0  0
  8  9  2  0  0  0  0
  8 26  1  0  0  0  0
  9 10  1  0  0  0  0
  9 11  1  0  0  0  0
 11 12  1  0  0  0  0
 11 13  2  0  0  0  0
 13 14  1  0  0  0  0
 13 27  1  0  0  0  0
 15 20  1  0  0  0  0
 15 16  2  0  0  0  0
 16 17  1  0  0  0  0
 16 28  1  0  0  0  0
 17 18  2  0  0  0  0
 17 29  1  0  0  0  0
 18 19  1  0  0  0  0
 18 30  1  0  0  0  0
 19 20  2  0  0  0  0
 19 31  1  0  0  0  0
 20 32  1  0  0  0  0
M  END
> <s_m_source_file>
AV-unprocessed.smi

> <i_m_source_file_index>
456

> <i_lp_mmshare_version>
43012

> <i_f3d_flags>
0

> <s_epik_input>
W2NIXTFbY0hdW2NIXVtjSF1bY0hdYzFbQ0BIXShbT0hdKVtDSDJdbihbY0hdbjIpYyhjMjMpW2NIXWMoRiljKEYpW2NIXTM=

> <s_epik_cmdline>
J2VwaWtfcHl0aG9uJywgJy1waCcsICc3LjAnLCAnLXRuJywgJzgnLCAnLW1hJywgJzIwMCcsICctbWV0YWxfYmluZGluZycsICctaW1hZScsICc8aW5maWxlLm1hZT4nLCAnLW9tYWUnLCAnPG91dGZpbGUubWFlPic=

> <r_epik_Ionization_Penalty>
0.0156354

> <r_epik_Ionization_Penalty_Charging>
0

> <r_epik_Ionization_Penalty_Neutral>
0.0156354

> <r_epik_State_Penalty>
0.0122974

> <r_epik_Charging_Adjusted_Penalty>
0.0122974

> <i_epik_Tot_Q>
0

> <i_epik_Tot_abs_Q>
0

> <r_epik_Metal_State_Penalty>
1.24258e-05

> <b_epik_Metal_Only>
0

> <s_lp_Force_Field>
OPLS_2005

> <r_lp_Energy>
11.2187

> <b_lp_Chiralities_Consistent>
1

> <s_lp_Variant>
AV-unprocessed.smi:456-2

> <Gold.Version>
5.8.1

> <Gold.Id.Protein>
6NUR|6NUR_protein|mol2

> <Gold.PLP.Fitness>
49.6256

> <Gold.PLP.PLP>
-41.5287

> <Gold.PLP.part.hbond>
-3.4002

> <Gold.PLP.part.metal>
0.0000

> <Gold.PLP.part.buried>
-2.7560

> <Gold.PLP.part.nonpolar>
-36.3138

> <Gold.PLP.part.repulsive>
0.0000

> <Gold.PLP.ligand.clash>
0.0000

> <Gold.PLP.ligand.torsion>
0.2320

> <Gold.PLP.Chemscore.Hbond>
2.8480

> <Gold.PLP.Chemscore.CHOScore>
0.0000

> <Gold.PLP.Chemscore.Metal>
0.0000

> <Gold.Chemscore.Hbonds>
donor molecule, donor type, donor heavy atom, donor atom, acceptor molecule, acceptor atom, score
      L1  H     1    21       P1  7957  0.83
      P1  H  7997  8010       L1     6  1.00
      P1  H  8011  8017       L1     1  1.00

> <Gold.PLP.Chemscore.Internal.Correction>
0.0170

> <Gold.Rescore>
     Score         DG    S(hbond)    S(metal)    S(lipo)     H(rot)  DE(clash)    DE(int)     intcor
     16.71     -18.68       2.04        0.00      97.95       1.98       1.74       0.22       ----

> <Gold.Chemscore.Fitness>
16.7116

> <Gold.Chemscore.DG>
-18.6786

> <Gold.Chemscore.ZeroCoef>
-5.4800

> <Gold.Chemscore.Hbond>
2.0363

> <Gold.Chemscore.Metal>
0.0000

> <Gold.Chemscore.Lipo>
97.9491

> <Gold.Chemscore.Internal_Hbond>
0.0000

> <Gold.Chemscore.DEClash>
1.7436

> <Gold.Chemscore.DEInternal>
0.2235

> <Gold.Chemscore.Rot>
1.9776

> <Gold.Chemscore.Internal.Correction>
   9.000000E+99

> <Gold.Chemscore.Hbonds>
donor molecule, donor type, donor heavy atom, donor atom, acceptor molecule, acceptor atom, score
      L1  H     1    21       P1  7957  0.76
      P1  H  7997  8010       L1     6  0.30
      P1  H  8011  8017       L1     1  0.30

> <Gold.Chemscore.Hbond.Weighted>
-6.8012

> <Gold.Chemscore.Metal.Weighted>
-0.0000

> <Gold.Chemscore.Lipo.Weighted>
-11.4600

> <Gold.Chemscore.Internal_Hbond.Weighted>
0.0000

> <Gold.Chemscore.DEClash.Weighted>
1.7436

> <Gold.Chemscore.DEInternal.Weighted>
0.2235

> <Gold.Chemscore.Rot.Weighted>
5.0626

> <Gold.Chemscore.Internal.Correction.Weighted>
   9.000000E+99

> <Gold.Protein.RotatedTorsions>
[ 6907 6896 6895 6894 ] final  -57.66 input  -60.11 | X-H torsion
[ 7974 7965 7964 7962 ] final  -18.26 input  175.53 | X-H torsion
[ 8008 7997 7996 7995 ] final   44.23 input   59.86 | X-H torsion
[ 10167 10162 10161 10158 ] final   76.70 input  -65.29 | X-H torsion
[ 10718 10713 10712 10709 ] final   48.47 input   66.30 | X-H torsion
[ 10763 10752 10751 10750 ] final  -25.68 input  -60.55 | X-H torsion
[ 11005 11000 10999 10996 ] final  156.68 input  -57.11 | X-H torsion

> <Gold.Protein.ActiveResidues>
 VAL166  LYS551  ARG553  GLY616  TRP617  ASP618  TYR619  PRO620  LYS621  CYS622 
 ASP623  PHE694  ASN695  SER759  ASP760  ASP761  ALA762  ILE779  LEU786  VAL792 
 PHE793  MET794  SER795  GLU796  ALA797  LYS798  CYS799  TRP800  GLU811  SER814 

> <Gold.Protein.RotatedAtoms>
  150.8068  134.7199  159.6651 H   0  0  0  0  0  0  0  0  0  0  0  0  # atno 6907 bound_to 6896
  152.4188  134.5990  160.0004 H   0  0  0  0  0  0  0  0  0  0  0  0  # atno 6908 bound_to 6896
  151.6211  133.3302  159.3124 H   0  0  0  0  0  0  0  0  0  0  0  0  # atno 6909 bound_to 6896
  146.1901  140.3896  142.8461 H   0  0  0  0  0  0  0  0  0  0  0  0  # atno 7974 bound_to 7965
  155.3158  140.3394  155.4242 H   0  0  0  0  0  0  0  0  0  0  0  0  # atno 8008 bound_to 7997
  156.1933  140.1705  156.8086 H   0  0  0  0  0  0  0  0  0  0  0  0  # atno 8009 bound_to 7997
  154.5468  140.0713  156.8586 H   0  0  0  0  0  0  0  0  0  0  0  0  # atno 8010 bound_to 7997
  139.9895  144.5768  150.7830 H   0  0  0  0  0  0  0  0  0  0  0  0  # atno 10167 bound_to 10162
  157.4689  130.8243  149.7966 H   0  0  0  0  0  0  0  0  0  0  0  0  # atno 10718 bound_to 10713
  153.7037  135.6955  153.5056 H   0  0  0  0  0  0  0  0  0  0  0  0  # atno 10763 bound_to 10752
  153.2323  135.4333  155.0608 H   0  0  0  0  0  0  0  0  0  0  0  0  # atno 10764 bound_to 10752
  154.8336  135.3487  154.6576 H   0  0  0  0  0  0  0  0  0  0  0  0  # atno 10765 bound_to 10752
  140.1698  134.8551  157.2677 H   0  0  0  0  0  0  0  0  0  0  0  0  # atno 11005 bound_to 11000
  144.8470  140.6944  143.6193 LP  0  0  0  0  0  0  0  0  0  0  0  0  # atno 17320 bound_to 7965
  145.3819  139.1635  143.4276 LP  0  0  0  0  0  0  0  0  0  0  0  0  # atno 17321 bound_to 7965
  140.7460  143.2884  151.3399 LP  0  0  0  0  0  0  0  0  0  0  0  0  # atno 17342 bound_to 10162
  139.6351  144.0647  152.2509 LP  0  0  0  0  0  0  0  0  0  0  0  0  # atno 17343 bound_to 10162
  156.0064  130.3854  150.2417 LP  0  0  0  0  0  0  0  0  0  0  0  0  # atno 17370 bound_to 10713
  157.0599  131.0087  151.3226 LP  0  0  0  0  0  0  0  0  0  0  0  0  # atno 17371 bound_to 10713
  140.2390  134.3818  155.7488 LP  0  0  0  0  0  0  0  0  0  0  0  0  # atno 17394 bound_to 11000
  141.2216  133.7255  156.8760 LP  0  0  0  0  0  0  0  0  0  0  0  0  # atno 17395 bound_to 11000

$$$$
