AV-unprocessed.smi:2150|AV-procd|sdf|8757|dock3
  -GOLD-   2272011533D 1   1.00000     0.00000
 Structure written by MMmdl.
 35 36  0  0  0  0  0  0  0  0  1 V2000
  151.3089  141.0118  157.6121 O   0  0  0  0  0  0  0  0  0  0  0  0
  150.9903  142.0933  157.1160 C   0  0  0  0  0  0  0  0  0  0  0  0
  151.6671  143.3964  157.5642 C   0  0  0  0  0  0  0  0  0  0  0  0
  151.9461  143.4414  159.0088 N   0  0  0  0  0  0  0  0  0  0  0  0
  152.7007  142.3909  159.5572 C   0  0  0  0  0  0  0  0  0  0  0  0
  152.9913  142.3624  160.8658 C   0  0  0  0  0  0  0  0  0  0  0  0
  152.4804  143.4783  161.6724 C   0  0  0  0  0  0  0  0  0  0  0  0
  151.7888  144.4354  161.1763 N   0  0  0  0  0  0  0  0  0  0  0  0
  151.4809  144.4603  159.8026 C   0  0  0  0  0  0  0  0  0  0  0  0
  150.8104  145.3734  159.3201 O   0  0  0  0  0  0  0  0  0  0  0  0
  150.0636  142.2155  156.1523 N   0  0  0  0  0  0  0  0  0  0  0  0
  149.3076  141.1129  155.5539 C   0  0  1  0  0  0  0  0  0  0  0  0
  148.4749  141.6970  154.3895 C   0  0  0  0  0  0  0  0  0  0  0  0
  147.2558  140.8400  154.0067 C   0  0  0  0  0  0  0  0  0  0  0  0
  147.5895  139.4530  153.4368 C   0  0  0  0  0  0  0  0  0  0  0  0
  148.3341  138.5403  154.4261 C   0  0  0  0  0  0  0  0  0  0  0  0
  149.7462  138.8839  154.5326 N   0  0  0  0  0  0  0  0  0  0  0  0
  150.2638  140.0300  155.0006 C   0  0  0  0  0  0  0  0  0  0  0  0
  151.4808  140.2145  154.9835 O   0  0  0  0  0  0  0  0  0  0  0  0
  152.5902  143.5112  156.9943 H   0  0  0  0  0  0  0  0  0  0  0  0
  151.0459  144.2470  157.2776 H   0  0  0  0  0  0  0  0  0  0  0  0
  153.0123  141.6265  158.8601 H   0  0  0  0  0  0  0  0  0  0  0  0
  153.5622  141.5849  161.3511 H   0  0  0  0  0  0  0  0  0  0  0  0
  152.7304  143.4393  162.7356 H   0  0  0  0  0  0  0  0  0  0  0  0
  149.8761  143.1403  155.7934 H   0  0  0  0  0  0  0  0  0  0  0  0
  148.6478  140.6813  156.3088 H   0  0  0  0  0  0  0  0  0  0  0  0
  148.0943  142.6770  154.6823 H   0  0  0  0  0  0  0  0  0  0  0  0
  149.0998  141.8782  153.5132 H   0  0  0  0  0  0  0  0  0  0  0  0
  146.6058  140.7278  154.8752 H   0  0  0  0  0  0  0  0  0  0  0  0
  146.6684  141.3846  153.2669 H   0  0  0  0  0  0  0  0  0  0  0  0
  146.6531  138.9685  153.1584 H   0  0  0  0  0  0  0  0  0  0  0  0
  148.1603  139.5522  152.5124 H   0  0  0  0  0  0  0  0  0  0  0  0
  147.8614  138.5523  155.4092 H   0  0  0  0  0  0  0  0  0  0  0  0
  148.2814  137.5104  154.0730 H   0  0  0  0  0  0  0  0  0  0  0  0
  150.3989  138.1943  154.1888 H   0  0  0  0  0  0  0  0  0  0  0  0
  1  2  2  0  0  0  0
  2  3  1  0  0  0  0
  2 11  1  0  0  0  0
  3  4  1  0  0  0  0
  3 20  1  0  0  0  0
  3 21  1  0  0  0  0
  4  9  1  0  0  0  0
  4  5  1  0  0  0  0
  5  6  2  0  0  0  0
  5 22  1  0  0  0  0
  6  7  1  0  0  0  0
  6 23  1  0  0  0  0
  7  8  2  0  0  0  0
  7 24  1  0  0  0  0
  8  9  1  0  0  0  0
  9 10  2  0  0  0  0
 11 12  1  0  0  0  0
 11 25  1  0  0  0  0
 12 18  1  0  0  0  0
 12 13  1  0  0  0  0
 12 26  1  0  0  0  0
 13 14  1  0  0  0  0
 13 27  1  0  0  0  0
 13 28  1  0  0  0  0
 14 15  1  0  0  0  0
 14 29  1  0  0  0  0
 14 30  1  0  0  0  0
 15 16  1  0  0  0  0
 15 31  1  0  0  0  0
 15 32  1  0  0  0  0
 16 17  1  0  0  0  0
 16 33  1  0  0  0  0
 16 34  1  0  0  0  0
 17 18  1  0  0  0  0
 17 35  1  0  0  0  0
 18 19  2  0  0  0  0
M  END
> <s_m_source_file>
AV-unprocessed.smi

> <i_m_source_file_index>
2150

> <i_lp_mmshare_version>
43012

> <i_f3d_flags>
0

> <s_epik_input>
Tz1jMW5bY0hdW2NIXVtjSF1uMVtDSDJdQyg9TylbTkhdW0NAQEhdMltDSDJdW0NIMl1bQ0gyXVtDSDJdW05IXUMyPU8=

> <s_epik_cmdline>
J2VwaWtfcHl0aG9uJywgJy1waCcsICc3LjAnLCAnLXRuJywgJzgnLCAnLW1hJywgJzIwMCcsICctbWV0YWxfYmluZGluZycsICctaW1hZScsICc8aW5maWxlLm1hZT4nLCAnLW9tYWUnLCAnPG91dGZpbGUubWFlPic=

> <r_lp_tautomer_probability>
1

> <r_epik_Ionization_Penalty>
6.25431e-06

> <r_epik_Ionization_Penalty_Charging>
1.47848e-08

> <r_epik_Ionization_Penalty_Neutral>
6.23953e-06

> <r_epik_State_Penalty>
-0

> <r_epik_Charging_Adjusted_Penalty>
1.47848e-08

> <i_epik_Tot_Q>
0

> <i_epik_Tot_abs_Q>
0

> <r_epik_Metal_State_Penalty>
-0

> <b_epik_Metal_Only>
0

> <s_lp_Force_Field>
OPLS_2005

> <r_lp_Energy>
14.2725

> <b_lp_Chiralities_Consistent>
1

> <s_lp_Variant>
AV-unprocessed.smi:2150-2

> <Gold.Version>
5.8.1

> <Gold.Id.Protein>
6NUR|6NUR_protein|mol2

> <Gold.PLP.Fitness>
46.5094

> <Gold.PLP.PLP>
-41.2547

> <Gold.PLP.part.hbond>
-2.2388

> <Gold.PLP.part.metal>
0.0000

> <Gold.PLP.part.buried>
-5.4825

> <Gold.PLP.part.nonpolar>
-33.8100

> <Gold.PLP.part.repulsive>
0.5699

> <Gold.PLP.ligand.clash>
0.0000

> <Gold.PLP.ligand.torsion>
0.3735

> <Gold.PLP.Chemscore.Hbond>
2.0000

> <Gold.PLP.Chemscore.CHOScore>
0.0000

> <Gold.PLP.Chemscore.Metal>
0.0000

> <Gold.Chemscore.Hbonds>
donor molecule, donor type, donor heavy atom, donor atom, acceptor molecule, acceptor atom, score
      L1  H    11    25       P1  8028  1.00
      P1  H  7989  7998       L1    19  1.00

> <Gold.PLP.Chemscore.Internal.Correction>
0.0018

> <Gold.Rescore>
     Score         DG    S(hbond)    S(metal)    S(lipo)     H(rot)  DE(clash)    DE(int)     intcor
     11.90     -15.71       1.96        0.00      68.52       1.69       0.00       3.81       ----

> <Gold.Chemscore.Fitness>
11.8968

> <Gold.Chemscore.DG>
-15.7101

> <Gold.Chemscore.ZeroCoef>
-5.4800

> <Gold.Chemscore.Hbond>
1.9617

> <Gold.Chemscore.Metal>
0.0000

> <Gold.Chemscore.Lipo>
68.5165

> <Gold.Chemscore.Internal_Hbond>
0.0000

> <Gold.Chemscore.DEClash>
0.0015

> <Gold.Chemscore.DEInternal>
3.8118

> <Gold.Chemscore.Rot>
1.6947

> <Gold.Chemscore.Internal.Correction>
   9.000000E+99

> <Gold.Chemscore.Hbonds>
donor molecule, donor type, donor heavy atom, donor atom, acceptor molecule, acceptor atom, score
      L1  H    11    25       P1  8028  0.98
      P1  H  7989  7998       L1    19  0.24

> <Gold.Chemscore.Hbond.Weighted>
-6.5521

> <Gold.Chemscore.Metal.Weighted>
-0.0000

> <Gold.Chemscore.Lipo.Weighted>
-8.0164

> <Gold.Chemscore.Internal_Hbond.Weighted>
0.0000

> <Gold.Chemscore.DEClash.Weighted>
0.0015

> <Gold.Chemscore.DEInternal.Weighted>
3.8118

> <Gold.Chemscore.Rot.Weighted>
4.3385

> <Gold.Chemscore.Internal.Correction.Weighted>
   9.000000E+99

> <Gold.Protein.RotatedTorsions>
[ 6907 6896 6895 6894 ] final   56.41 input  -60.11 | X-H torsion
[ 7974 7965 7964 7962 ] final   98.88 input  175.53 | X-H torsion
[ 8008 7997 7996 7995 ] final   40.74 input   59.86 | X-H torsion
[ 10167 10162 10161 10158 ] final  151.91 input  -65.29 | X-H torsion
[ 10718 10713 10712 10709 ] final   45.08 input   66.30 | X-H torsion
[ 10763 10752 10751 10750 ] final   36.55 input  -60.55 | X-H torsion
[ 11005 11000 10999 10996 ] final   81.81 input  -57.11 | X-H torsion

> <Gold.Protein.ActiveResidues>
 VAL166  LYS551  ARG553  GLY616  TRP617  ASP618  TYR619  PRO620  LYS621  CYS622 
 ASP623  PHE694  ASN695  SER759  ASP760  ASP761  ALA762  ILE779  LEU786  VAL792 
 PHE793  MET794  SER795  GLU796  ALA797  LYS798  CYS799  TRP800  GLU811  SER814 

> <Gold.Protein.RotatedAtoms>
  152.3633  134.6840  160.0199 H   0  0  0  0  0  0  0  0  0  0  0  0  # atno 6907 bound_to 6896
  151.7157  133.3308  159.3310 H   0  0  0  0  0  0  0  0  0  0  0  0  # atno 6908 bound_to 6896
  150.7620  134.6427  159.6290 H   0  0  0  0  0  0  0  0  0  0  0  0  # atno 6909 bound_to 6896
  145.4063  139.2340  143.3272 H   0  0  0  0  0  0  0  0  0  0  0  0  # atno 7974 bound_to 7965
  155.2580  140.3357  155.4276 H   0  0  0  0  0  0  0  0  0  0  0  0  # atno 8008 bound_to 7997
  156.2187  140.1800  156.7572 H   0  0  0  0  0  0  0  0  0  0  0  0  # atno 8009 bound_to 7997
  154.5792  140.0656  156.9063 H   0  0  0  0  0  0  0  0  0  0  0  0  # atno 8010 bound_to 7997
  139.4837  144.5401  151.7578 H   0  0  0  0  0  0  0  0  0  0  0  0  # atno 10167 bound_to 10162
  157.4338  130.8040  149.7628 H   0  0  0  0  0  0  0  0  0  0  0  0  # atno 10718 bound_to 10713
  153.0072  135.6302  154.2003 H   0  0  0  0  0  0  0  0  0  0  0  0  # atno 10763 bound_to 10752
  154.1747  135.2816  155.3072 H   0  0  0  0  0  0  0  0  0  0  0  0  # atno 10764 bound_to 10752
  154.5881  135.5626  153.7311 H   0  0  0  0  0  0  0  0  0  0  0  0  # atno 10765 bound_to 10752
  139.9085  134.8024  156.2090 H   0  0  0  0  0  0  0  0  0  0  0  0  # atno 11005 bound_to 11000
  146.2727  140.4768  142.8808 LP  0  0  0  0  0  0  0  0  0  0  0  0  # atno 17320 bound_to 7965
  144.8339  140.6751  143.6273 LP  0  0  0  0  0  0  0  0  0  0  0  0  # atno 17321 bound_to 7965
  140.4940  144.1268  150.5956 LP  0  0  0  0  0  0  0  0  0  0  0  0  # atno 17342 bound_to 10162
  140.4139  143.2644  151.9799 LP  0  0  0  0  0  0  0  0  0  0  0  0  # atno 17343 bound_to 10162
  155.9923  130.3932  150.2949 LP  0  0  0  0  0  0  0  0  0  0  0  0  # atno 17370 bound_to 10713
  157.1108  131.0221  151.3049 LP  0  0  0  0  0  0  0  0  0  0  0  0  # atno 17371 bound_to 10713
  141.0477  133.6905  156.1714 LP  0  0  0  0  0  0  0  0  0  0  0  0  # atno 17394 bound_to 11000
  140.6858  134.4718  157.5589 LP  0  0  0  0  0  0  0  0  0  0  0  0  # atno 17395 bound_to 11000

$$$$
