AV-unprocessed.smi:658|AV-procd|sdf|3232|dock5
  -GOLD-   22720 0173D 1   1.00000     0.00000
 Structure written by MMmdl.
 38 38  0  0  0  0  0  0  0  0  2 V2000
  147.2373  139.4719  155.0916 C   0  0  0  0  0  0  0  0  0  0  0  0
  147.3596  138.3992  153.9886 C   0  0  2  0  0  0  0  0  0  0  0  0
  148.7686  138.2776  153.5472 N   0  3  0  0  0  0  0  0  0  0  0  0
  149.7789  138.3342  154.6246 C   0  0  0  0  0  0  0  0  0  0  0  0
  151.0065  139.1384  154.1798 C   0  0  0  0  0  0  0  0  0  0  0  0
  152.3141  138.3502  154.3379 C   0  0  0  0  0  0  0  0  0  0  0  0
  152.8508  138.2725  156.1010 S   0  0  0  0  0  0  0  0  0  0  0  0
  154.4528  137.6629  155.9644 N   0  0  0  0  0  0  0  0  0  0  0  0
  152.9446  139.6379  156.6395 O   0  0  0  0  0  0  0  0  0  0  0  0
  152.0537  137.2444  156.7861 O   0  0  0  0  0  0  0  0  0  0  0  0
  146.4502  138.6887  152.7639 C   0  0  1  0  0  0  0  0  0  0  0  0
  147.1411  139.5775  151.7112 C   0  0  0  0  0  0  0  0  0  0  0  0
  145.9598  137.4672  152.1369 N   0  0  0  0  0  0  0  0  0  0  0  0
  145.0377  136.5654  152.6279 C   0  0  0  0  0  0  0  0  0  0  0  0
  144.8908  135.5812  151.6930 C   0  0  0  0  0  0  0  0  0  0  0  0
  145.7718  135.9734  150.6471 C   0  0  0  0  0  0  0  0  0  0  0  0
  146.4086  137.1021  150.9142 N   0  0  0  0  0  0  0  0  0  0  0  0
  146.2213  139.5410  155.4798 H   0  0  0  0  0  0  0  0  0  0  0  0
  147.5151  140.4572  154.7161 H   0  0  0  0  0  0  0  0  0  0  0  0
  147.8769  139.2510  155.9453 H   0  0  0  0  0  0  0  0  0  0  0  0
  147.0542  137.4405  154.4114 H   0  0  0  0  0  0  0  0  0  0  0  0
  148.8672  137.3788  153.0970 H   0  0  0  0  0  0  0  0  0  0  0  0
  149.3481  138.7883  155.5170 H   0  0  0  0  0  0  0  0  0  0  0  0
  150.0783  137.3195  154.8903 H   0  0  0  0  0  0  0  0  0  0  0  0
  150.8888  139.4356  153.1368 H   0  0  0  0  0  0  0  0  0  0  0  0
  151.0650  140.0597  154.7607 H   0  0  0  0  0  0  0  0  0  0  0  0
  152.1722  137.3255  153.9927 H   0  0  0  0  0  0  0  0  0  0  0  0
  153.1242  138.7833  153.7507 H   0  0  0  0  0  0  0  0  0  0  0  0
  154.6741  136.9563  156.6659 H   0  0  0  0  0  0  0  0  0  0  0  0
  155.1536  138.3954  155.8532 H   0  0  0  0  0  0  0  0  0  0  0  0
  145.5707  139.2269  153.1214 H   0  0  0  0  0  0  0  0  0  0  0  0
  147.4020  140.5549  152.1174 H   0  0  0  0  0  0  0  0  0  0  0  0
  146.4871  139.7492  150.8557 H   0  0  0  0  0  0  0  0  0  0  0  0
  148.0579  139.1187  151.3389 H   0  0  0  0  0  0  0  0  0  0  0  0
  144.5682  136.6955  153.5919 H   0  0  0  0  0  0  0  0  0  0  0  0
  144.2501  134.7135  151.7467 H   0  0  0  0  0  0  0  0  0  0  0  0
  145.9656  135.4754  149.7084 H   0  0  0  0  0  0  0  0  0  0  0  0
  148.9623  138.9983  152.8667 H   0  0  0  0  0  0  0  0  0  0  0  0
  1  2  1  0  0  0  0
  1 18  1  0  0  0  0
  1 19  1  0  0  0  0
  1 20  1  0  0  0  0
  2  3  1  0  0  0  0
  2 11  1  0  0  0  0
  2 21  1  0  0  0  0
  3  4  1  0  0  0  0
  3 22  1  0  0  0  0
  3 38  1  0  0  0  0
  4  5  1  0  0  0  0
  4 23  1  0  0  0  0
  4 24  1  0  0  0  0
  5  6  1  0  0  0  0
  5 25  1  0  0  0  0
  5 26  1  0  0  0  0
  6  7  1  0  0  0  0
  6 27  1  0  0  0  0
  6 28  1  0  0  0  0
  7  8  1  0  0  0  0
  7  9  2  0  0  0  0
  7 10  2  0  0  0  0
  8 29  1  0  0  0  0
  8 30  1  0  0  0  0
 11 12  1  0  0  0  0
 11 13  1  0  0  0  0
 11 31  1  0  0  0  0
 12 32  1  0  0  0  0
 12 33  1  0  0  0  0
 12 34  1  0  0  0  0
 13 17  1  0  0  0  0
 13 14  1  0  0  0  0
 14 15  2  0  0  0  0
 14 35  1  0  0  0  0
 15 16  1  0  0  0  0
 15 36  1  0  0  0  0
 16 17  2  0  0  0  0
 16 37  1  0  0  0  0
M  CHG  1   3   1
M  END
> <s_m_source_file>
AV-unprocessed.smi

> <i_m_source_file_index>
658

> <i_lp_mmshare_version>
43012

> <i_f3d_flags>
0

> <s_epik_input>
bjFbY0hdW2NIXVtjSF1uMVtDQEBIXShbQ0gzXSlbQ0BIXShbQ0gzXSlbTkhdW0NIMl1bQ0gyXVtDSDJdUyg9TykoPU8pW05IMl0=

> <s_epik_cmdline>
J2VwaWtfcHl0aG9uJywgJy1waCcsICc3LjAnLCAnLXRuJywgJzgnLCAnLW1hJywgJzIwMCcsICctbWV0YWxfYmluZGluZycsICctaW1hZScsICc8aW5maWxlLm1hZT4nLCAnLW9tYWUnLCAnPG91dGZpbGUubWFlPic=

> <r_lp_tautomer_probability>
1

> <r_epik_Ionization_Penalty>
0.00535781

> <r_epik_Ionization_Penalty_Charging>
0.00511015

> <r_epik_Ionization_Penalty_Neutral>
0.000247661

> <r_epik_State_Penalty>
-0

> <r_epik_Charging_Adjusted_Penalty>
0.00511015

> <i_epik_Tot_Q>
1

> <i_epik_Tot_abs_Q>
1

> <r_epik_Metal_State_Penalty>
0.149106

> <b_epik_Metal_Only>
0

> <s_lp_Force_Field>
OPLS_2005

> <r_lp_Energy>
7.04511

> <b_lp_Chiralities_Consistent>
1

> <s_lp_Variant>
AV-unprocessed.smi:658-3

> <Gold.Version>
5.8.1

> <Gold.Id.Protein>
6NUR|6NUR_protein|mol2

> <Gold.PLP.Fitness>
37.2467

> <Gold.PLP.PLP>
-23.8435

> <Gold.PLP.part.hbond>
-5.6986

> <Gold.PLP.part.metal>
0.0000

> <Gold.PLP.part.buried>
3.5446

> <Gold.PLP.part.nonpolar>
-23.4992

> <Gold.PLP.part.repulsive>
2.4721

> <Gold.PLP.ligand.clash>
0.0000

> <Gold.PLP.ligand.torsion>
2.0542

> <Gold.PLP.Chemscore.Hbond>
4.7225

> <Gold.PLP.Chemscore.CHOScore>
1.0000

> <Gold.PLP.Chemscore.Metal>
0.0000

> <Gold.Chemscore.Hbonds>
donor molecule, donor type, donor heavy atom, donor atom, acceptor molecule, acceptor atom, score
      L1  H     3    22       P1  7948  2.00
      L1  H     3    38       P1  7957  0.84
      P1  H  7954  7966       L1    17  0.67
      P1  H  7997  8010       L1     9  0.99
      L1  C    16    37       P1  7921  1.00

> <Gold.PLP.Chemscore.Internal.Correction>
0.3441

> <Gold.Rescore>
     Score         DG    S(hbond)    S(metal)    S(lipo)     H(rot)  DE(clash)    DE(int)     intcor
     12.65     -18.36       3.82        0.00      69.53       3.13       3.61       2.09       ----

> <Gold.Chemscore.Fitness>
12.6547

> <Gold.Chemscore.DG>
-18.3552

> <Gold.Chemscore.ZeroCoef>
-5.4800

> <Gold.Chemscore.Hbond>
3.8191

> <Gold.Chemscore.Metal>
0.0000

> <Gold.Chemscore.Lipo>
69.5327

> <Gold.Chemscore.Internal_Hbond>
0.0000

> <Gold.Chemscore.DEClash>
3.6130

> <Gold.Chemscore.DEInternal>
2.0874

> <Gold.Chemscore.Rot>
3.1312

> <Gold.Chemscore.Internal.Correction>
   9.000000E+99

> <Gold.Chemscore.Hbonds>
donor molecule, donor type, donor heavy atom, donor atom, acceptor molecule, acceptor atom, score
      L1  H     3    22       P1  7948  0.99
      L1  H     3    38       P1  7957  0.82
      P1  H  7954  7966       L1    17  0.65
      P1  H  7997  8010       L1     9  0.68

> <Gold.Chemscore.Hbond.Weighted>
-12.7558

> <Gold.Chemscore.Metal.Weighted>
-0.0000

> <Gold.Chemscore.Lipo.Weighted>
-8.1353

> <Gold.Chemscore.Internal_Hbond.Weighted>
0.0000

> <Gold.Chemscore.DEClash.Weighted>
3.6130

> <Gold.Chemscore.DEInternal.Weighted>
2.0874

> <Gold.Chemscore.Rot.Weighted>
8.0160

> <Gold.Chemscore.Internal.Correction.Weighted>
   9.000000E+99

> <Gold.Protein.RotatedTorsions>
[ 6907 6896 6895 6894 ] final   63.99 input  -60.11 | X-H torsion
[ 7974 7965 7964 7962 ] final  106.50 input  175.53 | X-H torsion
[ 8008 7997 7996 7995 ] final   53.90 input   59.86 | X-H torsion
[ 10167 10162 10161 10158 ] final -117.31 input  -65.29 | X-H torsion
[ 10718 10713 10712 10709 ] final -158.81 input   66.30 | X-H torsion
[ 10763 10752 10751 10750 ] final  -68.35 input  -60.55 | X-H torsion
[ 11005 11000 10999 10996 ] final  146.18 input  -57.11 | X-H torsion

> <Gold.Protein.ActiveResidues>
 VAL166  LYS551  ARG553  GLY616  TRP617  ASP618  TYR619  PRO620  LYS621  CYS622 
 ASP623  PHE694  ASN695  SER759  ASP760  ASP761  ALA762  ILE779  LEU786  VAL792 
 PHE793  MET794  SER795  GLU796  ALA797  LYS798  CYS799  TRP800  GLU811  SER814 

> <Gold.Protein.RotatedAtoms>
  152.4296  134.5802  159.9945 H   0  0  0  0  0  0  0  0  0  0  0  0  # atno 6907 bound_to 6896
  151.5929  133.3359  159.3039 H   0  0  0  0  0  0  0  0  0  0  0  0  # atno 6908 bound_to 6896
  150.8188  134.7421  159.6819 H   0  0  0  0  0  0  0  0  0  0  0  0  # atno 6909 bound_to 6896
  145.3058  139.2555  143.3789 H   0  0  0  0  0  0  0  0  0  0  0  0  # atno 7974 bound_to 7965
  155.4758  140.3467  155.4332 H   0  0  0  0  0  0  0  0  0  0  0  0  # atno 8008 bound_to 7997
  156.1071  140.1451  156.9418 H   0  0  0  0  0  0  0  0  0  0  0  0  # atno 8009 bound_to 7997
  154.4731  140.0894  156.7174 H   0  0  0  0  0  0  0  0  0  0  0  0  # atno 8010 bound_to 7997
  140.0697  143.4889  152.1986 H   0  0  0  0  0  0  0  0  0  0  0  0  # atno 10167 bound_to 10162
  156.5593  130.8640  151.2804 H   0  0  0  0  0  0  0  0  0  0  0  0  # atno 10718 bound_to 10713
  154.3877  135.6059  153.5826 H   0  0  0  0  0  0  0  0  0  0  0  0  # atno 10763 bound_to 10752
  152.9787  135.5876  154.4334 H   0  0  0  0  0  0  0  0  0  0  0  0  # atno 10764 bound_to 10752
  154.4113  135.2844  155.2012 H   0  0  0  0  0  0  0  0  0  0  0  0  # atno 10765 bound_to 10752
  140.0772  134.9118  157.1442 H   0  0  0  0  0  0  0  0  0  0  0  0  # atno 11005 bound_to 11000
  146.3136  140.3583  142.8662 LP  0  0  0  0  0  0  0  0  0  0  0  0  # atno 17320 bound_to 7965
  144.9056  140.7696  143.5839 LP  0  0  0  0  0  0  0  0  0  0  0  0  # atno 17321 bound_to 7965
  139.5843  144.7524  151.3559 LP  0  0  0  0  0  0  0  0  0  0  0  0  # atno 17342 bound_to 10162
  140.7132  143.7337  150.7605 LP  0  0  0  0  0  0  0  0  0  0  0  0  # atno 17343 bound_to 10162
  157.7372  130.9791  150.2178 LP  0  0  0  0  0  0  0  0  0  0  0  0  # atno 17370 bound_to 10713
  156.2813  130.3734  149.7932 LP  0  0  0  0  0  0  0  0  0  0  0  0  # atno 17371 bound_to 10713
  140.3540  134.2567  155.7195 LP  0  0  0  0  0  0  0  0  0  0  0  0  # atno 17394 bound_to 11000
  141.2034  133.7914  157.0343 LP  0  0  0  0  0  0  0  0  0  0  0  0  # atno 17395 bound_to 11000

$$$$
