AV-unprocessed.smi:950|AV-procd|sdf|4250|dock2
  -GOLD-   22720 2153D 1   1.00000     0.00000
 Structure written by MMmdl.
 34 35  0  0  0  0  0  0  0  0  1 V2000
  152.7846  143.6808  162.2289 C   0  0  0  0  0  0  0  0  0  0  0  0
  153.1008  142.7297  161.0697 C   0  0  0  0  0  0  0  0  0  0  0  0
  152.3241  143.0536  159.8381 C   0  0  0  0  0  0  0  0  0  0  0  0
  151.5275  142.1782  159.2205 N   0  0  0  0  0  0  0  0  0  0  0  0
  150.9483  142.6991  158.0585 C   0  0  0  0  0  0  0  0  0  0  0  0
  150.0295  141.8493  157.2270 C   0  0  0  0  0  0  0  0  0  0  0  0
  150.6455  141.3919  155.8884 C   0  0  0  0  0  0  0  0  0  0  0  0
  150.7439  139.9404  155.7702 N   0  0  0  0  0  0  0  0  0  0  0  0
  151.7860  139.2784  155.2472 C   0  0  0  0  0  0  0  0  0  0  0  0
  152.8110  139.8368  154.8539 O   0  0  0  0  0  0  0  0  0  0  0  0
  151.6318  137.7552  155.1542 C   0  0  0  0  0  0  0  0  0  0  0  0
  150.2441  137.2602  154.7063 C   0  0  0  0  0  0  0  0  0  0  0  0
  150.3038  136.2141  155.8235 C   0  0  0  0  0  0  0  0  0  0  0  0
  151.3717  137.0724  156.5076 C   0  0  0  0  0  0  0  0  0  0  0  0
  151.3245  143.9945  157.8036 C   0  0  0  0  0  0  0  0  0  0  0  0
  152.4257  144.6022  159.0095 S   0  0  0  0  0  0  0  0  0  0  0  0
  153.3718  143.4266  163.1112 H   0  0  0  0  0  0  0  0  0  0  0  0
  151.7305  143.6289  162.5031 H   0  0  0  0  0  0  0  0  0  0  0  0
  153.0108  144.7139  161.9636 H   0  0  0  0  0  0  0  0  0  0  0  0
  154.1653  142.7685  160.8360 H   0  0  0  0  0  0  0  0  0  0  0  0
  152.8821  141.7021  161.3608 H   0  0  0  0  0  0  0  0  0  0  0  0
  149.7232  140.9729  157.7994 H   0  0  0  0  0  0  0  0  0  0  0  0
  149.1081  142.3949  157.0211 H   0  0  0  0  0  0  0  0  0  0  0  0
  150.0755  141.7968  155.0509 H   0  0  0  0  0  0  0  0  0  0  0  0
  151.6540  141.7962  155.7980 H   0  0  0  0  0  0  0  0  0  0  0  0
  149.9432  139.4030  156.0694 H   0  0  0  0  0  0  0  0  0  0  0  0
  152.4368  137.2699  154.5990 H   0  0  0  0  0  0  0  0  0  0  0  0
  149.4362  137.9798  154.8491 H   0  0  0  0  0  0  0  0  0  0  0  0
  150.2214  136.8341  153.7030 H   0  0  0  0  0  0  0  0  0  0  0  0
  149.3797  136.0999  156.3909 H   0  0  0  0  0  0  0  0  0  0  0  0
  150.6915  135.2535  155.4811 H   0  0  0  0  0  0  0  0  0  0  0  0
  152.2169  136.5031  156.8946 H   0  0  0  0  0  0  0  0  0  0  0  0
  150.9570  137.7358  157.2690 H   0  0  0  0  0  0  0  0  0  0  0  0
  151.0275  144.6242  156.9783 H   0  0  0  0  0  0  0  0  0  0  0  0
  1  2  1  0  0  0  0
  1 17  1  0  0  0  0
  1 18  1  0  0  0  0
  1 19  1  0  0  0  0
  2  3  1  0  0  0  0
  2 20  1  0  0  0  0
  2 21  1  0  0  0  0
  3 16  1  0  0  0  0
  3  4  2  0  0  0  0
  4  5  1  0  0  0  0
  5  6  1  0  0  0  0
  5 15  2  0  0  0  0
  6  7  1  0  0  0  0
  6 22  1  0  0  0  0
  6 23  1  0  0  0  0
  7  8  1  0  0  0  0
  7 24  1  0  0  0  0
  7 25  1  0  0  0  0
  8  9  1  0  0  0  0
  8 26  1  0  0  0  0
  9 10  2  0  0  0  0
  9 11  1  0  0  0  0
 11 14  1  0  0  0  0
 11 12  1  0  0  0  0
 11 27  1  0  0  0  0
 12 13  1  0  0  0  0
 12 28  1  0  0  0  0
 12 29  1  0  0  0  0
 13 14  1  0  0  0  0
 13 30  1  0  0  0  0
 13 31  1  0  0  0  0
 14 32  1  0  0  0  0
 14 33  1  0  0  0  0
 15 16  1  0  0  0  0
 15 34  1  0  0  0  0
M  END
> <s_m_source_file>
AV-unprocessed.smi

> <i_m_source_file_index>
950

> <i_lp_mmshare_version>
43012

> <i_f3d_flags>
0

> <s_epik_input>
W0NIM11bQ0gyXWMxbmMoW2NIXXMxKVtDSDJdW0NIMl1bTkhdQyg9TylbQ0hdMltDSDJdW0NIMl1bQ0gyXTI=

> <s_epik_cmdline>
J2VwaWtfcHl0aG9uJywgJy1waCcsICc3LjAnLCAnLXRuJywgJzgnLCAnLW1hJywgJzIwMCcsICctbWV0YWxfYmluZGluZycsICctaW1hZScsICc8aW5maWxlLm1hZT4nLCAnLW9tYWUnLCAnPG91dGZpbGUubWFlPic=

> <r_epik_Ionization_Penalty>
0.00109666

> <r_epik_Ionization_Penalty_Charging>
0

> <r_epik_Ionization_Penalty_Neutral>
0.00109666

> <r_epik_State_Penalty>
0.000719322

> <r_epik_Charging_Adjusted_Penalty>
0.000719322

> <i_epik_Tot_Q>
0

> <i_epik_Tot_abs_Q>
0

> <r_epik_Metal_State_Penalty>
-0

> <b_epik_Metal_Only>
0

> <s_lp_Force_Field>
OPLS_2005

> <r_lp_Energy>
2.32113

> <b_lp_Chiralities_Consistent>
1

> <s_lp_Variant>
AV-unprocessed.smi:950-1

> <Gold.Version>
5.8.1

> <Gold.Id.Protein>
6NUR|6NUR_protein|mol2

> <Gold.PLP.Fitness>
43.6024

> <Gold.PLP.PLP>
-38.4025

> <Gold.PLP.part.hbond>
-2.0000

> <Gold.PLP.part.metal>
0.0000

> <Gold.PLP.part.buried>
-2.9509

> <Gold.PLP.part.nonpolar>
-33.4917

> <Gold.PLP.part.repulsive>
0.1301

> <Gold.PLP.ligand.clash>
0.0000

> <Gold.PLP.ligand.torsion>
0.9069

> <Gold.PLP.Chemscore.Hbond>
1.1944

> <Gold.PLP.Chemscore.CHOScore>
1.0000

> <Gold.PLP.Chemscore.Metal>
0.0000

> <Gold.Chemscore.Hbonds>
donor molecule, donor type, donor heavy atom, donor atom, acceptor molecule, acceptor atom, score
      P1  H  7989  7998       L1    10  0.20
      P1  H  7997  8008       L1    10  1.00
      L1  C    15    34       P1  8028  1.00

> <Gold.PLP.Chemscore.Internal.Correction>
0.4305

> <Gold.Rescore>
     Score         DG    S(hbond)    S(metal)    S(lipo)     H(rot)  DE(clash)    DE(int)     intcor
     16.27     -17.13       1.00        0.00     104.06       1.51       0.08       0.77       ----

> <Gold.Chemscore.Fitness>
16.2750

> <Gold.Chemscore.DG>
-17.1304

> <Gold.Chemscore.ZeroCoef>
-5.4800

> <Gold.Chemscore.Hbond>
1.0000

> <Gold.Chemscore.Metal>
0.0000

> <Gold.Chemscore.Lipo>
104.0606

> <Gold.Chemscore.Internal_Hbond>
0.0000

> <Gold.Chemscore.DEClash>
0.0808

> <Gold.Chemscore.DEInternal>
0.7745

> <Gold.Chemscore.Rot>
1.5096

> <Gold.Chemscore.Internal.Correction>
   9.000000E+99

> <Gold.Chemscore.Hbonds>
donor molecule, donor type, donor heavy atom, donor atom, acceptor molecule, acceptor atom, score
      P1  H  7989  7998       L1    10  0.01
      P1  H  7997  8008       L1    10  0.98

> <Gold.Chemscore.Hbond.Weighted>
-3.3398

> <Gold.Chemscore.Metal.Weighted>
-0.0000

> <Gold.Chemscore.Lipo.Weighted>
-12.1751

> <Gold.Chemscore.Internal_Hbond.Weighted>
0.0000

> <Gold.Chemscore.DEClash.Weighted>
0.0808

> <Gold.Chemscore.DEInternal.Weighted>
0.7745

> <Gold.Chemscore.Rot.Weighted>
3.8646

> <Gold.Chemscore.Internal.Correction.Weighted>
   9.000000E+99

> <Gold.Protein.RotatedTorsions>
[ 6907 6896 6895 6894 ] final  107.75 input  -60.11 | X-H torsion
[ 7974 7965 7964 7962 ] final    5.68 input  175.53 | X-H torsion
[ 8008 7997 7996 7995 ] final  -17.60 input   59.86 | X-H torsion
[ 10167 10162 10161 10158 ] final  -85.61 input  -65.29 | X-H torsion
[ 10718 10713 10712 10709 ] final  -25.12 input   66.30 | X-H torsion
[ 10763 10752 10751 10750 ] final   88.56 input  -60.55 | X-H torsion
[ 11005 11000 10999 10996 ] final  159.75 input  -57.11 | X-H torsion

> <Gold.Protein.ActiveResidues>
 VAL166  LYS551  ARG553  GLY616  TRP617  ASP618  TYR619  PRO620  LYS621  CYS622 
 ASP623  PHE694  ASN695  SER759  ASP760  ASP761  ALA762  ILE779  LEU786  VAL792 
 PHE793  MET794  SER795  GLU796  ALA797  LYS798  CYS799  TRP800  GLU811  SER814 

> <Gold.Protein.RotatedAtoms>
  152.5141  133.9189  159.7524 H   0  0  0  0  0  0  0  0  0  0  0  0  # atno 6907 bound_to 6896
  150.9565  133.6483  159.2769 H   0  0  0  0  0  0  0  0  0  0  0  0  # atno 6908 bound_to 6896
  151.3743  135.0933  159.9528 H   0  0  0  0  0  0  0  0  0  0  0  0  # atno 6909 bound_to 6896
  146.2439  140.0347  142.8387 H   0  0  0  0  0  0  0  0  0  0  0  0  # atno 7974 bound_to 7965
  154.4966  140.2138  155.9433 H   0  0  0  0  0  0  0  0  0  0  0  0  # atno 8008 bound_to 7997
  156.1379  140.3185  155.8417 H   0  0  0  0  0  0  0  0  0  0  0  0  # atno 8009 bound_to 7997
  155.4176  140.0494  157.3018 H   0  0  0  0  0  0  0  0  0  0  0  0  # atno 8010 bound_to 7997
  140.4021  143.2658  151.9129 H   0  0  0  0  0  0  0  0  0  0  0  0  # atno 10167 bound_to 10162
  156.4686  130.4519  149.6883 H   0  0  0  0  0  0  0  0  0  0  0  0  # atno 10718 bound_to 10713
  153.1781  135.4502  154.9992 H   0  0  0  0  0  0  0  0  0  0  0  0  # atno 10763 bound_to 10752
  154.8012  135.3256  154.7548 H   0  0  0  0  0  0  0  0  0  0  0  0  # atno 10764 bound_to 10752
  153.8016  135.6962  153.4910 H   0  0  0  0  0  0  0  0  0  0  0  0  # atno 10765 bound_to 10752
  140.1992  134.8350  157.2999 H   0  0  0  0  0  0  0  0  0  0  0  0  # atno 11005 bound_to 11000
  145.1123  140.9413  143.4649 LP  0  0  0  0  0  0  0  0  0  0  0  0  # atno 17320 bound_to 7965
  145.0563  139.3141  143.5903 LP  0  0  0  0  0  0  0  0  0  0  0  0  # atno 17321 bound_to 7965
  139.4784  144.5623  151.8219 LP  0  0  0  0  0  0  0  0  0  0  0  0  # atno 17342 bound_to 10162
  140.4729  144.1561  150.5920 LP  0  0  0  0  0  0  0  0  0  0  0  0  # atno 17343 bound_to 10162
  156.3642  130.7497  151.2473 LP  0  0  0  0  0  0  0  0  0  0  0  0  # atno 17370 bound_to 10713
  157.7493  131.0341  150.4304 LP  0  0  0  0  0  0  0  0  0  0  0  0  # atno 17371 bound_to 10713
  140.2073  134.4181  155.7631 LP  0  0  0  0  0  0  0  0  0  0  0  0  # atno 17394 bound_to 11000
  141.2227  133.7101  156.8281 LP  0  0  0  0  0  0  0  0  0  0  0  0  # atno 17395 bound_to 11000

$$$$
