AV-unprocessed.smi:21|AV-procd|sdf|166|dock4
  -GOLD-   2262015413D 1   1.00000     0.00000
 Structure written by MMmdl.
 61 64  0  0  0  0  0  0  0  0  1 V2000
  153.9826  139.6087  160.8608 C   0  0  0  0  0  0  0  0  0  0  0  0
  153.9663  141.0276  160.8589 O   0  0  0  0  0  0  0  0  0  0  0  0
  152.6612  141.5784  160.7529 C   0  0  2  0  0  0  0  0  0  0  0  0
  151.9597  141.2094  159.4323 C   0  0  0  0  0  0  0  0  0  0  0  0
  151.7330  142.5544  158.7255 C   0  0  1  0  0  0  0  0  0  0  0  0
  150.4964  142.5666  157.7986 C   0  0  0  0  0  0  0  0  0  0  0  0
  150.4101  141.3881  156.9357 N   0  0  0  0  0  0  0  0  0  0  0  0
  151.6586  140.8295  156.4190 C   0  0  0  0  0  0  0  0  0  0  0  0
  149.2441  141.1030  156.2843 C   0  0  0  0  0  0  0  0  0  0  0  0
  148.0766  141.5563  156.8176 N   0  0  0  0  0  0  0  0  0  0  0  0
  146.9046  141.2862  156.2385 C   0  0  0  0  0  0  0  0  0  0  0  0
  146.6664  140.5884  155.1289 N   0  0  0  0  0  0  0  0  0  0  0  0
  147.8259  140.1383  154.5725 C   0  0  0  0  0  0  0  0  0  0  0  0
  149.1447  140.3482  155.0736 C   0  0  0  0  0  0  0  0  0  0  0  0
  150.0603  139.7393  154.2205 N   0  0  0  0  0  0  0  0  0  0  0  0
  149.3309  139.1951  153.2867 C   0  0  0  0  0  0  0  0  0  0  0  0
  147.9769  139.3917  153.4170 N   0  0  0  0  0  0  0  0  0  0  0  0
  146.9413  138.8957  152.5266 C   0  0  0  0  0  0  0  0  0  0  0  0
  146.2521  137.6077  153.0398 C   0  0  1  0  0  0  0  0  0  0  0  0
  145.5315  137.8798  154.3814 C   0  0  0  0  0  0  0  0  0  0  0  0
  144.2907  138.5168  154.1587 O   0  0  0  0  0  0  0  0  0  0  0  0
  145.3376  136.9493  151.9684 C   0  0  1  0  0  0  0  0  0  0  0  0
  146.0588  136.4281  150.7234 C   0  0  0  0  0  0  0  0  0  0  0  0
  145.5888  134.9797  150.5963 C   0  0  0  0  0  0  0  0  0  0  0  0
  144.3418  134.9677  151.2706 O   0  0  0  0  0  0  0  0  0  0  0  0
  144.5099  135.7461  152.4435 C   0  0  0  0  0  0  0  0  0  0  0  0
  151.6958  143.5356  159.7968 N   0  0  0  0  0  0  0  0  0  0  0  0
  151.8843  144.9070  159.3417 C   0  0  0  0  0  0  0  0  0  0  0  0
  152.7520  143.1064  160.6923 C   0  0  0  0  0  0  0  0  0  0  0  0
  152.0442  141.2873  161.6050 H   0  0  0  0  0  0  0  0  0  0  0  0
  152.6231  142.7528  158.1261 H   0  0  0  0  0  0  0  0  0  0  0  0
  155.0103  139.2569  160.9448 H   0  0  0  0  0  0  0  0  0  0  0  0
  153.5640  139.1978  159.9415 H   0  0  0  0  0  0  0  0  0  0  0  0
  153.4224  139.2099  161.7073 H   0  0  0  0  0  0  0  0  0  0  0  0
  152.5494  140.5361  158.8097 H   0  0  0  0  0  0  0  0  0  0  0  0
  151.0111  140.7163  159.6489 H   0  0  0  0  0  0  0  0  0  0  0  0
  149.5971  142.6249  158.4125 H   0  0  0  0  0  0  0  0  0  0  0  0
  150.4672  143.4644  157.1850 H   0  0  0  0  0  0  0  0  0  0  0  0
  151.5879  139.7452  156.3250 H   0  0  0  0  0  0  0  0  0  0  0  0
  152.4930  141.0457  157.0864 H   0  0  0  0  0  0  0  0  0  0  0  0
  151.8945  141.2483  155.4403 H   0  0  0  0  0  0  0  0  0  0  0  0
  146.0335  141.6834  156.7382 H   0  0  0  0  0  0  0  0  0  0  0  0
  149.7632  138.6362  152.4694 H   0  0  0  0  0  0  0  0  0  0  0  0
  146.2095  139.6942  152.4002 H   0  0  0  0  0  0  0  0  0  0  0  0
  147.3766  138.7230  151.5418 H   0  0  0  0  0  0  0  0  0  0  0  0
  147.0409  136.8816  153.2441 H   0  0  0  0  0  0  0  0  0  0  0  0
  145.3547  136.9539  154.9290 H   0  0  0  0  0  0  0  0  0  0  0  0
  146.1205  138.5253  155.0314 H   0  0  0  0  0  0  0  0  0  0  0  0
  144.4085  139.1820  153.4974 H   0  0  0  0  0  0  0  0  0  0  0  0
  144.6331  137.6975  151.6035 H   0  0  0  0  0  0  0  0  0  0  0  0
  145.7436  137.0011  149.8504 H   0  0  0  0  0  0  0  0  0  0  0  0
  147.1452  136.4974  150.7746 H   0  0  0  0  0  0  0  0  0  0  0  0
  145.4898  134.6578  149.5596 H   0  0  0  0  0  0  0  0  0  0  0  0
  146.2805  134.3032  151.1012 H   0  0  0  0  0  0  0  0  0  0  0  0
  145.0349  135.1462  153.1865 H   0  0  0  0  0  0  0  0  0  0  0  0
  143.5486  136.0382  152.8650 H   0  0  0  0  0  0  0  0  0  0  0  0
  151.9118  145.5915  160.1901 H   0  0  0  0  0  0  0  0  0  0  0  0
  151.0660  145.2203  158.6940 H   0  0  0  0  0  0  0  0  0  0  0  0
  152.8172  145.0162  158.7870 H   0  0  0  0  0  0  0  0  0  0  0  0
  152.6594  143.5678  161.6758 H   0  0  0  0  0  0  0  0  0  0  0  0
  153.7220  143.3952  160.2830 H   0  0  0  0  0  0  0  0  0  0  0  0
  1  2  1  0  0  0  0
  1 32  1  0  0  0  0
  1 33  1  0  0  0  0
  1 34  1  0  0  0  0
  2  3  1  0  0  0  0
  3 30  1  0  0  0  0
  3 29  1  0  0  0  0
  3  4  1  0  0  0  0
  4  5  1  0  0  0  0
  4 35  1  0  0  0  0
  4 36  1  0  0  0  0
  5 31  1  0  0  0  0
  5  6  1  0  0  0  0
  5 27  1  0  0  0  0
  6  7  1  0  0  0  0
  6 37  1  0  0  0  0
  6 38  1  0  0  0  0
  7  8  1  0  0  0  0
  7  9  1  0  0  0  0
  8 39  1  0  0  0  0
  8 40  1  0  0  0  0
  8 41  1  0  0  0  0
  9 14  1  0  0  0  0
  9 10  2  0  0  0  0
 10 11  1  0  0  0  0
 11 12  2  0  0  0  0
 11 42  1  0  0  0  0
 12 13  1  0  0  0  0
 13 17  1  0  0  0  0
 13 14  2  0  0  0  0
 14 15  1  0  0  0  0
 15 16  2  0  0  0  0
 16 17  1  0  0  0  0
 16 43  1  0  0  0  0
 17 18  1  0  0  0  0
 18 19  1  0  0  0  0
 18 44  1  0  0  0  0
 18 45  1  0  0  0  0
 19 20  1  0  0  0  0
 19 22  1  0  0  0  0
 19 46  1  0  0  0  0
 20 21  1  0  0  0  0
 20 47  1  0  0  0  0
 20 48  1  0  0  0  0
 21 49  1  0  0  0  0
 22 26  1  0  0  0  0
 22 23  1  0  0  0  0
 22 50  1  0  0  0  0
 23 24  1  0  0  0  0
 23 51  1  0  0  0  0
 23 52  1  0  0  0  0
 24 25  1  0  0  0  0
 24 53  1  0  0  0  0
 24 54  1  0  0  0  0
 25 26  1  0  0  0  0
 26 55  1  0  0  0  0
 26 56  1  0  0  0  0
 27 28  1  0  0  0  0
 27 29  1  0  0  0  0
 28 57  1  0  0  0  0
 28 58  1  0  0  0  0
 28 59  1  0  0  0  0
 29 60  1  0  0  0  0
 29 61  1  0  0  0  0
M  END
> <s_m_source_file>
AV-unprocessed.smi

> <i_m_source_file_index>
21

> <i_lp_mmshare_version>
43012

> <i_f3d_flags>
0

> <s_epik_input>
W0NIM11PW0NASF0xW0NIMl1bQ0BIXShOKFtDSDNdKVtDSDJdMSlbQ0gyXU4oW0NIM10pYyhuW2NIXW4yKWMoYzIzKW5bY0hdbjNbQ0gyXVtDQEhdKFtDSDJdW09IXSlbQ0BASF00W0NIMl1bQ0gyXU9bQ0gyXTQ=

> <s_epik_cmdline>
J2VwaWtfcHl0aG9uJywgJy1waCcsICc3LjAnLCAnLXRuJywgJzgnLCAnLW1hJywgJzIwMCcsICctbWV0YWxfYmluZGluZycsICctaW1hZScsICc8aW5maWxlLm1hZT4nLCAnLW9tYWUnLCAnPG91dGZpbGUubWFlPic=

> <r_lp_tautomer_probability>
1

> <r_epik_Ionization_Penalty>
2.17574

> <r_epik_Ionization_Penalty_Charging>
0

> <r_epik_Ionization_Penalty_Neutral>
2.17574

> <r_epik_State_Penalty>
2.31336

> <r_epik_Charging_Adjusted_Penalty>
2.31336

> <i_epik_Tot_Q>
0

> <i_epik_Tot_abs_Q>
0

> <r_epik_Metal_State_Penalty>
2.31025

> <b_epik_Metal_Only>
0

> <s_lp_Force_Field>
OPLS_2005

> <r_lp_Energy>
69.2807

> <b_lp_Chiralities_Consistent>
1

> <s_lp_Variant>
AV-unprocessed.smi:21-46

> <Gold.Version>
5.8.1

> <Gold.Id.Protein>
6NUR|6NUR_protein|mol2

> <Gold.PLP.Fitness>
51.1644

> <Gold.PLP.PLP>
-42.9367

> <Gold.PLP.part.hbond>
-2.0000

> <Gold.PLP.part.metal>
0.0000

> <Gold.PLP.part.buried>
-0.0005

> <Gold.PLP.part.nonpolar>
-41.5263

> <Gold.PLP.part.repulsive>
0.8756

> <Gold.PLP.ligand.clash>
0.0000

> <Gold.PLP.ligand.torsion>
1.0208

> <Gold.PLP.Chemscore.Hbond>
1.8858

> <Gold.PLP.Chemscore.CHOScore>
1.2831

> <Gold.PLP.Chemscore.Metal>
0.0000

> <Gold.Chemscore.Hbonds>
donor molecule, donor type, donor heavy atom, donor atom, acceptor molecule, acceptor atom, score
      L1  H    21    49       P1 10175  0.94
      P1  H  7989  7998       L1    15  0.93
      L1  C    16    43       P1  7948  0.82
      L1  C    16    43       P1  7957  0.24

> <Gold.PLP.Chemscore.Internal.Correction>
0.7626

> <Gold.Rescore>
     Score         DG    S(hbond)    S(metal)    S(lipo)     H(rot)  DE(clash)    DE(int)     intcor
     11.08     -15.59       1.42        0.00     111.58       3.00       2.24       2.27       ----

> <Gold.Chemscore.Fitness>
11.0824

> <Gold.Chemscore.DG>
-15.5879

> <Gold.Chemscore.ZeroCoef>
-5.4800

> <Gold.Chemscore.Hbond>
1.4195

> <Gold.Chemscore.Metal>
0.0000

> <Gold.Chemscore.Lipo>
111.5782

> <Gold.Chemscore.Internal_Hbond>
0.0000

> <Gold.Chemscore.DEClash>
2.2395

> <Gold.Chemscore.DEInternal>
2.2661

> <Gold.Chemscore.Rot>
3.0031

> <Gold.Chemscore.Internal.Correction>
   9.000000E+99

> <Gold.Chemscore.Hbonds>
donor molecule, donor type, donor heavy atom, donor atom, acceptor molecule, acceptor atom, score
      L1  H    21    49       P1 10175  0.91
      P1  H  7989  7998       L1    15  0.71

> <Gold.Chemscore.Hbond.Weighted>
-4.7413

> <Gold.Chemscore.Metal.Weighted>
-0.0000

> <Gold.Chemscore.Lipo.Weighted>
-13.0547

> <Gold.Chemscore.Internal_Hbond.Weighted>
0.0000

> <Gold.Chemscore.DEClash.Weighted>
2.2395

> <Gold.Chemscore.DEInternal.Weighted>
2.2661

> <Gold.Chemscore.Rot.Weighted>
7.6880

> <Gold.Chemscore.Internal.Correction.Weighted>
   9.000000E+99

> <Gold.Protein.RotatedTorsions>
[ 6907 6896 6895 6894 ] final -120.02 input  -60.11 | X-H torsion
[ 7974 7965 7964 7962 ] final  175.92 input  175.53 | X-H torsion
[ 8008 7997 7996 7995 ] final -165.63 input   59.86 | X-H torsion
[ 10167 10162 10161 10158 ] final   -4.38 input  -65.29 | X-H torsion
[ 10718 10713 10712 10709 ] final  -53.95 input   66.30 | X-H torsion
[ 10763 10752 10751 10750 ] final   70.44 input  -60.55 | X-H torsion
[ 11005 11000 10999 10996 ] final  -60.38 input  -57.11 | X-H torsion

> <Gold.Protein.ActiveResidues>
 VAL166  LYS551  ARG553  GLY616  TRP617  ASP618  TYR619  PRO620  LYS621  CYS622 
 ASP623  PHE694  ASN695  SER759  ASP760  ASP761  ALA762  ILE779  LEU786  VAL792 
 PHE793  MET794  SER795  GLU796  ALA797  LYS798  CYS799  TRP800  GLU811  SER814 

> <Gold.Protein.RotatedAtoms>
  150.8356  133.8019  159.3080 H   0  0  0  0  0  0  0  0  0  0  0  0  # atno 6907 bound_to 6896
  151.5735  135.1060  160.0010 H   0  0  0  0  0  0  0  0  0  0  0  0  # atno 6908 bound_to 6896
  152.4429  133.7440  159.6713 H   0  0  0  0  0  0  0  0  0  0  0  0  # atno 6909 bound_to 6896
  144.7193  140.0020  143.6440 H   0  0  0  0  0  0  0  0  0  0  0  0  # atno 7974 bound_to 7965
  155.8524  140.0965  157.1666 H   0  0  0  0  0  0  0  0  0  0  0  0  # atno 8008 bound_to 7997
  154.3986  140.1380  156.3923 H   0  0  0  0  0  0  0  0  0  0  0  0  # atno 8009 bound_to 7997
  155.7946  140.3454  155.5371 H   0  0  0  0  0  0  0  0  0  0  0  0  # atno 8010 bound_to 7997
  140.6925  143.6430  150.8418 H   0  0  0  0  0  0  0  0  0  0  0  0  # atno 10167 bound_to 10162
  156.1491  130.4152  149.9974 H   0  0  0  0  0  0  0  0  0  0  0  0  # atno 10718 bound_to 10713
  153.0342  135.5173  154.7442 H   0  0  0  0  0  0  0  0  0  0  0  0  # atno 10763 bound_to 10752
  154.6432  135.2915  155.0080 H   0  0  0  0  0  0  0  0  0  0  0  0  # atno 10764 bound_to 10752
  154.0991  135.6639  153.4917 H   0  0  0  0  0  0  0  0  0  0  0  0  # atno 10765 bound_to 10752
  141.1285  133.6622  156.5215 H   0  0  0  0  0  0  0  0  0  0  0  0  # atno 11005 bound_to 11000
  146.0328  139.3350  143.0745 LP  0  0  0  0  0  0  0  0  0  0  0  0  # atno 17320 bound_to 7965
  145.8432  140.9569  143.0788 LP  0  0  0  0  0  0  0  0  0  0  0  0  # atno 17321 bound_to 7965
  140.0145  143.5608  152.2826 LP  0  0  0  0  0  0  0  0  0  0  0  0  # atno 17342 bound_to 10162
  139.6343  144.7648  151.2470 LP  0  0  0  0  0  0  0  0  0  0  0  0  # atno 17343 bound_to 10162
  156.7837  130.9230  151.3646 LP  0  0  0  0  0  0  0  0  0  0  0  0  # atno 17370 bound_to 10713
  157.6642  130.8993  149.9896 LP  0  0  0  0  0  0  0  0  0  0  0  0  # atno 17371 bound_to 10713
  140.4289  134.7120  157.4931 LP  0  0  0  0  0  0  0  0  0  0  0  0  # atno 17394 bound_to 11000
  140.0308  134.6409  155.9109 LP  0  0  0  0  0  0  0  0  0  0  0  0  # atno 17395 bound_to 11000

$$$$
