AV-unprocessed.smi:287|AV-procd|sdf|2202|dock4
  -GOLD-   2262022 23D 1   1.00000     0.00000
 Structure written by MMmdl.
 55 58  0  0  0  0  0  0  0  0  1 V2000
  142.1326  134.5132  163.3658 C   0  0  0  0  0  0  0  0  0  0  0  0
  143.4715  134.7988  162.7765 C   0  0  0  0  0  0  0  0  0  0  0  0
  144.4533  134.0172  162.2410 C   0  0  0  0  0  0  0  0  0  0  0  0
  145.5143  134.8819  161.8370 C   0  0  0  0  0  0  0  0  0  0  0  0
  146.8242  134.4498  161.1920 C   0  0  2  0  0  0  0  0  0  0  0  0
  147.6151  133.5624  162.1673 C   0  0  0  0  0  0  0  0  0  0  0  0
  147.6783  135.5382  160.8970 O   0  0  0  0  0  0  0  0  0  0  0  0
  146.6069  133.7058  159.8549 C   0  0  0  0  0  0  0  0  0  0  0  0
  147.7761  132.9473  159.4295 N   0  0  0  0  0  0  0  0  0  0  0  0
  148.1786  132.9536  158.1414 C   0  0  0  0  0  0  0  0  0  0  0  0
  149.5188  132.9160  157.9511 N   0  0  0  0  0  0  0  0  0  0  0  0
  150.0219  132.9210  156.7141 C   0  0  0  0  0  0  0  0  0  0  0  0
  149.3716  132.9610  155.5507 N   0  0  0  0  0  0  0  0  0  0  0  0
  148.0195  132.9990  155.7304 C   0  0  0  0  0  0  0  0  0  0  0  0
  147.3432  132.9966  156.9849 C   0  0  0  0  0  0  0  0  0  0  0  0
  145.9702  133.0389  156.7635 N   0  0  0  0  0  0  0  0  0  0  0  0
  145.8499  133.0661  155.4647 C   0  0  0  0  0  0  0  0  0  0  0  0
  147.0340  133.0514  154.7646 N   0  0  0  0  0  0  0  0  0  0  0  0
  147.2135  133.0849  153.2785 C   0  0  2  0  0  0  0  0  0  0  0  0
  146.6442  134.2593  152.7934 O   0  0  0  0  0  0  0  0  0  0  0  0
  146.0653  134.0048  151.5195 C   0  0  2  0  0  0  0  0  0  0  0  0
  145.0501  135.0996  151.1468 C   0  0  0  0  0  0  0  0  0  0  0  0
  144.4572  134.8055  149.8999 O   0  0  0  0  0  0  0  0  0  0  0  0
  145.4910  132.5885  151.6730 C   0  0  2  0  0  0  0  0  0  0  0  0
  144.2024  132.6212  152.2632 O   0  0  0  0  0  0  0  0  0  0  0  0
  146.5313  131.9022  152.5575 C   0  0  2  0  0  0  0  0  0  0  0  0
  145.9928  130.8946  153.3990 O   0  0  0  0  0  0  0  0  0  0  0  0
  145.0874  136.1433  162.1778 C   0  0  0  0  0  0  0  0  0  0  0  0
  145.6848  137.5072  162.0632 C   0  0  0  0  0  0  0  0  0  0  0  0
  143.8487  136.1016  162.7436 O   0  0  0  0  0  0  0  0  0  0  0  0
  148.2942  133.1004  153.1311 H   0  0  0  0  0  0  0  0  0  0  0  0
  146.8662  133.9668  150.7781 H   0  0  0  0  0  0  0  0  0  0  0  0
  145.3989  132.0912  150.7069 H   0  0  0  0  0  0  0  0  0  0  0  0
  147.2888  131.4423  151.9217 H   0  0  0  0  0  0  0  0  0  0  0  0
  141.8047  133.5038  163.1163 H   0  0  0  0  0  0  0  0  0  0  0  0
  141.3855  135.2128  162.9905 H   0  0  0  0  0  0  0  0  0  0  0  0
  142.1630  134.5998  164.4520 H   0  0  0  0  0  0  0  0  0  0  0  0
  144.4147  132.9420  162.1459 H   0  0  0  0  0  0  0  0  0  0  0  0
  147.0523  132.6660  162.4303 H   0  0  0  0  0  0  0  0  0  0  0  0
  147.8383  134.0928  163.0941 H   0  0  0  0  0  0  0  0  0  0  0  0
  148.5627  133.2380  161.7355 H   0  0  0  0  0  0  0  0  0  0  0  0
  147.2068  136.1497  160.3521 H   0  0  0  0  0  0  0  0  0  0  0  0
  145.7332  133.0552  159.9126 H   0  0  0  0  0  0  0  0  0  0  0  0
  146.4032  134.4445  159.0786 H   0  0  0  0  0  0  0  0  0  0  0  0
  148.2533  132.4347  160.1574 H   0  0  0  0  0  0  0  0  0  0  0  0
  151.0994  132.8893  156.6465 H   0  0  0  0  0  0  0  0  0  0  0  0
  144.8859  133.1039  154.9787 H   0  0  0  0  0  0  0  0  0  0  0  0
  144.2502  135.1387  151.8866 H   0  0  0  0  0  0  0  0  0  0  0  0
  145.5189  136.0841  151.1195 H   0  0  0  0  0  0  0  0  0  0  0  0
  145.1439  134.6917  149.2607 H   0  0  0  0  0  0  0  0  0  0  0  0
  144.2483  132.1832  153.1006 H   0  0  0  0  0  0  0  0  0  0  0  0
  146.7069  130.4360  153.8142 H   0  0  0  0  0  0  0  0  0  0  0  0
  146.6854  137.5285  162.4954 H   0  0  0  0  0  0  0  0  0  0  0  0
  145.0801  138.2490  162.5854 H   0  0  0  0  0  0  0  0  0  0  0  0
  145.7593  137.8089  161.0183 H   0  0  0  0  0  0  0  0  0  0  0  0
  1  2  1  0  0  0  0
  1 35  1  0  0  0  0
  1 36  1  0  0  0  0
  1 37  1  0  0  0  0
  2 30  1  0  0  0  0
  2  3  2  0  0  0  0
  3  4  1  0  0  0  0
  3 38  1  0  0  0  0
  4  5  1  0  0  0  0
  4 28  2  0  0  0  0
  5  6  1  0  0  0  0
  5  7  1  0  0  0  0
  5  8  1  0  0  0  0
  6 39  1  0  0  0  0
  6 40  1  0  0  0  0
  6 41  1  0  0  0  0
  7 42  1  0  0  0  0
  8  9  1  0  0  0  0
  8 43  1  0  0  0  0
  8 44  1  0  0  0  0
  9 10  1  0  0  0  0
  9 45  1  0  0  0  0
 10 15  1  0  0  0  0
 10 11  2  0  0  0  0
 11 12  1  0  0  0  0
 12 13  2  0  0  0  0
 12 46  1  0  0  0  0
 13 14  1  0  0  0  0
 14 18  1  0  0  0  0
 14 15  2  0  0  0  0
 15 16  1  0  0  0  0
 16 17  2  0  0  0  0
 17 18  1  0  0  0  0
 17 47  1  0  0  0  0
 18 19  1  0  0  0  0
 19 31  1  0  0  0  0
 19 26  1  0  0  0  0
 19 20  1  0  0  0  0
 20 21  1  0  0  0  0
 21 32  1  0  0  0  0
 21 22  1  0  0  0  0
 21 24  1  0  0  0  0
 22 23  1  0  0  0  0
 22 48  1  0  0  0  0
 22 49  1  0  0  0  0
 23 50  1  0  0  0  0
 24 33  1  0  0  0  0
 24 25  1  0  0  0  0
 24 26  1  0  0  0  0
 25 51  1  0  0  0  0
 26 34  1  0  0  0  0
 26 27  1  0  0  0  0
 27 52  1  0  0  0  0
 28 29  1  0  0  0  0
 28 30  1  0  0  0  0
 29 53  1  0  0  0  0
 29 54  1  0  0  0  0
 29 55  1  0  0  0  0
M  END
> <s_m_source_file>
AV-unprocessed.smi

> <i_m_source_file_index>
287

> <i_lp_mmshare_version>
43012

> <i_f3d_flags>
0

> <s_epik_input>
W0NIM11jMVtjSF1jKGMobzEpW0NIM10pW0NAQF0oW0NIM10pKFtPSF0pW0NIMl1bTkhdYyhuW2NIXW4yKWMoYzIzKW5bY0hdbjNbQ0BASF00T1tDQEhdKFtDSDJdW09IXSlbQ0BASF0oW09IXSlbQ0BIXTRbT0hd

> <s_epik_cmdline>
J2VwaWtfcHl0aG9uJywgJy1waCcsICc3LjAnLCAnLXRuJywgJzgnLCAnLW1hJywgJzIwMCcsICctbWV0YWxfYmluZGluZycsICctaW1hZScsICc8aW5maWxlLm1hZT4nLCAnLW9tYWUnLCAnPG91dGZpbGUubWFlPic=

> <r_lp_tautomer_probability>
1

> <r_epik_Ionization_Penalty>
0.000992612

> <r_epik_Ionization_Penalty_Charging>
0

> <r_epik_Ionization_Penalty_Neutral>
0.000992612

> <r_epik_State_Penalty>
-0

> <r_epik_Charging_Adjusted_Penalty>
0

> <i_epik_Tot_Q>
0

> <i_epik_Tot_abs_Q>
0

> <r_epik_Metal_State_Penalty>
-0

> <b_epik_Metal_Only>
0

> <s_epik_Chemistry_Notes>
This compound contains an acetal/aminal-like group ( X-CH(R)-Y where X, Y are N, S, or O) that may be acid/base labile, releasing an aldehyde.

> <s_lp_Force_Field>
OPLS_2005

> <r_lp_Energy>
48.118

> <b_lp_Chiralities_Consistent>
1

> <s_lp_Variant>
AV-unprocessed.smi:287-26

> <Gold.Version>
5.8.1

> <Gold.Id.Protein>
6NUR|6NUR_protein|mol2

> <Gold.PLP.Fitness>
44.5802

> <Gold.PLP.PLP>
-37.0392

> <Gold.PLP.part.hbond>
-2.8907

> <Gold.PLP.part.metal>
0.0000

> <Gold.PLP.part.buried>
-8.3149

> <Gold.PLP.part.nonpolar>
-27.1946

> <Gold.PLP.part.repulsive>
0.4116

> <Gold.PLP.ligand.clash>
0.0000

> <Gold.PLP.ligand.torsion>
0.5961

> <Gold.PLP.Chemscore.Hbond>
2.0901

> <Gold.PLP.Chemscore.CHOScore>
0.7897

> <Gold.PLP.Chemscore.Metal>
0.0000

> <Gold.Chemscore.Hbonds>
donor molecule, donor type, donor heavy atom, donor atom, acceptor molecule, acceptor atom, score
      L1  H    23    50       P1  7921  1.00
      L1  H    25    51       P1 10957  0.08
      P1  H  6896  6908       L1    11  1.00
      L1  C    17    47       P1 10957  0.86

> <Gold.PLP.Chemscore.Internal.Correction>
0.0939

> <Gold.Rescore>
     Score         DG    S(hbond)    S(metal)    S(lipo)     H(rot)  DE(clash)    DE(int)     intcor
      6.18      -7.76       1.90        0.00      80.52       5.27       0.01       1.57       ----

> <Gold.Chemscore.Fitness>
6.1757

> <Gold.Chemscore.DG>
-7.7636

> <Gold.Chemscore.ZeroCoef>
-5.4800

> <Gold.Chemscore.Hbond>
1.9003

> <Gold.Chemscore.Metal>
0.0000

> <Gold.Chemscore.Lipo>
80.5170

> <Gold.Chemscore.Internal_Hbond>
0.0000

> <Gold.Chemscore.DEClash>
0.0130

> <Gold.Chemscore.DEInternal>
1.5749

> <Gold.Chemscore.Rot>
5.2672

> <Gold.Chemscore.Internal.Correction>
   9.000000E+99

> <Gold.Chemscore.Hbonds>
donor molecule, donor type, donor heavy atom, donor atom, acceptor molecule, acceptor atom, score
      L1  H    23    50       P1  7921  0.99
      P1  H  6896  6908       L1    11  0.71

> <Gold.Chemscore.Hbond.Weighted>
-6.3471

> <Gold.Chemscore.Metal.Weighted>
-0.0000

> <Gold.Chemscore.Lipo.Weighted>
-9.4205

> <Gold.Chemscore.Internal_Hbond.Weighted>
0.0000

> <Gold.Chemscore.DEClash.Weighted>
0.0130

> <Gold.Chemscore.DEInternal.Weighted>
1.5749

> <Gold.Chemscore.Rot.Weighted>
13.4839

> <Gold.Chemscore.Internal.Correction.Weighted>
   9.000000E+99

> <Gold.Protein.RotatedTorsions>
[ 6907 6896 6895 6894 ] final  111.29 input  -60.11 | X-H torsion
[ 7974 7965 7964 7962 ] final  125.29 input  175.53 | X-H torsion
[ 8008 7997 7996 7995 ] final   99.66 input   59.86 | X-H torsion
[ 10167 10162 10161 10158 ] final  146.11 input  -65.29 | X-H torsion
[ 10718 10713 10712 10709 ] final   86.94 input   66.30 | X-H torsion
[ 10763 10752 10751 10750 ] final  -61.36 input  -60.55 | X-H torsion
[ 11005 11000 10999 10996 ] final  -89.98 input  -57.11 | X-H torsion

> <Gold.Protein.ActiveResidues>
 VAL166  LYS551  ARG553  GLY616  TRP617  ASP618  TYR619  PRO620  LYS621  CYS622 
 ASP623  PHE694  ASN695  SER759  ASP760  ASP761  ALA762  ILE779  LEU786  VAL792 
 PHE793  MET794  SER795  GLU796  ALA797  LYS798  CYS799  TRP800  GLU811  SER814 

> <Gold.Protein.RotatedAtoms>
  152.4977  133.8678  159.7282 H   0  0  0  0  0  0  0  0  0  0  0  0  # atno 6907 bound_to 6896
  150.9173  133.6915  159.2847 H   0  0  0  0  0  0  0  0  0  0  0  0  # atno 6908 bound_to 6896
  151.4304  135.1013  159.9693 H   0  0  0  0  0  0  0  0  0  0  0  0  # atno 6909 bound_to 6896
  145.0746  139.3703  143.4940 H   0  0  0  0  0  0  0  0  0  0  0  0  # atno 7974 bound_to 7965
  156.1126  140.3225  155.8095 H   0  0  0  0  0  0  0  0  0  0  0  0  # atno 8008 bound_to 7997
  155.4645  140.0542  157.3004 H   0  0  0  0  0  0  0  0  0  0  0  0  # atno 8009 bound_to 7997
  154.4771  140.2037  155.9867 H   0  0  0  0  0  0  0  0  0  0  0  0  # atno 8010 bound_to 7997
  139.4913  144.5853  151.6791 H   0  0  0  0  0  0  0  0  0  0  0  0  # atno 10167 bound_to 10162
  157.6935  131.0236  150.3049 H   0  0  0  0  0  0  0  0  0  0  0  0  # atno 10718 bound_to 10713
  154.2834  135.6267  153.5356 H   0  0  0  0  0  0  0  0  0  0  0  0  # atno 10763 bound_to 10752
  152.9862  135.5638  154.5470 H   0  0  0  0  0  0  0  0  0  0  0  0  # atno 10764 bound_to 10752
  154.5065  135.2874  155.1353 H   0  0  0  0  0  0  0  0  0  0  0  0  # atno 10765 bound_to 10752
  141.1574  133.7663  156.9672 H   0  0  0  0  0  0  0  0  0  0  0  0  # atno 11005 bound_to 11000
  146.3529  140.0508  142.8636 LP  0  0  0  0  0  0  0  0  0  0  0  0  # atno 17320 bound_to 7965
  145.1251  140.9485  143.4578 LP  0  0  0  0  0  0  0  0  0  0  0  0  # atno 17321 bound_to 7965
  140.5468  144.0491  150.6110 LP  0  0  0  0  0  0  0  0  0  0  0  0  # atno 17342 bound_to 10162
  140.3531  143.2951  152.0465 LP  0  0  0  0  0  0  0  0  0  0  0  0  # atno 17343 bound_to 10162
  156.3559  130.3839  149.7291 LP  0  0  0  0  0  0  0  0  0  0  0  0  # atno 17370 bound_to 10713
  156.4753  130.8016  151.3032 LP  0  0  0  0  0  0  0  0  0  0  0  0  # atno 17371 bound_to 10713
  140.1154  134.9451  157.2126 LP  0  0  0  0  0  0  0  0  0  0  0  0  # atno 17394 bound_to 11000
  140.3140  134.2991  155.7260 LP  0  0  0  0  0  0  0  0  0  0  0  0  # atno 17395 bound_to 11000

$$$$
