AV-unprocessed.smi:1824|AV-procd|sdf|7393|dock1
  -GOLD-   22720 9 63D 1   1.00000     0.00000
 Structure written by MMmdl.
 44 46  0  0  0  0  0  0  0  0  1 V2000
  152.0308  136.8656  156.7456 C   0  0  0  0  0  0  0  0  0  0  0  0
  150.9809  136.6449  155.6433 C   0  0  2  0  0  0  0  0  0  0  0  0
  150.7099  137.9040  154.7958 C   0  0  0  0  0  0  0  0  0  0  0  0
  149.9308  138.9101  155.5096 N   0  0  0  0  0  0  0  0  0  0  0  0
  149.6965  140.0841  154.6692 C   0  0  0  0  0  0  0  0  0  0  0  0
  149.3250  141.3742  155.4310 C   0  0  2  0  0  0  0  0  0  0  0  0
  148.4953  142.1752  154.6102 O   0  0  0  0  0  0  0  0  0  0  0  0
  150.5722  142.1933  155.8178 C   0  0  0  0  0  0  0  0  0  0  0  0
  151.3735  141.5395  156.8375 N   0  0  0  0  0  0  0  0  0  0  0  0
  151.9494  140.3239  156.7661 C   0  0  0  0  0  0  0  0  0  0  0  0
  152.6435  139.9157  157.8249 N   0  0  0  0  0  0  0  0  0  0  0  0
  152.5010  140.9914  158.6847 C   0  0  0  0  0  0  0  0  0  0  0  0
  153.0023  141.1956  159.9900 C   0  0  0  0  0  0  0  0  0  0  0  0
  152.7229  142.3913  160.6843 C   0  0  0  0  0  0  0  0  0  0  0  0
  153.2113  142.5708  161.9345 F   0  0  0  0  0  0  0  0  0  0  0  0
  151.9391  143.3993  160.0844 C   0  0  0  0  0  0  0  0  0  0  0  0
  151.6762  144.5445  160.7575 F   0  0  0  0  0  0  0  0  0  0  0  0
  151.4282  143.2181  158.7848 C   0  0  0  0  0  0  0  0  0  0  0  0
  151.7100  142.0240  158.0965 C   0  0  0  0  0  0  0  0  0  0  0  0
  148.6920  138.3022  155.9842 C   0  0  0  0  0  0  0  0  0  0  0  0
  148.9573  137.0785  156.8797 C   0  0  1  0  0  0  0  0  0  0  0  0
  147.6592  136.3832  157.3029 C   0  0  0  0  0  0  0  0  0  0  0  0
  149.7562  136.1329  156.1710 O   0  0  0  0  0  0  0  0  0  0  0  0
  152.9910  137.1497  156.3147 H   0  0  0  0  0  0  0  0  0  0  0  0
  152.1848  135.9540  157.3234 H   0  0  0  0  0  0  0  0  0  0  0  0
  151.7391  137.6549  157.4383 H   0  0  0  0  0  0  0  0  0  0  0  0
  151.3744  135.8738  154.9805 H   0  0  0  0  0  0  0  0  0  0  0  0
  151.6578  138.3303  154.4648 H   0  0  0  0  0  0  0  0  0  0  0  0
  150.1751  137.6085  153.8915 H   0  0  0  0  0  0  0  0  0  0  0  0
  150.6205  140.2832  154.1245 H   0  0  0  0  0  0  0  0  0  0  0  0
  148.9530  139.8639  153.9014 H   0  0  0  0  0  0  0  0  0  0  0  0
  148.7770  141.1213  156.3400 H   0  0  0  0  0  0  0  0  0  0  0  0
  148.5747  143.0746  154.8889 H   0  0  0  0  0  0  0  0  0  0  0  0
  151.2057  142.3508  154.9440 H   0  0  0  0  0  0  0  0  0  0  0  0
  150.2847  143.1827  156.1773 H   0  0  0  0  0  0  0  0  0  0  0  0
  151.8557  139.7044  155.8860 H   0  0  0  0  0  0  0  0  0  0  0  0
  153.6033  140.4308  160.4592 H   0  0  0  0  0  0  0  0  0  0  0  0
  150.8287  143.9881  158.3223 H   0  0  0  0  0  0  0  0  0  0  0  0
  148.1119  139.0282  156.5537 H   0  0  0  0  0  0  0  0  0  0  0  0
  148.0761  138.0077  155.1328 H   0  0  0  0  0  0  0  0  0  0  0  0
  149.4850  137.3947  157.7802 H   0  0  0  0  0  0  0  0  0  0  0  0
  147.0147  137.0623  157.8615 H   0  0  0  0  0  0  0  0  0  0  0  0
  147.8680  135.5236  157.9402 H   0  0  0  0  0  0  0  0  0  0  0  0
  147.1006  136.0277  156.4366 H   0  0  0  0  0  0  0  0  0  0  0  0
  1  2  1  0  0  0  0
  1 24  1  0  0  0  0
  1 25  1  0  0  0  0
  1 26  1  0  0  0  0
  2 23  1  0  0  0  0
  2  3  1  0  0  0  0
  2 27  1  0  0  0  0
  3  4  1  0  0  0  0
  3 28  1  0  0  0  0
  3 29  1  0  0  0  0
  4  5  1  0  0  0  0
  4 20  1  0  0  0  0
  5  6  1  0  0  0  0
  5 30  1  0  0  0  0
  5 31  1  0  0  0  0
  6  7  1  0  0  0  0
  6  8  1  0  0  0  0
  6 32  1  0  0  0  0
  7 33  1  0  0  0  0
  8  9  1  0  0  0  0
  8 34  1  0  0  0  0
  8 35  1  0  0  0  0
  9 19  1  0  0  0  0
  9 10  1  0  0  0  0
 10 11  2  0  0  0  0
 10 36  1  0  0  0  0
 11 12  1  0  0  0  0
 12 19  2  0  0  0  0
 12 13  1  0  0  0  0
 13 14  2  0  0  0  0
 13 37  1  0  0  0  0
 14 15  1  0  0  0  0
 14 16  1  0  0  0  0
 16 17  1  0  0  0  0
 16 18  2  0  0  0  0
 18 19  1  0  0  0  0
 18 38  1  0  0  0  0
 20 21  1  0  0  0  0
 20 39  1  0  0  0  0
 20 40  1  0  0  0  0
 21 22  1  0  0  0  0
 21 23  1  0  0  0  0
 21 41  1  0  0  0  0
 22 42  1  0  0  0  0
 22 43  1  0  0  0  0
 22 44  1  0  0  0  0
M  END
> <s_m_source_file>
AV-unprocessed.smi

> <i_m_source_file_index>
1824

> <i_lp_mmshare_version>
43012

> <i_f3d_flags>
0

> <s_epik_input>
W0NIM11bQ0BASF0xW0NIMl1OKFtDSDJdW0NASF0oTzEpW0NIM10pW0NIMl1bQ0BIXShbT0hdKVtDSDJdbihbY0hdbjIpYyhjMjMpW2NIXWMoRiljKEYpW2NIXTM=

> <s_epik_cmdline>
J2VwaWtfcHl0aG9uJywgJy1waCcsICc3LjAnLCAnLXRuJywgJzgnLCAnLW1hJywgJzIwMCcsICctbWV0YWxfYmluZGluZycsICctaW1hZScsICc8aW5maWxlLm1hZT4nLCAnLW9tYWUnLCAnPG91dGZpbGUubWFlPic=

> <r_epik_Ionization_Penalty>
0.273778

> <r_epik_Ionization_Penalty_Charging>
0

> <r_epik_Ionization_Penalty_Neutral>
0.273778

> <r_epik_State_Penalty>
0.246794

> <r_epik_Charging_Adjusted_Penalty>
0.246794

> <i_epik_Tot_Q>
0

> <i_epik_Tot_abs_Q>
0

> <r_epik_Metal_State_Penalty>
0.238234

> <b_epik_Metal_Only>
0

> <s_lp_Force_Field>
OPLS_2005

> <r_lp_Energy>
29.8683

> <b_lp_Chiralities_Consistent>
1

> <s_lp_Variant>
AV-unprocessed.smi:1824-1

> <Gold.Version>
5.8.1

> <Gold.Id.Protein>
6NUR|6NUR_protein|mol2

> <Gold.PLP.Fitness>
45.4373

> <Gold.PLP.PLP>
-40.5766

> <Gold.PLP.part.hbond>
-2.6410

> <Gold.PLP.part.metal>
0.0000

> <Gold.PLP.part.buried>
-4.5095

> <Gold.PLP.part.nonpolar>
-32.9970

> <Gold.PLP.part.repulsive>
0.1091

> <Gold.PLP.ligand.clash>
0.0000

> <Gold.PLP.ligand.torsion>
0.5809

> <Gold.PLP.Chemscore.Hbond>
2.0000

> <Gold.PLP.Chemscore.CHOScore>
0.0000

> <Gold.PLP.Chemscore.Metal>
0.0000

> <Gold.Chemscore.Hbonds>
donor molecule, donor type, donor heavy atom, donor atom, acceptor molecule, acceptor atom, score
      L1  H     7    33       P1  8028  1.00
      P1  H  7997  8010       L1    11  0.76

> <Gold.PLP.Chemscore.Internal.Correction>
0.0224

> <Gold.Rescore>
     Score         DG    S(hbond)    S(metal)    S(lipo)     H(rot)  DE(clash)    DE(int)     intcor
     12.84     -15.43       1.16        0.00     101.47       2.26       0.69       1.91       ----

> <Gold.Chemscore.Fitness>
12.8352

> <Gold.Chemscore.DG>
-15.4329

> <Gold.Chemscore.ZeroCoef>
-5.4800

> <Gold.Chemscore.Hbond>
1.1592

> <Gold.Chemscore.Metal>
0.0000

> <Gold.Chemscore.Lipo>
101.4661

> <Gold.Chemscore.Internal_Hbond>
0.0000

> <Gold.Chemscore.DEClash>
0.6914

> <Gold.Chemscore.DEInternal>
1.9063

> <Gold.Chemscore.Rot>
2.2619

> <Gold.Chemscore.Internal.Correction>
   9.000000E+99

> <Gold.Chemscore.Hbonds>
donor molecule, donor type, donor heavy atom, donor atom, acceptor molecule, acceptor atom, score
      L1  H     7    33       P1  8028  1.00
      P1  H  7997  8010       L1    11  0.09

> <Gold.Chemscore.Hbond.Weighted>
-3.8718

> <Gold.Chemscore.Metal.Weighted>
-0.0000

> <Gold.Chemscore.Lipo.Weighted>
-11.8715

> <Gold.Chemscore.Internal_Hbond.Weighted>
0.0000

> <Gold.Chemscore.DEClash.Weighted>
0.6914

> <Gold.Chemscore.DEInternal.Weighted>
1.9063

> <Gold.Chemscore.Rot.Weighted>
5.7904

> <Gold.Chemscore.Internal.Correction.Weighted>
   9.000000E+99

> <Gold.Protein.RotatedTorsions>
[ 6907 6896 6895 6894 ] final  -91.90 input  -60.11 | X-H torsion
[ 7974 7965 7964 7962 ] final  -79.30 input  175.53 | X-H torsion
[ 8008 7997 7996 7995 ] final   37.53 input   59.86 | X-H torsion
[ 10167 10162 10161 10158 ] final  -64.88 input  -65.29 | X-H torsion
[ 10718 10713 10712 10709 ] final   79.36 input   66.30 | X-H torsion
[ 10763 10752 10751 10750 ] final  148.45 input  -60.55 | X-H torsion
[ 11005 11000 10999 10996 ] final   83.05 input  -57.11 | X-H torsion

> <Gold.Protein.ActiveResidues>
 VAL166  LYS551  ARG553  GLY616  TRP617  ASP618  TYR619  PRO620  LYS621  CYS622 
 ASP623  PHE694  ASN695  SER759  ASP760  ASP761  ALA762  ILE779  LEU786  VAL792 
 PHE793  MET794  SER795  GLU796  ALA797  LYS798  CYS799  TRP800  GLU811  SER814 

> <Gold.Protein.RotatedAtoms>
  150.6898  134.2206  159.4394 H   0  0  0  0  0  0  0  0  0  0  0  0  # atno 6907 bound_to 6896
  152.0162  134.9846  160.0579 H   0  0  0  0  0  0  0  0  0  0  0  0  # atno 6908 bound_to 6896
  152.1441  133.4446  159.4818 H   0  0  0  0  0  0  0  0  0  0  0  0  # atno 6909 bound_to 6896
  145.5750  140.9459  143.1374 H   0  0  0  0  0  0  0  0  0  0  0  0  # atno 7974 bound_to 7965
  155.2053  140.3319  155.4337 H   0  0  0  0  0  0  0  0  0  0  0  0  # atno 8008 bound_to 7997
  156.2391  140.1886  156.7087 H   0  0  0  0  0  0  0  0  0  0  0  0  # atno 8009 bound_to 7997
  154.6114  140.0608  156.9484 H   0  0  0  0  0  0  0  0  0  0  0  0  # atno 8010 bound_to 7997
  140.5769  143.2323  151.6423 H   0  0  0  0  0  0  0  0  0  0  0  0  # atno 10167 bound_to 10162
  157.6774  130.9911  150.1921 H   0  0  0  0  0  0  0  0  0  0  0  0  # atno 10718 bound_to 10713
  154.0550  135.2878  155.3334 H   0  0  0  0  0  0  0  0  0  0  0  0  # atno 10763 bound_to 10752
  154.6845  135.5250  153.8310 H   0  0  0  0  0  0  0  0  0  0  0  0  # atno 10764 bound_to 10752
  153.0545  135.6590  154.0743 H   0  0  0  0  0  0  0  0  0  0  0  0  # atno 10765 bound_to 10752
  139.9043  134.8116  156.2257 H   0  0  0  0  0  0  0  0  0  0  0  0  # atno 11005 bound_to 11000
  144.7420  139.7423  143.7307 LP  0  0  0  0  0  0  0  0  0  0  0  0  # atno 17320 bound_to 7965
  146.1757  139.4926  142.9899 LP  0  0  0  0  0  0  0  0  0  0  0  0  # atno 17321 bound_to 7965
  139.5148  144.3400  152.0749 LP  0  0  0  0  0  0  0  0  0  0  0  0  # atno 17342 bound_to 10162
  140.2544  144.4134  150.6209 LP  0  0  0  0  0  0  0  0  0  0  0  0  # atno 17343 bound_to 10162
  156.2630  130.3713  149.8110 LP  0  0  0  0  0  0  0  0  0  0  0  0  # atno 17370 bound_to 10713
  156.5849  130.8482  151.3393 LP  0  0  0  0  0  0  0  0  0  0  0  0  # atno 17371 bound_to 10713
  141.0377  133.6954  156.1543 LP  0  0  0  0  0  0  0  0  0  0  0  0  # atno 17394 bound_to 11000
  140.7002  134.4573  157.5586 LP  0  0  0  0  0  0  0  0  0  0  0  0  # atno 17395 bound_to 11000

$$$$
