AV-unprocessed.smi:1809|AV-procd|sdf|7328|dock2
  -GOLD-   22720 8583D 1   1.00000     0.00000
 Structure written by MMmdl.
 39 41  0  0  0  0  0  0  0  0  3 V2000
  151.6792  141.1488  156.6120 C   0  0  0  0  0  0  0  0  0  0  0  0
  151.5396  139.8858  155.8334 C   0  0  0  0  0  0  0  0  0  0  0  0
  150.9815  139.8430  154.6211 N   0  0  0  0  0  0  0  0  0  0  0  0
  150.9677  138.5582  154.0971 N   0  0  0  0  0  0  0  0  0  0  0  0
  151.5248  137.6517  154.9128 C   0  0  0  0  0  0  0  0  0  0  0  0
  151.6124  136.3500  154.5917 N   0  5  0  0  0  0  0  0  0  0  0  0
  150.8177  135.4482  155.2107 C   0  0  0  0  0  0  0  0  0  0  0  0
  150.4693  135.4680  156.3935 O   0  0  0  0  0  0  0  0  0  0  0  0
  150.3971  134.4613  154.4098 N   0  0  0  0  0  0  0  0  0  0  0  0
  149.5306  133.3645  154.8192 C   0  0  0  0  0  0  0  0  0  0  0  0
  148.8605  132.7168  153.6002 C   0  0  1  0  0  0  0  0  0  0  0  0
  148.4935  131.2380  153.8679 C   0  0  0  0  0  0  0  0  0  0  0  0
  147.7471  130.7275  152.7038 N   0  3  1  0  0  0  0  0  0  0  0  0
  147.3027  129.3231  152.7185 C   0  0  0  0  0  0  0  0  0  0  0  0
  146.0944  129.2807  151.7610 C   0  0  0  0  0  0  0  0  0  0  0  0
  145.8310  130.7426  151.3557 C   0  0  0  0  0  0  0  0  0  0  0  0
  146.5513  131.5321  152.4436 C   0  0  2  0  0  0  0  0  0  0  0  0
  146.9765  132.9737  152.1377 C   0  0  0  0  0  0  0  0  0  0  0  0
  147.6794  133.4631  153.2809 O   0  0  0  0  0  0  0  0  0  0  0  0
  152.0997  138.3341  156.4338 S   0  0  0  0  0  0  0  0  0  0  0  0
  152.4747  141.7616  156.1882 H   0  0  0  0  0  0  0  0  0  0  0  0
  151.9227  140.9281  157.6515 H   0  0  0  0  0  0  0  0  0  0  0  0
  150.7470  141.7132  156.5849 H   0  0  0  0  0  0  0  0  0  0  0  0
  150.6994  134.4797  153.4468 H   0  0  0  0  0  0  0  0  0  0  0  0
  150.1308  132.6256  155.3523 H   0  0  0  0  0  0  0  0  0  0  0  0
  148.7734  133.7289  155.5154 H   0  0  0  0  0  0  0  0  0  0  0  0
  149.5455  132.7656  152.7515 H   0  0  0  0  0  0  0  0  0  0  0  0
  149.3928  130.6399  154.0190 H   0  0  0  0  0  0  0  0  0  0  0  0
  147.8849  131.1477  154.7693 H   0  0  0  0  0  0  0  0  0  0  0  0
  148.1075  128.6567  152.4070 H   0  0  0  0  0  0  0  0  0  0  0  0
  146.9945  129.0381  153.7258 H   0  0  0  0  0  0  0  0  0  0  0  0
  146.2923  128.6618  150.8852 H   0  0  0  0  0  0  0  0  0  0  0  0
  145.2277  128.8591  152.2718 H   0  0  0  0  0  0  0  0  0  0  0  0
  146.2809  130.9445  150.3827 H   0  0  0  0  0  0  0  0  0  0  0  0
  144.7687  130.9810  151.2926 H   0  0  0  0  0  0  0  0  0  0  0  0
  145.9258  131.5299  153.3394 H   0  0  0  0  0  0  0  0  0  0  0  0
  147.6086  133.0271  151.2499 H   0  0  0  0  0  0  0  0  0  0  0  0
  146.1037  133.6013  151.9567 H   0  0  0  0  0  0  0  0  0  0  0  0
  148.3428  130.8316  151.8947 H   0  0  0  0  0  0  0  0  0  0  0  0
  1  2  1  0  0  0  0
  1 21  1  0  0  0  0
  1 22  1  0  0  0  0
  1 23  1  0  0  0  0
  2 20  1  0  0  0  0
  2  3  2  0  0  0  0
  3  4  1  0  0  0  0
  4  5  2  0  0  0  0
  5  6  1  0  0  0  0
  5 20  1  0  0  0  0
  6  7  1  0  0  0  0
  7  8  2  0  0  0  0
  7  9  1  0  0  0  0
  9 10  1  0  0  0  0
  9 24  1  0  0  0  0
 10 11  1  0  0  0  0
 10 25  1  0  0  0  0
 10 26  1  0  0  0  0
 11 19  1  0  0  0  0
 11 12  1  0  0  0  0
 11 27  1  0  0  0  0
 12 13  1  0  0  0  0
 12 28  1  0  0  0  0
 12 29  1  0  0  0  0
 13 17  1  0  0  0  0
 13 14  1  0  0  0  0
 13 39  1  0  0  0  0
 14 15  1  0  0  0  0
 14 30  1  0  0  0  0
 14 31  1  0  0  0  0
 15 16  1  0  0  0  0
 15 32  1  0  0  0  0
 15 33  1  0  0  0  0
 16 17  1  0  0  0  0
 16 34  1  0  0  0  0
 16 35  1  0  0  0  0
 17 18  1  0  0  0  0
 17 36  1  0  0  0  0
 18 19  1  0  0  0  0
 18 37  1  0  0  0  0
 18 38  1  0  0  0  0
M  CHG  1   6  -1
M  CHG  1  13   1
M  END
> <s_m_source_file>
AV-unprocessed.smi

> <i_m_source_file_index>
1809

> <i_lp_mmshare_version>
43012

> <i_f3d_flags>
0

> <s_epik_input>
W0NIM11jMW5uYyhzMSlbTkhdQyg9TylbTkhdW0NIMl1bQ0BIXShbQ0gyXTIpT1tDSDJdW0NAQEhdKE4yMylbQ0gyXVtDSDJdW0NIMl0z

> <s_epik_cmdline>
J2VwaWtfcHl0aG9uJywgJy1waCcsICc3LjAnLCAnLXRuJywgJzgnLCAnLW1hJywgJzIwMCcsICctbWV0YWxfYmluZGluZycsICctaW1hZScsICc8aW5maWxlLm1hZT4nLCAnLW9tYWUnLCAnPG91dGZpbGUubWFlPic=

> <r_lp_tautomer_probability>
1

> <r_epik_Ionization_Penalty>
3.2601

> <r_epik_Ionization_Penalty_Charging>
3.1406

> <r_epik_Ionization_Penalty_Neutral>
0.119497

> <r_epik_State_Penalty>
3.08894

> <r_epik_Charging_Adjusted_Penalty>
6.22954

> <i_epik_Tot_Q>
0

> <i_epik_Tot_abs_Q>
2

> <r_epik_Metal_State_Penalty>
0.510807

> <b_epik_Metal_Only>
1

> <s_lp_Force_Field>
OPLS_2005

> <r_lp_Energy>
29.8237

> <b_lp_Chiralities_Consistent>
1

> <s_lp_Variant>
AV-unprocessed.smi:1809-20

> <Gold.Version>
5.8.1

> <Gold.Id.Protein>
6NUR|6NUR_protein|mol2

> <Gold.PLP.Fitness>
44.1937

> <Gold.PLP.PLP>
-34.9041

> <Gold.PLP.part.hbond>
-3.8391

> <Gold.PLP.part.metal>
0.0000

> <Gold.PLP.part.buried>
-5.1407

> <Gold.PLP.part.nonpolar>
-27.7859

> <Gold.PLP.part.repulsive>
1.3145

> <Gold.PLP.ligand.clash>
0.0000

> <Gold.PLP.ligand.torsion>
1.3780

> <Gold.PLP.Chemscore.Hbond>
4.0000

> <Gold.PLP.Chemscore.CHOScore>
0.0000

> <Gold.PLP.Chemscore.Metal>
0.0000

> <Gold.Chemscore.Hbonds>
donor molecule, donor type, donor heavy atom, donor atom, acceptor molecule, acceptor atom, score
      L1  H    13    39       P1 10747  1.00
      P1  H  7989  7998       L1     3  1.00
      P1  H 10752 10765       L1     6  1.89

> <Gold.PLP.Chemscore.Internal.Correction>
0.0456

> <Gold.Rescore>
     Score         DG    S(hbond)    S(metal)    S(lipo)     H(rot)  DE(clash)    DE(int)     intcor
     17.91     -20.01       2.74        0.00      74.95       1.32       0.07       2.03       ----

> <Gold.Chemscore.Fitness>
17.9141

> <Gold.Chemscore.DG>
-20.0096

> <Gold.Chemscore.ZeroCoef>
-5.4800

> <Gold.Chemscore.Hbond>
2.7399

> <Gold.Chemscore.Metal>
0.0000

> <Gold.Chemscore.Lipo>
74.9501

> <Gold.Chemscore.Internal_Hbond>
0.0000

> <Gold.Chemscore.DEClash>
0.0653

> <Gold.Chemscore.DEInternal>
2.0302

> <Gold.Chemscore.Rot>
1.3246

> <Gold.Chemscore.Internal.Correction>
   9.000000E+99

> <Gold.Chemscore.Hbonds>
donor molecule, donor type, donor heavy atom, donor atom, acceptor molecule, acceptor atom, score
      L1  H    13    39       P1 10747  0.99
      P1  H  7989  7998       L1     3  0.60
      P1  H 10752 10765       L1     6  0.35

> <Gold.Chemscore.Hbond.Weighted>
-9.1514

> <Gold.Chemscore.Metal.Weighted>
-0.0000

> <Gold.Chemscore.Lipo.Weighted>
-8.7692

> <Gold.Chemscore.Internal_Hbond.Weighted>
0.0000

> <Gold.Chemscore.DEClash.Weighted>
0.0653

> <Gold.Chemscore.DEInternal.Weighted>
2.0302

> <Gold.Chemscore.Rot.Weighted>
3.3910

> <Gold.Chemscore.Internal.Correction.Weighted>
   9.000000E+99

> <Gold.Protein.RotatedTorsions>
[ 6907 6896 6895 6894 ] final  170.56 input  -60.11 | X-H torsion
[ 7974 7965 7964 7962 ] final  -53.86 input  175.53 | X-H torsion
[ 8008 7997 7996 7995 ] final  -50.06 input   59.86 | X-H torsion
[ 10167 10162 10161 10158 ] final    4.38 input  -65.29 | X-H torsion
[ 10718 10713 10712 10709 ] final  -14.46 input   66.30 | X-H torsion
[ 10763 10752 10751 10750 ] final  174.03 input  -60.55 | X-H torsion
[ 11005 11000 10999 10996 ] final  -89.62 input  -57.11 | X-H torsion

> <Gold.Protein.ActiveResidues>
 VAL166  LYS551  ARG553  GLY616  TRP617  ASP618  TYR619  PRO620  LYS621  CYS622 
 ASP623  PHE694  ASN695  SER759  ASP760  ASP761  ALA762  ILE779  LEU786  VAL792 
 PHE793  MET794  SER795  GLU796  ALA797  LYS798  CYS799  TRP800  GLU811  SER814 

> <Gold.Protein.RotatedAtoms>
  151.8141  133.3385  159.3563 H   0  0  0  0  0  0  0  0  0  0  0  0  # atno 6907 bound_to 6896
  150.7316  134.5636  159.5864 H   0  0  0  0  0  0  0  0  0  0  0  0  # atno 6908 bound_to 6896
  152.3054  134.7563  160.0400 H   0  0  0  0  0  0  0  0  0  0  0  0  # atno 6909 bound_to 6896
  145.8920  140.8062  142.9786 H   0  0  0  0  0  0  0  0  0  0  0  0  # atno 7974 bound_to 7965
  154.4055  140.1281  156.4604 H   0  0  0  0  0  0  0  0  0  0  0  0  # atno 8008 bound_to 7997
  155.7279  140.3492  155.5026 H   0  0  0  0  0  0  0  0  0  0  0  0  # atno 8009 bound_to 7997
  155.9155  140.1043  157.1237 H   0  0  0  0  0  0  0  0  0  0  0  0  # atno 8010 bound_to 7997
  140.6538  143.7479  150.7619 H   0  0  0  0  0  0  0  0  0  0  0  0  # atno 10167 bound_to 10162
  156.6156  130.4861  149.6184 H   0  0  0  0  0  0  0  0  0  0  0  0  # atno 10718 bound_to 10713
  154.4483  135.2764  155.1799 H   0  0  0  0  0  0  0  0  0  0  0  0  # atno 10763 bound_to 10752
  154.3637  135.6124  153.5707 H   0  0  0  0  0  0  0  0  0  0  0  0  # atno 10764 bound_to 10752
  152.9845  135.5840  154.4823 H   0  0  0  0  0  0  0  0  0  0  0  0  # atno 10765 bound_to 10752
  141.1581  133.7641  156.9621 H   0  0  0  0  0  0  0  0  0  0  0  0  # atno 11005 bound_to 11000
  144.6731  140.1545  143.7427 LP  0  0  0  0  0  0  0  0  0  0  0  0  # atno 17320 bound_to 7965
  145.8896  139.2368  143.1557 LP  0  0  0  0  0  0  0  0  0  0  0  0  # atno 17321 bound_to 7965
  140.1135  143.4677  152.2356 LP  0  0  0  0  0  0  0  0  0  0  0  0  # atno 17342 bound_to 10162
  139.5757  144.7486  151.3772 LP  0  0  0  0  0  0  0  0  0  0  0  0  # atno 17343 bound_to 10162
  156.2353  130.6819  151.1504 LP  0  0  0  0  0  0  0  0  0  0  0  0  # atno 17370 bound_to 10713
  157.7242  131.0661  150.6005 LP  0  0  0  0  0  0  0  0  0  0  0  0  # atno 17371 bound_to 10713
  140.1186  134.9431  157.2170 LP  0  0  0  0  0  0  0  0  0  0  0  0  # atno 17394 bound_to 11000
  140.3101  134.3033  155.7269 LP  0  0  0  0  0  0  0  0  0  0  0  0  # atno 17395 bound_to 11000

$$$$
