AV-unprocessed.smi:630|AV-procd|sdf|3124|dock6
  -GOLD-   22720 0 43D 1   1.00000     0.00000
 Structure written by MMmdl.
 36 37  0  0  0  0  0  0  0  0  2 V2000
  149.8846  137.4584  154.2929 N   0  0  0  0  0  0  0  0  0  0  0  0
  150.8311  137.0295  155.1322 C   0  0  0  0  0  0  0  0  0  0  0  0
  151.2710  135.8821  155.0845 O   0  0  0  0  0  0  0  0  0  0  0  0
  151.3530  138.0332  156.1795 C   0  0  1  0  0  0  0  0  0  0  0  0
  152.0139  139.2519  155.4871 C   0  0  0  0  0  0  0  0  0  0  0  0
  151.0862  140.4284  155.1380 C   0  0  0  0  0  0  0  0  0  0  0  0
  150.9405  141.4260  156.2975 C   0  0  0  0  0  0  0  0  0  0  0  0
  150.0738  140.9277  157.4618 C   0  0  0  0  0  0  0  0  0  0  0  0
  150.5307  139.6037  158.1006 C   0  0  0  0  0  0  0  0  0  0  0  0
  150.2446  138.3684  157.2191 C   0  0  2  0  0  0  0  0  0  0  0  0
  150.0425  137.2021  158.0853 N   0  0  0  0  0  0  0  0  0  0  0  0
  149.1546  137.0754  159.0829 C   0  0  0  0  0  0  0  0  0  0  0  0
  148.4025  138.0096  159.3692 O   0  0  0  0  0  0  0  0  0  0  0  0
  149.1914  135.8648  159.6854 N   0  5  0  0  0  0  0  0  0  0  0  0
  148.5324  135.6687  160.8391 C   0  0  0  0  0  0  0  0  0  0  0  0
  148.3250  136.6399  161.7359 N   0  0  0  0  0  0  0  0  0  0  0  0
  147.6241  136.2123  162.8651 C   0  0  0  0  0  0  0  0  0  0  0  0
  147.2984  134.8823  162.8316 C   0  0  0  0  0  0  0  0  0  0  0  0
  147.8647  134.1229  161.3714 S   0  0  0  0  0  0  0  0  0  0  0  0
  149.5379  136.8424  153.5723 H   0  0  0  0  0  0  0  0  0  0  0  0
  149.5417  138.4056  154.3621 H   0  0  0  0  0  0  0  0  0  0  0  0
  152.1644  137.5360  156.7152 H   0  0  0  0  0  0  0  0  0  0  0  0
  152.8359  139.6133  156.1063 H   0  0  0  0  0  0  0  0  0  0  0  0
  152.4997  138.9176  154.5686 H   0  0  0  0  0  0  0  0  0  0  0  0
  151.5254  140.9642  154.2959 H   0  0  0  0  0  0  0  0  0  0  0  0
  150.1120  140.0814  154.7927 H   0  0  0  0  0  0  0  0  0  0  0  0
  151.9264  141.7090  156.6683 H   0  0  0  0  0  0  0  0  0  0  0  0
  150.4971  142.3447  155.9122 H   0  0  0  0  0  0  0  0  0  0  0  0
  150.0689  141.6994  158.2323 H   0  0  0  0  0  0  0  0  0  0  0  0
  149.0375  140.8371  157.1337 H   0  0  0  0  0  0  0  0  0  0  0  0
  151.5831  139.6468  158.3834 H   0  0  0  0  0  0  0  0  0  0  0  0
  149.9791  139.5022  159.0368 H   0  0  0  0  0  0  0  0  0  0  0  0
  149.3189  138.5687  156.6763 H   0  0  0  0  0  0  0  0  0  0  0  0
  150.6343  136.4045  157.9050 H   0  0  0  0  0  0  0  0  0  0  0  0
  147.4013  136.9233  163.6465 H   0  0  0  0  0  0  0  0  0  0  0  0
  146.7640  134.3057  163.5713 H   0  0  0  0  0  0  0  0  0  0  0  0
  1  2  1  0  0  0  0
  1 20  1  0  0  0  0
  1 21  1  0  0  0  0
  2  3  2  0  0  0  0
  2  4  1  0  0  0  0
  4 10  1  0  0  0  0
  4  5  1  0  0  0  0
  4 22  1  0  0  0  0
  5  6  1  0  0  0  0
  5 23  1  0  0  0  0
  5 24  1  0  0  0  0
  6  7  1  0  0  0  0
  6 25  1  0  0  0  0
  6 26  1  0  0  0  0
  7  8  1  0  0  0  0
  7 27  1  0  0  0  0
  7 28  1  0  0  0  0
  8  9  1  0  0  0  0
  8 29  1  0  0  0  0
  8 30  1  0  0  0  0
  9 10  1  0  0  0  0
  9 31  1  0  0  0  0
  9 32  1  0  0  0  0
 10 11  1  0  0  0  0
 10 33  1  0  0  0  0
 11 12  1  0  0  0  0
 11 34  1  0  0  0  0
 12 13  2  0  0  0  0
 12 14  1  0  0  0  0
 14 15  1  0  0  0  0
 15 19  1  0  0  0  0
 15 16  2  0  0  0  0
 16 17  1  0  0  0  0
 17 18  2  0  0  0  0
 17 35  1  0  0  0  0
 18 19  1  0  0  0  0
 18 36  1  0  0  0  0
M  CHG  1  14  -1
M  END
> <s_m_source_file>
AV-unprocessed.smi

> <i_m_source_file_index>
630

> <i_lp_mmshare_version>
43012

> <i_f3d_flags>
0

> <s_epik_input>
W05IMl1DKD1PKVtDQEBIXTFbQ0gyXVtDSDJdW0NIMl1bQ0gyXVtDSDJdW0NASF0xW05IXUMoPU8pW05IXWMybltjSF1bY0hdczI=

> <s_epik_cmdline>
J2VwaWtfcHl0aG9uJywgJy1waCcsICc3LjAnLCAnLXRuJywgJzgnLCAnLW1hJywgJzIwMCcsICctbWV0YWxfYmluZGluZycsICctaW1hZScsICc8aW5maWxlLm1hZT4nLCAnLW9tYWUnLCAnPG91dGZpbGUubWFlPic=

> <r_lp_tautomer_probability>
0.999

> <r_epik_Ionization_Penalty>
8.29606

> <r_epik_Ionization_Penalty_Charging>
6.67551

> <r_epik_Ionization_Penalty_Neutral>
1.62055

> <r_epik_State_Penalty>
6.67568

> <r_epik_Charging_Adjusted_Penalty>
13.3512

> <i_epik_Tot_Q>
-1

> <i_epik_Tot_abs_Q>
1

> <r_epik_Metal_State_Penalty>
2.59802

> <b_epik_Metal_Only>
1

> <s_lp_Force_Field>
OPLS_2005

> <r_lp_Energy>
8.13293

> <b_lp_Chiralities_Consistent>
1

> <s_lp_Variant>
AV-unprocessed.smi:630-8

> <Gold.Version>
5.8.1

> <Gold.Id.Protein>
6NUR|6NUR_protein|mol2

> <Gold.PLP.Fitness>
47.2552

> <Gold.PLP.PLP>
-32.2303

> <Gold.PLP.part.hbond>
-5.7980

> <Gold.PLP.part.metal>
0.0000

> <Gold.PLP.part.buried>
-2.0061

> <Gold.PLP.part.nonpolar>
-25.0046

> <Gold.PLP.part.repulsive>
0.2561

> <Gold.PLP.ligand.clash>
0.0000

> <Gold.PLP.ligand.torsion>
0.2870

> <Gold.PLP.Chemscore.Hbond>
5.1599

> <Gold.PLP.Chemscore.CHOScore>
0.0000

> <Gold.PLP.Chemscore.Metal>
0.0000

> <Gold.Chemscore.Hbonds>
donor molecule, donor type, donor heavy atom, donor atom, acceptor molecule, acceptor atom, score
      L1  H     1    20       P1  7948  1.00
      P1  H  6896  6908       L1    14  2.00
      P1  H  6931  6943       L1    16  1.00
      P1  H  6934  6947       L1    13  0.13
      P1  H 10752 10763       L1     3  1.00

> <Gold.PLP.Chemscore.Internal.Correction>
0.1192

> <Gold.Rescore>
     Score         DG    S(hbond)    S(metal)    S(lipo)     H(rot)  DE(clash)    DE(int)     intcor
     18.36     -22.13       3.95        0.00      62.52       1.50       1.00       2.77       ----

> <Gold.Chemscore.Fitness>
18.3594

> <Gold.Chemscore.DG>
-22.1272

> <Gold.Chemscore.ZeroCoef>
-5.4800

> <Gold.Chemscore.Hbond>
3.9473

> <Gold.Chemscore.Metal>
0.0000

> <Gold.Chemscore.Lipo>
62.5153

> <Gold.Chemscore.Internal_Hbond>
0.0000

> <Gold.Chemscore.DEClash>
0.9983

> <Gold.Chemscore.DEInternal>
2.7696

> <Gold.Chemscore.Rot>
1.5044

> <Gold.Chemscore.Internal.Correction>
   9.000000E+99

> <Gold.Chemscore.Hbonds>
donor molecule, donor type, donor heavy atom, donor atom, acceptor molecule, acceptor atom, score
      L1  H     1    20       P1  7948  0.82
      P1  H  6896  6908       L1    14  0.69
      P1  H  6931  6943       L1    16  0.85
      P1  H  6934  6947       L1    13  0.15
      P1  H 10752 10763       L1     3  0.98

> <Gold.Chemscore.Hbond.Weighted>
-13.1841

> <Gold.Chemscore.Metal.Weighted>
-0.0000

> <Gold.Chemscore.Lipo.Weighted>
-7.3143

> <Gold.Chemscore.Internal_Hbond.Weighted>
0.0000

> <Gold.Chemscore.DEClash.Weighted>
0.9983

> <Gold.Chemscore.DEInternal.Weighted>
2.7696

> <Gold.Chemscore.Rot.Weighted>
3.8512

> <Gold.Chemscore.Internal.Correction.Weighted>
   9.000000E+99

> <Gold.Protein.RotatedTorsions>
[ 6907 6896 6895 6894 ] final -178.43 input  -60.11 | X-H torsion
[ 7974 7965 7964 7962 ] final -120.15 input  175.53 | X-H torsion
[ 8008 7997 7996 7995 ] final  103.49 input   59.86 | X-H torsion
[ 10167 10162 10161 10158 ] final -163.26 input  -65.29 | X-H torsion
[ 10718 10713 10712 10709 ] final  128.03 input   66.30 | X-H torsion
[ 10763 10752 10751 10750 ] final   60.91 input  -60.55 | X-H torsion
[ 11005 11000 10999 10996 ] final   63.02 input  -57.11 | X-H torsion

> <Gold.Protein.ActiveResidues>
 VAL166  LYS551  ARG553  GLY616  TRP617  ASP618  TYR619  PRO620  LYS621  CYS622 
 ASP623  PHE694  ASN695  SER759  ASP760  ASP761  ALA762  ILE779  LEU786  VAL792 
 PHE793  MET794  SER795  GLU796  ALA797  LYS798  CYS799  TRP800  GLU811  SER814 

> <Gold.Protein.RotatedAtoms>
  151.6371  133.3328  159.3121 H   0  0  0  0  0  0  0  0  0  0  0  0  # atno 6907 bound_to 6896
  150.8027  134.7135  159.6627 H   0  0  0  0  0  0  0  0  0  0  0  0  # atno 6908 bound_to 6896
  152.4120  134.6112  160.0077 H   0  0  0  0  0  0  0  0  0  0  0  0  # atno 6909 bound_to 6896
  145.0546  140.8244  143.4189 H   0  0  0  0  0  0  0  0  0  0  0  0  # atno 7974 bound_to 7965
  156.1489  140.3164  155.8615 H   0  0  0  0  0  0  0  0  0  0  0  0  # atno 8008 bound_to 7997
  155.4010  140.0499  157.3054 H   0  0  0  0  0  0  0  0  0  0  0  0  # atno 8009 bound_to 7997
  154.5041  140.2140  155.9299 H   0  0  0  0  0  0  0  0  0  0  0  0  # atno 8010 bound_to 7997
  139.6333  144.0397  152.2034 H   0  0  0  0  0  0  0  0  0  0  0  0  # atno 10167 bound_to 10162
  157.5281  131.1098  150.9052 H   0  0  0  0  0  0  0  0  0  0  0  0  # atno 10718 bound_to 10713
  152.9934  135.5519  154.5949 H   0  0  0  0  0  0  0  0  0  0  0  0  # atno 10763 bound_to 10752
  154.5302  135.2813  155.1188 H   0  0  0  0  0  0  0  0  0  0  0  0  # atno 10764 bound_to 10752
  154.2507  135.6399  153.5292 H   0  0  0  0  0  0  0  0  0  0  0  0  # atno 10765 bound_to 10752
  140.0053  134.6380  155.9866 H   0  0  0  0  0  0  0  0  0  0  0  0  # atno 11005 bound_to 11000
  145.1485  139.2529  143.5453 LP  0  0  0  0  0  0  0  0  0  0  0  0  # atno 17320 bound_to 7965
  146.3520  140.1181  142.8601 LP  0  0  0  0  0  0  0  0  0  0  0  0  # atno 17321 bound_to 7965
  140.0068  144.6253  150.7681 LP  0  0  0  0  0  0  0  0  0  0  0  0  # atno 17342 bound_to 10162
  140.7451  143.2871  151.3433 LP  0  0  0  0  0  0  0  0  0  0  0  0  # atno 17343 bound_to 10162
  156.9642  130.5466  149.5287 LP  0  0  0  0  0  0  0  0  0  0  0  0  # atno 17370 bound_to 10713
  156.0402  130.5485  150.8751 LP  0  0  0  0  0  0  0  0  0  0  0  0  # atno 17371 bound_to 10713
  141.1672  133.6537  156.4521 LP  0  0  0  0  0  0  0  0  0  0  0  0  # atno 17394 bound_to 11000
  140.4653  134.6803  157.5104 LP  0  0  0  0  0  0  0  0  0  0  0  0  # atno 17395 bound_to 11000

$$$$
