AV-unprocessed.smi:1948|AV-procd|sdf|7874|dock7
  -GOLD-   2272010 23D 1   1.00000     0.00000
 Structure written by MMmdl.
 30 31  0  0  0  0  0  0  0  0  1 V2000
  150.6534  140.7012  156.5032 O   0  0  0  0  0  0  0  0  0  0  0  0
  150.1945  141.8364  156.3732 C   0  0  0  0  0  0  0  0  0  0  0  0
  149.1944  142.1806  155.5426 N   0  0  0  0  0  0  0  0  0  0  0  0
  148.4578  141.3478  154.6591 C   0  0  0  0  0  0  0  0  0  0  0  0
  148.7775  140.0700  154.3994 N   0  0  0  0  0  0  0  0  0  0  0  0
  147.8928  139.4846  153.5028 N   0  0  0  0  0  0  0  0  0  0  0  0
  146.9418  140.3424  153.1223 C   0  0  0  0  0  0  0  0  0  0  0  0
  147.0330  141.9491  153.8231 S   0  0  0  0  0  0  0  0  0  0  0  0
  150.6469  142.8993  157.0545 N   0  0  0  0  0  0  0  0  0  0  0  0
  151.7311  142.8742  158.0321 C   0  0  2  0  0  0  0  0  0  0  0  0
  151.5935  141.6288  158.9263 C   0  0  0  0  0  0  0  0  0  0  0  0
  152.6931  141.5830  160.0019 C   0  0  0  0  0  0  0  0  0  0  0  0
  152.7360  142.8696  160.8481 C   0  0  2  0  0  0  0  0  0  0  0  0
  151.5962  142.9387  161.6818 O   0  0  0  0  0  0  0  0  0  0  0  0
  152.8213  144.1275  159.9632 C   0  0  0  0  0  0  0  0  0  0  0  0
  151.7244  144.1596  158.8844 C   0  0  0  0  0  0  0  0  0  0  0  0
  148.9312  143.1549  155.5387 H   0  0  0  0  0  0  0  0  0  0  0  0
  146.1805  140.0262  152.4248 H   0  0  0  0  0  0  0  0  0  0  0  0
  150.2123  143.7943  156.8840 H   0  0  0  0  0  0  0  0  0  0  0  0
  152.6842  142.8060  157.5037 H   0  0  0  0  0  0  0  0  0  0  0  0
  150.6140  141.6231  159.4069 H   0  0  0  0  0  0  0  0  0  0  0  0
  151.6418  140.7251  158.3178 H   0  0  0  0  0  0  0  0  0  0  0  0
  152.5540  140.7125  160.6440 H   0  0  0  0  0  0  0  0  0  0  0  0
  153.6588  141.4477  159.5132 H   0  0  0  0  0  0  0  0  0  0  0  0
  153.6067  142.8350  161.5039 H   0  0  0  0  0  0  0  0  0  0  0  0
  151.8293  143.4023  162.4715 H   0  0  0  0  0  0  0  0  0  0  0  0
  152.7696  145.0274  160.5773 H   0  0  0  0  0  0  0  0  0  0  0  0
  153.7957  144.1506  159.4736 H   0  0  0  0  0  0  0  0  0  0  0  0
  151.8681  145.0338  158.2485 H   0  0  0  0  0  0  0  0  0  0  0  0
  150.7499  144.2835  159.3591 H   0  0  0  0  0  0  0  0  0  0  0  0
  1  2  2  0  0  0  0
  2  3  1  0  0  0  0
  2  9  1  0  0  0  0
  3  4  1  0  0  0  0
  3 17  1  0  0  0  0
  4  8  1  0  0  0  0
  4  5  2  0  0  0  0
  5  6  1  0  0  0  0
  6  7  2  0  0  0  0
  7  8  1  0  0  0  0
  7 18  1  0  0  0  0
  9 10  1  0  0  0  0
  9 19  1  0  0  0  0
 10 16  1  0  0  0  0
 10 11  1  0  0  0  0
 10 20  1  0  0  0  0
 11 12  1  0  0  0  0
 11 21  1  0  0  0  0
 11 22  1  0  0  0  0
 12 13  1  0  0  0  0
 12 23  1  0  0  0  0
 12 24  1  0  0  0  0
 13 14  1  0  0  0  0
 13 15  1  0  0  0  0
 13 25  1  0  0  0  0
 14 26  1  0  0  0  0
 15 16  1  0  0  0  0
 15 27  1  0  0  0  0
 15 28  1  0  0  0  0
 16 29  1  0  0  0  0
 16 30  1  0  0  0  0
M  END
> <s_m_source_file>
AV-unprocessed.smi

> <i_m_source_file_index>
1948

> <i_lp_mmshare_version>
43012

> <i_f3d_flags>
0

> <s_epik_input>
czFbY0hdbm5jMVtOSF1DKD1PKVtOSF1bQ0BASF0yW0NIMl1bQ0gyXVtDQEBIXShbT0hdKVtDSDJdW0NIMl0y

> <s_epik_cmdline>
J2VwaWtfcHl0aG9uJywgJy1waCcsICc3LjAnLCAnLXRuJywgJzgnLCAnLW1hJywgJzIwMCcsICctbWV0YWxfYmluZGluZycsICctaW1hZScsICc8aW5maWxlLm1hZT4nLCAnLW9tYWUnLCAnPG91dGZpbGUubWFlPic=

> <r_lp_tautomer_probability>
1

> <r_epik_Ionization_Penalty>
0.000336938

> <r_epik_Ionization_Penalty_Charging>
0

> <r_epik_Ionization_Penalty_Neutral>
0.000336938

> <r_epik_State_Penalty>
-0

> <r_epik_Charging_Adjusted_Penalty>
0

> <i_epik_Tot_Q>
0

> <i_epik_Tot_abs_Q>
0

> <r_epik_Metal_State_Penalty>
0.175756

> <b_epik_Metal_Only>
0

> <s_lp_Force_Field>
OPLS_2005

> <r_lp_Energy>
9.37087

> <b_lp_Chiralities_Consistent>
1

> <s_lp_Variant>
AV-unprocessed.smi:1948-2

> <Gold.Version>
5.8.1

> <Gold.Id.Protein>
6NUR|6NUR_protein|mol2

> <Gold.PLP.Fitness>
43.9008

> <Gold.PLP.PLP>
-33.9014

> <Gold.PLP.part.hbond>
-3.7412

> <Gold.PLP.part.metal>
0.0000

> <Gold.PLP.part.buried>
-7.1195

> <Gold.PLP.part.nonpolar>
-24.5965

> <Gold.PLP.part.repulsive>
1.6593

> <Gold.PLP.ligand.clash>
0.0000

> <Gold.PLP.ligand.torsion>
0.2390

> <Gold.PLP.Chemscore.Hbond>
2.5040

> <Gold.PLP.Chemscore.CHOScore>
0.9875

> <Gold.PLP.Chemscore.Metal>
0.0000

> <Gold.Chemscore.Hbonds>
donor molecule, donor type, donor heavy atom, donor atom, acceptor molecule, acceptor atom, score
      L1  H     3    17       P1  8028  1.00
      L1  H     9    19       P1  8028  0.86
      P1  H  6933  6945       L1    14  0.62
      L1  C     7    18       P1 10175  0.99

> <Gold.PLP.Chemscore.Internal.Correction>
0.0030

> <Gold.Rescore>
     Score         DG    S(hbond)    S(metal)    S(lipo)     H(rot)  DE(clash)    DE(int)     intcor
     14.36     -17.68       2.00        0.00      81.11       1.55       0.36       2.96       ----

> <Gold.Chemscore.Fitness>
14.3643

> <Gold.Chemscore.DG>
-17.6822

> <Gold.Chemscore.ZeroCoef>
-5.4800

> <Gold.Chemscore.Hbond>
1.9966

> <Gold.Chemscore.Metal>
0.0000

> <Gold.Chemscore.Lipo>
81.1138

> <Gold.Chemscore.Internal_Hbond>
0.0000

> <Gold.Chemscore.DEClash>
0.3622

> <Gold.Chemscore.DEInternal>
2.9558

> <Gold.Chemscore.Rot>
1.5456

> <Gold.Chemscore.Internal.Correction>
   9.000000E+99

> <Gold.Chemscore.Hbonds>
donor molecule, donor type, donor heavy atom, donor atom, acceptor molecule, acceptor atom, score
      L1  H     3    17       P1  8028  0.97
      L1  H     9    19       P1  8028  0.81
      P1  H  6933  6945       L1    14  0.26

> <Gold.Chemscore.Hbond.Weighted>
-6.6687

> <Gold.Chemscore.Metal.Weighted>
-0.0000

> <Gold.Chemscore.Lipo.Weighted>
-9.4903

> <Gold.Chemscore.Internal_Hbond.Weighted>
0.0000

> <Gold.Chemscore.DEClash.Weighted>
0.3622

> <Gold.Chemscore.DEInternal.Weighted>
2.9558

> <Gold.Chemscore.Rot.Weighted>
3.9568

> <Gold.Chemscore.Internal.Correction.Weighted>
   9.000000E+99

> <Gold.Protein.RotatedTorsions>
[ 6907 6896 6895 6894 ] final -133.18 input  -60.11 | X-H torsion
[ 7974 7965 7964 7962 ] final  -23.32 input  175.53 | X-H torsion
[ 8008 7997 7996 7995 ] final  156.85 input   59.86 | X-H torsion
[ 10167 10162 10161 10158 ] final -127.22 input  -65.29 | X-H torsion
[ 10718 10713 10712 10709 ] final  -26.34 input   66.30 | X-H torsion
[ 10763 10752 10751 10750 ] final  -84.41 input  -60.55 | X-H torsion
[ 11005 11000 10999 10996 ] final  106.03 input  -57.11 | X-H torsion

> <Gold.Protein.ActiveResidues>
 VAL166  LYS551  ARG553  GLY616  TRP617  ASP618  TYR619  PRO620  LYS621  CYS622 
 ASP623  PHE694  ASN695  SER759  ASP760  ASP761  ALA762  ILE779  LEU786  VAL792 
 PHE793  MET794  SER795  GLU796  ALA797  LYS798  CYS799  TRP800  GLU811  SER814 

> <Gold.Protein.RotatedAtoms>
  150.9710  133.6344  159.2737 H   0  0  0  0  0  0  0  0  0  0  0  0  # atno 6907 bound_to 6896
  151.3632  135.0907  159.9451 H   0  0  0  0  0  0  0  0  0  0  0  0  # atno 6908 bound_to 6896
  152.5183  133.9280  159.7621 H   0  0  0  0  0  0  0  0  0  0  0  0  # atno 6909 bound_to 6896
  146.1623  140.4599  142.8566 H   0  0  0  0  0  0  0  0  0  0  0  0  # atno 7974 bound_to 7965
  156.2398  140.1901  156.7018 H   0  0  0  0  0  0  0  0  0  0  0  0  # atno 8008 bound_to 7997
  154.6176  140.0613  156.9601 H   0  0  0  0  0  0  0  0  0  0  0  0  # atno 8009 bound_to 7997
  155.1914  140.3284  155.4360 H   0  0  0  0  0  0  0  0  0  0  0  0  # atno 8010 bound_to 7997
  139.9632  143.5927  152.2438 H   0  0  0  0  0  0  0  0  0  0  0  0  # atno 10167 bound_to 10162
  156.4525  130.4487  149.6980 H   0  0  0  0  0  0  0  0  0  0  0  0  # atno 10718 bound_to 10713
  154.5992  135.5521  153.7356 H   0  0  0  0  0  0  0  0  0  0  0  0  # atno 10763 bound_to 10752
  153.0147  135.6362  154.1739 H   0  0  0  0  0  0  0  0  0  0  0  0  # atno 10764 bound_to 10752
  154.1679  135.2893  155.3069 H   0  0  0  0  0  0  0  0  0  0  0  0  # atno 10765 bound_to 10752
  139.8809  134.9355  156.5604 H   0  0  0  0  0  0  0  0  0  0  0  0  # atno 11005 bound_to 11000
  144.8044  140.6273  143.6456 LP  0  0  0  0  0  0  0  0  0  0  0  0  # atno 17320 bound_to 7965
  145.4556  139.1518  143.3894 LP  0  0  0  0  0  0  0  0  0  0  0  0  # atno 17321 bound_to 7965
  139.6538  144.7661  151.2095 LP  0  0  0  0  0  0  0  0  0  0  0  0  # atno 17342 bound_to 10162
  140.7546  143.6118  150.8598 LP  0  0  0  0  0  0  0  0  0  0  0  0  # atno 17343 bound_to 10162
  156.3801  130.7574  151.2566 LP  0  0  0  0  0  0  0  0  0  0  0  0  # atno 17370 bound_to 10713
  157.7502  131.0298  150.4109 LP  0  0  0  0  0  0  0  0  0  0  0  0  # atno 17371 bound_to 10713
  140.8174  133.8381  155.8864 LP  0  0  0  0  0  0  0  0  0  0  0  0  # atno 17394 bound_to 11000
  140.9450  134.1852  157.4770 LP  0  0  0  0  0  0  0  0  0  0  0  0  # atno 17395 bound_to 11000

$$$$
