AV-unprocessed.smi:1667|AV-procd|sdf|6677|dock1
  -GOLD-   22720 7393D 1   1.00000     0.00000
 Structure written by MMmdl.
 46 48  0  0  0  0  0  0  0  0  2 V2000
  149.8579  134.0427  154.2860 C   0  0  0  0  0  0  0  0  0  0  0  0
  150.1025  135.3702  154.9947 C   0  0  0  0  0  0  0  0  0  0  0  0
  149.5977  135.5857  156.0960 O   0  0  0  0  0  0  0  0  0  0  0  0
  150.8768  136.2552  154.3481 N   0  0  0  0  0  0  0  0  0  0  0  0
  151.2350  137.5782  154.8505 C   0  0  1  0  0  0  0  0  0  0  0  0
  152.5919  138.0053  154.2735 C   0  0  0  0  0  0  0  0  0  0  0  0
  150.1818  138.6008  154.5380 C   0  0  0  0  0  0  0  0  0  0  0  0
  149.0823  138.3996  153.7567 N   0  3  0  0  0  0  0  0  0  0  0  0
  148.3307  139.5717  153.6846 C   0  0  0  0  0  0  0  0  0  0  0  0
  147.1479  139.8522  153.0077 C   0  0  0  0  0  0  0  0  0  0  0  0
  146.6413  141.1619  153.1351 C   0  0  0  0  0  0  0  0  0  0  0  0
  147.3050  142.1324  153.9129 C   0  0  0  0  0  0  0  0  0  0  0  0
  148.5013  141.8344  154.5977 C   0  0  0  0  0  0  0  0  0  0  0  0
  148.9978  140.5369  154.4664 C   0  0  0  0  0  0  0  0  0  0  0  0
  150.1327  139.8926  154.9765 N   0  0  0  0  0  0  0  0  0  0  0  0
  151.0647  140.6349  155.8421 C   0  0  0  0  0  0  0  0  0  0  0  0
  150.7765  140.4141  157.3404 C   0  0  2  0  0  0  0  0  0  0  0  0
  149.4038  140.6575  157.5662 O   0  0  0  0  0  0  0  0  0  0  0  0
  151.6710  141.2622  158.2337 C   0  0  0  0  0  0  0  0  0  0  0  0
  152.4981  140.6614  159.2086 C   0  0  0  0  0  0  0  0  0  0  0  0
  153.3008  141.4590  160.0470 C   0  0  0  0  0  0  0  0  0  0  0  0
  153.2797  142.8610  159.9176 C   0  0  0  0  0  0  0  0  0  0  0  0
  152.4555  143.4654  158.9493 C   0  0  0  0  0  0  0  0  0  0  0  0
  152.4295  144.8136  158.8278 F   0  0  0  0  0  0  0  0  0  0  0  0
  151.6550  142.6683  158.1090 C   0  0  0  0  0  0  0  0  0  0  0  0
  151.3480  137.5053  155.9326 H   0  0  0  0  0  0  0  0  0  0  0  0
  149.3440  134.2064  153.3384 H   0  0  0  0  0  0  0  0  0  0  0  0
  149.2418  133.3835  154.8986 H   0  0  0  0  0  0  0  0  0  0  0  0
  150.8027  133.5366  154.0853 H   0  0  0  0  0  0  0  0  0  0  0  0
  151.2526  135.9894  153.4492 H   0  0  0  0  0  0  0  0  0  0  0  0
  152.8952  138.9759  154.6676 H   0  0  0  0  0  0  0  0  0  0  0  0
  152.5600  138.0830  153.1861 H   0  0  0  0  0  0  0  0  0  0  0  0
  153.3712  137.2878  154.5324 H   0  0  0  0  0  0  0  0  0  0  0  0
  146.6391  139.1103  152.4099 H   0  0  0  0  0  0  0  0  0  0  0  0
  145.7265  141.4275  152.6253 H   0  0  0  0  0  0  0  0  0  0  0  0
  146.8889  143.1267  153.9859 H   0  0  0  0  0  0  0  0  0  0  0  0
  148.9993  142.5907  155.1853 H   0  0  0  0  0  0  0  0  0  0  0  0
  152.0925  140.3742  155.5912 H   0  0  0  0  0  0  0  0  0  0  0  0
  150.9590  141.6912  155.5919 H   0  0  0  0  0  0  0  0  0  0  0  0
  150.9439  139.3640  157.5829 H   0  0  0  0  0  0  0  0  0  0  0  0
  148.9155  140.3383  156.8226 H   0  0  0  0  0  0  0  0  0  0  0  0
  152.5139  139.5872  159.3229 H   0  0  0  0  0  0  0  0  0  0  0  0
  153.9308  140.9952  160.7915 H   0  0  0  0  0  0  0  0  0  0  0  0
  153.8945  143.4722  160.5620 H   0  0  0  0  0  0  0  0  0  0  0  0
  151.0197  143.1404  157.3739 H   0  0  0  0  0  0  0  0  0  0  0  0
  148.8669  137.5209  153.3039 H   0  0  0  0  0  0  0  0  0  0  0  0
  1  2  1  0  0  0  0
  1 27  1  0  0  0  0
  1 28  1  0  0  0  0
  1 29  1  0  0  0  0
  2  3  2  0  0  0  0
  2  4  1  0  0  0  0
  4  5  1  0  0  0  0
  4 30  1  0  0  0  0
  5 26  1  0  0  0  0
  5  6  1  0  0  0  0
  5  7  1  0  0  0  0
  6 31  1  0  0  0  0
  6 32  1  0  0  0  0
  6 33  1  0  0  0  0
  7 15  1  0  0  0  0
  7  8  2  0  0  0  0
  8  9  1  0  0  0  0
  8 46  1  0  0  0  0
  9 14  2  0  0  0  0
  9 10  1  0  0  0  0
 10 11  2  0  0  0  0
 10 34  1  0  0  0  0
 11 12  1  0  0  0  0
 11 35  1  0  0  0  0
 12 13  2  0  0  0  0
 12 36  1  0  0  0  0
 13 14  1  0  0  0  0
 13 37  1  0  0  0  0
 14 15  1  0  0  0  0
 15 16  1  0  0  0  0
 16 17  1  0  0  0  0
 16 38  1  0  0  0  0
 16 39  1  0  0  0  0
 17 18  1  0  0  0  0
 17 19  1  0  0  0  0
 17 40  1  0  0  0  0
 18 41  1  0  0  0  0
 19 25  1  0  0  0  0
 19 20  2  0  0  0  0
 20 21  1  0  0  0  0
 20 42  1  0  0  0  0
 21 22  2  0  0  0  0
 21 43  1  0  0  0  0
 22 23  1  0  0  0  0
 22 44  1  0  0  0  0
 23 24  1  0  0  0  0
 23 25  2  0  0  0  0
 25 45  1  0  0  0  0
M  CHG  1   8   1
M  END
> <s_m_source_file>
AV-unprocessed.smi

> <i_m_source_file_index>
1667

> <i_lp_mmshare_version>
43012

> <i_f3d_flags>
0

> <s_epik_input>
W0NIM11DKD1PKVtOSF1bQ0BASF0oW0NIM10pYyhuMSluKGMoYzEyKVtjSF1bY0hdW2NIXVtjSF0yKVtDSDJdW0NASF0oW09IXSljM1tjSF1bY0hdW2NIXWMoRilbY0hdMw==

> <s_epik_cmdline>
J2VwaWtfcHl0aG9uJywgJy1waCcsICc3LjAnLCAnLXRuJywgJzgnLCAnLW1hJywgJzIwMCcsICctbWV0YWxfYmluZGluZycsICctaW1hZScsICc8aW5maWxlLm1hZT4nLCAnLW9tYWUnLCAnPG91dGZpbGUubWFlPic=

> <r_epik_Ionization_Penalty>
0.950383

> <r_epik_Ionization_Penalty_Charging>
0.950379

> <r_epik_Ionization_Penalty_Neutral>
3.60962e-06

> <r_epik_State_Penalty>
0.994584

> <r_epik_Charging_Adjusted_Penalty>
1.94496

> <i_epik_Tot_Q>
1

> <i_epik_Tot_abs_Q>
1

> <r_epik_Metal_State_Penalty>
1.10485

> <b_epik_Metal_Only>
0

> <s_lp_Force_Field>
OPLS_2005

> <r_lp_Energy>
12.0521

> <b_lp_Chiralities_Consistent>
1

> <s_lp_Variant>
AV-unprocessed.smi:1667-5

> <Gold.Version>
5.8.1

> <Gold.Id.Protein>
6NUR|6NUR_protein|mol2

> <Gold.PLP.Fitness>
62.9946

> <Gold.PLP.PLP>
-55.4981

> <Gold.PLP.part.hbond>
-3.4308

> <Gold.PLP.part.metal>
0.0000

> <Gold.PLP.part.buried>
-0.3003

> <Gold.PLP.part.nonpolar>
-52.2364

> <Gold.PLP.part.repulsive>
0.1744

> <Gold.PLP.ligand.clash>
0.0000

> <Gold.PLP.ligand.torsion>
0.8209

> <Gold.PLP.Chemscore.Hbond>
3.0000

> <Gold.PLP.Chemscore.CHOScore>
0.0000

> <Gold.PLP.Chemscore.Metal>
0.0000

> <Gold.Chemscore.Hbonds>
donor molecule, donor type, donor heavy atom, donor atom, acceptor molecule, acceptor atom, score
      L1  H     4    30       P1  7949  1.00
      L1  H     8    46       P1  7948  2.00

> <Gold.PLP.Chemscore.Internal.Correction>
0.1384

> <Gold.Rescore>
     Score         DG    S(hbond)    S(metal)    S(lipo)     H(rot)  DE(clash)    DE(int)     intcor
     17.44     -20.22       1.60        0.00     135.73       2.53       2.10       0.68       ----

> <Gold.Chemscore.Fitness>
17.4410

> <Gold.Chemscore.DG>
-20.2200

> <Gold.Chemscore.ZeroCoef>
-5.4800

> <Gold.Chemscore.Hbond>
1.6005

> <Gold.Chemscore.Metal>
0.0000

> <Gold.Chemscore.Lipo>
135.7269

> <Gold.Chemscore.Internal_Hbond>
0.0000

> <Gold.Chemscore.DEClash>
2.1005

> <Gold.Chemscore.DEInternal>
0.6785

> <Gold.Chemscore.Rot>
2.5335

> <Gold.Chemscore.Internal.Correction>
   9.000000E+99

> <Gold.Chemscore.Hbonds>
donor molecule, donor type, donor heavy atom, donor atom, acceptor molecule, acceptor atom, score
      L1  H     4    30       P1  7949  0.47
      L1  H     8    46       P1  7948  0.97

> <Gold.Chemscore.Hbond.Weighted>
-5.3456

> <Gold.Chemscore.Metal.Weighted>
-0.0000

> <Gold.Chemscore.Lipo.Weighted>
-15.8800

> <Gold.Chemscore.Internal_Hbond.Weighted>
0.0000

> <Gold.Chemscore.DEClash.Weighted>
2.1005

> <Gold.Chemscore.DEInternal.Weighted>
0.6785

> <Gold.Chemscore.Rot.Weighted>
6.4856

> <Gold.Chemscore.Internal.Correction.Weighted>
   9.000000E+99

> <Gold.Protein.RotatedTorsions>
[ 6907 6896 6895 6894 ] final   24.02 input  -60.11 | X-H torsion
[ 7974 7965 7964 7962 ] final  -74.70 input  175.53 | X-H torsion
[ 8008 7997 7996 7995 ] final -160.10 input   59.86 | X-H torsion
[ 10167 10162 10161 10158 ] final -176.94 input  -65.29 | X-H torsion
[ 10718 10713 10712 10709 ] final   29.63 input   66.30 | X-H torsion
[ 10763 10752 10751 10750 ] final   -5.55 input  -60.55 | X-H torsion
[ 11005 11000 10999 10996 ] final  129.12 input  -57.11 | X-H torsion

> <Gold.Protein.ActiveResidues>
 VAL166  LYS551  ARG553  GLY616  TRP617  ASP618  TYR619  PRO620  LYS621  CYS622 
 ASP623  PHE694  ASN695  SER759  ASP760  ASP761  ALA762  ILE779  LEU786  VAL792 
 PHE793  MET794  SER795  GLU796  ALA797  LYS798  CYS799  TRP800  GLU811  SER814 

> <Gold.Protein.RotatedAtoms>
  151.9512  135.0168  160.0541 H   0  0  0  0  0  0  0  0  0  0  0  0  # atno 6907 bound_to 6896
  152.1951  133.4796  159.5037 H   0  0  0  0  0  0  0  0  0  0  0  0  # atno 6908 bound_to 6896
  150.6943  134.1580  159.4208 H   0  0  0  0  0  0  0  0  0  0  0  0  # atno 6909 bound_to 6896
  145.6356  140.9325  143.1063 H   0  0  0  0  0  0  0  0  0  0  0  0  # atno 7974 bound_to 7965
  155.7724  140.0854  157.2101 H   0  0  0  0  0  0  0  0  0  0  0  0  # atno 8008 bound_to 7997
  154.3995  140.1523  156.3014 H   0  0  0  0  0  0  0  0  0  0  0  0  # atno 8009 bound_to 7997
  155.8734  140.3424  155.5839 H   0  0  0  0  0  0  0  0  0  0  0  0  # atno 8010 bound_to 7997
  139.5504  144.2123  152.1067 H   0  0  0  0  0  0  0  0  0  0  0  0  # atno 10167 bound_to 10162
  157.2491  130.7106  149.6396 H   0  0  0  0  0  0  0  0  0  0  0  0  # atno 10718 bound_to 10713
  153.4001  135.7004  153.6432 H   0  0  0  0  0  0  0  0  0  0  0  0  # atno 10763 bound_to 10752
  153.4969  135.3660  155.2520 H   0  0  0  0  0  0  0  0  0  0  0  0  # atno 10764 bound_to 10752
  154.8710  135.4102  154.3335 H   0  0  0  0  0  0  0  0  0  0  0  0  # atno 10765 bound_to 10752
  139.9598  134.9605  156.9101 H   0  0  0  0  0  0  0  0  0  0  0  0  # atno 11005 bound_to 11000
  144.7177  139.8140  143.7393 LP  0  0  0  0  0  0  0  0  0  0  0  0  # atno 17320 bound_to 7965
  146.1322  139.4359  143.0162 LP  0  0  0  0  0  0  0  0  0  0  0  0  # atno 17321 bound_to 7965
  140.1617  144.5019  150.6628 LP  0  0  0  0  0  0  0  0  0  0  0  0  # atno 17342 bound_to 10162
  140.6765  143.2307  151.5493 LP  0  0  0  0  0  0  0  0  0  0  0  0  # atno 17343 bound_to 10162
  155.9667  130.4433  150.5417 LP  0  0  0  0  0  0  0  0  0  0  0  0  # atno 17370 bound_to 10713
  157.3297  131.0697  151.1870 LP  0  0  0  0  0  0  0  0  0  0  0  0  # atno 17371 bound_to 10713
  140.5527  134.0612  155.7374 LP  0  0  0  0  0  0  0  0  0  0  0  0  # atno 17394 bound_to 11000
  141.1273  133.9361  157.2608 LP  0  0  0  0  0  0  0  0  0  0  0  0  # atno 17395 bound_to 11000

$$$$
