AV-unprocessed.smi:1019|AV-procd|sdf|4452|dock1
  -GOLD-   22720 2423D 1   1.00000     0.00000
 Structure written by MMmdl.
 43 45  0  0  0  0  0  0  0  0  1 V2000
  152.9969  138.9418  158.9935 C   0  0  0  0  0  0  0  0  0  0  0  0
  151.7512  139.3471  158.3481 N   0  0  0  0  0  0  0  0  0  0  0  0
  151.8861  140.6674  157.7256 C   0  0  0  0  0  0  0  0  0  0  0  0
  151.9674  141.8114  158.7220 C   0  0  0  0  0  0  0  0  0  0  0  0
  153.0329  141.8714  159.6448 C   0  0  0  0  0  0  0  0  0  0  0  0
  153.1107  142.9320  160.5682 C   0  0  0  0  0  0  0  0  0  0  0  0
  152.1227  143.9357  160.5730 C   0  0  0  0  0  0  0  0  0  0  0  0
  151.0566  143.8778  159.6545 C   0  0  0  0  0  0  0  0  0  0  0  0
  150.9781  142.8171  158.7309 C   0  0  0  0  0  0  0  0  0  0  0  0
  151.3320  138.3268  157.3853 C   0  0  0  0  0  0  0  0  0  0  0  0
  151.2290  136.8914  157.9452 C   0  0  1  0  0  0  0  0  0  0  0  0
  152.4759  136.2410  157.7858 O   0  0  0  0  0  0  0  0  0  0  0  0
  150.8618  136.8821  159.4424 C   0  0  0  0  0  0  0  0  0  0  0  0
  150.4392  135.5716  159.9042 N   0  0  0  0  0  0  0  0  0  0  0  0
  150.1238  134.5029  159.1472 C   0  0  0  0  0  0  0  0  0  0  0  0
  149.7595  133.3926  159.7826 N   0  0  0  0  0  0  0  0  0  0  0  0
  149.8539  133.7845  161.1069 C   0  0  0  0  0  0  0  0  0  0  0  0
  149.6019  133.0655  162.2973 C   0  0  0  0  0  0  0  0  0  0  0  0
  149.7685  133.6838  163.5542 C   0  0  0  0  0  0  0  0  0  0  0  0
  150.1887  135.0270  163.6406 C   0  0  0  0  0  0  0  0  0  0  0  0
  150.4464  135.7636  162.4685 C   0  0  0  0  0  0  0  0  0  0  0  0
  150.2783  135.1431  161.2168 C   0  0  0  0  0  0  0  0  0  0  0  0
  152.8874  137.9678  159.4714 H   0  0  0  0  0  0  0  0  0  0  0  0
  153.2890  139.6486  159.7706 H   0  0  0  0  0  0  0  0  0  0  0  0
  153.8113  138.8751  158.2710 H   0  0  0  0  0  0  0  0  0  0  0  0
  152.7571  140.6860  157.0688 H   0  0  0  0  0  0  0  0  0  0  0  0
  151.0227  140.8764  157.0951 H   0  0  0  0  0  0  0  0  0  0  0  0
  153.7934  141.1043  159.6435 H   0  0  0  0  0  0  0  0  0  0  0  0
  153.9285  142.9757  161.2723 H   0  0  0  0  0  0  0  0  0  0  0  0
  152.1828  144.7493  161.2806 H   0  0  0  0  0  0  0  0  0  0  0  0
  150.2987  144.6472  159.6581 H   0  0  0  0  0  0  0  0  0  0  0  0
  150.1586  142.7799  158.0283 H   0  0  0  0  0  0  0  0  0  0  0  0
  150.3979  138.6180  156.9017 H   0  0  0  0  0  0  0  0  0  0  0  0
  152.0731  138.3079  156.5852 H   0  0  0  0  0  0  0  0  0  0  0  0
  150.4700  136.3331  157.3948 H   0  0  0  0  0  0  0  0  0  0  0  0
  153.1563  136.8970  157.7781 H   0  0  0  0  0  0  0  0  0  0  0  0
  151.7090  137.2116  160.0461 H   0  0  0  0  0  0  0  0  0  0  0  0
  150.0493  137.5837  159.6357 H   0  0  0  0  0  0  0  0  0  0  0  0
  150.1598  134.5437  158.0684 H   0  0  0  0  0  0  0  0  0  0  0  0
  149.2800  132.0361  162.2437 H   0  0  0  0  0  0  0  0  0  0  0  0
  149.5729  133.1240  164.4570 H   0  0  0  0  0  0  0  0  0  0  0  0
  150.3129  135.4919  164.6076 H   0  0  0  0  0  0  0  0  0  0  0  0
  150.7683  136.7926  162.5301 H   0  0  0  0  0  0  0  0  0  0  0  0
  1  2  1  0  0  0  0
  1 23  1  0  0  0  0
  1 24  1  0  0  0  0
  1 25  1  0  0  0  0
  2  3  1  0  0  0  0
  2 10  1  0  0  0  0
  3  4  1  0  0  0  0
  3 26  1  0  0  0  0
  3 27  1  0  0  0  0
  4  9  1  0  0  0  0
  4  5  2  0  0  0  0
  5  6  1  0  0  0  0
  5 28  1  0  0  0  0
  6  7  2  0  0  0  0
  6 29  1  0  0  0  0
  7  8  1  0  0  0  0
  7 30  1  0  0  0  0
  8  9  2  0  0  0  0
  8 31  1  0  0  0  0
  9 32  1  0  0  0  0
 10 11  1  0  0  0  0
 10 33  1  0  0  0  0
 10 34  1  0  0  0  0
 11 12  1  0  0  0  0
 11 13  1  0  0  0  0
 11 35  1  0  0  0  0
 12 36  1  0  0  0  0
 13 14  1  0  0  0  0
 13 37  1  0  0  0  0
 13 38  1  0  0  0  0
 14 22  1  0  0  0  0
 14 15  1  0  0  0  0
 15 16  2  0  0  0  0
 15 39  1  0  0  0  0
 16 17  1  0  0  0  0
 17 22  2  0  0  0  0
 17 18  1  0  0  0  0
 18 19  2  0  0  0  0
 18 40  1  0  0  0  0
 19 20  1  0  0  0  0
 19 41  1  0  0  0  0
 20 21  2  0  0  0  0
 20 42  1  0  0  0  0
 21 22  1  0  0  0  0
 21 43  1  0  0  0  0
M  END
> <s_m_source_file>
AV-unprocessed.smi

> <i_m_source_file_index>
1019

> <i_lp_mmshare_version>
43012

> <i_f3d_flags>
0

> <s_epik_input>
W2NIXTFbY0hdW2NIXVtjSF1bY0hdYzFbQ0gyXU4oW0NIM10pW0NIMl1bQ0BIXShbT0hdKVtDSDJdbihbY0hdbjIpYyhjMjMpW2NIXVtjSF1bY0hdW2NIXTM=

> <s_epik_cmdline>
J2VwaWtfcHl0aG9uJywgJy1waCcsICc3LjAnLCAnLXRuJywgJzgnLCAnLW1hJywgJzIwMCcsICctbWV0YWxfYmluZGluZycsICctaW1hZScsICc8aW5maWxlLm1hZT4nLCAnLW9tYWUnLCAnPG91dGZpbGUubWFlPic=

> <r_epik_Ionization_Penalty>
1.56741

> <r_epik_Ionization_Penalty_Charging>
0

> <r_epik_Ionization_Penalty_Neutral>
1.56741

> <r_epik_State_Penalty>
1.62466

> <r_epik_Charging_Adjusted_Penalty>
1.62466

> <i_epik_Tot_Q>
0

> <i_epik_Tot_abs_Q>
0

> <r_epik_Metal_State_Penalty>
1.58486

> <b_epik_Metal_Only>
0

> <s_lp_Force_Field>
OPLS_2005

> <r_lp_Energy>
22.9091

> <b_lp_Chiralities_Consistent>
1

> <s_lp_Variant>
AV-unprocessed.smi:1019-10

> <Gold.Version>
5.8.1

> <Gold.Id.Protein>
6NUR|6NUR_protein|mol2

> <Gold.PLP.Fitness>
44.6939

> <Gold.PLP.PLP>
-44.5473

> <Gold.PLP.part.hbond>
-1.0000

> <Gold.PLP.part.metal>
0.0000

> <Gold.PLP.part.buried>
-3.8520

> <Gold.PLP.part.nonpolar>
-41.2280

> <Gold.PLP.part.repulsive>
0.0000

> <Gold.PLP.ligand.clash>
0.0000

> <Gold.PLP.ligand.torsion>
0.7224

> <Gold.PLP.Chemscore.Hbond>
0.3312

> <Gold.PLP.Chemscore.CHOScore>
0.0000

> <Gold.PLP.Chemscore.Metal>
0.0000

> <Gold.PLP.Chemscore.Internal.Correction>
0.5976

> <Gold.Rescore>
     Score         DG    S(hbond)    S(metal)    S(lipo)     H(rot)  DE(clash)    DE(int)     intcor
     14.04     -16.17       0.30        0.00     132.27       2.27       0.46       1.67       ----

> <Gold.Chemscore.Fitness>
14.0368

> <Gold.Chemscore.DG>
-16.1700

> <Gold.Chemscore.ZeroCoef>
-5.4800

> <Gold.Chemscore.Hbond>
0.3044

> <Gold.Chemscore.Metal>
0.0000

> <Gold.Chemscore.Lipo>
132.2740

> <Gold.Chemscore.Internal_Hbond>
0.0000

> <Gold.Chemscore.DEClash>
0.4639

> <Gold.Chemscore.DEInternal>
1.6694

> <Gold.Chemscore.Rot>
2.2667

> <Gold.Chemscore.Internal.Correction>
   9.000000E+99

> <Gold.Chemscore.Hbond.Weighted>
-1.0168

> <Gold.Chemscore.Metal.Weighted>
-0.0000

> <Gold.Chemscore.Lipo.Weighted>
-15.4761

> <Gold.Chemscore.Internal_Hbond.Weighted>
0.0000

> <Gold.Chemscore.DEClash.Weighted>
0.4639

> <Gold.Chemscore.DEInternal.Weighted>
1.6694

> <Gold.Chemscore.Rot.Weighted>
5.8028

> <Gold.Chemscore.Internal.Correction.Weighted>
   9.000000E+99

> <Gold.Protein.RotatedTorsions>
[ 6907 6896 6895 6894 ] final  -29.75 input  -60.11 | X-H torsion
[ 7974 7965 7964 7962 ] final  116.65 input  175.53 | X-H torsion
[ 8008 7997 7996 7995 ] final  139.97 input   59.86 | X-H torsion
[ 10167 10162 10161 10158 ] final  -64.27 input  -65.29 | X-H torsion
[ 10718 10713 10712 10709 ] final  -83.71 input   66.30 | X-H torsion
[ 10763 10752 10751 10750 ] final   29.07 input  -60.55 | X-H torsion
[ 11005 11000 10999 10996 ] final  173.28 input  -57.11 | X-H torsion

> <Gold.Protein.ActiveResidues>
 VAL166  LYS551  ARG553  GLY616  TRP617  ASP618  TYR619  PRO620  LYS621  CYS622 
 ASP623  PHE694  ASN695  SER759  ASP760  ASP761  ALA762  ILE779  LEU786  VAL792 
 PHE793  MET794  SER795  GLU796  ALA797  LYS798  CYS799  TRP800  GLU811  SER814 

> <Gold.Protein.RotatedAtoms>
  151.1149  135.0047  159.8511 H   0  0  0  0  0  0  0  0  0  0  0  0  # atno 6907 bound_to 6896
  152.5445  134.1791  159.8638 H   0  0  0  0  0  0  0  0  0  0  0  0  # atno 6908 bound_to 6896
  151.1844  133.4660  159.2627 H   0  0  0  0  0  0  0  0  0  0  0  0  # atno 6909 bound_to 6896
  145.1770  139.3070  143.4437 H   0  0  0  0  0  0  0  0  0  0  0  0  # atno 7974 bound_to 7965
  156.2984  140.2353  156.4325 H   0  0  0  0  0  0  0  0  0  0  0  0  # atno 8008 bound_to 7997
  154.8258  140.0435  157.1463 H   0  0  0  0  0  0  0  0  0  0  0  0  # atno 8009 bound_to 7997
  154.9264  140.3010  155.5194 H   0  0  0  0  0  0  0  0  0  0  0  0  # atno 8010 bound_to 7997
  140.5812  143.2327  151.6338 H   0  0  0  0  0  0  0  0  0  0  0  0  # atno 10167 bound_to 10162
  156.0015  130.4674  150.4299 H   0  0  0  0  0  0  0  0  0  0  0  0  # atno 10718 bound_to 10713
  153.0452  135.6498  154.0835 H   0  0  0  0  0  0  0  0  0  0  0  0  # atno 10763 bound_to 10752
  154.0534  135.2894  155.3338 H   0  0  0  0  0  0  0  0  0  0  0  0  # atno 10764 bound_to 10752
  154.6705  135.5358  153.8198 H   0  0  0  0  0  0  0  0  0  0  0  0  # atno 10765 bound_to 10752
  140.3387  134.7295  157.4187 H   0  0  0  0  0  0  0  0  0  0  0  0  # atno 11005 bound_to 11000
  146.3459  140.1937  142.8589 LP  0  0  0  0  0  0  0  0  0  0  0  0  # atno 17320 bound_to 7965
  145.0174  140.8765  143.5187 LP  0  0  0  0  0  0  0  0  0  0  0  0  # atno 17321 bound_to 7965
  139.5171  144.3326  152.0813 LP  0  0  0  0  0  0  0  0  0  0  0  0  # atno 17342 bound_to 10162
  140.2476  144.4203  150.6234 LP  0  0  0  0  0  0  0  0  0  0  0  0  # atno 17343 bound_to 10162
  157.2348  131.0512  151.2471 LP  0  0  0  0  0  0  0  0  0  0  0  0  # atno 17370 bound_to 10713
  157.3676  130.7164  149.6543 LP  0  0  0  0  0  0  0  0  0  0  0  0  # atno 17371 bound_to 10713
  140.0799  134.5746  155.8552 LP  0  0  0  0  0  0  0  0  0  0  0  0  # atno 17394 bound_to 11000
  141.2044  133.6639  156.6120 LP  0  0  0  0  0  0  0  0  0  0  0  0  # atno 17395 bound_to 11000

$$$$
