AV-unprocessed.smi:755|AV-procd|sdf|3611|dock2
  -GOLD-   22720 1 03D 1   1.00000     0.00000
 Structure written by MMmdl.
 33 34  0  0  0  0  0  0  0  0  1 V2000
  151.1154  141.5915  156.2079 O   0  0  0  0  0  0  0  0  0  0  0  0
  150.7447  140.4266  156.0658 C   0  0  0  0  0  0  0  0  0  0  0  0
  150.3715  139.9079  154.6755 C   0  0  0  0  0  0  0  0  0  0  0  0
  149.1149  140.4727  154.2146 N   0  0  0  0  0  0  0  0  0  0  0  0
  148.7140  141.7951  154.2383 C   0  0  0  0  0  0  0  0  0  0  0  0
  147.4638  141.8049  153.6997 C   0  0  0  0  0  0  0  0  0  0  0  0
  146.4501  143.1807  153.4678 Cl  0  0  0  0  0  0  0  0  0  0  0  0
  147.1597  140.4605  153.3673 C   0  0  0  0  0  0  0  0  0  0  0  0
  148.1662  139.6584  153.6832 N   0  0  0  0  0  0  0  0  0  0  0  0
  150.6525  139.5510  157.0796 N   0  0  0  0  0  0  0  0  0  0  0  0
  150.9880  139.8330  158.4734 C   0  0  0  0  0  0  0  0  0  0  0  0
  152.3076  140.6096  158.6333 C   0  0  0  0  0  0  0  0  0  0  0  0
  153.3811  140.0040  158.6390 O   0  0  0  0  0  0  0  0  0  0  0  0
  152.2428  141.9492  158.7794 N   0  0  0  0  0  0  0  0  0  0  0  0
  153.3851  142.8472  158.9467 C   0  0  0  0  0  0  0  0  0  0  0  0
  152.8197  144.2629  158.8281 C   0  0  0  0  0  0  0  0  0  0  0  0
  151.3592  144.1169  159.2321 C   0  0  0  0  0  0  0  0  0  0  0  0
  150.9897  142.7015  158.7879 C   0  0  0  0  0  0  0  0  0  0  0  0
  151.1522  140.1653  153.9584 H   0  0  0  0  0  0  0  0  0  0  0  0
  150.3000  138.8192  154.6955 H   0  0  0  0  0  0  0  0  0  0  0  0
  149.3363  142.5881  154.6266 H   0  0  0  0  0  0  0  0  0  0  0  0
  146.2670  140.0493  152.9197 H   0  0  0  0  0  0  0  0  0  0  0  0
  150.3435  138.6135  156.8663 H   0  0  0  0  0  0  0  0  0  0  0  0
  150.1712  140.3777  158.9498 H   0  0  0  0  0  0  0  0  0  0  0  0
  151.0779  138.8802  158.9953 H   0  0  0  0  0  0  0  0  0  0  0  0
  153.8172  142.6932  159.9365 H   0  0  0  0  0  0  0  0  0  0  0  0
  154.1637  142.6730  158.2028 H   0  0  0  0  0  0  0  0  0  0  0  0
  153.3585  144.9863  159.4409 H   0  0  0  0  0  0  0  0  0  0  0  0
  152.8783  144.5946  157.7905 H   0  0  0  0  0  0  0  0  0  0  0  0
  151.2721  144.1944  160.3168 H   0  0  0  0  0  0  0  0  0  0  0  0
  150.7184  144.8804  158.7899 H   0  0  0  0  0  0  0  0  0  0  0  0
  150.5775  142.7128  157.7777 H   0  0  0  0  0  0  0  0  0  0  0  0
  150.2465  142.2581  159.4526 H   0  0  0  0  0  0  0  0  0  0  0  0
  1  2  2  0  0  0  0
  2  3  1  0  0  0  0
  2 10  1  0  0  0  0
  3  4  1  0  0  0  0
  3 19  1  0  0  0  0
  3 20  1  0  0  0  0
  4  9  1  0  0  0  0
  4  5  1  0  0  0  0
  5  6  2  0  0  0  0
  5 21  1  0  0  0  0
  6  7  1  0  0  0  0
  6  8  1  0  0  0  0
  8  9  2  0  0  0  0
  8 22  1  0  0  0  0
 10 11  1  0  0  0  0
 10 23  1  0  0  0  0
 11 12  1  0  0  0  0
 11 24  1  0  0  0  0
 11 25  1  0  0  0  0
 12 13  2  0  0  0  0
 12 14  1  0  0  0  0
 14 18  1  0  0  0  0
 14 15  1  0  0  0  0
 15 16  1  0  0  0  0
 15 26  1  0  0  0  0
 15 27  1  0  0  0  0
 16 17  1  0  0  0  0
 16 28  1  0  0  0  0
 16 29  1  0  0  0  0
 17 18  1  0  0  0  0
 17 30  1  0  0  0  0
 17 31  1  0  0  0  0
 18 32  1  0  0  0  0
 18 33  1  0  0  0  0
M  END
> <s_m_source_file>
AV-unprocessed.smi

> <i_m_source_file_index>
755

> <i_lp_mmshare_version>
43012

> <i_f3d_flags>
0

> <s_epik_input>
bjFbY0hdYyhDbClbY0hdbjFbQ0gyXUMoPU8pW05IXVtDSDJdQyg9TylOMltDSDJdW0NIMl1bQ0gyXVtDSDJdMg==

> <s_epik_cmdline>
J2VwaWtfcHl0aG9uJywgJy1waCcsICc3LjAnLCAnLXRuJywgJzgnLCAnLW1hJywgJzIwMCcsICctbWV0YWxfYmluZGluZycsICctaW1hZScsICc8aW5maWxlLm1hZT4nLCAnLW9tYWUnLCAnPG91dGZpbGUubWFlPic=

> <r_lp_tautomer_probability>
1

> <r_epik_Ionization_Penalty>
4.35059e-07

> <r_epik_Ionization_Penalty_Charging>
0

> <r_epik_Ionization_Penalty_Neutral>
4.35059e-07

> <r_epik_State_Penalty>
-0

> <r_epik_Charging_Adjusted_Penalty>
0

> <i_epik_Tot_Q>
0

> <i_epik_Tot_abs_Q>
0

> <r_epik_Metal_State_Penalty>
-0

> <b_epik_Metal_Only>
0

> <s_lp_Force_Field>
OPLS_2005

> <r_lp_Energy>
27.1331

> <b_lp_Chiralities_Consistent>
1

> <s_lp_Variant>
AV-unprocessed.smi:755-1

> <Gold.Version>
5.8.1

> <Gold.Id.Protein>
6NUR|6NUR_protein|mol2

> <Gold.PLP.Fitness>
44.7646

> <Gold.PLP.PLP>
-37.1545

> <Gold.PLP.part.hbond>
-1.0000

> <Gold.PLP.part.metal>
0.0000

> <Gold.PLP.part.buried>
-4.2200

> <Gold.PLP.part.nonpolar>
-31.6403

> <Gold.PLP.part.repulsive>
0.2298

> <Gold.PLP.ligand.clash>
0.0000

> <Gold.PLP.ligand.torsion>
0.6946

> <Gold.PLP.Chemscore.Hbond>
1.0000

> <Gold.PLP.Chemscore.CHOScore>
1.9961

> <Gold.PLP.Chemscore.Metal>
0.0000

> <Gold.Chemscore.Hbonds>
donor molecule, donor type, donor heavy atom, donor atom, acceptor molecule, acceptor atom, score
      P1  H  7997  8009       L1    13  1.00
      L1  C     5    21       P1  8028  1.00
      L1  C     8    22       P1 10175  0.69

> <Gold.PLP.Chemscore.Internal.Correction>
0.0109

> <Gold.Rescore>
     Score         DG    S(hbond)    S(metal)    S(lipo)     H(rot)  DE(clash)    DE(int)     intcor
     11.64     -13.65       0.95        0.00      81.94       1.80       0.07       1.93       ----

> <Gold.Chemscore.Fitness>
11.6429

> <Gold.Chemscore.DG>
-13.6481

> <Gold.Chemscore.ZeroCoef>
-5.4800

> <Gold.Chemscore.Hbond>
0.9537

> <Gold.Chemscore.Metal>
0.0000

> <Gold.Chemscore.Lipo>
81.9446

> <Gold.Chemscore.Internal_Hbond>
0.0000

> <Gold.Chemscore.DEClash>
0.0713

> <Gold.Chemscore.DEInternal>
1.9339

> <Gold.Chemscore.Rot>
1.7988

> <Gold.Chemscore.Internal.Correction>
   9.000000E+99

> <Gold.Chemscore.Hbonds>
donor molecule, donor type, donor heavy atom, donor atom, acceptor molecule, acceptor atom, score
      P1  H  7997  8009       L1    13  0.91

> <Gold.Chemscore.Hbond.Weighted>
-3.1854

> <Gold.Chemscore.Metal.Weighted>
-0.0000

> <Gold.Chemscore.Lipo.Weighted>
-9.5875

> <Gold.Chemscore.Internal_Hbond.Weighted>
0.0000

> <Gold.Chemscore.DEClash.Weighted>
0.0713

> <Gold.Chemscore.DEInternal.Weighted>
1.9339

> <Gold.Chemscore.Rot.Weighted>
4.6048

> <Gold.Chemscore.Internal.Correction.Weighted>
   9.000000E+99

> <Gold.Protein.RotatedTorsions>
[ 6907 6896 6895 6894 ] final -147.22 input  -60.11 | X-H torsion
[ 7974 7965 7964 7962 ] final  -70.32 input  175.53 | X-H torsion
[ 8008 7997 7996 7995 ] final  152.67 input   59.86 | X-H torsion
[ 10167 10162 10161 10158 ] final  -71.85 input  -65.29 | X-H torsion
[ 10718 10713 10712 10709 ] final -113.56 input   66.30 | X-H torsion
[ 10763 10752 10751 10750 ] final  129.29 input  -60.55 | X-H torsion
[ 11005 11000 10999 10996 ] final   24.68 input  -57.11 | X-H torsion

> <Gold.Protein.ActiveResidues>
 VAL166  LYS551  ARG553  GLY616  TRP617  ASP618  TYR619  PRO620  LYS621  CYS622 
 ASP623  PHE694  ASN695  SER759  ASP760  ASP761  ALA762  ILE779  LEU786  VAL792 
 PHE793  MET794  SER795  GLU796  ALA797  LYS798  CYS799  TRP800  GLU811  SER814 

> <Gold.Protein.RotatedAtoms>
  151.1526  133.4897  159.2594 H   0  0  0  0  0  0  0  0  0  0  0  0  # atno 6907 bound_to 6896
  151.1538  135.0240  159.8690 H   0  0  0  0  0  0  0  0  0  0  0  0  # atno 6908 bound_to 6896
  152.5463  134.1407  159.8531 H   0  0  0  0  0  0  0  0  0  0  0  0  # atno 6909 bound_to 6896
  145.6925  140.9148  143.0774 H   0  0  0  0  0  0  0  0  0  0  0  0  # atno 7974 bound_to 7965
  156.2618  140.2014  156.6370 H   0  0  0  0  0  0  0  0  0  0  0  0  # atno 8008 bound_to 7997
  154.6639  140.0557  157.0117 H   0  0  0  0  0  0  0  0  0  0  0  0  # atno 8009 bound_to 7997
  155.1236  140.3227  155.4494 H   0  0  0  0  0  0  0  0  0  0  0  0  # atno 8010 bound_to 7997
  140.5240  143.2328  151.7380 H   0  0  0  0  0  0  0  0  0  0  0  0  # atno 10167 bound_to 10162
  156.0774  130.5980  150.8659 H   0  0  0  0  0  0  0  0  0  0  0  0  # atno 10718 bound_to 10713
  153.7394  135.3226  155.3301 H   0  0  0  0  0  0  0  0  0  0  0  0  # atno 10763 bound_to 10752
  154.8300  135.4541  154.1042 H   0  0  0  0  0  0  0  0  0  0  0  0  # atno 10764 bound_to 10752
  153.2212  135.6948  153.8079 H   0  0  0  0  0  0  0  0  0  0  0  0  # atno 10765 bound_to 10752
  140.3561  134.2176  155.7676 H   0  0  0  0  0  0  0  0  0  0  0  0  # atno 11005 bound_to 11000
  144.6992  139.8840  143.7449 LP  0  0  0  0  0  0  0  0  0  0  0  0  # atno 17320 bound_to 7965
  146.0869  139.3858  143.0429 LP  0  0  0  0  0  0  0  0  0  0  0  0  # atno 17321 bound_to 7965
  139.4932  144.4213  151.9974 LP  0  0  0  0  0  0  0  0  0  0  0  0  # atno 17342 bound_to 10162
  140.3312  144.3314  150.5987 LP  0  0  0  0  0  0  0  0  0  0  0  0  # atno 17343 bound_to 10162
  157.5876  131.0945  150.9171 LP  0  0  0  0  0  0  0  0  0  0  0  0  # atno 17370 bound_to 10713
  156.9353  130.5364  149.5279 LP  0  0  0  0  0  0  0  0  0  0  0  0  # atno 17371 bound_to 10713
  141.1998  133.8003  157.0519 LP  0  0  0  0  0  0  0  0  0  0  0  0  # atno 17394 bound_to 11000
  140.0664  134.9726  157.1393 LP  0  0  0  0  0  0  0  0  0  0  0  0  # atno 17395 bound_to 11000

$$$$
