AV-unprocessed.smi:1555|AV-procd|sdf|6266|dock3
  -GOLD-   22720 6453D 1   1.00000     0.00000
 Structure written by MMmdl.
 41 42  0  0  0  0  0  0  0  0  1 V2000
  153.0969  142.0678  161.1216 C   0  0  0  0  0  0  0  0  0  0  0  0
  153.0011  142.4137  159.6267 C   0  0  2  0  0  0  0  0  0  0  0  0
  152.3578  143.7934  159.3655 C   0  0  0  0  0  0  0  0  0  0  0  0
  150.9772  143.8584  159.8053 N   0  0  0  0  0  0  0  0  0  0  0  0
  149.8482  143.9411  159.0013 C   0  0  0  0  0  0  0  0  0  0  0  0
  148.7639  143.9779  159.8486 C   0  0  0  0  0  0  0  0  0  0  0  0
  149.1996  143.9164  161.1703 N   0  0  0  0  0  0  0  0  0  0  0  0
  150.5203  143.8435  161.0651 C   0  0  0  0  0  0  0  0  0  0  0  0
  152.2485  141.3653  158.9438 N   0  0  0  0  0  0  0  0  0  0  0  0
  152.5368  140.0523  158.9630 C   0  0  0  0  0  0  0  0  0  0  0  0
  153.5052  139.6046  159.5790 O   0  0  0  0  0  0  0  0  0  0  0  0
  151.6819  139.2725  158.2532 N   0  0  0  0  0  0  0  0  0  0  0  0
  150.4690  139.7200  157.5477 C   0  0  0  0  0  0  0  0  0  0  0  0
  150.7361  139.6850  156.0324 C   0  0  0  0  0  0  0  0  0  0  0  0
  151.1690  138.2736  155.5699 C   0  0  0  0  0  0  0  0  0  0  0  0
  151.5568  138.2405  154.0804 C   0  0  0  0  0  0  0  0  0  0  0  0
  151.9712  136.9454  153.6988 O   0  0  0  0  0  0  0  0  0  0  0  0
  152.3159  137.7396  156.4568 C   0  0  0  0  0  0  0  0  0  0  0  0
  151.9767  137.8661  157.9536 C   0  0  0  0  0  0  0  0  0  0  0  0
  153.7307  142.7751  161.6570 H   0  0  0  0  0  0  0  0  0  0  0  0
  153.5261  141.0760  161.2679 H   0  0  0  0  0  0  0  0  0  0  0  0
  152.1136  142.0781  161.5934 H   0  0  0  0  0  0  0  0  0  0  0  0
  154.0173  142.4209  159.2279 H   0  0  0  0  0  0  0  0  0  0  0  0
  152.9099  144.5789  159.8829 H   0  0  0  0  0  0  0  0  0  0  0  0
  152.3963  144.0352  158.3021 H   0  0  0  0  0  0  0  0  0  0  0  0
  149.9088  143.9672  157.9231 H   0  0  0  0  0  0  0  0  0  0  0  0
  147.7125  144.0415  159.6103 H   0  0  0  0  0  0  0  0  0  0  0  0
  151.1708  143.7832  161.9254 H   0  0  0  0  0  0  0  0  0  0  0  0
  151.4396  141.6589  158.4159 H   0  0  0  0  0  0  0  0  0  0  0  0
  149.6446  139.0492  157.7937 H   0  0  0  0  0  0  0  0  0  0  0  0
  150.1256  140.7121  157.8402 H   0  0  0  0  0  0  0  0  0  0  0  0
  149.8388  139.9972  155.4975 H   0  0  0  0  0  0  0  0  0  0  0  0
  151.5119  140.4111  155.7852 H   0  0  0  0  0  0  0  0  0  0  0  0
  150.3193  137.6031  155.7098 H   0  0  0  0  0  0  0  0  0  0  0  0
  150.7210  138.5522  153.4533 H   0  0  0  0  0  0  0  0  0  0  0  0
  152.3791  138.9298  153.8868 H   0  0  0  0  0  0  0  0  0  0  0  0
  151.5207  136.7081  152.9025 H   0  0  0  0  0  0  0  0  0  0  0  0
  152.5217  136.6969  156.2130 H   0  0  0  0  0  0  0  0  0  0  0  0
  153.2329  138.2924  156.2471 H   0  0  0  0  0  0  0  0  0  0  0  0
  152.7954  137.4676  158.5545 H   0  0  0  0  0  0  0  0  0  0  0  0
  151.1076  137.2527  158.1958 H   0  0  0  0  0  0  0  0  0  0  0  0
  1  2  1  0  0  0  0
  1 20  1  0  0  0  0
  1 21  1  0  0  0  0
  1 22  1  0  0  0  0
  2  3  1  0  0  0  0
  2  9  1  0  0  0  0
  2 23  1  0  0  0  0
  3  4  1  0  0  0  0
  3 24  1  0  0  0  0
  3 25  1  0  0  0  0
  4  8  1  0  0  0  0
  4  5  1  0  0  0  0
  5  6  2  0  0  0  0
  5 26  1  0  0  0  0
  6  7  1  0  0  0  0
  6 27  1  0  0  0  0
  7  8  2  0  0  0  0
  8 28  1  0  0  0  0
  9 10  1  0  0  0  0
  9 29  1  0  0  0  0
 10 11  2  0  0  0  0
 10 12  1  0  0  0  0
 12 19  1  0  0  0  0
 12 13  1  0  0  0  0
 13 14  1  0  0  0  0
 13 30  1  0  0  0  0
 13 31  1  0  0  0  0
 14 15  1  0  0  0  0
 14 32  1  0  0  0  0
 14 33  1  0  0  0  0
 15 16  1  0  0  0  0
 15 18  1  0  0  0  0
 15 34  1  0  0  0  0
 16 17  1  0  0  0  0
 16 35  1  0  0  0  0
 16 36  1  0  0  0  0
 17 37  1  0  0  0  0
 18 19  1  0  0  0  0
 18 38  1  0  0  0  0
 18 39  1  0  0  0  0
 19 40  1  0  0  0  0
 19 41  1  0  0  0  0
M  END
> <s_m_source_file>
AV-unprocessed.smi

> <i_m_source_file_index>
1555

> <i_lp_mmshare_version>
43012

> <i_f3d_flags>
0

> <s_epik_input>
W2NIXTFuW2NIXVtjSF1uMVtDSDJdW0NAQEhdKFtDSDNdKVtOSF1DKD1PKU4yW0NIMl1bQ0gyXVtDSF0oW0NIMl1bT0hdKVtDSDJdW0NIMl0y

> <s_epik_cmdline>
J2VwaWtfcHl0aG9uJywgJy1waCcsICc3LjAnLCAnLXRuJywgJzgnLCAnLW1hJywgJzIwMCcsICctbWV0YWxfYmluZGluZycsICctaW1hZScsICc8aW5maWxlLm1hZT4nLCAnLW9tYWUnLCAnPG91dGZpbGUubWFlPic=

> <r_lp_tautomer_probability>
1

> <r_epik_Ionization_Penalty>
0.625883

> <r_epik_Ionization_Penalty_Charging>
0.625812

> <r_epik_Ionization_Penalty_Neutral>
7.07114e-05

> <r_epik_State_Penalty>
0.642234

> <r_epik_Charging_Adjusted_Penalty>
1.26805

> <i_epik_Tot_Q>
0

> <i_epik_Tot_abs_Q>
0

> <r_epik_Metal_State_Penalty>
0.307949

> <b_epik_Metal_Only>
0

> <s_lp_Force_Field>
OPLS_2005

> <r_lp_Energy>
32.8415

> <b_lp_Chiralities_Consistent>
1

> <s_lp_Variant>
AV-unprocessed.smi:1555-3

> <Gold.Version>
5.8.1

> <Gold.Id.Protein>
6NUR|6NUR_protein|mol2

> <Gold.PLP.Fitness>
47.3136

> <Gold.PLP.PLP>
-38.5191

> <Gold.PLP.part.hbond>
-2.5514

> <Gold.PLP.part.metal>
0.0000

> <Gold.PLP.part.buried>
-7.6557

> <Gold.PLP.part.nonpolar>
-29.0913

> <Gold.PLP.part.repulsive>
0.3182

> <Gold.PLP.ligand.clash>
0.0000

> <Gold.PLP.ligand.torsion>
0.1379

> <Gold.PLP.Chemscore.Hbond>
2.0000

> <Gold.PLP.Chemscore.CHOScore>
1.0000

> <Gold.PLP.Chemscore.Metal>
0.0000

> <Gold.Chemscore.Hbonds>
donor molecule, donor type, donor heavy atom, donor atom, acceptor molecule, acceptor atom, score
      L1  H    17    37       P1  7949  1.00
      P1  H  6933  6944       L1     7  0.34
      P1  H 10752 10764       L1    17  1.00
      L1  C     5    26       P1  8028  0.90
      L1  C     5    26       P1  8029  0.02

> <Gold.PLP.Chemscore.Internal.Correction>
0.0704

> <Gold.Rescore>
     Score         DG    S(hbond)    S(metal)    S(lipo)     H(rot)  DE(clash)    DE(int)     intcor
     14.69     -15.80       1.85        0.00      89.66       2.49       0.53       0.58       ----

> <Gold.Chemscore.Fitness>
14.6850

> <Gold.Chemscore.DG>
-15.7965

> <Gold.Chemscore.ZeroCoef>
-5.4800

> <Gold.Chemscore.Hbond>
1.8541

> <Gold.Chemscore.Metal>
0.0000

> <Gold.Chemscore.Lipo>
89.6554

> <Gold.Chemscore.Internal_Hbond>
0.0000

> <Gold.Chemscore.DEClash>
0.5270

> <Gold.Chemscore.DEInternal>
0.5845

> <Gold.Chemscore.Rot>
2.4867

> <Gold.Chemscore.Internal.Correction>
   9.000000E+99

> <Gold.Chemscore.Hbonds>
donor molecule, donor type, donor heavy atom, donor atom, acceptor molecule, acceptor atom, score
      L1  H    17    37       P1  7949  0.93
      P1  H  6933  6944       L1     7  0.03
      P1  H 10752 10764       L1    17  0.44

> <Gold.Chemscore.Hbond.Weighted>
-6.1928

> <Gold.Chemscore.Metal.Weighted>
-0.0000

> <Gold.Chemscore.Lipo.Weighted>
-10.4897

> <Gold.Chemscore.Internal_Hbond.Weighted>
0.0000

> <Gold.Chemscore.DEClash.Weighted>
0.5270

> <Gold.Chemscore.DEInternal.Weighted>
0.5845

> <Gold.Chemscore.Rot.Weighted>
6.3660

> <Gold.Chemscore.Internal.Correction.Weighted>
   9.000000E+99

> <Gold.Protein.RotatedTorsions>
[ 6907 6896 6895 6894 ] final  -99.88 input  -60.11 | X-H torsion
[ 7974 7965 7964 7962 ] final -103.90 input  175.53 | X-H torsion
[ 8008 7997 7996 7995 ] final -123.43 input   59.86 | X-H torsion
[ 10167 10162 10161 10158 ] final   -0.22 input  -65.29 | X-H torsion
[ 10718 10713 10712 10709 ] final  -31.95 input   66.30 | X-H torsion
[ 10763 10752 10751 10750 ] final  -99.75 input  -60.55 | X-H torsion
[ 11005 11000 10999 10996 ] final  -44.01 input  -57.11 | X-H torsion

> <Gold.Protein.ActiveResidues>
 VAL166  LYS551  ARG553  GLY616  TRP617  ASP618  TYR619  PRO620  LYS621  CYS622 
 ASP623  PHE694  ASN695  SER759  ASP760  ASP761  ALA762  ILE779  LEU786  VAL792 
 PHE793  MET794  SER795  GLU796  ALA797  LYS798  CYS799  TRP800  GLU811  SER814 

> <Gold.Protein.RotatedAtoms>
  150.7096  134.0972  159.3952 H   0  0  0  0  0  0  0  0  0  0  0  0  # atno 6907 bound_to 6896
  151.8958  135.0396  160.0511 H   0  0  0  0  0  0  0  0  0  0  0  0  # atno 6908 bound_to 6896
  152.2454  133.5135  159.5331 H   0  0  0  0  0  0  0  0  0  0  0  0  # atno 6909 bound_to 6896
  145.2499  140.9234  143.3101 H   0  0  0  0  0  0  0  0  0  0  0  0  # atno 7974 bound_to 7965
  155.1804  140.0410  157.2881 H   0  0  0  0  0  0  0  0  0  0  0  0  # atno 8008 bound_to 7997
  154.6208  140.2500  155.7525 H   0  0  0  0  0  0  0  0  0  0  0  0  # atno 8009 bound_to 7997
  156.2432  140.2895  156.0514 H   0  0  0  0  0  0  0  0  0  0  0  0  # atno 8010 bound_to 7997
  140.6758  143.6921  150.8019 H   0  0  0  0  0  0  0  0  0  0  0  0  # atno 10167 bound_to 10162
  156.3809  130.4356  149.7470 H   0  0  0  0  0  0  0  0  0  0  0  0  # atno 10718 bound_to 10713
  154.7523  135.4960  153.9312 H   0  0  0  0  0  0  0  0  0  0  0  0  # atno 10763 bound_to 10752
  153.1157  135.6720  153.9430 H   0  0  0  0  0  0  0  0  0  0  0  0  # atno 10764 bound_to 10752
  153.9176  135.3092  155.3427 H   0  0  0  0  0  0  0  0  0  0  0  0  # atno 10765 bound_to 10752
  141.0422  133.6775  156.2812 H   0  0  0  0  0  0  0  0  0  0  0  0  # atno 11005 bound_to 11000
  144.9512  139.4081  143.6401 LP  0  0  0  0  0  0  0  0  0  0  0  0  # atno 17320 bound_to 7965
  146.3305  139.8520  142.8871 LP  0  0  0  0  0  0  0  0  0  0  0  0  # atno 17321 bound_to 7965
  140.0613  143.5152  152.2626 LP  0  0  0  0  0  0  0  0  0  0  0  0  # atno 17342 bound_to 10162
  139.6049  144.7593  151.3085 LP  0  0  0  0  0  0  0  0  0  0  0  0  # atno 17343 bound_to 10162
  156.4561  130.7929  151.2950 LP  0  0  0  0  0  0  0  0  0  0  0  0  # atno 17370 bound_to 10713
  157.7492  131.0080  150.3213 LP  0  0  0  0  0  0  0  0  0  0  0  0  # atno 17371 bound_to 10713
  140.6214  134.5358  157.5548 LP  0  0  0  0  0  0  0  0  0  0  0  0  # atno 17394 bound_to 11000
  139.9284  134.8011  156.1001 LP  0  0  0  0  0  0  0  0  0  0  0  0  # atno 17395 bound_to 11000

$$$$
