AV-unprocessed.smi:1047|AV-procd|sdf|4569|dock4
  -GOLD-   22720 3 23D 1   1.00000     0.00000
 Structure written by MMmdl.
 56 58  0  0  0  0  0  0  0  0  2 V2000
  147.6131  133.0495  151.9266 C   0  0  0  0  0  0  0  0  0  0  0  0
  148.1978  132.1905  153.0570 C   0  0  0  0  0  0  0  0  0  0  0  0
  149.3531  132.7720  153.7390 N   0  0  0  0  0  0  0  0  0  0  0  0
  149.7355  131.9680  154.8944 C   0  0  0  0  0  0  0  0  0  0  0  0
  150.9478  132.5619  155.6296 C   0  0  0  0  0  0  0  0  0  0  0  0
  150.6577  133.9013  156.0150 O   0  0  0  0  0  0  0  0  0  0  0  0
  150.3327  134.7416  154.9100 C   0  0  2  0  0  0  0  0  0  0  0  0
  150.0428  136.1488  155.4487 C   0  0  0  0  0  0  0  0  0  0  0  0
  150.2927  137.1779  154.4200 N   0  3  0  0  0  0  0  0  0  0  0  0
  151.6883  137.6567  154.3824 C   0  0  0  0  0  0  0  0  0  0  0  0
  151.8227  139.0599  155.0028 C   0  0  2  0  0  0  0  0  0  0  0  0
  153.1324  139.5394  154.7661 O   0  0  0  0  0  0  0  0  0  0  0  0
  151.5381  139.0931  156.5209 C   0  0  0  0  0  0  0  0  0  0  0  0
  151.0670  140.3843  156.9965 N   0  0  0  0  0  0  0  0  0  0  0  0
  150.1277  141.1648  156.4273 C   0  0  0  0  0  0  0  0  0  0  0  0
  149.8548  142.3222  157.0218 N   0  0  0  0  0  0  0  0  0  0  0  0
  150.7079  142.2849  158.1110 C   0  0  0  0  0  0  0  0  0  0  0  0
  150.9157  143.2237  159.1453 C   0  0  0  0  0  0  0  0  0  0  0  0
  151.8565  142.9767  160.1702 C   0  0  0  0  0  0  0  0  0  0  0  0
  152.0531  144.0172  161.2585 C   0  0  0  0  0  0  0  0  0  0  0  0
  152.6036  141.7715  160.1734 C   0  0  0  0  0  0  0  0  0  0  0  0
  153.6200  141.4846  161.2646 C   0  0  0  0  0  0  0  0  0  0  0  0
  152.4063  140.8217  159.1496 C   0  0  0  0  0  0  0  0  0  0  0  0
  151.4735  141.0823  158.1298 C   0  0  0  0  0  0  0  0  0  0  0  0
  149.1142  134.1456  154.1756 C   0  0  0  0  0  0  0  0  0  0  0  0
  146.8330  132.5030  151.3964 H   0  0  0  0  0  0  0  0  0  0  0  0
  148.3802  133.3183  151.1997 H   0  0  0  0  0  0  0  0  0  0  0  0
  147.1645  133.9691  152.3018 H   0  0  0  0  0  0  0  0  0  0  0  0
  147.4149  131.9607  153.7816 H   0  0  0  0  0  0  0  0  0  0  0  0
  148.4918  131.2350  152.6209 H   0  0  0  0  0  0  0  0  0  0  0  0
  148.8958  131.8927  155.5873 H   0  0  0  0  0  0  0  0  0  0  0  0
  149.9697  130.9509  154.5779 H   0  0  0  0  0  0  0  0  0  0  0  0
  151.1762  131.9758  156.5198 H   0  0  0  0  0  0  0  0  0  0  0  0
  151.8346  132.5416  154.9942 H   0  0  0  0  0  0  0  0  0  0  0  0
  151.1814  134.7839  154.2247 H   0  0  0  0  0  0  0  0  0  0  0  0
  149.0000  136.2173  155.7614 H   0  0  0  0  0  0  0  0  0  0  0  0
  150.6564  136.3488  156.3283 H   0  0  0  0  0  0  0  0  0  0  0  0
  150.0675  136.7877  153.5154 H   0  0  0  0  0  0  0  0  0  0  0  0
  152.3043  136.9504  154.9399 H   0  0  0  0  0  0  0  0  0  0  0  0
  152.0462  137.6518  153.3517 H   0  0  0  0  0  0  0  0  0  0  0  0
  151.1249  139.7382  154.5102 H   0  0  0  0  0  0  0  0  0  0  0  0
  153.2693  139.5980  153.8325 H   0  0  0  0  0  0  0  0  0  0  0  0
  150.7959  138.3371  156.7818 H   0  0  0  0  0  0  0  0  0  0  0  0
  152.4419  138.8346  157.0735 H   0  0  0  0  0  0  0  0  0  0  0  0
  149.6223  140.8703  155.5187 H   0  0  0  0  0  0  0  0  0  0  0  0
  150.3455  144.1410  159.1434 H   0  0  0  0  0  0  0  0  0  0  0  0
  151.8523  143.5883  162.2406 H   0  0  0  0  0  0  0  0  0  0  0  0
  151.3835  144.8670  161.1229 H   0  0  0  0  0  0  0  0  0  0  0  0
  153.0767  144.3926  161.2462 H   0  0  0  0  0  0  0  0  0  0  0  0
  154.0971  140.5149  161.1200 H   0  0  0  0  0  0  0  0  0  0  0  0
  153.1392  141.4771  162.2430 H   0  0  0  0  0  0  0  0  0  0  0  0
  154.4014  142.2450  161.2680 H   0  0  0  0  0  0  0  0  0  0  0  0
  152.9692  139.9004  159.1429 H   0  0  0  0  0  0  0  0  0  0  0  0
  148.8821  134.7760  153.3175 H   0  0  0  0  0  0  0  0  0  0  0  0
  148.2423  134.1773  154.8314 H   0  0  0  0  0  0  0  0  0  0  0  0
  149.6831  137.9647  154.5916 H   0  0  0  0  0  0  0  0  0  0  0  0
  1  2  1  0  0  0  0
  1 26  1  0  0  0  0
  1 27  1  0  0  0  0
  1 28  1  0  0  0  0
  2  3  1  0  0  0  0
  2 29  1  0  0  0  0
  2 30  1  0  0  0  0
  3 25  1  0  0  0  0
  3  4  1  0  0  0  0
  4  5  1  0  0  0  0
  4 31  1  0  0  0  0
  4 32  1  0  0  0  0
  5  6  1  0  0  0  0
  5 33  1  0  0  0  0
  5 34  1  0  0  0  0
  6  7  1  0  0  0  0
  7  8  1  0  0  0  0
  7 25  1  0  0  0  0
  7 35  1  0  0  0  0
  8  9  1  0  0  0  0
  8 36  1  0  0  0  0
  8 37  1  0  0  0  0
  9 10  1  0  0  0  0
  9 38  1  0  0  0  0
  9 56  1  0  0  0  0
 10 11  1  0  0  0  0
 10 39  1  0  0  0  0
 10 40  1  0  0  0  0
 11 12  1  0  0  0  0
 11 13  1  0  0  0  0
 11 41  1  0  0  0  0
 12 42  1  0  0  0  0
 13 14  1  0  0  0  0
 13 43  1  0  0  0  0
 13 44  1  0  0  0  0
 14 24  1  0  0  0  0
 14 15  1  0  0  0  0
 15 16  2  0  0  0  0
 15 45  1  0  0  0  0
 16 17  1  0  0  0  0
 17 24  2  0  0  0  0
 17 18  1  0  0  0  0
 18 19  2  0  0  0  0
 18 46  1  0  0  0  0
 19 20  1  0  0  0  0
 19 21  1  0  0  0  0
 20 47  1  0  0  0  0
 20 48  1  0  0  0  0
 20 49  1  0  0  0  0
 21 22  1  0  0  0  0
 21 23  2  0  0  0  0
 22 50  1  0  0  0  0
 22 51  1  0  0  0  0
 22 52  1  0  0  0  0
 23 24  1  0  0  0  0
 23 53  1  0  0  0  0
 25 54  1  0  0  0  0
 25 55  1  0  0  0  0
M  CHG  1   9   1
M  END
> <s_m_source_file>
AV-unprocessed.smi

> <i_m_source_file_index>
1047

> <i_lp_mmshare_version>
43012

> <i_f3d_flags>
0

> <s_epik_input>
W0NIM11bQ0gyXU4xW0NIMl1bQ0gyXU9bQ0BIXShbQ0gyXTEpW0NIMl1bTkhdW0NIMl1bQ0BIXShbT0hdKVtDSDJdbihbY0hdbjIpYyhjMjMpW2NIXWMoW0NIM10pYyhbY0hdMylbQ0gzXQ==

> <s_epik_cmdline>
J2VwaWtfcHl0aG9uJywgJy1waCcsICc3LjAnLCAnLXRuJywgJzgnLCAnLW1hJywgJzIwMCcsICctbWV0YWxfYmluZGluZycsICctaW1hZScsICc8aW5maWxlLm1hZT4nLCAnLW9tYWUnLCAnPG91dGZpbGUubWFlPic=

> <r_epik_Ionization_Penalty>
0.692425

> <r_epik_Ionization_Penalty_Charging>
0.0243549

> <r_epik_Ionization_Penalty_Neutral>
0.66807

> <r_epik_State_Penalty>
0.592789

> <r_epik_Charging_Adjusted_Penalty>
0.617144

> <i_epik_Tot_Q>
1

> <i_epik_Tot_abs_Q>
1

> <r_epik_Metal_State_Penalty>
0.508021

> <b_epik_Metal_Only>
0

> <s_lp_Force_Field>
OPLS_2005

> <r_lp_Energy>
30.0257

> <b_lp_Chiralities_Consistent>
1

> <s_lp_Variant>
AV-unprocessed.smi:1047-10

> <Gold.Version>
5.8.1

> <Gold.Id.Protein>
6NUR|6NUR_protein|mol2

> <Gold.PLP.Fitness>
58.1104

> <Gold.PLP.PLP>
-51.4019

> <Gold.PLP.part.hbond>
-3.0000

> <Gold.PLP.part.metal>
0.0000

> <Gold.PLP.part.buried>
-6.7047

> <Gold.PLP.part.nonpolar>
-43.2867

> <Gold.PLP.part.repulsive>
0.9178

> <Gold.PLP.ligand.clash>
0.0000

> <Gold.PLP.ligand.torsion>
1.3092

> <Gold.PLP.Chemscore.Hbond>
3.0000

> <Gold.PLP.Chemscore.CHOScore>
0.0000

> <Gold.PLP.Chemscore.Metal>
0.0000

> <Gold.Chemscore.Hbonds>
donor molecule, donor type, donor heavy atom, donor atom, acceptor molecule, acceptor atom, score
      L1  H     9    38       P1  7948  1.70
      P1  H  7997  8009       L1    12  1.00

> <Gold.PLP.Chemscore.Internal.Correction>
0.3269

> <Gold.Rescore>
     Score         DG    S(hbond)    S(metal)    S(lipo)     H(rot)  DE(clash)    DE(int)     intcor
     17.86     -19.35       1.54        0.00     131.44       2.60       0.08       1.41       ----

> <Gold.Chemscore.Fitness>
17.8625

> <Gold.Chemscore.DG>
-19.3493

> <Gold.Chemscore.ZeroCoef>
-5.4800

> <Gold.Chemscore.Hbond>
1.5448

> <Gold.Chemscore.Metal>
0.0000

> <Gold.Chemscore.Lipo>
131.4379

> <Gold.Chemscore.Internal_Hbond>
0.0000

> <Gold.Chemscore.DEClash>
0.0790

> <Gold.Chemscore.DEInternal>
1.4079

> <Gold.Chemscore.Rot>
2.6049

> <Gold.Chemscore.Internal.Correction>
   9.000000E+99

> <Gold.Chemscore.Hbonds>
donor molecule, donor type, donor heavy atom, donor atom, acceptor molecule, acceptor atom, score
      L1  H     9    38       P1  7948  0.14
      P1  H  7997  8009       L1    12  0.70

> <Gold.Chemscore.Hbond.Weighted>
-5.1595

> <Gold.Chemscore.Metal.Weighted>
-0.0000

> <Gold.Chemscore.Lipo.Weighted>
-15.3782

> <Gold.Chemscore.Internal_Hbond.Weighted>
0.0000

> <Gold.Chemscore.DEClash.Weighted>
0.0790

> <Gold.Chemscore.DEInternal.Weighted>
1.4079

> <Gold.Chemscore.Rot.Weighted>
6.6685

> <Gold.Chemscore.Internal.Correction.Weighted>
   9.000000E+99

> <Gold.Protein.RotatedTorsions>
[ 6907 6896 6895 6894 ] final -120.47 input  -60.11 | X-H torsion
[ 7974 7965 7964 7962 ] final  -58.23 input  175.53 | X-H torsion
[ 8008 7997 7996 7995 ] final -117.64 input   59.86 | X-H torsion
[ 10167 10162 10161 10158 ] final   27.02 input  -65.29 | X-H torsion
[ 10718 10713 10712 10709 ] final  -57.75 input   66.30 | X-H torsion
[ 10763 10752 10751 10750 ] final  117.01 input  -60.55 | X-H torsion
[ 11005 11000 10999 10996 ] final  -99.52 input  -57.11 | X-H torsion

> <Gold.Protein.ActiveResidues>
 VAL166  LYS551  ARG553  GLY616  TRP617  ASP618  TYR619  PRO620  LYS621  CYS622 
 ASP623  PHE694  ASN695  SER759  ASP760  ASP761  ALA762  ILE779  LEU786  VAL792 
 PHE793  MET794  SER795  GLU796  ALA797  LYS798  CYS799  TRP800  GLU811  SER814 

> <Gold.Protein.RotatedAtoms>
  150.8396  133.7957  159.3065 H   0  0  0  0  0  0  0  0  0  0  0  0  # atno 6907 bound_to 6896
  151.5663  135.1062  159.9994 H   0  0  0  0  0  0  0  0  0  0  0  0  # atno 6908 bound_to 6896
  152.4462  133.7499  159.6744 H   0  0  0  0  0  0  0  0  0  0  0  0  # atno 6909 bound_to 6896
  145.8418  140.8412  143.0031 H   0  0  0  0  0  0  0  0  0  0  0  0  # atno 7974 bound_to 7965
  155.0869  140.0394  157.2656 H   0  0  0  0  0  0  0  0  0  0  0  0  # atno 8008 bound_to 7997
  154.6863  140.2644  155.6833 H   0  0  0  0  0  0  0  0  0  0  0  0  # atno 8009 bound_to 7997
  156.2713  140.2768  156.1425 H   0  0  0  0  0  0  0  0  0  0  0  0  # atno 8010 bound_to 7997
  140.4973  144.0371  150.6319 H   0  0  0  0  0  0  0  0  0  0  0  0  # atno 10167 bound_to 10162
  156.1187  130.4168  150.0483 H   0  0  0  0  0  0  0  0  0  0  0  0  # atno 10718 bound_to 10713
  153.5459  135.3549  155.2738 H   0  0  0  0  0  0  0  0  0  0  0  0  # atno 10763 bound_to 10752
  154.8712  135.4102  154.2991 H   0  0  0  0  0  0  0  0  0  0  0  0  # atno 10764 bound_to 10752
  153.3708  135.7064  153.6708 H   0  0  0  0  0  0  0  0  0  0  0  0  # atno 10765 bound_to 10752
  141.1305  133.8328  157.0982 H   0  0  0  0  0  0  0  0  0  0  0  0  # atno 11005 bound_to 11000
  144.6733  140.0823  143.7469 LP  0  0  0  0  0  0  0  0  0  0  0  0  # atno 17320 bound_to 7965
  145.9457  139.2699  143.1242 LP  0  0  0  0  0  0  0  0  0  0  0  0  # atno 17321 bound_to 7965
  140.3657  143.2883  152.0334 LP  0  0  0  0  0  0  0  0  0  0  0  0  # atno 17342 bound_to 10162
  139.4864  144.6269  151.7147 LP  0  0  0  0  0  0  0  0  0  0  0  0  # atno 17343 bound_to 10162
  156.8427  130.9431  151.3631 LP  0  0  0  0  0  0  0  0  0  0  0  0  # atno 17370 bound_to 10713
  157.6371  130.8775  149.9378 LP  0  0  0  0  0  0  0  0  0  0  0  0  # atno 17371 bound_to 10713
  140.0350  134.9883  157.0853 LP  0  0  0  0  0  0  0  0  0  0  0  0  # atno 17394 bound_to 11000
  140.4225  134.1865  155.7165 LP  0  0  0  0  0  0  0  0  0  0  0  0  # atno 17395 bound_to 11000

$$$$
