AV-unprocessed.smi:196|AV-procd|sdf|1537|dock2
  -GOLD-   2262019393D 1   1.00000     0.00000
 Structure written by MMmdl.
 47 50  0  0  0  0  0  0  0  0  1 V2000
  145.5619  136.2029  151.3143 C   0  0  0  0  0  0  0  0  0  0  0  0
  145.0606  134.8682  151.8884 C   0  0  1  0  0  0  0  0  0  0  0  0
  143.9182  135.0716  152.7195 O   0  0  0  0  0  0  0  0  0  0  0  0
  142.8380  134.2621  152.2754 C   0  0  0  0  0  0  0  0  0  0  0  0
  143.5049  133.0995  151.5523 C   0  0  0  0  0  0  0  0  0  0  0  0
  144.6847  133.7721  150.8652 C   0  0  1  0  0  0  0  0  0  0  0  0
  144.2264  134.3472  149.6511 O   0  0  0  0  0  0  0  0  0  0  0  0
  145.8588  132.8174  150.5442 C   0  0  0  0  0  0  0  0  0  0  0  0
  146.2176  131.9474  151.6531 N   0  0  0  0  0  0  0  0  0  0  0  0
  145.5792  130.7864  152.0281 C   0  0  0  0  0  0  0  0  0  0  0  0
  146.0910  130.1784  153.0636 N   0  0  0  0  0  0  0  0  0  0  0  0
  147.1699  130.9763  153.4223 C   0  0  0  0  0  0  0  0  0  0  0  0
  148.1542  130.9001  154.4430 C   0  0  0  0  0  0  0  0  0  0  0  0
  148.1520  129.8839  155.3462 N   0  0  0  0  0  0  0  0  0  0  0  0
  147.9504  130.3787  156.7039 C   0  0  0  0  0  0  0  0  0  0  0  0
  149.3361  130.4005  157.3701 C   0  0  2  0  0  0  0  0  0  0  0  0
  149.7802  131.6493  157.5169 F   0  0  0  0  0  0  0  0  0  0  0  0
  150.2524  129.6154  156.4230 C   0  0  0  0  0  0  0  0  0  0  0  0
  149.2734  128.9389  155.4492 C   0  0  2  0  0  0  0  0  0  0  0  0
  149.8889  128.4190  154.1322 C   0  0  0  0  0  0  0  0  0  0  0  0
  151.2056  128.5763  153.9729 N   0  0  0  0  0  0  0  0  0  0  0  0
  149.2031  127.8434  153.2887 O   0  0  0  0  0  0  0  0  0  0  0  0
  149.0736  131.9005  154.5060 N   0  0  0  0  0  0  0  0  0  0  0  0
  149.0490  132.8934  153.6124 C   0  0  0  0  0  0  0  0  0  0  0  0
  148.2012  133.0831  152.5993 N   0  0  0  0  0  0  0  0  0  0  0  0
  147.2654  132.0925  152.5454 C   0  0  0  0  0  0  0  0  0  0  0  0
  149.2981  129.9535  158.3639 H   0  0  0  0  0  0  0  0  0  0  0  0
  148.8674  128.0534  155.9419 H   0  0  0  0  0  0  0  0  0  0  0  0
  146.4254  136.0513  150.6665 H   0  0  0  0  0  0  0  0  0  0  0  0
  145.8622  136.8782  152.1154 H   0  0  0  0  0  0  0  0  0  0  0  0
  144.7881  136.7073  150.7353 H   0  0  0  0  0  0  0  0  0  0  0  0
  145.8321  134.4754  152.5523 H   0  0  0  0  0  0  0  0  0  0  0  0
  142.2124  133.9382  153.1072 H   0  0  0  0  0  0  0  0  0  0  0  0
  142.2191  134.8390  151.5870 H   0  0  0  0  0  0  0  0  0  0  0  0
  143.8599  132.3800  152.2911 H   0  0  0  0  0  0  0  0  0  0  0  0
  142.8351  132.5756  150.8690 H   0  0  0  0  0  0  0  0  0  0  0  0
  144.9555  134.4011  149.0525 H   0  0  0  0  0  0  0  0  0  0  0  0
  145.6120  132.1934  149.6842 H   0  0  0  0  0  0  0  0  0  0  0  0
  146.7445  133.3875  150.2613 H   0  0  0  0  0  0  0  0  0  0  0  0
  144.7127  130.4049  151.5078 H   0  0  0  0  0  0  0  0  0  0  0  0
  147.4643  131.3561  156.7464 H   0  0  0  0  0  0  0  0  0  0  0  0
  147.2938  129.6790  157.2224 H   0  0  0  0  0  0  0  0  0  0  0  0
  150.9271  130.2910  155.8953 H   0  0  0  0  0  0  0  0  0  0  0  0
  150.8666  128.8915  156.9596 H   0  0  0  0  0  0  0  0  0  0  0  0
  151.6553  128.2482  153.1309 H   0  0  0  0  0  0  0  0  0  0  0  0
  151.7475  129.0198  154.7004 H   0  0  0  0  0  0  0  0  0  0  0  0
  149.8176  133.6434  153.7259 H   0  0  0  0  0  0  0  0  0  0  0  0
  1  2  1  0  0  0  0
  1 29  1  0  0  0  0
  1 30  1  0  0  0  0
  1 31  1  0  0  0  0
  2  6  1  0  0  0  0
  2  3  1  0  0  0  0
  2 32  1  0  0  0  0
  3  4  1  0  0  0  0
  4  5  1  0  0  0  0
  4 33  1  0  0  0  0
  4 34  1  0  0  0  0
  5  6  1  0  0  0  0
  5 35  1  0  0  0  0
  5 36  1  0  0  0  0
  6  7  1  0  0  0  0
  6  8  1  0  0  0  0
  7 37  1  0  0  0  0
  8  9  1  0  0  0  0
  8 38  1  0  0  0  0
  8 39  1  0  0  0  0
  9 26  1  0  0  0  0
  9 10  1  0  0  0  0
 10 11  2  0  0  0  0
 10 40  1  0  0  0  0
 11 12  1  0  0  0  0
 12 26  2  0  0  0  0
 12 13  1  0  0  0  0
 13 14  1  0  0  0  0
 13 23  2  0  0  0  0
 14 19  1  0  0  0  0
 14 15  1  0  0  0  0
 15 16  1  0  0  0  0
 15 41  1  0  0  0  0
 15 42  1  0  0  0  0
 16 27  1  0  0  0  0
 16 17  1  0  0  0  0
 16 18  1  0  0  0  0
 18 19  1  0  0  0  0
 18 43  1  0  0  0  0
 18 44  1  0  0  0  0
 19 28  1  0  0  0  0
 19 20  1  0  0  0  0
 20 21  1  0  0  0  0
 20 22  2  0  0  0  0
 21 45  1  0  0  0  0
 21 46  1  0  0  0  0
 23 24  1  0  0  0  0
 24 25  2  0  0  0  0
 24 47  1  0  0  0  0
 25 26  1  0  0  0  0
M  END
> <s_m_source_file>
AV-unprocessed.smi

> <i_m_source_file_index>
196

> <i_lp_mmshare_version>
43012

> <i_f3d_flags>
0

> <s_epik_input>
W0NIMl0xW0NIMl1PW0NAQEhdKFtDSDNdKVtDQEBdMShbT0hdKVtDSDJdbihbY0hdbjIpYyhjMjMpbltjSF1uYzNONFtDSDJdW0NASF0oRilbQ0gyXVtDQEhdNEMoPU8pW05IMl0=

> <s_epik_cmdline>
J2VwaWtfcHl0aG9uJywgJy1waCcsICc3LjAnLCAnLXRuJywgJzgnLCAnLW1hJywgJzIwMCcsICctbWV0YWxfYmluZGluZycsICctaW1hZScsICc8aW5maWxlLm1hZT4nLCAnLW9tYWUnLCAnPG91dGZpbGUubWFlPic=

> <r_lp_tautomer_probability>
1

> <r_epik_Ionization_Penalty>
0.000857933

> <r_epik_Ionization_Penalty_Charging>
0

> <r_epik_Ionization_Penalty_Neutral>
0.000857933

> <r_epik_State_Penalty>
0.000462053

> <r_epik_Charging_Adjusted_Penalty>
0.000462053

> <i_epik_Tot_Q>
0

> <i_epik_Tot_abs_Q>
0

> <r_epik_Metal_State_Penalty>
-0

> <b_epik_Metal_Only>
0

> <s_lp_Force_Field>
OPLS_2005

> <r_lp_Energy>
51.2848

> <b_lp_Chiralities_Consistent>
1

> <s_lp_Variant>
AV-unprocessed.smi:196-10

> <Gold.Version>
5.8.1

> <Gold.Id.Protein>
6NUR|6NUR_protein|mol2

> <Gold.PLP.Fitness>
39.1079

> <Gold.PLP.PLP>
-33.8937

> <Gold.PLP.part.hbond>
-2.2535

> <Gold.PLP.part.metal>
0.0000

> <Gold.PLP.part.buried>
-5.0231

> <Gold.PLP.part.nonpolar>
-27.3430

> <Gold.PLP.part.repulsive>
1.3377

> <Gold.PLP.ligand.clash>
0.0000

> <Gold.PLP.ligand.torsion>
0.4262

> <Gold.PLP.Chemscore.Hbond>
2.0000

> <Gold.PLP.Chemscore.CHOScore>
0.0000

> <Gold.PLP.Chemscore.Metal>
0.0000

> <Gold.Chemscore.Hbonds>
donor molecule, donor type, donor heavy atom, donor atom, acceptor molecule, acceptor atom, score
      L1  H     7    37       P1  7921  1.00
      L1  H    21    45       P1 10737  1.00

> <Gold.PLP.Chemscore.Internal.Correction>
0.0666

> <Gold.Rescore>
     Score         DG    S(hbond)    S(metal)    S(lipo)     H(rot)  DE(clash)    DE(int)     intcor
      9.88     -10.38       1.95        0.00      52.74       3.04       0.13       0.37       ----

> <Gold.Chemscore.Fitness>
9.8797

> <Gold.Chemscore.DG>
-10.3808

> <Gold.Chemscore.ZeroCoef>
-5.4800

> <Gold.Chemscore.Hbond>
1.9510

> <Gold.Chemscore.Metal>
0.0000

> <Gold.Chemscore.Lipo>
52.7353

> <Gold.Chemscore.Internal_Hbond>
0.0000

> <Gold.Chemscore.DEClash>
0.1312

> <Gold.Chemscore.DEInternal>
0.3699

> <Gold.Chemscore.Rot>
3.0413

> <Gold.Chemscore.Internal.Correction>
   9.000000E+99

> <Gold.Chemscore.Hbonds>
donor molecule, donor type, donor heavy atom, donor atom, acceptor molecule, acceptor atom, score
      L1  H     7    37       P1  7921  1.00
      L1  H    21    45       P1 10737  0.92

> <Gold.Chemscore.Hbond.Weighted>
-6.5164

> <Gold.Chemscore.Metal.Weighted>
-0.0000

> <Gold.Chemscore.Lipo.Weighted>
-6.1700

> <Gold.Chemscore.Internal_Hbond.Weighted>
0.0000

> <Gold.Chemscore.DEClash.Weighted>
0.1312

> <Gold.Chemscore.DEInternal.Weighted>
0.3699

> <Gold.Chemscore.Rot.Weighted>
7.7856

> <Gold.Chemscore.Internal.Correction.Weighted>
   9.000000E+99

> <Gold.Protein.RotatedTorsions>
[ 6907 6896 6895 6894 ] final   46.03 input  -60.11 | X-H torsion
[ 7974 7965 7964 7962 ] final   32.80 input  175.53 | X-H torsion
[ 8008 7997 7996 7995 ] final   91.25 input   59.86 | X-H torsion
[ 10167 10162 10161 10158 ] final -177.06 input  -65.29 | X-H torsion
[ 10718 10713 10712 10709 ] final   30.64 input   66.30 | X-H torsion
[ 10763 10752 10751 10750 ] final  -61.86 input  -60.55 | X-H torsion
[ 11005 11000 10999 10996 ] final   19.80 input  -57.11 | X-H torsion

> <Gold.Protein.ActiveResidues>
 VAL166  LYS551  ARG553  GLY616  TRP617  ASP618  TYR619  PRO620  LYS621  CYS622 
 ASP623  PHE694  ASN695  SER759  ASP760  ASP761  ALA762  ILE779  LEU786  VAL792 
 PHE793  MET794  SER795  GLU796  ALA797  LYS798  CYS799  TRP800  GLU811  SER814 

> <Gold.Protein.RotatedAtoms>
  152.2516  134.8126  160.0444 H   0  0  0  0  0  0  0  0  0  0  0  0  # atno 6907 bound_to 6896
  151.8805  133.3489  159.3773 H   0  0  0  0  0  0  0  0  0  0  0  0  # atno 6908 bound_to 6896
  150.7086  134.4950  159.5578 H   0  0  0  0  0  0  0  0  0  0  0  0  # atno 6909 bound_to 6896
  146.1463  139.6479  142.9129 H   0  0  0  0  0  0  0  0  0  0  0  0  # atno 7974 bound_to 7965
  156.0215  140.3340  155.7044 H   0  0  0  0  0  0  0  0  0  0  0  0  # atno 8008 bound_to 7997
  155.6015  140.0656  157.2749 H   0  0  0  0  0  0  0  0  0  0  0  0  # atno 8009 bound_to 7997
  154.4318  140.1809  156.1166 H   0  0  0  0  0  0  0  0  0  0  0  0  # atno 8010 bound_to 7997
  139.5499  144.2138  152.1057 H   0  0  0  0  0  0  0  0  0  0  0  0  # atno 10167 bound_to 10162
  157.2621  130.7166  149.6459 H   0  0  0  0  0  0  0  0  0  0  0  0  # atno 10718 bound_to 10713
  154.2910  135.6253  153.5385 H   0  0  0  0  0  0  0  0  0  0  0  0  # atno 10763 bound_to 10752
  152.9852  135.5655  154.5390 H   0  0  0  0  0  0  0  0  0  0  0  0  # atno 10764 bound_to 10752
  154.5001  135.2871  155.1404 H   0  0  0  0  0  0  0  0  0  0  0  0  # atno 10765 bound_to 10752
  140.4097  134.1631  155.7667 H   0  0  0  0  0  0  0  0  0  0  0  0  # atno 11005 bound_to 11000
  145.4930  141.0438  143.2582 LP  0  0  0  0  0  0  0  0  0  0  0  0  # atno 17320 bound_to 7965
  144.7850  139.6446  143.7138 LP  0  0  0  0  0  0  0  0  0  0  0  0  # atno 17321 bound_to 7965
  140.1631  144.5007  150.6621 LP  0  0  0  0  0  0  0  0  0  0  0  0  # atno 17342 bound_to 10162
  140.6758  143.2304  151.5511 LP  0  0  0  0  0  0  0  0  0  0  0  0  # atno 17343 bound_to 10162
  155.9664  130.4394  150.5257 LP  0  0  0  0  0  0  0  0  0  0  0  0  # atno 17370 bound_to 10713
  157.3164  131.0673  151.1964 LP  0  0  0  0  0  0  0  0  0  0  0  0  # atno 17371 bound_to 10713
  141.1826  133.8382  157.1205 LP  0  0  0  0  0  0  0  0  0  0  0  0  # atno 17394 bound_to 11000
  140.0276  134.9916  157.0717 LP  0  0  0  0  0  0  0  0  0  0  0  0  # atno 17395 bound_to 11000

$$$$
