AV-unprocessed.smi:1433|AV-procd|sdf|5837|dock3
  -GOLD-   22720 5503D 1   1.00000     0.00000
 Structure written by MMmdl.
 44 45  0  0  0  0  0  0  0  0  1 V2000
  153.9967  141.0651  161.3725 C   0  0  0  0  0  0  0  0  0  0  0  0
  154.1514  141.2148  159.8491 C   0  0  2  0  0  0  0  0  0  0  0  0
  153.1177  142.1707  159.2207 C   0  0  0  0  0  0  0  0  0  0  0  0
  151.7660  141.6057  159.1353 N   0  0  0  0  0  0  0  0  0  0  0  0
  150.7984  142.5304  158.4986 C   0  0  1  0  0  0  0  0  0  0  0  0
  150.8081  143.9432  159.1393 C   0  0  0  0  0  0  0  0  0  0  0  0
  151.0039  142.6764  156.9653 C   0  0  0  0  0  0  0  0  0  0  0  0
  149.9560  142.0077  156.2040 N   0  0  0  0  0  0  0  0  0  0  0  0
  150.1435  140.9537  155.3968 C   0  0  0  0  0  0  0  0  0  0  0  0
  151.2326  140.4017  155.2416 O   0  0  0  0  0  0  0  0  0  0  0  0
  148.9112  140.4447  154.6470 C   0  0  0  0  0  0  0  0  0  0  0  0
  147.8334  141.4179  154.6872 N   0  0  0  0  0  0  0  0  0  0  0  0
  147.2470  142.0889  153.6343 C   0  0  0  0  0  0  0  0  0  0  0  0
  146.2897  142.9095  154.1581 C   0  0  0  0  0  0  0  0  0  0  0  0
  146.3664  142.6685  155.5585 C   0  0  0  0  0  0  0  0  0  0  0  0
  147.2904  141.7748  155.8726 N   0  0  0  0  0  0  0  0  0  0  0  0
  151.8582  140.3201  158.4371 C   0  0  0  0  0  0  0  0  0  0  0  0
  152.8468  139.3456  159.1020 C   0  0  1  0  0  0  0  0  0  0  0  0
  152.9915  138.0423  158.3089 C   0  0  0  0  0  0  0  0  0  0  0  0
  154.1311  139.9535  159.1852 O   0  0  0  0  0  0  0  0  0  0  0  0
  154.1392  142.0238  161.8717 H   0  0  0  0  0  0  0  0  0  0  0  0
  154.7372  140.3721  161.7722 H   0  0  0  0  0  0  0  0  0  0  0  0
  153.0092  140.6983  161.6515 H   0  0  0  0  0  0  0  0  0  0  0  0
  155.1422  141.6343  159.6731 H   0  0  0  0  0  0  0  0  0  0  0  0
  153.1237  143.0809  159.8166 H   0  0  0  0  0  0  0  0  0  0  0  0
  153.4558  142.4492  158.2213 H   0  0  0  0  0  0  0  0  0  0  0  0
  149.7974  142.1217  158.6465 H   0  0  0  0  0  0  0  0  0  0  0  0
  150.1403  144.6395  158.6330 H   0  0  0  0  0  0  0  0  0  0  0  0
  151.8080  144.3779  159.1183 H   0  0  0  0  0  0  0  0  0  0  0  0
  150.4671  143.9306  160.1735 H   0  0  0  0  0  0  0  0  0  0  0  0
  151.0470  143.7337  156.6971 H   0  0  0  0  0  0  0  0  0  0  0  0
  151.9371  142.2226  156.6361 H   0  0  0  0  0  0  0  0  0  0  0  0
  149.0255  142.3956  156.2684 H   0  0  0  0  0  0  0  0  0  0  0  0
  149.1635  140.2448  153.6047 H   0  0  0  0  0  0  0  0  0  0  0  0
  148.5716  139.5037  155.0828 H   0  0  0  0  0  0  0  0  0  0  0  0
  147.5594  141.9291  152.6127 H   0  0  0  0  0  0  0  0  0  0  0  0
  145.6353  143.5813  153.6229 H   0  0  0  0  0  0  0  0  0  0  0  0
  145.7822  143.1135  156.3505 H   0  0  0  0  0  0  0  0  0  0  0  0
  150.8903  139.8228  158.4206 H   0  0  0  0  0  0  0  0  0  0  0  0
  152.1471  140.4848  157.3979 H   0  0  0  0  0  0  0  0  0  0  0  0
  152.4951  139.0977  160.1039 H   0  0  0  0  0  0  0  0  0  0  0  0
  152.0351  137.5257  158.2236 H   0  0  0  0  0  0  0  0  0  0  0  0
  153.6924  137.3650  158.7973 H   0  0  0  0  0  0  0  0  0  0  0  0
  153.3607  138.2328  157.3007 H   0  0  0  0  0  0  0  0  0  0  0  0
  1  2  1  0  0  0  0
  1 21  1  0  0  0  0
  1 22  1  0  0  0  0
  1 23  1  0  0  0  0
  2 20  1  0  0  0  0
  2  3  1  0  0  0  0
  2 24  1  0  0  0  0
  3  4  1  0  0  0  0
  3 25  1  0  0  0  0
  3 26  1  0  0  0  0
  4  5  1  0  0  0  0
  4 17  1  0  0  0  0
  5  6  1  0  0  0  0
  5  7  1  0  0  0  0
  5 27  1  0  0  0  0
  6 28  1  0  0  0  0
  6 29  1  0  0  0  0
  6 30  1  0  0  0  0
  7  8  1  0  0  0  0
  7 31  1  0  0  0  0
  7 32  1  0  0  0  0
  8  9  1  0  0  0  0
  8 33  1  0  0  0  0
  9 10  2  0  0  0  0
  9 11  1  0  0  0  0
 11 12  1  0  0  0  0
 11 34  1  0  0  0  0
 11 35  1  0  0  0  0
 12 16  1  0  0  0  0
 12 13  1  0  0  0  0
 13 14  2  0  0  0  0
 13 36  1  0  0  0  0
 14 15  1  0  0  0  0
 14 37  1  0  0  0  0
 15 16  2  0  0  0  0
 15 38  1  0  0  0  0
 17 18  1  0  0  0  0
 17 39  1  0  0  0  0
 17 40  1  0  0  0  0
 18 19  1  0  0  0  0
 18 20  1  0  0  0  0
 18 41  1  0  0  0  0
 19 42  1  0  0  0  0
 19 43  1  0  0  0  0
 19 44  1  0  0  0  0
M  END
> <s_m_source_file>
AV-unprocessed.smi

> <i_m_source_file_index>
1433

> <i_lp_mmshare_version>
43012

> <i_f3d_flags>
0

> <s_epik_input>
W0NIM11bQ0BASF0xW0NIMl1OKFtDSDJdW0NASF0oTzEpW0NIM10pW0NASF0oW0NIM10pW0NIMl1bTkhdQyg9TylbQ0gyXW4yW2NIXVtjSF1bY0hdbjI=

> <s_epik_cmdline>
J2VwaWtfcHl0aG9uJywgJy1waCcsICc3LjAnLCAnLXRuJywgJzgnLCAnLW1hJywgJzIwMCcsICctbWV0YWxfYmluZGluZycsICctaW1hZScsICc8aW5maWxlLm1hZT4nLCAnLW9tYWUnLCAnPG91dGZpbGUubWFlPic=

> <r_lp_tautomer_probability>
1

> <r_epik_Ionization_Penalty>
0.196927

> <r_epik_Ionization_Penalty_Charging>
0

> <r_epik_Ionization_Penalty_Neutral>
0.196927

> <r_epik_State_Penalty>
0.186684

> <r_epik_Charging_Adjusted_Penalty>
0.186684

> <i_epik_Tot_Q>
0

> <i_epik_Tot_abs_Q>
0

> <r_epik_Metal_State_Penalty>
0.186682

> <b_epik_Metal_Only>
0

> <s_lp_Force_Field>
OPLS_2005

> <r_lp_Energy>
30.021

> <b_lp_Chiralities_Consistent>
1

> <s_lp_Variant>
AV-unprocessed.smi:1433-3

> <Gold.Version>
5.8.1

> <Gold.Id.Protein>
6NUR|6NUR_protein|mol2

> <Gold.PLP.Fitness>
43.7493

> <Gold.PLP.PLP>
-39.9068

> <Gold.PLP.part.hbond>
-3.0000

> <Gold.PLP.part.metal>
0.0000

> <Gold.PLP.part.buried>
-5.4811

> <Gold.PLP.part.nonpolar>
-30.9544

> <Gold.PLP.part.repulsive>
0.2227

> <Gold.PLP.ligand.clash>
0.0000

> <Gold.PLP.ligand.torsion>
1.0017

> <Gold.PLP.Chemscore.Hbond>
1.9200

> <Gold.PLP.Chemscore.CHOScore>
0.0000

> <Gold.PLP.Chemscore.Metal>
0.0000

> <Gold.Chemscore.Hbonds>
donor molecule, donor type, donor heavy atom, donor atom, acceptor molecule, acceptor atom, score
      L1  H     8    33       P1  8028  0.02
      P1  H  7989  7998       L1    10  0.98
      P1  H  7997  8010       L1    20  0.88

> <Gold.PLP.Chemscore.Internal.Correction>
0.0859

> <Gold.Rescore>
     Score         DG    S(hbond)    S(metal)    S(lipo)     H(rot)  DE(clash)    DE(int)     intcor
     14.48     -17.16       1.66        0.00      91.93       1.80       0.09       2.60       ----

> <Gold.Chemscore.Fitness>
14.4763

> <Gold.Chemscore.DG>
-17.1636

> <Gold.Chemscore.ZeroCoef>
-5.4800

> <Gold.Chemscore.Hbond>
1.6603

> <Gold.Chemscore.Metal>
0.0000

> <Gold.Chemscore.Lipo>
91.9301

> <Gold.Chemscore.Internal_Hbond>
0.0000

> <Gold.Chemscore.DEClash>
0.0878

> <Gold.Chemscore.DEInternal>
2.5996

> <Gold.Chemscore.Rot>
1.8038

> <Gold.Chemscore.Internal.Correction>
   9.000000E+99

> <Gold.Chemscore.Hbonds>
donor molecule, donor type, donor heavy atom, donor atom, acceptor molecule, acceptor atom, score
      L1  H     8    33       P1  8028  0.03
      P1  H  7989  7998       L1    10  0.32
      P1  H  7997  8010       L1    20  0.54

> <Gold.Chemscore.Hbond.Weighted>
-5.5456

> <Gold.Chemscore.Metal.Weighted>
-0.0000

> <Gold.Chemscore.Lipo.Weighted>
-10.7558

> <Gold.Chemscore.Internal_Hbond.Weighted>
0.0000

> <Gold.Chemscore.DEClash.Weighted>
0.0878

> <Gold.Chemscore.DEInternal.Weighted>
2.5996

> <Gold.Chemscore.Rot.Weighted>
4.6178

> <Gold.Chemscore.Internal.Correction.Weighted>
   9.000000E+99

> <Gold.Protein.RotatedTorsions>
[ 6907 6896 6895 6894 ] final -165.99 input  -60.11 | X-H torsion
[ 7974 7965 7964 7962 ] final    2.41 input  175.53 | X-H torsion
[ 8008 7997 7996 7995 ] final    0.94 input   59.86 | X-H torsion
[ 10167 10162 10161 10158 ] final   34.43 input  -65.29 | X-H torsion
[ 10718 10713 10712 10709 ] final   92.91 input   66.30 | X-H torsion
[ 10763 10752 10751 10750 ] final   80.94 input  -60.55 | X-H torsion
[ 11005 11000 10999 10996 ] final  -49.86 input  -57.11 | X-H torsion

> <Gold.Protein.ActiveResidues>
 VAL166  LYS551  ARG553  GLY616  TRP617  ASP618  TYR619  PRO620  LYS621  CYS622 
 ASP623  PHE694  ASN695  SER759  ASP760  ASP761  ALA762  ILE779  LEU786  VAL792 
 PHE793  MET794  SER795  GLU796  ALA797  LYS798  CYS799  TRP800  GLU811  SER814 

> <Gold.Protein.RotatedAtoms>
  151.4364  133.3655  159.2775 H   0  0  0  0  0  0  0  0  0  0  0  0  # atno 6907 bound_to 6896
  150.9188  134.8607  159.7486 H   0  0  0  0  0  0  0  0  0  0  0  0  # atno 6908 bound_to 6896
  152.4971  134.4300  159.9561 H   0  0  0  0  0  0  0  0  0  0  0  0  # atno 6909 bound_to 6896
  146.2443  140.0841  142.8355 H   0  0  0  0  0  0  0  0  0  0  0  0  # atno 7974 bound_to 7965
  154.6739  140.2618  155.6978 H   0  0  0  0  0  0  0  0  0  0  0  0  # atno 8008 bound_to 7997
  156.2670  140.2824  156.1180 H   0  0  0  0  0  0  0  0  0  0  0  0  # atno 8009 bound_to 7997
  155.1129  140.0376  157.2719 H   0  0  0  0  0  0  0  0  0  0  0  0  # atno 8010 bound_to 7997
  140.4315  144.1317  150.6160 H   0  0  0  0  0  0  0  0  0  0  0  0  # atno 10167 bound_to 10162
  157.6957  131.0460  150.3954 H   0  0  0  0  0  0  0  0  0  0  0  0  # atno 10718 bound_to 10713
  153.1075  135.4784  154.8977 H   0  0  0  0  0  0  0  0  0  0  0  0  # atno 10763 bound_to 10752
  154.7446  135.3090  154.8670 H   0  0  0  0  0  0  0  0  0  0  0  0  # atno 10764 bound_to 10752
  153.9269  135.6849  153.4800 H   0  0  0  0  0  0  0  0  0  0  0  0  # atno 10765 bound_to 10752
  141.0783  133.6660  156.3647 H   0  0  0  0  0  0  0  0  0  0  0  0  # atno 11005 bound_to 11000
  145.0707  140.9153  143.4883 LP  0  0  0  0  0  0  0  0  0  0  0  0  # atno 17320 bound_to 7965
  145.0974  139.2846  143.5703 LP  0  0  0  0  0  0  0  0  0  0  0  0  # atno 17321 bound_to 7965
  140.4421  143.2522  151.9459 LP  0  0  0  0  0  0  0  0  0  0  0  0  # atno 17342 bound_to 10162
  139.4785  144.5644  151.8188 LP  0  0  0  0  0  0  0  0  0  0  0  0  # atno 17343 bound_to 10162
  156.4353  130.3980  149.6733 LP  0  0  0  0  0  0  0  0  0  0  0  0  # atno 17370 bound_to 10713
  156.3936  130.7639  151.2642 LP  0  0  0  0  0  0  0  0  0  0  0  0  # atno 17371 bound_to 10713
  140.5524  134.6014  157.5411 LP  0  0  0  0  0  0  0  0  0  0  0  0  # atno 17394 bound_to 11000
  139.9596  134.7475  156.0266 LP  0  0  0  0  0  0  0  0  0  0  0  0  # atno 17395 bound_to 11000

$$$$
