AV-unprocessed.smi:1041|AV-procd|sdf|4529|dock1
  -GOLD-   22720 2553D 1   1.00000     0.00000
 Structure written by MMmdl.
 53 54  0  0  0  0  0  0  0  0  2 V2000
  144.4675  134.6114  150.1744 C   0  0  0  0  0  0  0  0  0  0  0  0
  145.5303  133.9989  150.8836 O   0  0  0  0  0  0  0  0  0  0  0  0
  145.0944  133.3579  152.0709 C   0  0  0  0  0  0  0  0  0  0  0  0
  144.7672  134.4311  153.1207 C   0  0  0  0  0  0  0  0  0  0  0  0
  144.7572  133.8873  154.5023 N   0  3  2  0  0  0  0  0  0  0  0  0
  144.2888  134.8863  155.4974 C   0  0  0  0  0  0  0  0  0  0  0  0
  144.1635  134.2650  156.9015 C   0  0  0  0  0  0  0  0  0  0  0  0
  145.4760  133.6086  157.3691 C   0  0  2  0  0  0  0  0  0  0  0  0
  146.5386  134.6582  157.7722 C   0  0  0  0  0  0  0  0  0  0  0  0
  146.5348  134.9103  159.2090 N   0  0  0  0  0  0  0  0  0  0  0  0
  147.6249  135.0292  159.9829 C   0  0  0  0  0  0  0  0  0  0  0  0
  148.7760  135.0052  159.5486 O   0  0  0  0  0  0  0  0  0  0  0  0
  147.3731  135.1572  161.4843 C   0  0  0  0  0  0  0  0  0  0  0  0
  145.9007  135.2663  161.8750 C   0  0  0  0  0  0  0  0  0  0  0  0
  145.1289  134.1857  162.1936 C   0  0  0  0  0  0  0  0  0  0  0  0
  145.6610  132.7630  162.2028 C   0  0  0  0  0  0  0  0  0  0  0  0
  143.7777  134.3251  162.5398 N   0  0  0  0  0  0  0  0  0  0  0  0
  143.2573  135.5077  162.5534 C   0  0  0  0  0  0  0  0  0  0  0  0
  141.8139  135.7915  162.9123 C   0  0  0  0  0  0  0  0  0  0  0  0
  143.9873  136.6504  162.2316 N   0  0  0  0  0  0  0  0  0  0  0  0
  145.2928  136.6112  161.8837 C   0  0  0  0  0  0  0  0  0  0  0  0
  145.8902  137.6461  161.5916 O   0  0  0  0  0  0  0  0  0  0  0  0
  145.9392  132.6111  156.2862 C   0  0  0  0  0  0  0  0  0  0  0  0
  146.0513  133.2751  154.9039 C   0  0  0  0  0  0  0  0  0  0  0  0
  143.5265  137.5484  162.2544 H   0  0  0  0  0  0  0  0  0  0  0  0
  144.8536  135.0828  149.2707 H   0  0  0  0  0  0  0  0  0  0  0  0
  143.9856  135.3831  150.7765 H   0  0  0  0  0  0  0  0  0  0  0  0
  143.7164  133.8783  149.8773 H   0  0  0  0  0  0  0  0  0  0  0  0
  144.2365  132.7155  151.8716 H   0  0  0  0  0  0  0  0  0  0  0  0
  145.8913  132.7153  152.4483 H   0  0  0  0  0  0  0  0  0  0  0  0
  145.4759  135.2580  153.0573 H   0  0  0  0  0  0  0  0  0  0  0  0
  143.7879  134.8477  152.8802 H   0  0  0  0  0  0  0  0  0  0  0  0
  144.9696  135.7382  155.5105 H   0  0  0  0  0  0  0  0  0  0  0  0
  143.3141  135.2716  155.1952 H   0  0  0  0  0  0  0  0  0  0  0  0
  143.8419  135.0216  157.6180 H   0  0  0  0  0  0  0  0  0  0  0  0
  143.3741  133.5122  156.8847 H   0  0  0  0  0  0  0  0  0  0  0  0
  145.2519  133.0318  158.2678 H   0  0  0  0  0  0  0  0  0  0  0  0
  147.5317  134.3642  157.4315 H   0  0  0  0  0  0  0  0  0  0  0  0
  146.3225  135.6039  157.2742 H   0  0  0  0  0  0  0  0  0  0  0  0
  145.6320  134.9446  159.6612 H   0  0  0  0  0  0  0  0  0  0  0  0
  147.8208  134.2951  161.9783 H   0  0  0  0  0  0  0  0  0  0  0  0
  147.9286  136.0124  161.8730 H   0  0  0  0  0  0  0  0  0  0  0  0
  146.4537  132.6547  162.9434 H   0  0  0  0  0  0  0  0  0  0  0  0
  146.0581  132.4930  161.2248 H   0  0  0  0  0  0  0  0  0  0  0  0
  144.8755  132.0482  162.4507 H   0  0  0  0  0  0  0  0  0  0  0  0
  141.1468  135.2679  162.2271 H   0  0  0  0  0  0  0  0  0  0  0  0
  141.5875  136.8575  162.8620 H   0  0  0  0  0  0  0  0  0  0  0  0
  141.6051  135.4463  163.9253 H   0  0  0  0  0  0  0  0  0  0  0  0
  146.8854  132.1431  156.5575 H   0  0  0  0  0  0  0  0  0  0  0  0
  145.2188  131.7944  156.2248 H   0  0  0  0  0  0  0  0  0  0  0  0
  146.3541  132.5199  154.1800 H   0  0  0  0  0  0  0  0  0  0  0  0
  146.8338  134.0349  154.9064 H   0  0  0  0  0  0  0  0  0  0  0  0
  144.0688  133.1478  154.5079 H   0  0  0  0  0  0  0  0  0  0  0  0
  1  2  1  0  0  0  0
  1 26  1  0  0  0  0
  1 27  1  0  0  0  0
  1 28  1  0  0  0  0
  2  3  1  0  0  0  0
  3  4  1  0  0  0  0
  3 29  1  0  0  0  0
  3 30  1  0  0  0  0
  4  5  1  0  0  0  0
  4 31  1  0  0  0  0
  4 32  1  0  0  0  0
  5 24  1  0  0  0  0
  5  6  1  0  0  0  0
  5 53  1  0  0  0  0
  6  7  1  0  0  0  0
  6 33  1  0  0  0  0
  6 34  1  0  0  0  0
  7  8  1  0  0  0  0
  7 35  1  0  0  0  0
  7 36  1  0  0  0  0
  8  9  1  0  0  0  0
  8 23  1  0  0  0  0
  8 37  1  0  0  0  0
  9 10  1  0  0  0  0
  9 38  1  0  0  0  0
  9 39  1  0  0  0  0
 10 11  1  0  0  0  0
 10 40  1  0  0  0  0
 11 12  2  0  0  0  0
 11 13  1  0  0  0  0
 13 14  1  0  0  0  0
 13 41  1  0  0  0  0
 13 42  1  0  0  0  0
 14 21  1  0  0  0  0
 14 15  2  0  0  0  0
 15 16  1  0  0  0  0
 15 17  1  0  0  0  0
 16 43  1  0  0  0  0
 16 44  1  0  0  0  0
 16 45  1  0  0  0  0
 17 18  2  0  0  0  0
 18 19  1  0  0  0  0
 18 20  1  0  0  0  0
 19 46  1  0  0  0  0
 19 47  1  0  0  0  0
 19 48  1  0  0  0  0
 20 25  1  0  0  0  0
 20 21  1  0  0  0  0
 21 22  2  0  0  0  0
 23 24  1  0  0  0  0
 23 49  1  0  0  0  0
 23 50  1  0  0  0  0
 24 51  1  0  0  0  0
 24 52  1  0  0  0  0
M  CHG  1   5   1
M  END
> <s_m_source_file>
AV-unprocessed.smi

> <i_m_source_file_index>
1041

> <i_lp_mmshare_version>
43012

> <i_f3d_flags>
0

> <s_epik_input>
W0NIM11PW0NIMl1bQ0gyXU4xW0NIMl1bQ0gyXVtDSF0oW0NIMl1bQ0gyXTEpW0NIMl1bTkhdQyg9TylbQ0gyXWMyYyhbQ0gzXSluYyhbQ0gzXSlbbkhdYzI9Tw==

> <s_epik_cmdline>
J2VwaWtfcHl0aG9uJywgJy1waCcsICc3LjAnLCAnLXRuJywgJzgnLCAnLW1hJywgJzIwMCcsICctbWV0YWxfYmluZGluZycsICctaW1hZScsICc8aW5maWxlLm1hZT4nLCAnLW9tYWUnLCAnPG91dGZpbGUubWFlPic=

> <r_lp_tautomer_probability>
0.839158

> <r_epik_Ionization_Penalty>
0.00964357

> <r_epik_Ionization_Penalty_Charging>
0.00961423

> <r_epik_Ionization_Penalty_Neutral>
2.93415e-05

> <r_epik_State_Penalty>
0.0972512

> <r_epik_Charging_Adjusted_Penalty>
0.106865

> <i_epik_Tot_Q>
1

> <i_epik_Tot_abs_Q>
1

> <r_epik_Metal_State_Penalty>
0.270886

> <b_epik_Metal_Only>
0

> <s_lp_Force_Field>
OPLS_2005

> <r_lp_Energy>
21.6557

> <b_lp_Chiralities_Consistent>
1

> <s_lp_Variant>
AV-unprocessed.smi:1041-2

> <Gold.Version>
5.8.1

> <Gold.Id.Protein>
6NUR|6NUR_protein|mol2

> <Gold.PLP.Fitness>
36.2620

> <Gold.PLP.PLP>
-26.7755

> <Gold.PLP.part.hbond>
-3.0000

> <Gold.PLP.part.metal>
0.0000

> <Gold.PLP.part.buried>
-4.8361

> <Gold.PLP.part.nonpolar>
-19.1203

> <Gold.PLP.part.repulsive>
0.3590

> <Gold.PLP.ligand.clash>
0.0000

> <Gold.PLP.ligand.torsion>
1.1760

> <Gold.PLP.Chemscore.Hbond>
3.8880

> <Gold.PLP.Chemscore.CHOScore>
0.0000

> <Gold.PLP.Chemscore.Metal>
0.0000

> <Gold.Chemscore.Hbonds>
donor molecule, donor type, donor heavy atom, donor atom, acceptor molecule, acceptor atom, score
      L1  H     5    53       P1 10957  2.00
      P1  H  6896  6908       L1    12  0.98
      P1  H  6934  6947       L1    22  0.91

> <Gold.PLP.Chemscore.Internal.Correction>
0.1746

> <Gold.Rescore>
     Score         DG    S(hbond)    S(metal)    S(lipo)     H(rot)  DE(clash)    DE(int)     intcor
     15.04     -16.16       2.98        0.00      59.44       2.43       0.07       1.06       ----

> <Gold.Chemscore.Fitness>
15.0374

> <Gold.Chemscore.DG>
-16.1623

> <Gold.Chemscore.ZeroCoef>
-5.4800

> <Gold.Chemscore.Hbond>
2.9778

> <Gold.Chemscore.Metal>
0.0000

> <Gold.Chemscore.Lipo>
59.4445

> <Gold.Chemscore.Internal_Hbond>
0.0000

> <Gold.Chemscore.DEClash>
0.0659

> <Gold.Chemscore.DEInternal>
1.0591

> <Gold.Chemscore.Rot>
2.4291

> <Gold.Chemscore.Internal.Correction>
   9.000000E+99

> <Gold.Chemscore.Hbonds>
donor molecule, donor type, donor heavy atom, donor atom, acceptor molecule, acceptor atom, score
      L1  H     5    53       P1 10957  0.97
      P1  H  6896  6908       L1    12  0.92
      P1  H  6934  6947       L1    22  0.86

> <Gold.Chemscore.Hbond.Weighted>
-9.9459

> <Gold.Chemscore.Metal.Weighted>
-0.0000

> <Gold.Chemscore.Lipo.Weighted>
-6.9550

> <Gold.Chemscore.Internal_Hbond.Weighted>
0.0000

> <Gold.Chemscore.DEClash.Weighted>
0.0659

> <Gold.Chemscore.DEInternal.Weighted>
1.0591

> <Gold.Chemscore.Rot.Weighted>
6.2186

> <Gold.Chemscore.Internal.Correction.Weighted>
   9.000000E+99

> <Gold.Protein.RotatedTorsions>
[ 6907 6896 6895 6894 ] final  154.68 input  -60.11 | X-H torsion
[ 7974 7965 7964 7962 ] final  -54.20 input  175.53 | X-H torsion
[ 8008 7997 7996 7995 ] final  100.50 input   59.86 | X-H torsion
[ 10167 10162 10161 10158 ] final -166.94 input  -65.29 | X-H torsion
[ 10718 10713 10712 10709 ] final  110.08 input   66.30 | X-H torsion
[ 10763 10752 10751 10750 ] final -122.36 input  -60.55 | X-H torsion
[ 11005 11000 10999 10996 ] final  140.90 input  -57.11 | X-H torsion

> <Gold.Protein.ActiveResidues>
 VAL166  LYS551  ARG553  GLY616  TRP617  ASP618  TYR619  PRO620  LYS621  CYS622 
 ASP623  PHE694  ASN695  SER759  ASP760  ASP761  ALA762  ILE779  LEU786  VAL792 
 PHE793  MET794  SER795  GLU796  ALA797  LYS798  CYS799  TRP800  GLU811  SER814 

> <Gold.Protein.RotatedAtoms>
  152.0549  133.4036  159.4392 H   0  0  0  0  0  0  0  0  0  0  0  0  # atno 6907 bound_to 6896
  150.6868  134.3265  159.4818 H   0  0  0  0  0  0  0  0  0  0  0  0  # atno 6908 bound_to 6896
  152.1080  134.9294  160.0618 H   0  0  0  0  0  0  0  0  0  0  0  0  # atno 6909 bound_to 6896
  145.8882  140.8091  142.9805 H   0  0  0  0  0  0  0  0  0  0  0  0  # atno 7974 bound_to 7965
  156.1209  140.3212  155.8207 H   0  0  0  0  0  0  0  0  0  0  0  0  # atno 8008 bound_to 7997
  155.4506  140.0532  157.3018 H   0  0  0  0  0  0  0  0  0  0  0  0  # atno 8009 bound_to 7997
  154.4827  140.2059  155.9740 H   0  0  0  0  0  0  0  0  0  0  0  0  # atno 8010 bound_to 7997
  139.6082  144.0870  152.1814 H   0  0  0  0  0  0  0  0  0  0  0  0  # atno 10167 bound_to 10162
  157.6511  131.0926  150.6549 H   0  0  0  0  0  0  0  0  0  0  0  0  # atno 10718 bound_to 10713
  154.8688  135.4136  154.2769 H   0  0  0  0  0  0  0  0  0  0  0  0  # atno 10763 bound_to 10752
  153.3668  135.7006  153.6674 H   0  0  0  0  0  0  0  0  0  0  0  0  # atno 10764 bound_to 10752
  153.5552  135.3621  155.2748 H   0  0  0  0  0  0  0  0  0  0  0  0  # atno 10765 bound_to 10752
  140.0361  134.9328  157.0756 H   0  0  0  0  0  0  0  0  0  0  0  0  # atno 11005 bound_to 11000
  144.6729  140.1489  143.7431 LP  0  0  0  0  0  0  0  0  0  0  0  0  # atno 17320 bound_to 7965
  145.8941  139.2392  143.1532 LP  0  0  0  0  0  0  0  0  0  0  0  0  # atno 17321 bound_to 7965
  140.0482  144.5954  150.7357 LP  0  0  0  0  0  0  0  0  0  0  0  0  # atno 17342 bound_to 10162
  140.7300  143.2678  151.3986 LP  0  0  0  0  0  0  0  0  0  0  0  0  # atno 17343 bound_to 10162
  156.6860  130.4581  149.5613 LP  0  0  0  0  0  0  0  0  0  0  0  0  # atno 17370 bound_to 10713
  156.1895  130.6551  151.1045 LP  0  0  0  0  0  0  0  0  0  0  0  0  # atno 17371 bound_to 10713
  140.4144  134.1946  155.7163 LP  0  0  0  0  0  0  0  0  0  0  0  0  # atno 17394 bound_to 11000
  141.1858  133.8315  157.1091 LP  0  0  0  0  0  0  0  0  0  0  0  0  # atno 17395 bound_to 11000

$$$$
