AV-unprocessed.smi:2369|AV-procd|sdf|9434|dock2
  -GOLD-   2272013 63D 1   1.00000     0.00000
 Structure written by MMmdl.
 40 41  0  0  0  0  0  0  0  0  1 V2000
  151.7431  131.2389  156.5269 C   0  0  0  0  0  0  0  0  0  0  0  0
  151.2816  132.6299  156.1456 C   0  0  0  0  0  0  0  0  0  0  0  0
  151.7787  133.7649  156.8144 C   0  0  0  0  0  0  0  0  0  0  0  0
  151.3081  135.0311  156.4145 C   0  0  0  0  0  0  0  0  0  0  0  0
  151.8010  136.2939  157.0889 C   0  0  0  0  0  0  0  0  0  0  0  0
  150.4034  135.2029  155.4271 N   0  0  0  0  0  0  0  0  0  0  0  0
  149.9164  134.1167  154.7771 C   0  0  0  0  0  0  0  0  0  0  0  0
  148.9668  134.1892  153.7236 N   0  0  0  0  0  0  0  0  0  0  0  0
  148.0449  133.2756  153.3715 C   0  0  0  0  0  0  0  0  0  0  0  0
  147.8854  132.1801  153.9109 O   0  0  0  0  0  0  0  0  0  0  0  0
  147.3118  133.7032  152.3330 N   0  0  0  0  0  0  0  0  0  0  0  0
  146.2488  132.9445  151.6801 C   0  0  2  0  0  0  0  0  0  0  0  0
  146.5154  132.8471  150.1650 C   0  0  0  0  0  0  0  0  0  0  0  0
  145.3762  132.1140  149.4355 C   0  0  0  0  0  0  0  0  0  0  0  0
  143.9989  132.7416  149.7215 C   0  0  2  0  0  0  0  0  0  0  0  0
  143.9023  134.0058  149.0954 O   0  0  0  0  0  0  0  0  0  0  0  0
  143.7437  132.8804  151.2342 C   0  0  0  0  0  0  0  0  0  0  0  0
  144.8895  133.6147  151.9528 C   0  0  0  0  0  0  0  0  0  0  0  0
  150.3399  132.8109  155.1126 C   0  0  0  0  0  0  0  0  0  0  0  0
  152.5587  131.2767  157.2496 H   0  0  0  0  0  0  0  0  0  0  0  0
  152.0935  130.7003  155.6462 H   0  0  0  0  0  0  0  0  0  0  0  0
  150.9202  130.6772  156.9696 H   0  0  0  0  0  0  0  0  0  0  0  0
  152.5009  133.6683  157.6119 H   0  0  0  0  0  0  0  0  0  0  0  0
  152.6395  136.0857  157.7541 H   0  0  0  0  0  0  0  0  0  0  0  0
  151.0011  136.7443  157.6771 H   0  0  0  0  0  0  0  0  0  0  0  0
  152.1315  137.0196  156.3449 H   0  0  0  0  0  0  0  0  0  0  0  0
  148.9973  135.0322  153.1701 H   0  0  0  0  0  0  0  0  0  0  0  0
  147.5148  134.6158  151.9523 H   0  0  0  0  0  0  0  0  0  0  0  0
  146.2159  131.9361  152.0972 H   0  0  0  0  0  0  0  0  0  0  0  0
  146.6310  133.8475  149.7453 H   0  0  0  0  0  0  0  0  0  0  0  0
  147.4570  132.3281  149.9821 H   0  0  0  0  0  0  0  0  0  0  0  0
  145.5688  132.0966  148.3622 H   0  0  0  0  0  0  0  0  0  0  0  0
  145.3656  131.0722  149.7585 H   0  0  0  0  0  0  0  0  0  0  0  0
  143.2234  132.1118  149.2845 H   0  0  0  0  0  0  0  0  0  0  0  0
  143.0172  134.3224  149.1934 H   0  0  0  0  0  0  0  0  0  0  0  0
  142.7979  133.3929  151.4139 H   0  0  0  0  0  0  0  0  0  0  0  0
  143.6362  131.8852  151.6681 H   0  0  0  0  0  0  0  0  0  0  0  0
  144.6927  133.6359  153.0255 H   0  0  0  0  0  0  0  0  0  0  0  0
  144.9167  134.6551  151.6252 H   0  0  0  0  0  0  0  0  0  0  0  0
  149.9448  131.9539  154.5863 H   0  0  0  0  0  0  0  0  0  0  0  0
  1  2  1  0  0  0  0
  1 20  1  0  0  0  0
  1 21  1  0  0  0  0
  1 22  1  0  0  0  0
  2 19  1  0  0  0  0
  2  3  2  0  0  0  0
  3  4  1  0  0  0  0
  3 23  1  0  0  0  0
  4  5  1  0  0  0  0
  4  6  2  0  0  0  0
  5 24  1  0  0  0  0
  5 25  1  0  0  0  0
  5 26  1  0  0  0  0
  6  7  1  0  0  0  0
  7  8  1  0  0  0  0
  7 19  2  0  0  0  0
  8  9  1  0  0  0  0
  8 27  1  0  0  0  0
  9 10  2  0  0  0  0
  9 11  1  0  0  0  0
 11 12  1  0  0  0  0
 11 28  1  0  0  0  0
 12 18  1  0  0  0  0
 12 13  1  0  0  0  0
 12 29  1  0  0  0  0
 13 14  1  0  0  0  0
 13 30  1  0  0  0  0
 13 31  1  0  0  0  0
 14 15  1  0  0  0  0
 14 32  1  0  0  0  0
 14 33  1  0  0  0  0
 15 16  1  0  0  0  0
 15 17  1  0  0  0  0
 15 34  1  0  0  0  0
 16 35  1  0  0  0  0
 17 18  1  0  0  0  0
 17 36  1  0  0  0  0
 17 37  1  0  0  0  0
 18 38  1  0  0  0  0
 18 39  1  0  0  0  0
 19 40  1  0  0  0  0
M  END
> <s_m_source_file>
AV-unprocessed.smi

> <i_m_source_file_index>
2369

> <i_lp_mmshare_version>
43012

> <i_f3d_flags>
0

> <s_epik_input>
W0NIM11jMVtjSF1jKFtDSDNdKW5jKFtjSF0xKVtOSF1DKD1PKVtOSF1bQ0BASF0yW0NIMl1bQ0gyXVtDQEBIXShbT0hdKVtDSDJdW0NIMl0y

> <s_epik_cmdline>
J2VwaWtfcHl0aG9uJywgJy1waCcsICc3LjAnLCAnLXRuJywgJzgnLCAnLW1hJywgJzIwMCcsICctbWV0YWxfYmluZGluZycsICctaW1hZScsICc8aW5maWxlLm1hZT4nLCAnLW9tYWUnLCAnPG91dGZpbGUubWFlPic=

> <r_lp_tautomer_probability>
1

> <r_epik_Ionization_Penalty>
0.000274852

> <r_epik_Ionization_Penalty_Charging>
0

> <r_epik_Ionization_Penalty_Neutral>
0.000274852

> <r_epik_State_Penalty>
-0

> <r_epik_Charging_Adjusted_Penalty>
0

> <i_epik_Tot_Q>
0

> <i_epik_Tot_abs_Q>
0

> <r_epik_Metal_State_Penalty>
-0

> <b_epik_Metal_Only>
0

> <s_lp_Force_Field>
OPLS_2005

> <r_lp_Energy>
12.6332

> <b_lp_Chiralities_Consistent>
1

> <s_lp_Variant>
AV-unprocessed.smi:2369-2

> <Gold.Version>
5.8.1

> <Gold.Id.Protein>
6NUR|6NUR_protein|mol2

> <Gold.PLP.Fitness>
40.6585

> <Gold.PLP.PLP>
-33.0926

> <Gold.PLP.part.hbond>
-4.0000

> <Gold.PLP.part.metal>
0.0000

> <Gold.PLP.part.buried>
-2.3647

> <Gold.PLP.part.nonpolar>
-26.0058

> <Gold.PLP.part.repulsive>
0.1888

> <Gold.PLP.ligand.clash>
0.0000

> <Gold.PLP.ligand.torsion>
0.2230

> <Gold.PLP.Chemscore.Hbond>
2.6698

> <Gold.PLP.Chemscore.CHOScore>
0.0000

> <Gold.PLP.Chemscore.Metal>
0.0000

> <Gold.Chemscore.Hbonds>
donor molecule, donor type, donor heavy atom, donor atom, acceptor molecule, acceptor atom, score
      L1  H     8    27       P1  7948  0.95
      L1  H    11    28       P1  7948  0.71
      L1  H    16    35       P1 10186  0.99

> <Gold.PLP.Chemscore.Internal.Correction>
0.0027

> <Gold.Rescore>
     Score         DG    S(hbond)    S(metal)    S(lipo)     H(rot)  DE(clash)    DE(int)     intcor
     16.35     -18.36       2.20        0.00      78.25       1.42       0.37       1.64       ----

> <Gold.Chemscore.Fitness>
16.3496

> <Gold.Chemscore.DG>
-18.3579

> <Gold.Chemscore.ZeroCoef>
-5.4800

> <Gold.Chemscore.Hbond>
2.2040

> <Gold.Chemscore.Metal>
0.0000

> <Gold.Chemscore.Lipo>
78.2478

> <Gold.Chemscore.Internal_Hbond>
0.0000

> <Gold.Chemscore.DEClash>
0.3662

> <Gold.Chemscore.DEInternal>
1.6421

> <Gold.Chemscore.Rot>
1.4213

> <Gold.Chemscore.Internal.Correction>
   9.000000E+99

> <Gold.Chemscore.Hbonds>
donor molecule, donor type, donor heavy atom, donor atom, acceptor molecule, acceptor atom, score
      L1  H     8    27       P1  7948  0.22
      L1  H    11    28       P1  7948  0.42
      L1  H    16    35       P1 10186  0.92

> <Gold.Chemscore.Hbond.Weighted>
-7.3615

> <Gold.Chemscore.Metal.Weighted>
-0.0000

> <Gold.Chemscore.Lipo.Weighted>
-9.1550

> <Gold.Chemscore.Internal_Hbond.Weighted>
0.0000

> <Gold.Chemscore.DEClash.Weighted>
0.3662

> <Gold.Chemscore.DEInternal.Weighted>
1.6421

> <Gold.Chemscore.Rot.Weighted>
3.6386

> <Gold.Chemscore.Internal.Correction.Weighted>
   9.000000E+99

> <Gold.Protein.RotatedTorsions>
[ 6907 6896 6895 6894 ] final  -38.19 input  -60.11 | X-H torsion
[ 7974 7965 7964 7962 ] final    8.90 input  175.53 | X-H torsion
[ 8008 7997 7996 7995 ] final   10.23 input   59.86 | X-H torsion
[ 10167 10162 10161 10158 ] final -112.34 input  -65.29 | X-H torsion
[ 10718 10713 10712 10709 ] final   72.33 input   66.30 | X-H torsion
[ 10763 10752 10751 10750 ] final  158.98 input  -60.55 | X-H torsion
[ 11005 11000 10999 10996 ] final -163.41 input  -57.11 | X-H torsion

> <Gold.Protein.ActiveResidues>
 VAL166  LYS551  ARG553  GLY616  TRP617  ASP618  TYR619  PRO620  LYS621  CYS622 
 ASP623  PHE694  ASN695  SER759  ASP760  ASP761  ALA762  ILE779  LEU786  VAL792 
 PHE793  MET794  SER795  GLU796  ALA797  LYS798  CYS799  TRP800  GLU811  SER814 

> <Gold.Protein.RotatedAtoms>
  151.0054  134.9355  159.7977 H   0  0  0  0  0  0  0  0  0  0  0  0  # atno 6907 bound_to 6896
  152.5289  134.3099  159.9119 H   0  0  0  0  0  0  0  0  0  0  0  0  # atno 6908 bound_to 6896
  151.3104  133.4041  159.2681 H   0  0  0  0  0  0  0  0  0  0  0  0  # atno 6909 bound_to 6896
  146.2410  139.9863  142.8430 H   0  0  0  0  0  0  0  0  0  0  0  0  # atno 7974 bound_to 7965
  154.7906  140.2835  155.5994 H   0  0  0  0  0  0  0  0  0  0  0  0  # atno 8008 bound_to 7997
  156.2964  140.2605  156.2681 H   0  0  0  0  0  0  0  0  0  0  0  0  # atno 8009 bound_to 7997
  154.9675  140.0376  157.2208 H   0  0  0  0  0  0  0  0  0  0  0  0  # atno 8010 bound_to 7997
  140.1238  143.4420  152.1673 H   0  0  0  0  0  0  0  0  0  0  0  0  # atno 10167 bound_to 10162
  157.6496  130.9573  150.0914 H   0  0  0  0  0  0  0  0  0  0  0  0  # atno 10718 bound_to 10713
  154.2245  135.2780  155.2912 H   0  0  0  0  0  0  0  0  0  0  0  0  # atno 10763 bound_to 10752
  154.5674  135.5629  153.7067 H   0  0  0  0  0  0  0  0  0  0  0  0  # atno 10764 bound_to 10752
  153.0034  135.6313  154.2386 H   0  0  0  0  0  0  0  0  0  0  0  0  # atno 10765 bound_to 10752
  140.5984  134.4972  157.5202 H   0  0  0  0  0  0  0  0  0  0  0  0  # atno 11005 bound_to 11000
  145.1544  140.9640  143.4414 LP  0  0  0  0  0  0  0  0  0  0  0  0  # atno 17320 bound_to 7965
  145.0174  139.3454  143.6089 LP  0  0  0  0  0  0  0  0  0  0  0  0  # atno 17321 bound_to 7965
  139.5555  144.7369  151.4307 LP  0  0  0  0  0  0  0  0  0  0  0  0  # atno 17342 bound_to 10162
  140.6857  143.7980  150.7182 LP  0  0  0  0  0  0  0  0  0  0  0  0  # atno 17343 bound_to 10162
  156.1862  130.3652  149.8970 LP  0  0  0  0  0  0  0  0  0  0  0  0  # atno 17370 bound_to 10713
  156.6910  130.8895  151.3588 LP  0  0  0  0  0  0  0  0  0  0  0  0  # atno 17371 bound_to 10713
  139.9243  134.8087  156.1116 LP  0  0  0  0  0  0  0  0  0  0  0  0  # atno 17394 bound_to 11000
  141.0888  133.6723  156.2496 LP  0  0  0  0  0  0  0  0  0  0  0  0  # atno 17395 bound_to 11000

$$$$
