AV-unprocessed.smi:2631|AV-procd|sdf|10248|dock4
  -GOLD-   2272014253D 1   1.00000     0.00000
 Structure written by MMmdl.
 35 36  0  0  0  0  0  0  0  0  1 V2000
  143.6080  143.0194  155.4663 C   0  0  0  0  0  0  0  0  0  0  0  0
  144.8597  143.6453  155.6825 O   0  0  0  0  0  0  0  0  0  0  0  0
  145.9275  142.9637  155.0451 C   0  0  0  0  0  0  0  0  0  0  0  0
  146.1281  141.5912  155.7090 C   0  0  0  0  0  0  0  0  0  0  0  0
  147.4398  141.0278  155.4586 N   0  0  0  0  0  0  0  0  0  0  0  0
  148.3629  140.7304  156.4647 C   0  0  0  0  0  0  0  0  0  0  0  0
  148.0215  140.9667  157.7854 N   0  0  0  0  0  0  0  0  0  0  0  0
  149.5902  140.2327  156.1624 C   0  0  0  0  0  0  0  0  0  0  0  0
  150.8598  139.8422  157.3428 S   0  0  0  0  0  0  0  0  0  0  0  0
  151.2068  141.4392  158.0044 C   0  0  0  0  0  0  0  0  0  0  0  0
  151.7291  141.5631  159.3075 C   0  0  0  0  0  0  0  0  0  0  0  0
  151.9967  142.8402  159.8379 C   0  0  0  0  0  0  0  0  0  0  0  0
  151.7433  143.9914  159.0657 C   0  0  0  0  0  0  0  0  0  0  0  0
  152.0694  145.5556  159.7166 Cl  0  0  0  0  0  0  0  0  0  0  0  0
  151.2226  143.8654  157.7622 C   0  0  0  0  0  0  0  0  0  0  0  0
  150.9543  142.5890  157.2306 C   0  0  0  0  0  0  0  0  0  0  0  0
  150.0140  139.9757  154.7843 C   0  0  0  0  0  0  0  0  0  0  0  0
  151.0963  139.5161  154.4208 O   0  0  0  0  0  0  0  0  0  0  0  0
  149.0523  140.3080  153.8307 N   0  0  0  0  0  0  0  0  0  0  0  0
  147.7883  140.8312  154.0982 C   0  0  0  0  0  0  0  0  0  0  0  0
  147.0370  141.1018  153.1608 O   0  0  0  0  0  0  0  0  0  0  0  0
  149.2946  140.1610  152.8617 H   0  0  0  0  0  0  0  0  0  0  0  0
  142.8259  143.5798  155.9783 H   0  0  0  0  0  0  0  0  0  0  0  0
  143.6041  142.0009  155.8561 H   0  0  0  0  0  0  0  0  0  0  0  0
  143.3601  142.9894  154.4045 H   0  0  0  0  0  0  0  0  0  0  0  0
  145.6920  142.8262  153.9889 H   0  0  0  0  0  0  0  0  0  0  0  0
  146.8432  143.5547  155.0974 H   0  0  0  0  0  0  0  0  0  0  0  0
  145.9943  141.6461  156.7886 H   0  0  0  0  0  0  0  0  0  0  0  0
  145.3886  140.8648  155.3673 H   0  0  0  0  0  0  0  0  0  0  0  0
  147.1222  141.3487  158.0410 H   0  0  0  0  0  0  0  0  0  0  0  0
  148.6243  140.6911  158.5476 H   0  0  0  0  0  0  0  0  0  0  0  0
  151.9217  140.6832  159.9035 H   0  0  0  0  0  0  0  0  0  0  0  0
  152.3951  142.9348  160.8375 H   0  0  0  0  0  0  0  0  0  0  0  0
  151.0270  144.7469  157.1695 H   0  0  0  0  0  0  0  0  0  0  0  0
  150.5516  142.4950  156.2327 H   0  0  0  0  0  0  0  0  0  0  0  0
  1  2  1  0  0  0  0
  1 23  1  0  0  0  0
  1 24  1  0  0  0  0
  1 25  1  0  0  0  0
  2  3  1  0  0  0  0
  3  4  1  0  0  0  0
  3 26  1  0  0  0  0
  3 27  1  0  0  0  0
  4  5  1  0  0  0  0
  4 28  1  0  0  0  0
  4 29  1  0  0  0  0
  5 20  1  0  0  0  0
  5  6  1  0  0  0  0
  6  7  1  0  0  0  0
  6  8  2  0  0  0  0
  7 30  1  0  0  0  0
  7 31  1  0  0  0  0
  8  9  1  0  0  0  0
  8 17  1  0  0  0  0
  9 10  1  0  0  0  0
 10 16  1  0  0  0  0
 10 11  2  0  0  0  0
 11 12  1  0  0  0  0
 11 32  1  0  0  0  0
 12 13  2  0  0  0  0
 12 33  1  0  0  0  0
 13 14  1  0  0  0  0
 13 15  1  0  0  0  0
 15 16  2  0  0  0  0
 15 34  1  0  0  0  0
 16 35  1  0  0  0  0
 17 18  2  0  0  0  0
 17 19  1  0  0  0  0
 19 22  1  0  0  0  0
 19 20  1  0  0  0  0
 20 21  2  0  0  0  0
M  END
> <s_m_source_file>
AV-unprocessed.smi

> <i_m_source_file_index>
2631

> <i_lp_mmshare_version>
43012

> <i_f3d_flags>
0

> <s_epik_input>
W0NIM11PW0NIMl1bQ0gyXW4xYyhbTkgyXSljKGMoPU8pW25IXWMxPU8pU2MyW2NIXVtjSF1jKENsKVtjSF1bY0hdMg==

> <s_epik_cmdline>
J2VwaWtfcHl0aG9uJywgJy1waCcsICc3LjAnLCAnLXRuJywgJzgnLCAnLW1hJywgJzIwMCcsICctbWV0YWxfYmluZGluZycsICctaW1hZScsICc8aW5maWxlLm1hZT4nLCAnLW9tYWUnLCAnPG91dGZpbGUubWFlPic=

> <r_lp_tautomer_probability>
1

> <r_epik_Ionization_Penalty>
9.0495e-05

> <r_epik_Ionization_Penalty_Charging>
7.40646e-05

> <r_epik_Ionization_Penalty_Neutral>
1.64304e-05

> <r_epik_State_Penalty>
-0

> <r_epik_Charging_Adjusted_Penalty>
7.40646e-05

> <i_epik_Tot_Q>
0

> <i_epik_Tot_abs_Q>
0

> <r_epik_Metal_State_Penalty>
0.0697747

> <b_epik_Metal_Only>
0

> <s_epik_Chemistry_Notes>
This compound has an imine and may undergo hydrolysis.

> <s_lp_Force_Field>
OPLS_2005

> <r_lp_Energy>
18.0154

> <b_lp_Chiralities_Consistent>
1

> <s_lp_Variant>
AV-unprocessed.smi:2631-1

> <Gold.Version>
5.8.1

> <Gold.Id.Protein>
6NUR|6NUR_protein|mol2

> <Gold.PLP.Fitness>
40.7729

> <Gold.PLP.PLP>
-36.0155

> <Gold.PLP.part.hbond>
-2.0000

> <Gold.PLP.part.metal>
0.0000

> <Gold.PLP.part.buried>
-4.2996

> <Gold.PLP.part.nonpolar>
-29.6042

> <Gold.PLP.part.repulsive>
0.7720

> <Gold.PLP.ligand.clash>
0.0000

> <Gold.PLP.ligand.torsion>
0.4887

> <Gold.PLP.Chemscore.Hbond>
1.9000

> <Gold.PLP.Chemscore.CHOScore>
0.0000

> <Gold.PLP.Chemscore.Metal>
0.0000

> <Gold.Chemscore.Hbonds>
donor molecule, donor type, donor heavy atom, donor atom, acceptor molecule, acceptor atom, score
      L1  H    19    22       P1  7957  1.00
      P1  H  7989  7998       L1    18  0.95

> <Gold.PLP.Chemscore.Internal.Correction>
0.0347

> <Gold.Rescore>
     Score         DG    S(hbond)    S(metal)    S(lipo)     H(rot)  DE(clash)    DE(int)     intcor
     15.59     -16.35       1.80        0.00      86.76       2.07       0.06       0.70       ----

> <Gold.Chemscore.Fitness>
15.5893

> <Gold.Chemscore.DG>
-16.3455

> <Gold.Chemscore.ZeroCoef>
-5.4800

> <Gold.Chemscore.Hbond>
1.7992

> <Gold.Chemscore.Metal>
0.0000

> <Gold.Chemscore.Lipo>
86.7555

> <Gold.Chemscore.Internal_Hbond>
0.0000

> <Gold.Chemscore.DEClash>
0.0557

> <Gold.Chemscore.DEInternal>
0.7005

> <Gold.Chemscore.Rot>
2.0680

> <Gold.Chemscore.Internal.Correction>
   9.000000E+99

> <Gold.Chemscore.Hbonds>
donor molecule, donor type, donor heavy atom, donor atom, acceptor molecule, acceptor atom, score
      L1  H    19    22       P1  7957  1.00
      P1  H  7989  7998       L1    18  0.22

> <Gold.Chemscore.Hbond.Weighted>
-6.0092

> <Gold.Chemscore.Metal.Weighted>
-0.0000

> <Gold.Chemscore.Lipo.Weighted>
-10.1504

> <Gold.Chemscore.Internal_Hbond.Weighted>
0.0000

> <Gold.Chemscore.DEClash.Weighted>
0.0557

> <Gold.Chemscore.DEInternal.Weighted>
0.7005

> <Gold.Chemscore.Rot.Weighted>
5.2941

> <Gold.Chemscore.Internal.Correction.Weighted>
   9.000000E+99

> <Gold.Protein.RotatedTorsions>
[ 6907 6896 6895 6894 ] final -115.23 input  -60.11 | X-H torsion
[ 7974 7965 7964 7962 ] final   81.13 input  175.53 | X-H torsion
[ 8008 7997 7996 7995 ] final  -42.85 input   59.86 | X-H torsion
[ 10167 10162 10161 10158 ] final -128.21 input  -65.29 | X-H torsion
[ 10718 10713 10712 10709 ] final  134.32 input   66.30 | X-H torsion
[ 10763 10752 10751 10750 ] final -139.17 input  -60.55 | X-H torsion
[ 11005 11000 10999 10996 ] final -130.51 input  -57.11 | X-H torsion

> <Gold.Protein.ActiveResidues>
 VAL166  LYS551  ARG553  GLY616  TRP617  ASP618  TYR619  PRO620  LYS621  CYS622 
 ASP623  PHE694  ASN695  SER759  ASP760  ASP761  ALA762  ILE779  LEU786  VAL792 
 PHE793  MET794  SER795  GLU796  ALA797  LYS798  CYS799  TRP800  GLU811  SER814 

> <Gold.Protein.RotatedAtoms>
  150.7962  133.8688  159.3252 H   0  0  0  0  0  0  0  0  0  0  0  0  # atno 6907 bound_to 6896
  151.6513  135.0999  160.0170 H   0  0  0  0  0  0  0  0  0  0  0  0  # atno 6908 bound_to 6896
  152.4044  133.6827  159.6378 H   0  0  0  0  0  0  0  0  0  0  0  0  # atno 6909 bound_to 6896
  145.6422  139.2428  143.2024 H   0  0  0  0  0  0  0  0  0  0  0  0  # atno 7974 bound_to 7965
  154.3998  140.1463  156.3423 H   0  0  0  0  0  0  0  0  0  0  0  0  # atno 8008 bound_to 7997
  155.8345  140.3464  155.5572 H   0  0  0  0  0  0  0  0  0  0  0  0  # atno 8009 bound_to 7997
  155.8153  140.0890  157.1871 H   0  0  0  0  0  0  0  0  0  0  0  0  # atno 8010 bound_to 7997
  139.9526  143.6038  152.2470 H   0  0  0  0  0  0  0  0  0  0  0  0  # atno 10167 bound_to 10162
  157.4685  131.1078  150.9833 H   0  0  0  0  0  0  0  0  0  0  0  0  # atno 10718 bound_to 10713
  154.8617  135.3590  154.5503 H   0  0  0  0  0  0  0  0  0  0  0  0  # atno 10763 bound_to 10752
  153.6122  135.7009  153.5347 H   0  0  0  0  0  0  0  0  0  0  0  0  # atno 10764 bound_to 10752
  153.3200  135.4154  155.1369 H   0  0  0  0  0  0  0  0  0  0  0  0  # atno 10765 bound_to 10752
  140.9340  134.1282  157.4210 H   0  0  0  0  0  0  0  0  0  0  0  0  # atno 11005 bound_to 11000
  146.1272  140.7233  142.9429 LP  0  0  0  0  0  0  0  0  0  0  0  0  # atno 17320 bound_to 7965
  144.7153  140.4188  143.7049 LP  0  0  0  0  0  0  0  0  0  0  0  0  # atno 17321 bound_to 7965
  139.6616  144.7662  151.1952 LP  0  0  0  0  0  0  0  0  0  0  0  0  # atno 17342 bound_to 10162
  140.7578  143.6001  150.8708 LP  0  0  0  0  0  0  0  0  0  0  0  0  # atno 17343 bound_to 10162
  157.0606  130.5824  149.5385 LP  0  0  0  0  0  0  0  0  0  0  0  0  # atno 17370 bound_to 10713
  156.0062  130.5148  150.7836 LP  0  0  0  0  0  0  0  0  0  0  0  0  # atno 17371 bound_to 10713
  139.8803  135.0014  156.6068 LP  0  0  0  0  0  0  0  0  0  0  0  0  # atno 17394 bound_to 11000
  140.7825  133.8649  155.8579 LP  0  0  0  0  0  0  0  0  0  0  0  0  # atno 17395 bound_to 11000

$$$$
