AV-unprocessed.smi:2049|AV-procd|sdf|8323|dock10
  -GOLD-   2272010593D 1   1.00000     0.00000
 Structure written by MMmdl.
 50 52  0  0  0  0  0  0  0  0  1 V2000
  144.6068  135.3403  153.9603 O   0  0  0  0  0  0  0  0  0  0  0  0
  145.6015  135.5224  153.2581 C   0  0  0  0  0  0  0  0  0  0  0  0
  145.5411  135.2640  151.7479 C   0  0  0  0  0  0  0  0  0  0  0  0
  145.2867  133.8488  151.4362 N   0  0  0  0  0  0  0  0  0  0  0  0
  144.0946  133.5332  150.7630 C   0  0  0  0  0  0  0  0  0  0  0  0
  143.8016  132.2653  150.4408 C   0  0  0  0  0  0  0  0  0  0  0  0
  144.7874  131.2483  150.8290 C   0  0  0  0  0  0  0  0  0  0  0  0
  145.8769  131.5327  151.4394 N   0  0  0  0  0  0  0  0  0  0  0  0
  146.1838  132.8652  151.7743 C   0  0  0  0  0  0  0  0  0  0  0  0
  147.2317  133.1467  152.3571 O   0  0  0  0  0  0  0  0  0  0  0  0
  146.7802  135.9468  153.7357 N   0  0  0  0  0  0  0  0  0  0  0  0
  147.0553  136.3529  155.1134 C   0  0  0  0  0  0  0  0  0  0  0  0
  148.5711  136.2172  155.4875 C   0  0  0  0  0  0  0  0  0  0  0  0
  149.3485  137.3341  154.8574 N   0  0  0  0  0  0  0  0  0  0  0  0
  150.7832  137.3435  155.1788 C   0  0  0  0  0  0  0  0  0  0  0  0
  151.5535  138.4143  154.3892 C   0  0  0  0  0  0  0  0  0  0  0  0
  150.9897  139.6929  154.6469 O   0  0  0  0  0  0  0  0  0  0  0  0
  149.6161  139.7542  154.2870 C   0  0  0  0  0  0  0  0  0  0  0  0
  148.8218  138.6913  155.0659 C   0  0  0  0  0  0  0  0  0  0  0  0
  148.6923  136.2586  157.0494 C   0  0  0  0  0  0  0  0  0  0  0  0
  148.0225  135.0822  157.7847 C   0  0  0  0  0  0  0  0  0  0  0  0
  148.5607  133.7399  157.2748 C   0  0  0  0  0  0  0  0  0  0  0  0
  148.4126  133.6263  155.7522 C   0  0  0  0  0  0  0  0  0  0  0  0
  149.0732  134.8134  155.0233 C   0  0  0  0  0  0  0  0  0  0  0  0
  144.7719  135.8880  151.2883 H   0  0  0  0  0  0  0  0  0  0  0  0
  146.4826  135.5960  151.3085 H   0  0  0  0  0  0  0  0  0  0  0  0
  143.4544  134.3709  150.5271 H   0  0  0  0  0  0  0  0  0  0  0  0
  142.9066  131.9546  149.9226 H   0  0  0  0  0  0  0  0  0  0  0  0
  144.5288  130.2208  150.5608 H   0  0  0  0  0  0  0  0  0  0  0  0
  147.5360  136.0637  153.0766 H   0  0  0  0  0  0  0  0  0  0  0  0
  146.6756  137.3581  155.2854 H   0  0  0  0  0  0  0  0  0  0  0  0
  146.4381  135.7378  155.7669 H   0  0  0  0  0  0  0  0  0  0  0  0
  150.9288  137.5237  156.2439 H   0  0  0  0  0  0  0  0  0  0  0  0
  151.2456  136.3849  154.9545 H   0  0  0  0  0  0  0  0  0  0  0  0
  152.6023  138.4221  154.6855 H   0  0  0  0  0  0  0  0  0  0  0  0
  151.5240  138.2014  153.3195 H   0  0  0  0  0  0  0  0  0  0  0  0
  149.2351  140.7506  154.5117 H   0  0  0  0  0  0  0  0  0  0  0  0
  149.5071  139.6053  153.2115 H   0  0  0  0  0  0  0  0  0  0  0  0
  147.7915  138.7733  154.7302 H   0  0  0  0  0  0  0  0  0  0  0  0
  148.8373  138.9483  156.1247 H   0  0  0  0  0  0  0  0  0  0  0  0
  149.7351  136.2111  157.3544 H   0  0  0  0  0  0  0  0  0  0  0  0
  148.3152  137.2030  157.4423 H   0  0  0  0  0  0  0  0  0  0  0  0
  148.2177  135.1669  158.8540 H   0  0  0  0  0  0  0  0  0  0  0  0
  146.9390  135.1167  157.6833 H   0  0  0  0  0  0  0  0  0  0  0  0
  149.6126  133.6430  157.5462 H   0  0  0  0  0  0  0  0  0  0  0  0
  148.0382  132.9174  157.7641 H   0  0  0  0  0  0  0  0  0  0  0  0
  148.8657  132.6945  155.4127 H   0  0  0  0  0  0  0  0  0  0  0  0
  147.3579  133.5565  155.4870 H   0  0  0  0  0  0  0  0  0  0  0  0
  148.9158  134.6861  153.9523 H   0  0  0  0  0  0  0  0  0  0  0  0
  150.1483  134.7298  155.1784 H   0  0  0  0  0  0  0  0  0  0  0  0
  1  2  2  0  0  0  0
  2  3  1  0  0  0  0
  2 11  1  0  0  0  0
  3  4  1  0  0  0  0
  3 25  1  0  0  0  0
  3 26  1  0  0  0  0
  4  9  1  0  0  0  0
  4  5  1  0  0  0  0
  5  6  2  0  0  0  0
  5 27  1  0  0  0  0
  6  7  1  0  0  0  0
  6 28  1  0  0  0  0
  7  8  2  0  0  0  0
  7 29  1  0  0  0  0
  8  9  1  0  0  0  0
  9 10  2  0  0  0  0
 11 12  1  0  0  0  0
 11 30  1  0  0  0  0
 12 13  1  0  0  0  0
 12 31  1  0  0  0  0
 12 32  1  0  0  0  0
 13 24  1  0  0  0  0
 13 14  1  0  0  0  0
 13 20  1  0  0  0  0
 14 19  1  0  0  0  0
 14 15  1  0  0  0  0
 15 16  1  0  0  0  0
 15 33  1  0  0  0  0
 15 34  1  0  0  0  0
 16 17  1  0  0  0  0
 16 35  1  0  0  0  0
 16 36  1  0  0  0  0
 17 18  1  0  0  0  0
 18 19  1  0  0  0  0
 18 37  1  0  0  0  0
 18 38  1  0  0  0  0
 19 39  1  0  0  0  0
 19 40  1  0  0  0  0
 20 21  1  0  0  0  0
 20 41  1  0  0  0  0
 20 42  1  0  0  0  0
 21 22  1  0  0  0  0
 21 43  1  0  0  0  0
 21 44  1  0  0  0  0
 22 23  1  0  0  0  0
 22 45  1  0  0  0  0
 22 46  1  0  0  0  0
 23 24  1  0  0  0  0
 23 47  1  0  0  0  0
 23 48  1  0  0  0  0
 24 49  1  0  0  0  0
 24 50  1  0  0  0  0
M  END
> <s_m_source_file>
AV-unprocessed.smi

> <i_m_source_file_index>
2049

> <i_lp_mmshare_version>
43012

> <i_f3d_flags>
0

> <s_epik_input>
Tz1jMW5bY0hdW2NIXVtjSF1uMVtDSDJdQyg9TylbTkhdW0NIMl1DMihbQ0gyXVtDSDJdW0NIMl1bQ0gyXVtDSDJdMilOM1tDSDJdW0NIMl1PW0NIMl1bQ0gyXTM=

> <s_epik_cmdline>
J2VwaWtfcHl0aG9uJywgJy1waCcsICc3LjAnLCAnLXRuJywgJzgnLCAnLW1hJywgJzIwMCcsICctbWV0YWxfYmluZGluZycsICctaW1hZScsICc8aW5maWxlLm1hZT4nLCAnLW9tYWUnLCAnPG91dGZpbGUubWFlPic=

> <r_lp_tautomer_probability>
1

> <r_epik_Ionization_Penalty>
0.421133

> <r_epik_Ionization_Penalty_Charging>
1.67008e-08

> <r_epik_Ionization_Penalty_Neutral>
0.421133

> <r_epik_State_Penalty>
0.421833

> <r_epik_Charging_Adjusted_Penalty>
0.421833

> <i_epik_Tot_Q>
0

> <i_epik_Tot_abs_Q>
0

> <r_epik_Metal_State_Penalty>
0.421832

> <b_epik_Metal_Only>
0

> <s_lp_Force_Field>
OPLS_2005

> <r_lp_Energy>
55.5371

> <b_lp_Chiralities_Consistent>
1

> <s_lp_Variant>
AV-unprocessed.smi:2049-2

> <Gold.Version>
5.8.1

> <Gold.Id.Protein>
6NUR|6NUR_protein|mol2

> <Gold.PLP.Fitness>
39.2331

> <Gold.PLP.PLP>
-31.8910

> <Gold.PLP.part.hbond>
-2.0000

> <Gold.PLP.part.metal>
0.0000

> <Gold.PLP.part.buried>
-6.8021

> <Gold.PLP.part.nonpolar>
-24.2076

> <Gold.PLP.part.repulsive>
0.6166

> <Gold.PLP.ligand.clash>
0.0000

> <Gold.PLP.ligand.torsion>
0.4301

> <Gold.PLP.Chemscore.Hbond>
2.0000

> <Gold.PLP.Chemscore.CHOScore>
0.7068

> <Gold.PLP.Chemscore.Metal>
0.0000

> <Gold.Chemscore.Hbonds>
donor molecule, donor type, donor heavy atom, donor atom, acceptor molecule, acceptor atom, score
      L1  H    11    30       P1  7948  1.00
      P1  H  7989  7998       L1    17  0.95
      L1  C     5    27       P1 10186  0.75

> <Gold.PLP.Chemscore.Internal.Correction>
0.0820

> <Gold.Rescore>
     Score         DG    S(hbond)    S(metal)    S(lipo)     H(rot)  DE(clash)    DE(int)     intcor
     11.77     -13.31       1.13        0.00      77.48       1.95       0.04       1.50       ----

> <Gold.Chemscore.Fitness>
11.7682

> <Gold.Chemscore.DG>
-13.3132

> <Gold.Chemscore.ZeroCoef>
-5.4800

> <Gold.Chemscore.Hbond>
1.1281

> <Gold.Chemscore.Metal>
0.0000

> <Gold.Chemscore.Lipo>
77.4826

> <Gold.Chemscore.Internal_Hbond>
0.0000

> <Gold.Chemscore.DEClash>
0.0448

> <Gold.Chemscore.DEInternal>
1.5001

> <Gold.Chemscore.Rot>
1.9531

> <Gold.Chemscore.Internal.Correction>
   9.000000E+99

> <Gold.Chemscore.Hbonds>
donor molecule, donor type, donor heavy atom, donor atom, acceptor molecule, acceptor atom, score
      L1  H    11    30       P1  7948  1.00
      P1  H  7989  7998       L1    17  0.15

> <Gold.Chemscore.Hbond.Weighted>
-3.7677

> <Gold.Chemscore.Metal.Weighted>
-0.0000

> <Gold.Chemscore.Lipo.Weighted>
-9.0655

> <Gold.Chemscore.Internal_Hbond.Weighted>
0.0000

> <Gold.Chemscore.DEClash.Weighted>
0.0448

> <Gold.Chemscore.DEInternal.Weighted>
1.5001

> <Gold.Chemscore.Rot.Weighted>
5.0000

> <Gold.Chemscore.Internal.Correction.Weighted>
   9.000000E+99

> <Gold.Protein.RotatedTorsions>
[ 6907 6896 6895 6894 ] final   71.83 input  -60.11 | X-H torsion
[ 7974 7965 7964 7962 ] final   41.71 input  175.53 | X-H torsion
[ 8008 7997 7996 7995 ] final  155.92 input   59.86 | X-H torsion
[ 10167 10162 10161 10158 ] final  129.49 input  -65.29 | X-H torsion
[ 10718 10713 10712 10709 ] final -133.92 input   66.30 | X-H torsion
[ 10763 10752 10751 10750 ] final -141.18 input  -60.55 | X-H torsion
[ 11005 11000 10999 10996 ] final   46.92 input  -57.11 | X-H torsion

> <Gold.Protein.ActiveResidues>
 VAL166  LYS551  ARG553  GLY616  TRP617  ASP618  TYR619  PRO620  LYS621  CYS622 
 ASP623  PHE694  ASN695  SER759  ASP760  ASP761  ALA762  ILE779  LEU786  VAL792 
 PHE793  MET794  SER795  GLU796  ALA797  LYS798  CYS799  TRP800  GLU811  SER814 

> <Gold.Protein.RotatedAtoms>
  152.4833  134.4662  159.9620 H   0  0  0  0  0  0  0  0  0  0  0  0  # atno 6907 bound_to 6896
  151.4664  133.3574  159.2824 H   0  0  0  0  0  0  0  0  0  0  0  0  # atno 6908 bound_to 6896
  150.8922  134.8352  159.7362 H   0  0  0  0  0  0  0  0  0  0  0  0  # atno 6909 bound_to 6896
  146.0801  139.5384  142.9542 H   0  0  0  0  0  0  0  0  0  0  0  0  # atno 7974 bound_to 7965
  156.2451  140.1926  156.6876 H   0  0  0  0  0  0  0  0  0  0  0  0  # atno 8008 bound_to 7997
  154.6275  140.0600  156.9718 H   0  0  0  0  0  0  0  0  0  0  0  0  # atno 8009 bound_to 7997
  155.1763  140.3272  155.4386 H   0  0  0  0  0  0  0  0  0  0  0  0  # atno 8010 bound_to 7997
  139.5475  144.6786  151.4427 H   0  0  0  0  0  0  0  0  0  0  0  0  # atno 10167 bound_to 10162
  156.2500  130.7147  151.1042 H   0  0  0  0  0  0  0  0  0  0  0  0  # atno 10718 bound_to 10713
  154.8554  135.3532  154.5827 H   0  0  0  0  0  0  0  0  0  0  0  0  # atno 10763 bound_to 10752
  153.6437  135.6997  153.5237 H   0  0  0  0  0  0  0  0  0  0  0  0  # atno 10764 bound_to 10752
  153.2950  135.4223  155.1160 H   0  0  0  0  0  0  0  0  0  0  0  0  # atno 10765 bound_to 10752
  140.1326  134.4686  155.8510 H   0  0  0  0  0  0  0  0  0  0  0  0  # atno 11005 bound_to 11000
  145.6234  141.0318  143.1902 LP  0  0  0  0  0  0  0  0  0  0  0  0  # atno 17320 bound_to 7965
  144.7287  139.7793  143.7355 LP  0  0  0  0  0  0  0  0  0  0  0  0  # atno 17321 bound_to 7965
  140.6728  143.8256  150.7020 LP  0  0  0  0  0  0  0  0  0  0  0  0  # atno 17342 bound_to 10162
  140.1686  143.4214  152.2017 LP  0  0  0  0  0  0  0  0  0  0  0  0  # atno 17343 bound_to 10162
  157.7210  131.0681  150.6134 LP  0  0  0  0  0  0  0  0  0  0  0  0  # atno 17370 bound_to 10713
  156.6213  130.4406  149.5821 LP  0  0  0  0  0  0  0  0  0  0  0  0  # atno 17371 bound_to 10713
  141.2173  133.6801  156.7097 LP  0  0  0  0  0  0  0  0  0  0  0  0  # atno 17394 bound_to 11000
  140.2823  134.8306  157.3944 LP  0  0  0  0  0  0  0  0  0  0  0  0  # atno 17395 bound_to 11000

$$$$
