AV-unprocessed.smi:797|AV-procd|sdf|3767|dock3
  -GOLD-   22720 1203D 1   1.00000     0.00000
 Structure written by MMmdl.
 35 36  0  0  0  0  0  0  0  0  1 V2000
  147.1450  141.3493  154.7139 C   0  0  0  0  0  0  0  0  0  0  0  0
  148.5709  140.8893  154.7849 C   0  0  0  0  0  0  0  0  0  0  0  0
  149.4654  140.9481  155.8883 C   0  0  0  0  0  0  0  0  0  0  0  0
  150.6187  140.4051  155.3974 C   0  0  0  0  0  0  0  0  0  0  0  0
  151.9629  140.1638  155.9983 C   0  0  0  0  0  0  0  0  0  0  0  0
  151.8202  140.0839  157.8344 S   0  0  0  0  0  0  0  0  0  0  0  0
  150.7718  139.1147  158.1876 O   0  0  0  0  0  0  0  0  0  0  0  0
  153.1682  139.9652  158.4121 O   0  0  0  0  0  0  0  0  0  0  0  0
  151.2139  141.6557  158.2201 N   0  0  0  0  0  0  0  0  0  0  0  0
  152.0065  142.5429  159.0751 C   0  0  0  0  0  0  0  0  0  0  0  0
  152.3343  141.8497  160.4126 C   0  0  0  0  0  0  0  0  0  0  0  0
  153.0883  142.7937  161.3631 C   0  0  0  0  0  0  0  0  0  0  0  0
  152.3087  144.0981  161.5906 C   0  0  0  0  0  0  0  0  0  0  0  0
  151.9896  144.7931  160.2575 C   0  0  0  0  0  0  0  0  0  0  0  0
  151.2306  143.8526  159.3076 C   0  0  0  0  0  0  0  0  0  0  0  0
  150.4492  140.0363  154.1015 O   0  0  0  0  0  0  0  0  0  0  0  0
  149.1398  140.3489  153.7200 N   0  0  0  0  0  0  0  0  0  0  0  0
  146.7867  141.6725  155.6915 H   0  0  0  0  0  0  0  0  0  0  0  0
  146.4897  140.5492  154.3689 H   0  0  0  0  0  0  0  0  0  0  0  0
  147.0381  142.1892  154.0270 H   0  0  0  0  0  0  0  0  0  0  0  0
  149.2920  141.3355  156.8812 H   0  0  0  0  0  0  0  0  0  0  0  0
  152.4007  139.2344  155.6349 H   0  0  0  0  0  0  0  0  0  0  0  0
  152.6427  140.9778  155.7461 H   0  0  0  0  0  0  0  0  0  0  0  0
  150.2476  141.6057  158.5415 H   0  0  0  0  0  0  0  0  0  0  0  0
  152.9367  142.7850  158.5597 H   0  0  0  0  0  0  0  0  0  0  0  0
  151.4131  141.5145  160.8914 H   0  0  0  0  0  0  0  0  0  0  0  0
  152.9352  140.9565  160.2387 H   0  0  0  0  0  0  0  0  0  0  0  0
  153.2663  142.2961  162.3168 H   0  0  0  0  0  0  0  0  0  0  0  0
  154.0698  143.0228  160.9462 H   0  0  0  0  0  0  0  0  0  0  0  0
  151.3808  143.8821  162.1215 H   0  0  0  0  0  0  0  0  0  0  0  0
  152.8833  144.7677  162.2314 H   0  0  0  0  0  0  0  0  0  0  0  0
  151.4008  145.6927  160.4385 H   0  0  0  0  0  0  0  0  0  0  0  0
  152.9166  145.1199  159.7843 H   0  0  0  0  0  0  0  0  0  0  0  0
  151.0542  144.3561  158.3561 H   0  0  0  0  0  0  0  0  0  0  0  0
  150.2481  143.6325  159.7276 H   0  0  0  0  0  0  0  0  0  0  0  0
  1  2  1  0  0  0  0
  1 18  1  0  0  0  0
  1 19  1  0  0  0  0
  1 20  1  0  0  0  0
  2 17  2  0  0  0  0
  2  3  1  0  0  0  0
  3  4  2  0  0  0  0
  3 21  1  0  0  0  0
  4  5  1  0  0  0  0
  4 16  1  0  0  0  0
  5  6  1  0  0  0  0
  5 22  1  0  0  0  0
  5 23  1  0  0  0  0
  6  7  2  0  0  0  0
  6  8  2  0  0  0  0
  6  9  1  0  0  0  0
  9 10  1  0  0  0  0
  9 24  1  0  0  0  0
 10 15  1  0  0  0  0
 10 11  1  0  0  0  0
 10 25  1  0  0  0  0
 11 12  1  0  0  0  0
 11 26  1  0  0  0  0
 11 27  1  0  0  0  0
 12 13  1  0  0  0  0
 12 28  1  0  0  0  0
 12 29  1  0  0  0  0
 13 14  1  0  0  0  0
 13 30  1  0  0  0  0
 13 31  1  0  0  0  0
 14 15  1  0  0  0  0
 14 32  1  0  0  0  0
 14 33  1  0  0  0  0
 15 34  1  0  0  0  0
 15 35  1  0  0  0  0
 16 17  1  0  0  0  0
M  END
> <s_m_source_file>
AV-unprocessed.smi

> <i_m_source_file_index>
797

> <i_lp_mmshare_version>
43012

> <i_f3d_flags>
0

> <s_epik_input>
W0NIM11jMVtjSF1jKG9uMSlbQ0gyXVMoPU8pKD1PKVtOSF1bQ0hdMltDSDJdW0NIMl1bQ0gyXVtDSDJdW0NIMl0y

> <s_epik_cmdline>
J2VwaWtfcHl0aG9uJywgJy1waCcsICc3LjAnLCAnLXRuJywgJzgnLCAnLW1hJywgJzIwMCcsICctbWV0YWxfYmluZGluZycsICctaW1hZScsICc8aW5maWxlLm1hZT4nLCAnLW9tYWUnLCAnPG91dGZpbGUubWFlPic=

> <r_lp_tautomer_probability>
1

> <r_epik_Ionization_Penalty>
5.6723e-05

> <r_epik_Ionization_Penalty_Charging>
0

> <r_epik_Ionization_Penalty_Neutral>
5.6723e-05

> <r_epik_State_Penalty>
-0

> <r_epik_Charging_Adjusted_Penalty>
0

> <i_epik_Tot_Q>
0

> <i_epik_Tot_abs_Q>
0

> <r_epik_Metal_State_Penalty>
0.0496356

> <b_epik_Metal_Only>
0

> <s_lp_Force_Field>
OPLS_2005

> <r_lp_Energy>
1.90415

> <b_lp_Chiralities_Consistent>
1

> <s_lp_Variant>
AV-unprocessed.smi:797-1

> <Gold.Version>
5.8.1

> <Gold.Id.Protein>
6NUR|6NUR_protein|mol2

> <Gold.PLP.Fitness>
37.0987

> <Gold.PLP.PLP>
-31.7995

> <Gold.PLP.part.hbond>
-2.4120

> <Gold.PLP.part.metal>
0.0000

> <Gold.PLP.part.buried>
-4.6479

> <Gold.PLP.part.nonpolar>
-28.1359

> <Gold.PLP.part.repulsive>
3.5665

> <Gold.PLP.ligand.clash>
0.0269

> <Gold.PLP.ligand.torsion>
0.4040

> <Gold.PLP.Chemscore.Hbond>
1.9920

> <Gold.PLP.Chemscore.CHOScore>
0.0000

> <Gold.PLP.Chemscore.Metal>
0.0000

> <Gold.Chemscore.Hbonds>
donor molecule, donor type, donor heavy atom, donor atom, acceptor molecule, acceptor atom, score
      P1  H  7989  7998       L1    16  0.90
      P1  H  7997  8009       L1     8  0.96

> <Gold.PLP.Chemscore.Internal.Correction>
0.1581

> <Gold.Rescore>
     Score         DG    S(hbond)    S(metal)    S(lipo)     H(rot)  DE(clash)    DE(int)     intcor
     13.96     -14.79       0.97        0.00      86.79       1.60       0.00       0.82       ----

> <Gold.Chemscore.Fitness>
13.9622

> <Gold.Chemscore.DG>
-14.7870

> <Gold.Chemscore.ZeroCoef>
-5.4800

> <Gold.Chemscore.Hbond>
0.9693

> <Gold.Chemscore.Metal>
0.0000

> <Gold.Chemscore.Lipo>
86.7859

> <Gold.Chemscore.Internal_Hbond>
0.0000

> <Gold.Chemscore.DEClash>
0.0000

> <Gold.Chemscore.DEInternal>
0.8248

> <Gold.Chemscore.Rot>
1.5954

> <Gold.Chemscore.Internal.Correction>
   9.000000E+99

> <Gold.Chemscore.Hbonds>
donor molecule, donor type, donor heavy atom, donor atom, acceptor molecule, acceptor atom, score
      P1  H  7989  7998       L1    16  0.16
      P1  H  7997  8009       L1     8  0.84

> <Gold.Chemscore.Hbond.Weighted>
-3.2373

> <Gold.Chemscore.Metal.Weighted>
-0.0000

> <Gold.Chemscore.Lipo.Weighted>
-10.1539

> <Gold.Chemscore.Internal_Hbond.Weighted>
0.0000

> <Gold.Chemscore.DEClash.Weighted>
0.0000

> <Gold.Chemscore.DEInternal.Weighted>
0.8248

> <Gold.Chemscore.Rot.Weighted>
4.0843

> <Gold.Chemscore.Internal.Correction.Weighted>
   9.000000E+99

> <Gold.Protein.RotatedTorsions>
[ 6907 6896 6895 6894 ] final   42.28 input  -60.11 | X-H torsion
[ 7974 7965 7964 7962 ] final   94.02 input  175.53 | X-H torsion
[ 8008 7997 7996 7995 ] final  139.47 input   59.86 | X-H torsion
[ 10167 10162 10161 10158 ] final  120.04 input  -65.29 | X-H torsion
[ 10718 10713 10712 10709 ] final  -35.45 input   66.30 | X-H torsion
[ 10763 10752 10751 10750 ] final  -29.02 input  -60.55 | X-H torsion
[ 11005 11000 10999 10996 ] final   51.49 input  -57.11 | X-H torsion

> <Gold.Protein.ActiveResidues>
 VAL166  LYS551  ARG553  GLY616  TRP617  ASP618  TYR619  PRO620  LYS621  CYS622 
 ASP623  PHE694  ASN695  SER759  ASP760  ASP761  ALA762  ILE779  LEU786  VAL792 
 PHE793  MET794  SER795  GLU796  ALA797  LYS798  CYS799  TRP800  GLU811  SER814 

> <Gold.Protein.RotatedAtoms>
  152.2059  134.8545  160.0502 H   0  0  0  0  0  0  0  0  0  0  0  0  # atno 6907 bound_to 6896
  151.9382  133.3625  159.3963 H   0  0  0  0  0  0  0  0  0  0  0  0  # atno 6908 bound_to 6896
  150.6965  134.4392  159.5328 H   0  0  0  0  0  0  0  0  0  0  0  0  # atno 6909 bound_to 6896
  145.4711  139.2282  143.2934 H   0  0  0  0  0  0  0  0  0  0  0  0  # atno 7974 bound_to 7965
  156.2989  140.2366  156.4243 H   0  0  0  0  0  0  0  0  0  0  0  0  # atno 8008 bound_to 7997
  154.8327  140.0432  157.1508 H   0  0  0  0  0  0  0  0  0  0  0  0  # atno 8009 bound_to 7997
  154.9190  140.3001  155.5230 H   0  0  0  0  0  0  0  0  0  0  0  0  # atno 8010 bound_to 7997
  139.6007  144.7056  151.3069 H   0  0  0  0  0  0  0  0  0  0  0  0  # atno 10167 bound_to 10162
  156.3384  130.4290  149.7809 H   0  0  0  0  0  0  0  0  0  0  0  0  # atno 10718 bound_to 10713
  153.7579  135.6921  153.4932 H   0  0  0  0  0  0  0  0  0  0  0  0  # atno 10763 bound_to 10752
  153.1958  135.4454  155.0205 H   0  0  0  0  0  0  0  0  0  0  0  0  # atno 10764 bound_to 10752
  154.8164  135.3401  154.7096 H   0  0  0  0  0  0  0  0  0  0  0  0  # atno 10765 bound_to 10752
  140.0928  134.5186  155.8836 H   0  0  0  0  0  0  0  0  0  0  0  0  # atno 11005 bound_to 11000
  146.2396  140.5489  142.8940 LP  0  0  0  0  0  0  0  0  0  0  0  0  # atno 17320 bound_to 7965
  144.7944  140.6095  143.6519 LP  0  0  0  0  0  0  0  0  0  0  0  0  # atno 17321 bound_to 7965
  140.7247  143.7037  150.7825 LP  0  0  0  0  0  0  0  0  0  0  0  0  # atno 17342 bound_to 10162
  140.0612  143.5152  152.2626 LP  0  0  0  0  0  0  0  0  0  0  0  0  # atno 17343 bound_to 10162
  156.5055  130.8148  151.3149 LP  0  0  0  0  0  0  0  0  0  0  0  0  # atno 17370 bound_to 10713
  157.7443  130.9931  150.2659 LP  0  0  0  0  0  0  0  0  0  0  0  0  # atno 17371 bound_to 10713
  141.2083  133.6672  156.6362 LP  0  0  0  0  0  0  0  0  0  0  0  0  # atno 17394 bound_to 11000
  140.3328  134.7914  157.4339 LP  0  0  0  0  0  0  0  0  0  0  0  0  # atno 17395 bound_to 11000

$$$$
