AV-unprocessed.smi:2532|AV-procd|sdf|9969|dock8
  -GOLD-   2272014 13D 1   1.00000     0.00000
 Structure written by MMmdl.
 36 38  0  0  0  0  0  0  0  0  1 V2000
  153.8887  137.2010  161.4773 O   0  0  0  0  0  0  0  0  0  0  0  0
  154.2191  137.9542  162.6282 C   0  0  1  0  0  0  0  0  0  0  0  0
  154.9617  137.0389  163.6148 C   0  0  0  0  0  0  0  0  0  0  0  0
  154.4125  135.7336  163.5426 O   0  0  0  0  0  0  0  0  0  0  0  0
  155.1797  134.7769  164.2556 C   0  0  0  0  0  0  0  0  0  0  0  0
  154.3810  133.5150  164.3317 C   0  0  0  0  0  0  0  0  0  0  0  0
  153.7508  133.0036  165.4378 C   0  0  0  0  0  0  0  0  0  0  0  0
  153.0507  131.7892  165.1772 C   0  0  0  0  0  0  0  0  0  0  0  0
  153.1475  131.3904  163.8708 C   0  0  0  0  0  0  0  0  0  0  0  0
  154.1032  132.5044  162.9316 S   0  0  0  0  0  0  0  0  0  0  0  0
  155.0802  139.1605  162.2061 C   0  0  0  0  0  0  0  0  0  0  0  0
  154.4531  139.9588  161.1671 N   0  0  0  0  0  0  0  0  0  0  0  0
  154.3927  139.6714  159.8526 C   0  0  0  0  0  0  0  0  0  0  0  0
  153.7641  140.5409  159.0666 N   0  0  0  0  0  0  0  0  0  0  0  0
  153.3682  141.5055  159.9773 C   0  0  0  0  0  0  0  0  0  0  0  0
  152.6495  142.7073  159.7862 C   0  0  0  0  0  0  0  0  0  0  0  0
  152.3573  143.5468  160.8812 C   0  0  0  0  0  0  0  0  0  0  0  0
  152.7794  143.1998  162.1810 C   0  0  0  0  0  0  0  0  0  0  0  0
  153.4974  142.0077  162.3962 C   0  0  0  0  0  0  0  0  0  0  0  0
  153.7849  141.1714  161.3015 C   0  0  0  0  0  0  0  0  0  0  0  0
  153.2746  136.5273  161.7265 H   0  0  0  0  0  0  0  0  0  0  0  0
  153.2997  138.3189  163.0887 H   0  0  0  0  0  0  0  0  0  0  0  0
  156.0352  137.0337  163.4170 H   0  0  0  0  0  0  0  0  0  0  0  0
  154.8238  137.4074  164.6326 H   0  0  0  0  0  0  0  0  0  0  0  0
  156.1278  134.5956  163.7466 H   0  0  0  0  0  0  0  0  0  0  0  0
  155.4015  135.1365  165.2612 H   0  0  0  0  0  0  0  0  0  0  0  0
  153.7692  133.4555  166.4187 H   0  0  0  0  0  0  0  0  0  0  0  0
  152.5067  131.2597  165.9456 H   0  0  0  0  0  0  0  0  0  0  0  0
  152.7167  130.5171  163.4040 H   0  0  0  0  0  0  0  0  0  0  0  0
  155.2651  139.8085  163.0639 H   0  0  0  0  0  0  0  0  0  0  0  0
  156.0572  138.8279  161.8529 H   0  0  0  0  0  0  0  0  0  0  0  0
  154.8374  138.7728  159.4501 H   0  0  0  0  0  0  0  0  0  0  0  0
  152.3225  142.9838  158.7947 H   0  0  0  0  0  0  0  0  0  0  0  0
  151.8065  144.4624  160.7227 H   0  0  0  0  0  0  0  0  0  0  0  0
  152.5519  143.8498  163.0132 H   0  0  0  0  0  0  0  0  0  0  0  0
  153.8242  141.7403  163.3904 H   0  0  0  0  0  0  0  0  0  0  0  0
  1  2  1  0  0  0  0
  1 21  1  0  0  0  0
  2  3  1  0  0  0  0
  2 11  1  0  0  0  0
  2 22  1  0  0  0  0
  3  4  1  0  0  0  0
  3 23  1  0  0  0  0
  3 24  1  0  0  0  0
  4  5  1  0  0  0  0
  5  6  1  0  0  0  0
  5 25  1  0  0  0  0
  5 26  1  0  0  0  0
  6 10  1  0  0  0  0
  6  7  2  0  0  0  0
  7  8  1  0  0  0  0
  7 27  1  0  0  0  0
  8  9  2  0  0  0  0
  8 28  1  0  0  0  0
  9 10  1  0  0  0  0
  9 29  1  0  0  0  0
 11 12  1  0  0  0  0
 11 30  1  0  0  0  0
 11 31  1  0  0  0  0
 12 20  1  0  0  0  0
 12 13  1  0  0  0  0
 13 14  2  0  0  0  0
 13 32  1  0  0  0  0
 14 15  1  0  0  0  0
 15 20  2  0  0  0  0
 15 16  1  0  0  0  0
 16 17  2  0  0  0  0
 16 33  1  0  0  0  0
 17 18  1  0  0  0  0
 17 34  1  0  0  0  0
 18 19  2  0  0  0  0
 18 35  1  0  0  0  0
 19 20  1  0  0  0  0
 19 36  1  0  0  0  0
M  END
> <s_m_source_file>
AV-unprocessed.smi

> <i_m_source_file_index>
2532

> <i_lp_mmshare_version>
43012

> <i_f3d_flags>
0

> <s_epik_input>
W2NIXTFbY0hdW2NIXVtjSF1jKGMxMiluKFtjSF1uMilbQ0gyXVtDQEhdKFtPSF0pW0NIMl1PW0NIMl1jM1tjSF1bY0hdW2NIXXMz

> <s_epik_cmdline>
J2VwaWtfcHl0aG9uJywgJy1waCcsICc3LjAnLCAnLXRuJywgJzgnLCAnLW1hJywgJzIwMCcsICctbWV0YWxfYmluZGluZycsICctaW1hZScsICc8aW5maWxlLm1hZT4nLCAnLW9tYWUnLCAnPG91dGZpbGUubWFlPic=

> <r_epik_Ionization_Penalty>
0.0678455

> <r_epik_Ionization_Penalty_Charging>
0

> <r_epik_Ionization_Penalty_Neutral>
0.0678455

> <r_epik_State_Penalty>
0.0593261

> <r_epik_Charging_Adjusted_Penalty>
0.0593261

> <i_epik_Tot_Q>
0

> <i_epik_Tot_abs_Q>
0

> <r_epik_Metal_State_Penalty>
6.23947e-05

> <b_epik_Metal_Only>
0

> <s_lp_Force_Field>
OPLS_2005

> <r_lp_Energy>
10.0551

> <b_lp_Chiralities_Consistent>
1

> <s_lp_Variant>
AV-unprocessed.smi:2532-2

> <Gold.Version>
5.8.1

> <Gold.Id.Protein>
6NUR|6NUR_protein|mol2

> <Gold.PLP.Fitness>
48.8852

> <Gold.PLP.PLP>
-48.0215

> <Gold.PLP.part.hbond>
-1.0000

> <Gold.PLP.part.metal>
0.0000

> <Gold.PLP.part.buried>
-3.6869

> <Gold.PLP.part.nonpolar>
-43.1014

> <Gold.PLP.part.repulsive>
0.0493

> <Gold.PLP.ligand.clash>
0.0191

> <Gold.PLP.ligand.torsion>
0.7067

> <Gold.PLP.Chemscore.Hbond>
0.7454

> <Gold.PLP.Chemscore.CHOScore>
0.0000

> <Gold.PLP.Chemscore.Metal>
0.0000

> <Gold.Chemscore.Hbonds>
donor molecule, donor type, donor heavy atom, donor atom, acceptor molecule, acceptor atom, score
      P1  H  7997  8010       L1    14  0.25

> <Gold.PLP.Chemscore.Internal.Correction>
0.0600

> <Gold.Rescore>
     Score         DG    S(hbond)    S(metal)    S(lipo)     H(rot)  DE(clash)    DE(int)     intcor
     16.22     -18.46       0.94        0.00     135.66       2.36       0.47       1.76       ----

> <Gold.Chemscore.Fitness>
16.2248

> <Gold.Chemscore.DG>
-18.4562

> <Gold.Chemscore.ZeroCoef>
-5.4800

> <Gold.Chemscore.Hbond>
0.9435

> <Gold.Chemscore.Metal>
0.0000

> <Gold.Chemscore.Lipo>
135.6555

> <Gold.Chemscore.Internal_Hbond>
0.0000

> <Gold.Chemscore.DEClash>
0.4735

> <Gold.Chemscore.DEInternal>
1.7578

> <Gold.Chemscore.Rot>
2.3620

> <Gold.Chemscore.Internal.Correction>
   9.000000E+99

> <Gold.Chemscore.Hbonds>
donor molecule, donor type, donor heavy atom, donor atom, acceptor molecule, acceptor atom, score
      P1  H  7997  8010       L1    14  0.02

> <Gold.Chemscore.Hbond.Weighted>
-3.1512

> <Gold.Chemscore.Metal.Weighted>
-0.0000

> <Gold.Chemscore.Lipo.Weighted>
-15.8717

> <Gold.Chemscore.Internal_Hbond.Weighted>
0.0000

> <Gold.Chemscore.DEClash.Weighted>
0.4735

> <Gold.Chemscore.DEInternal.Weighted>
1.7578

> <Gold.Chemscore.Rot.Weighted>
6.0468

> <Gold.Chemscore.Internal.Correction.Weighted>
   9.000000E+99

> <Gold.Protein.RotatedTorsions>
[ 6907 6896 6895 6894 ] final  -53.27 input  -60.11 | X-H torsion
[ 7974 7965 7964 7962 ] final -125.28 input  175.53 | X-H torsion
[ 8008 7997 7996 7995 ] final    4.99 input   59.86 | X-H torsion
[ 10167 10162 10161 10158 ] final  -23.72 input  -65.29 | X-H torsion
[ 10718 10713 10712 10709 ] final   35.74 input   66.30 | X-H torsion
[ 10763 10752 10751 10750 ] final -127.78 input  -60.55 | X-H torsion
[ 11005 11000 10999 10996 ] final  105.58 input  -57.11 | X-H torsion

> <Gold.Protein.ActiveResidues>
 VAL166  LYS551  ARG553  GLY616  TRP617  ASP618  TYR619  PRO620  LYS621  CYS622 
 ASP623  PHE694  ASN695  SER759  ASP760  ASP761  ALA762  ILE779  LEU786  VAL792 
 PHE793  MET794  SER795  GLU796  ALA797  LYS798  CYS799  TRP800  GLU811  SER814 

> <Gold.Protein.RotatedAtoms>
  150.8442  134.7745  159.6956 H   0  0  0  0  0  0  0  0  0  0  0  0  # atno 6907 bound_to 6896
  152.4523  134.5365  159.9836 H   0  0  0  0  0  0  0  0  0  0  0  0  # atno 6908 bound_to 6896
  151.5498  133.3381  159.2986 H   0  0  0  0  0  0  0  0  0  0  0  0  # atno 6909 bound_to 6896
  144.9992  140.7805  143.4506 H   0  0  0  0  0  0  0  0  0  0  0  0  # atno 7974 bound_to 7965
  154.7228  140.2715  155.6526 H   0  0  0  0  0  0  0  0  0  0  0  0  # atno 8008 bound_to 7997
  156.2828  140.2731  156.1830 H   0  0  0  0  0  0  0  0  0  0  0  0  # atno 8009 bound_to 7997
  155.0484  140.0371  157.2525 H   0  0  0  0  0  0  0  0  0  0  0  0  # atno 8010 bound_to 7997
  140.7288  143.4417  151.0646 H   0  0  0  0  0  0  0  0  0  0  0  0  # atno 10167 bound_to 10162
  157.3264  130.7475  149.6818 H   0  0  0  0  0  0  0  0  0  0  0  0  # atno 10718 bound_to 10713
  154.8754  135.3950  154.3649 H   0  0  0  0  0  0  0  0  0  0  0  0  # atno 10763 bound_to 10752
  153.4416  135.7027  153.6170 H   0  0  0  0  0  0  0  0  0  0  0  0  # atno 10764 bound_to 10752
  153.4748  135.3782  155.2380 H   0  0  0  0  0  0  0  0  0  0  0  0  # atno 10765 bound_to 10752
  139.8803  134.9340  156.5535 H   0  0  0  0  0  0  0  0  0  0  0  0  # atno 11005 bound_to 11000
  145.2177  139.2174  143.5109 LP  0  0  0  0  0  0  0  0  0  0  0  0  # atno 17320 bound_to 7965
  146.3448  140.2028  142.8589 LP  0  0  0  0  0  0  0  0  0  0  0  0  # atno 17321 bound_to 7965
  139.8085  143.7984  152.3169 LP  0  0  0  0  0  0  0  0  0  0  0  0  # atno 17342 bound_to 10162
  139.8025  144.7368  150.9805 LP  0  0  0  0  0  0  0  0  0  0  0  0  # atno 17343 bound_to 10162
  155.9691  130.4208  150.4440 LP  0  0  0  0  0  0  0  0  0  0  0  0  # atno 17370 bound_to 10713
  157.2464  131.0537  151.2405 LP  0  0  0  0  0  0  0  0  0  0  0  0  # atno 17371 bound_to 10713
  140.8222  133.8344  155.8906 LP  0  0  0  0  0  0  0  0  0  0  0  0  # atno 17394 bound_to 11000
  140.9407  134.1904  157.4799 LP  0  0  0  0  0  0  0  0  0  0  0  0  # atno 17395 bound_to 11000

$$$$
