AV-unprocessed.smi:2488|AV-procd|sdf|9793|dock8
  -GOLD-   2272013433D 1   1.00000     0.00000
 Structure written by MMmdl.
 33 34  0  0  0  0  0  0  0  0  1 V2000
  152.1870  143.1319  160.2778 C   0  0  0  0  0  0  0  0  0  0  0  0
  153.0701  142.1515  159.4978 C   0  0  0  0  0  0  0  0  0  0  0  0
  152.2553  141.1058  158.7594 C   0  0  0  0  0  0  0  0  0  0  0  0
  152.4742  139.8155  159.0971 N   0  0  0  0  0  0  0  0  0  0  0  0
  151.7648  138.8941  158.4417 C   0  0  0  0  0  0  0  0  0  0  0  0
  150.8610  139.1138  157.4841 N   0  0  0  0  0  0  0  0  0  0  0  0
  150.6363  140.4017  157.1230 C   0  0  0  0  0  0  0  0  0  0  0  0
  149.6815  140.6797  156.1238 N   0  0  0  0  0  0  0  0  0  0  0  0
  148.5106  141.3444  156.6904 C   0  0  0  0  0  0  0  0  0  0  0  0
  147.5623  141.8143  155.5781 C   0  0  0  0  0  0  0  0  0  0  0  0
  147.2092  140.7022  154.7667 O   0  0  0  0  0  0  0  0  0  0  0  0
  148.3475  140.1451  154.1205 C   0  0  0  0  0  0  0  0  0  0  0  0
  149.3586  139.6126  155.1633 C   0  0  1  0  0  0  0  0  0  0  0  0
  150.5713  139.0367  154.4088 C   0  0  0  0  0  0  0  0  0  0  0  0
  150.3307  138.0608  153.5296 N   0  0  0  0  0  0  0  0  0  0  0  0
  151.7043  139.4728  154.6065 O   0  0  0  0  0  0  0  0  0  0  0  0
  151.3260  141.4604  157.7576 C   0  0  0  0  0  0  0  0  0  0  0  0
  151.1142  142.7542  157.4124 F   0  0  0  0  0  0  0  0  0  0  0  0
  152.7944  143.8715  160.7994 H   0  0  0  0  0  0  0  0  0  0  0  0
  151.5848  142.6100  161.0220 H   0  0  0  0  0  0  0  0  0  0  0  0
  151.5087  143.6672  159.6127 H   0  0  0  0  0  0  0  0  0  0  0  0
  153.6814  142.6982  158.7789 H   0  0  0  0  0  0  0  0  0  0  0  0
  153.7666  141.6601  160.1775 H   0  0  0  0  0  0  0  0  0  0  0  0
  151.9379  137.8642  158.7160 H   0  0  0  0  0  0  0  0  0  0  0  0
  147.9891  140.6528  157.3541 H   0  0  0  0  0  0  0  0  0  0  0  0
  148.8076  142.2025  157.2951 H   0  0  0  0  0  0  0  0  0  0  0  0
  146.6566  142.2400  156.0104 H   0  0  0  0  0  0  0  0  0  0  0  0
  148.0247  142.5952  154.9719 H   0  0  0  0  0  0  0  0  0  0  0  0
  148.0077  139.3366  153.4719 H   0  0  0  0  0  0  0  0  0  0  0  0
  148.8039  140.8965  153.4727 H   0  0  0  0  0  0  0  0  0  0  0  0
  148.8754  138.8024  155.7131 H   0  0  0  0  0  0  0  0  0  0  0  0
  151.0924  137.6534  153.0071 H   0  0  0  0  0  0  0  0  0  0  0  0
  149.3851  137.7367  153.3880 H   0  0  0  0  0  0  0  0  0  0  0  0
  1  2  1  0  0  0  0
  1 19  1  0  0  0  0
  1 20  1  0  0  0  0
  1 21  1  0  0  0  0
  2  3  1  0  0  0  0
  2 22  1  0  0  0  0
  2 23  1  0  0  0  0
  3 17  1  0  0  0  0
  3  4  2  0  0  0  0
  4  5  1  0  0  0  0
  5  6  2  0  0  0  0
  5 24  1  0  0  0  0
  6  7  1  0  0  0  0
  7  8  1  0  0  0  0
  7 17  2  0  0  0  0
  8 13  1  0  0  0  0
  8  9  1  0  0  0  0
  9 10  1  0  0  0  0
  9 25  1  0  0  0  0
  9 26  1  0  0  0  0
 10 11  1  0  0  0  0
 10 27  1  0  0  0  0
 10 28  1  0  0  0  0
 11 12  1  0  0  0  0
 12 13  1  0  0  0  0
 12 29  1  0  0  0  0
 12 30  1  0  0  0  0
 13 14  1  0  0  0  0
 13 31  1  0  0  0  0
 14 15  1  0  0  0  0
 14 16  2  0  0  0  0
 15 32  1  0  0  0  0
 15 33  1  0  0  0  0
 17 18  1  0  0  0  0
M  END
> <s_m_source_file>
AV-unprocessed.smi

> <i_m_source_file_index>
2488

> <i_lp_mmshare_version>
43012

> <i_f3d_flags>
0

> <s_epik_input>
W0NIM11bQ0gyXWMxbltjSF1uYyhjMUYpTjJbQ0gyXVtDSDJdT1tDSDJdW0NASF0yQyg9TylbTkgyXQ==

> <s_epik_cmdline>
J2VwaWtfcHl0aG9uJywgJy1waCcsICc3LjAnLCAnLXRuJywgJzgnLCAnLW1hJywgJzIwMCcsICctbWV0YWxfYmluZGluZycsICctaW1hZScsICc8aW5maWxlLm1hZT4nLCAnLW9tYWUnLCAnPG91dGZpbGUubWFlPic=

> <r_lp_tautomer_probability>
1

> <r_epik_Ionization_Penalty>
2.73136e-05

> <r_epik_Ionization_Penalty_Charging>
0

> <r_epik_Ionization_Penalty_Neutral>
2.73136e-05

> <r_epik_State_Penalty>
-0

> <r_epik_Charging_Adjusted_Penalty>
0

> <i_epik_Tot_Q>
0

> <i_epik_Tot_abs_Q>
0

> <r_epik_Metal_State_Penalty>
-0

> <b_epik_Metal_Only>
0

> <s_lp_Force_Field>
OPLS_2005

> <r_lp_Energy>
12.1778

> <b_lp_Chiralities_Consistent>
1

> <s_lp_Variant>
AV-unprocessed.smi:2488-1

> <Gold.Version>
5.8.1

> <Gold.Id.Protein>
6NUR|6NUR_protein|mol2

> <Gold.PLP.Fitness>
33.3283

> <Gold.PLP.PLP>
-29.1914

> <Gold.PLP.part.hbond>
-3.5351

> <Gold.PLP.part.metal>
0.0000

> <Gold.PLP.part.buried>
-2.7106

> <Gold.PLP.part.nonpolar>
-23.2449

> <Gold.PLP.part.repulsive>
0.3159

> <Gold.PLP.ligand.clash>
0.0000

> <Gold.PLP.ligand.torsion>
0.4005

> <Gold.PLP.Chemscore.Hbond>
1.5769

> <Gold.PLP.Chemscore.CHOScore>
0.0000

> <Gold.PLP.Chemscore.Metal>
0.0000

> <Gold.Chemscore.Hbonds>
donor molecule, donor type, donor heavy atom, donor atom, acceptor molecule, acceptor atom, score
      L1  H    15    32       P1  7949  0.29
      L1  H    15    33       P1  7948  0.26
      P1  H  7989  7998       L1    16  0.95

> <Gold.PLP.Chemscore.Internal.Correction>
0.2071

> <Gold.Rescore>
     Score         DG    S(hbond)    S(metal)    S(lipo)     H(rot)  DE(clash)    DE(int)     intcor
      9.39     -11.46       1.28        0.00      55.21       1.86       0.22       1.84       ----

> <Gold.Chemscore.Fitness>
9.3916

> <Gold.Chemscore.DG>
-11.4590

> <Gold.Chemscore.ZeroCoef>
-5.4800

> <Gold.Chemscore.Hbond>
1.2804

> <Gold.Chemscore.Metal>
0.0000

> <Gold.Chemscore.Lipo>
55.2090

> <Gold.Chemscore.Internal_Hbond>
0.0000

> <Gold.Chemscore.DEClash>
0.2230

> <Gold.Chemscore.DEInternal>
1.8444

> <Gold.Chemscore.Rot>
1.8582

> <Gold.Chemscore.Internal.Correction>
   9.000000E+99

> <Gold.Chemscore.Hbonds>
donor molecule, donor type, donor heavy atom, donor atom, acceptor molecule, acceptor atom, score
      L1  H    15    32       P1  7949  0.12
      L1  H    15    33       P1  7948  0.25
      P1  H  7989  7998       L1    16  0.21

> <Gold.Chemscore.Hbond.Weighted>
-4.2765

> <Gold.Chemscore.Metal.Weighted>
-0.0000

> <Gold.Chemscore.Lipo.Weighted>
-6.4595

> <Gold.Chemscore.Internal_Hbond.Weighted>
0.0000

> <Gold.Chemscore.DEClash.Weighted>
0.2230

> <Gold.Chemscore.DEInternal.Weighted>
1.8444

> <Gold.Chemscore.Rot.Weighted>
4.7570

> <Gold.Chemscore.Internal.Correction.Weighted>
   9.000000E+99

> <Gold.Protein.RotatedTorsions>
[ 6907 6896 6895 6894 ] final    6.97 input  -60.11 | X-H torsion
[ 7974 7965 7964 7962 ] final -150.33 input  175.53 | X-H torsion
[ 8008 7997 7996 7995 ] final   98.82 input   59.86 | X-H torsion
[ 10167 10162 10161 10158 ] final   66.24 input  -65.29 | X-H torsion
[ 10718 10713 10712 10709 ] final -115.83 input   66.30 | X-H torsion
[ 10763 10752 10751 10750 ] final  159.32 input  -60.55 | X-H torsion
[ 11005 11000 10999 10996 ] final -170.29 input  -57.11 | X-H torsion

> <Gold.Protein.ActiveResidues>
 VAL166  LYS551  ARG553  GLY616  TRP617  ASP618  TYR619  PRO620  LYS621  CYS622 
 ASP623  PHE694  ASN695  SER759  ASP760  ASP761  ALA762  ILE779  LEU786  VAL792 
 PHE793  MET794  SER795  GLU796  ALA797  LYS798  CYS799  TRP800  GLU811  SER814 

> <Gold.Protein.RotatedAtoms>
  151.6823  135.0960  160.0218 H   0  0  0  0  0  0  0  0  0  0  0  0  # atno 6907 bound_to 6896
  152.3828  133.6565  159.6183 H   0  0  0  0  0  0  0  0  0  0  0  0  # atno 6908 bound_to 6896
  150.7761  133.9002  159.3380 H   0  0  0  0  0  0  0  0  0  0  0  0  # atno 6909 bound_to 6896
  144.7914  140.4947  143.5770 H   0  0  0  0  0  0  0  0  0  0  0  0  # atno 7974 bound_to 7965
  156.1043  140.3238  155.7985 H   0  0  0  0  0  0  0  0  0  0  0  0  # atno 8008 bound_to 7997
  155.4782  140.0552  157.2988 H   0  0  0  0  0  0  0  0  0  0  0  0  # atno 8009 bound_to 7997
  154.4717  140.2014  155.9992 H   0  0  0  0  0  0  0  0  0  0  0  0  # atno 8010 bound_to 7997
  140.1025  144.4891  150.7028 H   0  0  0  0  0  0  0  0  0  0  0  0  # atno 10167 bound_to 10162
  156.0922  130.6102  150.8957 H   0  0  0  0  0  0  0  0  0  0  0  0  # atno 10718 bound_to 10713
  154.2300  135.2778  155.2893 H   0  0  0  0  0  0  0  0  0  0  0  0  # atno 10763 bound_to 10752
  154.5632  135.5641  153.7029 H   0  0  0  0  0  0  0  0  0  0  0  0  # atno 10764 bound_to 10752
  153.0022  135.6303  154.2441 H   0  0  0  0  0  0  0  0  0  0  0  0  # atno 10765 bound_to 10752
  140.5211  134.5708  157.5048 H   0  0  0  0  0  0  0  0  0  0  0  0  # atno 11005 bound_to 11000
  145.5784  139.1487  143.3249 LP  0  0  0  0  0  0  0  0  0  0  0  0  # atno 17320 bound_to 7965
  146.2167  140.5915  142.9035 LP  0  0  0  0  0  0  0  0  0  0  0  0  # atno 17321 bound_to 7965
  140.6970  143.2410  151.4973 LP  0  0  0  0  0  0  0  0  0  0  0  0  # atno 17342 bound_to 10162
  139.5663  144.2034  152.1770 LP  0  0  0  0  0  0  0  0  0  0  0  0  # atno 17343 bound_to 10162
  157.6074  131.0938  150.8854 LP  0  0  0  0  0  0  0  0  0  0  0  0  # atno 17370 bound_to 10713
  156.9000  130.5243  149.5283 LP  0  0  0  0  0  0  0  0  0  0  0  0  # atno 17371 bound_to 10713
  139.9605  134.7460  156.0247 LP  0  0  0  0  0  0  0  0  0  0  0  0  # atno 17394 bound_to 11000
  141.1333  133.6581  156.3525 LP  0  0  0  0  0  0  0  0  0  0  0  0  # atno 17395 bound_to 11000

$$$$
