AV-unprocessed.smi:1644|AV-procd|sdf|6592|dock8
  -GOLD-   22720 7293D 1   1.00000     0.00000
 Structure written by MMmdl.
 48 50  0  0  0  0  0  0  0  0  2 V2000
  152.8341  142.3946  160.6339 C   0  0  0  0  0  0  0  0  0  0  0  0
  153.1141  141.4067  159.4963 C   0  0  0  0  0  0  0  0  0  0  0  0
  151.8683  140.5755  159.1201 C   0  0  0  0  0  0  0  0  0  0  0  0
  152.0845  139.4580  158.0704 C   0  0  2  0  0  0  0  0  0  0  0  0
  152.5412  139.9902  156.8036 N   0  5  0  0  0  0  0  0  0  0  0  0
  151.6761  139.5981  155.8386 C   0  0  0  0  0  0  0  0  0  0  0  0
  151.7381  139.8726  154.6405 O   0  0  0  0  0  0  0  0  0  0  0  0
  150.6806  138.8494  156.3533 N   0  0  0  0  0  0  0  0  0  0  0  0
  149.5565  138.3000  155.5889 C   0  0  0  0  0  0  0  0  0  0  0  0
  149.6574  136.7666  155.4558 C   0  0  2  0  0  0  0  0  0  0  0  0
  150.3884  136.4598  154.2838 O   0  0  0  0  0  0  0  0  0  0  0  0
  148.2679  136.1105  155.3474 C   0  0  0  0  0  0  0  0  0  0  0  0
  148.3239  134.7901  154.7464 N   0  0  0  0  0  0  0  0  0  0  0  0
  149.1989  133.8043  155.0227 C   0  0  0  0  0  0  0  0  0  0  0  0
  149.0706  132.6681  154.3428 N   0  0  0  0  0  0  0  0  0  0  0  0
  147.9829  132.9494  153.5336 C   0  0  0  0  0  0  0  0  0  0  0  0
  147.3286  132.1538  152.5674 C   0  0  0  0  0  0  0  0  0  0  0  0
  146.2167  132.6518  151.8511 C   0  0  0  0  0  0  0  0  0  0  0  0
  145.5388  131.7601  150.8256 C   0  0  0  0  0  0  0  0  0  0  0  0
  145.7456  133.9673  152.0943 C   0  0  0  0  0  0  0  0  0  0  0  0
  144.5494  134.5223  151.3416 C   0  0  0  0  0  0  0  0  0  0  0  0
  146.3916  134.7773  153.0515 C   0  0  0  0  0  0  0  0  0  0  0  0
  147.4938  134.2688  153.7608 C   0  0  0  0  0  0  0  0  0  0  0  0
  150.8212  138.7209  157.6757 C   0  0  0  0  0  0  0  0  0  0  0  0
  150.0765  138.1348  158.4621 O   0  0  0  0  0  0  0  0  0  0  0  0
  153.7282  142.9689  160.8776 H   0  0  0  0  0  0  0  0  0  0  0  0
  152.5163  141.8741  161.5376 H   0  0  0  0  0  0  0  0  0  0  0  0
  152.0493  143.0997  160.3585 H   0  0  0  0  0  0  0  0  0  0  0  0
  153.4741  141.9630  158.6308 H   0  0  0  0  0  0  0  0  0  0  0  0
  153.9268  140.7444  159.7957 H   0  0  0  0  0  0  0  0  0  0  0  0
  151.4545  140.1281  160.0249 H   0  0  0  0  0  0  0  0  0  0  0  0
  151.0958  141.2515  158.7514 H   0  0  0  0  0  0  0  0  0  0  0  0
  152.7881  138.7277  158.4722 H   0  0  0  0  0  0  0  0  0  0  0  0
  148.6353  138.5645  156.1107 H   0  0  0  0  0  0  0  0  0  0  0  0
  149.4714  138.7743  154.6093 H   0  0  0  0  0  0  0  0  0  0  0  0
  150.1812  136.3463  156.3156 H   0  0  0  0  0  0  0  0  0  0  0  0
  149.7738  136.2745  153.5898 H   0  0  0  0  0  0  0  0  0  0  0  0
  147.8231  136.0075  156.3380 H   0  0  0  0  0  0  0  0  0  0  0  0
  147.5916  136.7377  154.7642 H   0  0  0  0  0  0  0  0  0  0  0  0
  149.9731  133.9277  155.7661 H   0  0  0  0  0  0  0  0  0  0  0  0
  147.6881  131.1521  152.3824 H   0  0  0  0  0  0  0  0  0  0  0  0
  145.5611  132.2251  149.8398 H   0  0  0  0  0  0  0  0  0  0  0  0
  144.4994  131.5829  151.1023 H   0  0  0  0  0  0  0  0  0  0  0  0
  146.0350  130.7918  150.7495 H   0  0  0  0  0  0  0  0  0  0  0  0
  144.3295  135.5466  151.6443 H   0  0  0  0  0  0  0  0  0  0  0  0
  143.6628  133.9186  151.5364 H   0  0  0  0  0  0  0  0  0  0  0  0
  144.7390  134.5245  150.2682 H   0  0  0  0  0  0  0  0  0  0  0  0
  146.0441  135.7811  153.2479 H   0  0  0  0  0  0  0  0  0  0  0  0
  1  2  1  0  0  0  0
  1 26  1  0  0  0  0
  1 27  1  0  0  0  0
  1 28  1  0  0  0  0
  2  3  1  0  0  0  0
  2 29  1  0  0  0  0
  2 30  1  0  0  0  0
  3  4  1  0  0  0  0
  3 31  1  0  0  0  0
  3 32  1  0  0  0  0
  4 24  1  0  0  0  0
  4  5  1  0  0  0  0
  4 33  1  0  0  0  0
  5  6  1  0  0  0  0
  6  7  2  0  0  0  0
  6  8  1  0  0  0  0
  8  9  1  0  0  0  0
  8 24  1  0  0  0  0
  9 10  1  0  0  0  0
  9 34  1  0  0  0  0
  9 35  1  0  0  0  0
 10 11  1  0  0  0  0
 10 12  1  0  0  0  0
 10 36  1  0  0  0  0
 11 37  1  0  0  0  0
 12 13  1  0  0  0  0
 12 38  1  0  0  0  0
 12 39  1  0  0  0  0
 13 23  1  0  0  0  0
 13 14  1  0  0  0  0
 14 15  2  0  0  0  0
 14 40  1  0  0  0  0
 15 16  1  0  0  0  0
 16 23  2  0  0  0  0
 16 17  1  0  0  0  0
 17 18  2  0  0  0  0
 17 41  1  0  0  0  0
 18 19  1  0  0  0  0
 18 20  1  0  0  0  0
 19 42  1  0  0  0  0
 19 43  1  0  0  0  0
 19 44  1  0  0  0  0
 20 21  1  0  0  0  0
 20 22  2  0  0  0  0
 21 45  1  0  0  0  0
 21 46  1  0  0  0  0
 21 47  1  0  0  0  0
 22 23  1  0  0  0  0
 22 48  1  0  0  0  0
 24 25  2  0  0  0  0
M  CHG  1   5  -1
M  END
> <s_m_source_file>
AV-unprocessed.smi

> <i_m_source_file_index>
1644

> <i_lp_mmshare_version>
43012

> <i_f3d_flags>
0

> <s_epik_input>
W0NIM11bQ0gyXVtDSDJdW0NAQEhdMVtOSF1DKD1PKU4oQzE9TylbQ0gyXVtDQEhdKFtPSF0pW0NIMl1uKFtjSF1uMiljKGMyMylbY0hdYyhbQ0gzXSljKFtjSF0zKVtDSDNd

> <s_epik_cmdline>
J2VwaWtfcHl0aG9uJywgJy1waCcsICc3LjAnLCAnLXRuJywgJzgnLCAnLW1hJywgJzIwMCcsICctbWV0YWxfYmluZGluZycsICctaW1hZScsICc8aW5maWxlLm1hZT4nLCAnLW9tYWUnLCAnPG91dGZpbGUubWFlPic=

> <r_lp_tautomer_probability>
1

> <r_epik_Ionization_Penalty>
5.95212

> <r_epik_Ionization_Penalty_Charging>
5.84419

> <r_epik_Ionization_Penalty_Neutral>
0.107924

> <r_epik_State_Penalty>
5.94088

> <r_epik_Charging_Adjusted_Penalty>
11.7851

> <i_epik_Tot_Q>
-1

> <i_epik_Tot_abs_Q>
1

> <r_epik_Metal_State_Penalty>
1.99095

> <b_epik_Metal_Only>
1

> <s_lp_Force_Field>
OPLS_2005

> <r_lp_Energy>
19.2974

> <b_lp_Chiralities_Consistent>
1

> <s_lp_Variant>
AV-unprocessed.smi:1644-9

> <Gold.Version>
5.8.1

> <Gold.Id.Protein>
6NUR|6NUR_protein|mol2

> <Gold.PLP.Fitness>
47.9060

> <Gold.PLP.PLP>
-37.6039

> <Gold.PLP.part.hbond>
-4.0000

> <Gold.PLP.part.metal>
0.0000

> <Gold.PLP.part.buried>
-2.8285

> <Gold.PLP.part.nonpolar>
-30.4626

> <Gold.PLP.part.repulsive>
0.1267

> <Gold.PLP.ligand.clash>
0.0000

> <Gold.PLP.ligand.torsion>
0.8937

> <Gold.PLP.Chemscore.Hbond>
4.0000

> <Gold.PLP.Chemscore.CHOScore>
0.0000

> <Gold.PLP.Chemscore.Metal>
0.0000

> <Gold.Chemscore.Hbonds>
donor molecule, donor type, donor heavy atom, donor atom, acceptor molecule, acceptor atom, score
      L1  H    11    37       P1  7948  1.00
      P1  H  7989  7998       L1     7  0.94
      P1  H  7997  8010       L1     5  2.00

> <Gold.PLP.Chemscore.Internal.Correction>
0.0895

> <Gold.Rescore>
     Score         DG    S(hbond)    S(metal)    S(lipo)     H(rot)  DE(clash)    DE(int)     intcor
     15.63     -16.47       2.54        0.00      79.28       2.65       0.01       0.84       ----

> <Gold.Chemscore.Fitness>
15.6301

> <Gold.Chemscore.DG>
-16.4706

> <Gold.Chemscore.ZeroCoef>
-5.4800

> <Gold.Chemscore.Hbond>
2.5436

> <Gold.Chemscore.Metal>
0.0000

> <Gold.Chemscore.Lipo>
79.2779

> <Gold.Chemscore.Internal_Hbond>
0.0000

> <Gold.Chemscore.DEClash>
0.0050

> <Gold.Chemscore.DEInternal>
0.8355

> <Gold.Chemscore.Rot>
2.6486

> <Gold.Chemscore.Internal.Correction>
   9.000000E+99

> <Gold.Chemscore.Hbonds>
donor molecule, donor type, donor heavy atom, donor atom, acceptor molecule, acceptor atom, score
      L1  H    11    37       P1  7948  0.25
      P1  H  7989  7998       L1     7  0.87
      P1  H  7997  8010       L1     5  0.96

> <Gold.Chemscore.Hbond.Weighted>
-8.4956

> <Gold.Chemscore.Metal.Weighted>
-0.0000

> <Gold.Chemscore.Lipo.Weighted>
-9.2755

> <Gold.Chemscore.Internal_Hbond.Weighted>
0.0000

> <Gold.Chemscore.DEClash.Weighted>
0.0050

> <Gold.Chemscore.DEInternal.Weighted>
0.8355

> <Gold.Chemscore.Rot.Weighted>
6.7804

> <Gold.Chemscore.Internal.Correction.Weighted>
   9.000000E+99

> <Gold.Protein.RotatedTorsions>
[ 6907 6896 6895 6894 ] final  -31.14 input  -60.11 | X-H torsion
[ 7974 7965 7964 7962 ] final   20.66 input  175.53 | X-H torsion
[ 8008 7997 7996 7995 ] final   71.14 input   59.86 | X-H torsion
[ 10167 10162 10161 10158 ] final   54.58 input  -65.29 | X-H torsion
[ 10718 10713 10712 10709 ] final  -85.40 input   66.30 | X-H torsion
[ 10763 10752 10751 10750 ] final  102.86 input  -60.55 | X-H torsion
[ 11005 11000 10999 10996 ] final -120.08 input  -57.11 | X-H torsion

> <Gold.Protein.ActiveResidues>
 VAL166  LYS551  ARG553  GLY616  TRP617  ASP618  TYR619  PRO620  LYS621  CYS622 
 ASP623  PHE694  ASN695  SER759  ASP760  ASP761  ALA762  ILE779  LEU786  VAL792 
 PHE793  MET794  SER795  GLU796  ALA797  LYS798  CYS799  TRP800  GLU811  SER814 

> <Gold.Protein.RotatedAtoms>
  151.0961  134.9945  159.8425 H   0  0  0  0  0  0  0  0  0  0  0  0  # atno 6907 bound_to 6896
  152.5433  134.2006  159.8721 H   0  0  0  0  0  0  0  0  0  0  0  0  # atno 6908 bound_to 6896
  151.2046  133.4547  159.2630 H   0  0  0  0  0  0  0  0  0  0  0  0  # atno 6909 bound_to 6896
  146.2102  139.8137  142.8694 H   0  0  0  0  0  0  0  0  0  0  0  0  # atno 7974 bound_to 7965
  155.7494  140.3489  155.5143 H   0  0  0  0  0  0  0  0  0  0  0  0  # atno 8008 bound_to 7997
  155.9019  140.1035  157.1365 H   0  0  0  0  0  0  0  0  0  0  0  0  # atno 8009 bound_to 7997
  154.4045  140.1284  156.4434 H   0  0  0  0  0  0  0  0  0  0  0  0  # atno 8010 bound_to 7997
  140.2286  144.3711  150.6423 H   0  0  0  0  0  0  0  0  0  0  0  0  # atno 10167 bound_to 10162
  155.9997  130.4730  150.4557 H   0  0  0  0  0  0  0  0  0  0  0  0  # atno 10718 bound_to 10713
  153.3450  135.3996  155.1602 H   0  0  0  0  0  0  0  0  0  0  0  0  # atno 10763 bound_to 10752
  154.8651  135.3643  154.5296 H   0  0  0  0  0  0  0  0  0  0  0  0  # atno 10764 bound_to 10752
  153.5743  135.7078  153.5550 H   0  0  0  0  0  0  0  0  0  0  0  0  # atno 10765 bound_to 10752
  141.0169  134.0181  157.3336 H   0  0  0  0  0  0  0  0  0  0  0  0  # atno 11005 bound_to 11000
  145.3169  141.0234  143.3523 LP  0  0  0  0  0  0  0  0  0  0  0  0  # atno 17320 bound_to 7965
  144.8895  139.4794  143.6684 LP  0  0  0  0  0  0  0  0  0  0  0  0  # atno 17321 bound_to 7965
  140.6202  143.2175  151.6709 LP  0  0  0  0  0  0  0  0  0  0  0  0  # atno 17342 bound_to 10162
  139.5118  144.3497  152.0664 LP  0  0  0  0  0  0  0  0  0  0  0  0  # atno 17343 bound_to 10162
  157.2586  131.0562  151.2334 LP  0  0  0  0  0  0  0  0  0  0  0  0  # atno 17370 bound_to 10713
  157.3457  130.7056  149.6409 LP  0  0  0  0  0  0  0  0  0  0  0  0  # atno 17371 bound_to 10713
  139.9123  135.0192  156.7740 LP  0  0  0  0  0  0  0  0  0  0  0  0  # atno 17394 bound_to 11000
  140.6639  133.9620  155.7819 LP  0  0  0  0  0  0  0  0  0  0  0  0  # atno 17395 bound_to 11000

$$$$
