AV-unprocessed.smi:2476|AV-procd|sdf|9757|dock6
  -GOLD-   2272013403D 1   1.00000     0.00000
 Structure written by MMmdl.
 34 35  0  0  0  0  0  0  0  0  1 V2000
  146.7794  138.7230  151.8408 C   0  0  0  0  0  0  0  0  0  0  0  0
  147.0212  139.5711  153.0849 C   0  0  0  0  0  0  0  0  0  0  0  0
  146.3205  139.4138  154.0843 O   0  0  0  0  0  0  0  0  0  0  0  0
  148.0161  140.4676  153.0100 N   0  0  0  0  0  0  0  0  0  0  0  0
  148.4186  141.3665  154.0864 C   0  0  0  0  0  0  0  0  0  0  0  0
  149.3519  140.6718  155.0926 C   0  0  2  0  0  0  0  0  0  0  0  0
  150.1017  141.6896  155.9735 C   0  0  0  0  0  0  0  0  0  0  0  0
  151.0441  141.0015  156.8522 N   0  0  0  0  0  0  0  0  0  0  0  0
  151.6447  141.7536  157.8822 C   0  0  0  0  0  0  0  0  0  0  0  0
  151.6443  143.1059  157.7717 N   0  0  0  0  0  0  0  0  0  0  0  0
  152.2244  143.8393  158.7454 C   0  0  0  0  0  0  0  0  0  0  0  0
  152.8343  143.2713  159.8797 C   0  0  0  0  0  0  0  0  0  0  0  0
  152.8334  141.8701  160.0039 C   0  0  0  0  0  0  0  0  0  0  0  0
  152.2293  141.0969  158.9935 C   0  0  0  0  0  0  0  0  0  0  0  0
  152.1986  139.7470  159.1085 F   0  0  0  0  0  0  0  0  0  0  0  0
  151.9591  140.1245  156.1294 C   0  0  0  0  0  0  0  0  0  0  0  0
  151.1677  139.1599  155.2304 C   0  0  0  0  0  0  0  0  0  0  0  0
  150.3104  139.9022  154.3686 O   0  0  0  0  0  0  0  0  0  0  0  0
  147.7243  138.4238  151.3857 H   0  0  0  0  0  0  0  0  0  0  0  0
  146.2040  139.2863  151.1058 H   0  0  0  0  0  0  0  0  0  0  0  0
  146.2234  137.8191  152.0923 H   0  0  0  0  0  0  0  0  0  0  0  0
  148.5413  140.5243  152.1494 H   0  0  0  0  0  0  0  0  0  0  0  0
  148.9195  142.2284  153.6449 H   0  0  0  0  0  0  0  0  0  0  0  0
  147.5324  141.7510  154.5940 H   0  0  0  0  0  0  0  0  0  0  0  0
  148.7640  140.0098  155.7313 H   0  0  0  0  0  0  0  0  0  0  0  0
  150.6419  142.4001  155.3458 H   0  0  0  0  0  0  0  0  0  0  0  0
  149.3871  142.2582  156.5703 H   0  0  0  0  0  0  0  0  0  0  0  0
  152.2013  144.9110  158.6157 H   0  0  0  0  0  0  0  0  0  0  0  0
  153.2874  143.8947  160.6362 H   0  0  0  0  0  0  0  0  0  0  0  0
  153.2845  141.3951  160.8627 H   0  0  0  0  0  0  0  0  0  0  0  0
  152.6270  140.7361  155.5213 H   0  0  0  0  0  0  0  0  0  0  0  0
  152.5877  139.5534  156.8117 H   0  0  0  0  0  0  0  0  0  0  0  0
  151.8511  138.5649  154.6248 H   0  0  0  0  0  0  0  0  0  0  0  0
  150.5822  138.4609  155.8296 H   0  0  0  0  0  0  0  0  0  0  0  0
  1  2  1  0  0  0  0
  1 19  1  0  0  0  0
  1 20  1  0  0  0  0
  1 21  1  0  0  0  0
  2  3  2  0  0  0  0
  2  4  1  0  0  0  0
  4  5  1  0  0  0  0
  4 22  1  0  0  0  0
  5  6  1  0  0  0  0
  5 23  1  0  0  0  0
  5 24  1  0  0  0  0
  6 18  1  0  0  0  0
  6  7  1  0  0  0  0
  6 25  1  0  0  0  0
  7  8  1  0  0  0  0
  7 26  1  0  0  0  0
  7 27  1  0  0  0  0
  8  9  1  0  0  0  0
  8 16  1  0  0  0  0
  9 14  1  0  0  0  0
  9 10  2  0  0  0  0
 10 11  1  0  0  0  0
 11 12  2  0  0  0  0
 11 28  1  0  0  0  0
 12 13  1  0  0  0  0
 12 29  1  0  0  0  0
 13 14  2  0  0  0  0
 13 30  1  0  0  0  0
 14 15  1  0  0  0  0
 16 17  1  0  0  0  0
 16 31  1  0  0  0  0
 16 32  1  0  0  0  0
 17 18  1  0  0  0  0
 17 33  1  0  0  0  0
 17 34  1  0  0  0  0
M  END
> <s_m_source_file>
AV-unprocessed.smi

> <i_m_source_file_index>
2476

> <i_lp_mmshare_version>
43012

> <i_f3d_flags>
0

> <s_epik_input>
W0NIM11DKD1PKVtOSF1bQ0gyXVtDQEBIXTFbQ0gyXU4oW0NIMl1bQ0gyXU8xKWMybltjSF1bY0hdW2NIXWMyRg==

> <s_epik_cmdline>
J2VwaWtfcHl0aG9uJywgJy1waCcsICc3LjAnLCAnLXRuJywgJzgnLCAnLW1hJywgJzIwMCcsICctbWV0YWxfYmluZGluZycsICctaW1hZScsICc8aW5maWxlLm1hZT4nLCAnLW9tYWUnLCAnPG91dGZpbGUubWFlPic=

> <r_lp_tautomer_probability>
1

> <r_epik_Ionization_Penalty>
1.69306e-05

> <r_epik_Ionization_Penalty_Charging>
0

> <r_epik_Ionization_Penalty_Neutral>
1.69306e-05

> <r_epik_State_Penalty>
-0

> <r_epik_Charging_Adjusted_Penalty>
0

> <i_epik_Tot_Q>
0

> <i_epik_Tot_abs_Q>
0

> <r_epik_Metal_State_Penalty>
-0

> <b_epik_Metal_Only>
0

> <s_lp_Force_Field>
OPLS_2005

> <r_lp_Energy>
18.0017

> <b_lp_Chiralities_Consistent>
1

> <s_lp_Variant>
AV-unprocessed.smi:2476-1

> <Gold.Version>
5.8.1

> <Gold.Id.Protein>
6NUR|6NUR_protein|mol2

> <Gold.PLP.Fitness>
45.3871

> <Gold.PLP.PLP>
-40.5747

> <Gold.PLP.part.hbond>
-1.8312

> <Gold.PLP.part.metal>
0.0000

> <Gold.PLP.part.buried>
-4.2694

> <Gold.PLP.part.nonpolar>
-35.3172

> <Gold.PLP.part.repulsive>
0.4769

> <Gold.PLP.ligand.clash>
0.0000

> <Gold.PLP.ligand.torsion>
0.5726

> <Gold.PLP.Chemscore.Hbond>
1.9000

> <Gold.PLP.Chemscore.CHOScore>
0.0000

> <Gold.PLP.Chemscore.Metal>
0.0000

> <Gold.Chemscore.Hbonds>
donor molecule, donor type, donor heavy atom, donor atom, acceptor molecule, acceptor atom, score
      L1  H     4    22       P1  7957  0.98
      P1  H  7989  7998       L1    18  0.90

> <Gold.PLP.Chemscore.Internal.Correction>
0.2577

> <Gold.Rescore>
     Score         DG    S(hbond)    S(metal)    S(lipo)     H(rot)  DE(clash)    DE(int)     intcor
     14.68     -16.44       1.45        0.00      87.57       1.61       0.14       1.62       ----

> <Gold.Chemscore.Fitness>
14.6772

> <Gold.Chemscore.DG>
-16.4377

> <Gold.Chemscore.ZeroCoef>
-5.4800

> <Gold.Chemscore.Hbond>
1.4455

> <Gold.Chemscore.Metal>
0.0000

> <Gold.Chemscore.Lipo>
87.5696

> <Gold.Chemscore.Internal_Hbond>
0.0000

> <Gold.Chemscore.DEClash>
0.1407

> <Gold.Chemscore.DEInternal>
1.6198

> <Gold.Chemscore.Rot>
1.6078

> <Gold.Chemscore.Internal.Correction>
   9.000000E+99

> <Gold.Chemscore.Hbonds>
donor molecule, donor type, donor heavy atom, donor atom, acceptor molecule, acceptor atom, score
      L1  H     4    22       P1  7957  0.89
      P1  H  7989  7998       L1    18  0.16

> <Gold.Chemscore.Hbond.Weighted>
-4.8280

> <Gold.Chemscore.Metal.Weighted>
-0.0000

> <Gold.Chemscore.Lipo.Weighted>
-10.2456

> <Gold.Chemscore.Internal_Hbond.Weighted>
0.0000

> <Gold.Chemscore.DEClash.Weighted>
0.1407

> <Gold.Chemscore.DEInternal.Weighted>
1.6198

> <Gold.Chemscore.Rot.Weighted>
4.1159

> <Gold.Chemscore.Internal.Correction.Weighted>
   9.000000E+99

> <Gold.Protein.RotatedTorsions>
[ 6907 6896 6895 6894 ] final  -36.97 input  -60.11 | X-H torsion
[ 7974 7965 7964 7962 ] final -149.22 input  175.53 | X-H torsion
[ 8008 7997 7996 7995 ] final   -0.75 input   59.86 | X-H torsion
[ 10167 10162 10161 10158 ] final  -93.03 input  -65.29 | X-H torsion
[ 10718 10713 10712 10709 ] final  -37.28 input   66.30 | X-H torsion
[ 10763 10752 10751 10750 ] final  115.93 input  -60.55 | X-H torsion
[ 11005 11000 10999 10996 ] final  101.93 input  -57.11 | X-H torsion

> <Gold.Protein.ActiveResidues>
 VAL166  LYS551  ARG553  GLY616  TRP617  ASP618  TYR619  PRO620  LYS621  CYS622 
 ASP623  PHE694  ASN695  SER759  ASP760  ASP761  ALA762  ILE779  LEU786  VAL792 
 PHE793  MET794  SER795  GLU796  ALA797  LYS798  CYS799  TRP800  GLU811  SER814 

> <Gold.Protein.RotatedAtoms>
  151.0205  134.9465  159.8056 H   0  0  0  0  0  0  0  0  0  0  0  0  # atno 6907 bound_to 6896
  152.5324  134.2909  159.9053 H   0  0  0  0  0  0  0  0  0  0  0  0  # atno 6908 bound_to 6896
  151.2917  133.4120  159.2667 H   0  0  0  0  0  0  0  0  0  0  0  0  # atno 6909 bound_to 6896
  144.7981  140.5093  143.5726 H   0  0  0  0  0  0  0  0  0  0  0  0  # atno 7974 bound_to 7965
  154.6545  140.2576  155.7176 H   0  0  0  0  0  0  0  0  0  0  0  0  # atno 8008 bound_to 7997
  156.2590  140.2861  156.0914 H   0  0  0  0  0  0  0  0  0  0  0  0  # atno 8009 bound_to 7997
  155.1400  140.0380  157.2786 H   0  0  0  0  0  0  0  0  0  0  0  0  # atno 8010 bound_to 7997
  140.3288  143.3007  151.9965 H   0  0  0  0  0  0  0  0  0  0  0  0  # atno 10167 bound_to 10162
  156.3171  130.4260  149.7995 H   0  0  0  0  0  0  0  0  0  0  0  0  # atno 10718 bound_to 10713
  153.5295  135.3581  155.2669 H   0  0  0  0  0  0  0  0  0  0  0  0  # atno 10763 bound_to 10752
  154.8728  135.4065  154.3167 H   0  0  0  0  0  0  0  0  0  0  0  0  # atno 10764 bound_to 10752
  153.3853  135.7070  153.6602 H   0  0  0  0  0  0  0  0  0  0  0  0  # atno 10765 bound_to 10752
  139.8775  134.9203  156.4982 H   0  0  0  0  0  0  0  0  0  0  0  0  # atno 11005 bound_to 11000
  145.5623  139.1480  143.3334 LP  0  0  0  0  0  0  0  0  0  0  0  0  # atno 17320 bound_to 7965
  146.2255  140.5758  142.8998 LP  0  0  0  0  0  0  0  0  0  0  0  0  # atno 17321 bound_to 7965
  139.4860  144.6252  151.7179 LP  0  0  0  0  0  0  0  0  0  0  0  0  # atno 17342 bound_to 10162
  140.5416  144.0570  150.6091 LP  0  0  0  0  0  0  0  0  0  0  0  0  # atno 17343 bound_to 10162
  156.5317  130.8260  151.3239 LP  0  0  0  0  0  0  0  0  0  0  0  0  # atno 17370 bound_to 10713
  157.7404  130.9849  150.2374 LP  0  0  0  0  0  0  0  0  0  0  0  0  # atno 17371 bound_to 10713
  140.8609  133.8060  155.9264 LP  0  0  0  0  0  0  0  0  0  0  0  0  # atno 17394 bound_to 11000
  140.9050  134.2331  157.5019 LP  0  0  0  0  0  0  0  0  0  0  0  0  # atno 17395 bound_to 11000

$$$$
