AV-unprocessed.smi:3228|AV-procd|sdf|12324|dock9
  -GOLD-   2272018173D 1   1.00000     0.00000
 Structure written by MMmdl.
 30 31  0  0  0  0  0  0  0  0  2 V2000
  148.9775  135.5924  158.9711 O   0  0  0  0  0  0  0  0  0  0  0  0
  148.8845  136.7104  159.4832 C   0  0  0  0  0  0  0  0  0  0  0  0
  149.7670  137.6654  159.1621 N   0  0  0  0  0  0  0  0  0  0  0  0
  150.8757  137.5043  158.2296 C   0  0  0  0  0  0  0  0  0  0  0  0
  150.6925  138.4041  156.9929 C   0  0  1  0  0  0  0  0  0  0  0  0
  150.6387  139.9098  157.2848 C   0  0  0  0  0  0  0  0  0  0  0  0
  151.0252  140.6036  155.9696 C   0  0  0  0  0  0  0  0  0  0  0  0
  151.5602  139.5068  155.0349 C   0  0  0  0  0  0  0  0  0  0  0  0
  151.7773  138.2707  155.9143 C   0  0  1  0  0  0  0  0  0  0  0  0
  153.0770  138.3271  156.4727 O   0  0  0  0  0  0  0  0  0  0  0  0
  147.9512  137.1085  160.3778 N   0  5  0  0  0  0  0  0  0  0  0  0
  147.2674  136.1955  161.0866 C   0  0  0  0  0  0  0  0  0  0  0  0
  147.6128  134.9038  161.1383 N   0  0  0  0  0  0  0  0  0  0  0  0
  146.7586  134.1318  161.9278 C   0  0  0  0  0  0  0  0  0  0  0  0
  145.7339  134.8506  162.4834 C   0  0  0  0  0  0  0  0  0  0  0  0
  145.8112  136.5290  162.0284 S   0  0  0  0  0  0  0  0  0  0  0  0
  149.6606  138.5681  159.6013 H   0  0  0  0  0  0  0  0  0  0  0  0
  151.8075  137.7425  158.7446 H   0  0  0  0  0  0  0  0  0  0  0  0
  150.9358  136.4596  157.9206 H   0  0  0  0  0  0  0  0  0  0  0  0
  149.7454  138.1326  156.5226 H   0  0  0  0  0  0  0  0  0  0  0  0
  149.6582  140.2236  157.6444 H   0  0  0  0  0  0  0  0  0  0  0  0
  151.3658  140.1657  158.0569 H   0  0  0  0  0  0  0  0  0  0  0  0
  150.1671  141.1040  155.5196 H   0  0  0  0  0  0  0  0  0  0  0  0
  151.7849  141.3638  156.1538 H   0  0  0  0  0  0  0  0  0  0  0  0
  150.8018  139.2804  154.2843 H   0  0  0  0  0  0  0  0  0  0  0  0
  152.4596  139.8127  154.4984 H   0  0  0  0  0  0  0  0  0  0  0  0
  151.6771  137.3446  155.3473 H   0  0  0  0  0  0  0  0  0  0  0  0
  153.4654  137.4675  156.4131 H   0  0  0  0  0  0  0  0  0  0  0  0
  146.9552  133.0759  162.0380 H   0  0  0  0  0  0  0  0  0  0  0  0
  144.9424  134.4987  163.1274 H   0  0  0  0  0  0  0  0  0  0  0  0
  1  2  2  0  0  0  0
  2  3  1  0  0  0  0
  2 11  1  0  0  0  0
  3  4  1  0  0  0  0
  3 17  1  0  0  0  0
  4  5  1  0  0  0  0
  4 18  1  0  0  0  0
  4 19  1  0  0  0  0
  5  9  1  0  0  0  0
  5  6  1  0  0  0  0
  5 20  1  0  0  0  0
  6  7  1  0  0  0  0
  6 21  1  0  0  0  0
  6 22  1  0  0  0  0
  7  8  1  0  0  0  0
  7 23  1  0  0  0  0
  7 24  1  0  0  0  0
  8  9  1  0  0  0  0
  8 25  1  0  0  0  0
  8 26  1  0  0  0  0
  9 10  1  0  0  0  0
  9 27  1  0  0  0  0
 10 28  1  0  0  0  0
 11 12  1  0  0  0  0
 12 16  1  0  0  0  0
 12 13  2  0  0  0  0
 13 14  1  0  0  0  0
 14 15  2  0  0  0  0
 14 29  1  0  0  0  0
 15 16  1  0  0  0  0
 15 30  1  0  0  0  0
M  CHG  1  11  -1
M  END
> <s_m_source_file>
AV-unprocessed.smi

> <i_m_source_file_index>
3228

> <i_lp_mmshare_version>
43012

> <i_f3d_flags>
0

> <s_epik_input>
czFbY0hdW2NIXW5jMVtOSF1DKD1PKVtOSF1bQ0gyXVtDQEBIXTJbQ0gyXVtDSDJdW0NIMl1bQ0BIXTJbT0hd

> <s_epik_cmdline>
J2VwaWtfcHl0aG9uJywgJy1waCcsICc3LjAnLCAnLXRuJywgJzgnLCAnLW1hJywgJzIwMCcsICctbWV0YWxfYmluZGluZycsICctaW1hZScsICc8aW5maWxlLm1hZT4nLCAnLW9tYWUnLCAnPG91dGZpbGUubWFlPic=

> <r_lp_tautomer_probability>
0.999

> <r_epik_Ionization_Penalty>
8.49756

> <r_epik_Ionization_Penalty_Charging>
6.79645

> <r_epik_Ionization_Penalty_Neutral>
1.70111

> <r_epik_State_Penalty>
6.79662

> <r_epik_Charging_Adjusted_Penalty>
13.5931

> <i_epik_Tot_Q>
-1

> <i_epik_Tot_abs_Q>
1

> <r_epik_Metal_State_Penalty>
2.71629

> <b_epik_Metal_Only>
1

> <s_lp_Force_Field>
OPLS_2005

> <r_lp_Energy>
20.5315

> <b_lp_Chiralities_Consistent>
1

> <s_lp_Variant>
AV-unprocessed.smi:3228-6

> <Gold.Version>
5.8.1

> <Gold.Id.Protein>
6NUR|6NUR_protein|mol2

> <Gold.PLP.Fitness>
41.4130

> <Gold.PLP.PLP>
-26.6973

> <Gold.PLP.part.hbond>
-4.0000

> <Gold.PLP.part.metal>
0.0000

> <Gold.PLP.part.buried>
-2.2630

> <Gold.PLP.part.nonpolar>
-21.8673

> <Gold.PLP.part.repulsive>
0.7937

> <Gold.PLP.ligand.clash>
0.0000

> <Gold.PLP.ligand.torsion>
0.1358

> <Gold.PLP.Chemscore.Hbond>
4.9948

> <Gold.PLP.Chemscore.CHOScore>
0.0000

> <Gold.PLP.Chemscore.Metal>
0.0000

> <Gold.Chemscore.Hbonds>
donor molecule, donor type, donor heavy atom, donor atom, acceptor molecule, acceptor atom, score
      P1  H  6896  6908       L1     1  0.94
      P1  H  6931  6943       L1    11  0.93
      P1  H  6934  6947       L1    11  1.20
      P1  H  7997  8009       L1    10  0.64

> <Gold.PLP.Chemscore.Internal.Correction>
0.0029

> <Gold.Rescore>
     Score         DG    S(hbond)    S(metal)    S(lipo)     H(rot)  DE(clash)    DE(int)     intcor
     13.04     -15.10       2.42        0.00      53.63       1.85       0.31       1.74       ----

> <Gold.Chemscore.Fitness>
13.0435

> <Gold.Chemscore.DG>
-15.1003

> <Gold.Chemscore.ZeroCoef>
-5.4800

> <Gold.Chemscore.Hbond>
2.4182

> <Gold.Chemscore.Metal>
0.0000

> <Gold.Chemscore.Lipo>
53.6299

> <Gold.Chemscore.Internal_Hbond>
0.0000

> <Gold.Chemscore.DEClash>
0.3150

> <Gold.Chemscore.DEInternal>
1.7418

> <Gold.Chemscore.Rot>
1.8481

> <Gold.Chemscore.Internal.Correction>
   9.000000E+99

> <Gold.Chemscore.Hbonds>
donor molecule, donor type, donor heavy atom, donor atom, acceptor molecule, acceptor atom, score
      P1  H  6896  6908       L1     1  0.71
      P1  H  6931  6943       L1    11  0.10
      P1  H  6934  6947       L1    11  0.39
      P1  H  7997  8009       L1    10  0.58

> <Gold.Chemscore.Hbond.Weighted>
-8.0768

> <Gold.Chemscore.Metal.Weighted>
-0.0000

> <Gold.Chemscore.Lipo.Weighted>
-6.2747

> <Gold.Chemscore.Internal_Hbond.Weighted>
0.0000

> <Gold.Chemscore.DEClash.Weighted>
0.3150

> <Gold.Chemscore.DEInternal.Weighted>
1.7418

> <Gold.Chemscore.Rot.Weighted>
4.7313

> <Gold.Chemscore.Internal.Correction.Weighted>
   9.000000E+99

> <Gold.Protein.RotatedTorsions>
[ 6907 6896 6895 6894 ] final  174.51 input  -60.11 | X-H torsion
[ 7974 7965 7964 7962 ] final  -91.68 input  175.53 | X-H torsion
[ 8008 7997 7996 7995 ] final -169.01 input   59.86 | X-H torsion
[ 10167 10162 10161 10158 ] final   94.98 input  -65.29 | X-H torsion
[ 10718 10713 10712 10709 ] final -145.55 input   66.30 | X-H torsion
[ 10763 10752 10751 10750 ] final  -17.38 input  -60.55 | X-H torsion
[ 11005 11000 10999 10996 ] final  139.38 input  -57.11 | X-H torsion

> <Gold.Protein.ActiveResidues>
 VAL166  LYS551  ARG553  GLY616  TRP617  ASP618  TYR619  PRO620  LYS621  CYS622 
 ASP623  PHE694  ASN695  SER759  ASP760  ASP761  ALA762  ILE779  LEU786  VAL792 
 PHE793  MET794  SER795  GLU796  ALA797  LYS798  CYS799  TRP800  GLU811  SER814 

> <Gold.Protein.RotatedAtoms>
  151.7512  133.3327  159.3391 H   0  0  0  0  0  0  0  0  0  0  0  0  # atno 6907 bound_to 6896
  150.7534  134.6191  159.6136 H   0  0  0  0  0  0  0  0  0  0  0  0  # atno 6908 bound_to 6896
  152.3467  134.7063  160.0300 H   0  0  0  0  0  0  0  0  0  0  0  0  # atno 6909 bound_to 6896
  145.4098  140.9544  143.2240 H   0  0  0  0  0  0  0  0  0  0  0  0  # atno 7974 bound_to 7965
  155.8992  140.1038  157.1362 H   0  0  0  0  0  0  0  0  0  0  0  0  # atno 8008 bound_to 7997
  154.4024  140.1296  156.4478 H   0  0  0  0  0  0  0  0  0  0  0  0  # atno 8009 bound_to 7997
  155.7443  140.3466  155.5122 H   0  0  0  0  0  0  0  0  0  0  0  0  # atno 8010 bound_to 7997
  139.8032  144.6805  150.9737 H   0  0  0  0  0  0  0  0  0  0  0  0  # atno 10167 bound_to 10162
  156.3839  130.7851  151.2046 H   0  0  0  0  0  0  0  0  0  0  0  0  # atno 10718 bound_to 10713
  153.5730  135.7007  153.5496 H   0  0  0  0  0  0  0  0  0  0  0  0  # atno 10763 bound_to 10752
  153.3327  135.4043  155.1508 H   0  0  0  0  0  0  0  0  0  0  0  0  # atno 10764 bound_to 10752
  154.8630  135.3723  154.5254 H   0  0  0  0  0  0  0  0  0  0  0  0  # atno 10765 bound_to 10752
  140.0251  134.9378  157.0552 H   0  0  0  0  0  0  0  0  0  0  0  0  # atno 11005 bound_to 11000
  144.8316  139.5618  143.6941 LP  0  0  0  0  0  0  0  0  0  0  0  0  # atno 17320 bound_to 7965
  146.2710  139.6636  142.9296 LP  0  0  0  0  0  0  0  0  0  0  0  0  # atno 17321 bound_to 7965
  140.7820  143.4260  151.0768 LP  0  0  0  0  0  0  0  0  0  0  0  0  # atno 17342 bound_to 10162
  139.7931  143.8190  152.3154 LP  0  0  0  0  0  0  0  0  0  0  0  0  # atno 17343 bound_to 10162
  157.7494  131.0336  150.4279 LP  0  0  0  0  0  0  0  0  0  0  0  0  # atno 17370 bound_to 10713
  156.4527  130.4015  149.6625 LP  0  0  0  0  0  0  0  0  0  0  0  0  # atno 17371 bound_to 10713
  140.4321  134.1770  155.7168 LP  0  0  0  0  0  0  0  0  0  0  0  0  # atno 17394 bound_to 11000
  141.1798  133.8439  157.1299 LP  0  0  0  0  0  0  0  0  0  0  0  0  # atno 17395 bound_to 11000

$$$$
