AV-unprocessed.smi:213|AV-procd|sdf|1646|dock1
  -GOLD-   2262020 23D 1   1.00000     0.00000
 Structure written by MMmdl.
 58 61  0  0  0  0  0  0  0  0  1 V2000
  143.9977  137.1491  153.3552 C   0  0  0  0  0  0  0  0  0  0  0  0
  145.4307  136.8295  152.8826 C   0  0  1  0  0  0  0  0  0  0  0  0
  145.4733  136.3013  151.4278 C   0  0  0  0  0  0  0  0  0  0  0  0
  145.1287  134.8896  151.2498 N   0  0  0  0  0  0  0  0  0  0  0  0
  146.3188  134.0504  151.3389 C   0  0  0  0  0  0  0  0  0  0  0  0
  145.9858  132.5577  151.1813 C   0  0  0  0  0  0  0  0  0  0  0  0
  145.3196  132.3505  149.9410 O   0  0  0  0  0  0  0  0  0  0  0  0
  144.1224  133.1127  149.8313 C   0  0  0  0  0  0  0  0  0  0  0  0
  144.4381  134.6102  149.9947 C   0  0  0  0  0  0  0  0  0  0  0  0
  146.2783  138.0162  153.0326 N   0  0  0  0  0  0  0  0  0  0  0  0
  146.9253  138.6250  151.8717 C   0  0  0  0  0  0  0  0  0  0  0  0
  146.6494  138.4605  154.2641 C   0  0  0  0  0  0  0  0  0  0  0  0
  146.3402  137.6808  155.3347 N   0  0  0  0  0  0  0  0  0  0  0  0
  146.6826  138.0531  156.5709 C   0  0  0  0  0  0  0  0  0  0  0  0
  147.3253  139.1537  156.9621 N   0  0  0  0  0  0  0  0  0  0  0  0
  147.6293  139.9502  155.8987 C   0  0  0  0  0  0  0  0  0  0  0  0
  147.3333  139.6863  154.5295 C   0  0  0  0  0  0  0  0  0  0  0  0
  147.7880  140.7444  153.7488 N   0  0  0  0  0  0  0  0  0  0  0  0
  148.3290  141.5721  154.5988 C   0  0  0  0  0  0  0  0  0  0  0  0
  148.2762  141.1728  155.9133 N   0  0  0  0  0  0  0  0  0  0  0  0
  148.7913  141.8923  157.0650 C   0  0  0  0  0  0  0  0  0  0  0  0
  150.1461  141.3385  157.5489 C   0  0  2  0  0  0  0  0  0  0  0  0
  149.9351  140.1066  158.2132 O   0  0  0  0  0  0  0  0  0  0  0  0
  150.8614  142.3054  158.5106 C   0  0  1  0  0  0  0  0  0  0  0  0
  152.1734  141.7732  159.0842 C   0  0  0  0  0  0  0  0  0  0  0  0
  152.8572  143.0469  159.5339 C   0  0  0  0  0  0  0  0  0  0  0  0
  152.3720  144.0787  158.5138 C   0  0  0  0  0  0  0  0  0  0  0  0
  151.2793  143.4779  157.8230 O   0  0  0  0  0  0  0  0  0  0  0  0
  143.3541  136.2716  153.3401 H   0  0  0  0  0  0  0  0  0  0  0  0
  143.5217  137.9044  152.7298 H   0  0  0  0  0  0  0  0  0  0  0  0
  144.0026  137.5243  154.3791 H   0  0  0  0  0  0  0  0  0  0  0  0
  145.8049  136.0567  153.5533 H   0  0  0  0  0  0  0  0  0  0  0  0
  144.8513  136.9252  150.7845 H   0  0  0  0  0  0  0  0  0  0  0  0
  146.4909  136.4349  151.0566 H   0  0  0  0  0  0  0  0  0  0  0  0
  147.0353  134.3420  150.5695 H   0  0  0  0  0  0  0  0  0  0  0  0
  146.8120  134.2073  152.2988 H   0  0  0  0  0  0  0  0  0  0  0  0
  146.8975  131.9609  151.2007 H   0  0  0  0  0  0  0  0  0  0  0  0
  145.3577  132.2126  152.0043 H   0  0  0  0  0  0  0  0  0  0  0  0
  143.6683  132.9252  148.8582 H   0  0  0  0  0  0  0  0  0  0  0  0
  143.4065  132.7861  150.5871 H   0  0  0  0  0  0  0  0  0  0  0  0
  143.4979  135.1577  149.9558 H   0  0  0  0  0  0  0  0  0  0  0  0
  145.0437  134.9503  149.1534 H   0  0  0  0  0  0  0  0  0  0  0  0
  147.9692  138.8617  152.0818 H   0  0  0  0  0  0  0  0  0  0  0  0
  146.4115  139.5453  151.5928 H   0  0  0  0  0  0  0  0  0  0  0  0
  146.9096  137.9540  151.0131 H   0  0  0  0  0  0  0  0  0  0  0  0
  146.4014  137.3705  157.3592 H   0  0  0  0  0  0  0  0  0  0  0  0
  148.7780  142.5040  154.2878 H   0  0  0  0  0  0  0  0  0  0  0  0
  148.8878  142.9432  156.7900 H   0  0  0  0  0  0  0  0  0  0  0  0
  148.0513  141.8472  157.8652 H   0  0  0  0  0  0  0  0  0  0  0  0
  150.7867  141.1496  156.6865 H   0  0  0  0  0  0  0  0  0  0  0  0
  149.0226  140.0466  158.4512 H   0  0  0  0  0  0  0  0  0  0  0  0
  150.1962  142.6002  159.3246 H   0  0  0  0  0  0  0  0  0  0  0  0
  152.0277  141.0600  159.8962 H   0  0  0  0  0  0  0  0  0  0  0  0
  152.7631  141.2882  158.3047 H   0  0  0  0  0  0  0  0  0  0  0  0
  152.5133  143.3205  160.5323 H   0  0  0  0  0  0  0  0  0  0  0  0
  153.9435  142.9566  159.5631 H   0  0  0  0  0  0  0  0  0  0  0  0
  152.0556  144.9999  159.0040 H   0  0  0  0  0  0  0  0  0  0  0  0
  153.1538  144.3279  157.7958 H   0  0  0  0  0  0  0  0  0  0  0  0
  1  2  1  0  0  0  0
  1 29  1  0  0  0  0
  1 30  1  0  0  0  0
  1 31  1  0  0  0  0
  2  3  1  0  0  0  0
  2 10  1  0  0  0  0
  2 32  1  0  0  0  0
  3  4  1  0  0  0  0
  3 33  1  0  0  0  0
  3 34  1  0  0  0  0
  4  9  1  0  0  0  0
  4  5  1  0  0  0  0
  5  6  1  0  0  0  0
  5 35  1  0  0  0  0
  5 36  1  0  0  0  0
  6  7  1  0  0  0  0
  6 37  1  0  0  0  0
  6 38  1  0  0  0  0
  7  8  1  0  0  0  0
  8  9  1  0  0  0  0
  8 39  1  0  0  0  0
  8 40  1  0  0  0  0
  9 41  1  0  0  0  0
  9 42  1  0  0  0  0
 10 11  1  0  0  0  0
 10 12  1  0  0  0  0
 11 43  1  0  0  0  0
 11 44  1  0  0  0  0
 11 45  1  0  0  0  0
 12 17  1  0  0  0  0
 12 13  2  0  0  0  0
 13 14  1  0  0  0  0
 14 15  2  0  0  0  0
 14 46  1  0  0  0  0
 15 16  1  0  0  0  0
 16 20  1  0  0  0  0
 16 17  2  0  0  0  0
 17 18  1  0  0  0  0
 18 19  2  0  0  0  0
 19 20  1  0  0  0  0
 19 47  1  0  0  0  0
 20 21  1  0  0  0  0
 21 22  1  0  0  0  0
 21 48  1  0  0  0  0
 21 49  1  0  0  0  0
 22 23  1  0  0  0  0
 22 24  1  0  0  0  0
 22 50  1  0  0  0  0
 23 51  1  0  0  0  0
 24 28  1  0  0  0  0
 24 25  1  0  0  0  0
 24 52  1  0  0  0  0
 25 26  1  0  0  0  0
 25 53  1  0  0  0  0
 25 54  1  0  0  0  0
 26 27  1  0  0  0  0
 26 55  1  0  0  0  0
 26 56  1  0  0  0  0
 27 28  1  0  0  0  0
 27 57  1  0  0  0  0
 27 58  1  0  0  0  0
M  END
> <s_m_source_file>
AV-unprocessed.smi

> <i_m_source_file_index>
213

> <i_lp_mmshare_version>
43012

> <i_f3d_flags>
0

> <s_epik_input>
W0NIMl0xW0NIMl1PW0NIMl1bQ0gyXU4xW0NIMl1bQ0BASF0oW0NIM10pTihbQ0gzXSljKG5bY0hdbjIpYyhjMjMpbltjSF1uM1tDSDJdW0NASF0oW09IXSlbQ0BASF00W0NIMl1bQ0gyXVtDSDJdTzQ=

> <s_epik_cmdline>
J2VwaWtfcHl0aG9uJywgJy1waCcsICc3LjAnLCAnLXRuJywgJzgnLCAnLW1hJywgJzIwMCcsICctbWV0YWxfYmluZGluZycsICctaW1hZScsICc8aW5maWxlLm1hZT4nLCAnLW9tYWUnLCAnPG91dGZpbGUubWFlPic=

> <r_lp_tautomer_probability>
1

> <r_epik_Ionization_Penalty>
0.423322

> <r_epik_Ionization_Penalty_Charging>
0

> <r_epik_Ionization_Penalty_Neutral>
0.423322

> <r_epik_State_Penalty>
0.569486

> <r_epik_Charging_Adjusted_Penalty>
0.569486

> <i_epik_Tot_Q>
0

> <i_epik_Tot_abs_Q>
0

> <r_epik_Metal_State_Penalty>
0.568671

> <b_epik_Metal_Only>
0

> <s_lp_Force_Field>
OPLS_2005

> <r_lp_Energy>
53.3549

> <b_lp_Chiralities_Consistent>
1

> <s_lp_Variant>
AV-unprocessed.smi:213-14

> <Gold.Version>
5.8.1

> <Gold.Id.Protein>
6NUR|6NUR_protein|mol2

> <Gold.PLP.Fitness>
42.4957

> <Gold.PLP.PLP>
-41.8262

> <Gold.PLP.part.hbond>
0.0000

> <Gold.PLP.part.metal>
0.0000

> <Gold.PLP.part.buried>
-3.9462

> <Gold.PLP.part.nonpolar>
-38.1469

> <Gold.PLP.part.repulsive>
0.6578

> <Gold.PLP.ligand.clash>
0.0000

> <Gold.PLP.ligand.torsion>
1.2984

> <Gold.PLP.Chemscore.Hbond>
0.0000

> <Gold.PLP.Chemscore.CHOScore>
0.9312

> <Gold.PLP.Chemscore.Metal>
0.0000

> <Gold.Chemscore.Hbonds>
donor molecule, donor type, donor heavy atom, donor atom, acceptor molecule, acceptor atom, score
      L1  C    19    47       P1  8028  0.82

> <Gold.PLP.Chemscore.Internal.Correction>
0.4727

> <Gold.Rescore>
     Score         DG    S(hbond)    S(metal)    S(lipo)     H(rot)  DE(clash)    DE(int)     intcor
      8.84     -11.17       0.00        0.00     108.50       2.74       0.32       2.01       ----

> <Gold.Chemscore.Fitness>
8.8369

> <Gold.Chemscore.DG>
-11.1657

> <Gold.Chemscore.ZeroCoef>
-5.4800

> <Gold.Chemscore.Hbond>
0.0000

> <Gold.Chemscore.Metal>
0.0000

> <Gold.Chemscore.Lipo>
108.4992

> <Gold.Chemscore.Internal_Hbond>
0.0000

> <Gold.Chemscore.DEClash>
0.3230

> <Gold.Chemscore.DEInternal>
2.0058

> <Gold.Chemscore.Rot>
2.7378

> <Gold.Chemscore.Internal.Correction>
   9.000000E+99

> <Gold.Chemscore.Hbond.Weighted>
-0.0000

> <Gold.Chemscore.Metal.Weighted>
-0.0000

> <Gold.Chemscore.Lipo.Weighted>
-12.6944

> <Gold.Chemscore.Internal_Hbond.Weighted>
0.0000

> <Gold.Chemscore.DEClash.Weighted>
0.3230

> <Gold.Chemscore.DEInternal.Weighted>
2.0058

> <Gold.Chemscore.Rot.Weighted>
7.0087

> <Gold.Chemscore.Internal.Correction.Weighted>
   9.000000E+99

> <Gold.Protein.RotatedTorsions>
[ 6907 6896 6895 6894 ] final  179.86 input  -60.11 | X-H torsion
[ 7974 7965 7964 7962 ] final  108.36 input  175.53 | X-H torsion
[ 8008 7997 7996 7995 ] final  -37.06 input   59.86 | X-H torsion
[ 10167 10162 10161 10158 ] final   20.50 input  -65.29 | X-H torsion
[ 10718 10713 10712 10709 ] final   46.49 input   66.30 | X-H torsion
[ 10763 10752 10751 10750 ] final  144.72 input  -60.55 | X-H torsion
[ 11005 11000 10999 10996 ] final -127.89 input  -57.11 | X-H torsion

> <Gold.Protein.ActiveResidues>
 VAL166  LYS551  ARG553  GLY616  TRP617  ASP618  TYR619  PRO620  LYS621  CYS622 
 ASP623  PHE694  ASN695  SER759  ASP760  ASP761  ALA762  ILE779  LEU786  VAL792 
 PHE793  MET794  SER795  GLU796  ALA797  LYS798  CYS799  TRP800  GLU811  SER814 

> <Gold.Protein.RotatedAtoms>
  151.6648  133.3315  159.3182 H   0  0  0  0  0  0  0  0  0  0  0  0  # atno 6907 bound_to 6896
  150.7896  134.6913  159.6507 H   0  0  0  0  0  0  0  0  0  0  0  0  # atno 6908 bound_to 6896
  152.3973  134.6348  160.0136 H   0  0  0  0  0  0  0  0  0  0  0  0  # atno 6909 bound_to 6896
  145.2816  139.2630  143.3912 H   0  0  0  0  0  0  0  0  0  0  0  0  # atno 7974 bound_to 7965
  154.4060  140.1614  156.2476 H   0  0  0  0  0  0  0  0  0  0  0  0  # atno 8008 bound_to 7997
  155.9147  140.3425  155.6103 H   0  0  0  0  0  0  0  0  0  0  0  0  # atno 8009 bound_to 7997
  155.7294  140.0778  157.2286 H   0  0  0  0  0  0  0  0  0  0  0  0  # atno 8010 bound_to 7997
  140.5499  143.9528  150.6571 H   0  0  0  0  0  0  0  0  0  0  0  0  # atno 10167 bound_to 10162
  157.4487  130.8125  149.7766 H   0  0  0  0  0  0  0  0  0  0  0  0  # atno 10718 bound_to 10713
  153.9935  135.2930  155.3409 H   0  0  0  0  0  0  0  0  0  0  0  0  # atno 10763 bound_to 10752
  154.7201  135.5113  153.8801 H   0  0  0  0  0  0  0  0  0  0  0  0  # atno 10764 bound_to 10752
  153.0798  135.6675  154.0185 H   0  0  0  0  0  0  0  0  0  0  0  0  # atno 10765 bound_to 10752
  140.9562  134.0999  157.4014 H   0  0  0  0  0  0  0  0  0  0  0  0  # atno 11005 bound_to 11000
  146.3214  140.3285  142.8638 LP  0  0  0  0  0  0  0  0  0  0  0  0  # atno 17320 bound_to 7965
  144.9248  140.7909  143.5726 LP  0  0  0  0  0  0  0  0  0  0  0  0  # atno 17321 bound_to 7965
  140.2951  143.3298  152.1025 LP  0  0  0  0  0  0  0  0  0  0  0  0  # atno 17342 bound_to 10162
  139.5023  144.6731  151.6194 LP  0  0  0  0  0  0  0  0  0  0  0  0  # atno 17343 bound_to 10162
  155.9978  130.3898  150.2727 LP  0  0  0  0  0  0  0  0  0  0  0  0  # atno 17370 bound_to 10713
  157.0897  131.0166  151.3126 LP  0  0  0  0  0  0  0  0  0  0  0  0  # atno 17371 bound_to 10713
  139.8863  135.0080  156.6489 LP  0  0  0  0  0  0  0  0  0  0  0  0  # atno 17394 bound_to 11000
  140.7533  133.8879  155.8363 LP  0  0  0  0  0  0  0  0  0  0  0  0  # atno 17395 bound_to 11000

$$$$
