AV-unprocessed.smi:25|AV-procd|sdf|181|dock6
  -GOLD-   2262015443D 1   1.00000     0.00000
 Structure written by MMmdl.
 47 50  0  0  0  0  0  0  0  0  1 V2000
  150.5289  139.7058  156.0819 C   0  0  0  0  0  0  0  0  0  0  0  0
  150.4035  140.0954  157.5682 C   0  0  2  0  0  0  0  0  0  0  0  0
  151.0427  141.4746  157.8462 C   0  0  0  0  0  0  0  0  0  0  0  0
  152.1933  141.1420  158.7451 C   0  0  0  0  0  0  0  0  0  0  0  0
  153.1672  142.0435  159.2082 C   0  0  0  0  0  0  0  0  0  0  0  0
  154.2029  141.5475  160.0246 C   0  0  0  0  0  0  0  0  0  0  0  0
  154.2525  140.1745  160.3506 C   0  0  0  0  0  0  0  0  0  0  0  0
  153.2657  139.2831  159.8751 C   0  0  0  0  0  0  0  0  0  0  0  0
  152.2143  139.7870  159.0719 C   0  0  0  0  0  0  0  0  0  0  0  0
  151.1035  139.1364  158.4541 N   0  0  0  0  0  0  0  0  0  0  0  0
  150.5745  137.9043  158.6925 C   0  0  0  0  0  0  0  0  0  0  0  0
  151.1266  137.1164  159.4646 O   0  0  0  0  0  0  0  0  0  0  0  0
  149.2868  137.4356  157.9873 C   0  0  0  0  0  0  0  0  0  0  0  0
  148.7029  136.2038  158.5689 N   0  0  0  0  0  0  0  0  0  0  0  0
  148.5977  135.0498  157.7531 C   0  0  0  0  0  0  0  0  0  0  0  0
  148.9633  135.0613  156.5767 O   0  0  0  0  0  0  0  0  0  0  0  0
  148.0379  133.8709  158.4019 C   0  0  0  0  0  0  0  0  0  0  0  0
  147.9588  132.7128  157.7248 F   0  0  0  0  0  0  0  0  0  0  0  0
  147.6129  133.9175  159.6809 C   0  0  0  0  0  0  0  0  0  0  0  0
  147.6510  135.0699  160.4462 N   0  0  0  0  0  0  0  0  0  0  0  0
  147.2466  135.0697  161.9066 C   0  0  1  0  0  0  0  0  0  0  0  0
  146.3726  136.2670  162.3198 C   0  0  0  0  0  0  0  0  0  0  0  0
  144.9970  135.6397  162.4344 C   0  0  0  0  0  0  0  0  0  0  0  0
  145.3425  134.2231  162.8755 C   0  0  0  0  0  0  0  0  0  0  0  0
  146.5151  133.9027  162.1381 O   0  0  0  0  0  0  0  0  0  0  0  0
  148.2528  136.2320  159.9115 C   0  0  0  0  0  0  0  0  0  0  0  0
  148.3750  137.2514  160.5944 O   0  0  0  0  0  0  0  0  0  0  0  0
  150.0558  140.4526  155.4440 H   0  0  0  0  0  0  0  0  0  0  0  0
  150.0499  138.7508  155.8675 H   0  0  0  0  0  0  0  0  0  0  0  0
  151.5743  139.6271  155.7815 H   0  0  0  0  0  0  0  0  0  0  0  0
  149.3460  140.1447  157.8349 H   0  0  0  0  0  0  0  0  0  0  0  0
  151.3904  141.9739  156.9409 H   0  0  0  0  0  0  0  0  0  0  0  0
  150.3509  142.1391  158.3649 H   0  0  0  0  0  0  0  0  0  0  0  0
  153.1273  143.0890  158.9401 H   0  0  0  0  0  0  0  0  0  0  0  0
  154.9663  142.2167  160.3930 H   0  0  0  0  0  0  0  0  0  0  0  0
  155.0577  139.8008  160.9657 H   0  0  0  0  0  0  0  0  0  0  0  0
  153.3699  138.2461  160.1380 H   0  0  0  0  0  0  0  0  0  0  0  0
  148.5585  138.2455  158.0296 H   0  0  0  0  0  0  0  0  0  0  0  0
  149.4971  137.2795  156.9290 H   0  0  0  0  0  0  0  0  0  0  0  0
  147.2345  133.0022  160.1066 H   0  0  0  0  0  0  0  0  0  0  0  0
  148.1751  135.0678  162.4793 H   0  0  0  0  0  0  0  0  0  0  0  0
  146.7054  136.6048  163.3020 H   0  0  0  0  0  0  0  0  0  0  0  0
  146.4394  137.1128  161.6358 H   0  0  0  0  0  0  0  0  0  0  0  0
  144.3485  136.1584  163.1408 H   0  0  0  0  0  0  0  0  0  0  0  0
  144.4978  135.6199  161.4656 H   0  0  0  0  0  0  0  0  0  0  0  0
  145.5735  134.1986  163.9416 H   0  0  0  0  0  0  0  0  0  0  0  0
  144.5391  133.5120  162.6819 H   0  0  0  0  0  0  0  0  0  0  0  0
  1  2  1  0  0  0  0
  1 28  1  0  0  0  0
  1 29  1  0  0  0  0
  1 30  1  0  0  0  0
  2 10  1  0  0  0  0
  2  3  1  0  0  0  0
  2 31  1  0  0  0  0
  3  4  1  0  0  0  0
  3 32  1  0  0  0  0
  3 33  1  0  0  0  0
  4  9  2  0  0  0  0
  4  5  1  0  0  0  0
  5  6  2  0  0  0  0
  5 34  1  0  0  0  0
  6  7  1  0  0  0  0
  6 35  1  0  0  0  0
  7  8  2  0  0  0  0
  7 36  1  0  0  0  0
  8  9  1  0  0  0  0
  8 37  1  0  0  0  0
  9 10  1  0  0  0  0
 10 11  1  0  0  0  0
 11 12  2  0  0  0  0
 11 13  1  0  0  0  0
 13 14  1  0  0  0  0
 13 38  1  0  0  0  0
 13 39  1  0  0  0  0
 14 26  1  0  0  0  0
 14 15  1  0  0  0  0
 15 16  2  0  0  0  0
 15 17  1  0  0  0  0
 17 18  1  0  0  0  0
 17 19  2  0  0  0  0
 19 20  1  0  0  0  0
 19 40  1  0  0  0  0
 20 21  1  0  0  0  0
 20 26  1  0  0  0  0
 21 25  1  0  0  0  0
 21 22  1  0  0  0  0
 21 41  1  0  0  0  0
 22 23  1  0  0  0  0
 22 42  1  0  0  0  0
 22 43  1  0  0  0  0
 23 24  1  0  0  0  0
 23 44  1  0  0  0  0
 23 45  1  0  0  0  0
 24 25  1  0  0  0  0
 24 46  1  0  0  0  0
 24 47  1  0  0  0  0
 26 27  2  0  0  0  0
M  END
> <s_m_source_file>
AV-unprocessed.smi

> <i_m_source_file_index>
25

> <i_lp_mmshare_version>
43012

> <i_f3d_flags>
0

> <s_epik_input>
W2NIXTFbY0hdW2NIXVtjSF1jKGMxMilOKFtDQEhdKFtDSDNdKVtDSDJdMilDKD1PKVtDSDJdbjNjKD1PKWMoRilbY0hdbihjMz1PKVtDQEBIXTRbQ0gyXVtDSDJdW0NIMl1PNA==

> <s_epik_cmdline>
J2VwaWtfcHl0aG9uJywgJy1waCcsICc3LjAnLCAnLXRuJywgJzgnLCAnLW1hJywgJzIwMCcsICctbWV0YWxfYmluZGluZycsICctaW1hZScsICc8aW5maWxlLm1hZT4nLCAnLW9tYWUnLCAnPG91dGZpbGUubWFlPic=

> <r_lp_tautomer_probability>
1

> <r_epik_Ionization_Penalty>
1.67943e-06

> <r_epik_Ionization_Penalty_Charging>
3.79603e-09

> <r_epik_Ionization_Penalty_Neutral>
1.67563e-06

> <r_epik_State_Penalty>
-0

> <r_epik_Charging_Adjusted_Penalty>
3.79603e-09

> <i_epik_Tot_Q>
0

> <i_epik_Tot_abs_Q>
0

> <r_epik_Metal_State_Penalty>
-0

> <b_epik_Metal_Only>
0

> <s_epik_Chemistry_Notes>
This compound contains an acetal/aminal-like group ( X-CH(R)-Y where X, Y are N, S, or O) that may be acid/base labile, releasing an aldehyde.

> <s_lp_Force_Field>
OPLS_2005

> <r_lp_Energy>
54.5982

> <b_lp_Chiralities_Consistent>
1

> <s_lp_Variant>
AV-unprocessed.smi:25-3

> <Gold.Version>
5.8.1

> <Gold.Id.Protein>
6NUR|6NUR_protein|mol2

> <Gold.PLP.Fitness>
50.2965

> <Gold.PLP.PLP>
-44.6664

> <Gold.PLP.part.hbond>
-3.0000

> <Gold.PLP.part.metal>
0.0000

> <Gold.PLP.part.buried>
-6.7478

> <Gold.PLP.part.nonpolar>
-35.5802

> <Gold.PLP.part.repulsive>
0.0000

> <Gold.PLP.ligand.clash>
0.0000

> <Gold.PLP.ligand.torsion>
0.4505

> <Gold.PLP.Chemscore.Hbond>
2.1424

> <Gold.PLP.Chemscore.CHOScore>
0.0000

> <Gold.PLP.Chemscore.Metal>
0.0000

> <Gold.Chemscore.Hbonds>
donor molecule, donor type, donor heavy atom, donor atom, acceptor molecule, acceptor atom, score
      P1  H  6896  6909       L1    12  0.98
      P1  H  6931  6943       L1    27  0.75
      P1  H  6934  6947       L1    27  0.40

> <Gold.PLP.Chemscore.Internal.Correction>
0.1039

> <Gold.Rescore>
     Score         DG    S(hbond)    S(metal)    S(lipo)     H(rot)  DE(clash)    DE(int)     intcor
     16.76     -20.18       2.52        0.00      87.69       1.55       0.15       3.27       ----

> <Gold.Chemscore.Fitness>
16.7619

> <Gold.Chemscore.DG>
-20.1821

> <Gold.Chemscore.ZeroCoef>
-5.4800

> <Gold.Chemscore.Hbond>
2.5171

> <Gold.Chemscore.Metal>
0.0000

> <Gold.Chemscore.Lipo>
87.6918

> <Gold.Chemscore.Internal_Hbond>
0.0000

> <Gold.Chemscore.DEClash>
0.1534

> <Gold.Chemscore.DEInternal>
3.2667

> <Gold.Chemscore.Rot>
1.5489

> <Gold.Chemscore.Internal.Correction>
   9.000000E+99

> <Gold.Chemscore.Hbonds>
donor molecule, donor type, donor heavy atom, donor atom, acceptor molecule, acceptor atom, score
      P1  H  6896  6909       L1    12  0.92
      P1  H  6931  6943       L1    27  0.76
      P1  H  6934  6947       L1    27  0.41

> <Gold.Chemscore.Hbond.Weighted>
-8.4073

> <Gold.Chemscore.Metal.Weighted>
-0.0000

> <Gold.Chemscore.Lipo.Weighted>
-10.2599

> <Gold.Chemscore.Internal_Hbond.Weighted>
0.0000

> <Gold.Chemscore.DEClash.Weighted>
0.1534

> <Gold.Chemscore.DEInternal.Weighted>
3.2667

> <Gold.Chemscore.Rot.Weighted>
3.9651

> <Gold.Chemscore.Internal.Correction.Weighted>
   9.000000E+99

> <Gold.Protein.RotatedTorsions>
[ 6907 6896 6895 6894 ] final   99.01 input  -60.11 | X-H torsion
[ 7974 7965 7964 7962 ] final  -93.24 input  175.53 | X-H torsion
[ 8008 7997 7996 7995 ] final   57.86 input   59.86 | X-H torsion
[ 10167 10162 10161 10158 ] final  122.69 input  -65.29 | X-H torsion
[ 10718 10713 10712 10709 ] final  151.80 input   66.30 | X-H torsion
[ 10763 10752 10751 10750 ] final   93.44 input  -60.55 | X-H torsion
[ 11005 11000 10999 10996 ] final  -68.20 input  -57.11 | X-H torsion

> <Gold.Protein.ActiveResidues>
 VAL166  LYS551  ARG553  GLY616  TRP617  ASP618  TYR619  PRO620  LYS621  CYS622 
 ASP623  PHE694  ASN695  SER759  ASP760  ASP761  ALA762  ILE779  LEU786  VAL792 
 PHE793  MET794  SER795  GLU796  ALA797  LYS798  CYS799  TRP800  GLU811  SER814 

> <Gold.Protein.RotatedAtoms>
  152.5399  134.0494  159.8102 H   0  0  0  0  0  0  0  0  0  0  0  0  # atno 6907 bound_to 6896
  151.0637  133.5515  159.2639 H   0  0  0  0  0  0  0  0  0  0  0  0  # atno 6908 bound_to 6896
  151.2404  135.0595  159.9076 H   0  0  0  0  0  0  0  0  0  0  0  0  # atno 6909 bound_to 6896
  145.3891  140.9526  143.2350 H   0  0  0  0  0  0  0  0  0  0  0  0  # atno 7974 bound_to 7965
  155.5407  140.3484  155.4446 H   0  0  0  0  0  0  0  0  0  0  0  0  # atno 8008 bound_to 7997
  156.0653  140.1350  156.9919 H   0  0  0  0  0  0  0  0  0  0  0  0  # atno 8009 bound_to 7997
  154.4500  140.0977  156.6563 H   0  0  0  0  0  0  0  0  0  0  0  0  # atno 8010 bound_to 7997
  139.5843  144.7000  151.3448 H   0  0  0  0  0  0  0  0  0  0  0  0  # atno 10167 bound_to 10162
  157.2660  131.0807  151.1633 H   0  0  0  0  0  0  0  0  0  0  0  0  # atno 10718 bound_to 10713
  153.2303  135.4325  155.0588 H   0  0  0  0  0  0  0  0  0  0  0  0  # atno 10763 bound_to 10752
  154.8293  135.3378  154.6797 H   0  0  0  0  0  0  0  0  0  0  0  0  # atno 10764 bound_to 10752
  153.7225  135.7016  153.5065 H   0  0  0  0  0  0  0  0  0  0  0  0  # atno 10765 bound_to 10752
  141.1526  133.6735  156.6410 H   0  0  0  0  0  0  0  0  0  0  0  0  # atno 11005 bound_to 11000
  144.8453  139.5407  143.6881 LP  0  0  0  0  0  0  0  0  0  0  0  0  # atno 17320 bound_to 7965
  146.2806  139.6867  142.9232 LP  0  0  0  0  0  0  0  0  0  0  0  0  # atno 17321 bound_to 7965
  140.7117  143.7372  150.7580 LP  0  0  0  0  0  0  0  0  0  0  0  0  # atno 17342 bound_to 10162
  140.0913  143.4875  152.2477 LP  0  0  0  0  0  0  0  0  0  0  0  0  # atno 17343 bound_to 10162
  157.3123  130.6896  149.6223 LP  0  0  0  0  0  0  0  0  0  0  0  0  # atno 17370 bound_to 10713
  155.9663  130.4360  150.5114 LP  0  0  0  0  0  0  0  0  0  0  0  0  # atno 17371 bound_to 10713
  140.3394  134.7862  157.4386 LP  0  0  0  0  0  0  0  0  0  0  0  0  # atno 17394 bound_to 11000
  140.0951  134.5549  155.8406 LP  0  0  0  0  0  0  0  0  0  0  0  0  # atno 17395 bound_to 11000

$$$$
