AV-unprocessed.smi:3312|AV-procd|sdf|12728|dock6
  -GOLD-   2272019 73D 1   1.00000     0.00000
 Structure written by MMmdl.
 38 39  0  0  0  0  0  0  0  0  1 V2000
  153.3677  143.0478  163.3295 C   0  0  0  0  0  0  0  0  0  0  0  0
  152.8264  142.9277  161.9340 C   0  0  0  0  0  0  0  0  0  0  0  0
  153.0364  141.8722  161.0015 C   0  0  0  0  0  0  0  0  0  0  0  0
  152.4169  142.0724  159.8498 N   0  0  0  0  0  0  0  0  0  0  0  0
  151.7942  143.2599  160.0038 N   0  0  0  0  0  0  0  0  0  0  0  0
  151.0021  143.8079  158.9166 C   0  0  0  0  0  0  0  0  0  0  0  0
  151.7093  143.7005  157.5545 C   0  0  0  0  0  0  0  0  0  0  0  0
  150.9189  142.8832  156.6384 N   0  0  0  0  0  0  0  0  0  0  0  0
  151.1076  141.4382  156.8544 C   0  0  0  0  0  0  0  0  0  0  0  0
  150.8466  140.5418  155.6261 C   0  0  0  0  0  0  0  0  0  0  0  0
  150.0840  140.9406  154.7440 O   0  0  0  0  0  0  0  0  0  0  0  0
  151.4765  139.3450  155.5413 N   0  0  0  0  0  0  0  0  0  0  0  0
  151.2344  138.3844  154.4606 C   0  0  0  0  0  0  0  0  0  0  0  0
  150.6313  137.1077  155.0746 C   0  0  0  0  0  0  0  0  0  0  0  0
  151.5139  136.5847  156.0651 O   0  0  0  0  0  0  0  0  0  0  0  0
  151.7933  137.5107  157.1128 C   0  0  0  0  0  0  0  0  0  0  0  0
  152.4159  138.7865  156.5188 C   0  0  0  0  0  0  0  0  0  0  0  0
  152.0210  143.7963  161.2534 C   0  0  0  0  0  0  0  0  0  0  0  0
  153.6351  142.0759  163.7449 H   0  0  0  0  0  0  0  0  0  0  0  0
  152.6414  143.4971  164.0072 H   0  0  0  0  0  0  0  0  0  0  0  0
  154.2636  143.6682  163.3600 H   0  0  0  0  0  0  0  0  0  0  0  0
  153.6179  140.9706  161.1271 H   0  0  0  0  0  0  0  0  0  0  0  0
  150.0531  143.2712  158.8837 H   0  0  0  0  0  0  0  0  0  0  0  0
  150.7628  144.8478  159.1428 H   0  0  0  0  0  0  0  0  0  0  0  0
  151.8599  144.6948  157.1314 H   0  0  0  0  0  0  0  0  0  0  0  0
  152.6976  143.2663  157.7026 H   0  0  0  0  0  0  0  0  0  0  0  0
  151.1594  143.1424  155.6924 H   0  0  0  0  0  0  0  0  0  0  0  0
  152.1399  141.2767  157.1660 H   0  0  0  0  0  0  0  0  0  0  0  0
  150.4736  141.1300  157.6867 H   0  0  0  0  0  0  0  0  0  0  0  0
  150.5676  138.7691  153.6880 H   0  0  0  0  0  0  0  0  0  0  0  0
  152.1765  138.1546  153.9609 H   0  0  0  0  0  0  0  0  0  0  0  0
  149.6553  137.3136  155.5172 H   0  0  0  0  0  0  0  0  0  0  0  0
  150.4795  136.3526  154.3032 H   0  0  0  0  0  0  0  0  0  0  0  0
  150.8791  137.7422  157.6618 H   0  0  0  0  0  0  0  0  0  0  0  0
  152.4823  137.0471  157.8186 H   0  0  0  0  0  0  0  0  0  0  0  0
  153.3514  138.5420  156.0137 H   0  0  0  0  0  0  0  0  0  0  0  0
  152.6887  139.4745  157.3168 H   0  0  0  0  0  0  0  0  0  0  0  0
  151.5974  144.7443  161.5507 H   0  0  0  0  0  0  0  0  0  0  0  0
  1  2  1  0  0  0  0
  1 19  1  0  0  0  0
  1 20  1  0  0  0  0
  1 21  1  0  0  0  0
  2 18  2  0  0  0  0
  2  3  1  0  0  0  0
  3  4  2  0  0  0  0
  3 22  1  0  0  0  0
  4  5  1  0  0  0  0
  5  6  1  0  0  0  0
  5 18  1  0  0  0  0
  6  7  1  0  0  0  0
  6 23  1  0  0  0  0
  6 24  1  0  0  0  0
  7  8  1  0  0  0  0
  7 25  1  0  0  0  0
  7 26  1  0  0  0  0
  8  9  1  0  0  0  0
  8 27  1  0  0  0  0
  9 10  1  0  0  0  0
  9 28  1  0  0  0  0
  9 29  1  0  0  0  0
 10 11  2  0  0  0  0
 10 12  1  0  0  0  0
 12 17  1  0  0  0  0
 12 13  1  0  0  0  0
 13 14  1  0  0  0  0
 13 30  1  0  0  0  0
 13 31  1  0  0  0  0
 14 15  1  0  0  0  0
 14 32  1  0  0  0  0
 14 33  1  0  0  0  0
 15 16  1  0  0  0  0
 16 17  1  0  0  0  0
 16 34  1  0  0  0  0
 16 35  1  0  0  0  0
 17 36  1  0  0  0  0
 17 37  1  0  0  0  0
 18 38  1  0  0  0  0
M  END
> <s_m_source_file>
AV-unprocessed.smi

> <i_m_source_file_index>
3312

> <i_lp_mmshare_version>
43012

> <i_f3d_flags>
0

> <s_epik_input>
W0NIM11jMVtjSF1ubihbY0hdMSlbQ0gyXVtDSDJdW05IXVtDSDJdQyg9TylOMltDSDJdW0NIMl1PW0NIMl1bQ0gyXTI=

> <s_epik_cmdline>
J2VwaWtfcHl0aG9uJywgJy1waCcsICc3LjAnLCAnLXRuJywgJzgnLCAnLW1hJywgJzIwMCcsICctbWV0YWxfYmluZGluZycsICctaW1hZScsICc8aW5maWxlLm1hZT4nLCAnLW9tYWUnLCAnPG91dGZpbGUubWFlPic=

> <r_lp_tautomer_probability>
1

> <r_epik_Ionization_Penalty>
0.513825

> <r_epik_Ionization_Penalty_Charging>
0

> <r_epik_Ionization_Penalty_Neutral>
0.513825

> <r_epik_State_Penalty>
0.518565

> <r_epik_Charging_Adjusted_Penalty>
0.518565

> <i_epik_Tot_Q>
0

> <i_epik_Tot_abs_Q>
0

> <r_epik_Metal_State_Penalty>
0.515505

> <b_epik_Metal_Only>
0

> <s_lp_Force_Field>
OPLS_2005

> <r_lp_Energy>
26.2636

> <b_lp_Chiralities_Consistent>
1

> <s_lp_Variant>
AV-unprocessed.smi:3312-2

> <Gold.Version>
5.8.1

> <Gold.Id.Protein>
6NUR|6NUR_protein|mol2

> <Gold.PLP.Fitness>
45.5949

> <Gold.PLP.PLP>
-44.0835

> <Gold.PLP.part.hbond>
-3.0000

> <Gold.PLP.part.metal>
0.0000

> <Gold.PLP.part.buried>
-4.4841

> <Gold.PLP.part.nonpolar>
-36.0844

> <Gold.PLP.part.repulsive>
0.1351

> <Gold.PLP.ligand.clash>
0.0000

> <Gold.PLP.ligand.torsion>
1.1782

> <Gold.PLP.Chemscore.Hbond>
1.2816

> <Gold.PLP.Chemscore.CHOScore>
0.0000

> <Gold.PLP.Chemscore.Metal>
0.0000

> <Gold.Chemscore.Hbonds>
donor molecule, donor type, donor heavy atom, donor atom, acceptor molecule, acceptor atom, score
      P1  H  7989  7998       L1    11  0.28
      P1  H 10752 10763       L1    15  0.55

> <Gold.PLP.Chemscore.Internal.Correction>
0.0230

> <Gold.Rescore>
     Score         DG    S(hbond)    S(metal)    S(lipo)     H(rot)  DE(clash)    DE(int)     intcor
     14.54     -15.66       0.93        0.00     100.23       1.82       0.05       1.08       ----

> <Gold.Chemscore.Fitness>
14.5378

> <Gold.Chemscore.DG>
-15.6637

> <Gold.Chemscore.ZeroCoef>
-5.4800

> <Gold.Chemscore.Hbond>
0.9340

> <Gold.Chemscore.Metal>
0.0000

> <Gold.Chemscore.Lipo>
100.2282

> <Gold.Chemscore.Internal_Hbond>
0.0000

> <Gold.Chemscore.DEClash>
0.0491

> <Gold.Chemscore.DEInternal>
1.0768

> <Gold.Chemscore.Rot>
1.8213

> <Gold.Chemscore.Internal.Correction>
   9.000000E+99

> <Gold.Chemscore.Hbonds>
donor molecule, donor type, donor heavy atom, donor atom, acceptor molecule, acceptor atom, score
      P1  H  7989  7998       L1    11  0.01
      P1  H 10752 10763       L1    15  0.14

> <Gold.Chemscore.Hbond.Weighted>
-3.1194

> <Gold.Chemscore.Metal.Weighted>
-0.0000

> <Gold.Chemscore.Lipo.Weighted>
-11.7267

> <Gold.Chemscore.Internal_Hbond.Weighted>
0.0000

> <Gold.Chemscore.DEClash.Weighted>
0.0491

> <Gold.Chemscore.DEInternal.Weighted>
1.0768

> <Gold.Chemscore.Rot.Weighted>
4.6624

> <Gold.Chemscore.Internal.Correction.Weighted>
   9.000000E+99

> <Gold.Protein.RotatedTorsions>
[ 6907 6896 6895 6894 ] final   21.90 input  -60.11 | X-H torsion
[ 7974 7965 7964 7962 ] final  -15.44 input  175.53 | X-H torsion
[ 8008 7997 7996 7995 ] final -132.01 input   59.86 | X-H torsion
[ 10167 10162 10161 10158 ] final   69.53 input  -65.29 | X-H torsion
[ 10718 10713 10712 10709 ] final  172.70 input   66.30 | X-H torsion
[ 10763 10752 10751 10750 ] final   69.62 input  -60.55 | X-H torsion
[ 11005 11000 10999 10996 ] final   19.05 input  -57.11 | X-H torsion

> <Gold.Protein.ActiveResidues>
 VAL166  LYS551  ARG553  GLY616  TRP617  ASP618  TYR619  PRO620  LYS621  CYS622 
 ASP623  PHE694  ASN695  SER759  ASP760  ASP761  ALA762  ILE779  LEU786  VAL792 
 PHE793  MET794  SER795  GLU796  ALA797  LYS798  CYS799  TRP800  GLU811  SER814 

> <Gold.Protein.RotatedAtoms>
  151.9188  135.0307  160.0520 H   0  0  0  0  0  0  0  0  0  0  0  0  # atno 6907 bound_to 6896
  152.2217  133.4984  159.5174 H   0  0  0  0  0  0  0  0  0  0  0  0  # atno 6908 bound_to 6896
  150.7001  134.1251  159.4091 H   0  0  0  0  0  0  0  0  0  0  0  0  # atno 6909 bound_to 6896
  146.2032  140.3493  142.8416 H   0  0  0  0  0  0  0  0  0  0  0  0  # atno 7974 bound_to 7965
  155.3219  140.0462  157.3039 H   0  0  0  0  0  0  0  0  0  0  0  0  # atno 8008 bound_to 7997
  154.5375  140.2277  155.8663 H   0  0  0  0  0  0  0  0  0  0  0  0  # atno 8009 bound_to 7997
  156.1849  140.3065  155.9226 H   0  0  0  0  0  0  0  0  0  0  0  0  # atno 8010 bound_to 7997
  140.0668  144.5186  150.7255 H   0  0  0  0  0  0  0  0  0  0  0  0  # atno 10167 bound_to 10162
  156.9752  131.0102  151.2895 H   0  0  0  0  0  0  0  0  0  0  0  0  # atno 10718 bound_to 10713
  153.0297  135.5204  154.7316 H   0  0  0  0  0  0  0  0  0  0  0  0  # atno 10763 bound_to 10752
  154.6342  135.2904  155.0183 H   0  0  0  0  0  0  0  0  0  0  0  0  # atno 10764 bound_to 10752
  154.1124  135.6620  153.4940 H   0  0  0  0  0  0  0  0  0  0  0  0  # atno 10765 bound_to 10752
  140.4180  134.1549  155.7671 H   0  0  0  0  0  0  0  0  0  0  0  0  # atno 11005 bound_to 11000
  144.8730  140.7298  143.6035 LP  0  0  0  0  0  0  0  0  0  0  0  0  # atno 17320 bound_to 7965
  145.3413  139.1731  143.4484 LP  0  0  0  0  0  0  0  0  0  0  0  0  # atno 17321 bound_to 7965
  140.7145  143.2533  151.4477 LP  0  0  0  0  0  0  0  0  0  0  0  0  # atno 17342 bound_to 10162
  139.5860  144.1604  152.2029 LP  0  0  0  0  0  0  0  0  0  0  0  0  # atno 17343 bound_to 10162
  157.5565  130.8217  149.8211 LP  0  0  0  0  0  0  0  0  0  0  0  0  # atno 17370 bound_to 10713
  156.0267  130.3777  150.1804 LP  0  0  0  0  0  0  0  0  0  0  0  0  # atno 17371 bound_to 10713
  141.1795  133.8443  157.1306 LP  0  0  0  0  0  0  0  0  0  0  0  0  # atno 17394 bound_to 11000
  140.0220  134.9941  157.0611 LP  0  0  0  0  0  0  0  0  0  0  0  0  # atno 17395 bound_to 11000

$$$$
