AV-unprocessed.smi:370|AV-procd|sdf|2436|dock4
  -GOLD-   2262022373D 1   1.00000     0.00000
 Structure written by MMmdl.
 42 43  0  0  0  0  0  0  0  0  1 V2000
  138.5041  136.8967  154.1388 C   0  0  0  0  0  0  0  0  0  0  0  0
  139.9894  137.0124  154.1085 C   0  0  0  0  0  0  0  0  0  0  0  0
  140.8380  137.9560  153.6022 C   0  0  0  0  0  0  0  0  0  0  0  0
  142.1247  137.4325  153.9215 C   0  0  0  0  0  0  0  0  0  0  0  0
  143.3744  138.0261  153.6076 N   0  0  0  0  0  0  0  0  0  0  0  0
  144.5902  137.7151  154.0876 C   0  0  0  0  0  0  0  0  0  0  0  0
  144.8304  136.8105  154.8871 O   0  0  0  0  0  0  0  0  0  0  0  0
  145.5314  138.5177  153.5710 N   0  0  0  0  0  0  0  0  0  0  0  0
  146.9662  138.4463  153.8475 C   0  0  0  0  0  0  0  0  0  0  0  0
  147.5391  139.7849  154.3995 C   0  0  0  0  0  0  0  0  0  0  0  0
  147.3973  140.8398  153.2756 C   0  0  0  0  0  0  0  0  0  0  0  0
  146.6025  140.2216  155.5549 C   0  0  0  0  0  0  0  0  0  0  0  0
  148.9419  139.6271  154.8776 N   0  0  0  0  0  0  0  0  0  0  0  0
  149.8335  138.9167  153.9529 C   0  0  0  0  0  0  0  0  0  0  0  0
  151.2269  138.6807  154.5595 C   0  0  0  0  0  0  0  0  0  0  0  0
  151.7981  139.9253  154.9432 O   0  0  0  0  0  0  0  0  0  0  0  0
  150.9938  140.6223  155.8867 C   0  0  0  0  0  0  0  0  0  0  0  0
  149.5964  140.8724  155.2946 C   0  0  0  0  0  0  0  0  0  0  0  0
  142.0603  136.2763  154.5559 N   0  0  0  0  0  0  0  0  0  0  0  0
  140.6938  136.0007  154.6831 O   0  0  0  0  0  0  0  0  0  0  0  0
  138.0345  137.8238  153.8090 H   0  0  0  0  0  0  0  0  0  0  0  0
  138.1526  136.6806  155.1477 H   0  0  0  0  0  0  0  0  0  0  0  0
  138.1661  136.0946  153.4826 H   0  0  0  0  0  0  0  0  0  0  0  0
  140.5648  138.8647  153.0875 H   0  0  0  0  0  0  0  0  0  0  0  0
  143.3375  138.7754  152.9324 H   0  0  0  0  0  0  0  0  0  0  0  0
  145.2387  139.2239  152.9118 H   0  0  0  0  0  0  0  0  0  0  0  0
  147.1277  137.6321  154.5533 H   0  0  0  0  0  0  0  0  0  0  0  0
  147.5159  138.1415  152.9552 H   0  0  0  0  0  0  0  0  0  0  0  0
  146.3581  140.9350  152.9584 H   0  0  0  0  0  0  0  0  0  0  0  0
  147.9724  140.5763  152.3884 H   0  0  0  0  0  0  0  0  0  0  0  0
  147.7176  141.8309  153.5961 H   0  0  0  0  0  0  0  0  0  0  0  0
  145.5532  140.1632  155.2629 H   0  0  0  0  0  0  0  0  0  0  0  0
  146.7750  141.2537  155.8595 H   0  0  0  0  0  0  0  0  0  0  0  0
  146.7294  139.5929  156.4367 H   0  0  0  0  0  0  0  0  0  0  0  0
  149.4225  137.9457  153.6834 H   0  0  0  0  0  0  0  0  0  0  0  0
  149.9450  139.4815  153.0273 H   0  0  0  0  0  0  0  0  0  0  0  0
  151.1644  138.0175  155.4238 H   0  0  0  0  0  0  0  0  0  0  0  0
  151.8802  138.1983  153.8325 H   0  0  0  0  0  0  0  0  0  0  0  0
  150.9241  140.0477  156.8116 H   0  0  0  0  0  0  0  0  0  0  0  0
  151.4751  141.5685  156.1338 H   0  0  0  0  0  0  0  0  0  0  0  0
  149.6913  141.5510  154.4467 H   0  0  0  0  0  0  0  0  0  0  0  0
  149.0056  141.3882  156.0493 H   0  0  0  0  0  0  0  0  0  0  0  0
  1  2  1  0  0  0  0
  1 21  1  0  0  0  0
  1 22  1  0  0  0  0
  1 23  1  0  0  0  0
  2 20  1  0  0  0  0
  2  3  2  0  0  0  0
  3  4  1  0  0  0  0
  3 24  1  0  0  0  0
  4  5  1  0  0  0  0
  4 19  2  0  0  0  0
  5  6  1  0  0  0  0
  5 25  1  0  0  0  0
  6  7  2  0  0  0  0
  6  8  1  0  0  0  0
  8  9  1  0  0  0  0
  8 26  1  0  0  0  0
  9 10  1  0  0  0  0
  9 27  1  0  0  0  0
  9 28  1  0  0  0  0
 10 11  1  0  0  0  0
 10 12  1  0  0  0  0
 10 13  1  0  0  0  0
 11 29  1  0  0  0  0
 11 30  1  0  0  0  0
 11 31  1  0  0  0  0
 12 32  1  0  0  0  0
 12 33  1  0  0  0  0
 12 34  1  0  0  0  0
 13 18  1  0  0  0  0
 13 14  1  0  0  0  0
 14 15  1  0  0  0  0
 14 35  1  0  0  0  0
 14 36  1  0  0  0  0
 15 16  1  0  0  0  0
 15 37  1  0  0  0  0
 15 38  1  0  0  0  0
 16 17  1  0  0  0  0
 17 18  1  0  0  0  0
 17 39  1  0  0  0  0
 17 40  1  0  0  0  0
 18 41  1  0  0  0  0
 18 42  1  0  0  0  0
 19 20  1  0  0  0  0
M  END
> <s_m_source_file>
AV-unprocessed.smi

> <i_m_source_file_index>
370

> <i_lp_mmshare_version>
43012

> <i_f3d_flags>
0

> <s_epik_input>
W0NIM11jMVtjSF1jKG5vMSlbTkhdQyg9TylbTkhdW0NIMl1DKFtDSDNdKShbQ0gzXSlOMltDSDJdW0NIMl1PW0NIMl1bQ0gyXTI=

> <s_epik_cmdline>
J2VwaWtfcHl0aG9uJywgJy1waCcsICc3LjAnLCAnLXRuJywgJzgnLCAnLW1hJywgJzIwMCcsICctbWV0YWxfYmluZGluZycsICctaW1hZScsICc8aW5maWxlLm1hZT4nLCAnLW9tYWUnLCAnPG91dGZpbGUubWFlPic=

> <r_epik_Ionization_Penalty>
0.214074

> <r_epik_Ionization_Penalty_Charging>
0

> <r_epik_Ionization_Penalty_Neutral>
0.214074

> <r_epik_State_Penalty>
0.204211

> <r_epik_Charging_Adjusted_Penalty>
0.204211

> <i_epik_Tot_Q>
0

> <i_epik_Tot_abs_Q>
0

> <r_epik_Metal_State_Penalty>
0.217151

> <b_epik_Metal_Only>
0

> <s_lp_Force_Field>
OPLS_2005

> <r_lp_Energy>
40.6457

> <b_lp_Chiralities_Consistent>
1

> <s_lp_Variant>
AV-unprocessed.smi:370-1

> <Gold.Version>
5.8.1

> <Gold.Id.Protein>
6NUR|6NUR_protein|mol2

> <Gold.PLP.Fitness>
41.0679

> <Gold.PLP.PLP>
-30.4701

> <Gold.PLP.part.hbond>
-4.0000

> <Gold.PLP.part.metal>
0.0000

> <Gold.PLP.part.buried>
-4.7670

> <Gold.PLP.part.nonpolar>
-23.1639

> <Gold.PLP.part.repulsive>
0.2515

> <Gold.PLP.ligand.clash>
0.0000

> <Gold.PLP.ligand.torsion>
0.2663

> <Gold.PLP.Chemscore.Hbond>
3.6880

> <Gold.PLP.Chemscore.CHOScore>
0.0000

> <Gold.PLP.Chemscore.Metal>
0.0000

> <Gold.Chemscore.Hbonds>
donor molecule, donor type, donor heavy atom, donor atom, acceptor molecule, acceptor atom, score
      L1  H     5    25       P1 10175  1.00
      L1  H     8    26       P1 10175  0.83
      P1  H  7989  7998       L1    16  0.98
      P1  H 11000 11005       L1    20  0.82

> <Gold.PLP.Chemscore.Internal.Correction>
0.0662

> <Gold.Rescore>
     Score         DG    S(hbond)    S(metal)    S(lipo)     H(rot)  DE(clash)    DE(int)     intcor
     17.16     -18.90       2.98        0.00      63.70       1.55       0.16       1.59       ----

> <Gold.Chemscore.Fitness>
17.1556

> <Gold.Chemscore.DG>
-18.9018

> <Gold.Chemscore.ZeroCoef>
-5.4800

> <Gold.Chemscore.Hbond>
2.9787

> <Gold.Chemscore.Metal>
0.0000

> <Gold.Chemscore.Lipo>
63.7019

> <Gold.Chemscore.Internal_Hbond>
0.0000

> <Gold.Chemscore.DEClash>
0.1605

> <Gold.Chemscore.DEInternal>
1.5857

> <Gold.Chemscore.Rot>
1.5548

> <Gold.Chemscore.Internal.Correction>
   9.000000E+99

> <Gold.Chemscore.Hbonds>
donor molecule, donor type, donor heavy atom, donor atom, acceptor molecule, acceptor atom, score
      L1  H     5    25       P1 10175  0.96
      L1  H     8    26       P1 10175  0.76
      P1  H  7989  7998       L1    16  0.17
      P1  H 11000 11005       L1    20  0.79

> <Gold.Chemscore.Hbond.Weighted>
-9.9489

> <Gold.Chemscore.Metal.Weighted>
-0.0000

> <Gold.Chemscore.Lipo.Weighted>
-7.4531

> <Gold.Chemscore.Internal_Hbond.Weighted>
0.0000

> <Gold.Chemscore.DEClash.Weighted>
0.1605

> <Gold.Chemscore.DEInternal.Weighted>
1.5857

> <Gold.Chemscore.Rot.Weighted>
3.9802

> <Gold.Chemscore.Internal.Correction.Weighted>
   9.000000E+99

> <Gold.Protein.RotatedTorsions>
[ 6907 6896 6895 6894 ] final  -50.06 input  -60.11 | X-H torsion
[ 7974 7965 7964 7962 ] final   37.45 input  175.53 | X-H torsion
[ 8008 7997 7996 7995 ] final -104.39 input   59.86 | X-H torsion
[ 10167 10162 10161 10158 ] final -134.06 input  -65.29 | X-H torsion
[ 10718 10713 10712 10709 ] final   99.28 input   66.30 | X-H torsion
[ 10763 10752 10751 10750 ] final  -54.86 input  -60.55 | X-H torsion
[ 11005 11000 10999 10996 ] final   51.19 input  -57.11 | X-H torsion

> <Gold.Protein.ActiveResidues>
 VAL166  LYS551  ARG553  GLY616  TRP617  ASP618  TYR619  PRO620  LYS621  CYS622 
 ASP623  PHE694  ASN695  SER759  ASP760  ASP761  ALA762  ILE779  LEU786  VAL792 
 PHE793  MET794  SER795  GLU796  ALA797  LYS798  CYS799  TRP800  GLU811  SER814 

> <Gold.Protein.RotatedAtoms>
  150.8744  134.8124  159.7178 H   0  0  0  0  0  0  0  0  0  0  0  0  # atno 6907 bound_to 6896
  152.4736  134.4896  159.9701 H   0  0  0  0  0  0  0  0  0  0  0  0  # atno 6908 bound_to 6896
  151.4980  133.3472  159.2899 H   0  0  0  0  0  0  0  0  0  0  0  0  # atno 6909 bound_to 6896
  146.1136  139.5892  142.9336 H   0  0  0  0  0  0  0  0  0  0  0  0  # atno 7974 bound_to 7965
  154.8846  140.0418  157.1802 H   0  0  0  0  0  0  0  0  0  0  0  0  # atno 8008 bound_to 7997
  154.8604  140.2943  155.5522 H   0  0  0  0  0  0  0  0  0  0  0  0  # atno 8009 bound_to 7997
  156.2998  140.2448  156.3577 H   0  0  0  0  0  0  0  0  0  0  0  0  # atno 8010 bound_to 7997
  139.8919  143.6712  152.2610 H   0  0  0  0  0  0  0  0  0  0  0  0  # atno 10167 bound_to 10162
  157.6879  131.0665  150.4924 H   0  0  0  0  0  0  0  0  0  0  0  0  # atno 10718 bound_to 10713
  154.1816  135.6442  153.5035 H   0  0  0  0  0  0  0  0  0  0  0  0  # atno 10763 bound_to 10752
  153.0058  135.5407  154.6509 H   0  0  0  0  0  0  0  0  0  0  0  0  # atno 10764 bound_to 10752
  154.5874  135.2931  155.0643 H   0  0  0  0  0  0  0  0  0  0  0  0  # atno 10765 bound_to 10752
  140.0953  134.5154  155.8813 H   0  0  0  0  0  0  0  0  0  0  0  0  # atno 11005 bound_to 11000
  145.5612  141.0404  143.2225 LP  0  0  0  0  0  0  0  0  0  0  0  0  # atno 17320 bound_to 7965
  144.7533  139.7137  143.7264 LP  0  0  0  0  0  0  0  0  0  0  0  0  # atno 17321 bound_to 7965
  139.7102  144.7621  151.1125 LP  0  0  0  0  0  0  0  0  0  0  0  0  # atno 17342 bound_to 10162
  140.7725  143.5341  150.9389 LP  0  0  0  0  0  0  0  0  0  0  0  0  # atno 17343 bound_to 10162
  156.5249  130.4171  149.6231 LP  0  0  0  0  0  0  0  0  0  0  0  0  # atno 17370 bound_to 10713
  156.3121  130.7234  151.2129 LP  0  0  0  0  0  0  0  0  0  0  0  0  # atno 17371 bound_to 10713
  141.2090  133.6679  156.6410 LP  0  0  0  0  0  0  0  0  0  0  0  0  # atno 17394 bound_to 11000
  140.3295  134.7941  157.4315 LP  0  0  0  0  0  0  0  0  0  0  0  0  # atno 17395 bound_to 11000

$$$$
