AV-unprocessed.smi:3228|AV-procd|sdf|12325|dock6
  -GOLD-   2272018173D 1   1.00000     0.00000
 Structure written by MMmdl.
 30 31  0  0  0  0  0  0  0  0  2 V2000
  151.2074  140.5051  155.3085 O   0  0  0  0  0  0  0  0  0  0  0  0
  150.2405  141.1717  155.6855 C   0  0  0  0  0  0  0  0  0  0  0  0
  150.1409  141.5373  156.9716 N   0  0  0  0  0  0  0  0  0  0  0  0
  151.0866  141.2022  158.0318 C   0  0  0  0  0  0  0  0  0  0  0  0
  152.0279  142.3815  158.3586 C   0  0  2  0  0  0  0  0  0  0  0  0
  152.2403  142.6521  159.8529 C   0  0  0  0  0  0  0  0  0  0  0  0
  152.7456  144.0997  159.9388 C   0  0  0  0  0  0  0  0  0  0  0  0
  152.4733  144.7415  158.5679 C   0  0  0  0  0  0  0  0  0  0  0  0
  151.6038  143.7442  157.7925 C   0  0  2  0  0  0  0  0  0  0  0  0
  150.2405  144.0177  158.0603 O   0  0  0  0  0  0  0  0  0  0  0  0
  149.2111  141.5956  154.9175 N   0  5  0  0  0  0  0  0  0  0  0  0
  148.4764  140.7067  154.2292 C   0  0  0  0  0  0  0  0  0  0  0  0
  147.3707  141.0402  153.5536 N   0  0  0  0  0  0  0  0  0  0  0  0
  146.7621  139.9576  152.9158 C   0  0  0  0  0  0  0  0  0  0  0  0
  147.4142  138.7702  153.1187 C   0  0  0  0  0  0  0  0  0  0  0  0
  148.8211  138.9778  154.1222 S   0  0  0  0  0  0  0  0  0  0  0  0
  149.3335  142.0824  157.2360 H   0  0  0  0  0  0  0  0  0  0  0  0
  150.5464  140.8887  158.9263 H   0  0  0  0  0  0  0  0  0  0  0  0
  151.6595  140.3369  157.6987 H   0  0  0  0  0  0  0  0  0  0  0  0
  153.0068  142.1588  157.9305 H   0  0  0  0  0  0  0  0  0  0  0  0
  151.2913  142.5661  160.3841 H   0  0  0  0  0  0  0  0  0  0  0  0
  152.9341  141.9432  160.3060 H   0  0  0  0  0  0  0  0  0  0  0  0
  152.2318  144.6371  160.7365 H   0  0  0  0  0  0  0  0  0  0  0  0
  153.8125  144.1266  160.1631 H   0  0  0  0  0  0  0  0  0  0  0  0
  152.0177  145.7293  158.6503 H   0  0  0  0  0  0  0  0  0  0  0  0
  153.4214  144.8706  158.0439 H   0  0  0  0  0  0  0  0  0  0  0  0
  151.7712  143.8086  156.7168 H   0  0  0  0  0  0  0  0  0  0  0  0
  149.8647  144.4342  157.2998 H   0  0  0  0  0  0  0  0  0  0  0  0
  145.8646  140.1237  152.3389 H   0  0  0  0  0  0  0  0  0  0  0  0
  147.1545  137.7919  152.7434 H   0  0  0  0  0  0  0  0  0  0  0  0
  1  2  2  0  0  0  0
  2  3  1  0  0  0  0
  2 11  1  0  0  0  0
  3  4  1  0  0  0  0
  3 17  1  0  0  0  0
  4  5  1  0  0  0  0
  4 18  1  0  0  0  0
  4 19  1  0  0  0  0
  5  9  1  0  0  0  0
  5  6  1  0  0  0  0
  5 20  1  0  0  0  0
  6  7  1  0  0  0  0
  6 21  1  0  0  0  0
  6 22  1  0  0  0  0
  7  8  1  0  0  0  0
  7 23  1  0  0  0  0
  7 24  1  0  0  0  0
  8  9  1  0  0  0  0
  8 25  1  0  0  0  0
  8 26  1  0  0  0  0
  9 10  1  0  0  0  0
  9 27  1  0  0  0  0
 10 28  1  0  0  0  0
 11 12  1  0  0  0  0
 12 16  1  0  0  0  0
 12 13  2  0  0  0  0
 13 14  1  0  0  0  0
 14 15  2  0  0  0  0
 14 29  1  0  0  0  0
 15 16  1  0  0  0  0
 15 30  1  0  0  0  0
M  CHG  1  11  -1
M  END
> <s_m_source_file>
AV-unprocessed.smi

> <i_m_source_file_index>
3228

> <i_lp_mmshare_version>
43012

> <i_f3d_flags>
0

> <s_epik_input>
czFbY0hdW2NIXW5jMVtOSF1DKD1PKVtOSF1bQ0gyXVtDQEBIXTJbQ0gyXVtDSDJdW0NIMl1bQ0BIXTJbT0hd

> <s_epik_cmdline>
J2VwaWtfcHl0aG9uJywgJy1waCcsICc3LjAnLCAnLXRuJywgJzgnLCAnLW1hJywgJzIwMCcsICctbWV0YWxfYmluZGluZycsICctaW1hZScsICc8aW5maWxlLm1hZT4nLCAnLW9tYWUnLCAnPG91dGZpbGUubWFlPic=

> <r_lp_tautomer_probability>
0.999

> <r_epik_Ionization_Penalty>
8.49756

> <r_epik_Ionization_Penalty_Charging>
6.79645

> <r_epik_Ionization_Penalty_Neutral>
1.70111

> <r_epik_State_Penalty>
6.79662

> <r_epik_Charging_Adjusted_Penalty>
13.5931

> <i_epik_Tot_Q>
-1

> <i_epik_Tot_abs_Q>
1

> <r_epik_Metal_State_Penalty>
2.71629

> <b_epik_Metal_Only>
1

> <s_lp_Force_Field>
OPLS_2005

> <r_lp_Energy>
19.9343

> <b_lp_Chiralities_Consistent>
1

> <s_lp_Variant>
AV-unprocessed.smi:3228-7

> <Gold.Version>
5.8.1

> <Gold.Id.Protein>
6NUR|6NUR_protein|mol2

> <Gold.PLP.Fitness>
42.2757

> <Gold.PLP.PLP>
-33.6804

> <Gold.PLP.part.hbond>
-2.7768

> <Gold.PLP.part.metal>
0.0000

> <Gold.PLP.part.buried>
-1.4380

> <Gold.PLP.part.nonpolar>
-29.0350

> <Gold.PLP.part.repulsive>
0.3803

> <Gold.PLP.ligand.clash>
0.0000

> <Gold.PLP.ligand.torsion>
1.3082

> <Gold.PLP.Chemscore.Hbond>
1.9280

> <Gold.PLP.Chemscore.CHOScore>
1.8060

> <Gold.PLP.Chemscore.Metal>
0.0000

> <Gold.Chemscore.Hbonds>
donor molecule, donor type, donor heavy atom, donor atom, acceptor molecule, acceptor atom, score
      L1  H    10    28       P1  8028  1.00
      P1  H  7989  7998       L1     1  0.93
      L1  C    14    29       P1 10175  1.00
      L1  C    15    30       P1  7948  0.81

> <Gold.PLP.Chemscore.Internal.Correction>
0.0097

> <Gold.Rescore>
     Score         DG    S(hbond)    S(metal)    S(lipo)     H(rot)  DE(clash)    DE(int)     intcor
     11.71     -14.56       1.12        0.00      86.11       1.85       0.08       2.77       ----

> <Gold.Chemscore.Fitness>
11.7073

> <Gold.Chemscore.DG>
-14.5582

> <Gold.Chemscore.ZeroCoef>
-5.4800

> <Gold.Chemscore.Hbond>
1.1181

> <Gold.Chemscore.Metal>
0.0000

> <Gold.Chemscore.Lipo>
86.1096

> <Gold.Chemscore.Internal_Hbond>
0.0000

> <Gold.Chemscore.DEClash>
0.0823

> <Gold.Chemscore.DEInternal>
2.7686

> <Gold.Chemscore.Rot>
1.8481

> <Gold.Chemscore.Internal.Correction>
   9.000000E+99

> <Gold.Chemscore.Hbonds>
donor molecule, donor type, donor heavy atom, donor atom, acceptor molecule, acceptor atom, score
      L1  H    10    28       P1  8028  0.30
      P1  H  7989  7998       L1     1  0.70

> <Gold.Chemscore.Hbond.Weighted>
-3.7346

> <Gold.Chemscore.Metal.Weighted>
-0.0000

> <Gold.Chemscore.Lipo.Weighted>
-10.0748

> <Gold.Chemscore.Internal_Hbond.Weighted>
0.0000

> <Gold.Chemscore.DEClash.Weighted>
0.0823

> <Gold.Chemscore.DEInternal.Weighted>
2.7686

> <Gold.Chemscore.Rot.Weighted>
4.7313

> <Gold.Chemscore.Internal.Correction.Weighted>
   9.000000E+99

> <Gold.Protein.RotatedTorsions>
[ 6907 6896 6895 6894 ] final  -48.71 input  -60.11 | X-H torsion
[ 7974 7965 7964 7962 ] final  -69.98 input  175.53 | X-H torsion
[ 8008 7997 7996 7995 ] final -167.87 input   59.86 | X-H torsion
[ 10167 10162 10161 10158 ] final  103.18 input  -65.29 | X-H torsion
[ 10718 10713 10712 10709 ] final  -37.60 input   66.30 | X-H torsion
[ 10763 10752 10751 10750 ] final -106.27 input  -60.55 | X-H torsion
[ 11005 11000 10999 10996 ] final  110.89 input  -57.11 | X-H torsion

> <Gold.Protein.ActiveResidues>
 VAL166  LYS551  ARG553  GLY616  TRP617  ASP618  TYR619  PRO620  LYS621  CYS622 
 ASP623  PHE694  ASN695  SER759  ASP760  ASP761  ALA762  ILE779  LEU786  VAL792 
 PHE793  MET794  SER795  GLU796  ALA797  LYS798  CYS799  TRP800  GLU811  SER814 

> <Gold.Protein.RotatedAtoms>
  150.8878  134.8278  159.7271 H   0  0  0  0  0  0  0  0  0  0  0  0  # atno 6907 bound_to 6896
  152.4818  134.4695  159.9641 H   0  0  0  0  0  0  0  0  0  0  0  0  # atno 6908 bound_to 6896
  151.4761  133.3518  159.2866 H   0  0  0  0  0  0  0  0  0  0  0  0  # atno 6909 bound_to 6896
  145.6969  140.9132  143.0752 H   0  0  0  0  0  0  0  0  0  0  0  0  # atno 7974 bound_to 7965
  155.8836  140.1013  157.1468 H   0  0  0  0  0  0  0  0  0  0  0  0  # atno 8008 bound_to 7997
  154.4007  140.1324  156.4291 H   0  0  0  0  0  0  0  0  0  0  0  0  # atno 8009 bound_to 7997
  155.7615  140.3463  155.5202 H   0  0  0  0  0  0  0  0  0  0  0  0  # atno 8010 bound_to 7997
  139.7285  144.7042  151.0759 H   0  0  0  0  0  0  0  0  0  0  0  0  # atno 10167 bound_to 10162
  156.3133  130.4255  149.8029 H   0  0  0  0  0  0  0  0  0  0  0  0  # atno 10718 bound_to 10713
  154.8001  135.4718  154.0256 H   0  0  0  0  0  0  0  0  0  0  0  0  # atno 10763 bound_to 10752
  153.1768  135.6834  153.8539 H   0  0  0  0  0  0  0  0  0  0  0  0  # atno 10764 bound_to 10752
  153.8103  135.3218  155.3377 H   0  0  0  0  0  0  0  0  0  0  0  0  # atno 10765 bound_to 10752
  139.8891  134.9495  156.6348 H   0  0  0  0  0  0  0  0  0  0  0  0  # atno 11005 bound_to 11000
  144.6980  139.8895  143.7452 LP  0  0  0  0  0  0  0  0  0  0  0  0  # atno 17320 bound_to 7965
  146.0832  139.3820  143.0451 LP  0  0  0  0  0  0  0  0  0  0  0  0  # atno 17321 bound_to 7965
  140.7767  143.5074  150.9695 LP  0  0  0  0  0  0  0  0  0  0  0  0  # atno 17342 bound_to 10162
  139.8762  143.7130  152.3161 LP  0  0  0  0  0  0  0  0  0  0  0  0  # atno 17343 bound_to 10162
  156.5364  130.8280  151.3254 LP  0  0  0  0  0  0  0  0  0  0  0  0  # atno 17370 bound_to 10713
  157.7396  130.9834  150.2323 LP  0  0  0  0  0  0  0  0  0  0  0  0  # atno 17371 bound_to 10713
  140.7639  133.8795  155.8439 LP  0  0  0  0  0  0  0  0  0  0  0  0  # atno 17394 bound_to 11000
  140.9899  134.1292  157.4417 LP  0  0  0  0  0  0  0  0  0  0  0  0  # atno 17395 bound_to 11000

$$$$
