AV-unprocessed.smi:2911|AV-procd|sdf|11178|dock1
  -GOLD-   2272016 73D 1   1.00000     0.00000
 Structure written by MMmdl.
 41 42  0  0  0  0  0  0  0  0  1 V2000
  146.7997  142.1899  154.0330 C   0  0  0  0  0  0  0  0  0  0  0  0
  147.9182  141.4774  154.7133 C   0  0  0  0  0  0  0  0  0  0  0  0
  147.7300  140.8326  155.8584 N   0  0  0  0  0  0  0  0  0  0  0  0
  149.0026  140.3238  156.1555 O   0  0  0  0  0  0  0  0  0  0  0  0
  149.8042  140.7150  155.1360 C   0  0  0  0  0  0  0  0  0  0  0  0
  151.2536  140.3643  155.1839 C   0  0  0  0  0  0  0  0  0  0  0  0
  151.6290  139.5972  156.4618 C   0  0  0  0  0  0  0  0  0  0  0  0
  152.1881  140.4836  157.4764 N   0  0  0  0  0  0  0  0  0  0  0  0
  151.5375  141.5022  158.0645 C   0  0  0  0  0  0  0  0  0  0  0  0
  150.3634  141.7617  157.7953 O   0  0  0  0  0  0  0  0  0  0  0  0
  152.2525  142.1697  159.0094 N   0  0  0  0  0  0  0  0  0  0  0  0
  153.6341  141.8351  159.4196 C   0  0  0  0  0  0  0  0  0  0  0  0
  153.7290  141.6803  160.9441 C   0  0  0  0  0  0  0  0  0  0  0  0
  153.2648  142.9613  161.6534 C   0  0  2  0  0  0  0  0  0  0  0  0
  153.3263  142.8169  163.1803 C   0  0  0  0  0  0  0  0  0  0  0  0
  151.8523  143.3386  161.1755 C   0  0  0  0  0  0  0  0  0  0  0  0
  151.7233  143.4002  159.6373 C   0  0  1  0  0  0  0  0  0  0  0  0
  152.3269  144.6679  159.0056 C   0  0  0  0  0  0  0  0  0  0  0  0
  149.1858  141.4535  154.2178 N   0  0  0  0  0  0  0  0  0  0  0  0
  145.8391  141.7511  154.3054 H   0  0  0  0  0  0  0  0  0  0  0  0
  146.9104  142.1262  152.9503 H   0  0  0  0  0  0  0  0  0  0  0  0
  146.7951  143.2415  154.3201 H   0  0  0  0  0  0  0  0  0  0  0  0
  151.4954  139.7688  154.3029 H   0  0  0  0  0  0  0  0  0  0  0  0
  151.8338  141.2848  155.1084 H   0  0  0  0  0  0  0  0  0  0  0  0
  150.7613  139.0689  156.8608 H   0  0  0  0  0  0  0  0  0  0  0  0
  152.3761  138.8371  156.2316 H   0  0  0  0  0  0  0  0  0  0  0  0
  153.1410  140.3077  157.7599 H   0  0  0  0  0  0  0  0  0  0  0  0
  154.0304  140.9314  158.9578 H   0  0  0  0  0  0  0  0  0  0  0  0
  154.3020  142.6303  159.0884 H   0  0  0  0  0  0  0  0  0  0  0  0
  153.1214  140.8324  161.2639 H   0  0  0  0  0  0  0  0  0  0  0  0
  154.7567  141.4503  161.2266 H   0  0  0  0  0  0  0  0  0  0  0  0
  153.9444  143.7672  161.3735 H   0  0  0  0  0  0  0  0  0  0  0  0
  152.6673  142.0220  163.5306 H   0  0  0  0  0  0  0  0  0  0  0  0
  153.0254  143.7412  163.6742 H   0  0  0  0  0  0  0  0  0  0  0  0
  154.3379  142.5806  163.5112 H   0  0  0  0  0  0  0  0  0  0  0  0
  151.1459  142.5969  161.5516 H   0  0  0  0  0  0  0  0  0  0  0  0
  151.5485  144.2905  161.6130 H   0  0  0  0  0  0  0  0  0  0  0  0
  150.6492  143.4710  159.4588 H   0  0  0  0  0  0  0  0  0  0  0  0
  151.8575  145.5642  159.4117 H   0  0  0  0  0  0  0  0  0  0  0  0
  152.1723  144.6790  157.9262 H   0  0  0  0  0  0  0  0  0  0  0  0
  153.3976  144.7504  159.1896 H   0  0  0  0  0  0  0  0  0  0  0  0
  1  2  1  0  0  0  0
  1 20  1  0  0  0  0
  1 21  1  0  0  0  0
  1 22  1  0  0  0  0
  2 19  1  0  0  0  0
  2  3  2  0  0  0  0
  3  4  1  0  0  0  0
  4  5  1  0  0  0  0
  5  6  1  0  0  0  0
  5 19  2  0  0  0  0
  6  7  1  0  0  0  0
  6 23  1  0  0  0  0
  6 24  1  0  0  0  0
  7  8  1  0  0  0  0
  7 25  1  0  0  0  0
  7 26  1  0  0  0  0
  8  9  1  0  0  0  0
  8 27  1  0  0  0  0
  9 10  2  0  0  0  0
  9 11  1  0  0  0  0
 11 17  1  0  0  0  0
 11 12  1  0  0  0  0
 12 13  1  0  0  0  0
 12 28  1  0  0  0  0
 12 29  1  0  0  0  0
 13 14  1  0  0  0  0
 13 30  1  0  0  0  0
 13 31  1  0  0  0  0
 14 15  1  0  0  0  0
 14 16  1  0  0  0  0
 14 32  1  0  0  0  0
 15 33  1  0  0  0  0
 15 34  1  0  0  0  0
 15 35  1  0  0  0  0
 16 17  1  0  0  0  0
 16 36  1  0  0  0  0
 16 37  1  0  0  0  0
 17 18  1  0  0  0  0
 17 38  1  0  0  0  0
 18 39  1  0  0  0  0
 18 40  1  0  0  0  0
 18 41  1  0  0  0  0
M  END
> <s_m_source_file>
AV-unprocessed.smi

> <i_m_source_file_index>
2911

> <i_lp_mmshare_version>
43012

> <i_f3d_flags>
0

> <s_epik_input>
W0NIM11jMW5vYyhuMSlbQ0gyXVtDSDJdW05IXUMoPU8pTjJbQ0gyXVtDSDJdW0NAQEhdKFtDSDNdKVtDSDJdW0NASF0yW0NIM10=

> <s_epik_cmdline>
J2VwaWtfcHl0aG9uJywgJy1waCcsICc3LjAnLCAnLXRuJywgJzgnLCAnLW1hJywgJzIwMCcsICctbWV0YWxfYmluZGluZycsICctaW1hZScsICc8aW5maWxlLm1hZT4nLCAnLW9tYWUnLCAnPG91dGZpbGUubWFlPic=

> <r_lp_tautomer_probability>
1

> <r_epik_Ionization_Penalty>
6.61671e-05

> <r_epik_Ionization_Penalty_Charging>
0

> <r_epik_Ionization_Penalty_Neutral>
6.61671e-05

> <r_epik_State_Penalty>
-0

> <r_epik_Charging_Adjusted_Penalty>
0

> <i_epik_Tot_Q>
0

> <i_epik_Tot_abs_Q>
0

> <r_epik_Metal_State_Penalty>
-0

> <b_epik_Metal_Only>
0

> <s_lp_Force_Field>
OPLS_2005

> <r_lp_Energy>
30.9139

> <b_lp_Chiralities_Consistent>
1

> <s_lp_Variant>
AV-unprocessed.smi:2911-2

> <Gold.Version>
5.8.1

> <Gold.Id.Protein>
6NUR|6NUR_protein|mol2

> <Gold.PLP.Fitness>
43.6892

> <Gold.PLP.PLP>
-42.3525

> <Gold.PLP.part.hbond>
-2.0000

> <Gold.PLP.part.metal>
0.0000

> <Gold.PLP.part.buried>
-2.1565

> <Gold.PLP.part.nonpolar>
-37.9689

> <Gold.PLP.part.repulsive>
0.4383

> <Gold.PLP.ligand.clash>
0.0000

> <Gold.PLP.ligand.torsion>
0.2939

> <Gold.PLP.Chemscore.Hbond>
0.6292

> <Gold.PLP.Chemscore.CHOScore>
0.0000

> <Gold.PLP.Chemscore.Metal>
0.0000

> <Gold.Chemscore.Hbonds>
donor molecule, donor type, donor heavy atom, donor atom, acceptor molecule, acceptor atom, score
      P1  H  8011  8017       L1    19  0.38

> <Gold.PLP.Chemscore.Internal.Correction>
0.0368

> <Gold.Rescore>
     Score         DG    S(hbond)    S(metal)    S(lipo)     H(rot)  DE(clash)    DE(int)     intcor
     12.87     -14.92       0.53        0.00     100.62       1.61       1.11       0.93       ----

> <Gold.Chemscore.Fitness>
12.8718

> <Gold.Chemscore.DG>
-14.9183

> <Gold.Chemscore.ZeroCoef>
-5.4800

> <Gold.Chemscore.Hbond>
0.5343

> <Gold.Chemscore.Metal>
0.0000

> <Gold.Chemscore.Lipo>
100.6196

> <Gold.Chemscore.Internal_Hbond>
0.0000

> <Gold.Chemscore.DEClash>
1.1138

> <Gold.Chemscore.DEInternal>
0.9327

> <Gold.Chemscore.Rot>
1.6088

> <Gold.Chemscore.Internal.Correction>
   9.000000E+99

> <Gold.Chemscore.Hbonds>
donor molecule, donor type, donor heavy atom, donor atom, acceptor molecule, acceptor atom, score
      P1  H  8011  8017       L1    19  0.38

> <Gold.Chemscore.Hbond.Weighted>
-1.7845

> <Gold.Chemscore.Metal.Weighted>
-0.0000

> <Gold.Chemscore.Lipo.Weighted>
-11.7725

> <Gold.Chemscore.Internal_Hbond.Weighted>
0.0000

> <Gold.Chemscore.DEClash.Weighted>
1.1138

> <Gold.Chemscore.DEInternal.Weighted>
0.9327

> <Gold.Chemscore.Rot.Weighted>
4.1186

> <Gold.Chemscore.Internal.Correction.Weighted>
   9.000000E+99

> <Gold.Protein.RotatedTorsions>
[ 6907 6896 6895 6894 ] final  167.48 input  -60.11 | X-H torsion
[ 7974 7965 7964 7962 ] final  -12.38 input  175.53 | X-H torsion
[ 8008 7997 7996 7995 ] final  133.03 input   59.86 | X-H torsion
[ 10167 10162 10161 10158 ] final -150.88 input  -65.29 | X-H torsion
[ 10718 10713 10712 10709 ] final  140.28 input   66.30 | X-H torsion
[ 10763 10752 10751 10750 ] final   82.32 input  -60.55 | X-H torsion
[ 11005 11000 10999 10996 ] final -123.34 input  -57.11 | X-H torsion

> <Gold.Protein.ActiveResidues>
 VAL166  LYS551  ARG553  GLY616  TRP617  ASP618  TYR619  PRO620  LYS621  CYS622 
 ASP623  PHE694  ASN695  SER759  ASP760  ASP761  ALA762  ILE779  LEU786  VAL792 
 PHE793  MET794  SER795  GLU796  ALA797  LYS798  CYS799  TRP800  GLU811  SER814 

> <Gold.Protein.RotatedAtoms>
  151.8626  133.3460  159.3708 H   0  0  0  0  0  0  0  0  0  0  0  0  # atno 6907 bound_to 6896
  150.7175  134.5191  159.5654 H   0  0  0  0  0  0  0  0  0  0  0  0  # atno 6908 bound_to 6896
  152.2708  134.7935  160.0465 H   0  0  0  0  0  0  0  0  0  0  0  0  # atno 6909 bound_to 6896
  146.2154  140.3049  142.8378 H   0  0  0  0  0  0  0  0  0  0  0  0  # atno 7974 bound_to 7965
  156.2988  140.2531  156.3186 H   0  0  0  0  0  0  0  0  0  0  0  0  # atno 8008 bound_to 7997
  154.9257  140.0399  157.2040 H   0  0  0  0  0  0  0  0  0  0  0  0  # atno 8009 bound_to 7997
  154.8267  140.2869  155.5754 H   0  0  0  0  0  0  0  0  0  0  0  0  # atno 8010 bound_to 7997
  139.7316  143.8800  152.2536 H   0  0  0  0  0  0  0  0  0  0  0  0  # atno 10167 bound_to 10162
  157.4051  131.1021  151.0512 H   0  0  0  0  0  0  0  0  0  0  0  0  # atno 10718 bound_to 10713
  153.1192  135.4733  154.9167 H   0  0  0  0  0  0  0  0  0  0  0  0  # atno 10763 bound_to 10752
  154.7559  135.3118  154.8473 H   0  0  0  0  0  0  0  0  0  0  0  0  # atno 10764 bound_to 10752
  153.9042  135.6872  153.4807 H   0  0  0  0  0  0  0  0  0  0  0  0  # atno 10765 bound_to 10752
  140.9926  134.0517  157.3636 H   0  0  0  0  0  0  0  0  0  0  0  0  # atno 11005 bound_to 11000
  144.9030  140.7665  143.5855 LP  0  0  0  0  0  0  0  0  0  0  0  0  # atno 17320 bound_to 7965
  145.2976  139.1861  143.4706 LP  0  0  0  0  0  0  0  0  0  0  0  0  # atno 17321 bound_to 7965
  139.8725  144.7061  150.8971 LP  0  0  0  0  0  0  0  0  0  0  0  0  # atno 17342 bound_to 10162
  140.7772  143.3727  151.1620 LP  0  0  0  0  0  0  0  0  0  0  0  0  # atno 17343 bound_to 10162
  157.1497  130.6179  149.5579 LP  0  0  0  0  0  0  0  0  0  0  0  0  # atno 17370 bound_to 10713
  155.9834  130.4853  150.6931 LP  0  0  0  0  0  0  0  0  0  0  0  0  # atno 17371 bound_to 10713
  139.8999  135.0160  156.7219 LP  0  0  0  0  0  0  0  0  0  0  0  0  # atno 17394 bound_to 11000
  140.7016  133.9301  155.8028 LP  0  0  0  0  0  0  0  0  0  0  0  0  # atno 17395 bound_to 11000

$$$$
