AV-unprocessed.smi:17|AV-procd|sdf|105|dock10
  -GOLD-   2262015263D 1   1.00000     0.00000
 Structure written by MMmdl.
 57 59  0  0  0  0  0  0  0  0  1 V2000
  139.7636  139.6406  157.4302 C   0  0  0  0  0  0  0  0  0  0  0  0
  141.2766  139.7041  157.6973 C   0  0  0  0  0  0  0  0  0  0  0  0
  142.0089  138.5530  157.1597 N   0  0  0  0  0  0  0  0  0  0  0  0
  142.0808  138.4267  155.8057 C   0  0  0  0  0  0  0  0  0  0  0  0
  141.6867  139.4658  155.0214 N   0  0  0  0  0  0  0  0  0  0  0  0
  141.7226  139.3665  153.6899 C   0  0  0  0  0  0  0  0  0  0  0  0
  142.1107  138.3334  152.9415 N   0  0  0  0  0  0  0  0  0  0  0  0
  142.5128  137.2877  153.7177 C   0  0  0  0  0  0  0  0  0  0  0  0
  142.5309  137.2475  155.1418 C   0  0  0  0  0  0  0  0  0  0  0  0
  143.0153  136.0147  155.5659 N   0  0  0  0  0  0  0  0  0  0  0  0
  143.2602  135.3645  154.4619 C   0  0  0  0  0  0  0  0  0  0  0  0
  142.9798  136.0534  153.3048 N   0  0  0  0  0  0  0  0  0  0  0  0
  143.1494  135.5768  151.9438 C   0  0  0  0  0  0  0  0  0  0  0  0
  144.4664  134.7816  151.7455 C   0  0  2  0  0  0  0  0  0  0  0  0
  145.6883  135.6833  151.4505 C   0  0  0  0  0  0  0  0  0  0  0  0
  145.5889  136.3108  150.1886 O   0  0  0  0  0  0  0  0  0  0  0  0
  144.3670  133.5892  150.7558 C   0  0  1  0  0  0  0  0  0  0  0  0
  145.6028  132.7151  150.6440 C   0  0  0  0  0  0  0  0  0  0  0  0
  145.0517  131.5066  149.8955 C   0  0  0  0  0  0  0  0  0  0  0  0
  143.7097  131.3569  150.3486 O   0  0  0  0  0  0  0  0  0  0  0  0
  143.2790  132.5408  151.0162 C   0  0  0  0  0  0  0  0  0  0  0  0
  142.9619  137.8121  157.9992 C   0  0  1  0  0  0  0  0  0  0  0  0
  144.4191  138.1761  157.6655 C   0  0  0  0  0  0  0  0  0  0  0  0
  142.6701  137.9656  159.5081 C   0  0  0  0  0  0  0  0  0  0  0  0
  142.9638  136.4102  160.4702 S   0  0  0  0  0  0  0  0  0  0  0  0
  141.3070  136.0528  161.1880 C   0  0  0  0  0  0  0  0  0  0  0  0
  143.3044  135.3208  159.5422 O   0  0  0  0  0  0  0  0  0  0  0  0
  143.8688  136.7320  161.5840 O   0  0  0  0  0  0  0  0  0  0  0  0
  139.2710  140.5379  157.8042 H   0  0  0  0  0  0  0  0  0  0  0  0
  139.3028  138.7852  157.9250 H   0  0  0  0  0  0  0  0  0  0  0  0
  139.5479  139.5657  156.3646 H   0  0  0  0  0  0  0  0  0  0  0  0
  141.6631  140.6177  157.2479 H   0  0  0  0  0  0  0  0  0  0  0  0
  141.4664  139.8090  158.7641 H   0  0  0  0  0  0  0  0  0  0  0  0
  141.3904  140.2390  153.1472 H   0  0  0  0  0  0  0  0  0  0  0  0
  143.6480  134.3561  154.4604 H   0  0  0  0  0  0  0  0  0  0  0  0
  142.2818  134.9642  151.7020 H   0  0  0  0  0  0  0  0  0  0  0  0
  143.1130  136.4405  151.2804 H   0  0  0  0  0  0  0  0  0  0  0  0
  144.6852  134.3237  152.7112 H   0  0  0  0  0  0  0  0  0  0  0  0
  145.7918  136.4560  152.2127 H   0  0  0  0  0  0  0  0  0  0  0  0
  146.6095  135.1008  151.4811 H   0  0  0  0  0  0  0  0  0  0  0  0
  144.8214  136.8625  150.1869 H   0  0  0  0  0  0  0  0  0  0  0  0
  144.1894  134.0004  149.7604 H   0  0  0  0  0  0  0  0  0  0  0  0
  146.4247  133.1996  150.1163 H   0  0  0  0  0  0  0  0  0  0  0  0
  145.9627  132.4011  151.6234 H   0  0  0  0  0  0  0  0  0  0  0  0
  145.0366  131.6995  148.8221 H   0  0  0  0  0  0  0  0  0  0  0  0
  145.6361  130.6028  150.0694 H   0  0  0  0  0  0  0  0  0  0  0  0
  143.1829  132.3071  152.0754 H   0  0  0  0  0  0  0  0  0  0  0  0
  142.3017  132.8586  150.6524 H   0  0  0  0  0  0  0  0  0  0  0  0
  142.8609  136.7469  157.7916 H   0  0  0  0  0  0  0  0  0  0  0  0
  145.1148  137.5463  158.2202 H   0  0  0  0  0  0  0  0  0  0  0  0
  144.6431  139.2132  157.9160 H   0  0  0  0  0  0  0  0  0  0  0  0
  144.6282  138.0351  156.6049 H   0  0  0  0  0  0  0  0  0  0  0  0
  143.3510  138.7090  159.9232 H   0  0  0  0  0  0  0  0  0  0  0  0
  141.6624  138.3244  159.7123 H   0  0  0  0  0  0  0  0  0  0  0  0
  141.3904  135.2174  161.8828 H   0  0  0  0  0  0  0  0  0  0  0  0
  140.6079  135.7838  160.3995 H   0  0  0  0  0  0  0  0  0  0  0  0
  140.9399  136.9290  161.7217 H   0  0  0  0  0  0  0  0  0  0  0  0
  1  2  1  0  0  0  0
  1 29  1  0  0  0  0
  1 30  1  0  0  0  0
  1 31  1  0  0  0  0
  2  3  1  0  0  0  0
  2 32  1  0  0  0  0
  2 33  1  0  0  0  0
  3  4  1  0  0  0  0
  3 22  1  0  0  0  0
  4  9  1  0  0  0  0
  4  5  2  0  0  0  0
  5  6  1  0  0  0  0
  6  7  2  0  0  0  0
  6 34  1  0  0  0  0
  7  8  1  0  0  0  0
  8 12  1  0  0  0  0
  8  9  2  0  0  0  0
  9 10  1  0  0  0  0
 10 11  2  0  0  0  0
 11 12  1  0  0  0  0
 11 35  1  0  0  0  0
 12 13  1  0  0  0  0
 13 14  1  0  0  0  0
 13 36  1  0  0  0  0
 13 37  1  0  0  0  0
 14 15  1  0  0  0  0
 14 17  1  0  0  0  0
 14 38  1  0  0  0  0
 15 16  1  0  0  0  0
 15 39  1  0  0  0  0
 15 40  1  0  0  0  0
 16 41  1  0  0  0  0
 17 21  1  0  0  0  0
 17 18  1  0  0  0  0
 17 42  1  0  0  0  0
 18 19  1  0  0  0  0
 18 43  1  0  0  0  0
 18 44  1  0  0  0  0
 19 20  1  0  0  0  0
 19 45  1  0  0  0  0
 19 46  1  0  0  0  0
 20 21  1  0  0  0  0
 21 47  1  0  0  0  0
 21 48  1  0  0  0  0
 22 23  1  0  0  0  0
 22 24  1  0  0  0  0
 22 49  1  0  0  0  0
 23 50  1  0  0  0  0
 23 51  1  0  0  0  0
 23 52  1  0  0  0  0
 24 25  1  0  0  0  0
 24 53  1  0  0  0  0
 24 54  1  0  0  0  0
 25 26  1  0  0  0  0
 25 27  2  0  0  0  0
 25 28  2  0  0  0  0
 26 55  1  0  0  0  0
 26 56  1  0  0  0  0
 26 57  1  0  0  0  0
M  END
> <s_m_source_file>
AV-unprocessed.smi

> <i_m_source_file_index>
17

> <i_lp_mmshare_version>
43012

> <i_f3d_flags>
0

> <s_epik_input>
W0NIM11TKD1PKSg9TylbQ0gyXVtDQEBIXShbQ0gzXSlOKFtDSDJdW0NIM10pYyhuW2NIXW4xKWMoYzEyKW5bY0hdbjJbQ0gyXVtDQEhdKFtDSDJdW09IXSlbQ0BASF0zW0NIMl1bQ0gyXU9bQ0gyXTM=

> <s_epik_cmdline>
J2VwaWtfcHl0aG9uJywgJy1waCcsICc3LjAnLCAnLXRuJywgJzgnLCAnLW1hJywgJzIwMCcsICctbWV0YWxfYmluZGluZycsICctaW1hZScsICc8aW5maWxlLm1hZT4nLCAnLW9tYWUnLCAnPG91dGZpbGUubWFlPic=

> <r_lp_tautomer_probability>
1

> <r_epik_Ionization_Penalty>
0.00119955

> <r_epik_Ionization_Penalty_Charging>
0

> <r_epik_Ionization_Penalty_Neutral>
0.00119955

> <r_epik_State_Penalty>
0.000665399

> <r_epik_Charging_Adjusted_Penalty>
0.000665399

> <i_epik_Tot_Q>
0

> <i_epik_Tot_abs_Q>
0

> <r_epik_Metal_State_Penalty>
-0

> <b_epik_Metal_Only>
0

> <s_lp_Force_Field>
OPLS_2005

> <r_lp_Energy>
34.6832

> <b_lp_Chiralities_Consistent>
1

> <s_lp_Variant>
AV-unprocessed.smi:17-7

> <Gold.Version>
5.8.1

> <Gold.Id.Protein>
6NUR|6NUR_protein|mol2

> <Gold.PLP.Fitness>
40.6353

> <Gold.PLP.PLP>
-30.3191

> <Gold.PLP.part.hbond>
-4.0000

> <Gold.PLP.part.metal>
0.0000

> <Gold.PLP.part.buried>
-5.7543

> <Gold.PLP.part.nonpolar>
-23.1372

> <Gold.PLP.part.repulsive>
1.7196

> <Gold.PLP.ligand.clash>
0.0000

> <Gold.PLP.ligand.torsion>
1.7838

> <Gold.PLP.Chemscore.Hbond>
2.2275

> <Gold.PLP.Chemscore.CHOScore>
2.0283

> <Gold.PLP.Chemscore.Metal>
0.0000

> <Gold.Chemscore.Hbonds>
donor molecule, donor type, donor heavy atom, donor atom, acceptor molecule, acceptor atom, score
      L1  H    16    41       P1 10171  1.00
      P1  H 10785 10796       L1    20  0.45
      L1  C     6    34       P1 10160  1.00
      L1  C     6    34       P1 10175  0.08
      L1  C    11    35       P1 10957  0.35

> <Gold.PLP.Chemscore.Internal.Correction>
1.1163

> <Gold.Rescore>
     Score         DG    S(hbond)    S(metal)    S(lipo)     H(rot)  DE(clash)    DE(int)     intcor
      8.60     -12.27       2.48        0.00      64.11       3.51       0.63       3.04       ----

> <Gold.Chemscore.Fitness>
8.6037

> <Gold.Chemscore.DG>
-12.2743

> <Gold.Chemscore.ZeroCoef>
-5.4800

> <Gold.Chemscore.Hbond>
2.4757

> <Gold.Chemscore.Metal>
0.0000

> <Gold.Chemscore.Lipo>
64.1057

> <Gold.Chemscore.Internal_Hbond>
0.0000

> <Gold.Chemscore.DEClash>
0.6304

> <Gold.Chemscore.DEInternal>
3.0402

> <Gold.Chemscore.Rot>
3.5059

> <Gold.Chemscore.Internal.Correction>
   9.000000E+99

> <Gold.Chemscore.Hbonds>
donor molecule, donor type, donor heavy atom, donor atom, acceptor molecule, acceptor atom, score
      L1  H    16    41       P1 10171  0.93
      P1  H 10785 10796       L1    20  0.04

> <Gold.Chemscore.Hbond.Weighted>
-8.2689

> <Gold.Chemscore.Metal.Weighted>
-0.0000

> <Gold.Chemscore.Lipo.Weighted>
-7.5004

> <Gold.Chemscore.Internal_Hbond.Weighted>
0.0000

> <Gold.Chemscore.DEClash.Weighted>
0.6304

> <Gold.Chemscore.DEInternal.Weighted>
3.0402

> <Gold.Chemscore.Rot.Weighted>
8.9750

> <Gold.Chemscore.Internal.Correction.Weighted>
   9.000000E+99

> <Gold.Protein.RotatedTorsions>
[ 6907 6896 6895 6894 ] final  140.73 input  -60.11 | X-H torsion
[ 7974 7965 7964 7962 ] final  -23.69 input  175.53 | X-H torsion
[ 8008 7997 7996 7995 ] final -144.94 input   59.86 | X-H torsion
[ 10167 10162 10161 10158 ] final -105.62 input  -65.29 | X-H torsion
[ 10718 10713 10712 10709 ] final   21.15 input   66.30 | X-H torsion
[ 10763 10752 10751 10750 ] final -116.58 input  -60.55 | X-H torsion
[ 11005 11000 10999 10996 ] final -137.57 input  -57.11 | X-H torsion

> <Gold.Protein.ActiveResidues>
 VAL166  LYS551  ARG553  GLY616  TRP617  ASP618  TYR619  PRO620  LYS621  CYS622 
 ASP623  PHE694  ASN695  SER759  ASP760  ASP761  ALA762  ILE779  LEU786  VAL792 
 PHE793  MET794  SER795  GLU796  ALA797  LYS798  CYS799  TRP800  GLU811  SER814 

> <Gold.Protein.RotatedAtoms>
  152.2395  133.5123  159.5261 H   0  0  0  0  0  0  0  0  0  0  0  0  # atno 6907 bound_to 6896
  150.7060  134.1109  159.4008 H   0  0  0  0  0  0  0  0  0  0  0  0  # atno 6908 bound_to 6896
  151.9029  135.0370  160.0558 H   0  0  0  0  0  0  0  0  0  0  0  0  # atno 6909 bound_to 6896
  146.1600  140.4651  142.8575 H   0  0  0  0  0  0  0  0  0  0  0  0  # atno 7974 bound_to 7965
  155.5351  140.0603  157.2881 H   0  0  0  0  0  0  0  0  0  0  0  0  # atno 8008 bound_to 7997
  154.4471  140.1929  156.0578 H   0  0  0  0  0  0  0  0  0  0  0  0  # atno 8009 bound_to 7997
  156.0624  140.3270  155.7482 H   0  0  0  0  0  0  0  0  0  0  0  0  # atno 8010 bound_to 7997
  140.1966  143.3850  152.1163 H   0  0  0  0  0  0  0  0  0  0  0  0  # atno 10167 bound_to 10162
  157.1345  130.6605  149.5962 H   0  0  0  0  0  0  0  0  0  0  0  0  # atno 10718 bound_to 10713
  154.8524  135.4340  154.1844 H   0  0  0  0  0  0  0  0  0  0  0  0  # atno 10763 bound_to 10752
  153.2927  135.6962  153.7284 H   0  0  0  0  0  0  0  0  0  0  0  0  # atno 10764 bound_to 10752
  153.6445  135.3462  155.3056 H   0  0  0  0  0  0  0  0  0  0  0  0  # atno 10765 bound_to 10752
  140.8699  134.2064  157.4657 H   0  0  0  0  0  0  0  0  0  0  0  0  # atno 11005 bound_to 11000
  144.8015  140.6221  143.6475 LP  0  0  0  0  0  0  0  0  0  0  0  0  # atno 17320 bound_to 7965
  145.4611  139.1513  143.3865 LP  0  0  0  0  0  0  0  0  0  0  0  0  # atno 17321 bound_to 7965
  139.5234  144.7071  151.5321 LP  0  0  0  0  0  0  0  0  0  0  0  0  # atno 17342 bound_to 10162
  140.6419  143.8872  150.6700 LP  0  0  0  0  0  0  0  0  0  0  0  0  # atno 17343 bound_to 10162
  155.9801  130.4799  150.6753 LP  0  0  0  0  0  0  0  0  0  0  0  0  # atno 17370 bound_to 10713
  157.4363  131.0855  151.0989 LP  0  0  0  0  0  0  0  0  0  0  0  0  # atno 17371 bound_to 10713
  139.8711  134.9769  156.4939 LP  0  0  0  0  0  0  0  0  0  0  0  0  # atno 17394 bound_to 11000
  140.8586  133.8077  155.9241 LP  0  0  0  0  0  0  0  0  0  0  0  0  # atno 17395 bound_to 11000

$$$$
