AV-unprocessed.smi:2568|AV-procd|sdf|10089|dock5
  -GOLD-   2272014113D 1   1.00000     0.00000
 Structure written by MMmdl.
 25 26  0  0  0  0  0  0  0  0  2 V2000
  151.6142  137.8485  154.0405 C   0  0  0  0  0  0  0  0  0  0  0  0
  151.7494  138.9129  155.0762 C   0  0  0  0  0  0  0  0  0  0  0  0
  152.6377  138.8284  156.0681 N   0  0  0  0  0  0  0  0  0  0  0  0
  152.5423  139.9265  156.8474 N   0  0  0  0  0  0  0  0  0  0  0  0
  151.5586  140.6034  156.2560 C   0  0  0  0  0  0  0  0  0  0  0  0
  151.1358  141.9437  156.7719 C   0  0  1  0  0  0  0  0  0  0  0  0
  149.6861  141.9361  157.2923 C   0  0  0  0  0  0  0  0  0  0  0  0
  149.3557  143.2516  157.8736 N   0  3  0  0  0  0  0  0  0  0  0  0
  150.3236  143.6387  158.9194 C   0  0  0  0  0  0  0  0  0  0  0  0
  151.7585  143.5784  158.3654 C   0  0  0  0  0  0  0  0  0  0  0  0
  152.0195  142.2811  157.8393 O   0  0  0  0  0  0  0  0  0  0  0  0
  151.0327  140.0302  155.1296 N   0  0  0  0  0  0  0  0  0  0  0  0
  153.2989  138.0842  156.2399 H   0  0  0  0  0  0  0  0  0  0  0  0
  150.8212  138.1000  153.3354 H   0  0  0  0  0  0  0  0  0  0  0  0
  151.3718  136.8956  154.5118 H   0  0  0  0  0  0  0  0  0  0  0  0
  152.5490  137.7408  153.4902 H   0  0  0  0  0  0  0  0  0  0  0  0
  151.2452  142.6773  155.9704 H   0  0  0  0  0  0  0  0  0  0  0  0
  148.9870  141.7106  156.4864 H   0  0  0  0  0  0  0  0  0  0  0  0
  149.5579  141.1670  158.0555 H   0  0  0  0  0  0  0  0  0  0  0  0
  149.3781  143.9445  157.1387 H   0  0  0  0  0  0  0  0  0  0  0  0
  150.0907  144.6427  159.2742 H   0  0  0  0  0  0  0  0  0  0  0  0
  150.2198  142.9643  159.7704 H   0  0  0  0  0  0  0  0  0  0  0  0
  151.9092  144.3324  157.5911 H   0  0  0  0  0  0  0  0  0  0  0  0
  152.4764  143.7897  159.1579 H   0  0  0  0  0  0  0  0  0  0  0  0
  148.4267  143.2210  158.2692 H   0  0  0  0  0  0  0  0  0  0  0  0
  1 14  1  0  0  0  0
  1 15  1  0  0  0  0
  1 16  1  0  0  0  0
  1  2  1  0  0  0  0
  2 12  2  0  0  0  0
  2  3  1  0  0  0  0
  3  4  1  0  0  0  0
  3 13  1  0  0  0  0
  4  5  2  0  0  0  0
  5 12  1  0  0  0  0
  5  6  1  0  0  0  0
  6 11  1  0  0  0  0
  6  7  1  0  0  0  0
  6 17  1  0  0  0  0
  7  8  1  0  0  0  0
  7 18  1  0  0  0  0
  7 19  1  0  0  0  0
  8  9  1  0  0  0  0
  8 20  1  0  0  0  0
  8 25  1  0  0  0  0
  9 10  1  0  0  0  0
  9 21  1  0  0  0  0
  9 22  1  0  0  0  0
 10 11  1  0  0  0  0
 10 23  1  0  0  0  0
 10 24  1  0  0  0  0
M  CHG  1   8   1
M  END
> <s_m_source_file>
AV-unprocessed.smi

> <i_m_source_file_index>
2568

> <i_lp_mmshare_version>
43012

> <i_f3d_flags>
0

> <s_epik_input>
W0NIM11jMW5bbkhdYyhuMSlbQ0BASF0yW0NIMl1bTkhdW0NIMl1bQ0gyXU8y

> <s_epik_cmdline>
J2VwaWtfcHl0aG9uJywgJy1waCcsICc3LjAnLCAnLXRuJywgJzgnLCAnLW1hJywgJzIwMCcsICctbWV0YWxfYmluZGluZycsICctaW1hZScsICc8aW5maWxlLm1hZT4nLCAnLW9tYWUnLCAnPG91dGZpbGUubWFlPic=

> <r_lp_tautomer_probability>
0.948284

> <r_epik_Ionization_Penalty>
0.107151

> <r_epik_Ionization_Penalty_Charging>
0.100865

> <r_epik_Ionization_Penalty_Neutral>
0.00628602

> <r_epik_State_Penalty>
0.200426

> <r_epik_Charging_Adjusted_Penalty>
0.30129

> <i_epik_Tot_Q>
1

> <i_epik_Tot_abs_Q>
1

> <r_epik_Metal_State_Penalty>
0.501686

> <b_epik_Metal_Only>
0

> <s_lp_Force_Field>
OPLS_2005

> <r_lp_Energy>
11.0041

> <b_lp_Chiralities_Consistent>
1

> <s_lp_Variant>
AV-unprocessed.smi:2568-2

> <Gold.Version>
5.8.1

> <Gold.Id.Protein>
6NUR|6NUR_protein|mol2

> <Gold.PLP.Fitness>
30.7733

> <Gold.PLP.PLP>
-20.4216

> <Gold.PLP.part.hbond>
-3.7679

> <Gold.PLP.part.metal>
0.0000

> <Gold.PLP.part.buried>
-1.4261

> <Gold.PLP.part.nonpolar>
-15.4936

> <Gold.PLP.part.repulsive>
0.2828

> <Gold.PLP.ligand.clash>
0.0000

> <Gold.PLP.ligand.torsion>
0.0753

> <Gold.PLP.Chemscore.Hbond>
3.4960

> <Gold.PLP.Chemscore.CHOScore>
0.0000

> <Gold.PLP.Chemscore.Metal>
0.0000

> <Gold.Chemscore.Hbonds>
donor molecule, donor type, donor heavy atom, donor atom, acceptor molecule, acceptor atom, score
      L1  H     8    20       P1  8028  2.00
      P1  H  7989  7998       L1    12  0.95
      P1  H  7997  8008       L1     4  0.44

> <Gold.PLP.Chemscore.Internal.Correction>
0.0143

> <Gold.Rescore>
     Score         DG    S(hbond)    S(metal)    S(lipo)     H(rot)  DE(clash)    DE(int)     intcor
     11.95     -13.38       1.69        0.00      41.06       1.00       1.19       0.23       ----

> <Gold.Chemscore.Fitness>
11.9547

> <Gold.Chemscore.DG>
-13.3768

> <Gold.Chemscore.ZeroCoef>
-5.4800

> <Gold.Chemscore.Hbond>
1.6925

> <Gold.Chemscore.Metal>
0.0000

> <Gold.Chemscore.Lipo>
41.0591

> <Gold.Chemscore.Internal_Hbond>
0.0000

> <Gold.Chemscore.DEClash>
1.1894

> <Gold.Chemscore.DEInternal>
0.2327

> <Gold.Chemscore.Rot>
1.0000

> <Gold.Chemscore.Internal.Correction>
   9.000000E+99

> <Gold.Chemscore.Hbonds>
donor molecule, donor type, donor heavy atom, donor atom, acceptor molecule, acceptor atom, score
      L1  H     8    20       P1  8028  0.49
      P1  H  7989  7998       L1    12  0.18
      P1  H  7997  8008       L1     4  0.01

> <Gold.Chemscore.Hbond.Weighted>
-5.6528

> <Gold.Chemscore.Metal.Weighted>
-0.0000

> <Gold.Chemscore.Lipo.Weighted>
-4.8039

> <Gold.Chemscore.Internal_Hbond.Weighted>
0.0000

> <Gold.Chemscore.DEClash.Weighted>
1.1894

> <Gold.Chemscore.DEInternal.Weighted>
0.2327

> <Gold.Chemscore.Rot.Weighted>
2.5600

> <Gold.Chemscore.Internal.Correction.Weighted>
   9.000000E+99

> <Gold.Protein.RotatedTorsions>
[ 6907 6896 6895 6894 ] final -139.28 input  -60.11 | X-H torsion
[ 7974 7965 7964 7962 ] final  -21.92 input  175.53 | X-H torsion
[ 8008 7997 7996 7995 ] final  -71.81 input   59.86 | X-H torsion
[ 10167 10162 10161 10158 ] final -152.14 input  -65.29 | X-H torsion
[ 10718 10713 10712 10709 ] final   13.44 input   66.30 | X-H torsion
[ 10763 10752 10751 10750 ] final -152.69 input  -60.55 | X-H torsion
[ 11005 11000 10999 10996 ] final  131.88 input  -57.11 | X-H torsion

> <Gold.Protein.ActiveResidues>
 VAL166  LYS551  ARG553  GLY616  TRP617  ASP618  TYR619  PRO620  LYS621  CYS622 
 ASP623  PHE694  ASN695  SER759  ASP760  ASP761  ALA762  ILE779  LEU786  VAL792 
 PHE793  MET794  SER795  GLU796  ALA797  LYS798  CYS799  TRP800  GLU811  SER814 

> <Gold.Protein.RotatedAtoms>
  151.0458  133.5667  159.2646 H   0  0  0  0  0  0  0  0  0  0  0  0  # atno 6907 bound_to 6896
  151.2696  135.0679  159.9139 H   0  0  0  0  0  0  0  0  0  0  0  0  # atno 6908 bound_to 6896
  152.5373  134.0190  159.8027 H   0  0  0  0  0  0  0  0  0  0  0  0  # atno 6909 bound_to 6896
  146.1705  140.4408  142.8534 H   0  0  0  0  0  0  0  0  0  0  0  0  # atno 7974 bound_to 7965
  154.5116  140.0809  156.8001 H   0  0  0  0  0  0  0  0  0  0  0  0  # atno 8008 bound_to 7997
  155.3772  140.3426  155.4227 H   0  0  0  0  0  0  0  0  0  0  0  0  # atno 8009 bound_to 7997
  156.1580  140.1579  156.8647 H   0  0  0  0  0  0  0  0  0  0  0  0  # atno 8010 bound_to 7997
  139.7207  143.8962  152.2502 H   0  0  0  0  0  0  0  0  0  0  0  0  # atno 10167 bound_to 10162
  157.0247  130.6169  149.5726 H   0  0  0  0  0  0  0  0  0  0  0  0  # atno 10718 bound_to 10713
  154.7977  135.3230  154.7626 H   0  0  0  0  0  0  0  0  0  0  0  0  # atno 10763 bound_to 10752
  153.8301  135.6880  153.4820 H   0  0  0  0  0  0  0  0  0  0  0  0  # atno 10764 bound_to 10752
  153.1677  135.4635  154.9802 H   0  0  0  0  0  0  0  0  0  0  0  0  # atno 10765 bound_to 10752
  139.9756  134.9564  156.9502 H   0  0  0  0  0  0  0  0  0  0  0  0  # atno 11005 bound_to 11000
  144.8156  140.6462  143.6386 LP  0  0  0  0  0  0  0  0  0  0  0  0  # atno 17320 bound_to 7965
  145.4352  139.1543  143.4000 LP  0  0  0  0  0  0  0  0  0  0  0  0  # atno 17321 bound_to 7965
  139.8857  144.6993  150.8827 LP  0  0  0  0  0  0  0  0  0  0  0  0  # atno 17342 bound_to 10162
  140.7753  143.3626  151.1800 LP  0  0  0  0  0  0  0  0  0  0  0  0  # atno 17343 bound_to 10162
  156.0090  130.5180  150.7926 LP  0  0  0  0  0  0  0  0  0  0  0  0  # atno 17370 bound_to 10713
  157.5223  131.0932  151.0063 LP  0  0  0  0  0  0  0  0  0  0  0  0  # atno 17371 bound_to 10713
  140.5201  134.0916  155.7290 LP  0  0  0  0  0  0  0  0  0  0  0  0  # atno 17394 bound_to 11000
  141.1433  133.9099  157.2274 LP  0  0  0  0  0  0  0  0  0  0  0  0  # atno 17395 bound_to 11000

$$$$
