AV-unprocessed.smi:2143|AV-procd|sdf|8727|dock3
  -GOLD-   2272011493D 1   1.00000     0.00000
 Structure written by MMmdl.
 44 45  0  0  0  0  0  0  0  0  1 V2000
  151.8495  145.3190  160.4688 C   0  0  0  0  0  0  0  0  0  0  0  0
  152.4229  143.9951  159.9299 C   0  0  1  0  0  0  0  0  0  0  0  0
  152.5487  142.9826  161.0858 C   0  0  0  0  0  0  0  0  0  0  0  0
  153.1462  141.6517  160.6171 C   0  0  0  0  0  0  0  0  0  0  0  0
  152.3049  141.0518  159.4871 C   0  0  0  0  0  0  0  0  0  0  0  0
  152.1729  142.0318  158.3048 C   0  0  1  0  0  0  0  0  0  0  0  0
  151.3307  141.4296  157.2724 N   0  0  0  0  0  0  0  0  0  0  0  0
  151.6361  140.3344  156.5601 C   0  0  0  0  0  0  0  0  0  0  0  0
  152.6924  139.7146  156.6923 O   0  0  0  0  0  0  0  0  0  0  0  0
  150.5900  139.8880  155.5299 C   0  0  0  0  0  0  0  0  0  0  0  0
  149.2449  140.4011  155.8207 N   0  0  0  0  0  0  0  0  0  0  0  0
  148.6470  140.1099  157.0330 C   0  0  0  0  0  0  0  0  0  0  0  0
  147.4224  140.5579  157.3861 C   0  0  0  0  0  0  0  0  0  0  0  0
  146.6413  141.3939  156.4827 C   0  0  0  0  0  0  0  0  0  0  0  0
  145.5303  141.8388  156.7730 O   0  0  0  0  0  0  0  0  0  0  0  0
  147.2701  141.6644  155.2434 N   0  0  0  0  0  0  0  0  0  0  0  0
  146.5828  142.5038  154.2839 C   0  0  0  0  0  0  0  0  0  0  0  0
  148.5573  141.2054  154.8865 C   0  0  0  0  0  0  0  0  0  0  0  0
  149.0757  141.4947  153.8050 O   0  0  0  0  0  0  0  0  0  0  0  0
  151.5957  143.4024  158.7532 C   0  0  2  0  0  0  0  0  0  0  0  0
  151.5027  144.3816  157.5623 C   0  0  0  0  0  0  0  0  0  0  0  0
  150.8087  145.2056  160.7731 H   0  0  0  0  0  0  0  0  0  0  0  0
  151.9007  146.1168  159.7288 H   0  0  0  0  0  0  0  0  0  0  0  0
  152.4114  145.6633  161.3375 H   0  0  0  0  0  0  0  0  0  0  0  0
  153.4298  144.2012  159.5633 H   0  0  0  0  0  0  0  0  0  0  0  0
  153.1732  143.3963  161.8784 H   0  0  0  0  0  0  0  0  0  0  0  0
  151.5678  142.8046  161.5291 H   0  0  0  0  0  0  0  0  0  0  0  0
  154.1704  141.8052  160.2744 H   0  0  0  0  0  0  0  0  0  0  0  0
  153.1988  140.9530  161.4524 H   0  0  0  0  0  0  0  0  0  0  0  0
  152.7596  140.1178  159.1549 H   0  0  0  0  0  0  0  0  0  0  0  0
  151.3153  140.7945  159.8679 H   0  0  0  0  0  0  0  0  0  0  0  0
  153.1677  142.2090  157.8909 H   0  0  0  0  0  0  0  0  0  0  0  0
  150.4439  141.8778  157.0925 H   0  0  0  0  0  0  0  0  0  0  0  0
  150.8982  140.1977  154.5294 H   0  0  0  0  0  0  0  0  0  0  0  0
  150.5771  138.7974  155.5097 H   0  0  0  0  0  0  0  0  0  0  0  0
  149.1876  139.4973  157.7399 H   0  0  0  0  0  0  0  0  0  0  0  0
  147.0164  140.2970  158.3525 H   0  0  0  0  0  0  0  0  0  0  0  0
  146.7116  142.0694  153.2909 H   0  0  0  0  0  0  0  0  0  0  0  0
  147.0357  143.4943  154.3486 H   0  0  0  0  0  0  0  0  0  0  0  0
  145.5159  142.5449  154.5026 H   0  0  0  0  0  0  0  0  0  0  0  0
  150.5803  143.2318  159.1153 H   0  0  0  0  0  0  0  0  0  0  0  0
  152.4927  144.6368  157.1839 H   0  0  0  0  0  0  0  0  0  0  0  0
  151.0004  145.3078  157.8378 H   0  0  0  0  0  0  0  0  0  0  0  0
  150.9314  143.9632  156.7339 H   0  0  0  0  0  0  0  0  0  0  0  0
  1  2  1  0  0  0  0
  1 22  1  0  0  0  0
  1 23  1  0  0  0  0
  1 24  1  0  0  0  0
  2 20  1  0  0  0  0
  2  3  1  0  0  0  0
  2 25  1  0  0  0  0
  3  4  1  0  0  0  0
  3 26  1  0  0  0  0
  3 27  1  0  0  0  0
  4  5  1  0  0  0  0
  4 28  1  0  0  0  0
  4 29  1  0  0  0  0
  5  6  1  0  0  0  0
  5 30  1  0  0  0  0
  5 31  1  0  0  0  0
  6  7  1  0  0  0  0
  6 20  1  0  0  0  0
  6 32  1  0  0  0  0
  7  8  1  0  0  0  0
  7 33  1  0  0  0  0
  8  9  2  0  0  0  0
  8 10  1  0  0  0  0
 10 11  1  0  0  0  0
 10 34  1  0  0  0  0
 10 35  1  0  0  0  0
 11 18  1  0  0  0  0
 11 12  1  0  0  0  0
 12 13  2  0  0  0  0
 12 36  1  0  0  0  0
 13 14  1  0  0  0  0
 13 37  1  0  0  0  0
 14 15  2  0  0  0  0
 14 16  1  0  0  0  0
 16 17  1  0  0  0  0
 16 18  1  0  0  0  0
 17 38  1  0  0  0  0
 17 39  1  0  0  0  0
 17 40  1  0  0  0  0
 18 19  2  0  0  0  0
 20 21  1  0  0  0  0
 20 41  1  0  0  0  0
 21 42  1  0  0  0  0
 21 43  1  0  0  0  0
 21 44  1  0  0  0  0
M  END
> <s_m_source_file>
AV-unprocessed.smi

> <i_m_source_file_index>
2143

> <i_lp_mmshare_version>
43012

> <i_f3d_flags>
0

> <s_epik_input>
W0NIM11bQ0BASF0xW0NIMl1bQ0gyXVtDSDJdW0NASF0oW0NASF0xW0NIM10pW05IXUMoPU8pW0NIMl1uMltjSF1bY0hdYyg9TyluKFtDSDNdKWMyPU8=

> <s_epik_cmdline>
J2VwaWtfcHl0aG9uJywgJy1waCcsICc3LjAnLCAnLXRuJywgJzgnLCAnLW1hJywgJzIwMCcsICctbWV0YWxfYmluZGluZycsICctaW1hZScsICc8aW5maWxlLm1hZT4nLCAnLW9tYWUnLCAnPG91dGZpbGUubWFlPic=

> <r_lp_tautomer_probability>
1

> <r_epik_Ionization_Penalty>
3.18445e-08

> <r_epik_Ionization_Penalty_Charging>
1.27977e-08

> <r_epik_Ionization_Penalty_Neutral>
1.90469e-08

> <r_epik_State_Penalty>
-0

> <r_epik_Charging_Adjusted_Penalty>
1.27977e-08

> <i_epik_Tot_Q>
0

> <i_epik_Tot_abs_Q>
0

> <r_epik_Metal_State_Penalty>
-0

> <b_epik_Metal_Only>
0

> <s_lp_Force_Field>
OPLS_2005

> <r_lp_Energy>
20.3985

> <b_lp_Chiralities_Consistent>
1

> <s_lp_Variant>
AV-unprocessed.smi:2143-6

> <Gold.Version>
5.8.1

> <Gold.Id.Protein>
6NUR|6NUR_protein|mol2

> <Gold.PLP.Fitness>
49.8622

> <Gold.PLP.PLP>
-45.2522

> <Gold.PLP.part.hbond>
-3.0000

> <Gold.PLP.part.metal>
0.0000

> <Gold.PLP.part.buried>
-6.6465

> <Gold.PLP.part.nonpolar>
-37.3161

> <Gold.PLP.part.repulsive>
1.2879

> <Gold.PLP.ligand.clash>
0.0000

> <Gold.PLP.ligand.torsion>
0.3524

> <Gold.PLP.Chemscore.Hbond>
1.7680

> <Gold.PLP.Chemscore.CHOScore>
0.0000

> <Gold.PLP.Chemscore.Metal>
0.0000

> <Gold.Chemscore.Hbonds>
donor molecule, donor type, donor heavy atom, donor atom, acceptor molecule, acceptor atom, score
      P1  H  7997  8009       L1     9  1.00
      P1  H  8011  8017       L1    19  0.74

> <Gold.PLP.Chemscore.Internal.Correction>
0.0108

> <Gold.Rescore>
     Score         DG    S(hbond)    S(metal)    S(lipo)     H(rot)  DE(clash)    DE(int)     intcor
     19.51     -20.17       1.82        0.00     106.85       1.51       0.23       0.43       ----

> <Gold.Chemscore.Fitness>
19.5098

> <Gold.Chemscore.DG>
-20.1726

> <Gold.Chemscore.ZeroCoef>
-5.4800

> <Gold.Chemscore.Hbond>
1.8157

> <Gold.Chemscore.Metal>
0.0000

> <Gold.Chemscore.Lipo>
106.8526

> <Gold.Chemscore.Internal_Hbond>
0.0000

> <Gold.Chemscore.DEClash>
0.2292

> <Gold.Chemscore.DEInternal>
0.4336

> <Gold.Chemscore.Rot>
1.5131

> <Gold.Chemscore.Internal.Correction>
   9.000000E+99

> <Gold.Chemscore.Hbonds>
donor molecule, donor type, donor heavy atom, donor atom, acceptor molecule, acceptor atom, score
      P1  H  7997  8009       L1     9  1.00
      P1  H  8011  8017       L1    19  0.74

> <Gold.Chemscore.Hbond.Weighted>
-6.0643

> <Gold.Chemscore.Metal.Weighted>
-0.0000

> <Gold.Chemscore.Lipo.Weighted>
-12.5018

> <Gold.Chemscore.Internal_Hbond.Weighted>
0.0000

> <Gold.Chemscore.DEClash.Weighted>
0.2292

> <Gold.Chemscore.DEInternal.Weighted>
0.4336

> <Gold.Chemscore.Rot.Weighted>
3.8734

> <Gold.Chemscore.Internal.Correction.Weighted>
   9.000000E+99

> <Gold.Protein.RotatedTorsions>
[ 6907 6896 6895 6894 ] final  -59.53 input  -60.11 | X-H torsion
[ 7974 7965 7964 7962 ] final -173.45 input  175.53 | X-H torsion
[ 8008 7997 7996 7995 ] final -165.11 input   59.86 | X-H torsion
[ 10167 10162 10161 10158 ] final -154.54 input  -65.29 | X-H torsion
[ 10718 10713 10712 10709 ] final  -56.43 input   66.30 | X-H torsion
[ 10763 10752 10751 10750 ] final  -53.36 input  -60.55 | X-H torsion
[ 11005 11000 10999 10996 ] final  -62.82 input  -57.11 | X-H torsion

> <Gold.Protein.ActiveResidues>
 VAL166  LYS551  ARG553  GLY616  TRP617  ASP618  TYR619  PRO620  LYS621  CYS622 
 ASP623  PHE694  ASN695  SER759  ASP760  ASP761  ALA762  ILE779  LEU786  VAL792 
 PHE793  MET794  SER795  GLU796  ALA797  LYS798  CYS799  TRP800  GLU811  SER814 

> <Gold.Protein.RotatedAtoms>
  150.7923  134.6956  159.6520 H   0  0  0  0  0  0  0  0  0  0  0  0  # atno 6907 bound_to 6896
  152.4031  134.6250  160.0070 H   0  0  0  0  0  0  0  0  0  0  0  0  # atno 6908 bound_to 6896
  151.6516  133.3284  159.3189 H   0  0  0  0  0  0  0  0  0  0  0  0  # atno 6909 bound_to 6896
  144.7138  140.1620  143.6375 H   0  0  0  0  0  0  0  0  0  0  0  0  # atno 7974 bound_to 7965
  155.8452  140.0954  157.1709 H   0  0  0  0  0  0  0  0  0  0  0  0  # atno 8008 bound_to 7997
  154.3983  140.1393  156.3839 H   0  0  0  0  0  0  0  0  0  0  0  0  # atno 8009 bound_to 7997
  155.8021  140.3452  155.5411 H   0  0  0  0  0  0  0  0  0  0  0  0  # atno 8010 bound_to 7997
  139.7005  143.9272  152.2426 H   0  0  0  0  0  0  0  0  0  0  0  0  # atno 10167 bound_to 10162
  156.1289  130.4161  150.0305 H   0  0  0  0  0  0  0  0  0  0  0  0  # atno 10718 bound_to 10713
  154.1576  135.6480  153.4978 H   0  0  0  0  0  0  0  0  0  0  0  0  # atno 10763 bound_to 10752
  153.0119  135.5353  154.6743 H   0  0  0  0  0  0  0  0  0  0  0  0  # atno 10764 bound_to 10752
  154.6048  135.2947  155.0468 H   0  0  0  0  0  0  0  0  0  0  0  0  # atno 10765 bound_to 10752
  141.1372  133.6644  156.5586 H   0  0  0  0  0  0  0  0  0  0  0  0  # atno 11005 bound_to 11000
  145.9021  139.2437  143.1487 LP  0  0  0  0  0  0  0  0  0  0  0  0  # atno 17320 bound_to 7965
  145.9800  140.8690  143.0119 LP  0  0  0  0  0  0  0  0  0  0  0  0  # atno 17321 bound_to 7965
  139.9113  144.6855  150.8560 LP  0  0  0  0  0  0  0  0  0  0  0  0  # atno 17342 bound_to 10162
  140.7708  143.3441  151.2146 LP  0  0  0  0  0  0  0  0  0  0  0  0  # atno 17343 bound_to 10162
  156.8223  130.9363  151.3641 LP  0  0  0  0  0  0  0  0  0  0  0  0  # atno 17370 bound_to 10713
  157.6468  130.8851  149.9555 LP  0  0  0  0  0  0  0  0  0  0  0  0  # atno 17371 bound_to 10713
  140.4007  134.7359  157.4778 LP  0  0  0  0  0  0  0  0  0  0  0  0  # atno 17394 bound_to 11000
  140.0498  134.6146  155.8875 LP  0  0  0  0  0  0  0  0  0  0  0  0  # atno 17395 bound_to 11000

$$$$
