AV-unprocessed.smi:154|AV-procd|sdf|1266|dock10
  -GOLD-   2262018523D 1   1.00000     0.00000
 Structure written by MMmdl.
 53 57  0  0  0  0  0  0  0  0  1 V2000
  146.8614  135.3080  153.6461 O   0  0  0  0  0  0  0  0  0  0  0  0
  145.7299  134.4782  153.4445 C   0  0  0  0  0  0  0  0  0  0  0  0
  145.8968  133.2285  154.3446 C   0  0  0  0  0  0  0  0  0  0  0  0
  145.9418  133.5297  155.7678 N   0  0  0  0  0  0  0  0  0  0  0  0
  144.8854  133.5161  156.6460 C   0  0  0  0  0  0  0  0  0  0  0  0
  145.1859  133.8308  157.8746 N   0  0  0  0  0  0  0  0  0  0  0  0
  146.5560  134.0774  157.8571 C   0  0  0  0  0  0  0  0  0  0  0  0
  147.5296  134.4731  158.8301 C   0  0  0  0  0  0  0  0  0  0  0  0
  147.3010  134.7094  160.1567 N   0  0  0  0  0  0  0  0  0  0  0  0
  146.7777  136.0105  160.5839 C   0  0  2  0  0  0  0  0  0  0  0  0
  147.4436  136.4308  161.9148 C   0  0  0  0  0  0  0  0  0  0  0  0
  147.4345  135.3479  163.0117 C   0  0  0  0  0  0  0  0  0  0  0  0
  147.6600  133.9281  162.4566 C   0  0  0  0  0  0  0  0  0  0  0  0
  146.9674  133.6465  161.1031 C   0  0  1  0  0  0  0  0  0  0  0  0
  145.4288  133.4598  161.1659 C   0  0  0  0  0  0  0  0  0  0  0  0
  144.6275  134.7685  161.3546 C   0  0  0  0  0  0  0  0  0  0  0  0
  143.3861  134.5681  160.9116 F   0  0  0  0  0  0  0  0  0  0  0  0
  144.5192  135.0635  162.6461 F   0  0  0  0  0  0  0  0  0  0  0  0
  145.2314  135.9631  160.5828 C   0  0  0  0  0  0  0  0  0  0  0  0
  148.8092  134.6050  158.3884 N   0  0  0  0  0  0  0  0  0  0  0  0
  149.1268  134.3861  157.1110 C   0  0  0  0  0  0  0  0  0  0  0  0
  148.3300  134.0260  156.1068 N   0  0  0  0  0  0  0  0  0  0  0  0
  147.0425  133.8826  156.5291 C   0  0  0  0  0  0  0  0  0  0  0  0
  144.4688  135.2691  153.8477 C   0  0  0  0  0  0  0  0  0  0  0  0
  144.1720  136.4245  152.8753 C   0  0  0  0  0  0  0  0  0  0  0  0
  144.0656  135.9270  151.5470 O   0  0  0  0  0  0  0  0  0  0  0  0
  145.2769  135.3453  151.0806 C   0  0  0  0  0  0  0  0  0  0  0  0
  145.6461  134.1252  151.9430 C   0  0  0  0  0  0  0  0  0  0  0  0
  147.3197  135.3960  152.8245 H   0  0  0  0  0  0  0  0  0  0  0  0
  145.0839  132.5222  154.1701 H   0  0  0  0  0  0  0  0  0  0  0  0
  146.8148  132.7009  154.0826 H   0  0  0  0  0  0  0  0  0  0  0  0
  143.8777  133.2711  156.3437 H   0  0  0  0  0  0  0  0  0  0  0  0
  147.0507  136.7912  159.8750 H   0  0  0  0  0  0  0  0  0  0  0  0
  148.4846  136.6739  161.6981 H   0  0  0  0  0  0  0  0  0  0  0  0
  146.9974  137.3515  162.2915 H   0  0  0  0  0  0  0  0  0  0  0  0
  148.2123  135.5735  163.7418 H   0  0  0  0  0  0  0  0  0  0  0  0
  146.5178  135.3914  163.5895 H   0  0  0  0  0  0  0  0  0  0  0  0
  148.7331  133.7951  162.3121 H   0  0  0  0  0  0  0  0  0  0  0  0
  147.3677  133.1838  163.1979 H   0  0  0  0  0  0  0  0  0  0  0  0
  147.4049  132.7088  160.7676 H   0  0  0  0  0  0  0  0  0  0  0  0
  145.1076  133.0167  160.2239 H   0  0  0  0  0  0  0  0  0  0  0  0
  145.1598  132.7333  161.9331 H   0  0  0  0  0  0  0  0  0  0  0  0
  144.8154  136.9028  160.9474 H   0  0  0  0  0  0  0  0  0  0  0  0
  144.9132  135.8857  159.5419 H   0  0  0  0  0  0  0  0  0  0  0  0
  150.1684  134.5184  156.8584 H   0  0  0  0  0  0  0  0  0  0  0  0
  143.6090  134.5979  153.8540 H   0  0  0  0  0  0  0  0  0  0  0  0
  144.5636  135.6511  154.8651 H   0  0  0  0  0  0  0  0  0  0  0  0
  143.2312  136.9042  153.1451 H   0  0  0  0  0  0  0  0  0  0  0  0
  144.9439  137.1939  152.9287 H   0  0  0  0  0  0  0  0  0  0  0  0
  145.1411  135.0392  150.0432 H   0  0  0  0  0  0  0  0  0  0  0  0
  146.0766  136.0875  151.0875 H   0  0  0  0  0  0  0  0  0  0  0  0
  146.5858  133.6994  151.5890 H   0  0  0  0  0  0  0  0  0  0  0  0
  144.8867  133.3561  151.7972 H   0  0  0  0  0  0  0  0  0  0  0  0
  1  2  1  0  0  0  0
  1 29  1  0  0  0  0
  2 28  1  0  0  0  0
  2  3  1  0  0  0  0
  2 24  1  0  0  0  0
  3  4  1  0  0  0  0
  3 30  1  0  0  0  0
  3 31  1  0  0  0  0
  4 23  1  0  0  0  0
  4  5  1  0  0  0  0
  5  6  2  0  0  0  0
  5 32  1  0  0  0  0
  6  7  1  0  0  0  0
  7 23  2  0  0  0  0
  7  8  1  0  0  0  0
  8  9  1  0  0  0  0
  8 20  2  0  0  0  0
  9 14  1  0  0  0  0
  9 10  1  0  0  0  0
 10 19  1  0  0  0  0
 10 11  1  0  0  0  0
 10 33  1  0  0  0  0
 11 12  1  0  0  0  0
 11 34  1  0  0  0  0
 11 35  1  0  0  0  0
 12 13  1  0  0  0  0
 12 36  1  0  0  0  0
 12 37  1  0  0  0  0
 13 14  1  0  0  0  0
 13 38  1  0  0  0  0
 13 39  1  0  0  0  0
 14 15  1  0  0  0  0
 14 40  1  0  0  0  0
 15 16  1  0  0  0  0
 15 41  1  0  0  0  0
 15 42  1  0  0  0  0
 16 17  1  0  0  0  0
 16 18  1  0  0  0  0
 16 19  1  0  0  0  0
 19 43  1  0  0  0  0
 19 44  1  0  0  0  0
 20 21  1  0  0  0  0
 21 22  2  0  0  0  0
 21 45  1  0  0  0  0
 22 23  1  0  0  0  0
 24 25  1  0  0  0  0
 24 46  1  0  0  0  0
 24 47  1  0  0  0  0
 25 26  1  0  0  0  0
 25 48  1  0  0  0  0
 25 49  1  0  0  0  0
 26 27  1  0  0  0  0
 27 28  1  0  0  0  0
 27 50  1  0  0  0  0
 27 51  1  0  0  0  0
 28 52  1  0  0  0  0
 28 53  1  0  0  0  0
M  END
> <s_m_source_file>
AV-unprocessed.smi

> <i_m_source_file_index>
154

> <i_lp_mmshare_version>
43012

> <i_f3d_flags>
0

> <s_epik_input>
W0NIMl0xW0NIMl1PW0NIMl1bQ0gyXUMxKFtPSF0pW0NIMl1uKFtjSF1uMiljKGMyMyluW2NIXW5jM04oW0NAQEhdNDUpW0NIXShbQ0gyXVtDSDJdW0NIMl00KVtDSDJdQyhGKShGKVtDSDJdNQ==

> <s_epik_cmdline>
J2VwaWtfcHl0aG9uJywgJy1waCcsICc3LjAnLCAnLXRuJywgJzgnLCAnLW1hJywgJzIwMCcsICctbWV0YWxfYmluZGluZycsICctaW1hZScsICc8aW5maWxlLm1hZT4nLCAnLW9tYWUnLCAnPG91dGZpbGUubWFlPic=

> <r_lp_tautomer_probability>
1

> <r_epik_Ionization_Penalty>
0.00333769

> <r_epik_Ionization_Penalty_Charging>
0

> <r_epik_Ionization_Penalty_Neutral>
0.00333769

> <r_epik_State_Penalty>
0.0022021

> <r_epik_Charging_Adjusted_Penalty>
0.0022021

> <i_epik_Tot_Q>
0

> <i_epik_Tot_abs_Q>
0

> <r_epik_Metal_State_Penalty>
-0

> <b_epik_Metal_Only>
0

> <s_lp_Force_Field>
OPLS_2005

> <r_lp_Energy>
50.9218

> <b_lp_Chiralities_Consistent>
1

> <s_lp_Variant>
AV-unprocessed.smi:154-1

> <Gold.Version>
5.8.1

> <Gold.Id.Protein>
6NUR|6NUR_protein|mol2

> <Gold.PLP.Fitness>
37.8411

> <Gold.PLP.PLP>
-32.1783

> <Gold.PLP.part.hbond>
-2.0000

> <Gold.PLP.part.metal>
0.0000

> <Gold.PLP.part.buried>
-5.9027

> <Gold.PLP.part.nonpolar>
-24.3257

> <Gold.PLP.part.repulsive>
0.2348

> <Gold.PLP.ligand.clash>
0.0000

> <Gold.PLP.ligand.torsion>
1.7603

> <Gold.PLP.Chemscore.Hbond>
2.0000

> <Gold.PLP.Chemscore.CHOScore>
1.0000

> <Gold.PLP.Chemscore.Metal>
0.0000

> <Gold.Chemscore.Hbonds>
donor molecule, donor type, donor heavy atom, donor atom, acceptor molecule, acceptor atom, score
      L1  H     1    29       P1  7948  0.87
      P1  H  6896  6907       L1    20  0.78
      L1  C     5    32       P1 10957  1.00

> <Gold.PLP.Chemscore.Internal.Correction>
0.1835

> <Gold.Rescore>
     Score         DG    S(hbond)    S(metal)    S(lipo)     H(rot)  DE(clash)    DE(int)     intcor
     13.77     -15.66       1.84        0.00      73.51       1.78       0.11       1.78       ----

> <Gold.Chemscore.Fitness>
13.7715

> <Gold.Chemscore.DG>
-15.6621

> <Gold.Chemscore.ZeroCoef>
-5.4800

> <Gold.Chemscore.Hbond>
1.8414

> <Gold.Chemscore.Metal>
0.0000

> <Gold.Chemscore.Lipo>
73.5064

> <Gold.Chemscore.Internal_Hbond>
0.0000

> <Gold.Chemscore.DEClash>
0.1115

> <Gold.Chemscore.DEInternal>
1.7791

> <Gold.Chemscore.Rot>
1.7845

> <Gold.Chemscore.Internal.Correction>
   9.000000E+99

> <Gold.Chemscore.Hbonds>
donor molecule, donor type, donor heavy atom, donor atom, acceptor molecule, acceptor atom, score
      L1  H     1    29       P1  7948  0.82
      P1  H  6896  6907       L1    20  0.34

> <Gold.Chemscore.Hbond.Weighted>
-6.1503

> <Gold.Chemscore.Metal.Weighted>
-0.0000

> <Gold.Chemscore.Lipo.Weighted>
-8.6002

> <Gold.Chemscore.Internal_Hbond.Weighted>
0.0000

> <Gold.Chemscore.DEClash.Weighted>
0.1115

> <Gold.Chemscore.DEInternal.Weighted>
1.7791

> <Gold.Chemscore.Rot.Weighted>
4.5684

> <Gold.Chemscore.Internal.Correction.Weighted>
   9.000000E+99

> <Gold.Protein.RotatedTorsions>
[ 6907 6896 6895 6894 ] final  -87.54 input  -60.11 | X-H torsion
[ 7974 7965 7964 7962 ] final   49.66 input  175.53 | X-H torsion
[ 8008 7997 7996 7995 ] final -156.19 input   59.86 | X-H torsion
[ 10167 10162 10161 10158 ] final   44.66 input  -65.29 | X-H torsion
[ 10718 10713 10712 10709 ] final  -85.97 input   66.30 | X-H torsion
[ 10763 10752 10751 10750 ] final   81.58 input  -60.55 | X-H torsion
[ 11005 11000 10999 10996 ] final  134.88 input  -57.11 | X-H torsion

> <Gold.Protein.ActiveResidues>
 VAL166  LYS551  ARG553  GLY616  TRP617  ASP618  TYR619  PRO620  LYS621  CYS622 
 ASP623  PHE694  ASN695  SER759  ASP760  ASP761  ALA762  ILE779  LEU786  VAL792 
 PHE793  MET794  SER795  GLU796  ALA797  LYS798  CYS799  TRP800  GLU811  SER814 

> <Gold.Protein.RotatedAtoms>
  150.6866  134.2880  159.4654 H   0  0  0  0  0  0  0  0  0  0  0  0  # atno 6907 bound_to 6896
  152.0787  134.9483  160.0583 H   0  0  0  0  0  0  0  0  0  0  0  0  # atno 6908 bound_to 6896
  152.0844  133.4134  159.4552 H   0  0  0  0  0  0  0  0  0  0  0  0  # atno 6909 bound_to 6896
  146.0087  139.4519  142.9969 H   0  0  0  0  0  0  0  0  0  0  0  0  # atno 7974 bound_to 7965
  155.7134  140.0781  157.2362 H   0  0  0  0  0  0  0  0  0  0  0  0  # atno 8008 bound_to 7997
  154.4055  140.1626  156.2375 H   0  0  0  0  0  0  0  0  0  0  0  0  # atno 8009 bound_to 7997
  155.9262  140.3394  155.6215 H   0  0  0  0  0  0  0  0  0  0  0  0  # atno 8010 bound_to 7997
  140.3321  144.2576  150.6166 H   0  0  0  0  0  0  0  0  0  0  0  0  # atno 10167 bound_to 10162
  155.9993  130.4749  150.4644 H   0  0  0  0  0  0  0  0  0  0  0  0  # atno 10718 bound_to 10713
  153.1129  135.4760  154.9065 H   0  0  0  0  0  0  0  0  0  0  0  0  # atno 10763 bound_to 10752
  154.7499  135.3103  154.8580 H   0  0  0  0  0  0  0  0  0  0  0  0  # atno 10764 bound_to 10752
  153.9164  135.6859  153.4802 H   0  0  0  0  0  0  0  0  0  0  0  0  # atno 10765 bound_to 10752
  139.9943  134.9503  156.9928 H   0  0  0  0  0  0  0  0  0  0  0  0  # atno 11005 bound_to 11000
  145.7375  141.0020  143.1319 LP  0  0  0  0  0  0  0  0  0  0  0  0  # atno 17320 bound_to 7965
  144.6945  139.9059  143.7461 LP  0  0  0  0  0  0  0  0  0  0  0  0  # atno 17321 bound_to 7965
  140.5388  143.2228  151.8119 LP  0  0  0  0  0  0  0  0  0  0  0  0  # atno 17342 bound_to 10162
  139.4855  144.4627  151.9521 LP  0  0  0  0  0  0  0  0  0  0  0  0  # atno 17343 bound_to 10162
  157.2665  131.0578  151.2287 LP  0  0  0  0  0  0  0  0  0  0  0  0  # atno 17370 bound_to 10713
  157.3383  130.7020  149.6366 LP  0  0  0  0  0  0  0  0  0  0  0  0  # atno 17371 bound_to 10713
  140.4848  134.1253  155.7222 LP  0  0  0  0  0  0  0  0  0  0  0  0  # atno 17394 bound_to 11000
  141.1592  133.8826  157.1895 LP  0  0  0  0  0  0  0  0  0  0  0  0  # atno 17395 bound_to 11000

$$$$
