AV-unprocessed.smi:45|AV-procd|sdf|411|dock8
  -GOLD-   2262016273D 1   1.00000     0.00000
 Structure written by MMmdl.
 61 64  0  0  0  0  0  0  0  0  2 V2000
  149.2617  128.8887  153.2459 C   0  0  0  0  0  0  0  0  0  0  0  0
  150.1510  129.5190  154.1561 O   0  0  0  0  0  0  0  0  0  0  0  0
  149.9873  130.8667  154.4012 C   0  0  0  0  0  0  0  0  0  0  0  0
  148.9966  131.6670  153.7771 C   0  0  0  0  0  0  0  0  0  0  0  0
  148.8908  133.0390  154.0760 C   0  0  0  0  0  0  0  0  0  0  0  0
  149.7708  133.6335  155.0010 C   0  0  0  0  0  0  0  0  0  0  0  0
  149.6658  135.1115  155.3144 C   0  0  0  0  0  0  0  0  0  0  0  0
  148.4620  135.7187  154.7672 N   0  0  0  0  0  0  0  0  0  0  0  0
  147.4061  136.1278  155.5975 C   0  0  0  0  0  0  0  0  0  0  0  0
  147.5270  135.9225  156.9360 N   0  3  0  0  0  0  0  0  0  0  0  0
  146.5448  136.2758  157.7807 C   0  0  0  0  0  0  0  0  0  0  0  0
  146.7129  136.0500  159.1439 N   0  0  0  0  0  0  0  0  0  0  0  0
  148.0117  135.9152  159.7917 C   0  0  0  0  0  0  0  0  0  0  0  0
  147.7212  135.6988  161.2779 C   0  0  0  0  0  0  0  0  0  0  0  0
  146.3009  135.1377  161.2858 C   0  0  0  0  0  0  0  0  0  0  0  0
  145.6265  135.8346  160.0947 C   0  0  1  0  0  0  0  0  0  0  0  0
  144.9478  137.1637  160.4865 C   0  0  0  0  0  0  0  0  0  0  0  0
  145.8948  138.0427  161.0547 O   0  0  0  0  0  0  0  0  0  0  0  0
  145.4100  136.8438  157.3537 N   0  0  0  0  0  0  0  0  0  0  0  0
  145.2419  137.0712  156.0376 C   0  0  0  0  0  0  0  0  0  0  0  0
  146.2224  136.7222  155.0884 C   0  0  0  0  0  0  0  0  0  0  0  0
  146.0141  137.0257  153.6291 C   0  0  0  0  0  0  0  0  0  0  0  0
  145.8941  138.1837  153.2294 O   0  0  0  0  0  0  0  0  0  0  0  0
  145.9905  135.9558  152.8183 N   0  0  0  0  0  0  0  0  0  0  0  0
  145.7311  136.0066  151.3844 C   0  0  0  0  0  0  0  0  0  0  0  0
  145.4974  134.6273  150.7935 C   0  0  0  0  0  0  0  0  0  0  0  0
  144.3192  134.4151  150.1989 N   0  0  0  0  0  0  0  0  0  0  0  0
  144.1052  133.1824  149.6897 C   0  0  0  0  0  0  0  0  0  0  0  0
  145.0765  132.1647  149.7788 C   0  0  0  0  0  0  0  0  0  0  0  0
  146.2796  132.5057  150.4288 C   0  0  0  0  0  0  0  0  0  0  0  0
  146.4877  133.7397  150.9375 N   0  0  0  0  0  0  0  0  0  0  0  0
  150.7579  132.8459  155.6254 C   0  0  0  0  0  0  0  0  0  0  0  0
  150.8644  131.4730  155.3284 C   0  0  0  0  0  0  0  0  0  0  0  0
  152.0857  130.5358  156.1119 Cl  0  0  0  0  0  0  0  0  0  0  0  0
  144.8846  135.1656  159.6560 H   0  0  0  0  0  0  0  0  0  0  0  0
  149.5282  127.8360  153.1536 H   0  0  0  0  0  0  0  0  0  0  0  0
  149.3276  129.3329  152.2517 H   0  0  0  0  0  0  0  0  0  0  0  0
  148.2302  128.9380  153.5972 H   0  0  0  0  0  0  0  0  0  0  0  0
  148.3034  131.2518  153.0614 H   0  0  0  0  0  0  0  0  0  0  0  0
  148.1322  133.6335  153.5879 H   0  0  0  0  0  0  0  0  0  0  0  0
  149.6864  135.2543  156.3956 H   0  0  0  0  0  0  0  0  0  0  0  0
  150.5417  135.6179  154.9072 H   0  0  0  0  0  0  0  0  0  0  0  0
  148.4093  135.8818  153.7710 H   0  0  0  0  0  0  0  0  0  0  0  0
  148.5267  135.0496  159.3730 H   0  0  0  0  0  0  0  0  0  0  0  0
  148.6354  136.7949  159.6293 H   0  0  0  0  0  0  0  0  0  0  0  0
  148.4437  135.0378  161.7578 H   0  0  0  0  0  0  0  0  0  0  0  0
  147.7422  136.6549  161.8023 H   0  0  0  0  0  0  0  0  0  0  0  0
  146.3372  134.0624  161.1050 H   0  0  0  0  0  0  0  0  0  0  0  0
  145.7871  135.2934  162.2350 H   0  0  0  0  0  0  0  0  0  0  0  0
  144.4802  137.6400  159.6240 H   0  0  0  0  0  0  0  0  0  0  0  0
  144.1631  136.9981  161.2251 H   0  0  0  0  0  0  0  0  0  0  0  0
  145.8129  138.0100  161.9958 H   0  0  0  0  0  0  0  0  0  0  0  0
  144.3158  137.5465  155.7481 H   0  0  0  0  0  0  0  0  0  0  0  0
  146.1145  135.0391  153.2223 H   0  0  0  0  0  0  0  0  0  0  0  0
  144.8831  136.6626  151.1770 H   0  0  0  0  0  0  0  0  0  0  0  0
  146.5937  136.4580  150.8932 H   0  0  0  0  0  0  0  0  0  0  0  0
  143.1544  133.0072  149.2083 H   0  0  0  0  0  0  0  0  0  0  0  0
  144.9079  131.1787  149.3718 H   0  0  0  0  0  0  0  0  0  0  0  0
  147.0771  131.7863  150.5421 H   0  0  0  0  0  0  0  0  0  0  0  0
  151.4382  133.2961  156.3338 H   0  0  0  0  0  0  0  0  0  0  0  0
  148.3805  135.4942  157.2932 H   0  0  0  0  0  0  0  0  0  0  0  0
  1  2  1  0  0  0  0
  1 36  1  0  0  0  0
  1 37  1  0  0  0  0
  1 38  1  0  0  0  0
  2  3  1  0  0  0  0
  3 33  1  0  0  0  0
  3  4  2  0  0  0  0
  4  5  1  0  0  0  0
  4 39  1  0  0  0  0
  5  6  2  0  0  0  0
  5 40  1  0  0  0  0
  6  7  1  0  0  0  0
  6 32  1  0  0  0  0
  7  8  1  0  0  0  0
  7 41  1  0  0  0  0
  7 42  1  0  0  0  0
  8  9  1  0  0  0  0
  8 43  1  0  0  0  0
  9 21  1  0  0  0  0
  9 10  2  0  0  0  0
 10 11  1  0  0  0  0
 10 61  1  0  0  0  0
 11 12  1  0  0  0  0
 11 19  2  0  0  0  0
 12 16  1  0  0  0  0
 12 13  1  0  0  0  0
 13 14  1  0  0  0  0
 13 44  1  0  0  0  0
 13 45  1  0  0  0  0
 14 15  1  0  0  0  0
 14 46  1  0  0  0  0
 14 47  1  0  0  0  0
 15 16  1  0  0  0  0
 15 48  1  0  0  0  0
 15 49  1  0  0  0  0
 16 35  1  0  0  0  0
 16 17  1  0  0  0  0
 17 18  1  0  0  0  0
 17 50  1  0  0  0  0
 17 51  1  0  0  0  0
 18 52  1  0  0  0  0
 19 20  1  0  0  0  0
 20 21  2  0  0  0  0
 20 53  1  0  0  0  0
 21 22  1  0  0  0  0
 22 23  2  0  0  0  0
 22 24  1  0  0  0  0
 24 25  1  0  0  0  0
 24 54  1  0  0  0  0
 25 26  1  0  0  0  0
 25 55  1  0  0  0  0
 25 56  1  0  0  0  0
 26 31  1  0  0  0  0
 26 27  2  0  0  0  0
 27 28  1  0  0  0  0
 28 29  2  0  0  0  0
 28 57  1  0  0  0  0
 29 30  1  0  0  0  0
 29 58  1  0  0  0  0
 30 31  2  0  0  0  0
 30 59  1  0  0  0  0
 32 33  2  0  0  0  0
 32 60  1  0  0  0  0
 33 34  1  0  0  0  0
M  CHG  1  10   1
M  END
> <s_m_source_file>
AV-unprocessed.smi

> <i_m_source_file_index>
45

> <i_lp_mmshare_version>
43012

> <i_f3d_flags>
0

> <s_epik_input>
W0NIM11PYzFbY0hdW2NIXWMoW2NIXWMxQ2wpW0NIMl1bTkhdYzJuYyhOM1tDSDJdW0NIMl1bQ0gyXVtDQEhdM1tDSDJdW09IXSluW2NIXWMyQyg9TylbTkhdW0NIMl1jNG5bY0hdW2NIXVtjSF1uNA==

> <s_epik_cmdline>
J2VwaWtfcHl0aG9uJywgJy1waCcsICc3LjAnLCAnLXRuJywgJzgnLCAnLW1hJywgJzIwMCcsICctbWV0YWxfYmluZGluZycsICctaW1hZScsICc8aW5maWxlLm1hZT4nLCAnLW9tYWUnLCAnPG91dGZpbGUubWFlPic=

> <r_lp_tautomer_probability>
0.424989

> <r_epik_Ionization_Penalty>
2.31209

> <r_epik_Ionization_Penalty_Charging>
2.31199

> <r_epik_Ionization_Penalty_Neutral>
9.65277e-05

> <r_epik_State_Penalty>
2.29675

> <r_epik_Charging_Adjusted_Penalty>
4.60874

> <i_epik_Tot_Q>
1

> <i_epik_Tot_abs_Q>
1

> <r_epik_Metal_State_Penalty>
2.3404

> <b_epik_Metal_Only>
0

> <s_epik_Chemistry_Notes>
This compound contains an electron-poor aromatic ring that is susceptible to covalent hydrolysis at low pH, typically resulting in measured values for nitrogen ring protonation that are around two units higher than predicted values.

> <s_lp_Force_Field>
OPLS_2005

> <r_lp_Energy>
34.7273

> <b_lp_Chiralities_Consistent>
1

> <s_lp_Variant>
AV-unprocessed.smi:45-5

> <Gold.Version>
5.8.1

> <Gold.Id.Protein>
6NUR|6NUR_protein|mol2

> <Gold.PLP.Fitness>
55.5156

> <Gold.PLP.PLP>
-43.2567

> <Gold.PLP.part.hbond>
-2.5036

> <Gold.PLP.part.metal>
0.0000

> <Gold.PLP.part.buried>
-6.8888

> <Gold.PLP.part.nonpolar>
-34.7523

> <Gold.PLP.part.repulsive>
0.7794

> <Gold.PLP.ligand.clash>
0.6674

> <Gold.PLP.ligand.torsion>
1.6745

> <Gold.PLP.Chemscore.Hbond>
2.9440

> <Gold.PLP.Chemscore.CHOScore>
1.9339

> <Gold.PLP.Chemscore.Metal>
0.0000

> <Gold.Chemscore.Hbonds>
donor molecule, donor type, donor heavy atom, donor atom, acceptor molecule, acceptor atom, score
      L1  H     8    43       P1  7948  2.00
      P1  H  6934  6947       L1    18  0.88
      L1  C    28    57       P1 10186  0.79
      L1  C    30    59       P1 10747  1.00

> <Gold.PLP.Chemscore.Internal.Correction>
1.6415

> <Gold.Rescore>
     Score         DG    S(hbond)    S(metal)    S(lipo)     H(rot)  DE(clash)    DE(int)     intcor
     13.78     -16.75       1.82        0.00     108.78       2.94       0.04       2.93       ----

> <Gold.Chemscore.Fitness>
13.7751

> <Gold.Chemscore.DG>
-16.7518

> <Gold.Chemscore.ZeroCoef>
-5.4800

> <Gold.Chemscore.Hbond>
1.8171

> <Gold.Chemscore.Metal>
0.0000

> <Gold.Chemscore.Lipo>
108.7841

> <Gold.Chemscore.Internal_Hbond>
0.0000

> <Gold.Chemscore.DEClash>
0.0419

> <Gold.Chemscore.DEInternal>
2.9348

> <Gold.Chemscore.Rot>
2.9395

> <Gold.Chemscore.Internal.Correction>
   9.000000E+99

> <Gold.Chemscore.Hbonds>
donor molecule, donor type, donor heavy atom, donor atom, acceptor molecule, acceptor atom, score
      L1  H     8    43       P1  7948  0.96
      P1  H  6934  6947       L1    18  0.19

> <Gold.Chemscore.Hbond.Weighted>
-6.0692

> <Gold.Chemscore.Metal.Weighted>
-0.0000

> <Gold.Chemscore.Lipo.Weighted>
-12.7277

> <Gold.Chemscore.Internal_Hbond.Weighted>
0.0000

> <Gold.Chemscore.DEClash.Weighted>
0.0419

> <Gold.Chemscore.DEInternal.Weighted>
2.9348

> <Gold.Chemscore.Rot.Weighted>
7.5251

> <Gold.Chemscore.Internal.Correction.Weighted>
   9.000000E+99

> <Gold.Protein.RotatedTorsions>
[ 6907 6896 6895 6894 ] final   77.94 input  -60.11 | X-H torsion
[ 7974 7965 7964 7962 ] final  120.19 input  175.53 | X-H torsion
[ 8008 7997 7996 7995 ] final  -61.53 input   59.86 | X-H torsion
[ 10167 10162 10161 10158 ] final  168.69 input  -65.29 | X-H torsion
[ 10718 10713 10712 10709 ] final  -44.01 input   66.30 | X-H torsion
[ 10763 10752 10751 10750 ] final  -92.24 input  -60.55 | X-H torsion
[ 11005 11000 10999 10996 ] final   15.26 input  -57.11 | X-H torsion

> <Gold.Protein.ActiveResidues>
 VAL166  LYS551  ARG553  GLY616  TRP617  ASP618  TYR619  PRO620  LYS621  CYS622 
 ASP623  PHE694  ASN695  SER759  ASP760  ASP761  ALA762  ILE779  LEU786  VAL792 
 PHE793  MET794  SER795  GLU796  ALA797  LYS798  CYS799  TRP800  GLU811  SER814 

> <Gold.Protein.RotatedAtoms>
  152.5139  134.3740  159.9327 H   0  0  0  0  0  0  0  0  0  0  0  0  # atno 6907 bound_to 6896
  151.3695  133.3854  159.2706 H   0  0  0  0  0  0  0  0  0  0  0  0  # atno 6908 bound_to 6896
  150.9589  134.8999  159.7776 H   0  0  0  0  0  0  0  0  0  0  0  0  # atno 6909 bound_to 6896
  145.1341  139.3309  143.4650 H   0  0  0  0  0  0  0  0  0  0  0  0  # atno 7974 bound_to 7965
  154.4452  140.1016  156.6445 H   0  0  0  0  0  0  0  0  0  0  0  0  # atno 8008 bound_to 7997
  155.5466  140.3484  155.4440 H   0  0  0  0  0  0  0  0  0  0  0  0  # atno 8009 bound_to 7997
  156.0559  140.1315  156.9986 H   0  0  0  0  0  0  0  0  0  0  0  0  # atno 8010 bound_to 7997
  139.4974  144.3787  151.9646 H   0  0  0  0  0  0  0  0  0  0  0  0  # atno 10167 bound_to 10162
  156.2430  130.4181  149.8738 H   0  0  0  0  0  0  0  0  0  0  0  0  # atno 10718 bound_to 10713
  154.6841  135.5238  153.8303 H   0  0  0  0  0  0  0  0  0  0  0  0  # atno 10763 bound_to 10752
  153.0585  135.6559  154.0528 H   0  0  0  0  0  0  0  0  0  0  0  0  # atno 10764 bound_to 10752
  154.0411  135.2977  155.3334 H   0  0  0  0  0  0  0  0  0  0  0  0  # atno 10765 bound_to 10752
  140.4602  134.1135  155.7715 H   0  0  0  0  0  0  0  0  0  0  0  0  # atno 11005 bound_to 11000
  146.3511  140.1351  142.8596 LP  0  0  0  0  0  0  0  0  0  0  0  0  # atno 17320 bound_to 7965
  145.0603  140.9083  143.4942 LP  0  0  0  0  0  0  0  0  0  0  0  0  # atno 17321 bound_to 7965
  140.3223  144.3413  150.6006 LP  0  0  0  0  0  0  0  0  0  0  0  0  # atno 17342 bound_to 10162
  140.5712  143.2180  151.7595 LP  0  0  0  0  0  0  0  0  0  0  0  0  # atno 17343 bound_to 10162
  156.6313  130.8667  151.3496 LP  0  0  0  0  0  0  0  0  0  0  0  0  # atno 17370 bound_to 10713
  157.7183  130.9526  150.1340 LP  0  0  0  0  0  0  0  0  0  0  0  0  # atno 17371 bound_to 10713
  141.1624  133.8767  157.1810 LP  0  0  0  0  0  0  0  0  0  0  0  0  # atno 17394 bound_to 11000
  139.9950  135.0050  157.0061 LP  0  0  0  0  0  0  0  0  0  0  0  0  # atno 17395 bound_to 11000

$$$$
