AV-unprocessed.smi:3245|AV-procd|sdf|12405|dock6
  -GOLD-   2272018283D 1   1.00000     0.00000
 Structure written by MMmdl.
 35 36  0  0  0  0  0  0  0  0  1 V2000
  144.3204  137.1018  152.7934 C   0  0  0  0  0  0  0  0  0  0  0  0
  145.6194  136.6109  152.1221 C   0  0  1  0  0  0  0  0  0  0  0  0
  145.3625  135.9044  150.7746 C   0  0  0  0  0  0  0  0  0  0  0  0
  145.3502  134.4566  150.8856 N   0  0  0  0  0  0  0  0  0  0  0  0
  144.2830  133.5950  150.7414 C   0  0  0  0  0  0  0  0  0  0  0  0
  144.7562  132.3275  150.9266 C   0  0  0  0  0  0  0  0  0  0  0  0
  146.1440  132.5183  151.1762 C   0  0  0  0  0  0  0  0  0  0  0  0
  146.4976  133.7931  151.1466 N   0  0  0  0  0  0  0  0  0  0  0  0
  146.5110  137.7346  151.8621 N   0  0  0  0  0  0  0  0  0  0  0  0
  146.6878  138.5818  153.0339 C   0  0  0  0  0  0  0  0  0  0  0  0
  147.1193  139.9960  152.6058 C   0  0  0  0  0  0  0  0  0  0  0  0
  147.8234  140.7065  153.6799 N   0  0  0  0  0  0  0  0  0  0  0  0
  148.9248  140.2528  154.2933 C   0  0  0  0  0  0  0  0  0  0  0  0
  149.5164  139.1934  154.0877 O   0  0  0  0  0  0  0  0  0  0  0  0
  149.3601  141.2780  155.3176 C   0  0  0  0  0  0  0  0  0  0  0  0
  148.3280  142.2704  155.1097 N   0  0  0  0  0  0  0  0  0  0  0  0
  147.4587  141.9112  154.1563 C   0  0  0  0  0  0  0  0  0  0  0  0
  146.4957  142.5820  153.7875 O   0  0  0  0  0  0  0  0  0  0  0  0
  143.6403  136.2736  152.9922 H   0  0  0  0  0  0  0  0  0  0  0  0
  143.7940  137.8163  152.1596 H   0  0  0  0  0  0  0  0  0  0  0  0
  144.5103  137.5846  153.7512 H   0  0  0  0  0  0  0  0  0  0  0  0
  146.1235  135.9047  152.7838 H   0  0  0  0  0  0  0  0  0  0  0  0
  144.4059  136.2225  150.3569 H   0  0  0  0  0  0  0  0  0  0  0  0
  146.1272  136.1818  150.0475 H   0  0  0  0  0  0  0  0  0  0  0  0
  143.2867  133.9513  150.5246 H   0  0  0  0  0  0  0  0  0  0  0  0
  144.1964  131.4049  150.8885 H   0  0  0  0  0  0  0  0  0  0  0  0
  146.9002  131.7732  151.3754 H   0  0  0  0  0  0  0  0  0  0  0  0
  147.4151  137.3847  151.5782 H   0  0  0  0  0  0  0  0  0  0  0  0
  145.7756  138.6313  153.6276 H   0  0  0  0  0  0  0  0  0  0  0  0
  147.4596  138.1450  153.6685 H   0  0  0  0  0  0  0  0  0  0  0  0
  147.7832  139.9206  151.7434 H   0  0  0  0  0  0  0  0  0  0  0  0
  146.2570  140.5674  152.2572 H   0  0  0  0  0  0  0  0  0  0  0  0
  149.3327  140.8743  156.3302 H   0  0  0  0  0  0  0  0  0  0  0  0
  150.3512  141.6744  155.0944 H   0  0  0  0  0  0  0  0  0  0  0  0
  148.2834  143.1354  155.6289 H   0  0  0  0  0  0  0  0  0  0  0  0
  1  2  1  0  0  0  0
  1 19  1  0  0  0  0
  1 20  1  0  0  0  0
  1 21  1  0  0  0  0
  2  3  1  0  0  0  0
  2  9  1  0  0  0  0
  2 22  1  0  0  0  0
  3  4  1  0  0  0  0
  3 23  1  0  0  0  0
  3 24  1  0  0  0  0
  4  8  1  0  0  0  0
  4  5  1  0  0  0  0
  5  6  2  0  0  0  0
  5 25  1  0  0  0  0
  6  7  1  0  0  0  0
  6 26  1  0  0  0  0
  7  8  2  0  0  0  0
  7 27  1  0  0  0  0
  9 10  1  0  0  0  0
  9 28  1  0  0  0  0
 10 11  1  0  0  0  0
 10 29  1  0  0  0  0
 10 30  1  0  0  0  0
 11 12  1  0  0  0  0
 11 31  1  0  0  0  0
 11 32  1  0  0  0  0
 12 17  1  0  0  0  0
 12 13  1  0  0  0  0
 13 14  2  0  0  0  0
 13 15  1  0  0  0  0
 15 16  1  0  0  0  0
 15 33  1  0  0  0  0
 15 34  1  0  0  0  0
 16 17  1  0  0  0  0
 16 35  1  0  0  0  0
 17 18  2  0  0  0  0
M  END
> <s_m_source_file>
AV-unprocessed.smi

> <i_m_source_file_index>
3245

> <i_lp_mmshare_version>
43012

> <i_f3d_flags>
0

> <s_epik_input>
bjFbY0hdW2NIXVtjSF1uMVtDSDJdW0NAQEhdKFtDSDNdKVtOSF1bQ0gyXVtDSDJdTjJDKD1PKVtDSDJdW05IXUMyPU8=

> <s_epik_cmdline>
J2VwaWtfcHl0aG9uJywgJy1waCcsICc3LjAnLCAnLXRuJywgJzgnLCAnLW1hJywgJzIwMCcsICctbWV0YWxfYmluZGluZycsICctaW1hZScsICc8aW5maWxlLm1hZT4nLCAnLW9tYWUnLCAnPG91dGZpbGUubWFlPic=

> <r_lp_tautomer_probability>
1

> <r_epik_Ionization_Penalty>
2.14948

> <r_epik_Ionization_Penalty_Charging>
0

> <r_epik_Ionization_Penalty_Neutral>
2.14948

> <r_epik_State_Penalty>
2.28912

> <r_epik_Charging_Adjusted_Penalty>
2.28912

> <i_epik_Tot_Q>
0

> <i_epik_Tot_abs_Q>
0

> <r_epik_Metal_State_Penalty>
2.36471

> <b_epik_Metal_Only>
0

> <s_lp_Force_Field>
OPLS_2005

> <r_lp_Energy>
25.1449

> <b_lp_Chiralities_Consistent>
1

> <s_lp_Variant>
AV-unprocessed.smi:3245-4

> <Gold.Version>
5.8.1

> <Gold.Id.Protein>
6NUR|6NUR_protein|mol2

> <Gold.PLP.Fitness>
45.0186

> <Gold.PLP.PLP>
-35.2457

> <Gold.PLP.part.hbond>
-2.0000

> <Gold.PLP.part.metal>
0.0000

> <Gold.PLP.part.buried>
-3.4773

> <Gold.PLP.part.nonpolar>
-30.9461

> <Gold.PLP.part.repulsive>
1.2505

> <Gold.PLP.ligand.clash>
0.0000

> <Gold.PLP.ligand.torsion>
0.9347

> <Gold.PLP.Chemscore.Hbond>
1.8480

> <Gold.PLP.Chemscore.CHOScore>
2.0000

> <Gold.PLP.Chemscore.Metal>
0.0000

> <Gold.Chemscore.Hbonds>
donor molecule, donor type, donor heavy atom, donor atom, acceptor molecule, acceptor atom, score
      L1  H     9    28       P1  7948  1.00
      L1  H    16    35       P1  8028  0.86
      L1  C     5    25       P1 10186  1.00
      L1  C     7    27       P1 10747  1.00

> <Gold.PLP.Chemscore.Internal.Correction>
0.0983

> <Gold.Rescore>
     Score         DG    S(hbond)    S(metal)    S(lipo)     H(rot)  DE(clash)    DE(int)     intcor
      9.76     -11.94       1.79        0.00      62.37       2.66       1.41       0.77       ----

> <Gold.Chemscore.Fitness>
9.7551

> <Gold.Chemscore.DG>
-11.9401

> <Gold.Chemscore.ZeroCoef>
-5.4800

> <Gold.Chemscore.Hbond>
1.7889

> <Gold.Chemscore.Metal>
0.0000

> <Gold.Chemscore.Lipo>
62.3684

> <Gold.Chemscore.Internal_Hbond>
0.0000

> <Gold.Chemscore.DEClash>
1.4143

> <Gold.Chemscore.DEInternal>
0.7707

> <Gold.Chemscore.Rot>
2.6609

> <Gold.Chemscore.Internal.Correction>
   9.000000E+99

> <Gold.Chemscore.Hbonds>
donor molecule, donor type, donor heavy atom, donor atom, acceptor molecule, acceptor atom, score
      L1  H     9    28       P1  7948  0.96
      L1  H    16    35       P1  8028  0.80

> <Gold.Chemscore.Hbond.Weighted>
-5.9748

> <Gold.Chemscore.Metal.Weighted>
-0.0000

> <Gold.Chemscore.Lipo.Weighted>
-7.2971

> <Gold.Chemscore.Internal_Hbond.Weighted>
0.0000

> <Gold.Chemscore.DEClash.Weighted>
1.4143

> <Gold.Chemscore.DEInternal.Weighted>
0.7707

> <Gold.Chemscore.Rot.Weighted>
6.8118

> <Gold.Chemscore.Internal.Correction.Weighted>
   9.000000E+99

> <Gold.Protein.RotatedTorsions>
[ 6907 6896 6895 6894 ] final   93.76 input  -60.11 | X-H torsion
[ 7974 7965 7964 7962 ] final   79.39 input  175.53 | X-H torsion
[ 8008 7997 7996 7995 ] final   77.83 input   59.86 | X-H torsion
[ 10167 10162 10161 10158 ] final   22.34 input  -65.29 | X-H torsion
[ 10718 10713 10712 10709 ] final  123.58 input   66.30 | X-H torsion
[ 10763 10752 10751 10750 ] final  -30.29 input  -60.55 | X-H torsion
[ 11005 11000 10999 10996 ] final  164.09 input  -57.11 | X-H torsion

> <Gold.Protein.ActiveResidues>
 VAL166  LYS551  ARG553  GLY616  TRP617  ASP618  TYR619  PRO620  LYS621  CYS622 
 ASP623  PHE694  ASN695  SER759  ASP760  ASP761  ALA762  ILE779  LEU786  VAL792 
 PHE793  MET794  SER795  GLU796  ALA797  LYS798  CYS799  TRP800  GLU811  SER814 

> <Gold.Protein.RotatedAtoms>
  152.5452  134.1299  159.8434 H   0  0  0  0  0  0  0  0  0  0  0  0  # atno 6907 bound_to 6896
  151.1345  133.5006  159.2605 H   0  0  0  0  0  0  0  0  0  0  0  0  # atno 6908 bound_to 6896
  151.1639  135.0296  159.8777 H   0  0  0  0  0  0  0  0  0  0  0  0  # atno 6909 bound_to 6896
  145.6649  139.2481  143.1902 H   0  0  0  0  0  0  0  0  0  0  0  0  # atno 7974 bound_to 7965
  155.8472  140.3460  155.5670 H   0  0  0  0  0  0  0  0  0  0  0  0  # atno 8008 bound_to 7997
  155.8077  140.0894  157.1941 H   0  0  0  0  0  0  0  0  0  0  0  0  # atno 8009 bound_to 7997
  154.4006  140.1453  156.3337 H   0  0  0  0  0  0  0  0  0  0  0  0  # atno 8010 bound_to 7997
  140.5356  143.9767  150.6489 H   0  0  0  0  0  0  0  0  0  0  0  0  # atno 10167 bound_to 10162
  157.5653  131.1087  150.8465 H   0  0  0  0  0  0  0  0  0  0  0  0  # atno 10718 bound_to 10713
  153.7786  135.6907  153.4893 H   0  0  0  0  0  0  0  0  0  0  0  0  # atno 10763 bound_to 10752
  153.1827  135.4500  155.0047 H   0  0  0  0  0  0  0  0  0  0  0  0  # atno 10764 bound_to 10752
  154.8090  135.3369  154.7290 H   0  0  0  0  0  0  0  0  0  0  0  0  # atno 10765 bound_to 10752
  140.2424  134.8040  157.3424 H   0  0  0  0  0  0  0  0  0  0  0  0  # atno 11005 bound_to 11000
  146.1094  140.7446  142.9510 LP  0  0  0  0  0  0  0  0  0  0  0  0  # atno 17320 bound_to 7965
  144.7076  140.3915  143.7105 LP  0  0  0  0  0  0  0  0  0  0  0  0  # atno 17321 bound_to 7965
  140.3153  143.3171  152.0838 LP  0  0  0  0  0  0  0  0  0  0  0  0  # atno 17342 bound_to 10162
  139.4969  144.6609  151.6466 LP  0  0  0  0  0  0  0  0  0  0  0  0  # atno 17343 bound_to 10162
  156.8952  130.5227  149.5284 LP  0  0  0  0  0  0  0  0  0  0  0  0  # atno 17370 bound_to 10713
  156.0702  130.5736  150.9368 LP  0  0  0  0  0  0  0  0  0  0  0  0  # atno 17371 bound_to 10713
  140.1640  134.4693  155.7876 LP  0  0  0  0  0  0  0  0  0  0  0  0  # atno 17394 bound_to 11000
  141.2209  133.6913  156.7593 LP  0  0  0  0  0  0  0  0  0  0  0  0  # atno 17395 bound_to 11000

$$$$
