AV-unprocessed.smi:2160|AV-procd|sdf|8798|dock2
  -GOLD-   2272011583D 1   1.00000     0.00000
 Structure written by MMmdl.
 43 45  0  0  0  0  0  0  0  0  1 V2000
  142.7716  146.9684  154.5698 C   0  0  0  0  0  0  0  0  0  0  0  0
  143.2436  145.9194  155.4024 O   0  0  0  0  0  0  0  0  0  0  0  0
  144.1220  145.0067  154.8591 C   0  0  0  0  0  0  0  0  0  0  0  0
  144.5076  144.9868  153.4948 C   0  0  0  0  0  0  0  0  0  0  0  0
  145.4070  144.0117  153.0219 C   0  0  0  0  0  0  0  0  0  0  0  0
  145.9290  143.0402  153.8993 C   0  0  0  0  0  0  0  0  0  0  0  0
  146.8791  141.9763  153.3873 C   0  0  0  0  0  0  0  0  0  0  0  0
  148.0489  141.9076  154.1852 O   0  0  0  0  0  0  0  0  0  0  0  0
  148.6842  140.6406  154.1378 C   0  0  0  0  0  0  0  0  0  0  0  0
  149.8039  140.5725  155.1941 C   0  0  1  0  0  0  0  0  0  0  0  0
  150.8435  139.7421  154.7218 O   0  0  0  0  0  0  0  0  0  0  0  0
  150.3801  141.9346  155.6397 C   0  0  0  0  0  0  0  0  0  0  0  0
  150.9868  141.8922  156.9595 N   0  0  0  0  0  0  0  0  0  0  0  0
  151.2388  140.7966  157.7011 C   0  0  0  0  0  0  0  0  0  0  0  0
  151.7939  140.9827  158.8952 N   0  0  0  0  0  0  0  0  0  0  0  0
  151.9282  142.3601  158.9294 C   0  0  0  0  0  0  0  0  0  0  0  0
  152.4511  143.2058  159.9340 C   0  0  0  0  0  0  0  0  0  0  0  0
  152.4890  144.6029  159.7445 C   0  0  0  0  0  0  0  0  0  0  0  0
  152.0079  145.1751  158.5493 C   0  0  0  0  0  0  0  0  0  0  0  0
  151.4805  144.3533  157.5352 C   0  0  0  0  0  0  0  0  0  0  0  0
  151.4405  142.9595  157.7291 C   0  0  0  0  0  0  0  0  0  0  0  0
  145.5587  143.0620  155.2583 C   0  0  0  0  0  0  0  0  0  0  0  0
  144.6611  144.0384  155.7306 C   0  0  0  0  0  0  0  0  0  0  0  0
  142.0788  147.5920  155.1345 H   0  0  0  0  0  0  0  0  0  0  0  0
  142.2335  146.5792  153.7045 H   0  0  0  0  0  0  0  0  0  0  0  0
  143.5885  147.6066  154.2312 H   0  0  0  0  0  0  0  0  0  0  0  0
  144.1238  145.7068  152.7884 H   0  0  0  0  0  0  0  0  0  0  0  0
  145.6832  144.0063  151.9776 H   0  0  0  0  0  0  0  0  0  0  0  0
  146.3688  141.0117  153.3877 H   0  0  0  0  0  0  0  0  0  0  0  0
  147.1476  142.2020  152.3547 H   0  0  0  0  0  0  0  0  0  0  0  0
  147.9480  139.8661  154.3586 H   0  0  0  0  0  0  0  0  0  0  0  0
  149.0694  140.4352  153.1378 H   0  0  0  0  0  0  0  0  0  0  0  0
  149.3943  140.0707  156.0715 H   0  0  0  0  0  0  0  0  0  0  0  0
  150.5120  138.8595  154.6554 H   0  0  0  0  0  0  0  0  0  0  0  0
  151.1272  142.2833  154.9254 H   0  0  0  0  0  0  0  0  0  0  0  0
  149.5908  142.6870  155.6512 H   0  0  0  0  0  0  0  0  0  0  0  0
  150.9910  139.8064  157.3475 H   0  0  0  0  0  0  0  0  0  0  0  0
  152.8241  142.7785  160.8528 H   0  0  0  0  0  0  0  0  0  0  0  0
  152.8896  145.2389  160.5201 H   0  0  0  0  0  0  0  0  0  0  0  0
  152.0368  146.2464  158.4134 H   0  0  0  0  0  0  0  0  0  0  0  0
  151.1018  144.7922  156.6243 H   0  0  0  0  0  0  0  0  0  0  0  0
  145.9562  142.3247  155.9403 H   0  0  0  0  0  0  0  0  0  0  0  0
  144.3800  144.0417  156.7734 H   0  0  0  0  0  0  0  0  0  0  0  0
  1  2  1  0  0  0  0
  1 24  1  0  0  0  0
  1 25  1  0  0  0  0
  1 26  1  0  0  0  0
  2  3  1  0  0  0  0
  3 23  1  0  0  0  0
  3  4  2  0  0  0  0
  4  5  1  0  0  0  0
  4 27  1  0  0  0  0
  5  6  2  0  0  0  0
  5 28  1  0  0  0  0
  6  7  1  0  0  0  0
  6 22  1  0  0  0  0
  7  8  1  0  0  0  0
  7 29  1  0  0  0  0
  7 30  1  0  0  0  0
  8  9  1  0  0  0  0
  9 10  1  0  0  0  0
  9 31  1  0  0  0  0
  9 32  1  0  0  0  0
 10 11  1  0  0  0  0
 10 12  1  0  0  0  0
 10 33  1  0  0  0  0
 11 34  1  0  0  0  0
 12 13  1  0  0  0  0
 12 35  1  0  0  0  0
 12 36  1  0  0  0  0
 13 21  1  0  0  0  0
 13 14  1  0  0  0  0
 14 15  2  0  0  0  0
 14 37  1  0  0  0  0
 15 16  1  0  0  0  0
 16 21  2  0  0  0  0
 16 17  1  0  0  0  0
 17 18  2  0  0  0  0
 17 38  1  0  0  0  0
 18 19  1  0  0  0  0
 18 39  1  0  0  0  0
 19 20  2  0  0  0  0
 19 40  1  0  0  0  0
 20 21  1  0  0  0  0
 20 41  1  0  0  0  0
 22 23  2  0  0  0  0
 22 42  1  0  0  0  0
 23 43  1  0  0  0  0
M  END
> <s_m_source_file>
AV-unprocessed.smi

> <i_m_source_file_index>
2160

> <i_lp_mmshare_version>
43012

> <i_f3d_flags>
0

> <s_epik_input>
W0NIM11PYzFbY0hdW2NIXWMoW2NIXVtjSF0xKVtDSDJdT1tDSDJdW0NASF0oW09IXSlbQ0gyXW4oW2NIXW4yKWMoYzIzKVtjSF1bY0hdW2NIXVtjSF0z

> <s_epik_cmdline>
J2VwaWtfcHl0aG9uJywgJy1waCcsICc3LjAnLCAnLXRuJywgJzgnLCAnLW1hJywgJzIwMCcsICctbWV0YWxfYmluZGluZycsICctaW1hZScsICc8aW5maWxlLm1hZT4nLCAnLW9tYWUnLCAnPG91dGZpbGUubWFlPic=

> <r_lp_tautomer_probability>
1

> <r_epik_Ionization_Penalty>
0.0713119

> <r_epik_Ionization_Penalty_Charging>
0

> <r_epik_Ionization_Penalty_Neutral>
0.0713119

> <r_epik_State_Penalty>
0.06259

> <r_epik_Charging_Adjusted_Penalty>
0.06259

> <i_epik_Tot_Q>
0

> <i_epik_Tot_abs_Q>
0

> <r_epik_Metal_State_Penalty>
6.60119e-05

> <b_epik_Metal_Only>
0

> <s_lp_Force_Field>
OPLS_2005

> <r_lp_Energy>
17.5376

> <b_lp_Chiralities_Consistent>
1

> <s_lp_Variant>
AV-unprocessed.smi:2160-2

> <Gold.Version>
5.8.1

> <Gold.Id.Protein>
6NUR|6NUR_protein|mol2

> <Gold.PLP.Fitness>
56.2186

> <Gold.PLP.PLP>
-54.9561

> <Gold.PLP.part.hbond>
-1.2356

> <Gold.PLP.part.metal>
0.0000

> <Gold.PLP.part.buried>
-8.9804

> <Gold.PLP.part.nonpolar>
-45.7105

> <Gold.PLP.part.repulsive>
0.1584

> <Gold.PLP.ligand.clash>
0.0000

> <Gold.PLP.ligand.torsion>
1.0171

> <Gold.PLP.Chemscore.Hbond>
1.0000

> <Gold.PLP.Chemscore.CHOScore>
0.0000

> <Gold.PLP.Chemscore.Metal>
0.0000

> <Gold.Chemscore.Hbonds>
donor molecule, donor type, donor heavy atom, donor atom, acceptor molecule, acceptor atom, score
      P1  H  7989  7998       L1    11  1.00

> <Gold.PLP.Chemscore.Internal.Correction>
0.2967

> <Gold.Rescore>
     Score         DG    S(hbond)    S(metal)    S(lipo)     H(rot)  DE(clash)    DE(int)     intcor
     14.43     -15.68       0.00        0.00     144.65       2.63       0.20       1.05       ----

> <Gold.Chemscore.Fitness>
14.4350

> <Gold.Chemscore.DG>
-15.6842

> <Gold.Chemscore.ZeroCoef>
-5.4800

> <Gold.Chemscore.Hbond>
0.0045

> <Gold.Chemscore.Metal>
0.0000

> <Gold.Chemscore.Lipo>
144.6494

> <Gold.Chemscore.Internal_Hbond>
0.0000

> <Gold.Chemscore.DEClash>
0.2021

> <Gold.Chemscore.DEInternal>
1.0471

> <Gold.Chemscore.Rot>
2.6308

> <Gold.Chemscore.Internal.Correction>
   9.000000E+99

> <Gold.Chemscore.Hbonds>
donor molecule, donor type, donor heavy atom, donor atom, acceptor molecule, acceptor atom, score
      P1  H  7989  7998       L1    11  0.26

> <Gold.Chemscore.Hbond.Weighted>
-0.0149

> <Gold.Chemscore.Metal.Weighted>
-0.0000

> <Gold.Chemscore.Lipo.Weighted>
-16.9240

> <Gold.Chemscore.Internal_Hbond.Weighted>
0.0000

> <Gold.Chemscore.DEClash.Weighted>
0.2021

> <Gold.Chemscore.DEInternal.Weighted>
1.0471

> <Gold.Chemscore.Rot.Weighted>
6.7347

> <Gold.Chemscore.Internal.Correction.Weighted>
   9.000000E+99

> <Gold.Protein.RotatedTorsions>
[ 6907 6896 6895 6894 ] final  -44.82 input  -60.11 | X-H torsion
[ 7974 7965 7964 7962 ] final -112.94 input  175.53 | X-H torsion
[ 8008 7997 7996 7995 ] final  -40.49 input   59.86 | X-H torsion
[ 10167 10162 10161 10158 ] final  168.52 input  -65.29 | X-H torsion
[ 10718 10713 10712 10709 ] final  155.91 input   66.30 | X-H torsion
[ 10763 10752 10751 10750 ] final   55.91 input  -60.55 | X-H torsion
[ 11005 11000 10999 10996 ] final  172.76 input  -57.11 | X-H torsion

> <Gold.Protein.ActiveResidues>
 VAL166  LYS551  ARG553  GLY616  TRP617  ASP618  TYR619  PRO620  LYS621  CYS622 
 ASP623  PHE694  ASN695  SER759  ASP760  ASP761  ALA762  ILE779  LEU786  VAL792 
 PHE793  MET794  SER795  GLU796  ALA797  LYS798  CYS799  TRP800  GLU811  SER814 

> <Gold.Protein.RotatedAtoms>
  150.9287  134.8702  159.7536 H   0  0  0  0  0  0  0  0  0  0  0  0  # atno 6907 bound_to 6896
  152.5027  134.4111  159.9459 H   0  0  0  0  0  0  0  0  0  0  0  0  # atno 6908 bound_to 6896
  151.4140  133.3679  159.2782 H   0  0  0  0  0  0  0  0  0  0  0  0  # atno 6909 bound_to 6896
  145.1379  140.8761  143.3719 H   0  0  0  0  0  0  0  0  0  0  0  0  # atno 7974 bound_to 7965
  154.4012  140.1524  156.3035 H   0  0  0  0  0  0  0  0  0  0  0  0  # atno 8008 bound_to 7997
  155.8679  140.3450  155.5779 H   0  0  0  0  0  0  0  0  0  0  0  0  # atno 8009 bound_to 7997
  155.7807  140.0843  157.2051 H   0  0  0  0  0  0  0  0  0  0  0  0  # atno 8010 bound_to 7997
  139.4970  144.3806  151.9626 H   0  0  0  0  0  0  0  0  0  0  0  0  # atno 10167 bound_to 10162
  157.2120  131.0699  151.1964 H   0  0  0  0  0  0  0  0  0  0  0  0  # atno 10718 bound_to 10713
  152.9824  135.5694  154.5144 H   0  0  0  0  0  0  0  0  0  0  0  0  # atno 10763 bound_to 10752
  154.4642  135.2782  155.1692 H   0  0  0  0  0  0  0  0  0  0  0  0  # atno 10764 bound_to 10752
  154.3267  135.6258  153.5586 H   0  0  0  0  0  0  0  0  0  0  0  0  # atno 10765 bound_to 10752
  140.3331  134.7340  157.4149 H   0  0  0  0  0  0  0  0  0  0  0  0  # atno 11005 bound_to 11000
  145.0564  139.3140  143.5903 LP  0  0  0  0  0  0  0  0  0  0  0  0  # atno 17320 bound_to 7965
  146.3508  139.9990  142.8678 LP  0  0  0  0  0  0  0  0  0  0  0  0  # atno 17321 bound_to 7965
  140.3242  144.3392  150.6002 LP  0  0  0  0  0  0  0  0  0  0  0  0  # atno 17342 bound_to 10162
  140.5698  143.2182  151.7620 LP  0  0  0  0  0  0  0  0  0  0  0  0  # atno 17343 bound_to 10162
  157.3663  130.7157  149.6535 LP  0  0  0  0  0  0  0  0  0  0  0  0  # atno 17370 bound_to 10713
  155.9690  130.4211  150.4455 LP  0  0  0  0  0  0  0  0  0  0  0  0  # atno 17371 bound_to 10713
  140.0843  134.5687  155.8508 LP  0  0  0  0  0  0  0  0  0  0  0  0  # atno 17394 bound_to 11000
  141.2058  133.6650  156.6203 LP  0  0  0  0  0  0  0  0  0  0  0  0  # atno 17395 bound_to 11000

$$$$
