AV-unprocessed.smi:1744|AV-procd|sdf|7024|dock2
  -GOLD-   22720 8243D 1   1.00000     0.00000
 Structure written by MMmdl.
 43 44  0  0  0  0  0  0  0  0  1 V2000
  151.4649  144.1310  157.7825 C   0  0  0  0  0  0  0  0  0  0  0  0
  151.9585  144.8380  159.0511 C   0  0  0  0  0  0  0  0  0  0  0  0
  152.4465  143.8981  160.0423 N   0  0  0  0  0  0  0  0  0  0  0  0
  153.1102  142.7051  159.8341 C   0  0  0  0  0  0  0  0  0  0  0  0
  153.3436  142.1883  161.0729 C   0  0  0  0  0  0  0  0  0  0  0  0
  154.0011  140.9585  161.3256 N   0  0  0  0  0  0  0  0  0  0  0  0
  154.3604  140.0296  160.4251 C   0  0  0  0  0  0  0  0  0  0  0  0
  154.1353  140.0904  159.2164 O   0  0  0  0  0  0  0  0  0  0  0  0
  155.0036  139.0090  161.0097 N   0  0  0  0  0  0  0  0  0  0  0  0
  155.5404  137.8429  160.3147 C   0  0  0  0  0  0  0  0  0  0  0  0
  156.2926  138.2590  159.0404 C   0  0  0  0  0  0  0  0  0  0  0  0
  156.7389  137.0268  158.2343 C   0  0  0  0  0  0  0  0  0  0  0  0
  155.5846  136.1956  157.8758 N   0  0  0  0  0  0  0  0  0  0  0  0
  156.0320  135.0926  156.9949 C   0  0  0  0  0  0  0  0  0  0  0  0
  156.4009  135.5258  155.5705 C   0  0  0  0  0  0  0  0  0  0  0  0
  157.6455  135.2722  155.1583 N   0  0  0  0  0  0  0  0  0  0  0  0
  155.5706  136.0771  154.8511 O   0  0  0  0  0  0  0  0  0  0  0  0
  154.9109  135.7107  159.0894 C   0  0  0  0  0  0  0  0  0  0  0  0
  154.3977  136.8929  159.9306 C   0  0  0  0  0  0  0  0  0  0  0  0
  152.7920  143.1229  161.9943 C   0  0  0  0  0  0  0  0  0  0  0  0
  152.2494  144.1512  161.3600 N   0  0  0  0  0  0  0  0  0  0  0  0
  151.0818  144.8534  157.0616 H   0  0  0  0  0  0  0  0  0  0  0  0
  150.6618  143.4294  158.0101 H   0  0  0  0  0  0  0  0  0  0  0  0
  152.2695  143.5756  157.2994 H   0  0  0  0  0  0  0  0  0  0  0  0
  152.7595  145.5378  158.8095 H   0  0  0  0  0  0  0  0  0  0  0  0
  151.1498  145.4217  159.4924 H   0  0  0  0  0  0  0  0  0  0  0  0
  153.3503  142.3379  158.8470 H   0  0  0  0  0  0  0  0  0  0  0  0
  154.2378  140.7748  162.2896 H   0  0  0  0  0  0  0  0  0  0  0  0
  155.1397  139.0431  162.0093 H   0  0  0  0  0  0  0  0  0  0  0  0
  156.2245  137.3082  160.9767 H   0  0  0  0  0  0  0  0  0  0  0  0
  155.6538  138.8875  158.4177 H   0  0  0  0  0  0  0  0  0  0  0  0
  157.1635  138.8629  159.2979 H   0  0  0  0  0  0  0  0  0  0  0  0
  157.2464  137.3649  157.3297 H   0  0  0  0  0  0  0  0  0  0  0  0
  157.4643  136.4446  158.8057 H   0  0  0  0  0  0  0  0  0  0  0  0
  156.9206  134.6266  157.4229 H   0  0  0  0  0  0  0  0  0  0  0  0
  155.2640  134.3173  156.9587 H   0  0  0  0  0  0  0  0  0  0  0  0
  157.9343  135.5400  154.2288 H   0  0  0  0  0  0  0  0  0  0  0  0
  158.2941  134.8130  155.7810 H   0  0  0  0  0  0  0  0  0  0  0  0
  154.0569  135.0824  158.8371 H   0  0  0  0  0  0  0  0  0  0  0  0
  155.5931  135.0945  159.6780 H   0  0  0  0  0  0  0  0  0  0  0  0
  153.9062  136.5185  160.8293 H   0  0  0  0  0  0  0  0  0  0  0  0
  153.6367  137.4332  159.3649 H   0  0  0  0  0  0  0  0  0  0  0  0
  152.7594  143.0986  163.0733 H   0  0  0  0  0  0  0  0  0  0  0  0
  1  2  1  0  0  0  0
  1 22  1  0  0  0  0
  1 23  1  0  0  0  0
  1 24  1  0  0  0  0
  2  3  1  0  0  0  0
  2 25  1  0  0  0  0
  2 26  1  0  0  0  0
  3 21  1  0  0  0  0
  3  4  1  0  0  0  0
  4  5  2  0  0  0  0
  4 27  1  0  0  0  0
  5  6  1  0  0  0  0
  5 20  1  0  0  0  0
  6  7  1  0  0  0  0
  6 28  1  0  0  0  0
  7  8  2  0  0  0  0
  7  9  1  0  0  0  0
  9 10  1  0  0  0  0
  9 29  1  0  0  0  0
 10 19  1  0  0  0  0
 10 11  1  0  0  0  0
 10 30  1  0  0  0  0
 11 12  1  0  0  0  0
 11 31  1  0  0  0  0
 11 32  1  0  0  0  0
 12 13  1  0  0  0  0
 12 33  1  0  0  0  0
 12 34  1  0  0  0  0
 13 14  1  0  0  0  0
 13 18  1  0  0  0  0
 14 15  1  0  0  0  0
 14 35  1  0  0  0  0
 14 36  1  0  0  0  0
 15 16  1  0  0  0  0
 15 17  2  0  0  0  0
 16 37  1  0  0  0  0
 16 38  1  0  0  0  0
 18 19  1  0  0  0  0
 18 39  1  0  0  0  0
 18 40  1  0  0  0  0
 19 41  1  0  0  0  0
 19 42  1  0  0  0  0
 20 21  2  0  0  0  0
 20 43  1  0  0  0  0
M  END
> <s_m_source_file>
AV-unprocessed.smi

> <i_m_source_file_index>
1744

> <i_lp_mmshare_version>
43012

> <i_f3d_flags>
0

> <s_epik_input>
W0NIM11bQ0gyXW4xW2NIXWMoW2NIXW4xKVtOSF1DKD1PKVtOSF1bQ0hdMltDSDJdW0NIMl1OKFtDSDJdW0NIMl0yKVtDSDJdQyg9TylbTkgyXQ==

> <s_epik_cmdline>
J2VwaWtfcHl0aG9uJywgJy1waCcsICc3LjAnLCAnLXRuJywgJzgnLCAnLW1hJywgJzIwMCcsICctbWV0YWxfYmluZGluZycsICctaW1hZScsICc8aW5maWxlLm1hZT4nLCAnLW9tYWUnLCAnPG91dGZpbGUubWFlPic=

> <r_lp_tautomer_probability>
1

> <r_epik_Ionization_Penalty>
0.164921

> <r_epik_Ionization_Penalty_Charging>
0

> <r_epik_Ionization_Penalty_Neutral>
0.164921

> <r_epik_State_Penalty>
0.154069

> <r_epik_Charging_Adjusted_Penalty>
0.154069

> <i_epik_Tot_Q>
0

> <i_epik_Tot_abs_Q>
0

> <r_epik_Metal_State_Penalty>
0.171357

> <b_epik_Metal_Only>
0

> <s_lp_Force_Field>
OPLS_2005

> <r_lp_Energy>
15.5637

> <b_lp_Chiralities_Consistent>
1

> <s_lp_Variant>
AV-unprocessed.smi:1744-1

> <Gold.Version>
5.8.1

> <Gold.Id.Protein>
6NUR|6NUR_protein|mol2

> <Gold.PLP.Fitness>
41.0320

> <Gold.PLP.PLP>
-36.5692

> <Gold.PLP.part.hbond>
-2.0000

> <Gold.PLP.part.metal>
0.0000

> <Gold.PLP.part.buried>
-5.3028

> <Gold.PLP.part.nonpolar>
-29.0471

> <Gold.PLP.part.repulsive>
0.1977

> <Gold.PLP.ligand.clash>
0.0000

> <Gold.PLP.ligand.torsion>
0.6555

> <Gold.PLP.Chemscore.Hbond>
1.9120

> <Gold.PLP.Chemscore.CHOScore>
0.0000

> <Gold.PLP.Chemscore.Metal>
0.0000

> <Gold.Chemscore.Hbonds>
donor molecule, donor type, donor heavy atom, donor atom, acceptor molecule, acceptor atom, score
      P1  H  7997  8009       L1     8  0.84

> <Gold.PLP.Chemscore.Internal.Correction>
0.0378

> <Gold.Rescore>
     Score         DG    S(hbond)    S(metal)    S(lipo)     H(rot)  DE(clash)    DE(int)     intcor
     12.53     -15.58       1.90        0.00      80.02       2.19       0.03       3.02       ----

> <Gold.Chemscore.Fitness>
12.5330

> <Gold.Chemscore.DG>
-15.5822

> <Gold.Chemscore.ZeroCoef>
-5.4800

> <Gold.Chemscore.Hbond>
1.8989

> <Gold.Chemscore.Metal>
0.0000

> <Gold.Chemscore.Lipo>
80.0157

> <Gold.Chemscore.Internal_Hbond>
0.0000

> <Gold.Chemscore.DEClash>
0.0291

> <Gold.Chemscore.DEInternal>
3.0201

> <Gold.Chemscore.Rot>
2.1883

> <Gold.Chemscore.Internal.Correction>
   9.000000E+99

> <Gold.Chemscore.Hbonds>
donor molecule, donor type, donor heavy atom, donor atom, acceptor molecule, acceptor atom, score
      P1  H  7997  8009       L1     8  0.78

> <Gold.Chemscore.Hbond.Weighted>
-6.3424

> <Gold.Chemscore.Metal.Weighted>
-0.0000

> <Gold.Chemscore.Lipo.Weighted>
-9.3618

> <Gold.Chemscore.Internal_Hbond.Weighted>
0.0000

> <Gold.Chemscore.DEClash.Weighted>
0.0291

> <Gold.Chemscore.DEInternal.Weighted>
3.0201

> <Gold.Chemscore.Rot.Weighted>
5.6020

> <Gold.Chemscore.Internal.Correction.Weighted>
   9.000000E+99

> <Gold.Protein.RotatedTorsions>
[ 6907 6896 6895 6894 ] final    0.10 input  -60.11 | X-H torsion
[ 7974 7965 7964 7962 ] final  -90.92 input  175.53 | X-H torsion
[ 8008 7997 7996 7995 ] final  126.29 input   59.86 | X-H torsion
[ 10167 10162 10161 10158 ] final  -56.78 input  -65.29 | X-H torsion
[ 10718 10713 10712 10709 ] final  -50.13 input   66.30 | X-H torsion
[ 10763 10752 10751 10750 ] final  -18.78 input  -60.55 | X-H torsion
[ 11005 11000 10999 10996 ] final  112.86 input  -57.11 | X-H torsion

> <Gold.Protein.ActiveResidues>
 VAL166  LYS551  ARG553  GLY616  TRP617  ASP618  TYR619  PRO620  LYS621  CYS622 
 ASP623  PHE694  ASN695  SER759  ASP760  ASP761  ALA762  ILE779  LEU786  VAL792 
 PHE793  MET794  SER795  GLU796  ALA797  LYS798  CYS799  TRP800  GLU811  SER814 

> <Gold.Protein.RotatedAtoms>
  151.5709  135.1062  159.9994 H   0  0  0  0  0  0  0  0  0  0  0  0  # atno 6907 bound_to 6896
  152.4401  133.7428  159.6661 H   0  0  0  0  0  0  0  0  0  0  0  0  # atno 6908 bound_to 6896
  150.8305  133.8030  159.3124 H   0  0  0  0  0  0  0  0  0  0  0  0  # atno 6909 bound_to 6896
  145.4200  140.9550  143.2186 H   0  0  0  0  0  0  0  0  0  0  0  0  # atno 7974 bound_to 7965
  156.2859  140.2696  156.2087 H   0  0  0  0  0  0  0  0  0  0  0  0  # atno 8008 bound_to 7997
  155.0286  140.0386  157.2483 H   0  0  0  0  0  0  0  0  0  0  0  0  # atno 8009 bound_to 7997
  154.7374  140.2718  155.6408 H   0  0  0  0  0  0  0  0  0  0  0  0  # atno 8010 bound_to 7997
  140.6297  143.2454  151.5273 H   0  0  0  0  0  0  0  0  0  0  0  0  # atno 10167 bound_to 10162
  156.1829  130.4151  149.9481 H   0  0  0  0  0  0  0  0  0  0  0  0  # atno 10718 bound_to 10713
  153.5946  135.7001  153.5409 H   0  0  0  0  0  0  0  0  0  0  0  0  # atno 10763 bound_to 10752
  153.3149  135.4090  155.1367 H   0  0  0  0  0  0  0  0  0  0  0  0  # atno 10764 bound_to 10752
  154.8594  135.3681  154.5479 H   0  0  0  0  0  0  0  0  0  0  0  0  # atno 10765 bound_to 10752
  139.8938  134.9538  156.6650 H   0  0  0  0  0  0  0  0  0  0  0  0  # atno 11005 bound_to 11000
  144.8252  139.5723  143.6969 LP  0  0  0  0  0  0  0  0  0  0  0  0  # atno 17320 bound_to 7965
  146.2661  139.6524  142.9328 LP  0  0  0  0  0  0  0  0  0  0  0  0  # atno 17321 bound_to 7965
  139.5512  144.2390  152.1534 LP  0  0  0  0  0  0  0  0  0  0  0  0  # atno 17342 bound_to 10162
  140.1630  144.5007  150.6621 LP  0  0  0  0  0  0  0  0  0  0  0  0  # atno 17343 bound_to 10162
  156.7246  130.9020  151.3621 LP  0  0  0  0  0  0  0  0  0  0  0  0  # atno 17370 bound_to 10713
  157.6880  130.9204  150.0437 LP  0  0  0  0  0  0  0  0  0  0  0  0  # atno 17371 bound_to 10713
  140.7417  133.8972  155.8283 LP  0  0  0  0  0  0  0  0  0  0  0  0  # atno 17394 bound_to 11000
  141.0072  134.1070  157.4258 LP  0  0  0  0  0  0  0  0  0  0  0  0  # atno 17395 bound_to 11000

$$$$
