AV-unprocessed.smi:1|AV-procd|sdf|18|dock7
  -GOLD-   2262015123D 1   1.00000     0.00000
 Structure written by MMmdl.
 56 61  0  0  0  0  0  0  0  0  2 V2000
  152.9360  139.7847  158.2368 O   0  0  0  0  0  0  0  0  0  0  0  0
  152.3217  140.8318  158.0223 C   0  0  0  0  0  0  0  0  0  0  0  0
  151.6006  141.1644  156.9218 N   0  5  0  0  0  0  0  0  0  0  0  0
  150.8043  140.2533  156.3416 C   0  0  0  0  0  0  0  0  0  0  0  0
  150.3775  140.4288  155.0652 N   0  0  0  0  0  0  0  0  0  0  0  0
  149.5905  139.5165  154.4835 C   0  0  0  0  0  0  0  0  0  0  0  0
  149.1227  138.3675  154.9818 N   0  0  0  0  0  0  0  0  0  0  0  0
  149.5531  138.1755  156.2628 C   0  0  0  0  0  0  0  0  0  0  0  0
  150.3891  139.0639  157.0006 C   0  0  0  0  0  0  0  0  0  0  0  0
  150.6368  138.5653  158.2712 N   0  0  0  0  0  0  0  0  0  0  0  0
  149.9527  137.4234  158.2499 C   0  0  0  0  0  0  0  0  0  0  0  0
  149.2971  137.1134  157.1138 N   0  0  0  0  0  0  0  0  0  0  0  0
  148.4612  135.9081  156.8454 C   0  0  1  0  0  0  0  0  0  0  0  0
  148.7363  135.4671  155.5535 O   0  0  0  0  0  0  0  0  0  0  0  0
  148.6339  134.0529  155.5369 C   0  0  1  0  0  0  0  0  0  0  0  0
  149.2887  133.4560  154.2832 C   0  0  0  0  0  0  0  0  0  0  0  0
  148.3870  133.4527  153.1872 O   0  0  0  0  0  0  0  0  0  0  0  0
  147.6189  132.3716  152.9488 C   0  0  0  0  0  0  0  0  0  0  0  0
  147.8188  131.2663  153.4569 O   0  0  0  0  0  0  0  0  0  0  0  0
  146.5002  132.6504  152.0036 C   0  0  0  0  0  0  0  0  0  0  0  0
  145.6922  131.5815  151.5504 C   0  0  0  0  0  0  0  0  0  0  0  0
  144.6304  131.8148  150.6549 C   0  0  0  0  0  0  0  0  0  0  0  0
  144.3655  133.1197  150.1997 C   0  0  0  0  0  0  0  0  0  0  0  0
  145.1655  134.1905  150.6393 C   0  0  0  0  0  0  0  0  0  0  0  0
  146.2274  133.9588  151.5351 C   0  0  0  0  0  0  0  0  0  0  0  0
  149.2248  133.6204  156.8817 C   0  0  2  0  0  0  0  0  0  0  0  0
  148.6689  132.4005  157.3391 O   0  0  0  0  0  0  0  0  0  0  0  0
  147.4201  132.7330  158.3969 S   0  0  0  0  0  0  0  0  0  0  0  0
  146.1487  132.4757  157.7038 O   0  0  0  0  0  0  0  0  0  0  0  0
  147.7480  132.1327  159.6988 O   0  0  0  0  0  0  0  0  0  0  0  0
  147.6206  134.3865  158.5168 O   0  0  0  0  0  0  0  0  0  0  0  0
  148.7935  134.7632  157.8168 C   0  0  2  0  0  0  0  0  0  0  0  0
  152.2775  141.8805  159.1015 C   0  0  0  0  0  0  0  0  0  0  0  0
  152.9285  141.6452  160.3342 C   0  0  0  0  0  0  0  0  0  0  0  0
  152.9210  142.6242  161.3468 C   0  0  0  0  0  0  0  0  0  0  0  0
  152.2700  143.8538  161.1340 C   0  0  0  0  0  0  0  0  0  0  0  0
  151.6300  144.1050  159.9060 C   0  0  0  0  0  0  0  0  0  0  0  0
  151.6369  143.1264  158.8929 C   0  0  0  0  0  0  0  0  0  0  0  0
  149.2990  139.7391  153.4685 H   0  0  0  0  0  0  0  0  0  0  0  0
  149.9300  136.7722  159.1114 H   0  0  0  0  0  0  0  0  0  0  0  0
  147.4285  136.2521  156.9216 H   0  0  0  0  0  0  0  0  0  0  0  0
  147.5683  133.8178  155.5175 H   0  0  0  0  0  0  0  0  0  0  0  0
  150.1654  134.0449  154.0111 H   0  0  0  0  0  0  0  0  0  0  0  0
  149.6326  132.4432  154.4986 H   0  0  0  0  0  0  0  0  0  0  0  0
  145.8763  130.5713  151.8871 H   0  0  0  0  0  0  0  0  0  0  0  0
  144.0187  130.9911  150.3174 H   0  0  0  0  0  0  0  0  0  0  0  0
  143.5508  133.2989  149.5136 H   0  0  0  0  0  0  0  0  0  0  0  0
  144.9645  135.1924  150.2897 H   0  0  0  0  0  0  0  0  0  0  0  0
  146.8249  134.8018  151.8500 H   0  0  0  0  0  0  0  0  0  0  0  0
  150.3127  133.5614  156.8476 H   0  0  0  0  0  0  0  0  0  0  0  0
  149.5780  135.0367  158.5236 H   0  0  0  0  0  0  0  0  0  0  0  0
  153.4345  140.7074  160.5124 H   0  0  0  0  0  0  0  0  0  0  0  0
  153.4166  142.4312  162.2866 H   0  0  0  0  0  0  0  0  0  0  0  0
  152.2648  144.6046  161.9102 H   0  0  0  0  0  0  0  0  0  0  0  0
  151.1348  145.0499  159.7385 H   0  0  0  0  0  0  0  0  0  0  0  0
  151.1492  143.3438  157.9535 H   0  0  0  0  0  0  0  0  0  0  0  0
  1  2  2  0  0  0  0
  2  3  1  0  0  0  0
  2 33  1  0  0  0  0
  3  4  1  0  0  0  0
  4  9  1  0  0  0  0
  4  5  2  0  0  0  0
  5  6  1  0  0  0  0
  6  7  2  0  0  0  0
  6 39  1  0  0  0  0
  7  8  1  0  0  0  0
  8 12  1  0  0  0  0
  8  9  2  0  0  0  0
  9 10  1  0  0  0  0
 10 11  2  0  0  0  0
 11 12  1  0  0  0  0
 11 40  1  0  0  0  0
 12 13  1  0  0  0  0
 13 32  1  0  0  0  0
 13 14  1  0  0  0  0
 13 41  1  0  0  0  0
 14 15  1  0  0  0  0
 15 16  1  0  0  0  0
 15 26  1  0  0  0  0
 15 42  1  0  0  0  0
 16 17  1  0  0  0  0
 16 43  1  0  0  0  0
 16 44  1  0  0  0  0
 17 18  1  0  0  0  0
 18 19  2  0  0  0  0
 18 20  1  0  0  0  0
 20 25  1  0  0  0  0
 20 21  2  0  0  0  0
 21 22  1  0  0  0  0
 21 45  1  0  0  0  0
 22 23  2  0  0  0  0
 22 46  1  0  0  0  0
 23 24  1  0  0  0  0
 23 47  1  0  0  0  0
 24 25  2  0  0  0  0
 24 48  1  0  0  0  0
 25 49  1  0  0  0  0
 26 32  1  0  0  0  0
 26 27  1  0  0  0  0
 26 50  1  0  0  0  0
 27 28  1  0  0  0  0
 28 29  2  0  0  0  0
 28 30  2  0  0  0  0
 28 31  1  0  0  0  0
 31 32  1  0  0  0  0
 32 51  1  0  0  0  0
 33 38  1  0  0  0  0
 33 34  2  0  0  0  0
 34 35  1  0  0  0  0
 34 52  1  0  0  0  0
 35 36  2  0  0  0  0
 35 53  1  0  0  0  0
 36 37  1  0  0  0  0
 36 54  1  0  0  0  0
 37 38  2  0  0  0  0
 37 55  1  0  0  0  0
 38 56  1  0  0  0  0
M  CHG  1   3  -1
M  END
> <s_m_source_file>
AV-unprocessed.smi

> <i_m_source_file_index>
1

> <i_lp_mmshare_version>
43012

> <i_f3d_flags>
0

> <s_epik_input>
W2NIXTFbY0hdW2NIXVtjSF1bY0hdYzFDKD1PKVtOSF1jKG5bY0hdbjIpYyhjMjMpbltjSF1uM1tDQEBIXShbQ0BIXShbQ0BIXTQ1KU9TKE81KSg9Tyk9TylPW0NASF00W0NIMl1PQyg9TyljNltjSF1bY0hdW2NIXVtjSF1bY0hdNg==

> <s_epik_cmdline>
J2VwaWtfcHl0aG9uJywgJy1waCcsICc3LjAnLCAnLXRuJywgJzgnLCAnLW1hJywgJzIwMCcsICctbWV0YWxfYmluZGluZycsICctaW1hZScsICc8aW5maWxlLm1hZT4nLCAnLW9tYWUnLCAnPG91dGZpbGUubWFlPic=

> <r_lp_tautomer_probability>
1

> <r_epik_Ionization_Penalty>
4.39121

> <r_epik_Ionization_Penalty_Charging>
3.39398

> <r_epik_Ionization_Penalty_Neutral>
0.997232

> <r_epik_State_Penalty>
3.39839

> <r_epik_Charging_Adjusted_Penalty>
6.79237

> <i_epik_Tot_Q>
-1

> <i_epik_Tot_abs_Q>
1

> <r_epik_Metal_State_Penalty>
0.497663

> <b_epik_Metal_Only>
1

> <s_epik_Chemistry_Notes>
This compound has an ester and may undergo hydrolysis at high or low pH. This compound contains an acetal/aminal-like group ( X-CH(R)-Y where X, Y are N, S, or O) that may be acid/base labile, releasing an aldehyde.

> <s_lp_Force_Field>
OPLS_2005

> <r_lp_Energy>
46.6749

> <b_lp_Chiralities_Consistent>
1

> <s_lp_Variant>
AV-unprocessed.smi:1-18

> <Gold.Version>
5.8.1

> <Gold.Id.Protein>
6NUR|6NUR_protein|mol2

> <Gold.PLP.Fitness>
58.7686

> <Gold.PLP.PLP>
-52.6763

> <Gold.PLP.part.hbond>
-2.0000

> <Gold.PLP.part.metal>
0.0000

> <Gold.PLP.part.buried>
-7.6325

> <Gold.PLP.part.nonpolar>
-43.4011

> <Gold.PLP.part.repulsive>
1.2150

> <Gold.PLP.ligand.clash>
0.0000

> <Gold.PLP.ligand.torsion>
1.6373

> <Gold.PLP.Chemscore.Hbond>
2.0000

> <Gold.PLP.Chemscore.CHOScore>
1.0000

> <Gold.PLP.Chemscore.Metal>
0.0000

> <Gold.Chemscore.Hbonds>
donor molecule, donor type, donor heavy atom, donor atom, acceptor molecule, acceptor atom, score
      P1  H  7989  7998       L1     5  0.94
      P1  H  7997  8009       L1     1  0.80
      L1  C     6    39       P1  7957  1.00

> <Gold.PLP.Chemscore.Internal.Correction>
0.3668

> <Gold.Rescore>
     Score         DG    S(hbond)    S(metal)    S(lipo)     H(rot)  DE(clash)    DE(int)     intcor
     14.10     -21.05       1.58        0.00     134.31       2.11       0.41       6.53       ----

> <Gold.Chemscore.Fitness>
14.0981

> <Gold.Chemscore.DG>
-21.0459

> <Gold.Chemscore.ZeroCoef>
-5.4800

> <Gold.Chemscore.Hbond>
1.5756

> <Gold.Chemscore.Metal>
0.0000

> <Gold.Chemscore.Lipo>
134.3098

> <Gold.Chemscore.Internal_Hbond>
0.0000

> <Gold.Chemscore.DEClash>
0.4135

> <Gold.Chemscore.DEInternal>
6.5343

> <Gold.Chemscore.Rot>
2.1136

> <Gold.Chemscore.Internal.Correction>
   9.000000E+99

> <Gold.Chemscore.Hbonds>
donor molecule, donor type, donor heavy atom, donor atom, acceptor molecule, acceptor atom, score
      P1  H  7989  7998       L1     5  0.22
      P1  H  7997  8009       L1     1  0.29

> <Gold.Chemscore.Hbond.Weighted>
-5.2624

> <Gold.Chemscore.Metal.Weighted>
-0.0000

> <Gold.Chemscore.Lipo.Weighted>
-15.7143

> <Gold.Chemscore.Internal_Hbond.Weighted>
0.0000

> <Gold.Chemscore.DEClash.Weighted>
0.4135

> <Gold.Chemscore.DEInternal.Weighted>
6.5343

> <Gold.Chemscore.Rot.Weighted>
5.4107

> <Gold.Chemscore.Internal.Correction.Weighted>
   9.000000E+99

> <Gold.Protein.RotatedTorsions>
[ 6907 6896 6895 6894 ] final -178.75 input  -60.11 | X-H torsion
[ 7974 7965 7964 7962 ] final   49.42 input  175.53 | X-H torsion
[ 8008 7997 7996 7995 ] final  142.63 input   59.86 | X-H torsion
[ 10167 10162 10161 10158 ] final -143.57 input  -65.29 | X-H torsion
[ 10718 10713 10712 10709 ] final  -75.92 input   66.30 | X-H torsion
[ 10763 10752 10751 10750 ] final   65.67 input  -60.55 | X-H torsion
[ 11005 11000 10999 10996 ] final  136.94 input  -57.11 | X-H torsion

> <Gold.Protein.ActiveResidues>
 VAL166  LYS551  ARG553  GLY616  TRP617  ASP618  TYR619  PRO620  LYS621  CYS622 
 ASP623  PHE694  ASN695  SER759  ASP760  ASP761  ALA762  ILE779  LEU786  VAL792 
 PHE793  MET794  SER795  GLU796  ALA797  LYS798  CYS799  TRP800  GLU811  SER814 

> <Gold.Protein.RotatedAtoms>
  151.6422  133.3325  159.3132 H   0  0  0  0  0  0  0  0  0  0  0  0  # atno 6907 bound_to 6896
  150.8002  134.7094  159.6604 H   0  0  0  0  0  0  0  0  0  0  0  0  # atno 6908 bound_to 6896
  152.4093  134.6156  160.0088 H   0  0  0  0  0  0  0  0  0  0  0  0  # atno 6909 bound_to 6896
  146.0110  139.4544  142.9956 H   0  0  0  0  0  0  0  0  0  0  0  0  # atno 7974 bound_to 7965
  156.2946  140.2284  156.4759 H   0  0  0  0  0  0  0  0  0  0  0  0  # atno 8008 bound_to 7997
  154.7895  140.0455  157.1211 H   0  0  0  0  0  0  0  0  0  0  0  0  # atno 8009 bound_to 7997
  154.9662  140.3060  155.5012 H   0  0  0  0  0  0  0  0  0  0  0  0  # atno 8010 bound_to 7997
  139.7981  143.7872  152.2656 H   0  0  0  0  0  0  0  0  0  0  0  0  # atno 10167 bound_to 10162
  156.0191  130.4453  150.3116 H   0  0  0  0  0  0  0  0  0  0  0  0  # atno 10718 bound_to 10713
  153.0106  135.5348  154.6704 H   0  0  0  0  0  0  0  0  0  0  0  0  # atno 10763 bound_to 10752
  154.5890  135.2857  155.0657 H   0  0  0  0  0  0  0  0  0  0  0  0  # atno 10764 bound_to 10752
  154.1758  135.6524  153.5073 H   0  0  0  0  0  0  0  0  0  0  0  0  # atno 10765 bound_to 10752
  140.0080  134.9451  157.0217 H   0  0  0  0  0  0  0  0  0  0  0  0  # atno 11005 bound_to 11000
  145.7341  141.0032  143.1336 LP  0  0  0  0  0  0  0  0  0  0  0  0  # atno 17320 bound_to 7965
  144.6953  139.9020  143.7459 LP  0  0  0  0  0  0  0  0  0  0  0  0  # atno 17321 bound_to 7965
  139.7983  144.7384  150.9859 LP  0  0  0  0  0  0  0  0  0  0  0  0  # atno 17342 bound_to 10162
  140.7820  143.4370  151.0608 LP  0  0  0  0  0  0  0  0  0  0  0  0  # atno 17343 bound_to 10162
  157.1217  131.0248  151.3006 LP  0  0  0  0  0  0  0  0  0  0  0  0  # atno 17370 bound_to 10713
  157.4622  130.7660  149.7246 LP  0  0  0  0  0  0  0  0  0  0  0  0  # atno 17371 bound_to 10713
  140.4605  134.1488  155.7191 LP  0  0  0  0  0  0  0  0  0  0  0  0  # atno 17394 bound_to 11000
  141.1691  133.8645  157.1626 LP  0  0  0  0  0  0  0  0  0  0  0  0  # atno 17395 bound_to 11000

$$$$
