AV-unprocessed.smi:899|AV-procd|sdf|4087|dock7
  -GOLD-   22720 1573D 1   1.00000     0.00000
 Structure written by MMmdl.
 33 34  0  0  0  0  0  0  0  0  1 V2000
  148.8578  144.9294  160.8271 N   0  0  0  0  0  0  0  0  0  0  0  0
  149.9883  144.8163  160.6087 C   0  0  0  0  0  0  0  0  0  0  0  0
  151.4254  144.6722  160.3309 C   0  0  0  0  0  0  0  0  0  0  0  0
  151.7360  143.3922  159.5829 C   0  0  0  0  0  0  0  0  0  0  0  0
  152.7262  142.5149  160.0661 C   0  0  0  0  0  0  0  0  0  0  0  0
  153.0135  141.3238  159.3724 C   0  0  0  0  0  0  0  0  0  0  0  0
  152.3189  140.9894  158.1917 C   0  0  0  0  0  0  0  0  0  0  0  0
  152.6601  139.8018  157.5808 O   0  0  0  0  0  0  0  0  0  0  0  0
  151.7165  139.2010  156.7052 C   0  0  0  0  0  0  0  0  0  0  0  0
  151.7415  139.9575  155.3680 C   0  0  0  0  0  0  0  0  0  0  0  0
  150.5026  139.8486  154.6384 N   0  0  0  0  0  0  0  0  0  0  0  0
  149.5026  140.8051  154.7228 C   0  0  0  0  0  0  0  0  0  0  0  0
  148.3261  140.7099  154.0573 C   0  0  0  0  0  0  0  0  0  0  0  0
  147.1276  141.9441  154.2137 Cl  0  0  0  0  0  0  0  0  0  0  0  0
  148.0612  139.5543  153.2008 C   0  0  0  0  0  0  0  0  0  0  0  0
  147.0332  139.3687  152.5526 O   0  0  0  0  0  0  0  0  0  0  0  0
  149.0936  138.6124  153.1525 N   0  0  0  0  0  0  0  0  0  0  0  0
  150.3068  138.7012  153.8358 C   0  0  0  0  0  0  0  0  0  0  0  0
  151.1419  137.8037  153.7237 O   0  0  0  0  0  0  0  0  0  0  0  0
  151.3257  141.8791  157.7091 C   0  0  0  0  0  0  0  0  0  0  0  0
  151.0382  143.0712  158.4019 C   0  0  0  0  0  0  0  0  0  0  0  0
  148.9476  137.7968  152.5753 H   0  0  0  0  0  0  0  0  0  0  0  0
  151.7518  145.5315  159.7446 H   0  0  0  0  0  0  0  0  0  0  0  0
  151.9634  144.6984  161.2789 H   0  0  0  0  0  0  0  0  0  0  0  0
  153.2680  142.7538  160.9697 H   0  0  0  0  0  0  0  0  0  0  0  0
  153.7746  140.6582  159.7525 H   0  0  0  0  0  0  0  0  0  0  0  0
  151.9668  138.1505  156.5489 H   0  0  0  0  0  0  0  0  0  0  0  0
  150.7164  139.2530  157.1388 H   0  0  0  0  0  0  0  0  0  0  0  0
  151.9066  141.0234  155.5318 H   0  0  0  0  0  0  0  0  0  0  0  0
  152.5458  139.6206  154.7102 H   0  0  0  0  0  0  0  0  0  0  0  0
  149.6636  141.6702  155.3507 H   0  0  0  0  0  0  0  0  0  0  0  0
  150.7682  141.6701  156.8088 H   0  0  0  0  0  0  0  0  0  0  0  0
  150.2784  143.7388  158.0227 H   0  0  0  0  0  0  0  0  0  0  0  0
  1  2  3  0  0  0  0
  2  3  1  0  0  0  0
  3  4  1  0  0  0  0
  3 23  1  0  0  0  0
  3 24  1  0  0  0  0
  4 21  1  0  0  0  0
  4  5  2  0  0  0  0
  5  6  1  0  0  0  0
  5 25  1  0  0  0  0
  6  7  2  0  0  0  0
  6 26  1  0  0  0  0
  7  8  1  0  0  0  0
  7 20  1  0  0  0  0
  8  9  1  0  0  0  0
  9 10  1  0  0  0  0
  9 27  1  0  0  0  0
  9 28  1  0  0  0  0
 10 11  1  0  0  0  0
 10 29  1  0  0  0  0
 10 30  1  0  0  0  0
 11 18  1  0  0  0  0
 11 12  1  0  0  0  0
 12 13  2  0  0  0  0
 12 31  1  0  0  0  0
 13 14  1  0  0  0  0
 13 15  1  0  0  0  0
 15 16  2  0  0  0  0
 15 17  1  0  0  0  0
 17 22  1  0  0  0  0
 17 18  1  0  0  0  0
 18 19  2  0  0  0  0
 20 21  2  0  0  0  0
 20 32  1  0  0  0  0
 21 33  1  0  0  0  0
M  END
> <s_m_source_file>
AV-unprocessed.smi

> <i_m_source_file_index>
899

> <i_lp_mmshare_version>
43012

> <i_f3d_flags>
0

> <s_epik_input>
TiNDW0NIMl1jMVtjSF1bY0hdYyhbY0hdW2NIXTEpT1tDSDJdW0NIMl1uMltjSF1jKENsKWMoPU8pW25IXWMyPU8=

> <s_epik_cmdline>
J2VwaWtfcHl0aG9uJywgJy1waCcsICc3LjAnLCAnLXRuJywgJzgnLCAnLW1hJywgJzIwMCcsICctbWV0YWxfYmluZGluZycsICctaW1hZScsICc8aW5maWxlLm1hZT4nLCAnLW9tYWUnLCAnPG91dGZpbGUubWFlPic=

> <r_lp_tautomer_probability>
0.999537

> <r_epik_Ionization_Penalty>
0.0457407

> <r_epik_Ionization_Penalty_Charging>
0.0457407

> <r_epik_Ionization_Penalty_Neutral>
1.03254e-10

> <r_epik_State_Penalty>
0.0388483

> <r_epik_Charging_Adjusted_Penalty>
0.0845889

> <i_epik_Tot_Q>
0

> <i_epik_Tot_abs_Q>
0

> <r_epik_Metal_State_Penalty>
2.50663

> <b_epik_Metal_Only>
0

> <s_lp_Force_Field>
OPLS_2005

> <r_lp_Energy>
13.2906

> <b_lp_Chiralities_Consistent>
1

> <s_lp_Variant>
AV-unprocessed.smi:899-1

> <Gold.Version>
5.8.1

> <Gold.Id.Protein>
6NUR|6NUR_protein|mol2

> <Gold.PLP.Fitness>
50.7446

> <Gold.PLP.PLP>
-46.5845

> <Gold.PLP.part.hbond>
-4.0000

> <Gold.PLP.part.metal>
0.0000

> <Gold.PLP.part.buried>
-1.3414

> <Gold.PLP.part.nonpolar>
-41.4847

> <Gold.PLP.part.repulsive>
1.2977

> <Gold.PLP.ligand.clash>
0.0000

> <Gold.PLP.ligand.torsion>
0.9274

> <Gold.PLP.Chemscore.Hbond>
2.0000

> <Gold.PLP.Chemscore.CHOScore>
0.0000

> <Gold.PLP.Chemscore.Metal>
0.0000

> <Gold.Chemscore.Hbonds>
donor molecule, donor type, donor heavy atom, donor atom, acceptor molecule, acceptor atom, score
      L1  H    17    22       P1  7948  1.00
      P1  H  7997  8009       L1     8  1.00

> <Gold.PLP.Chemscore.Internal.Correction>
0.0149

> <Gold.Rescore>
     Score         DG    S(hbond)    S(metal)    S(lipo)     H(rot)  DE(clash)    DE(int)     intcor
     15.42     -17.33       1.66        0.00     104.61       2.32       0.79       1.12       ----

> <Gold.Chemscore.Fitness>
15.4173

> <Gold.Chemscore.DG>
-17.3276

> <Gold.Chemscore.ZeroCoef>
-5.4800

> <Gold.Chemscore.Hbond>
1.6587

> <Gold.Chemscore.Metal>
0.0000

> <Gold.Chemscore.Lipo>
104.6142

> <Gold.Chemscore.Internal_Hbond>
0.0000

> <Gold.Chemscore.DEClash>
0.7885

> <Gold.Chemscore.DEInternal>
1.1218

> <Gold.Chemscore.Rot>
2.3174

> <Gold.Chemscore.Internal.Correction>
   9.000000E+99

> <Gold.Chemscore.Hbonds>
donor molecule, donor type, donor heavy atom, donor atom, acceptor molecule, acceptor atom, score
      L1  H    17    22       P1  7948  1.00
      P1  H  7997  8009       L1     8  0.48

> <Gold.Chemscore.Hbond.Weighted>
-5.5402

> <Gold.Chemscore.Metal.Weighted>
-0.0000

> <Gold.Chemscore.Lipo.Weighted>
-12.2399

> <Gold.Chemscore.Internal_Hbond.Weighted>
0.0000

> <Gold.Chemscore.DEClash.Weighted>
0.7885

> <Gold.Chemscore.DEInternal.Weighted>
1.1218

> <Gold.Chemscore.Rot.Weighted>
5.9324

> <Gold.Chemscore.Internal.Correction.Weighted>
   9.000000E+99

> <Gold.Protein.RotatedTorsions>
[ 6907 6896 6895 6894 ] final -114.52 input  -60.11 | X-H torsion
[ 7974 7965 7964 7962 ] final   37.69 input  175.53 | X-H torsion
[ 8008 7997 7996 7995 ] final  170.94 input   59.86 | X-H torsion
[ 10167 10162 10161 10158 ] final  -99.83 input  -65.29 | X-H torsion
[ 10718 10713 10712 10709 ] final   44.53 input   66.30 | X-H torsion
[ 10763 10752 10751 10750 ] final   29.63 input  -60.55 | X-H torsion
[ 11005 11000 10999 10996 ] final -173.96 input  -57.11 | X-H torsion

> <Gold.Protein.ActiveResidues>
 VAL166  LYS551  ARG553  GLY616  TRP617  ASP618  TYR619  PRO620  LYS621  CYS622 
 ASP623  PHE694  ASN695  SER759  ASP760  ASP761  ALA762  ILE779  LEU786  VAL792 
 PHE793  MET794  SER795  GLU796  ALA797  LYS798  CYS799  TRP800  GLU811  SER814 

> <Gold.Protein.RotatedAtoms>
  150.7909  133.8789  159.3279 H   0  0  0  0  0  0  0  0  0  0  0  0  # atno 6907 bound_to 6896
  151.6627  135.0985  160.0192 H   0  0  0  0  0  0  0  0  0  0  0  0  # atno 6908 bound_to 6896
  152.3982  133.6740  159.6329 H   0  0  0  0  0  0  0  0  0  0  0  0  # atno 6909 bound_to 6896
  146.1119  139.5863  142.9347 H   0  0  0  0  0  0  0  0  0  0  0  0  # atno 7974 bound_to 7965
  156.1318  140.1525  156.9054 H   0  0  0  0  0  0  0  0  0  0  0  0  # atno 8008 bound_to 7997
  154.4915  140.0850  156.7644 H   0  0  0  0  0  0  0  0  0  0  0  0  # atno 8009 bound_to 7997
  155.4242  140.3424  155.4276 H   0  0  0  0  0  0  0  0  0  0  0  0  # atno 8010 bound_to 7997
  140.2583  143.3425  152.0650 H   0  0  0  0  0  0  0  0  0  0  0  0  # atno 10167 bound_to 10162
  157.4278  130.8007  149.7574 H   0  0  0  0  0  0  0  0  0  0  0  0  # atno 10718 bound_to 10713
  153.0419  135.6484  154.0920 H   0  0  0  0  0  0  0  0  0  0  0  0  # atno 10763 bound_to 10752
  154.0625  135.2887  155.3324 H   0  0  0  0  0  0  0  0  0  0  0  0  # atno 10764 bound_to 10752
  154.6648  135.5378  153.8128 H   0  0  0  0  0  0  0  0  0  0  0  0  # atno 10765 bound_to 10752
  140.4799  134.6085  157.4915 H   0  0  0  0  0  0  0  0  0  0  0  0  # atno 11005 bound_to 11000
  145.5647  141.0401  143.2207 LP  0  0  0  0  0  0  0  0  0  0  0  0  # atno 17320 bound_to 7965
  144.7519  139.7173  143.7270 LP  0  0  0  0  0  0  0  0  0  0  0  0  # atno 17321 bound_to 7965
  139.5024  144.6735  151.6185 LP  0  0  0  0  0  0  0  0  0  0  0  0  # atno 17342 bound_to 10162
  140.5986  143.9651  150.6371 LP  0  0  0  0  0  0  0  0  0  0  0  0  # atno 17343 bound_to 10162
  155.9902  130.3946  150.3037 LP  0  0  0  0  0  0  0  0  0  0  0  0  # atno 17370 bound_to 10713
  157.1191  131.0242  151.3017 LP  0  0  0  0  0  0  0  0  0  0  0  0  # atno 17371 bound_to 10713
  139.9833  134.7102  155.9820 LP  0  0  0  0  0  0  0  0  0  0  0  0  # atno 17394 bound_to 11000
  141.1536  133.6545  156.4091 LP  0  0  0  0  0  0  0  0  0  0  0  0  # atno 17395 bound_to 11000

$$$$
