AV-unprocessed.smi:2822|AV-procd|sdf|10861|dock9
  -GOLD-   2272015303D 1   1.00000     0.00000
 Structure written by MMmdl.
 41 43  0  0  0  0  0  0  0  0  3 V2000
  144.9602  130.4352  151.9669 Cl  0  0  0  0  0  0  0  0  0  0  0  0
  144.9024  132.0667  151.3975 C   0  0  0  0  0  0  0  0  0  0  0  0
  143.7460  132.5235  150.7321 C   0  0  0  0  0  0  0  0  0  0  0  0
  143.6830  133.7948  150.2827 N   0  3  0  0  0  0  0  0  0  0  0  0
  144.6951  134.6739  150.4392 C   0  0  0  0  0  0  0  0  0  0  0  0
  145.8771  134.2764  151.0971 C   0  0  0  0  0  0  0  0  0  0  0  0
  145.9919  132.9521  151.5890 C   0  0  0  0  0  0  0  0  0  0  0  0
  147.1415  132.4935  152.2508 N   0  0  0  0  0  0  0  0  0  0  0  0
  148.1594  133.4160  152.7304 C   0  0  0  0  0  0  0  0  0  0  0  0
  148.1481  133.5168  154.2692 C   0  0  1  0  0  0  0  0  0  0  0  0
  149.4120  134.1857  154.8436 C   0  0  0  0  0  0  0  0  0  0  0  0
  149.4209  135.6451  154.5850 N   0  3  2  0  0  0  0  0  0  0  0  0
  150.6489  136.2982  155.1062 C   0  0  0  0  0  0  0  0  0  0  0  0
  150.6766  137.7934  154.7520 C   0  0  0  0  0  0  0  0  0  0  0  0
  149.4192  138.4984  155.2743 C   0  0  0  0  0  0  0  0  0  0  0  0
  148.1651  137.7932  154.7419 C   0  0  0  0  0  0  0  0  0  0  0  0
  148.1754  136.2892  155.0827 C   0  0  1  0  0  0  0  0  0  0  0  0
  146.9437  135.5814  154.4883 C   0  0  0  0  0  0  0  0  0  0  0  0
  146.9890  134.1862  154.7660 O   0  0  0  0  0  0  0  0  0  0  0  0
  142.8745  131.9126  150.5471 H   0  0  0  0  0  0  0  0  0  0  0  0
  144.5311  135.6622  150.0350 H   0  0  0  0  0  0  0  0  0  0  0  0
  146.6769  134.9932  151.2088 H   0  0  0  0  0  0  0  0  0  0  0  0
  147.1820  131.5306  152.5562 H   0  0  0  0  0  0  0  0  0  0  0  0
  149.1346  133.0512  152.4057 H   0  0  0  0  0  0  0  0  0  0  0  0
  148.0206  134.3935  152.2690 H   0  0  0  0  0  0  0  0  0  0  0  0
  148.1105  132.4997  154.6616 H   0  0  0  0  0  0  0  0  0  0  0  0
  149.4541  134.0168  155.9208 H   0  0  0  0  0  0  0  0  0  0  0  0
  150.3058  133.7266  154.4190 H   0  0  0  0  0  0  0  0  0  0  0  0
  150.7003  136.1698  156.1886 H   0  0  0  0  0  0  0  0  0  0  0  0
  151.5285  135.8084  154.6869 H   0  0  0  0  0  0  0  0  0  0  0  0
  151.5675  138.2602  155.1731 H   0  0  0  0  0  0  0  0  0  0  0  0
  150.7451  137.9150  153.6700 H   0  0  0  0  0  0  0  0  0  0  0  0
  149.4150  138.4875  156.3650 H   0  0  0  0  0  0  0  0  0  0  0  0
  149.4203  139.5460  154.9714 H   0  0  0  0  0  0  0  0  0  0  0  0
  147.2742  138.2648  155.1591 H   0  0  0  0  0  0  0  0  0  0  0  0
  148.1072  137.9278  153.6607 H   0  0  0  0  0  0  0  0  0  0  0  0
  148.1477  136.1765  156.1682 H   0  0  0  0  0  0  0  0  0  0  0  0
  146.0328  135.9872  154.9289 H   0  0  0  0  0  0  0  0  0  0  0  0
  146.8676  135.7554  153.4147 H   0  0  0  0  0  0  0  0  0  0  0  0
  149.4310  135.7658  153.5825 H   0  0  0  0  0  0  0  0  0  0  0  0
  142.8361  134.1032  149.8040 H   0  0  0  0  0  0  0  0  0  0  0  0
  1  2  1  0  0  0  0
  2  7  1  0  0  0  0
  2  3  2  0  0  0  0
  3  4  1  0  0  0  0
  3 20  1  0  0  0  0
  4  5  2  0  0  0  0
  4 41  1  0  0  0  0
  5  6  1  0  0  0  0
  5 21  1  0  0  0  0
  6  7  2  0  0  0  0
  6 22  1  0  0  0  0
  7  8  1  0  0  0  0
  8  9  1  0  0  0  0
  8 23  1  0  0  0  0
  9 10  1  0  0  0  0
  9 24  1  0  0  0  0
  9 25  1  0  0  0  0
 10 19  1  0  0  0  0
 10 11  1  0  0  0  0
 10 26  1  0  0  0  0
 11 12  1  0  0  0  0
 11 27  1  0  0  0  0
 11 28  1  0  0  0  0
 12 17  1  0  0  0  0
 12 13  1  0  0  0  0
 12 40  1  0  0  0  0
 13 14  1  0  0  0  0
 13 29  1  0  0  0  0
 13 30  1  0  0  0  0
 14 15  1  0  0  0  0
 14 31  1  0  0  0  0
 14 32  1  0  0  0  0
 15 16  1  0  0  0  0
 15 33  1  0  0  0  0
 15 34  1  0  0  0  0
 16 17  1  0  0  0  0
 16 35  1  0  0  0  0
 16 36  1  0  0  0  0
 17 18  1  0  0  0  0
 17 37  1  0  0  0  0
 18 19  1  0  0  0  0
 18 38  1  0  0  0  0
 18 39  1  0  0  0  0
M  CHG  1   4   1
M  CHG  1  12   1
M  END
> <s_m_source_file>
AV-unprocessed.smi

> <i_m_source_file_index>
2822

> <i_lp_mmshare_version>
43012

> <i_f3d_flags>
0

> <s_epik_input>
Q2xjMVtjSF1uW2NIXVtjSF1jMVtOSF1bQ0gyXVtDQEhdKFtDSDJdMilPW0NIMl1bQ0BASF0oTjIzKVtDSDJdW0NIMl1bQ0gyXVtDSDJdMw==

> <s_epik_cmdline>
J2VwaWtfcHl0aG9uJywgJy1waCcsICc3LjAnLCAnLXRuJywgJzgnLCAnLW1hJywgJzIwMCcsICctbWV0YWxfYmluZGluZycsICctaW1hZScsICc8aW5maWxlLm1hZT4nLCAnLW9tYWUnLCAnPG91dGZpbGUubWFlPic=

> <r_lp_tautomer_probability>
1

> <r_epik_Ionization_Penalty>
0.254999

> <r_epik_Ionization_Penalty_Charging>
0.254956

> <r_epik_Ionization_Penalty_Neutral>
4.33524e-05

> <r_epik_State_Penalty>
0.230978

> <r_epik_Charging_Adjusted_Penalty>
0.485934

> <i_epik_Tot_Q>
2

> <i_epik_Tot_abs_Q>
2

> <r_epik_Metal_State_Penalty>
3.47007

> <b_epik_Metal_Only>
0

> <s_lp_Force_Field>
OPLS_2005

> <r_lp_Energy>
41.9056

> <b_lp_Chiralities_Consistent>
1

> <s_lp_Variant>
AV-unprocessed.smi:2822-2

> <Gold.Version>
5.8.1

> <Gold.Id.Protein>
6NUR|6NUR_protein|mol2

> <Gold.PLP.Fitness>
44.6118

> <Gold.PLP.PLP>
-32.9611

> <Gold.PLP.part.hbond>
-3.0000

> <Gold.PLP.part.metal>
0.0000

> <Gold.PLP.part.buried>
-4.5253

> <Gold.PLP.part.nonpolar>
-25.3756

> <Gold.PLP.part.repulsive>
0.1073

> <Gold.PLP.ligand.clash>
0.0000

> <Gold.PLP.ligand.torsion>
0.1778

> <Gold.PLP.Chemscore.Hbond>
4.0000

> <Gold.PLP.Chemscore.CHOScore>
0.0000

> <Gold.PLP.Chemscore.Metal>
0.0000

> <Gold.Chemscore.Hbonds>
donor molecule, donor type, donor heavy atom, donor atom, acceptor molecule, acceptor atom, score
      L1  H     4    41       P1 10186  2.00
      L1  H    12    40       P1  7948  2.00

> <Gold.PLP.Chemscore.Internal.Correction>
0.0064

> <Gold.Rescore>
     Score         DG    S(hbond)    S(metal)    S(lipo)     H(rot)  DE(clash)    DE(int)     intcor
     18.14     -18.41       1.86        0.00      83.54       1.20       0.06       0.21       ----

> <Gold.Chemscore.Fitness>
18.1429

> <Gold.Chemscore.DG>
-18.4063

> <Gold.Chemscore.ZeroCoef>
-5.4800

> <Gold.Chemscore.Hbond>
1.8606

> <Gold.Chemscore.Metal>
0.0000

> <Gold.Chemscore.Lipo>
83.5416

> <Gold.Chemscore.Internal_Hbond>
0.0000

> <Gold.Chemscore.DEClash>
0.0584

> <Gold.Chemscore.DEInternal>
0.2050

> <Gold.Chemscore.Rot>
1.1962

> <Gold.Chemscore.Internal.Correction>
   9.000000E+99

> <Gold.Chemscore.Hbonds>
donor molecule, donor type, donor heavy atom, donor atom, acceptor molecule, acceptor atom, score
      L1  H     4    41       P1 10186  0.99
      L1  H    12    40       P1  7948  0.40

> <Gold.Chemscore.Hbond.Weighted>
-6.2143

> <Gold.Chemscore.Metal.Weighted>
-0.0000

> <Gold.Chemscore.Lipo.Weighted>
-9.7744

> <Gold.Chemscore.Internal_Hbond.Weighted>
0.0000

> <Gold.Chemscore.DEClash.Weighted>
0.0584

> <Gold.Chemscore.DEInternal.Weighted>
0.2050

> <Gold.Chemscore.Rot.Weighted>
3.0623

> <Gold.Chemscore.Internal.Correction.Weighted>
   9.000000E+99

> <Gold.Protein.RotatedTorsions>
[ 6907 6896 6895 6894 ] final -151.35 input  -60.11 | X-H torsion
[ 7974 7965 7964 7962 ] final  -60.92 input  175.53 | X-H torsion
[ 8008 7997 7996 7995 ] final  -81.31 input   59.86 | X-H torsion
[ 10167 10162 10161 10158 ] final  -16.82 input  -65.29 | X-H torsion
[ 10718 10713 10712 10709 ] final   25.87 input   66.30 | X-H torsion
[ 10763 10752 10751 10750 ] final  144.28 input  -60.55 | X-H torsion
[ 11005 11000 10999 10996 ] final  144.77 input  -57.11 | X-H torsion

> <Gold.Protein.ActiveResidues>
 VAL166  LYS551  ARG553  GLY616  TRP617  ASP618  TYR619  PRO620  LYS621  CYS622 
 ASP623  PHE694  ASN695  SER759  ASP760  ASP761  ALA762  ILE779  LEU786  VAL792 
 PHE793  MET794  SER795  GLU796  ALA797  LYS798  CYS799  TRP800  GLU811  SER814 

> <Gold.Protein.RotatedAtoms>
  151.2119  133.4551  159.2598 H   0  0  0  0  0  0  0  0  0  0  0  0  # atno 6907 bound_to 6896
  151.0968  134.9949  159.8440 H   0  0  0  0  0  0  0  0  0  0  0  0  # atno 6908 bound_to 6896
  152.5440  134.2048  159.8779 H   0  0  0  0  0  0  0  0  0  0  0  0  # atno 6909 bound_to 6896
  145.8097  140.8606  143.0188 H   0  0  0  0  0  0  0  0  0  0  0  0  # atno 7974 bound_to 7965
  154.5970  140.0650  156.9317 H   0  0  0  0  0  0  0  0  0  0  0  0  # atno 8008 bound_to 7997
  155.2197  140.3329  155.4299 H   0  0  0  0  0  0  0  0  0  0  0  0  # atno 8009 bound_to 7997
  156.2294  140.1834  156.7266 H   0  0  0  0  0  0  0  0  0  0  0  0  # atno 8010 bound_to 7997
  140.7239  143.5078  150.9788 H   0  0  0  0  0  0  0  0  0  0  0  0  # atno 10167 bound_to 10162
  157.1992  130.6882  149.6181 H   0  0  0  0  0  0  0  0  0  0  0  0  # atno 10718 bound_to 10713
  153.9863  135.2936  155.3416 H   0  0  0  0  0  0  0  0  0  0  0  0  # atno 10763 bound_to 10752
  154.7240  135.5097  153.8860 H   0  0  0  0  0  0  0  0  0  0  0  0  # atno 10764 bound_to 10752
  153.0831  135.6685  154.0120 H   0  0  0  0  0  0  0  0  0  0  0  0  # atno 10765 bound_to 10752
  140.0659  134.9179  157.1263 H   0  0  0  0  0  0  0  0  0  0  0  0  # atno 11005 bound_to 11000
  144.6759  140.0377  143.7481 LP  0  0  0  0  0  0  0  0  0  0  0  0  # atno 17320 bound_to 7965
  145.9791  139.2927  143.1053 LP  0  0  0  0  0  0  0  0  0  0  0  0  # atno 17321 bound_to 7965
  139.8790  143.7096  152.3159 LP  0  0  0  0  0  0  0  0  0  0  0  0  # atno 17342 bound_to 10162
  139.7371  144.7568  151.0710 LP  0  0  0  0  0  0  0  0  0  0  0  0  # atno 17343 bound_to 10162
  155.9702  130.4588  150.6014 LP  0  0  0  0  0  0  0  0  0  0  0  0  # atno 17370 bound_to 10713
  157.3783  131.0777  151.1498 LP  0  0  0  0  0  0  0  0  0  0  0  0  # atno 17371 bound_to 10713
  140.3700  134.2401  155.7179 LP  0  0  0  0  0  0  0  0  0  0  0  0  # atno 17394 bound_to 11000
  141.1992  133.8016  157.0545 LP  0  0  0  0  0  0  0  0  0  0  0  0  # atno 17395 bound_to 11000

$$$$
