AV-unprocessed.smi:1809|AV-procd|sdf|7331|dock6
  -GOLD-   22720 8593D 1   1.00000     0.00000
 Structure written by MMmdl.
 38 40  0  0  0  0  0  0  0  0  2 V2000
  146.7433  134.1497  162.2027 C   0  0  0  0  0  0  0  0  0  0  0  0
  147.2527  135.3333  161.4537 C   0  0  0  0  0  0  0  0  0  0  0  0
  147.1356  136.5827  161.9100 N   0  0  0  0  0  0  0  0  0  0  0  0
  147.6861  137.5111  161.0382 N   0  0  0  0  0  0  0  0  0  0  0  0
  148.2223  136.9519  159.9440 C   0  0  0  0  0  0  0  0  0  0  0  0
  148.8031  137.6785  158.9748 N   0  5  0  0  0  0  0  0  0  0  0  0
  149.5348  137.0657  158.0163 C   0  0  0  0  0  0  0  0  0  0  0  0
  149.9746  135.9143  158.0561 O   0  0  0  0  0  0  0  0  0  0  0  0
  149.7713  137.8323  156.9440 N   0  0  0  0  0  0  0  0  0  0  0  0
  150.5349  137.4225  155.7729 C   0  0  0  0  0  0  0  0  0  0  0  0
  151.5777  138.4930  155.3978 C   0  0  2  0  0  0  0  0  0  0  0  0
  152.3598  139.0228  156.6234 C   0  0  0  0  0  0  0  0  0  0  0  0
  151.5358  139.9230  157.4086 N   0  0  0  0  0  0  0  0  0  0  0  0
  152.1685  140.5693  158.5347 C   0  0  0  0  0  0  0  0  0  0  0  0
  151.2177  141.7247  158.8930 C   0  0  0  0  0  0  0  0  0  0  0  0
  150.3842  141.9487  157.6119 C   0  0  0  0  0  0  0  0  0  0  0  0
  151.0512  141.0110  156.6038 C   0  0  2  0  0  0  0  0  0  0  0  0
  150.1897  140.4896  155.4459 C   0  0  0  0  0  0  0  0  0  0  0  0
  150.9802  139.5808  154.6732 O   0  0  0  0  0  0  0  0  0  0  0  0
  148.0615  135.1961  159.9017 S   0  0  0  0  0  0  0  0  0  0  0  0
  147.4745  133.8394  162.9493 H   0  0  0  0  0  0  0  0  0  0  0  0
  146.5651  133.3189  161.5199 H   0  0  0  0  0  0  0  0  0  0  0  0
  145.8072  134.3933  162.7060 H   0  0  0  0  0  0  0  0  0  0  0  0
  149.4009  138.7713  156.9463 H   0  0  0  0  0  0  0  0  0  0  0  0
  151.0099  136.4599  155.9650 H   0  0  0  0  0  0  0  0  0  0  0  0
  149.8482  137.2732  154.9385 H   0  0  0  0  0  0  0  0  0  0  0  0
  152.2958  138.0249  154.7235 H   0  0  0  0  0  0  0  0  0  0  0  0
  152.7090  138.1950  157.2412 H   0  0  0  0  0  0  0  0  0  0  0  0
  153.2497  139.5511  156.2781 H   0  0  0  0  0  0  0  0  0  0  0  0
  152.3207  139.8770  159.3631 H   0  0  0  0  0  0  0  0  0  0  0  0
  153.1415  140.9677  158.2423 H   0  0  0  0  0  0  0  0  0  0  0  0
  150.5675  141.4516  159.7249 H   0  0  0  0  0  0  0  0  0  0  0  0
  151.7749  142.6168  159.1806 H   0  0  0  0  0  0  0  0  0  0  0  0
  149.3469  141.6576  157.7827 H   0  0  0  0  0  0  0  0  0  0  0  0
  150.3953  142.9864  157.2776 H   0  0  0  0  0  0  0  0  0  0  0  0
  151.9058  141.5397  156.1760 H   0  0  0  0  0  0  0  0  0  0  0  0
  149.2899  139.9949  155.8128 H   0  0  0  0  0  0  0  0  0  0  0  0
  149.8651  141.3120  154.8085 H   0  0  0  0  0  0  0  0  0  0  0  0
  1  2  1  0  0  0  0
  1 21  1  0  0  0  0
  1 22  1  0  0  0  0
  1 23  1  0  0  0  0
  2 20  1  0  0  0  0
  2  3  2  0  0  0  0
  3  4  1  0  0  0  0
  4  5  2  0  0  0  0
  5  6  1  0  0  0  0
  5 20  1  0  0  0  0
  6  7  1  0  0  0  0
  7  8  2  0  0  0  0
  7  9  1  0  0  0  0
  9 10  1  0  0  0  0
  9 24  1  0  0  0  0
 10 11  1  0  0  0  0
 10 25  1  0  0  0  0
 10 26  1  0  0  0  0
 11 19  1  0  0  0  0
 11 12  1  0  0  0  0
 11 27  1  0  0  0  0
 12 13  1  0  0  0  0
 12 28  1  0  0  0  0
 12 29  1  0  0  0  0
 13 17  1  0  0  0  0
 13 14  1  0  0  0  0
 14 15  1  0  0  0  0
 14 30  1  0  0  0  0
 14 31  1  0  0  0  0
 15 16  1  0  0  0  0
 15 32  1  0  0  0  0
 15 33  1  0  0  0  0
 16 17  1  0  0  0  0
 16 34  1  0  0  0  0
 16 35  1  0  0  0  0
 17 18  1  0  0  0  0
 17 36  1  0  0  0  0
 18 19  1  0  0  0  0
 18 37  1  0  0  0  0
 18 38  1  0  0  0  0
M  CHG  1   6  -1
M  END
> <s_m_source_file>
AV-unprocessed.smi

> <i_m_source_file_index>
1809

> <i_lp_mmshare_version>
43012

> <i_f3d_flags>
0

> <s_epik_input>
W0NIM11jMW5uYyhzMSlbTkhdQyg9TylbTkhdW0NIMl1bQ0BIXShbQ0gyXTIpT1tDSDJdW0NAQEhdKE4yMylbQ0gyXVtDSDJdW0NIMl0z

> <s_epik_cmdline>
J2VwaWtfcHl0aG9uJywgJy1waCcsICc3LjAnLCAnLXRuJywgJzgnLCAnLW1hJywgJzIwMCcsICctbWV0YWxfYmluZGluZycsICctaW1hZScsICc8aW5maWxlLm1hZT4nLCAnLW9tYWUnLCAnPG91dGZpbGUubWFlPic=

> <r_lp_tautomer_probability>
1

> <r_epik_Ionization_Penalty>
4.48809

> <r_epik_Ionization_Penalty_Charging>
3.27284

> <r_epik_Ionization_Penalty_Neutral>
1.21525

> <r_epik_State_Penalty>
4.69427

> <r_epik_Charging_Adjusted_Penalty>
7.96711

> <i_epik_Tot_Q>
-1

> <i_epik_Tot_abs_Q>
1

> <r_epik_Metal_State_Penalty>
1.91976

> <b_epik_Metal_Only>
1

> <s_lp_Force_Field>
OPLS_2005

> <r_lp_Energy>
48.824

> <b_lp_Chiralities_Consistent>
1

> <s_lp_Variant>
AV-unprocessed.smi:1809-23

> <Gold.Version>
5.8.1

> <Gold.Id.Protein>
6NUR|6NUR_protein|mol2

> <Gold.PLP.Fitness>
40.3072

> <Gold.PLP.PLP>
-30.1490

> <Gold.PLP.part.hbond>
-4.0000

> <Gold.PLP.part.metal>
0.0000

> <Gold.PLP.part.buried>
-4.8877

> <Gold.PLP.part.nonpolar>
-22.0518

> <Gold.PLP.part.repulsive>
0.0720

> <Gold.PLP.ligand.clash>
0.0000

> <Gold.PLP.ligand.torsion>
0.2933

> <Gold.PLP.Chemscore.Hbond>
3.5760

> <Gold.PLP.Chemscore.CHOScore>
0.0000

> <Gold.PLP.Chemscore.Metal>
0.0000

> <Gold.Chemscore.Hbonds>
donor molecule, donor type, donor heavy atom, donor atom, acceptor molecule, acceptor atom, score
      P1  H  6896  6907       L1     8  0.78
      P1  H  6931  6943       L1     4  0.74
      P1  H  6934  6947       L1     4  0.83
      P1  H  7989  7998       L1    19  0.80

> <Gold.PLP.Chemscore.Internal.Correction>
0.0167

> <Gold.Rescore>
     Score         DG    S(hbond)    S(metal)    S(lipo)     H(rot)  DE(clash)    DE(int)     intcor
     15.51     -19.49       2.89        0.00      65.82       1.31       0.03       3.95       ----

> <Gold.Chemscore.Fitness>
15.5137

> <Gold.Chemscore.DG>
-19.4943

> <Gold.Chemscore.ZeroCoef>
-5.4800

> <Gold.Chemscore.Hbond>
2.8906

> <Gold.Chemscore.Metal>
0.0000

> <Gold.Chemscore.Lipo>
65.8191

> <Gold.Chemscore.Internal_Hbond>
0.0000

> <Gold.Chemscore.DEClash>
0.0276

> <Gold.Chemscore.DEInternal>
3.9531

> <Gold.Chemscore.Rot>
1.3051

> <Gold.Chemscore.Internal.Correction>
   9.000000E+99

> <Gold.Chemscore.Hbonds>
donor molecule, donor type, donor heavy atom, donor atom, acceptor molecule, acceptor atom, score
      P1  H  6896  6907       L1     8  0.75
      P1  H  6931  6943       L1     4  0.25
      P1  H  6934  6947       L1     4  0.78
      P1  H  7989  7998       L1    19  0.12

> <Gold.Chemscore.Hbond.Weighted>
-9.6547

> <Gold.Chemscore.Metal.Weighted>
-0.0000

> <Gold.Chemscore.Lipo.Weighted>
-7.7008

> <Gold.Chemscore.Internal_Hbond.Weighted>
0.0000

> <Gold.Chemscore.DEClash.Weighted>
0.0276

> <Gold.Chemscore.DEInternal.Weighted>
3.9531

> <Gold.Chemscore.Rot.Weighted>
3.3412

> <Gold.Chemscore.Internal.Correction.Weighted>
   9.000000E+99

> <Gold.Protein.RotatedTorsions>
[ 6907 6896 6895 6894 ] final  -60.18 input  -60.11 | X-H torsion
[ 7974 7965 7964 7962 ] final  105.04 input  175.53 | X-H torsion
[ 8008 7997 7996 7995 ] final  -88.38 input   59.86 | X-H torsion
[ 10167 10162 10161 10158 ] final   22.41 input  -65.29 | X-H torsion
[ 10718 10713 10712 10709 ] final  -87.20 input   66.30 | X-H torsion
[ 10763 10752 10751 10750 ] final -134.31 input  -60.55 | X-H torsion
[ 11005 11000 10999 10996 ] final  171.05 input  -57.11 | X-H torsion

> <Gold.Protein.ActiveResidues>
 VAL166  LYS551  ARG553  GLY616  TRP617  ASP618  TYR619  PRO620  LYS621  CYS622 
 ASP623  PHE694  ASN695  SER759  ASP760  ASP761  ALA762  ILE779  LEU786  VAL792 
 PHE793  MET794  SER795  GLU796  ALA797  LYS798  CYS799  TRP800  GLU811  SER814 

> <Gold.Protein.RotatedAtoms>
  150.7875  134.6871  159.6475 H   0  0  0  0  0  0  0  0  0  0  0  0  # atno 6907 bound_to 6896
  152.3974  134.6339  160.0092 H   0  0  0  0  0  0  0  0  0  0  0  0  # atno 6908 bound_to 6896
  151.6621  133.3280  159.3212 H   0  0  0  0  0  0  0  0  0  0  0  0  # atno 6909 bound_to 6896
  145.3249  139.2502  143.3692 H   0  0  0  0  0  0  0  0  0  0  0  0  # atno 7974 bound_to 7965
  154.6742  140.0554  157.0197 H   0  0  0  0  0  0  0  0  0  0  0  0  # atno 8008 bound_to 7997
  155.1045  140.3232  155.4519 H   0  0  0  0  0  0  0  0  0  0  0  0  # atno 8009 bound_to 7997
  156.2669  140.2025  156.6170 H   0  0  0  0  0  0  0  0  0  0  0  0  # atno 8010 bound_to 7997
  140.5350  143.9776  150.6487 H   0  0  0  0  0  0  0  0  0  0  0  0  # atno 10167 bound_to 10162
  155.9986  130.4791  150.4831 H   0  0  0  0  0  0  0  0  0  0  0  0  # atno 10718 bound_to 10713
  154.8721  135.3738  154.4715 H   0  0  0  0  0  0  0  0  0  0  0  0  # atno 10763 bound_to 10752
  153.5375  135.7027  153.5658 H   0  0  0  0  0  0  0  0  0  0  0  0  # atno 10764 bound_to 10752
  153.3834  135.3991  155.1838 H   0  0  0  0  0  0  0  0  0  0  0  0  # atno 10765 bound_to 10752
  140.3149  134.7486  157.4020 H   0  0  0  0  0  0  0  0  0  0  0  0  # atno 11005 bound_to 11000
  146.3068  140.3814  142.8684 LP  0  0  0  0  0  0  0  0  0  0  0  0  # atno 17320 bound_to 7965
  144.8910  140.7523  143.5927 LP  0  0  0  0  0  0  0  0  0  0  0  0  # atno 17321 bound_to 7965
  140.3161  143.3167  152.0831 LP  0  0  0  0  0  0  0  0  0  0  0  0  # atno 17342 bound_to 10162
  139.4968  144.6605  151.6476 LP  0  0  0  0  0  0  0  0  0  0  0  0  # atno 17343 bound_to 10162
  157.2834  131.0611  151.2182 LP  0  0  0  0  0  0  0  0  0  0  0  0  # atno 17370 bound_to 10713
  157.3221  130.6942  149.6275 LP  0  0  0  0  0  0  0  0  0  0  0  0  # atno 17371 bound_to 10713
  140.0992  134.5495  155.8369 LP  0  0  0  0  0  0  0  0  0  0  0  0  # atno 17394 bound_to 11000
  141.2100  133.6690  156.6477 LP  0  0  0  0  0  0  0  0  0  0  0  0  # atno 17395 bound_to 11000

$$$$
