AV-unprocessed.smi:2825|AV-procd|sdf|10889|dock3
  -GOLD-   2272015333D 1   1.00000     0.00000
 Structure written by MMmdl.
 48 49  0  0  0  0  0  0  0  0  1 V2000
  145.1235  144.2931  153.4551 C   0  0  0  0  0  0  0  0  0  0  0  0
  145.3853  143.0429  154.3010 C   0  0  0  0  0  0  0  0  0  0  0  0
  146.8060  142.4931  154.1107 C   0  0  0  0  0  0  0  0  0  0  0  0
  146.9477  140.7462  154.6919 S   0  0  0  0  0  0  0  0  0  0  0  0
  145.7083  140.3758  155.3919 O   0  0  0  0  0  0  0  0  0  0  0  0
  147.4381  139.9232  153.5750 O   0  0  0  0  0  0  0  0  0  0  0  0
  148.2069  140.8429  155.8821 N   0  0  0  0  0  0  0  0  0  0  0  0
  148.0525  141.7795  156.9998 C   0  0  0  0  0  0  0  0  0  0  0  0
  149.0256  139.6543  156.1672 C   0  0  0  0  0  0  0  0  0  0  0  0
  150.3905  139.7346  155.4555 C   0  0  1  0  0  0  0  0  0  0  0  0
  150.1664  139.8157  154.0609 O   0  0  0  0  0  0  0  0  0  0  0  0
  151.1958  140.9676  155.9059 C   0  0  0  0  0  0  0  0  0  0  0  0
  151.7553  140.8087  157.2361 N   0  0  0  0  0  0  0  0  0  0  0  0
  152.3133  139.6960  157.7502 C   0  0  0  0  0  0  0  0  0  0  0  0
  152.7676  139.7636  158.9980 N   0  0  0  0  0  0  0  0  0  0  0  0
  152.4707  141.0738  159.3320 C   0  0  0  0  0  0  0  0  0  0  0  0
  152.6961  141.7879  160.5293 C   0  0  0  0  0  0  0  0  0  0  0  0
  152.3069  143.1411  160.6505 C   0  0  0  0  0  0  0  0  0  0  0  0
  152.5669  143.8704  161.9569 C   0  0  0  0  0  0  0  0  0  0  0  0
  151.6830  143.8013  159.5616 C   0  0  0  0  0  0  0  0  0  0  0  0
  151.2596  145.2559  159.6669 C   0  0  0  0  0  0  0  0  0  0  0  0
  151.4482  143.1020  158.3592 C   0  0  0  0  0  0  0  0  0  0  0  0
  151.8382  141.7554  158.2513 C   0  0  0  0  0  0  0  0  0  0  0  0
  144.1060  144.6553  153.6041 H   0  0  0  0  0  0  0  0  0  0  0  0
  145.2493  144.0824  152.3927 H   0  0  0  0  0  0  0  0  0  0  0  0
  145.8067  145.0999  153.7218 H   0  0  0  0  0  0  0  0  0  0  0  0
  145.2153  143.2784  155.3518 H   0  0  0  0  0  0  0  0  0  0  0  0
  144.6591  142.2753  154.0335 H   0  0  0  0  0  0  0  0  0  0  0  0
  147.1163  142.5432  153.0677 H   0  0  0  0  0  0  0  0  0  0  0  0
  147.5142  143.0877  154.6883 H   0  0  0  0  0  0  0  0  0  0  0  0
  149.0240  142.0236  157.4307 H   0  0  0  0  0  0  0  0  0  0  0  0
  147.4233  141.3403  157.7741 H   0  0  0  0  0  0  0  0  0  0  0  0
  147.5897  142.7067  156.6639 H   0  0  0  0  0  0  0  0  0  0  0  0
  149.1597  139.5182  157.2419 H   0  0  0  0  0  0  0  0  0  0  0  0
  148.4718  138.7794  155.8243 H   0  0  0  0  0  0  0  0  0  0  0  0
  150.9835  138.8428  155.6560 H   0  0  0  0  0  0  0  0  0  0  0  0
  149.3364  139.4088  153.8654 H   0  0  0  0  0  0  0  0  0  0  0  0
  152.0053  141.1767  155.2053 H   0  0  0  0  0  0  0  0  0  0  0  0
  150.5556  141.8509  155.9132 H   0  0  0  0  0  0  0  0  0  0  0  0
  152.3910  138.7854  157.1742 H   0  0  0  0  0  0  0  0  0  0  0  0
  153.1735  141.2846  161.3571 H   0  0  0  0  0  0  0  0  0  0  0  0
  153.2498  144.7055  161.7981 H   0  0  0  0  0  0  0  0  0  0  0  0
  153.0132  143.2094  162.7004 H   0  0  0  0  0  0  0  0  0  0  0  0
  151.6357  144.2578  162.3709 H   0  0  0  0  0  0  0  0  0  0  0  0
  150.8414  145.6178  158.7270 H   0  0  0  0  0  0  0  0  0  0  0  0
  152.1131  145.8866  159.9171 H   0  0  0  0  0  0  0  0  0  0  0  0
  150.5004  145.3763  160.4400 H   0  0  0  0  0  0  0  0  0  0  0  0
  150.9744  143.5928  157.5222 H   0  0  0  0  0  0  0  0  0  0  0  0
  1  2  1  0  0  0  0
  1 24  1  0  0  0  0
  1 25  1  0  0  0  0
  1 26  1  0  0  0  0
  2  3  1  0  0  0  0
  2 27  1  0  0  0  0
  2 28  1  0  0  0  0
  3  4  1  0  0  0  0
  3 29  1  0  0  0  0
  3 30  1  0  0  0  0
  4  5  2  0  0  0  0
  4  6  2  0  0  0  0
  4  7  1  0  0  0  0
  7  8  1  0  0  0  0
  7  9  1  0  0  0  0
  8 31  1  0  0  0  0
  8 32  1  0  0  0  0
  8 33  1  0  0  0  0
  9 10  1  0  0  0  0
  9 34  1  0  0  0  0
  9 35  1  0  0  0  0
 10 11  1  0  0  0  0
 10 12  1  0  0  0  0
 10 36  1  0  0  0  0
 11 37  1  0  0  0  0
 12 13  1  0  0  0  0
 12 38  1  0  0  0  0
 12 39  1  0  0  0  0
 13 23  1  0  0  0  0
 13 14  1  0  0  0  0
 14 15  2  0  0  0  0
 14 40  1  0  0  0  0
 15 16  1  0  0  0  0
 16 23  2  0  0  0  0
 16 17  1  0  0  0  0
 17 18  2  0  0  0  0
 17 41  1  0  0  0  0
 18 19  1  0  0  0  0
 18 20  1  0  0  0  0
 19 42  1  0  0  0  0
 19 43  1  0  0  0  0
 19 44  1  0  0  0  0
 20 21  1  0  0  0  0
 20 22  2  0  0  0  0
 21 45  1  0  0  0  0
 21 46  1  0  0  0  0
 21 47  1  0  0  0  0
 22 23  1  0  0  0  0
 22 48  1  0  0  0  0
M  END
> <s_m_source_file>
AV-unprocessed.smi

> <i_m_source_file_index>
2825

> <i_lp_mmshare_version>
43012

> <i_f3d_flags>
0

> <s_epik_input>
W0NIM11bQ0gyXVtDSDJdUyg9TykoPU8pTihbQ0gzXSlbQ0gyXVtDQEhdKFtPSF0pW0NIMl1uKFtjSF1uMSljKGMxMilbY0hdYyhbQ0gzXSljKFtjSF0yKVtDSDNd

> <s_epik_cmdline>
J2VwaWtfcHl0aG9uJywgJy1waCcsICc3LjAnLCAnLXRuJywgJzgnLCAnLW1hJywgJzIwMCcsICctbWV0YWxfYmluZGluZycsICctaW1hZScsICc8aW5maWxlLm1hZT4nLCAnLW9tYWUnLCAnPG91dGZpbGUubWFlPic=

> <r_epik_Ionization_Penalty>
0.104931

> <r_epik_Ionization_Penalty_Charging>
0

> <r_epik_Ionization_Penalty_Neutral>
0.104931

> <r_epik_State_Penalty>
0.0948201

> <r_epik_Charging_Adjusted_Penalty>
0.0948201

> <i_epik_Tot_Q>
0

> <i_epik_Tot_abs_Q>
0

> <r_epik_Metal_State_Penalty>
0.00010282

> <b_epik_Metal_Only>
0

> <s_lp_Force_Field>
OPLS_2005

> <r_lp_Energy>
7.6372

> <b_lp_Chiralities_Consistent>
1

> <s_lp_Variant>
AV-unprocessed.smi:2825-2

> <Gold.Version>
5.8.1

> <Gold.Id.Protein>
6NUR|6NUR_protein|mol2

> <Gold.PLP.Fitness>
50.8287

> <Gold.PLP.PLP>
-48.9311

> <Gold.PLP.part.hbond>
-2.0000

> <Gold.PLP.part.metal>
0.0000

> <Gold.PLP.part.buried>
-6.9406

> <Gold.PLP.part.nonpolar>
-39.6694

> <Gold.PLP.part.repulsive>
0.2797

> <Gold.PLP.ligand.clash>
0.0000

> <Gold.PLP.ligand.torsion>
1.8393

> <Gold.PLP.Chemscore.Hbond>
1.0000

> <Gold.PLP.Chemscore.CHOScore>
0.0000

> <Gold.PLP.Chemscore.Metal>
0.0000

> <Gold.Chemscore.Hbonds>
donor molecule, donor type, donor heavy atom, donor atom, acceptor molecule, acceptor atom, score
      P1  H  7989  7998       L1    11  1.00

> <Gold.PLP.Chemscore.Internal.Correction>
2.5763

> <Gold.Rescore>
     Score         DG    S(hbond)    S(metal)    S(lipo)     H(rot)  DE(clash)    DE(int)     intcor
     14.48     -16.43       0.94        0.00     119.93       2.43       0.15       1.81       ----

> <Gold.Chemscore.Fitness>
14.4823

> <Gold.Chemscore.DG>
-16.4337

> <Gold.Chemscore.ZeroCoef>
-5.4800

> <Gold.Chemscore.Hbond>
0.9432

> <Gold.Chemscore.Metal>
0.0000

> <Gold.Chemscore.Lipo>
119.9349

> <Gold.Chemscore.Internal_Hbond>
0.0000

> <Gold.Chemscore.DEClash>
0.1458

> <Gold.Chemscore.DEInternal>
1.8056

> <Gold.Chemscore.Rot>
2.4332

> <Gold.Chemscore.Internal.Correction>
   9.000000E+99

> <Gold.Chemscore.Hbonds>
donor molecule, donor type, donor heavy atom, donor atom, acceptor molecule, acceptor atom, score
      P1  H  7989  7998       L1    11  0.38

> <Gold.Chemscore.Hbond.Weighted>
-3.1503

> <Gold.Chemscore.Metal.Weighted>
-0.0000

> <Gold.Chemscore.Lipo.Weighted>
-14.0324

> <Gold.Chemscore.Internal_Hbond.Weighted>
0.0000

> <Gold.Chemscore.DEClash.Weighted>
0.1458

> <Gold.Chemscore.DEInternal.Weighted>
1.8056

> <Gold.Chemscore.Rot.Weighted>
6.2289

> <Gold.Chemscore.Internal.Correction.Weighted>
   9.000000E+99

> <Gold.Protein.RotatedTorsions>
[ 6907 6896 6895 6894 ] final -100.36 input  -60.11 | X-H torsion
[ 7974 7965 7964 7962 ] final  137.21 input  175.53 | X-H torsion
[ 8008 7997 7996 7995 ] final  134.69 input   59.86 | X-H torsion
[ 10167 10162 10161 10158 ] final  -98.92 input  -65.29 | X-H torsion
[ 10718 10713 10712 10709 ] final  159.85 input   66.30 | X-H torsion
[ 10763 10752 10751 10750 ] final -118.07 input  -60.55 | X-H torsion
[ 11005 11000 10999 10996 ] final  -44.36 input  -57.11 | X-H torsion

> <Gold.Protein.ActiveResidues>
 VAL166  LYS551  ARG553  GLY616  TRP617  ASP618  TYR619  PRO620  LYS621  CYS622 
 ASP623  PHE694  ASN695  SER759  ASP760  ASP761  ALA762  ILE779  LEU786  VAL792 
 PHE793  MET794  SER795  GLU796  ALA797  LYS798  CYS799  TRP800  GLU811  SER814 

> <Gold.Protein.RotatedAtoms>
  150.7113  134.0899  159.3927 H   0  0  0  0  0  0  0  0  0  0  0  0  # atno 6907 bound_to 6896
  151.8884  135.0424  160.0505 H   0  0  0  0  0  0  0  0  0  0  0  0  # atno 6908 bound_to 6896
  152.2511  133.5181  159.5363 H   0  0  0  0  0  0  0  0  0  0  0  0  # atno 6909 bound_to 6896
  144.9490  139.4841  143.5535 H   0  0  0  0  0  0  0  0  0  0  0  0  # atno 7974 bound_to 7965
  156.3000  140.2490  156.3459 H   0  0  0  0  0  0  0  0  0  0  0  0  # atno 8008 bound_to 7997
  154.9012  140.0406  157.1913 H   0  0  0  0  0  0  0  0  0  0  0  0  # atno 8009 bound_to 7997
  154.8499  140.2904  155.5609 H   0  0  0  0  0  0  0  0  0  0  0  0  # atno 8010 bound_to 7997
  140.2678  143.3364  152.0563 H   0  0  0  0  0  0  0  0  0  0  0  0  # atno 10167 bound_to 10162
  157.1586  131.0581  151.2244 H   0  0  0  0  0  0  0  0  0  0  0  0  # atno 10718 bound_to 10713
  154.8575  135.4287  154.2080 H   0  0  0  0  0  0  0  0  0  0  0  0  # atno 10763 bound_to 10752
  153.3112  135.6976  153.7120 H   0  0  0  0  0  0  0  0  0  0  0  0  # atno 10764 bound_to 10752
  153.6212  135.3501  155.2985 H   0  0  0  0  0  0  0  0  0  0  0  0  # atno 10765 bound_to 10752
  141.0445  133.6766  156.2862 H   0  0  0  0  0  0  0  0  0  0  0  0  # atno 11005 bound_to 11000
  146.3314  139.8562  142.8864 LP  0  0  0  0  0  0  0  0  0  0  0  0  # atno 17320 bound_to 7965
  145.2873  141.0157  143.3683 LP  0  0  0  0  0  0  0  0  0  0  0  0  # atno 17321 bound_to 7965
  139.4997  144.6676  151.6319 LP  0  0  0  0  0  0  0  0  0  0  0  0  # atno 17342 bound_to 10162
  140.5914  143.9773  150.6327 LP  0  0  0  0  0  0  0  0  0  0  0  0  # atno 17343 bound_to 10162
  157.4154  130.7408  149.6871 LP  0  0  0  0  0  0  0  0  0  0  0  0  # atno 17370 bound_to 10713
  155.9758  130.4084  150.3826 LP  0  0  0  0  0  0  0  0  0  0  0  0  # atno 17371 bound_to 10713
  140.6172  134.5398  157.5542 LP  0  0  0  0  0  0  0  0  0  0  0  0  # atno 17394 bound_to 11000
  139.9301  134.7980  156.0955 LP  0  0  0  0  0  0  0  0  0  0  0  0  # atno 17395 bound_to 11000

$$$$
