AV-unprocessed.smi:47|AV-procd|sdf|443|dock3
  -GOLD-   2262016313D 1   1.00000     0.00000
 Structure written by MMmdl.
 30 32  0  0  0  0  0  0  0  0  2 V2000
  145.1969  140.6139  154.7077 O   0  0  0  0  0  0  0  0  0  0  0  0
  146.5962  140.4296  154.6681 C   0  0  1  0  0  0  0  0  0  0  0  0
  147.1074  140.1531  153.2605 C   0  0  0  0  0  0  0  0  0  0  0  0
  148.5280  140.4658  153.3226 N   0  0  0  0  0  0  0  0  0  0  0  0
  148.7062  141.5489  154.2967 C   0  0  2  0  0  0  0  0  0  0  0  0
  149.8669  141.3003  155.2430 C   0  0  0  0  0  0  0  0  0  0  0  0
  150.7785  140.3147  155.1123 N   0  0  0  0  0  0  0  0  0  0  0  0
  151.5837  140.4178  156.1528 N   0  5  0  0  0  0  0  0  0  0  0  0
  151.1524  141.4440  156.9016 C   0  0  0  0  0  0  0  0  0  0  0  0
  151.8236  141.8417  158.1565 C   0  0  0  0  0  0  0  0  0  0  0  0
  151.6760  143.1541  158.6624 C   0  0  0  0  0  0  0  0  0  0  0  0
  152.3097  143.5484  159.8571 C   0  0  0  0  0  0  0  0  0  0  0  0
  153.1042  142.6312  160.5683 C   0  0  0  0  0  0  0  0  0  0  0  0
  153.2617  141.3212  160.0806 C   0  0  0  0  0  0  0  0  0  0  0  0
  152.6269  140.9323  158.8849 C   0  0  0  0  0  0  0  0  0  0  0  0
  150.0804  142.0083  156.3632 N   0  0  0  0  0  0  0  0  0  0  0  0
  147.3720  141.6851  155.0534 C   0  0  0  0  0  0  0  0  0  0  0  0
  146.8730  139.6066  155.3287 H   0  0  0  0  0  0  0  0  0  0  0  0
  148.9049  142.4821  153.7683 H   0  0  0  0  0  0  0  0  0  0  0  0
  144.8544  140.4806  153.8372 H   0  0  0  0  0  0  0  0  0  0  0  0
  146.9284  139.1265  152.9404 H   0  0  0  0  0  0  0  0  0  0  0  0
  146.6166  140.8181  152.5484 H   0  0  0  0  0  0  0  0  0  0  0  0
  148.8412  140.7702  152.4068 H   0  0  0  0  0  0  0  0  0  0  0  0
  151.0691  143.8726  158.1313 H   0  0  0  0  0  0  0  0  0  0  0  0
  152.1847  144.5554  160.2262 H   0  0  0  0  0  0  0  0  0  0  0  0
  153.5909  142.9309  161.4845 H   0  0  0  0  0  0  0  0  0  0  0  0
  153.8697  140.6126  160.6232 H   0  0  0  0  0  0  0  0  0  0  0  0
  152.7630  139.9214  158.5295 H   0  0  0  0  0  0  0  0  0  0  0  0
  146.8492  142.5707  154.6889 H   0  0  0  0  0  0  0  0  0  0  0  0
  147.4890  141.7957  156.1324 H   0  0  0  0  0  0  0  0  0  0  0  0
  1  2  1  0  0  0  0
  1 20  1  0  0  0  0
  2 18  1  0  0  0  0
  2 17  1  0  0  0  0
  2  3  1  0  0  0  0
  3  4  1  0  0  0  0
  3 21  1  0  0  0  0
  3 22  1  0  0  0  0
  4  5  1  0  0  0  0
  4 23  1  0  0  0  0
  5 19  1  0  0  0  0
  5  6  1  0  0  0  0
  5 17  1  0  0  0  0
  6 16  1  0  0  0  0
  6  7  2  0  0  0  0
  7  8  1  0  0  0  0
  8  9  1  0  0  0  0
  9 10  1  0  0  0  0
  9 16  2  0  0  0  0
 10 15  1  0  0  0  0
 10 11  2  0  0  0  0
 11 12  1  0  0  0  0
 11 24  1  0  0  0  0
 12 13  2  0  0  0  0
 12 25  1  0  0  0  0
 13 14  1  0  0  0  0
 13 26  1  0  0  0  0
 14 15  2  0  0  0  0
 14 27  1  0  0  0  0
 15 28  1  0  0  0  0
 17 29  1  0  0  0  0
 17 30  1  0  0  0  0
M  CHG  1   8  -1
M  END
> <s_m_source_file>
AV-unprocessed.smi

> <i_m_source_file_index>
47

> <i_lp_mmshare_version>
43012

> <i_f3d_flags>
0

> <s_epik_input>
W09IXVtDQEhdMVtDSDJdW05IXVtDQEBIXShbQ0gyXTEpYzJuW25IXWMobjIpLWMzW2NIXVtjSF1bY0hdW2NIXVtjSF0z

> <s_epik_cmdline>
J2VwaWtfcHl0aG9uJywgJy1waCcsICc3LjAnLCAnLXRuJywgJzgnLCAnLW1hJywgJzIwMCcsICctbWV0YWxfYmluZGluZycsICctaW1hZScsICc8aW5maWxlLm1hZT4nLCAnLW9tYWUnLCAnPG91dGZpbGUubWFlPic=

> <r_epik_Ionization_Penalty>
16.1968

> <r_epik_Ionization_Penalty_Charging>
13.1522

> <r_epik_Ionization_Penalty_Neutral>
3.04463

> <r_epik_State_Penalty>
6.32428

> <r_epik_Charging_Adjusted_Penalty>
19.4764

> <i_epik_Tot_Q>
-1

> <i_epik_Tot_abs_Q>
1

> <r_epik_Metal_State_Penalty>
2.82187

> <b_epik_Metal_Only>
1

> <s_lp_Force_Field>
OPLS_2005

> <r_lp_Energy>
30.4725

> <b_lp_Chiralities_Consistent>
1

> <s_lp_Variant>
AV-unprocessed.smi:47-21

> <Gold.Version>
5.8.1

> <Gold.Id.Protein>
6NUR|6NUR_protein|mol2

> <Gold.PLP.Fitness>
43.4151

> <Gold.PLP.PLP>
-36.2140

> <Gold.PLP.part.hbond>
-2.7334

> <Gold.PLP.part.metal>
0.0000

> <Gold.PLP.part.buried>
-5.0984

> <Gold.PLP.part.nonpolar>
-29.0694

> <Gold.PLP.part.repulsive>
0.7329

> <Gold.PLP.ligand.clash>
0.0000

> <Gold.PLP.ligand.torsion>
0.4606

> <Gold.PLP.Chemscore.Hbond>
2.7040

> <Gold.PLP.Chemscore.CHOScore>
0.0000

> <Gold.PLP.Chemscore.Metal>
0.0000

> <Gold.Chemscore.Hbonds>
donor molecule, donor type, donor heavy atom, donor atom, acceptor molecule, acceptor atom, score
      L1  H     1    20       P1 10175  1.00
      L1  H     4    23       P1  7957  0.70
      P1  H  7989  7998       L1     7  1.00

> <Gold.PLP.Chemscore.Internal.Correction>
0.0103

> <Gold.Rescore>
     Score         DG    S(hbond)    S(metal)    S(lipo)     H(rot)  DE(clash)    DE(int)     intcor
     17.94     -18.59       2.08        0.00      84.74       1.46       0.17       0.48       ----

> <Gold.Chemscore.Fitness>
17.9450

> <Gold.Chemscore.DG>
-18.5906

> <Gold.Chemscore.ZeroCoef>
-5.4800

> <Gold.Chemscore.Hbond>
2.0776

> <Gold.Chemscore.Metal>
0.0000

> <Gold.Chemscore.Lipo>
84.7372

> <Gold.Chemscore.Internal_Hbond>
0.0000

> <Gold.Chemscore.DEClash>
0.1671

> <Gold.Chemscore.DEInternal>
0.4786

> <Gold.Chemscore.Rot>
1.4621

> <Gold.Chemscore.Internal.Correction>
   9.000000E+99

> <Gold.Chemscore.Hbonds>
donor molecule, donor type, donor heavy atom, donor atom, acceptor molecule, acceptor atom, score
      L1  H     1    20       P1 10175  0.99
      L1  H     4    23       P1  7957  0.71
      P1  H  7989  7998       L1     7  0.21

> <Gold.Chemscore.Hbond.Weighted>
-6.9392

> <Gold.Chemscore.Metal.Weighted>
-0.0000

> <Gold.Chemscore.Lipo.Weighted>
-9.9143

> <Gold.Chemscore.Internal_Hbond.Weighted>
0.0000

> <Gold.Chemscore.DEClash.Weighted>
0.1671

> <Gold.Chemscore.DEInternal.Weighted>
0.4786

> <Gold.Chemscore.Rot.Weighted>
3.7429

> <Gold.Chemscore.Internal.Correction.Weighted>
   9.000000E+99

> <Gold.Protein.RotatedTorsions>
[ 6907 6896 6895 6894 ] final  110.49 input  -60.11 | X-H torsion
[ 7974 7965 7964 7962 ] final  116.12 input  175.53 | X-H torsion
[ 8008 7997 7996 7995 ] final  171.33 input   59.86 | X-H torsion
[ 10167 10162 10161 10158 ] final  -14.76 input  -65.29 | X-H torsion
[ 10718 10713 10712 10709 ] final -127.60 input   66.30 | X-H torsion
[ 10763 10752 10751 10750 ] final -164.17 input  -60.55 | X-H torsion
[ 11005 11000 10999 10996 ] final  -64.25 input  -57.11 | X-H torsion

> <Gold.Protein.ActiveResidues>
 VAL166  LYS551  ARG553  GLY616  TRP617  ASP618  TYR619  PRO620  LYS621  CYS622 
 ASP623  PHE694  ASN695  SER759  ASP760  ASP761  ALA762  ILE779  LEU786  VAL792 
 PHE793  MET794  SER795  GLU796  ALA797  LYS798  CYS799  TRP800  GLU811  SER814 

> <Gold.Protein.RotatedAtoms>
  152.5017  133.8793  159.7337 H   0  0  0  0  0  0  0  0  0  0  0  0  # atno 6907 bound_to 6896
  150.9260  133.6815  159.2828 H   0  0  0  0  0  0  0  0  0  0  0  0  # atno 6908 bound_to 6896
  151.4176  135.0998  159.9656 H   0  0  0  0  0  0  0  0  0  0  0  0  # atno 6909 bound_to 6896
  145.1835  139.3037  143.4405 H   0  0  0  0  0  0  0  0  0  0  0  0  # atno 7974 bound_to 7965
  156.1281  140.1514  156.9106 H   0  0  0  0  0  0  0  0  0  0  0  0  # atno 8008 bound_to 7997
  154.4887  140.0857  156.7587 H   0  0  0  0  0  0  0  0  0  0  0  0  # atno 8009 bound_to 7997
  155.4306  140.3427  155.4282 H   0  0  0  0  0  0  0  0  0  0  0  0  # atno 8010 bound_to 7997
  140.7207  143.5288  150.9544 H   0  0  0  0  0  0  0  0  0  0  0  0  # atno 10167 bound_to 10162
  156.1872  130.6771  151.0379 H   0  0  0  0  0  0  0  0  0  0  0  0  # atno 10718 bound_to 10713
  154.7054  135.2996  154.9278 H   0  0  0  0  0  0  0  0  0  0  0  0  # atno 10763 bound_to 10752
  154.0197  135.6684  153.4775 H   0  0  0  0  0  0  0  0  0  0  0  0  # atno 10764 bound_to 10752
  153.0713  135.5059  154.8222 H   0  0  0  0  0  0  0  0  0  0  0  0  # atno 10765 bound_to 10752
  141.1419  133.6663  156.5804 H   0  0  0  0  0  0  0  0  0  0  0  0  # atno 11005 bound_to 11000
  146.3449  140.2023  142.8589 LP  0  0  0  0  0  0  0  0  0  0  0  0  # atno 17320 bound_to 7965
  145.0112  140.8716  143.5223 LP  0  0  0  0  0  0  0  0  0  0  0  0  # atno 17321 bound_to 7965
  139.9008  143.6838  152.3131 LP  0  0  0  0  0  0  0  0  0  0  0  0  # atno 17342 bound_to 10162
  139.7187  144.7607  151.0991 LP  0  0  0  0  0  0  0  0  0  0  0  0  # atno 17343 bound_to 10162
  157.6906  131.0811  150.7118 LP  0  0  0  0  0  0  0  0  0  0  0  0  # atno 17370 bound_to 10713
  156.7174  130.4670  149.5531 LP  0  0  0  0  0  0  0  0  0  0  0  0  # atno 17371 bound_to 10713
  140.3842  134.7497  157.4680 LP  0  0  0  0  0  0  0  0  0  0  0  0  # atno 17394 bound_to 11000
  140.0615  134.5989  155.8744 LP  0  0  0  0  0  0  0  0  0  0  0  0  # atno 17395 bound_to 11000

$$$$
