AV-unprocessed.smi:2134|AV-procd|sdf|8694|dock9
  -GOLD-   2272011453D 1   1.00000     0.00000
 Structure written by MMmdl.
 35 36  0  0  0  0  0  0  0  0  1 V2000
  153.2154  138.4043  154.8862 C   0  0  0  0  0  0  0  0  0  0  0  0
  151.7802  138.2233  155.0945 N   0  0  0  0  0  0  0  0  0  0  0  0
  151.3635  136.9090  155.1452 N   0  0  0  0  0  0  0  0  0  0  0  0
  150.1103  136.5816  155.0931 C   0  0  0  0  0  0  0  0  0  0  0  0
  149.7138  135.1491  155.1235 C   0  0  0  0  0  0  0  0  0  0  0  0
  150.2190  134.3687  155.9310 O   0  0  0  0  0  0  0  0  0  0  0  0
  148.7673  134.7817  154.2392 N   0  0  0  0  0  0  0  0  0  0  0  0
  148.1541  133.4591  154.1470 C   0  0  0  0  0  0  0  0  0  0  0  0
  148.1636  132.9201  152.7037 C   0  0  0  0  0  0  0  0  0  0  0  0
  146.8358  133.0858  151.9848 C   0  0  0  0  0  0  0  0  0  0  0  0
  146.1220  131.9656  151.5099 C   0  0  0  0  0  0  0  0  0  0  0  0
  144.9095  132.1741  150.8255 C   0  0  0  0  0  0  0  0  0  0  0  0
  144.4600  133.4978  150.6467 C   0  0  0  0  0  0  0  0  0  0  0  0
  145.1331  134.5775  151.0993 N   0  0  0  0  0  0  0  0  0  0  0  0
  146.2961  134.3688  151.7530 C   0  0  0  0  0  0  0  0  0  0  0  0
  149.0399  137.6466  154.9604 C   0  0  0  0  0  0  0  0  0  0  0  0
  149.4930  138.9999  155.5434 C   0  0  0  0  0  0  0  0  0  0  0  0
  150.9651  139.2971  155.2438 C   0  0  0  0  0  0  0  0  0  0  0  0
  151.3511  140.4639  155.1755 O   0  0  0  0  0  0  0  0  0  0  0  0
  153.6552  138.9748  155.7057 H   0  0  0  0  0  0  0  0  0  0  0  0
  153.4017  138.9439  153.9564 H   0  0  0  0  0  0  0  0  0  0  0  0
  153.7451  137.4519  154.8270 H   0  0  0  0  0  0  0  0  0  0  0  0
  148.4141  135.4899  153.6117 H   0  0  0  0  0  0  0  0  0  0  0  0
  148.7074  132.7790  154.7949 H   0  0  0  0  0  0  0  0  0  0  0  0
  147.1331  133.4784  154.5314 H   0  0  0  0  0  0  0  0  0  0  0  0
  148.9427  133.4245  152.1306 H   0  0  0  0  0  0  0  0  0  0  0  0
  148.4293  131.8624  152.7087 H   0  0  0  0  0  0  0  0  0  0  0  0
  146.5002  130.9645  151.6569 H   0  0  0  0  0  0  0  0  0  0  0  0
  144.3389  131.3403  150.4442 H   0  0  0  0  0  0  0  0  0  0  0  0
  143.5347  133.6941  150.1255 H   0  0  0  0  0  0  0  0  0  0  0  0
  146.8157  135.2523  152.0938 H   0  0  0  0  0  0  0  0  0  0  0  0
  148.7784  137.7636  153.9081 H   0  0  0  0  0  0  0  0  0  0  0  0
  148.1265  137.3398  155.4717 H   0  0  0  0  0  0  0  0  0  0  0  0
  148.8624  139.8055  155.1657 H   0  0  0  0  0  0  0  0  0  0  0  0
  149.3751  138.9898  156.6275 H   0  0  0  0  0  0  0  0  0  0  0  0
  1  2  1  0  0  0  0
  1 20  1  0  0  0  0
  1 21  1  0  0  0  0
  1 22  1  0  0  0  0
  2 18  1  0  0  0  0
  2  3  1  0  0  0  0
  3  4  2  0  0  0  0
  4  5  1  0  0  0  0
  4 16  1  0  0  0  0
  5  6  2  0  0  0  0
  5  7  1  0  0  0  0
  7  8  1  0  0  0  0
  7 23  1  0  0  0  0
  8  9  1  0  0  0  0
  8 24  1  0  0  0  0
  8 25  1  0  0  0  0
  9 10  1  0  0  0  0
  9 26  1  0  0  0  0
  9 27  1  0  0  0  0
 10 15  1  0  0  0  0
 10 11  2  0  0  0  0
 11 12  1  0  0  0  0
 11 28  1  0  0  0  0
 12 13  2  0  0  0  0
 12 29  1  0  0  0  0
 13 14  1  0  0  0  0
 13 30  1  0  0  0  0
 14 15  2  0  0  0  0
 15 31  1  0  0  0  0
 16 17  1  0  0  0  0
 16 32  1  0  0  0  0
 16 33  1  0  0  0  0
 17 18  1  0  0  0  0
 17 34  1  0  0  0  0
 17 35  1  0  0  0  0
 18 19  2  0  0  0  0
M  END
> <s_m_source_file>
AV-unprocessed.smi

> <i_m_source_file_index>
2134

> <i_lp_mmshare_version>
43012

> <i_f3d_flags>
0

> <s_epik_input>
Tz1DMVtDSDJdW0NIMl1DKD1OTjFbQ0gzXSlDKD1PKVtOSF1bQ0gyXVtDSDJdYzJbY0hdW2NIXVtjSF1uW2NIXTI=

> <s_epik_cmdline>
J2VwaWtfcHl0aG9uJywgJy1waCcsICc3LjAnLCAnLXRuJywgJzgnLCAnLW1hJywgJzIwMCcsICctbWV0YWxfYmluZGluZycsICctaW1hZScsICc8aW5maWxlLm1hZT4nLCAnLW9tYWUnLCAnPG91dGZpbGUubWFlPic=

> <r_epik_Ionization_Penalty>
0.00938916

> <r_epik_Ionization_Penalty_Charging>
0

> <r_epik_Ionization_Penalty_Neutral>
0.00938916

> <r_epik_State_Penalty>
0.00707201

> <r_epik_Charging_Adjusted_Penalty>
0.00707201

> <i_epik_Tot_Q>
0

> <i_epik_Tot_abs_Q>
0

> <r_epik_Metal_State_Penalty>
0.0638513

> <b_epik_Metal_Only>
0

> <s_epik_Chemistry_Notes>
This compound has an imine and may undergo hydrolysis.

> <s_lp_Force_Field>
OPLS_2005

> <r_lp_Energy>
16.2415

> <b_lp_Chiralities_Consistent>
1

> <s_lp_Variant>
AV-unprocessed.smi:2134-1

> <Gold.Version>
5.8.1

> <Gold.Id.Protein>
6NUR|6NUR_protein|mol2

> <Gold.PLP.Fitness>
45.1755

> <Gold.PLP.PLP>
-33.7266

> <Gold.PLP.part.hbond>
-3.0000

> <Gold.PLP.part.metal>
0.0000

> <Gold.PLP.part.buried>
-4.3610

> <Gold.PLP.part.nonpolar>
-27.4197

> <Gold.PLP.part.repulsive>
0.3757

> <Gold.PLP.ligand.clash>
0.0000

> <Gold.PLP.ligand.torsion>
1.0630

> <Gold.PLP.Chemscore.Hbond>
2.5200

> <Gold.PLP.Chemscore.CHOScore>
2.0000

> <Gold.PLP.Chemscore.Metal>
0.0000

> <Gold.Chemscore.Hbonds>
donor molecule, donor type, donor heavy atom, donor atom, acceptor molecule, acceptor atom, score
      L1  H     7    23       P1  7948  0.69
      P1  H  7989  7998       L1    19  0.93
      P1  H 10752 10763       L1     3  0.76
      L1  C    13    30       P1 10186  0.60
      L1  C    15    31       P1  7948  1.00

> <Gold.PLP.Chemscore.Internal.Correction>
0.0150

> <Gold.Rescore>
     Score         DG    S(hbond)    S(metal)    S(lipo)     H(rot)  DE(clash)    DE(int)     intcor
     15.25     -16.46       1.96        0.00      69.46       1.45       0.56       0.65       ----

> <Gold.Chemscore.Fitness>
15.2483

> <Gold.Chemscore.DG>
-16.4581

> <Gold.Chemscore.ZeroCoef>
-5.4800

> <Gold.Chemscore.Hbond>
1.9635

> <Gold.Chemscore.Metal>
0.0000

> <Gold.Chemscore.Lipo>
69.4620

> <Gold.Chemscore.Internal_Hbond>
0.0000

> <Gold.Chemscore.DEClash>
0.5579

> <Gold.Chemscore.DEInternal>
0.6519

> <Gold.Chemscore.Rot>
1.4480

> <Gold.Chemscore.Internal.Correction>
   9.000000E+99

> <Gold.Chemscore.Hbonds>
donor molecule, donor type, donor heavy atom, donor atom, acceptor molecule, acceptor atom, score
      L1  H     7    23       P1  7948  0.69
      P1  H  7989  7998       L1    19  0.68
      P1  H 10752 10763       L1     3  0.60

> <Gold.Chemscore.Hbond.Weighted>
-6.5580

> <Gold.Chemscore.Metal.Weighted>
-0.0000

> <Gold.Chemscore.Lipo.Weighted>
-8.1270

> <Gold.Chemscore.Internal_Hbond.Weighted>
0.0000

> <Gold.Chemscore.DEClash.Weighted>
0.5579

> <Gold.Chemscore.DEInternal.Weighted>
0.6519

> <Gold.Chemscore.Rot.Weighted>
3.7070

> <Gold.Chemscore.Internal.Correction.Weighted>
   9.000000E+99

> <Gold.Protein.RotatedTorsions>
[ 6907 6896 6895 6894 ] final  133.44 input  -60.11 | X-H torsion
[ 7974 7965 7964 7962 ] final -133.46 input  175.53 | X-H torsion
[ 8008 7997 7996 7995 ] final  118.60 input   59.86 | X-H torsion
[ 10167 10162 10161 10158 ] final   77.57 input  -65.29 | X-H torsion
[ 10718 10713 10712 10709 ] final  -44.98 input   66.30 | X-H torsion
[ 10763 10752 10751 10750 ] final   62.65 input  -60.55 | X-H torsion
[ 11005 11000 10999 10996 ] final -109.35 input  -57.11 | X-H torsion

> <Gold.Protein.ActiveResidues>
 VAL166  LYS551  ARG553  GLY616  TRP617  ASP618  TYR619  PRO620  LYS621  CYS622 
 ASP623  PHE694  ASN695  SER759  ASP760  ASP761  ALA762  ILE779  LEU786  VAL792 
 PHE793  MET794  SER795  GLU796  ALA797  LYS798  CYS799  TRP800  GLU811  SER814 

> <Gold.Protein.RotatedAtoms>
  152.3219  133.5863  159.5750 H   0  0  0  0  0  0  0  0  0  0  0  0  # atno 6907 bound_to 6896
  150.7376  133.9998  159.3643 H   0  0  0  0  0  0  0  0  0  0  0  0  # atno 6908 bound_to 6896
  151.7881  135.0744  160.0434 H   0  0  0  0  0  0  0  0  0  0  0  0  # atno 6909 bound_to 6896
  144.9191  140.6992  143.4976 H   0  0  0  0  0  0  0  0  0  0  0  0  # atno 7974 bound_to 7965
  156.2555  140.2871  156.0861 H   0  0  0  0  0  0  0  0  0  0  0  0  # atno 8008 bound_to 7997
  155.1514  140.0397  157.2839 H   0  0  0  0  0  0  0  0  0  0  0  0  # atno 8009 bound_to 7997
  154.6458  140.2533  155.7276 H   0  0  0  0  0  0  0  0  0  0  0  0  # atno 8010 bound_to 7997
  139.9801  144.5832  150.7908 H   0  0  0  0  0  0  0  0  0  0  0  0  # atno 10167 bound_to 10162
  156.2330  130.4174  149.8852 H   0  0  0  0  0  0  0  0  0  0  0  0  # atno 10718 bound_to 10713
  152.9990  135.5457  154.6227 H   0  0  0  0  0  0  0  0  0  0  0  0  # atno 10763 bound_to 10752
  154.5523  135.2827  155.0999 H   0  0  0  0  0  0  0  0  0  0  0  0  # atno 10764 bound_to 10752
  154.2234  135.6446  153.5204 H   0  0  0  0  0  0  0  0  0  0  0  0  # atno 10765 bound_to 10752
  141.0852  133.9151  157.2201 H   0  0  0  0  0  0  0  0  0  0  0  0  # atno 11005 bound_to 11000
  145.3325  139.1755  143.4529 LP  0  0  0  0  0  0  0  0  0  0  0  0  # atno 17320 bound_to 7965
  146.3196  140.3357  142.8644 LP  0  0  0  0  0  0  0  0  0  0  0  0  # atno 17321 bound_to 7965
  140.7492  143.2934  151.3268 LP  0  0  0  0  0  0  0  0  0  0  0  0  # atno 17342 bound_to 10162
  139.6416  144.0529  152.2558 LP  0  0  0  0  0  0  0  0  0  0  0  0  # atno 17343 bound_to 10162
  156.6460  130.8724  151.3522 LP  0  0  0  0  0  0  0  0  0  0  0  0  # atno 17370 bound_to 10713
  157.7141  130.9476  150.1193 LP  0  0  0  0  0  0  0  0  0  0  0  0  # atno 17371 bound_to 10713
  139.9669  135.0139  156.9412 LP  0  0  0  0  0  0  0  0  0  0  0  0  # atno 17394 bound_to 11000
  140.5379  134.0749  155.7333 LP  0  0  0  0  0  0  0  0  0  0  0  0  # atno 17395 bound_to 11000

$$$$
