AV-unprocessed.smi:2822|AV-procd|sdf|10873|dock8
  -GOLD-   2272015313D 1   1.00000     0.00000
 Structure written by MMmdl.
 40 42  0  0  0  0  0  0  0  0  2 V2000
  152.4307  143.3144  161.9718 Cl  0  0  0  0  0  0  0  0  0  0  0  0
  153.3956  141.8810  161.9010 C   0  0  0  0  0  0  0  0  0  0  0  0
  154.2402  141.5531  162.9815 C   0  0  0  0  0  0  0  0  0  0  0  0
  155.0241  140.4549  163.0065 N   0  0  0  0  0  0  0  0  0  0  0  0
  154.9902  139.6349  161.9358 C   0  0  0  0  0  0  0  0  0  0  0  0
  154.1825  139.8680  160.8046 C   0  0  0  0  0  0  0  0  0  0  0  0
  153.3605  141.0194  160.7801 C   0  0  0  0  0  0  0  0  0  0  0  0
  152.5278  141.3294  159.6938 N   0  0  0  0  0  0  0  0  0  0  0  0
  152.7217  140.6883  158.4023 C   0  0  0  0  0  0  0  0  0  0  0  0
  151.4222  140.6542  157.5857 C   0  0  1  0  0  0  0  0  0  0  0  0
  150.8000  142.0629  157.4588 C   0  0  0  0  0  0  0  0  0  0  0  0
  149.6169  142.0595  156.5647 N   0  3  2  0  0  0  0  0  0  0  0  0
  148.3913  141.5093  157.2055 C   0  0  0  0  0  0  0  0  0  0  0  0
  147.1826  141.5944  156.2622 C   0  0  0  0  0  0  0  0  0  0  0  0
  147.4724  140.8652  154.9457 C   0  0  0  0  0  0  0  0  0  0  0  0
  148.7361  141.4458  154.2967 C   0  0  0  0  0  0  0  0  0  0  0  0
  149.9480  141.4382  155.2525 C   0  0  2  0  0  0  0  0  0  0  0  0
  150.5785  140.0441  155.4539 C   0  0  0  0  0  0  0  0  0  0  0  0
  151.7291  140.1679  156.2819 O   0  0  0  0  0  0  0  0  0  0  0  0
  154.2889  142.1912  163.8516 H   0  0  0  0  0  0  0  0  0  0  0  0
  155.6283  138.7648  161.9797 H   0  0  0  0  0  0  0  0  0  0  0  0
  154.2111  139.1676  159.9838 H   0  0  0  0  0  0  0  0  0  0  0  0
  151.6481  141.7927  159.8740 H   0  0  0  0  0  0  0  0  0  0  0  0
  153.4788  141.2474  157.8511 H   0  0  0  0  0  0  0  0  0  0  0  0
  153.1030  139.6764  158.5446 H   0  0  0  0  0  0  0  0  0  0  0  0
  150.7183  139.9782  158.0739 H   0  0  0  0  0  0  0  0  0  0  0  0
  150.5290  142.4585  158.4384 H   0  0  0  0  0  0  0  0  0  0  0  0
  151.5375  142.7507  157.0425 H   0  0  0  0  0  0  0  0  0  0  0  0
  148.5463  140.4731  157.5057 H   0  0  0  0  0  0  0  0  0  0  0  0
  148.1796  142.0693  158.1171 H   0  0  0  0  0  0  0  0  0  0  0  0
  146.3037  141.1630  156.7422 H   0  0  0  0  0  0  0  0  0  0  0  0
  146.9447  142.6399  156.0611 H   0  0  0  0  0  0  0  0  0  0  0  0
  147.6003  139.7981  155.1304 H   0  0  0  0  0  0  0  0  0  0  0  0
  146.6241  140.9638  154.2677 H   0  0  0  0  0  0  0  0  0  0  0  0
  148.9725  140.9024  153.3813 H   0  0  0  0  0  0  0  0  0  0  0  0
  148.5322  142.4734  153.9922 H   0  0  0  0  0  0  0  0  0  0  0  0
  150.7140  142.0652  154.7930 H   0  0  0  0  0  0  0  0  0  0  0  0
  149.8746  139.3350  155.8910 H   0  0  0  0  0  0  0  0  0  0  0  0
  150.8874  139.6291  154.4943 H   0  0  0  0  0  0  0  0  0  0  0  0
  149.4034  143.0280  156.3725 H   0  0  0  0  0  0  0  0  0  0  0  0
  1  2  1  0  0  0  0
  2  7  1  0  0  0  0
  2  3  2  0  0  0  0
  3  4  1  0  0  0  0
  3 20  1  0  0  0  0
  4  5  2  0  0  0  0
  5  6  1  0  0  0  0
  5 21  1  0  0  0  0
  6  7  2  0  0  0  0
  6 22  1  0  0  0  0
  7  8  1  0  0  0  0
  8  9  1  0  0  0  0
  8 23  1  0  0  0  0
  9 10  1  0  0  0  0
  9 24  1  0  0  0  0
  9 25  1  0  0  0  0
 10 19  1  0  0  0  0
 10 11  1  0  0  0  0
 10 26  1  0  0  0  0
 11 12  1  0  0  0  0
 11 27  1  0  0  0  0
 11 28  1  0  0  0  0
 12 17  1  0  0  0  0
 12 13  1  0  0  0  0
 12 40  1  0  0  0  0
 13 14  1  0  0  0  0
 13 29  1  0  0  0  0
 13 30  1  0  0  0  0
 14 15  1  0  0  0  0
 14 31  1  0  0  0  0
 14 32  1  0  0  0  0
 15 16  1  0  0  0  0
 15 33  1  0  0  0  0
 15 34  1  0  0  0  0
 16 17  1  0  0  0  0
 16 35  1  0  0  0  0
 16 36  1  0  0  0  0
 17 18  1  0  0  0  0
 17 37  1  0  0  0  0
 18 19  1  0  0  0  0
 18 38  1  0  0  0  0
 18 39  1  0  0  0  0
M  CHG  1  12   1
M  END
> <s_m_source_file>
AV-unprocessed.smi

> <i_m_source_file_index>
2822

> <i_lp_mmshare_version>
43012

> <i_f3d_flags>
0

> <s_epik_input>
Q2xjMVtjSF1uW2NIXVtjSF1jMVtOSF1bQ0gyXVtDQEhdKFtDSDJdMilPW0NIMl1bQ0BASF0oTjIzKVtDSDJdW0NIMl1bQ0gyXVtDSDJdMw==

> <s_epik_cmdline>
J2VwaWtfcHl0aG9uJywgJy1waCcsICc3LjAnLCAnLXRuJywgJzgnLCAnLW1hJywgJzIwMCcsICctbWV0YWxfYmluZGluZycsICctaW1hZScsICc8aW5maWxlLm1hZT4nLCAnLW9tYWUnLCAnPG91dGZpbGUubWFlPic=

> <r_lp_tautomer_probability>
0.999999

> <r_epik_Ionization_Penalty>
0.88937

> <r_epik_Ionization_Penalty_Charging>
0.0803403

> <r_epik_Ionization_Penalty_Neutral>
0.80903

> <r_epik_State_Penalty>
0.931884

> <r_epik_Charging_Adjusted_Penalty>
1.01222

> <i_epik_Tot_Q>
1

> <i_epik_Tot_abs_Q>
1

> <r_epik_Metal_State_Penalty>
0.0782275

> <b_epik_Metal_Only>
0

> <s_lp_Force_Field>
OPLS_2005

> <r_lp_Energy>
32.5478

> <b_lp_Chiralities_Consistent>
1

> <s_lp_Variant>
AV-unprocessed.smi:2822-14

> <Gold.Version>
5.8.1

> <Gold.Id.Protein>
6NUR|6NUR_protein|mol2

> <Gold.PLP.Fitness>
44.0426

> <Gold.PLP.PLP>
-38.5652

> <Gold.PLP.part.hbond>
-2.0000

> <Gold.PLP.part.metal>
0.0000

> <Gold.PLP.part.buried>
-0.6681

> <Gold.PLP.part.nonpolar>
-33.5061

> <Gold.PLP.part.repulsive>
0.1481

> <Gold.PLP.ligand.clash>
0.0000

> <Gold.PLP.ligand.torsion>
0.2616

> <Gold.PLP.Chemscore.Hbond>
2.0000

> <Gold.PLP.Chemscore.CHOScore>
0.0000

> <Gold.PLP.Chemscore.Metal>
0.0000

> <Gold.Chemscore.Hbonds>
donor molecule, donor type, donor heavy atom, donor atom, acceptor molecule, acceptor atom, score
      L1  H    12    40       P1  8028  2.00

> <Gold.PLP.Chemscore.Internal.Correction>
0.0006

> <Gold.Rescore>
     Score         DG    S(hbond)    S(metal)    S(lipo)     H(rot)  DE(clash)    DE(int)     intcor
     18.23     -19.07       0.99        0.00     113.43       1.17       0.25       0.58       ----

> <Gold.Chemscore.Fitness>
18.2315

> <Gold.Chemscore.DG>
-19.0686

> <Gold.Chemscore.ZeroCoef>
-5.4800

> <Gold.Chemscore.Hbond>
0.9912

> <Gold.Chemscore.Metal>
0.0000

> <Gold.Chemscore.Lipo>
113.4297

> <Gold.Chemscore.Internal_Hbond>
0.0000

> <Gold.Chemscore.DEClash>
0.2532

> <Gold.Chemscore.DEInternal>
0.5838

> <Gold.Chemscore.Rot>
1.1693

> <Gold.Chemscore.Internal.Correction>
   9.000000E+99

> <Gold.Chemscore.Hbonds>
donor molecule, donor type, donor heavy atom, donor atom, acceptor molecule, acceptor atom, score
      L1  H    12    40       P1  8028  1.00

> <Gold.Chemscore.Hbond.Weighted>
-3.3107

> <Gold.Chemscore.Metal.Weighted>
-0.0000

> <Gold.Chemscore.Lipo.Weighted>
-13.2713

> <Gold.Chemscore.Internal_Hbond.Weighted>
0.0000

> <Gold.Chemscore.DEClash.Weighted>
0.2532

> <Gold.Chemscore.DEInternal.Weighted>
0.5838

> <Gold.Chemscore.Rot.Weighted>
2.9934

> <Gold.Chemscore.Internal.Correction.Weighted>
   9.000000E+99

> <Gold.Protein.RotatedTorsions>
[ 6907 6896 6895 6894 ] final    9.30 input  -60.11 | X-H torsion
[ 7974 7965 7964 7962 ] final   71.81 input  175.53 | X-H torsion
[ 8008 7997 7996 7995 ] final    6.04 input   59.86 | X-H torsion
[ 10167 10162 10161 10158 ] final  -85.89 input  -65.29 | X-H torsion
[ 10718 10713 10712 10709 ] final -169.28 input   66.30 | X-H torsion
[ 10763 10752 10751 10750 ] final  133.84 input  -60.55 | X-H torsion
[ 11005 11000 10999 10996 ] final  -87.98 input  -57.11 | X-H torsion

> <Gold.Protein.ActiveResidues>
 VAL166  LYS551  ARG553  GLY616  TRP617  ASP618  TYR619  PRO620  LYS621  CYS622 
 ASP623  PHE694  ASN695  SER759  ASP760  ASP761  ALA762  ILE779  LEU786  VAL792 
 PHE793  MET794  SER795  GLU796  ALA797  LYS798  CYS799  TRP800  GLU811  SER814 

> <Gold.Protein.RotatedAtoms>
  151.7200  135.0896  160.0282 H   0  0  0  0  0  0  0  0  0  0  0  0  # atno 6907 bound_to 6896
  152.3608  133.6290  159.6022 H   0  0  0  0  0  0  0  0  0  0  0  0  # atno 6908 bound_to 6896
  150.7603  133.9343  159.3478 H   0  0  0  0  0  0  0  0  0  0  0  0  # atno 6909 bound_to 6896
  145.7612  139.2801  143.1375 H   0  0  0  0  0  0  0  0  0  0  0  0  # atno 7974 bound_to 7965
  154.7360  140.2740  155.6414 H   0  0  0  0  0  0  0  0  0  0  0  0  # atno 8008 bound_to 7997
  156.2862  140.2706  156.2000 H   0  0  0  0  0  0  0  0  0  0  0  0  # atno 8009 bound_to 7997
  155.0319  140.0371  157.2467 H   0  0  0  0  0  0  0  0  0  0  0  0  # atno 8010 bound_to 7997
  140.3994  143.2669  151.9161 H   0  0  0  0  0  0  0  0  0  0  0  0  # atno 10167 bound_to 10162
  156.7092  130.9227  151.3087 H   0  0  0  0  0  0  0  0  0  0  0  0  # atno 10718 bound_to 10713
  153.8136  135.3125  155.3403 H   0  0  0  0  0  0  0  0  0  0  0  0  # atno 10763 bound_to 10752
  154.8041  135.4708  154.0351 H   0  0  0  0  0  0  0  0  0  0  0  0  # atno 10764 bound_to 10752
  153.1738  135.6882  153.8661 H   0  0  0  0  0  0  0  0  0  0  0  0  # atno 10765 bound_to 10752
  141.1609  133.7543  156.9385 H   0  0  0  0  0  0  0  0  0  0  0  0  # atno 11005 bound_to 11000
  146.0262  140.8301  142.9898 LP  0  0  0  0  0  0  0  0  0  0  0  0  # atno 17320 bound_to 7965
  144.6830  140.2702  143.7307 LP  0  0  0  0  0  0  0  0  0  0  0  0  # atno 17321 bound_to 7965
  139.4785  144.5648  151.8182 LP  0  0  0  0  0  0  0  0  0  0  0  0  # atno 17342 bound_to 10162
  140.4755  144.1525  150.5924 LP  0  0  0  0  0  0  0  0  0  0  0  0  # atno 17343 bound_to 10162
  157.6943  130.9265  150.0600 LP  0  0  0  0  0  0  0  0  0  0  0  0  # atno 17370 bound_to 10713
  156.1673  130.3645  149.9214 LP  0  0  0  0  0  0  0  0  0  0  0  0  # atno 17371 bound_to 10713
  140.1338  134.9339  157.2373 LP  0  0  0  0  0  0  0  0  0  0  0  0  # atno 17394 bound_to 11000
  140.2921  134.3229  155.7312 LP  0  0  0  0  0  0  0  0  0  0  0  0  # atno 17395 bound_to 11000

$$$$
