AV-unprocessed.smi:3068|AV-procd|sdf|11707|dock3
  -GOLD-   2272017113D 1   1.00000     0.00000
 Structure written by MMmdl.
 39 41  0  0  0  0  0  0  0  0  1 V2000
  153.4256  138.5073  155.8262 N   0  0  0  0  0  0  0  0  0  0  0  0
  152.3712  138.9728  155.7222 C   0  0  0  0  0  0  0  0  0  0  0  0
  151.0432  139.5587  155.5908 C   0  0  0  0  0  0  0  0  0  0  0  0
  150.7208  140.0656  154.3782 N   0  0  0  0  0  0  0  0  0  0  0  0
  149.4940  140.6123  154.2426 C   0  0  0  0  0  0  0  0  0  0  0  0
  148.5833  140.6552  155.3158 C   0  0  0  0  0  0  0  0  0  0  0  0
  148.8958  140.1508  156.5281 N   0  0  0  0  0  0  0  0  0  0  0  0
  150.1266  139.6003  156.6794 C   0  0  0  0  0  0  0  0  0  0  0  0
  150.4666  139.0671  157.9368 N   0  0  0  0  0  0  0  0  0  0  0  0
  151.3031  139.7993  158.8806 C   0  0  0  0  0  0  0  0  0  0  0  0
  152.3364  140.7036  158.1747 C   0  0  1  0  0  0  0  0  0  0  0  0
  151.7357  142.0425  157.7061 C   0  0  0  0  0  0  0  0  0  0  0  0
  151.4549  142.9533  158.8094 N   0  0  0  0  0  0  0  0  0  0  0  0
  150.9051  144.2172  158.3204 C   0  0  0  0  0  0  0  0  0  0  0  0
  150.5671  145.1908  159.4599 C   0  0  0  0  0  0  0  0  0  0  0  0
  151.8108  145.4528  160.3206 C   0  0  0  0  0  0  0  0  0  0  0  0
  152.4142  144.1205  160.7910 C   0  0  0  0  0  0  0  0  0  0  0  0
  152.6699  143.1751  159.5983 C   0  0  1  0  0  0  0  0  0  0  0  0
  153.2594  141.8385  160.0902 C   0  0  0  0  0  0  0  0  0  0  0  0
  153.4804  140.9554  158.9932 O   0  0  0  0  0  0  0  0  0  0  0  0
  149.2376  141.0162  153.2745 H   0  0  0  0  0  0  0  0  0  0  0  0
  147.6032  141.0942  155.2018 H   0  0  0  0  0  0  0  0  0  0  0  0
  150.3035  138.0858  158.1120 H   0  0  0  0  0  0  0  0  0  0  0  0
  150.6718  140.3960  159.5396 H   0  0  0  0  0  0  0  0  0  0  0  0
  151.7995  139.0788  159.5295 H   0  0  0  0  0  0  0  0  0  0  0  0
  152.6950  140.1814  157.2874 H   0  0  0  0  0  0  0  0  0  0  0  0
  152.4357  142.5166  157.0163 H   0  0  0  0  0  0  0  0  0  0  0  0
  150.8247  141.8553  157.1366 H   0  0  0  0  0  0  0  0  0  0  0  0
  151.6138  144.6901  157.6388 H   0  0  0  0  0  0  0  0  0  0  0  0
  150.0024  144.0235  157.7400 H   0  0  0  0  0  0  0  0  0  0  0  0
  150.1857  146.1280  159.0541 H   0  0  0  0  0  0  0  0  0  0  0  0
  149.7722  144.7703  160.0773 H   0  0  0  0  0  0  0  0  0  0  0  0
  152.5502  146.0042  159.7384 H   0  0  0  0  0  0  0  0  0  0  0  0
  151.5557  146.0779  161.1768 H   0  0  0  0  0  0  0  0  0  0  0  0
  153.3431  144.3073  161.3306 H   0  0  0  0  0  0  0  0  0  0  0  0
  151.7339  143.6453  161.4993 H   0  0  0  0  0  0  0  0  0  0  0  0
  153.4167  143.6457  158.9562 H   0  0  0  0  0  0  0  0  0  0  0  0
  154.2131  142.0087  160.5906 H   0  0  0  0  0  0  0  0  0  0  0  0
  152.6045  141.3694  160.8247 H   0  0  0  0  0  0  0  0  0  0  0  0
  1  2  3  0  0  0  0
  2  3  1  0  0  0  0
  3  8  1  0  0  0  0
  3  4  2  0  0  0  0
  4  5  1  0  0  0  0
  5  6  2  0  0  0  0
  5 21  1  0  0  0  0
  6  7  1  0  0  0  0
  6 22  1  0  0  0  0
  7  8  2  0  0  0  0
  8  9  1  0  0  0  0
  9 10  1  0  0  0  0
  9 23  1  0  0  0  0
 10 11  1  0  0  0  0
 10 24  1  0  0  0  0
 10 25  1  0  0  0  0
 11 20  1  0  0  0  0
 11 12  1  0  0  0  0
 11 26  1  0  0  0  0
 12 13  1  0  0  0  0
 12 27  1  0  0  0  0
 12 28  1  0  0  0  0
 13 18  1  0  0  0  0
 13 14  1  0  0  0  0
 14 15  1  0  0  0  0
 14 29  1  0  0  0  0
 14 30  1  0  0  0  0
 15 16  1  0  0  0  0
 15 31  1  0  0  0  0
 15 32  1  0  0  0  0
 16 17  1  0  0  0  0
 16 33  1  0  0  0  0
 16 34  1  0  0  0  0
 17 18  1  0  0  0  0
 17 35  1  0  0  0  0
 17 36  1  0  0  0  0
 18 19  1  0  0  0  0
 18 37  1  0  0  0  0
 19 20  1  0  0  0  0
 19 38  1  0  0  0  0
 19 39  1  0  0  0  0
M  END
> <s_m_source_file>
AV-unprocessed.smi

> <i_m_source_file_index>
3068

> <i_lp_mmshare_version>
43012

> <i_f3d_flags>
0

> <s_epik_input>
TiNDYzFuW2NIXVtjSF1uYzFbTkhdW0NIMl1bQ0BIXShbQ0gyXTIpT1tDSDJdW0NAQEhdKE4yMylbQ0gyXVtDSDJdW0NIMl1bQ0gyXTM=

> <s_epik_cmdline>
J2VwaWtfcHl0aG9uJywgJy1waCcsICc3LjAnLCAnLXRuJywgJzgnLCAnLW1hJywgJzIwMCcsICctbWV0YWxfYmluZGluZycsICctaW1hZScsICc8aW5maWxlLm1hZT4nLCAnLW9tYWUnLCAnPG91dGZpbGUubWFlPic=

> <r_epik_Ionization_Penalty>
1.22359

> <r_epik_Ionization_Penalty_Charging>
0

> <r_epik_Ionization_Penalty_Neutral>
1.22359

> <r_epik_State_Penalty>
1.29103

> <r_epik_Charging_Adjusted_Penalty>
1.29103

> <i_epik_Tot_Q>
0

> <i_epik_Tot_abs_Q>
0

> <r_epik_Metal_State_Penalty>
1.29103

> <b_epik_Metal_Only>
0

> <s_lp_Force_Field>
OPLS_2005

> <r_lp_Energy>
49.2936

> <b_lp_Chiralities_Consistent>
1

> <s_lp_Variant>
AV-unprocessed.smi:3068-10

> <Gold.Version>
5.8.1

> <Gold.Id.Protein>
6NUR|6NUR_protein|mol2

> <Gold.PLP.Fitness>
44.2744

> <Gold.PLP.PLP>
-38.1716

> <Gold.PLP.part.hbond>
-2.6329

> <Gold.PLP.part.metal>
0.0000

> <Gold.PLP.part.buried>
-4.4769

> <Gold.PLP.part.nonpolar>
-31.1864

> <Gold.PLP.part.repulsive>
0.2662

> <Gold.PLP.ligand.clash>
0.0000

> <Gold.PLP.ligand.torsion>
1.1565

> <Gold.PLP.Chemscore.Hbond>
1.9920

> <Gold.PLP.Chemscore.CHOScore>
0.8111

> <Gold.PLP.Chemscore.Metal>
0.0000

> <Gold.Chemscore.Hbonds>
donor molecule, donor type, donor heavy atom, donor atom, acceptor molecule, acceptor atom, score
      P1  H  7989  7998       L1     4  0.93
      P1  H  7997  8010       L1     1  0.76
      L1  C     5    21       P1  7957  0.97

> <Gold.PLP.Chemscore.Internal.Correction>
0.0064

> <Gold.Rescore>
     Score         DG    S(hbond)    S(metal)    S(lipo)     H(rot)  DE(clash)    DE(int)     intcor
     15.66     -18.96       1.54        0.00      99.88       1.30       1.05       2.26       ----

> <Gold.Chemscore.Fitness>
15.6557

> <Gold.Chemscore.DG>
-18.9613

> <Gold.Chemscore.ZeroCoef>
-5.4800

> <Gold.Chemscore.Hbond>
1.5352

> <Gold.Chemscore.Metal>
0.0000

> <Gold.Chemscore.Lipo>
99.8833

> <Gold.Chemscore.Internal_Hbond>
0.0000

> <Gold.Chemscore.DEClash>
1.0462

> <Gold.Chemscore.DEInternal>
2.2594

> <Gold.Chemscore.Rot>
1.3019

> <Gold.Chemscore.Internal.Correction>
   9.000000E+99

> <Gold.Chemscore.Hbonds>
donor molecule, donor type, donor heavy atom, donor atom, acceptor molecule, acceptor atom, score
      P1  H  7989  7998       L1     4  0.49
      P1  H  7997  8010       L1     1  0.15

> <Gold.Chemscore.Hbond.Weighted>
-5.1277

> <Gold.Chemscore.Metal.Weighted>
-0.0000

> <Gold.Chemscore.Lipo.Weighted>
-11.6863

> <Gold.Chemscore.Internal_Hbond.Weighted>
0.0000

> <Gold.Chemscore.DEClash.Weighted>
1.0462

> <Gold.Chemscore.DEInternal.Weighted>
2.2594

> <Gold.Chemscore.Rot.Weighted>
3.3327

> <Gold.Chemscore.Internal.Correction.Weighted>
   9.000000E+99

> <Gold.Protein.RotatedTorsions>
[ 6907 6896 6895 6894 ] final  -93.35 input  -60.11 | X-H torsion
[ 7974 7965 7964 7962 ] final -122.41 input  175.53 | X-H torsion
[ 8008 7997 7996 7995 ] final   90.12 input   59.86 | X-H torsion
[ 10167 10162 10161 10158 ] final  154.04 input  -65.29 | X-H torsion
[ 10718 10713 10712 10709 ] final   25.39 input   66.30 | X-H torsion
[ 10763 10752 10751 10750 ] final -119.84 input  -60.55 | X-H torsion
[ 11005 11000 10999 10996 ] final  140.03 input  -57.11 | X-H torsion

> <Gold.Protein.ActiveResidues>
 VAL166  LYS551  ARG553  GLY616  TRP617  ASP618  TYR619  PRO620  LYS621  CYS622 
 ASP623  PHE694  ASN695  SER759  ASP760  ASP761  ALA762  ILE779  LEU786  VAL792 
 PHE793  MET794  SER795  GLU796  ALA797  LYS798  CYS799  TRP800  GLU811  SER814 

> <Gold.Protein.RotatedAtoms>
  150.6921  134.1981  159.4311 H   0  0  0  0  0  0  0  0  0  0  0  0  # atno 6907 bound_to 6896
  151.9949  134.9957  160.0572 H   0  0  0  0  0  0  0  0  0  0  0  0  # atno 6908 bound_to 6896
  152.1633  133.4561  159.4909 H   0  0  0  0  0  0  0  0  0  0  0  0  # atno 6909 bound_to 6896
  145.0297  140.8057  143.4331 H   0  0  0  0  0  0  0  0  0  0  0  0  # atno 7974 bound_to 7965
  156.0081  140.3353  155.6913 H   0  0  0  0  0  0  0  0  0  0  0  0  # atno 8008 bound_to 7997
  155.6196  140.0673  157.2700 H   0  0  0  0  0  0  0  0  0  0  0  0  # atno 8009 bound_to 7997
  154.4272  140.1779  156.1345 H   0  0  0  0  0  0  0  0  0  0  0  0  # atno 8010 bound_to 7997
  139.4824  144.5221  151.7859 H   0  0  0  0  0  0  0  0  0  0  0  0  # atno 10167 bound_to 10162
  157.1927  130.6853  149.6156 H   0  0  0  0  0  0  0  0  0  0  0  0  # atno 10718 bound_to 10713
  154.8628  135.4224  154.2363 H   0  0  0  0  0  0  0  0  0  0  0  0  # atno 10763 bound_to 10752
  153.3337  135.6989  153.6931 H   0  0  0  0  0  0  0  0  0  0  0  0  # atno 10764 bound_to 10752
  153.5937  135.3550  155.2893 H   0  0  0  0  0  0  0  0  0  0  0  0  # atno 10765 bound_to 10752
  140.0298  134.9357  157.0640 H   0  0  0  0  0  0  0  0  0  0  0  0  # atno 11005 bound_to 11000
  145.1786  139.2364  143.5304 LP  0  0  0  0  0  0  0  0  0  0  0  0  # atno 17320 bound_to 7965
  146.3497  140.1555  142.8591 LP  0  0  0  0  0  0  0  0  0  0  0  0  # atno 17321 bound_to 7965
  140.4737  144.1550  150.5921 LP  0  0  0  0  0  0  0  0  0  0  0  0  # atno 17342 bound_to 10162
  140.4354  143.2549  151.9541 LP  0  0  0  0  0  0  0  0  0  0  0  0  # atno 17343 bound_to 10162
  155.9710  130.4609  150.6090 LP  0  0  0  0  0  0  0  0  0  0  0  0  # atno 17370 bound_to 10713
  157.3845  131.0786  151.1448 LP  0  0  0  0  0  0  0  0  0  0  0  0  # atno 17371 bound_to 10713
  140.4245  134.1845  155.7165 LP  0  0  0  0  0  0  0  0  0  0  0  0  # atno 17394 bound_to 11000
  141.1824  133.8385  157.1210 LP  0  0  0  0  0  0  0  0  0  0  0  0  # atno 17395 bound_to 11000

$$$$
