AV-unprocessed.smi:1419|AV-procd|sdf|5781|dock9
  -GOLD-   22720 5423D 1   1.00000     0.00000
 Structure written by MMmdl.
 41 42  0  0  0  0  0  0  0  0  1 V2000
  149.6997  140.4451  158.1963 C   0  0  0  0  0  0  0  0  0  0  0  0
  150.8568  140.8044  157.2548 C   0  0  1  0  0  0  0  0  0  0  0  0
  150.4069  141.8023  156.1655 C   0  0  0  0  0  0  0  0  0  0  0  0
  149.3259  141.2860  155.3446 N   0  0  0  0  0  0  0  0  0  0  0  0
  149.3336  140.1279  154.5786 C   0  0  0  0  0  0  0  0  0  0  0  0
  148.1061  140.0586  153.9595 C   0  0  0  0  0  0  0  0  0  0  0  0
  147.3288  141.1524  154.3335 N   0  0  0  0  0  0  0  0  0  0  0  0
  148.1155  141.8312  155.1580 C   0  0  0  0  0  0  0  0  0  0  0  0
  151.9553  141.3646  158.0407 N   0  0  0  0  0  0  0  0  0  0  0  0
  151.8302  142.2188  159.0719 C   0  0  0  0  0  0  0  0  0  0  0  0
  150.7478  142.7132  159.3901 O   0  0  0  0  0  0  0  0  0  0  0  0
  152.9754  142.4373  159.7631 N   0  0  0  0  0  0  0  0  0  0  0  0
  154.2194  141.6624  159.6730 C   0  0  0  0  0  0  0  0  0  0  0  0
  154.3278  140.7935  160.9415 C   0  0  1  0  0  0  0  0  0  0  0  0
  155.6216  139.9735  160.9733 C   0  0  0  0  0  0  0  0  0  0  0  0
  154.3081  141.6435  162.0888 O   0  0  0  0  0  0  0  0  0  0  0  0
  153.1423  142.4634  162.1846 C   0  0  1  0  0  0  0  0  0  0  0  0
  153.2490  143.3023  163.4620 C   0  0  0  0  0  0  0  0  0  0  0  0
  153.0334  143.3362  160.9170 C   0  0  0  0  0  0  0  0  0  0  0  0
  148.8707  140.0001  157.6455 H   0  0  0  0  0  0  0  0  0  0  0  0
  149.3198  141.3263  158.7145 H   0  0  0  0  0  0  0  0  0  0  0  0
  150.0165  139.7246  158.9514 H   0  0  0  0  0  0  0  0  0  0  0  0
  151.1782  139.8800  156.7714 H   0  0  0  0  0  0  0  0  0  0  0  0
  150.0643  142.7304  156.6246 H   0  0  0  0  0  0  0  0  0  0  0  0
  151.2446  142.0650  155.5178 H   0  0  0  0  0  0  0  0  0  0  0  0
  150.1916  139.4739  154.5302 H   0  0  0  0  0  0  0  0  0  0  0  0
  147.7260  139.3119  153.2780 H   0  0  0  0  0  0  0  0  0  0  0  0
  147.8082  142.7544  155.6269 H   0  0  0  0  0  0  0  0  0  0  0  0
  152.8787  141.0085  157.8415 H   0  0  0  0  0  0  0  0  0  0  0  0
  154.2870  141.0428  158.7786 H   0  0  0  0  0  0  0  0  0  0  0  0
  155.0659  142.3484  159.6147 H   0  0  0  0  0  0  0  0  0  0  0  0
  153.4793  140.1090  160.9923 H   0  0  0  0  0  0  0  0  0  0  0  0
  155.6769  139.2952  160.1216 H   0  0  0  0  0  0  0  0  0  0  0  0
  155.6800  139.3725  161.8809 H   0  0  0  0  0  0  0  0  0  0  0  0
  156.4991  140.6200  160.9449 H   0  0  0  0  0  0  0  0  0  0  0  0
  152.2636  141.8201  162.2639 H   0  0  0  0  0  0  0  0  0  0  0  0
  152.3741  143.9411  163.5855 H   0  0  0  0  0  0  0  0  0  0  0  0
  154.1319  143.9420  163.4417 H   0  0  0  0  0  0  0  0  0  0  0  0
  153.3202  142.6629  164.3421 H   0  0  0  0  0  0  0  0  0  0  0  0
  153.8996  143.9939  160.8281 H   0  0  0  0  0  0  0  0  0  0  0  0
  152.1638  143.9915  160.9857 H   0  0  0  0  0  0  0  0  0  0  0  0
  1  2  1  0  0  0  0
  1 20  1  0  0  0  0
  1 21  1  0  0  0  0
  1 22  1  0  0  0  0
  2  3  1  0  0  0  0
  2  9  1  0  0  0  0
  2 23  1  0  0  0  0
  3  4  1  0  0  0  0
  3 24  1  0  0  0  0
  3 25  1  0  0  0  0
  4  8  1  0  0  0  0
  4  5  1  0  0  0  0
  5  6  2  0  0  0  0
  5 26  1  0  0  0  0
  6  7  1  0  0  0  0
  6 27  1  0  0  0  0
  7  8  2  0  0  0  0
  8 28  1  0  0  0  0
  9 10  1  0  0  0  0
  9 29  1  0  0  0  0
 10 11  2  0  0  0  0
 10 12  1  0  0  0  0
 12 19  1  0  0  0  0
 12 13  1  0  0  0  0
 13 14  1  0  0  0  0
 13 30  1  0  0  0  0
 13 31  1  0  0  0  0
 14 15  1  0  0  0  0
 14 16  1  0  0  0  0
 14 32  1  0  0  0  0
 15 33  1  0  0  0  0
 15 34  1  0  0  0  0
 15 35  1  0  0  0  0
 16 17  1  0  0  0  0
 17 18  1  0  0  0  0
 17 19  1  0  0  0  0
 17 36  1  0  0  0  0
 18 37  1  0  0  0  0
 18 38  1  0  0  0  0
 18 39  1  0  0  0  0
 19 40  1  0  0  0  0
 19 41  1  0  0  0  0
M  END
> <s_m_source_file>
AV-unprocessed.smi

> <i_m_source_file_index>
1419

> <i_lp_mmshare_version>
43012

> <i_f3d_flags>
0

> <s_epik_input>
W2NIXTFuW2NIXVtjSF1uMVtDSDJdW0NAQEhdKFtDSDNdKVtOSF1DKD1PKU4yW0NIMl1bQ0BASF0oW0NIM10pT1tDQEBIXShbQ0gzXSlbQ0gyXTI=

> <s_epik_cmdline>
J2VwaWtfcHl0aG9uJywgJy1waCcsICc3LjAnLCAnLXRuJywgJzgnLCAnLW1hJywgJzIwMCcsICctbWV0YWxfYmluZGluZycsICctaW1hZScsICc8aW5maWxlLm1hZT4nLCAnLW9tYWUnLCAnPG91dGZpbGUubWFlPic=

> <r_lp_tautomer_probability>
1

> <r_epik_Ionization_Penalty>
0.625124

> <r_epik_Ionization_Penalty_Charging>
0.625093

> <r_epik_Ionization_Penalty_Neutral>
3.17415e-05

> <r_epik_State_Penalty>
0.641455

> <r_epik_Charging_Adjusted_Penalty>
1.26655

> <i_epik_Tot_Q>
0

> <i_epik_Tot_abs_Q>
0

> <r_epik_Metal_State_Penalty>
0.307717

> <b_epik_Metal_Only>
0

> <s_lp_Force_Field>
OPLS_2005

> <r_lp_Energy>
27.9017

> <b_lp_Chiralities_Consistent>
1

> <s_lp_Variant>
AV-unprocessed.smi:1419-8

> <Gold.Version>
5.8.1

> <Gold.Id.Protein>
6NUR|6NUR_protein|mol2

> <Gold.PLP.Fitness>
43.9013

> <Gold.PLP.PLP>
-40.8856

> <Gold.PLP.part.hbond>
-1.6193

> <Gold.PLP.part.metal>
0.0000

> <Gold.PLP.part.buried>
-0.5751

> <Gold.PLP.part.nonpolar>
-36.9665

> <Gold.PLP.part.repulsive>
0.2552

> <Gold.PLP.ligand.clash>
0.0000

> <Gold.PLP.ligand.torsion>
0.3469

> <Gold.PLP.Chemscore.Hbond>
0.0000

> <Gold.PLP.Chemscore.CHOScore>
1.2149

> <Gold.PLP.Chemscore.Metal>
0.0000

> <Gold.Chemscore.Hbonds>
donor molecule, donor type, donor heavy atom, donor atom, acceptor molecule, acceptor atom, score
      L1  C     6    27       P1  7957  0.01
      L1  C     8    28       P1  8028  0.98

> <Gold.PLP.Chemscore.Internal.Correction>
0.0648

> <Gold.Rescore>
     Score         DG    S(hbond)    S(metal)    S(lipo)     H(rot)  DE(clash)    DE(int)     intcor
     10.07     -12.08       0.00        0.00      90.92       1.58       0.44       1.57       ----

> <Gold.Chemscore.Fitness>
10.0660

> <Gold.Chemscore.DG>
-12.0808

> <Gold.Chemscore.ZeroCoef>
-5.4800

> <Gold.Chemscore.Hbond>
0.0000

> <Gold.Chemscore.Metal>
0.0000

> <Gold.Chemscore.Lipo>
90.9204

> <Gold.Chemscore.Internal_Hbond>
0.0000

> <Gold.Chemscore.DEClash>
0.4409

> <Gold.Chemscore.DEInternal>
1.5738

> <Gold.Chemscore.Rot>
1.5769

> <Gold.Chemscore.Internal.Correction>
   9.000000E+99

> <Gold.Chemscore.Hbond.Weighted>
-0.0000

> <Gold.Chemscore.Metal.Weighted>
-0.0000

> <Gold.Chemscore.Lipo.Weighted>
-10.6377

> <Gold.Chemscore.Internal_Hbond.Weighted>
0.0000

> <Gold.Chemscore.DEClash.Weighted>
0.4409

> <Gold.Chemscore.DEInternal.Weighted>
1.5738

> <Gold.Chemscore.Rot.Weighted>
4.0369

> <Gold.Chemscore.Internal.Correction.Weighted>
   9.000000E+99

> <Gold.Protein.RotatedTorsions>
[ 6907 6896 6895 6894 ] final -131.53 input  -60.11 | X-H torsion
[ 7974 7965 7964 7962 ] final -110.53 input  175.53 | X-H torsion
[ 8008 7997 7996 7995 ] final   28.14 input   59.86 | X-H torsion
[ 10167 10162 10161 10158 ] final  169.53 input  -65.29 | X-H torsion
[ 10718 10713 10712 10709 ] final  -28.32 input   66.30 | X-H torsion
[ 10763 10752 10751 10750 ] final -122.54 input  -60.55 | X-H torsion
[ 11005 11000 10999 10996 ] final  163.21 input  -57.11 | X-H torsion

> <Gold.Protein.ActiveResidues>
 VAL166  LYS551  ARG553  GLY616  TRP617  ASP618  TYR619  PRO620  LYS621  CYS622 
 ASP623  PHE694  ASN695  SER759  ASP760  ASP761  ALA762  ILE779  LEU786  VAL792 
 PHE793  MET794  SER795  GLU796  ALA797  LYS798  CYS799  TRP800  GLU811  SER814 

> <Gold.Protein.RotatedAtoms>
  150.9520  133.6539  159.2770 H   0  0  0  0  0  0  0  0  0  0  0  0  # atno 6907 bound_to 6896
  151.3892  135.0952  159.9530 H   0  0  0  0  0  0  0  0  0  0  0  0  # atno 6908 bound_to 6896
  152.5113  133.9038  159.7509 H   0  0  0  0  0  0  0  0  0  0  0  0  # atno 6909 bound_to 6896
  145.1671  140.8907  143.3556 H   0  0  0  0  0  0  0  0  0  0  0  0  # atno 7974 bound_to 7965
  155.0539  140.3183  155.4683 H   0  0  0  0  0  0  0  0  0  0  0  0  # atno 8008 bound_to 7997
  156.2828  140.2141  156.5609 H   0  0  0  0  0  0  0  0  0  0  0  0  # atno 8009 bound_to 7997
  154.7187  140.0491  157.0607 H   0  0  0  0  0  0  0  0  0  0  0  0  # atno 8010 bound_to 7997
  139.4995  144.3695  151.9739 H   0  0  0  0  0  0  0  0  0  0  0  0  # atno 10167 bound_to 10162
  156.4268  130.4437  149.7145 H   0  0  0  0  0  0  0  0  0  0  0  0  # atno 10718 bound_to 10713
  154.8691  135.4129  154.2798 H   0  0  0  0  0  0  0  0  0  0  0  0  # atno 10763 bound_to 10752
  153.3693  135.7007  153.6656 H   0  0  0  0  0  0  0  0  0  0  0  0  # atno 10764 bound_to 10752
  153.5525  135.3626  155.2737 H   0  0  0  0  0  0  0  0  0  0  0  0  # atno 10765 bound_to 10752
  140.2335  134.8106  157.3340 H   0  0  0  0  0  0  0  0  0  0  0  0  # atno 11005 bound_to 11000
  145.0270  139.3373  143.6043 LP  0  0  0  0  0  0  0  0  0  0  0  0  # atno 17320 bound_to 7965
  146.3474  139.9593  142.8719 LP  0  0  0  0  0  0  0  0  0  0  0  0  # atno 17321 bound_to 7965
  140.3131  144.3514  150.6028 LP  0  0  0  0  0  0  0  0  0  0  0  0  # atno 17342 bound_to 10162
  140.5782  143.2175  151.7476 LP  0  0  0  0  0  0  0  0  0  0  0  0  # atno 17343 bound_to 10162
  156.4064  130.7700  151.2711 LP  0  0  0  0  0  0  0  0  0  0  0  0  # atno 17370 bound_to 10713
  157.7508  131.0224  150.3792 LP  0  0  0  0  0  0  0  0  0  0  0  0  # atno 17371 bound_to 10713
  140.1726  134.4589  155.7822 LP  0  0  0  0  0  0  0  0  0  0  0  0  # atno 17394 bound_to 11000
  141.2216  133.6948  156.7734 LP  0  0  0  0  0  0  0  0  0  0  0  0  # atno 17395 bound_to 11000

$$$$
