AV-unprocessed.smi:608|AV-procd|sdf|3044|dock5
  -GOLD-   2262023563D 1   1.00000     0.00000
 Structure written by MMmdl.
 40 41  0  0  0  0  0  0  0  0  1 V2000
  153.4492  141.8354  163.1797 C   0  0  0  0  0  0  0  0  0  0  0  0
  152.5296  142.8929  162.5591 C   0  0  0  0  0  0  0  0  0  0  0  0
  152.3327  142.7112  161.0898 C   0  0  0  0  0  0  0  0  0  0  0  0
  152.9067  141.7632  160.2790 C   0  0  0  0  0  0  0  0  0  0  0  0
  152.5259  141.8601  158.9386 N   0  0  0  0  0  0  0  0  0  0  0  0
  151.6846  142.8735  158.7198 C   0  0  0  0  0  0  0  0  0  0  0  0
  151.1076  143.1920  157.3811 C   0  0  0  0  0  0  0  0  0  0  0  0
  150.9498  141.9504  156.4938 C   0  0  0  0  0  0  0  0  0  0  0  0
  149.7085  142.0237  155.7359 N   0  0  0  0  0  0  0  0  0  0  0  0
  149.3635  141.1833  154.7466 C   0  0  0  0  0  0  0  0  0  0  0  0
  150.0925  140.2542  154.3962 O   0  0  0  0  0  0  0  0  0  0  0  0
  148.1566  141.4394  154.1771 N   0  0  0  0  0  0  0  0  0  0  0  0
  147.4234  140.5389  153.2766 C   0  0  0  0  0  0  0  0  0  0  0  0
  146.4969  139.6371  154.1119 C   0  0  0  0  0  0  0  0  0  0  0  0
  145.2412  140.3078  154.4333 N   0  0  0  0  0  0  0  0  0  0  0  0
  145.0898  141.4722  155.0909 C   0  0  0  0  0  0  0  0  0  0  0  0
  143.9730  141.9526  155.2707 O   0  0  0  0  0  0  0  0  0  0  0  0
  146.3208  142.2079  155.6509 C   0  0  0  0  0  0  0  0  0  0  0  0
  147.3539  142.6031  154.5737 C   0  0  0  0  0  0  0  0  0  0  0  0
  151.2759  143.7625  160.1820 S   0  0  0  0  0  0  0  0  0  0  0  0
  153.5581  141.9955  164.2525 H   0  0  0  0  0  0  0  0  0  0  0  0
  154.4450  141.8692  162.7366 H   0  0  0  0  0  0  0  0  0  0  0  0
  153.0501  140.8315  163.0313 H   0  0  0  0  0  0  0  0  0  0  0  0
  151.5625  142.8669  163.0624 H   0  0  0  0  0  0  0  0  0  0  0  0
  152.9407  143.8848  162.7485 H   0  0  0  0  0  0  0  0  0  0  0  0
  153.5968  140.9853  160.5711 H   0  0  0  0  0  0  0  0  0  0  0  0
  150.1400  143.6729  157.5291 H   0  0  0  0  0  0  0  0  0  0  0  0
  151.7485  143.9255  156.8895 H   0  0  0  0  0  0  0  0  0  0  0  0
  151.7930  141.8716  155.8054 H   0  0  0  0  0  0  0  0  0  0  0  0
  150.9459  141.0477  157.1069 H   0  0  0  0  0  0  0  0  0  0  0  0
  149.0657  142.7635  155.9775 H   0  0  0  0  0  0  0  0  0  0  0  0
  146.8505  141.1025  152.5382 H   0  0  0  0  0  0  0  0  0  0  0  0
  148.0992  139.9245  152.6811 H   0  0  0  0  0  0  0  0  0  0  0  0
  146.2433  138.7501  153.5310 H   0  0  0  0  0  0  0  0  0  0  0  0
  146.9840  139.2805  155.0211 H   0  0  0  0  0  0  0  0  0  0  0  0
  144.3998  139.8576  154.1028 H   0  0  0  0  0  0  0  0  0  0  0  0
  145.9714  143.1146  156.1464 H   0  0  0  0  0  0  0  0  0  0  0  0
  146.7842  141.6017  156.4304 H   0  0  0  0  0  0  0  0  0  0  0  0
  147.9850  143.4079  154.9537 H   0  0  0  0  0  0  0  0  0  0  0  0
  146.8534  143.0329  153.7046 H   0  0  0  0  0  0  0  0  0  0  0  0
  1  2  1  0  0  0  0
  1 21  1  0  0  0  0
  1 22  1  0  0  0  0
  1 23  1  0  0  0  0
  2  3  1  0  0  0  0
  2 24  1  0  0  0  0
  2 25  1  0  0  0  0
  3 20  1  0  0  0  0
  3  4  2  0  0  0  0
  4  5  1  0  0  0  0
  4 26  1  0  0  0  0
  5  6  2  0  0  0  0
  6  7  1  0  0  0  0
  6 20  1  0  0  0  0
  7  8  1  0  0  0  0
  7 27  1  0  0  0  0
  7 28  1  0  0  0  0
  8  9  1  0  0  0  0
  8 29  1  0  0  0  0
  8 30  1  0  0  0  0
  9 10  1  0  0  0  0
  9 31  1  0  0  0  0
 10 11  2  0  0  0  0
 10 12  1  0  0  0  0
 12 19  1  0  0  0  0
 12 13  1  0  0  0  0
 13 14  1  0  0  0  0
 13 32  1  0  0  0  0
 13 33  1  0  0  0  0
 14 15  1  0  0  0  0
 14 34  1  0  0  0  0
 14 35  1  0  0  0  0
 15 16  1  0  0  0  0
 15 36  1  0  0  0  0
 16 17  2  0  0  0  0
 16 18  1  0  0  0  0
 18 19  1  0  0  0  0
 18 37  1  0  0  0  0
 18 38  1  0  0  0  0
 19 39  1  0  0  0  0
 19 40  1  0  0  0  0
M  END
> <s_m_source_file>
AV-unprocessed.smi

> <i_m_source_file_index>
608

> <i_lp_mmshare_version>
43012

> <i_f3d_flags>
0

> <s_epik_input>
W0NIM11bQ0gyXWMxW2NIXW5jKHMxKVtDSDJdW0NIMl1bTkhdQyg9TylOMltDSDJdW0NIMl1bTkhdQyg9TylbQ0gyXVtDSDJdMg==

> <s_epik_cmdline>
J2VwaWtfcHl0aG9uJywgJy1waCcsICc3LjAnLCAnLXRuJywgJzgnLCAnLW1hJywgJzIwMCcsICctbWV0YWxfYmluZGluZycsICctaW1hZScsICc8aW5maWxlLm1hZT4nLCAnLW9tYWUnLCAnPG91dGZpbGUubWFlPic=

> <r_epik_Ionization_Penalty>
0.000937608

> <r_epik_Ionization_Penalty_Charging>
0

> <r_epik_Ionization_Penalty_Neutral>
0.000937608

> <r_epik_State_Penalty>
0.000579253

> <r_epik_Charging_Adjusted_Penalty>
0.000579253

> <i_epik_Tot_Q>
0

> <i_epik_Tot_abs_Q>
0

> <r_epik_Metal_State_Penalty>
-0

> <b_epik_Metal_Only>
0

> <s_lp_Force_Field>
OPLS_2005

> <r_lp_Energy>
19.2261

> <b_lp_Chiralities_Consistent>
1

> <s_lp_Variant>
AV-unprocessed.smi:608-1

> <Gold.Version>
5.8.1

> <Gold.Id.Protein>
6NUR|6NUR_protein|mol2

> <Gold.PLP.Fitness>
46.0038

> <Gold.PLP.PLP>
-42.5662

> <Gold.PLP.part.hbond>
-3.0000

> <Gold.PLP.part.metal>
0.0000

> <Gold.PLP.part.buried>
-0.6133

> <Gold.PLP.part.nonpolar>
-38.0850

> <Gold.PLP.part.repulsive>
0.4275

> <Gold.PLP.ligand.clash>
2.1954

> <Gold.PLP.ligand.torsion>
0.7287

> <Gold.PLP.Chemscore.Hbond>
2.3440

> <Gold.PLP.Chemscore.CHOScore>
0.0000

> <Gold.PLP.Chemscore.Metal>
0.0000

> <Gold.Chemscore.Hbonds>
donor molecule, donor type, donor heavy atom, donor atom, acceptor molecule, acceptor atom, score
      L1  H     9    31       P1  8028  0.77
      L1  H    15    36       P1 10175  0.35
      P1  H  7989  7998       L1    11  0.98

> <Gold.PLP.Chemscore.Internal.Correction>
0.0584

> <Gold.Rescore>
     Score         DG    S(hbond)    S(metal)    S(lipo)     H(rot)  DE(clash)    DE(int)     intcor
     18.73     -20.62       2.02        0.00     106.92       1.61       1.43       0.47       ----

> <Gold.Chemscore.Fitness>
18.7280

> <Gold.Chemscore.DG>
-20.6195

> <Gold.Chemscore.ZeroCoef>
-5.4800

> <Gold.Chemscore.Hbond>
2.0229

> <Gold.Chemscore.Metal>
0.0000

> <Gold.Chemscore.Lipo>
106.9212

> <Gold.Chemscore.Internal_Hbond>
0.0000

> <Gold.Chemscore.DEClash>
1.4254

> <Gold.Chemscore.DEInternal>
0.4661

> <Gold.Chemscore.Rot>
1.6120

> <Gold.Chemscore.Internal.Correction>
   9.000000E+99

> <Gold.Chemscore.Hbonds>
donor molecule, donor type, donor heavy atom, donor atom, acceptor molecule, acceptor atom, score
      L1  H     9    31       P1  8028  0.74
      L1  H    15    36       P1 10175  0.36
      P1  H  7989  7998       L1    11  0.73

> <Gold.Chemscore.Hbond.Weighted>
-6.7565

> <Gold.Chemscore.Metal.Weighted>
-0.0000

> <Gold.Chemscore.Lipo.Weighted>
-12.5098

> <Gold.Chemscore.Internal_Hbond.Weighted>
0.0000

> <Gold.Chemscore.DEClash.Weighted>
1.4254

> <Gold.Chemscore.DEInternal.Weighted>
0.4661

> <Gold.Chemscore.Rot.Weighted>
4.1267

> <Gold.Chemscore.Internal.Correction.Weighted>
   9.000000E+99

> <Gold.Protein.RotatedTorsions>
[ 6907 6896 6895 6894 ] final    9.64 input  -60.11 | X-H torsion
[ 7974 7965 7964 7962 ] final  169.98 input  175.53 | X-H torsion
[ 8008 7997 7996 7995 ] final  134.42 input   59.86 | X-H torsion
[ 10167 10162 10161 10158 ] final   86.03 input  -65.29 | X-H torsion
[ 10718 10713 10712 10709 ] final -113.58 input   66.30 | X-H torsion
[ 10763 10752 10751 10750 ] final   82.84 input  -60.55 | X-H torsion
[ 11005 11000 10999 10996 ] final  -65.56 input  -57.11 | X-H torsion

> <Gold.Protein.ActiveResidues>
 VAL166  LYS551  ARG553  GLY616  TRP617  ASP618  TYR619  PRO620  LYS621  CYS622 
 ASP623  PHE694  ASN695  SER759  ASP760  ASP761  ALA762  ILE779  LEU786  VAL792 
 PHE793  MET794  SER795  GLU796  ALA797  LYS798  CYS799  TRP800  GLU811  SER814 

> <Gold.Protein.RotatedAtoms>
  151.7255  135.0885  160.0291 H   0  0  0  0  0  0  0  0  0  0  0  0  # atno 6907 bound_to 6896
  152.3575  133.6250  159.5998 H   0  0  0  0  0  0  0  0  0  0  0  0  # atno 6908 bound_to 6896
  150.7581  133.9393  159.3493 H   0  0  0  0  0  0  0  0  0  0  0  0  # atno 6909 bound_to 6896
  144.7338  139.9135  143.6416 H   0  0  0  0  0  0  0  0  0  0  0  0  # atno 7974 bound_to 7965
  156.2999  140.2496  156.3415 H   0  0  0  0  0  0  0  0  0  0  0  0  # atno 8008 bound_to 7997
  154.9051  140.0405  157.1934 H   0  0  0  0  0  0  0  0  0  0  0  0  # atno 8009 bound_to 7997
  154.8461  140.2898  155.5632 H   0  0  0  0  0  0  0  0  0  0  0  0  # atno 8010 bound_to 7997
  139.8917  144.6382  150.8732 H   0  0  0  0  0  0  0  0  0  0  0  0  # atno 10167 bound_to 10162
  156.0776  130.5981  150.8661 H   0  0  0  0  0  0  0  0  0  0  0  0  # atno 10718 bound_to 10713
  153.1238  135.4713  154.9239 H   0  0  0  0  0  0  0  0  0  0  0  0  # atno 10763 bound_to 10752
  154.7601  135.3129  154.8398 H   0  0  0  0  0  0  0  0  0  0  0  0  # atno 10764 bound_to 10752
  153.8956  135.6880  153.4812 H   0  0  0  0  0  0  0  0  0  0  0  0  # atno 10765 bound_to 10752
  141.1458  133.6684  156.6005 H   0  0  0  0  0  0  0  0  0  0  0  0  # atno 11005 bound_to 11000
  146.0983  139.3977  143.0363 LP  0  0  0  0  0  0  0  0  0  0  0  0  # atno 17320 bound_to 7965
  145.7614  140.9933  143.1198 LP  0  0  0  0  0  0  0  0  0  0  0  0  # atno 17321 bound_to 7965
  140.7725  143.3505  151.2024 LP  0  0  0  0  0  0  0  0  0  0  0  0  # atno 17342 bound_to 10162
  139.7104  143.9386  152.2945 LP  0  0  0  0  0  0  0  0  0  0  0  0  # atno 17343 bound_to 10162
  157.5878  131.0945  150.9168 LP  0  0  0  0  0  0  0  0  0  0  0  0  # atno 17370 bound_to 10713
  156.9350  130.5363  149.5279 LP  0  0  0  0  0  0  0  0  0  0  0  0  # atno 17371 bound_to 10713
  140.3692  134.7620  157.4587 LP  0  0  0  0  0  0  0  0  0  0  0  0  # atno 17394 bound_to 11000
  140.0724  134.5844  155.8628 LP  0  0  0  0  0  0  0  0  0  0  0  0  # atno 17395 bound_to 11000

$$$$
