AV-unprocessed.smi:704|AV-procd|sdf|3443|dock4
  -GOLD-   22720 0433D 1   1.00000     0.00000
 Structure written by MMmdl.
 38 39  0  0  0  0  0  0  0  0  1 V2000
  151.7105  138.2781  154.4801 C   0  0  0  0  0  0  0  0  0  0  0  0
  150.3564  138.2332  154.0436 O   0  0  0  0  0  0  0  0  0  0  0  0
  149.5759  139.3632  154.1980 C   0  0  0  0  0  0  0  0  0  0  0  0
  150.1386  140.4649  154.7558 N   0  0  0  0  0  0  0  0  0  0  0  0
  149.3798  141.5705  154.9019 C   0  0  0  0  0  0  0  0  0  0  0  0
  148.0339  141.6399  154.4981 C   0  0  0  0  0  0  0  0  0  0  0  0
  147.4476  140.4986  153.9209 C   0  0  0  0  0  0  0  0  0  0  0  0
  148.2269  139.3256  153.7748 C   0  0  0  0  0  0  0  0  0  0  0  0
  147.7363  138.1284  153.1857 N   0  0  0  0  0  0  0  0  0  0  0  0
  146.4610  137.7268  153.0566 C   0  0  0  0  0  0  0  0  0  0  0  0
  145.4756  138.3416  153.4648 O   0  0  0  0  0  0  0  0  0  0  0  0
  146.3881  136.5360  152.4461 N   0  0  0  0  0  0  0  0  0  0  0  0
  145.1487  135.8020  152.1846 C   0  0  1  0  0  0  0  0  0  0  0  0
  145.0165  135.4473  150.6913 C   0  0  0  0  0  0  0  0  0  0  0  0
  144.4968  134.0059  150.6201 C   0  0  0  0  0  0  0  0  0  0  0  0
  144.0999  133.6316  152.0508 C   0  0  0  0  0  0  0  0  0  0  0  0
  145.0026  134.4698  152.9684 C   0  0  1  0  0  0  0  0  0  0  0  0
  146.3270  133.7324  153.2643 C   0  0  0  0  0  0  0  0  0  0  0  0
  147.4477  134.2981  152.8092 N   0  0  0  0  0  0  0  0  0  0  0  0
  146.3410  132.6704  153.8846 O   0  0  0  0  0  0  0  0  0  0  0  0
  152.1824  137.3138  154.2917 H   0  0  0  0  0  0  0  0  0  0  0  0
  151.7781  138.4752  155.5510 H   0  0  0  0  0  0  0  0  0  0  0  0
  152.2796  139.0356  153.9394 H   0  0  0  0  0  0  0  0  0  0  0  0
  149.8621  142.4278  155.3476 H   0  0  0  0  0  0  0  0  0  0  0  0
  147.4655  142.5496  154.6236 H   0  0  0  0  0  0  0  0  0  0  0  0
  146.4220  140.5488  153.5892 H   0  0  0  0  0  0  0  0  0  0  0  0
  148.4432  137.4692  152.8936 H   0  0  0  0  0  0  0  0  0  0  0  0
  147.2480  136.0954  152.1535 H   0  0  0  0  0  0  0  0  0  0  0  0
  144.3036  136.4417  152.4472 H   0  0  0  0  0  0  0  0  0  0  0  0
  144.3304  136.1362  150.1972 H   0  0  0  0  0  0  0  0  0  0  0  0
  145.9722  135.5195  150.1699 H   0  0  0  0  0  0  0  0  0  0  0  0
  143.6623  133.9019  149.9262 H   0  0  0  0  0  0  0  0  0  0  0  0
  145.2918  133.3457  150.2710 H   0  0  0  0  0  0  0  0  0  0  0  0
  143.0589  133.9075  152.2235 H   0  0  0  0  0  0  0  0  0  0  0  0
  144.1788  132.5581  152.2291 H   0  0  0  0  0  0  0  0  0  0  0  0
  144.4967  134.6554  153.9176 H   0  0  0  0  0  0  0  0  0  0  0  0
  148.3404  133.8581  152.9795 H   0  0  0  0  0  0  0  0  0  0  0  0
  147.3982  135.1679  152.2987 H   0  0  0  0  0  0  0  0  0  0  0  0
  1  2  1  0  0  0  0
  1 21  1  0  0  0  0
  1 22  1  0  0  0  0
  1 23  1  0  0  0  0
  2  3  1  0  0  0  0
  3  8  1  0  0  0  0
  3  4  2  0  0  0  0
  4  5  1  0  0  0  0
  5  6  2  0  0  0  0
  5 24  1  0  0  0  0
  6  7  1  0  0  0  0
  6 25  1  0  0  0  0
  7  8  2  0  0  0  0
  7 26  1  0  0  0  0
  8  9  1  0  0  0  0
  9 10  1  0  0  0  0
  9 27  1  0  0  0  0
 10 11  2  0  0  0  0
 10 12  1  0  0  0  0
 12 13  1  0  0  0  0
 12 28  1  0  0  0  0
 13 17  1  0  0  0  0
 13 14  1  0  0  0  0
 13 29  1  0  0  0  0
 14 15  1  0  0  0  0
 14 30  1  0  0  0  0
 14 31  1  0  0  0  0
 15 16  1  0  0  0  0
 15 32  1  0  0  0  0
 15 33  1  0  0  0  0
 16 17  1  0  0  0  0
 16 34  1  0  0  0  0
 16 35  1  0  0  0  0
 17 18  1  0  0  0  0
 17 36  1  0  0  0  0
 18 19  1  0  0  0  0
 18 20  2  0  0  0  0
 19 37  1  0  0  0  0
 19 38  1  0  0  0  0
M  END
> <s_m_source_file>
AV-unprocessed.smi

> <i_m_source_file_index>
704

> <i_lp_mmshare_version>
43012

> <i_f3d_flags>
0

> <s_epik_input>
W0NIM11PYzFuW2NIXVtjSF1bY0hdYzFbTkhdQyg9TylbTkhdW0NAQEhdMltDSDJdW0NIMl1bQ0gyXVtDQEhdMkMoPU8pW05IMl0=

> <s_epik_cmdline>
J2VwaWtfcHl0aG9uJywgJy1waCcsICc3LjAnLCAnLXRuJywgJzgnLCAnLW1hJywgJzIwMCcsICctbWV0YWxfYmluZGluZycsICctaW1hZScsICc8aW5maWxlLm1hZT4nLCAnLW9tYWUnLCAnPG91dGZpbGUubWFlPic=

> <r_lp_tautomer_probability>
1

> <r_epik_Ionization_Penalty>
9.09123e-05

> <r_epik_Ionization_Penalty_Charging>
0

> <r_epik_Ionization_Penalty_Neutral>
9.09123e-05

> <r_epik_State_Penalty>
-0

> <r_epik_Charging_Adjusted_Penalty>
0

> <i_epik_Tot_Q>
0

> <i_epik_Tot_abs_Q>
0

> <r_epik_Metal_State_Penalty>
-0

> <b_epik_Metal_Only>
0

> <s_lp_Force_Field>
OPLS_2005

> <r_lp_Energy>
16.4561

> <b_lp_Chiralities_Consistent>
1

> <s_lp_Variant>
AV-unprocessed.smi:704-2

> <Gold.Version>
5.8.1

> <Gold.Id.Protein>
6NUR|6NUR_protein|mol2

> <Gold.PLP.Fitness>
42.8554

> <Gold.PLP.PLP>
-30.1032

> <Gold.PLP.part.hbond>
-4.0000

> <Gold.PLP.part.metal>
0.0000

> <Gold.PLP.part.buried>
-3.3759

> <Gold.PLP.part.nonpolar>
-25.4325

> <Gold.PLP.part.repulsive>
1.9741

> <Gold.PLP.ligand.clash>
0.0000

> <Gold.PLP.ligand.torsion>
0.1538

> <Gold.PLP.Chemscore.Hbond>
3.4160

> <Gold.PLP.Chemscore.CHOScore>
0.9297

> <Gold.PLP.Chemscore.Metal>
0.0000

> <Gold.Chemscore.Hbonds>
donor molecule, donor type, donor heavy atom, donor atom, acceptor molecule, acceptor atom, score
      L1  H     9    27       P1  7948  1.00
      L1  H    12    28       P1  7948  0.99
      L1  H    19    38       P1  7948  0.46
      P1  H  7989  7998       L1     4  0.96
      L1  C     5    24       P1  8028  0.94

> <Gold.PLP.Chemscore.Internal.Correction>
0.0228

> <Gold.Rescore>
     Score         DG    S(hbond)    S(metal)    S(lipo)     H(rot)  DE(clash)    DE(int)     intcor
     12.99     -16.38       2.63        0.00      58.83       1.86       0.15       3.23       ----

> <Gold.Chemscore.Fitness>
12.9940

> <Gold.Chemscore.DG>
-16.3814

> <Gold.Chemscore.ZeroCoef>
-5.4800

> <Gold.Chemscore.Hbond>
2.6323

> <Gold.Chemscore.Metal>
0.0000

> <Gold.Chemscore.Lipo>
58.8330

> <Gold.Chemscore.Internal_Hbond>
0.0000

> <Gold.Chemscore.DEClash>
0.1530

> <Gold.Chemscore.DEInternal>
3.2344

> <Gold.Chemscore.Rot>
1.8648

> <Gold.Chemscore.Internal.Correction>
   9.000000E+99

> <Gold.Chemscore.Hbonds>
donor molecule, donor type, donor heavy atom, donor atom, acceptor molecule, acceptor atom, score
      L1  H     9    27       P1  7948  0.94
      L1  H    12    28       P1  7948  0.93
      L1  H    19    38       P1  7948  0.46
      P1  H  7989  7998       L1     4  0.23

> <Gold.Chemscore.Hbond.Weighted>
-8.7919

> <Gold.Chemscore.Metal.Weighted>
-0.0000

> <Gold.Chemscore.Lipo.Weighted>
-6.8835

> <Gold.Chemscore.Internal_Hbond.Weighted>
0.0000

> <Gold.Chemscore.DEClash.Weighted>
0.1530

> <Gold.Chemscore.DEInternal.Weighted>
3.2344

> <Gold.Chemscore.Rot.Weighted>
4.7739

> <Gold.Chemscore.Internal.Correction.Weighted>
   9.000000E+99

> <Gold.Protein.RotatedTorsions>
[ 6907 6896 6895 6894 ] final  176.74 input  -60.11 | X-H torsion
[ 7974 7965 7964 7962 ] final -146.77 input  175.53 | X-H torsion
[ 8008 7997 7996 7995 ] final  -76.37 input   59.86 | X-H torsion
[ 10167 10162 10161 10158 ] final -128.94 input  -65.29 | X-H torsion
[ 10718 10713 10712 10709 ] final   34.06 input   66.30 | X-H torsion
[ 10763 10752 10751 10750 ] final   16.52 input  -60.55 | X-H torsion
[ 11005 11000 10999 10996 ] final  133.54 input  -57.11 | X-H torsion

> <Gold.Protein.ActiveResidues>
 VAL166  LYS551  ARG553  GLY616  TRP617  ASP618  TYR619  PRO620  LYS621  CYS622 
 ASP623  PHE694  ASN695  SER759  ASP760  ASP761  ALA762  ILE779  LEU786  VAL792 
 PHE793  MET794  SER795  GLU796  ALA797  LYS798  CYS799  TRP800  GLU811  SER814 

> <Gold.Protein.RotatedAtoms>
  151.7153  133.3313  159.3301 H   0  0  0  0  0  0  0  0  0  0  0  0  # atno 6907 bound_to 6896
  150.7676  134.6496  159.6290 H   0  0  0  0  0  0  0  0  0  0  0  0  # atno 6908 bound_to 6896
  152.3686  134.6770  160.0235 H   0  0  0  0  0  0  0  0  0  0  0  0  # atno 6909 bound_to 6896
  144.8137  140.5413  143.5625 H   0  0  0  0  0  0  0  0  0  0  0  0  # atno 7974 bound_to 7965
  154.5500  140.0728  156.8651 H   0  0  0  0  0  0  0  0  0  0  0  0  # atno 8008 bound_to 7997
  155.3013  140.3384  155.4229 H   0  0  0  0  0  0  0  0  0  0  0  0  # atno 8009 bound_to 7997
  156.1952  140.1701  156.7998 H   0  0  0  0  0  0  0  0  0  0  0  0  # atno 8010 bound_to 7997
  139.9450  143.6120  152.2492 H   0  0  0  0  0  0  0  0  0  0  0  0  # atno 10167 bound_to 10162
  157.3057  130.7373  149.6694 H   0  0  0  0  0  0  0  0  0  0  0  0  # atno 10718 bound_to 10713
  153.1423  135.6762  153.9008 H   0  0  0  0  0  0  0  0  0  0  0  0  # atno 10763 bound_to 10752
  153.8461  135.3099  155.3430 H   0  0  0  0  0  0  0  0  0  0  0  0  # atno 10764 bound_to 10752
  154.7797  135.4895  153.9903 H   0  0  0  0  0  0  0  0  0  0  0  0  # atno 10765 bound_to 10752
  139.9858  134.9533  156.9739 H   0  0  0  0  0  0  0  0  0  0  0  0  # atno 11005 bound_to 11000
  145.5263  139.1476  143.3524 LP  0  0  0  0  0  0  0  0  0  0  0  0  # atno 17320 bound_to 7965
  146.2439  140.5404  142.8922 LP  0  0  0  0  0  0  0  0  0  0  0  0  # atno 17321 bound_to 7965
  139.6674  144.7662  151.1848 LP  0  0  0  0  0  0  0  0  0  0  0  0  # atno 17342 bound_to 10162
  140.7600  143.5917  150.8789 LP  0  0  0  0  0  0  0  0  0  0  0  0  # atno 17343 bound_to 10162
  155.9674  130.4266  150.4708 LP  0  0  0  0  0  0  0  0  0  0  0  0  # atno 17370 bound_to 10713
  157.2698  131.0584  151.2267 LP  0  0  0  0  0  0  0  0  0  0  0  0  # atno 17371 bound_to 10713
  140.5006  134.1101  155.7250 LP  0  0  0  0  0  0  0  0  0  0  0  0  # atno 17394 bound_to 11000
  141.1523  133.8946  157.2066 LP  0  0  0  0  0  0  0  0  0  0  0  0  # atno 17395 bound_to 11000

$$$$
