AV-unprocessed.smi:1554|AV-procd|sdf|6260|dock4
  -GOLD-   22720 6443D 1   1.00000     0.00000
 Structure written by MMmdl.
 49 51  0  0  0  0  0  0  0  0  3 V2000
  152.5181  143.9212  161.3859 C   0  0  0  0  0  0  0  0  0  0  0  0
  152.2878  143.0858  160.1381 C   0  0  0  0  0  0  0  0  0  0  0  0
  151.4408  143.5986  159.1300 C   0  0  0  0  0  0  0  0  0  0  0  0
  151.2507  142.8122  158.0001 C   0  0  0  0  0  0  0  0  0  0  0  0
  150.4893  143.0346  156.8514 N   0  3  0  0  0  0  0  0  0  0  0  0
  150.6135  141.9708  156.0111 C   0  0  0  0  0  0  0  0  0  0  0  0
  151.4376  141.0671  156.6091 N   0  0  0  0  0  0  0  0  0  0  0  0
  151.8926  139.7527  156.1246 C   0  0  0  0  0  0  0  0  0  0  0  0
  150.8001  138.9460  155.3876 C   0  0  2  0  0  0  0  0  0  0  0  0
  150.5226  139.5815  154.1541 O   0  0  0  0  0  0  0  0  0  0  0  0
  149.4875  138.8178  156.1916 C   0  0  0  0  0  0  0  0  0  0  0  0
  148.9666  137.4247  156.2318 N   0  3  1  0  0  0  0  0  0  0  0  0
  149.9741  136.3754  155.9310 C   0  0  0  0  0  0  0  0  0  0  0  0
  150.8860  136.0999  157.1430 C   0  0  0  0  0  0  0  0  0  0  0  0
  150.0958  135.7841  158.2829 O   0  0  0  0  0  0  0  0  0  0  0  0
  149.2172  136.8423  158.6490 C   0  0  2  0  0  0  0  0  0  0  0  0
  148.4889  136.4354  159.9348 C   0  0  0  0  0  0  0  0  0  0  0  0
  148.2394  137.0998  157.4838 C   0  0  0  0  0  0  0  0  0  0  0  0
  151.8674  141.5541  157.8504 C   0  0  0  0  0  0  0  0  0  0  0  0
  152.7065  141.0356  158.8349 C   0  0  0  0  0  0  0  0  0  0  0  0
  152.9121  141.8202  159.9921 C   0  0  0  0  0  0  0  0  0  0  0  0
  153.8220  141.2789  161.0817 C   0  0  0  0  0  0  0  0  0  0  0  0
  151.9876  144.8724  161.3327 H   0  0  0  0  0  0  0  0  0  0  0  0
  153.5789  144.1391  161.5114 H   0  0  0  0  0  0  0  0  0  0  0  0
  152.1655  143.3924  162.2716 H   0  0  0  0  0  0  0  0  0  0  0  0
  150.9626  144.5620  159.2338 H   0  0  0  0  0  0  0  0  0  0  0  0
  150.1388  141.8602  155.0465 H   0  0  0  0  0  0  0  0  0  0  0  0
  152.7352  139.9319  155.4554 H   0  0  0  0  0  0  0  0  0  0  0  0
  152.2954  139.1804  156.9597 H   0  0  0  0  0  0  0  0  0  0  0  0
  151.2107  137.9612  155.1679 H   0  0  0  0  0  0  0  0  0  0  0  0
  150.2366  138.9311  153.5310 H   0  0  0  0  0  0  0  0  0  0  0  0
  149.6342  139.1823  157.2079 H   0  0  0  0  0  0  0  0  0  0  0  0
  148.7387  139.4725  155.7437 H   0  0  0  0  0  0  0  0  0  0  0  0
  149.4402  135.4597  155.6729 H   0  0  0  0  0  0  0  0  0  0  0  0
  150.5692  136.6352  155.0564 H   0  0  0  0  0  0  0  0  0  0  0  0
  151.5426  135.2564  156.9292 H   0  0  0  0  0  0  0  0  0  0  0  0
  151.5332  136.9505  157.3595 H   0  0  0  0  0  0  0  0  0  0  0  0
  149.8008  137.7412  158.8551 H   0  0  0  0  0  0  0  0  0  0  0  0
  147.8084  137.2202  160.2664 H   0  0  0  0  0  0  0  0  0  0  0  0
  149.1978  136.2492  160.7421 H   0  0  0  0  0  0  0  0  0  0  0  0
  147.9054  135.5260  159.7881 H   0  0  0  0  0  0  0  0  0  0  0  0
  147.5335  137.8930  157.7332 H   0  0  0  0  0  0  0  0  0  0  0  0
  147.6403  136.2053  157.3071 H   0  0  0  0  0  0  0  0  0  0  0  0
  153.1869  140.0748  158.7286 H   0  0  0  0  0  0  0  0  0  0  0  0
  154.1933  140.2838  160.8345 H   0  0  0  0  0  0  0  0  0  0  0  0
  153.2870  141.2076  162.0289 H   0  0  0  0  0  0  0  0  0  0  0  0
  154.6843  141.9319  161.2181 H   0  0  0  0  0  0  0  0  0  0  0  0
  148.2748  137.3821  155.4971 H   0  0  0  0  0  0  0  0  0  0  0  0
  149.9275  143.8523  156.6509 H   0  0  0  0  0  0  0  0  0  0  0  0
  1  2  1  0  0  0  0
  1 23  1  0  0  0  0
  1 24  1  0  0  0  0
  1 25  1  0  0  0  0
  2 21  1  0  0  0  0
  2  3  2  0  0  0  0
  3  4  1  0  0  0  0
  3 26  1  0  0  0  0
  4 19  2  0  0  0  0
  4  5  1  0  0  0  0
  5  6  2  0  0  0  0
  5 49  1  0  0  0  0
  6  7  1  0  0  0  0
  6 27  1  0  0  0  0
  7  8  1  0  0  0  0
  7 19  1  0  0  0  0
  8  9  1  0  0  0  0
  8 28  1  0  0  0  0
  8 29  1  0  0  0  0
  9 10  1  0  0  0  0
  9 11  1  0  0  0  0
  9 30  1  0  0  0  0
 10 31  1  0  0  0  0
 11 12  1  0  0  0  0
 11 32  1  0  0  0  0
 11 33  1  0  0  0  0
 12 18  1  0  0  0  0
 12 13  1  0  0  0  0
 12 48  1  0  0  0  0
 13 14  1  0  0  0  0
 13 34  1  0  0  0  0
 13 35  1  0  0  0  0
 14 15  1  0  0  0  0
 14 36  1  0  0  0  0
 14 37  1  0  0  0  0
 15 16  1  0  0  0  0
 16 17  1  0  0  0  0
 16 18  1  0  0  0  0
 16 38  1  0  0  0  0
 17 39  1  0  0  0  0
 17 40  1  0  0  0  0
 17 41  1  0  0  0  0
 18 42  1  0  0  0  0
 18 43  1  0  0  0  0
 19 20  1  0  0  0  0
 20 21  2  0  0  0  0
 20 44  1  0  0  0  0
 21 22  1  0  0  0  0
 22 45  1  0  0  0  0
 22 46  1  0  0  0  0
 22 47  1  0  0  0  0
M  CHG  1   5   1
M  CHG  1  12   1
M  END
> <s_m_source_file>
AV-unprocessed.smi

> <i_m_source_file_index>
1554

> <i_lp_mmshare_version>
43012

> <i_f3d_flags>
0

> <s_epik_input>
W0NIM11jKFtjSF0xKWMoW0NIM10pW2NIXWMoYzEyKW4oW2NIXW4yKVtDSDJdW0NASF0oW09IXSlbQ0gyXU4zW0NIMl1bQ0gyXU9bQ0BASF0oW0NIM10pW0NIMl0z

> <s_epik_cmdline>
J2VwaWtfcHl0aG9uJywgJy1waCcsICc3LjAnLCAnLXRuJywgJzgnLCAnLW1hJywgJzIwMCcsICctbWV0YWxfYmluZGluZycsICctaW1hZScsICc8aW5maWxlLm1hZT4nLCAnLW9tYWUnLCAnPG91dGZpbGUubWFlPic=

> <r_epik_Ionization_Penalty>
1.8848

> <r_epik_Ionization_Penalty_Charging>
1.88479

> <r_epik_Ionization_Penalty_Neutral>
1.42224e-05

> <r_epik_State_Penalty>
1.94551

> <r_epik_Charging_Adjusted_Penalty>
3.8303

> <i_epik_Tot_Q>
2

> <i_epik_Tot_abs_Q>
2

> <r_epik_Metal_State_Penalty>
5.95849

> <b_epik_Metal_Only>
0

> <s_lp_Force_Field>
OPLS_2005

> <r_lp_Energy>
33.2635

> <b_lp_Chiralities_Consistent>
1

> <s_lp_Variant>
AV-unprocessed.smi:1554-21

> <Gold.Version>
5.8.1

> <Gold.Id.Protein>
6NUR|6NUR_protein|mol2

> <Gold.PLP.Fitness>
50.8862

> <Gold.PLP.PLP>
-42.0925

> <Gold.PLP.part.hbond>
-3.6117

> <Gold.PLP.part.metal>
0.0000

> <Gold.PLP.part.buried>
-6.0249

> <Gold.PLP.part.nonpolar>
-31.7365

> <Gold.PLP.part.repulsive>
0.0267

> <Gold.PLP.ligand.clash>
0.0000

> <Gold.PLP.ligand.torsion>
1.4941

> <Gold.PLP.Chemscore.Hbond>
3.9120

> <Gold.PLP.Chemscore.CHOScore>
0.0000

> <Gold.PLP.Chemscore.Metal>
0.0000

> <Gold.Chemscore.Hbonds>
donor molecule, donor type, donor heavy atom, donor atom, acceptor molecule, acceptor atom, score
      L1  H     5    49       P1  8028  2.00
      P1  H  6896  6907       L1    15  0.94
      P1  H  7989  7998       L1    10  1.00

> <Gold.PLP.Chemscore.Internal.Correction>
0.0458

> <Gold.Rescore>
     Score         DG    S(hbond)    S(metal)    S(lipo)     H(rot)  DE(clash)    DE(int)     intcor
     20.36     -22.72       2.86        0.00     111.86       2.11       0.00       2.36       ----

> <Gold.Chemscore.Fitness>
20.3594

> <Gold.Chemscore.DG>
-22.7245

> <Gold.Chemscore.ZeroCoef>
-5.4800

> <Gold.Chemscore.Hbond>
2.8634

> <Gold.Chemscore.Metal>
0.0000

> <Gold.Chemscore.Lipo>
111.8644

> <Gold.Chemscore.Internal_Hbond>
0.0000

> <Gold.Chemscore.DEClash>
0.0048

> <Gold.Chemscore.DEInternal>
2.3603

> <Gold.Chemscore.Rot>
2.1122

> <Gold.Chemscore.Internal.Correction>
   9.000000E+99

> <Gold.Chemscore.Hbonds>
donor molecule, donor type, donor heavy atom, donor atom, acceptor molecule, acceptor atom, score
      L1  H     5    49       P1  8028  0.97
      P1  H  6896  6907       L1    15  0.85
      P1  H  7989  7998       L1    10  0.89

> <Gold.Chemscore.Hbond.Weighted>
-9.5636

> <Gold.Chemscore.Metal.Weighted>
-0.0000

> <Gold.Chemscore.Lipo.Weighted>
-13.0881

> <Gold.Chemscore.Internal_Hbond.Weighted>
0.0000

> <Gold.Chemscore.DEClash.Weighted>
0.0048

> <Gold.Chemscore.DEInternal.Weighted>
2.3603

> <Gold.Chemscore.Rot.Weighted>
5.4073

> <Gold.Chemscore.Internal.Correction.Weighted>
   9.000000E+99

> <Gold.Protein.RotatedTorsions>
[ 6907 6896 6895 6894 ] final  -59.17 input  -60.11 | X-H torsion
[ 7974 7965 7964 7962 ] final   58.34 input  175.53 | X-H torsion
[ 8008 7997 7996 7995 ] final    8.13 input   59.86 | X-H torsion
[ 10167 10162 10161 10158 ] final -134.39 input  -65.29 | X-H torsion
[ 10718 10713 10712 10709 ] final   74.38 input   66.30 | X-H torsion
[ 10763 10752 10751 10750 ] final  -33.59 input  -60.55 | X-H torsion
[ 11005 11000 10999 10996 ] final   95.97 input  -57.11 | X-H torsion

> <Gold.Protein.ActiveResidues>
 VAL166  LYS551  ARG553  GLY616  TRP617  ASP618  TYR619  PRO620  LYS621  CYS622 
 ASP623  PHE694  ASN695  SER759  ASP760  ASP761  ALA762  ILE779  LEU786  VAL792 
 PHE793  MET794  SER795  GLU796  ALA797  LYS798  CYS799  TRP800  GLU811  SER814 

> <Gold.Protein.RotatedAtoms>
  150.7951  134.7004  159.6546 H   0  0  0  0  0  0  0  0  0  0  0  0  # atno 6907 bound_to 6896
  152.4062  134.6200  160.0058 H   0  0  0  0  0  0  0  0  0  0  0  0  # atno 6908 bound_to 6896
  151.6457  133.3286  159.3176 H   0  0  0  0  0  0  0  0  0  0  0  0  # atno 6909 bound_to 6896
  145.9192  139.3716  143.0488 H   0  0  0  0  0  0  0  0  0  0  0  0  # atno 7974 bound_to 7965
  154.7629  140.2788  155.6200 H   0  0  0  0  0  0  0  0  0  0  0  0  # atno 8008 bound_to 7997
  156.2919  140.2656  156.2339 H   0  0  0  0  0  0  0  0  0  0  0  0  # atno 8009 bound_to 7997
  154.9995  140.0373  157.2344 H   0  0  0  0  0  0  0  0  0  0  0  0  # atno 8010 bound_to 7997
  139.8885  143.6751  152.2616 H   0  0  0  0  0  0  0  0  0  0  0  0  # atno 10167 bound_to 10162
  157.6589  130.9675  150.1202 H   0  0  0  0  0  0  0  0  0  0  0  0  # atno 10718 bound_to 10713
  153.8327  135.6864  153.4812 H   0  0  0  0  0  0  0  0  0  0  0  0  # atno 10763 bound_to 10752
  153.1501  135.4621  154.9622 H   0  0  0  0  0  0  0  0  0  0  0  0  # atno 10764 bound_to 10752
  154.7879  135.3291  154.7789 H   0  0  0  0  0  0  0  0  0  0  0  0  # atno 10765 bound_to 10752
  139.8785  134.8927  156.4090 H   0  0  0  0  0  0  0  0  0  0  0  0  # atno 11005 bound_to 11000
  145.8571  140.9496  143.0719 LP  0  0  0  0  0  0  0  0  0  0  0  0  # atno 17320 bound_to 7965
  144.6751  140.0483  143.7479 LP  0  0  0  0  0  0  0  0  0  0  0  0  # atno 17321 bound_to 7965
  139.7131  144.7616  151.1079 LP  0  0  0  0  0  0  0  0  0  0  0  0  # atno 17342 bound_to 10162
  140.7731  143.5305  150.9429 LP  0  0  0  0  0  0  0  0  0  0  0  0  # atno 17343 bound_to 10162
  156.2075  130.3664  149.8711 LP  0  0  0  0  0  0  0  0  0  0  0  0  # atno 17370 bound_to 10713
  156.6598  130.8777  151.3545 LP  0  0  0  0  0  0  0  0  0  0  0  0  # atno 17371 bound_to 10713
  140.9214  133.7642  155.9911 LP  0  0  0  0  0  0  0  0  0  0  0  0  # atno 17394 bound_to 11000
  140.8435  134.3038  157.5304 LP  0  0  0  0  0  0  0  0  0  0  0  0  # atno 17395 bound_to 11000

$$$$
