AV-unprocessed.smi:2702|AV-procd|sdf|10436|dock1
  -GOLD-   2272014473D 1   1.00000     0.00000
 Structure written by MMmdl.
 47 48  0  0  0  0  0  0  0  0  1 V2000
  149.2632  134.3248  154.6805 C   0  0  0  0  0  0  0  0  0  0  0  0
  148.1555  134.9003  155.3500 O   0  0  0  0  0  0  0  0  0  0  0  0
  147.7434  136.1243  154.7661 C   0  0  0  0  0  0  0  0  0  0  0  0
  148.7893  137.1967  154.9940 C   0  0  0  0  0  0  0  0  0  0  0  0
  148.7158  138.4061  154.3912 C   0  0  0  0  0  0  0  0  0  0  0  0
  149.7466  139.4181  154.6209 C   0  0  0  0  0  0  0  0  0  0  0  0
  149.7105  140.5324  154.0979 O   0  0  0  0  0  0  0  0  0  0  0  0
  150.7524  139.0342  155.4619 N   0  0  0  0  0  0  0  0  0  0  0  0
  151.8599  139.9489  155.7933 C   0  0  0  0  0  0  0  0  0  0  0  0
  151.4086  141.1507  156.6342 C   0  0  0  0  0  0  0  0  0  0  0  0
  150.5979  141.9605  156.1832 O   0  0  0  0  0  0  0  0  0  0  0  0
  151.9561  141.2567  157.8543 N   0  0  0  0  0  0  0  0  0  0  0  0
  151.6466  142.2963  158.8329 C   0  0  2  0  0  0  0  0  0  0  0  0
  151.8320  143.6860  158.1934 C   0  0  0  0  0  0  0  0  0  0  0  0
  151.4810  144.8060  159.1842 C   0  0  0  0  0  0  0  0  0  0  0  0
  152.2816  144.6764  160.4894 C   0  0  0  0  0  0  0  0  0  0  0  0
  152.1033  143.2828  161.1253 C   0  0  2  0  0  0  0  0  0  0  0  0
  152.8186  143.1783  162.4824 C   0  0  0  0  0  0  0  0  0  0  0  0
  152.4827  142.1497  160.1353 C   0  0  2  0  0  0  0  0  0  0  0  0
  154.0033  142.0371  159.8745 C   0  0  0  0  0  0  0  0  0  0  0  0
  150.7904  137.7533  156.0482 C   0  0  0  0  0  0  0  0  0  0  0  0
  149.8626  136.8761  155.8314 N   0  0  0  0  0  0  0  0  0  0  0  0
  149.5345  133.3853  155.1621 H   0  0  0  0  0  0  0  0  0  0  0  0
  150.1314  134.9842  154.7159 H   0  0  0  0  0  0  0  0  0  0  0  0
  149.0270  134.1122  153.6369 H   0  0  0  0  0  0  0  0  0  0  0  0
  147.5889  135.9956  153.6935 H   0  0  0  0  0  0  0  0  0  0  0  0
  146.7914  136.4435  155.1932 H   0  0  0  0  0  0  0  0  0  0  0  0
  147.8872  138.6355  153.7372 H   0  0  0  0  0  0  0  0  0  0  0  0
  152.6367  139.3981  156.3277 H   0  0  0  0  0  0  0  0  0  0  0  0
  152.3517  140.3311  154.8971 H   0  0  0  0  0  0  0  0  0  0  0  0
  152.6179  140.5490  158.1384 H   0  0  0  0  0  0  0  0  0  0  0  0
  150.5905  142.2003  159.0931 H   0  0  0  0  0  0  0  0  0  0  0  0
  152.8594  143.8104  157.8496 H   0  0  0  0  0  0  0  0  0  0  0  0
  151.2017  143.7761  157.3080 H   0  0  0  0  0  0  0  0  0  0  0  0
  151.6677  145.7786  158.7282 H   0  0  0  0  0  0  0  0  0  0  0  0
  150.4140  144.7704  159.4076 H   0  0  0  0  0  0  0  0  0  0  0  0
  153.3369  144.8690  160.2949 H   0  0  0  0  0  0  0  0  0  0  0  0
  151.9564  145.4475  161.1887 H   0  0  0  0  0  0  0  0  0  0  0  0
  151.0392  143.1662  161.3383 H   0  0  0  0  0  0  0  0  0  0  0  0
  153.8830  143.3963  162.3974 H   0  0  0  0  0  0  0  0  0  0  0  0
  152.7116  142.1803  162.9081 H   0  0  0  0  0  0  0  0  0  0  0  0
  152.3990  143.8864  163.1974 H   0  0  0  0  0  0  0  0  0  0  0  0
  152.1866  141.2105  160.6049 H   0  0  0  0  0  0  0  0  0  0  0  0
  154.4101  142.9396  159.4202 H   0  0  0  0  0  0  0  0  0  0  0  0
  154.2358  141.2036  159.2118 H   0  0  0  0  0  0  0  0  0  0  0  0
  154.5546  141.8549  160.7961 H   0  0  0  0  0  0  0  0  0  0  0  0
  151.6516  137.5551  156.6884 H   0  0  0  0  0  0  0  0  0  0  0  0
  1  2  1  0  0  0  0
  1 23  1  0  0  0  0
  1 24  1  0  0  0  0
  1 25  1  0  0  0  0
  2  3  1  0  0  0  0
  3  4  1  0  0  0  0
  3 26  1  0  0  0  0
  3 27  1  0  0  0  0
  4 22  1  0  0  0  0
  4  5  2  0  0  0  0
  5  6  1  0  0  0  0
  5 28  1  0  0  0  0
  6  7  2  0  0  0  0
  6  8  1  0  0  0  0
  8  9  1  0  0  0  0
  8 21  1  0  0  0  0
  9 10  1  0  0  0  0
  9 29  1  0  0  0  0
  9 30  1  0  0  0  0
 10 11  2  0  0  0  0
 10 12  1  0  0  0  0
 12 13  1  0  0  0  0
 12 31  1  0  0  0  0
 13 19  1  0  0  0  0
 13 14  1  0  0  0  0
 13 32  1  0  0  0  0
 14 15  1  0  0  0  0
 14 33  1  0  0  0  0
 14 34  1  0  0  0  0
 15 16  1  0  0  0  0
 15 35  1  0  0  0  0
 15 36  1  0  0  0  0
 16 17  1  0  0  0  0
 16 37  1  0  0  0  0
 16 38  1  0  0  0  0
 17 18  1  0  0  0  0
 17 19  1  0  0  0  0
 17 39  1  0  0  0  0
 18 40  1  0  0  0  0
 18 41  1  0  0  0  0
 18 42  1  0  0  0  0
 19 20  1  0  0  0  0
 19 43  1  0  0  0  0
 20 44  1  0  0  0  0
 20 45  1  0  0  0  0
 20 46  1  0  0  0  0
 21 22  2  0  0  0  0
 21 47  1  0  0  0  0
M  END
> <s_m_source_file>
AV-unprocessed.smi

> <i_m_source_file_index>
2702

> <i_lp_mmshare_version>
43012

> <i_f3d_flags>
0

> <s_epik_input>
W0NIM11PW0NIMl1jMVtjSF1jKD1PKW4oW2NIXW4xKVtDSDJdQyg9TylbTkhdW0NAQEhdMltDSDJdW0NIMl1bQ0gyXVtDQEBIXShbQ0gzXSlbQ0BIXTJbQ0gzXQ==

> <s_epik_cmdline>
J2VwaWtfcHl0aG9uJywgJy1waCcsICc3LjAnLCAnLXRuJywgJzgnLCAnLW1hJywgJzIwMCcsICctbWV0YWxfYmluZGluZycsICctaW1hZScsICc8aW5maWxlLm1hZT4nLCAnLW9tYWUnLCAnPG91dGZpbGUubWFlPic=

> <r_lp_tautomer_probability>
1

> <r_epik_Ionization_Penalty>
1.22164e-06

> <r_epik_Ionization_Penalty_Charging>
3.17988e-07

> <r_epik_Ionization_Penalty_Neutral>
9.03656e-07

> <r_epik_State_Penalty>
-0

> <r_epik_Charging_Adjusted_Penalty>
3.17988e-07

> <i_epik_Tot_Q>
0

> <i_epik_Tot_abs_Q>
0

> <r_epik_Metal_State_Penalty>
-0

> <b_epik_Metal_Only>
0

> <s_lp_Force_Field>
OPLS_2005

> <r_lp_Energy>
18.8167

> <b_lp_Chiralities_Consistent>
1

> <s_lp_Variant>
AV-unprocessed.smi:2702-7

> <Gold.Version>
5.8.1

> <Gold.Id.Protein>
6NUR|6NUR_protein|mol2

> <Gold.PLP.Fitness>
44.4152

> <Gold.PLP.PLP>
-42.5786

> <Gold.PLP.part.hbond>
-1.0000

> <Gold.PLP.part.metal>
0.0000

> <Gold.PLP.part.buried>
-5.9591

> <Gold.PLP.part.nonpolar>
-36.9262

> <Gold.PLP.part.repulsive>
1.3680

> <Gold.PLP.ligand.clash>
0.0000

> <Gold.PLP.ligand.torsion>
0.1578

> <Gold.PLP.Chemscore.Hbond>
0.6880

> <Gold.PLP.Chemscore.CHOScore>
0.0000

> <Gold.PLP.Chemscore.Metal>
0.0000

> <Gold.Chemscore.Hbonds>
donor molecule, donor type, donor heavy atom, donor atom, acceptor molecule, acceptor atom, score
      P1  H  7989  7998       L1     7  0.67

> <Gold.PLP.Chemscore.Internal.Correction>
0.0881

> <Gold.Rescore>
     Score         DG    S(hbond)    S(metal)    S(lipo)     H(rot)  DE(clash)    DE(int)     intcor
     13.51     -16.75       0.92        0.00     112.34       1.93       0.31       2.93       ----

> <Gold.Chemscore.Fitness>
13.5092

> <Gold.Chemscore.DG>
-16.7510

> <Gold.Chemscore.ZeroCoef>
-5.4800

> <Gold.Chemscore.Hbond>
0.9173

> <Gold.Chemscore.Metal>
0.0000

> <Gold.Chemscore.Lipo>
112.3424

> <Gold.Chemscore.Internal_Hbond>
0.0000

> <Gold.Chemscore.DEClash>
0.3123

> <Gold.Chemscore.DEInternal>
2.9295

> <Gold.Chemscore.Rot>
1.9284

> <Gold.Chemscore.Internal.Correction>
   9.000000E+99

> <Gold.Chemscore.Hbonds>
donor molecule, donor type, donor heavy atom, donor atom, acceptor molecule, acceptor atom, score
      P1  H  7989  7998       L1     7  0.32

> <Gold.Chemscore.Hbond.Weighted>
-3.0637

> <Gold.Chemscore.Metal.Weighted>
-0.0000

> <Gold.Chemscore.Lipo.Weighted>
-13.1441

> <Gold.Chemscore.Internal_Hbond.Weighted>
0.0000

> <Gold.Chemscore.DEClash.Weighted>
0.3123

> <Gold.Chemscore.DEInternal.Weighted>
2.9295

> <Gold.Chemscore.Rot.Weighted>
4.9368

> <Gold.Chemscore.Internal.Correction.Weighted>
   9.000000E+99

> <Gold.Protein.RotatedTorsions>
[ 6907 6896 6895 6894 ] final   96.29 input  -60.11 | X-H torsion
[ 7974 7965 7964 7962 ] final   45.66 input  175.53 | X-H torsion
[ 8008 7997 7996 7995 ] final  158.07 input   59.86 | X-H torsion
[ 10167 10162 10161 10158 ] final   53.00 input  -65.29 | X-H torsion
[ 10718 10713 10712 10709 ] final  177.40 input   66.30 | X-H torsion
[ 10763 10752 10751 10750 ] final  149.74 input  -60.55 | X-H torsion
[ 11005 11000 10999 10996 ] final -161.03 input  -57.11 | X-H torsion

> <Gold.Protein.ActiveResidues>
 VAL166  LYS551  ARG553  GLY616  TRP617  ASP618  TYR619  PRO620  LYS621  CYS622 
 ASP623  PHE694  ASN695  SER759  ASP760  ASP761  ALA762  ILE779  LEU786  VAL792 
 PHE793  MET794  SER795  GLU796  ALA797  LYS798  CYS799  TRP800  GLU811  SER814 

> <Gold.Protein.RotatedAtoms>
  152.5436  134.0909  159.8275 H   0  0  0  0  0  0  0  0  0  0  0  0  # atno 6907 bound_to 6896
  151.0998  133.5244  159.2618 H   0  0  0  0  0  0  0  0  0  0  0  0  # atno 6908 bound_to 6896
  151.2004  135.0449  159.8924 H   0  0  0  0  0  0  0  0  0  0  0  0  # atno 6909 bound_to 6896
  146.0460  139.4940  142.9748 H   0  0  0  0  0  0  0  0  0  0  0  0  # atno 7974 bound_to 7965
  156.2325  140.1868  156.7205 H   0  0  0  0  0  0  0  0  0  0  0  0  # atno 8008 bound_to 7997
  154.6048  140.0630  156.9444 H   0  0  0  0  0  0  0  0  0  0  0  0  # atno 8009 bound_to 7997
  155.2114  140.3300  155.4331 H   0  0  0  0  0  0  0  0  0  0  0  0  # atno 8010 bound_to 7997
  140.2454  144.3538  150.6366 H   0  0  0  0  0  0  0  0  0  0  0  0  # atno 10167 bound_to 10162
  156.9060  130.9894  151.3028 H   0  0  0  0  0  0  0  0  0  0  0  0  # atno 10718 bound_to 10713
  154.0761  135.2863  155.3299 H   0  0  0  0  0  0  0  0  0  0  0  0  # atno 10763 bound_to 10752
  154.6715  135.5298  153.8147 H   0  0  0  0  0  0  0  0  0  0  0  0  # atno 10764 bound_to 10752
  153.0466  135.6559  154.0939 H   0  0  0  0  0  0  0  0  0  0  0  0  # atno 10765 bound_to 10752
  140.6249  134.4711  157.5226 H   0  0  0  0  0  0  0  0  0  0  0  0  # atno 11005 bound_to 11000
  145.6804  141.0192  143.1609 LP  0  0  0  0  0  0  0  0  0  0  0  0  # atno 17320 bound_to 7965
  144.7098  139.8415  143.7418 LP  0  0  0  0  0  0  0  0  0  0  0  0  # atno 17321 bound_to 7965
  140.6082  143.2168  151.6939 LP  0  0  0  0  0  0  0  0  0  0  0  0  # atno 17342 bound_to 10162
  139.5063  144.3685  152.0493 LP  0  0  0  0  0  0  0  0  0  0  0  0  # atno 17343 bound_to 10162
  157.5997  130.8503  149.8783 LP  0  0  0  0  0  0  0  0  0  0  0  0  # atno 17370 bound_to 10713
  156.0559  130.3708  150.1093 LP  0  0  0  0  0  0  0  0  0  0  0  0  # atno 17371 bound_to 10713
  139.9138  134.8288  156.1434 LP  0  0  0  0  0  0  0  0  0  0  0  0  # atno 17394 bound_to 11000
  141.0716  133.6794  156.2152 LP  0  0  0  0  0  0  0  0  0  0  0  0  # atno 17395 bound_to 11000

$$$$
