AV-unprocessed.smi:1632|AV-procd|sdf|6528|dock4
  -GOLD-   22720 7203D 1   1.00000     0.00000
 Structure written by MMmdl.
 42 44  0  0  0  0  0  0  0  0  1 V2000
  151.3086  135.9252  155.4408 O   0  0  0  0  0  0  0  0  0  0  0  0
  151.6835  137.0528  156.2027 C   0  0  0  0  0  0  0  0  0  0  0  0
  152.4367  138.0681  155.3316 C   0  0  0  0  0  0  0  0  0  0  0  0
  151.6641  139.3809  155.1191 C   0  0  0  0  0  0  0  0  0  0  0  0
  151.7417  140.2992  156.3068 C   0  0  0  0  0  0  0  0  0  0  0  0
  152.4991  139.9834  157.3587 N   0  0  0  0  0  0  0  0  0  0  0  0
  152.3034  141.0483  158.2136 C   0  0  0  0  0  0  0  0  0  0  0  0
  152.8428  141.3099  159.4934 C   0  0  0  0  0  0  0  0  0  0  0  0
  152.4879  142.4828  160.1912 C   0  0  0  0  0  0  0  0  0  0  0  0
  151.5895  143.4075  159.6206 C   0  0  0  0  0  0  0  0  0  0  0  0
  151.0400  143.1642  158.3473 C   0  0  0  0  0  0  0  0  0  0  0  0
  151.3993  141.9926  157.6537 C   0  0  0  0  0  0  0  0  0  0  0  0
  151.0451  141.4643  156.4151 N   0  0  0  0  0  0  0  0  0  0  0  0
  150.1022  142.0810  155.4880 C   0  0  0  0  0  0  0  0  0  0  0  0
  149.1309  141.0630  154.8581 C   0  0  2  0  0  0  0  0  0  0  0  0
  149.5500  140.8272  153.5291 O   0  0  0  0  0  0  0  0  0  0  0  0
  147.6750  141.5074  154.9268 C   0  0  0  0  0  0  0  0  0  0  0  0
  147.2061  142.5367  154.0800 C   0  0  0  0  0  0  0  0  0  0  0  0
  145.8583  142.9416  154.1289 C   0  0  0  0  0  0  0  0  0  0  0  0
  144.9692  142.3213  155.0266 C   0  0  0  0  0  0  0  0  0  0  0  0
  145.4306  141.2995  155.8784 C   0  0  0  0  0  0  0  0  0  0  0  0
  146.7792  140.8945  155.8329 C   0  0  0  0  0  0  0  0  0  0  0  0
  147.2063  139.9153  156.6662 F   0  0  0  0  0  0  0  0  0  0  0  0
  151.0278  135.2426  156.0308 H   0  0  0  0  0  0  0  0  0  0  0  0
  150.7811  137.5083  156.6111 H   0  0  0  0  0  0  0  0  0  0  0  0
  152.2940  136.7358  157.0484 H   0  0  0  0  0  0  0  0  0  0  0  0
  153.4174  138.2720  155.7638 H   0  0  0  0  0  0  0  0  0  0  0  0
  152.6267  137.6131  154.3610 H   0  0  0  0  0  0  0  0  0  0  0  0
  152.0425  139.8648  154.2231 H   0  0  0  0  0  0  0  0  0  0  0  0
  150.6130  139.1663  154.9239 H   0  0  0  0  0  0  0  0  0  0  0  0
  153.5307  140.6064  159.9388 H   0  0  0  0  0  0  0  0  0  0  0  0
  152.9059  142.6729  161.1688 H   0  0  0  0  0  0  0  0  0  0  0  0
  151.3217  144.3032  160.1617 H   0  0  0  0  0  0  0  0  0  0  0  0
  150.3512  143.8707  157.9088 H   0  0  0  0  0  0  0  0  0  0  0  0
  149.5679  142.9022  155.9605 H   0  0  0  0  0  0  0  0  0  0  0  0
  150.6930  142.5469  154.6978 H   0  0  0  0  0  0  0  0  0  0  0  0
  149.2368  140.1087  155.3746 H   0  0  0  0  0  0  0  0  0  0  0  0
  149.0435  140.1104  153.1785 H   0  0  0  0  0  0  0  0  0  0  0  0
  147.8806  143.0196  153.3881 H   0  0  0  0  0  0  0  0  0  0  0  0
  145.5072  143.7287  153.4779 H   0  0  0  0  0  0  0  0  0  0  0  0
  143.9355  142.6316  155.0652 H   0  0  0  0  0  0  0  0  0  0  0  0
  144.7498  140.8276  156.5712 H   0  0  0  0  0  0  0  0  0  0  0  0
  1  2  1  0  0  0  0
  1 24  1  0  0  0  0
  2  3  1  0  0  0  0
  2 25  1  0  0  0  0
  2 26  1  0  0  0  0
  3  4  1  0  0  0  0
  3 27  1  0  0  0  0
  3 28  1  0  0  0  0
  4  5  1  0  0  0  0
  4 29  1  0  0  0  0
  4 30  1  0  0  0  0
  5 13  1  0  0  0  0
  5  6  2  0  0  0  0
  6  7  1  0  0  0  0
  7 12  2  0  0  0  0
  7  8  1  0  0  0  0
  8  9  2  0  0  0  0
  8 31  1  0  0  0  0
  9 10  1  0  0  0  0
  9 32  1  0  0  0  0
 10 11  2  0  0  0  0
 10 33  1  0  0  0  0
 11 12  1  0  0  0  0
 11 34  1  0  0  0  0
 12 13  1  0  0  0  0
 13 14  1  0  0  0  0
 14 15  1  0  0  0  0
 14 35  1  0  0  0  0
 14 36  1  0  0  0  0
 15 16  1  0  0  0  0
 15 17  1  0  0  0  0
 15 37  1  0  0  0  0
 16 38  1  0  0  0  0
 17 22  1  0  0  0  0
 17 18  2  0  0  0  0
 18 19  1  0  0  0  0
 18 39  1  0  0  0  0
 19 20  2  0  0  0  0
 19 40  1  0  0  0  0
 20 21  1  0  0  0  0
 20 41  1  0  0  0  0
 21 22  2  0  0  0  0
 21 42  1  0  0  0  0
 22 23  1  0  0  0  0
M  END
> <s_m_source_file>
AV-unprocessed.smi

> <i_m_source_file_index>
1632

> <i_lp_mmshare_version>
43012

> <i_f3d_flags>
0

> <s_epik_input>
W09IXVtDSDJdW0NIMl1bQ0gyXWMobjEpbihjKGMxMilbY0hdW2NIXVtjSF1bY0hdMilbQ0gyXVtDQEhdKFtPSF0pYzNbY0hdW2NIXVtjSF1bY0hdYzNG

> <s_epik_cmdline>
J2VwaWtfcHl0aG9uJywgJy1waCcsICc3LjAnLCAnLXRuJywgJzgnLCAnLW1hJywgJzIwMCcsICctbWV0YWxfYmluZGluZycsICctaW1hZScsICc8aW5maWxlLm1hZT4nLCAnLW9tYWUnLCAnPG91dGZpbGUubWFlPic=

> <r_epik_Ionization_Penalty>
0.182561

> <r_epik_Ionization_Penalty_Charging>
0

> <r_epik_Ionization_Penalty_Neutral>
0.182561

> <r_epik_State_Penalty>
0.172086

> <r_epik_Charging_Adjusted_Penalty>
0.172086

> <i_epik_Tot_Q>
0

> <i_epik_Tot_abs_Q>
0

> <r_epik_Metal_State_Penalty>
0.000199649

> <b_epik_Metal_Only>
0

> <s_lp_Force_Field>
OPLS_2005

> <r_lp_Energy>
12.9461

> <b_lp_Chiralities_Consistent>
1

> <s_lp_Variant>
AV-unprocessed.smi:1632-1

> <Gold.Version>
5.8.1

> <Gold.Id.Protein>
6NUR|6NUR_protein|mol2

> <Gold.PLP.Fitness>
52.8571

> <Gold.PLP.PLP>
-45.8868

> <Gold.PLP.part.hbond>
-4.8579

> <Gold.PLP.part.metal>
0.0000

> <Gold.PLP.part.buried>
-2.7735

> <Gold.PLP.part.nonpolar>
-38.3659

> <Gold.PLP.part.repulsive>
0.0000

> <Gold.PLP.ligand.clash>
0.0000

> <Gold.PLP.ligand.torsion>
1.6419

> <Gold.PLP.Chemscore.Hbond>
3.4020

> <Gold.PLP.Chemscore.CHOScore>
0.0000

> <Gold.PLP.Chemscore.Metal>
0.0000

> <Gold.Chemscore.Hbonds>
donor molecule, donor type, donor heavy atom, donor atom, acceptor molecule, acceptor atom, score
      L1  H    16    38       P1  7957  0.07
      P1  H  7989  7998       L1    16  0.32
      P1  H  7997  8010       L1     6  1.00
      P1  H  8011  8017       L1    16  1.00
      P1  H 10752 10765       L1     1  1.00

> <Gold.PLP.Chemscore.Internal.Correction>
0.0483

> <Gold.Rescore>
     Score         DG    S(hbond)    S(metal)    S(lipo)     H(rot)  DE(clash)    DE(int)     intcor
     16.32     -19.16       2.43        0.00     114.96       3.07       0.77       2.08       ----

> <Gold.Chemscore.Fitness>
16.3156

> <Gold.Chemscore.DG>
-19.1645

> <Gold.Chemscore.ZeroCoef>
-5.4800

> <Gold.Chemscore.Hbond>
2.4263

> <Gold.Chemscore.Metal>
0.0000

> <Gold.Chemscore.Lipo>
114.9629

> <Gold.Chemscore.Internal_Hbond>
0.0000

> <Gold.Chemscore.DEClash>
0.7655

> <Gold.Chemscore.DEInternal>
2.0834

> <Gold.Chemscore.Rot>
3.0741

> <Gold.Chemscore.Internal.Correction>
   9.000000E+99

> <Gold.Chemscore.Hbonds>
donor molecule, donor type, donor heavy atom, donor atom, acceptor molecule, acceptor atom, score
      L1  H    16    38       P1  7957  0.09
      P1  H  7989  7998       L1    16  0.22
      P1  H  7997  8010       L1     6  0.29
      P1  H  8011  8017       L1    16  0.84
      P1  H 10752 10765       L1     1  0.23

> <Gold.Chemscore.Hbond.Weighted>
-8.1037

> <Gold.Chemscore.Metal.Weighted>
-0.0000

> <Gold.Chemscore.Lipo.Weighted>
-13.4507

> <Gold.Chemscore.Internal_Hbond.Weighted>
0.0000

> <Gold.Chemscore.DEClash.Weighted>
0.7655

> <Gold.Chemscore.DEInternal.Weighted>
2.0834

> <Gold.Chemscore.Rot.Weighted>
7.8698

> <Gold.Chemscore.Internal.Correction.Weighted>
   9.000000E+99

> <Gold.Protein.RotatedTorsions>
[ 6907 6896 6895 6894 ] final   51.50 input  -60.11 | X-H torsion
[ 7974 7965 7964 7962 ] final  109.22 input  175.53 | X-H torsion
[ 8008 7997 7996 7995 ] final   57.38 input   59.86 | X-H torsion
[ 10167 10162 10161 10158 ] final -129.74 input  -65.29 | X-H torsion
[ 10718 10713 10712 10709 ] final -125.82 input   66.30 | X-H torsion
[ 10763 10752 10751 10750 ] final  176.82 input  -60.55 | X-H torsion
[ 11005 11000 10999 10996 ] final    3.22 input  -57.11 | X-H torsion

> <Gold.Protein.ActiveResidues>
 VAL166  LYS551  ARG553  GLY616  TRP617  ASP618  TYR619  PRO620  LYS621  CYS622 
 ASP623  PHE694  ASN695  SER759  ASP760  ASP761  ALA762  ILE779  LEU786  VAL792 
 PHE793  MET794  SER795  GLU796  ALA797  LYS798  CYS799  TRP800  GLU811  SER814 

> <Gold.Protein.RotatedAtoms>
  152.3133  134.7470  160.0331 H   0  0  0  0  0  0  0  0  0  0  0  0  # atno 6907 bound_to 6896
  151.7944  133.3357  159.3516 H   0  0  0  0  0  0  0  0  0  0  0  0  # atno 6908 bound_to 6896
  150.7331  134.5743  159.5951 H   0  0  0  0  0  0  0  0  0  0  0  0  # atno 6909 bound_to 6896
  145.2706  139.2668  143.3968 H   0  0  0  0  0  0  0  0  0  0  0  0  # atno 7974 bound_to 7965
  155.5329  140.3482  155.4430 H   0  0  0  0  0  0  0  0  0  0  0  0  # atno 8008 bound_to 7997
  156.0706  140.1362  156.9860 H   0  0  0  0  0  0  0  0  0  0  0  0  # atno 8009 bound_to 7997
  154.4526  140.0966  156.6638 H   0  0  0  0  0  0  0  0  0  0  0  0  # atno 8010 bound_to 7997
  139.9366  143.6211  152.2515 H   0  0  0  0  0  0  0  0  0  0  0  0  # atno 10167 bound_to 10162
  156.1710  130.6667  151.0179 H   0  0  0  0  0  0  0  0  0  0  0  0  # atno 10718 bound_to 10713
  154.4863  135.2777  155.1532 H   0  0  0  0  0  0  0  0  0  0  0  0  # atno 10763 bound_to 10752
  154.3221  135.6207  153.5516 H   0  0  0  0  0  0  0  0  0  0  0  0  # atno 10764 bound_to 10752
  152.9882  135.5745  154.5274 H   0  0  0  0  0  0  0  0  0  0  0  0  # atno 10765 bound_to 10752
  140.5955  133.9884  155.8108 H   0  0  0  0  0  0  0  0  0  0  0  0  # atno 11005 bound_to 11000
  146.3248  140.3147  142.8629 LP  0  0  0  0  0  0  0  0  0  0  0  0  # atno 17320 bound_to 7965
  144.9339  140.8005  143.5672 LP  0  0  0  0  0  0  0  0  0  0  0  0  # atno 17321 bound_to 7965
  139.6739  144.7659  151.1732 LP  0  0  0  0  0  0  0  0  0  0  0  0  # atno 17342 bound_to 10162
  140.7623  143.5824  150.8881 LP  0  0  0  0  0  0  0  0  0  0  0  0  # atno 17343 bound_to 10162
  157.6802  131.0840  150.7389 LP  0  0  0  0  0  0  0  0  0  0  0  0  # atno 17370 bound_to 10713
  156.7448  130.4750  149.5469 LP  0  0  0  0  0  0  0  0  0  0  0  0  # atno 17371 bound_to 10713
  141.0907  133.9921  157.3242 LP  0  0  0  0  0  0  0  0  0  0  0  0  # atno 17394 bound_to 11000
  139.9255  135.0201  156.8219 LP  0  0  0  0  0  0  0  0  0  0  0  0  # atno 17395 bound_to 11000

$$$$
