AV-unprocessed.smi:1593|AV-procd|sdf|6413|dock7
  -GOLD-   22720 7 43D 1   1.00000     0.00000
 Structure written by MMmdl.
 36 37  0  0  0  0  0  0  0  0  3 V2000
  151.7801  144.8611  159.8275 C   0  0  0  0  0  0  0  0  0  0  0  0
  151.6756  143.6194  159.0103 C   0  0  0  0  0  0  0  0  0  0  0  0
  151.1527  143.3595  157.7750 C   0  0  0  0  0  0  0  0  0  0  0  0
  151.3924  141.9691  157.6104 C   0  0  0  0  0  0  0  0  0  0  0  0
  150.9955  141.3021  156.4214 N   0  0  0  0  0  0  0  0  0  0  0  0
  151.5583  140.2346  155.8261 C   0  0  0  0  0  0  0  0  0  0  0  0
  152.5301  139.6713  156.3441 O   0  0  0  0  0  0  0  0  0  0  0  0
  150.9321  139.9049  154.6629 N   0  5  0  0  0  0  0  0  0  0  0  0
  150.7190  138.5374  154.1943 C   0  0  0  0  0  0  0  0  0  0  0  0
  149.7212  137.8192  155.1229 C   0  0  0  0  0  0  0  0  0  0  0  0
  149.4185  136.4406  154.6539 N   0  3  0  0  0  0  0  0  0  0  0  0
  150.4914  135.4688  154.9769 C   0  0  0  0  0  0  0  0  0  0  0  0
  150.1572  134.0877  154.3882 C   0  0  0  0  0  0  0  0  0  0  0  0
  148.8981  133.6474  154.8821 O   0  0  0  0  0  0  0  0  0  0  0  0
  147.8434  134.5275  154.5134 C   0  0  0  0  0  0  0  0  0  0  0  0
  148.1024  135.9204  155.1105 C   0  0  0  0  0  0  0  0  0  0  0  0
  152.0060  141.4298  158.6535 N   0  0  0  0  0  0  0  0  0  0  0  0
  152.1905  142.4842  159.5555 O   0  0  0  0  0  0  0  0  0  0  0  0
  151.3466  145.7118  159.3013 H   0  0  0  0  0  0  0  0  0  0  0  0
  152.8227  145.0935  160.0448 H   0  0  0  0  0  0  0  0  0  0  0  0
  151.2538  144.7454  160.7750 H   0  0  0  0  0  0  0  0  0  0  0  0
  150.6769  144.0539  157.0988 H   0  0  0  0  0  0  0  0  0  0  0  0
  150.1925  141.6918  155.9508 H   0  0  0  0  0  0  0  0  0  0  0  0
  150.3307  138.5080  153.1753 H   0  0  0  0  0  0  0  0  0  0  0  0
  151.6516  137.9723  154.1733 H   0  0  0  0  0  0  0  0  0  0  0  0
  150.1613  137.7770  156.1207 H   0  0  0  0  0  0  0  0  0  0  0  0
  148.7974  138.3914  155.2251 H   0  0  0  0  0  0  0  0  0  0  0  0
  151.4422  135.8165  154.5710 H   0  0  0  0  0  0  0  0  0  0  0  0
  150.6088  135.3987  156.0595 H   0  0  0  0  0  0  0  0  0  0  0  0
  150.1416  134.1232  153.2975 H   0  0  0  0  0  0  0  0  0  0  0  0
  150.9207  133.3634  154.6722 H   0  0  0  0  0  0  0  0  0  0  0  0
  147.7575  134.5787  153.4267 H   0  0  0  0  0  0  0  0  0  0  0  0
  146.9015  134.1271  154.8890 H   0  0  0  0  0  0  0  0  0  0  0  0
  148.0875  135.8665  156.2001 H   0  0  0  0  0  0  0  0  0  0  0  0
  147.3007  136.5977  154.8145 H   0  0  0  0  0  0  0  0  0  0  0  0
  149.3827  136.4946  153.6459 H   0  0  0  0  0  0  0  0  0  0  0  0
  1  2  1  0  0  0  0
  1 19  1  0  0  0  0
  1 20  1  0  0  0  0
  1 21  1  0  0  0  0
  2 18  1  0  0  0  0
  2  3  2  0  0  0  0
  3  4  1  0  0  0  0
  3 22  1  0  0  0  0
  4  5  1  0  0  0  0
  4 17  2  0  0  0  0
  5  6  1  0  0  0  0
  5 23  1  0  0  0  0
  6  7  2  0  0  0  0
  6  8  1  0  0  0  0
  8  9  1  0  0  0  0
  9 10  1  0  0  0  0
  9 24  1  0  0  0  0
  9 25  1  0  0  0  0
 10 11  1  0  0  0  0
 10 26  1  0  0  0  0
 10 27  1  0  0  0  0
 11 16  1  0  0  0  0
 11 12  1  0  0  0  0
 11 36  1  0  0  0  0
 12 13  1  0  0  0  0
 12 28  1  0  0  0  0
 12 29  1  0  0  0  0
 13 14  1  0  0  0  0
 13 30  1  0  0  0  0
 13 31  1  0  0  0  0
 14 15  1  0  0  0  0
 15 16  1  0  0  0  0
 15 32  1  0  0  0  0
 15 33  1  0  0  0  0
 16 34  1  0  0  0  0
 16 35  1  0  0  0  0
 17 18  1  0  0  0  0
M  CHG  1   8  -1
M  CHG  1  11   1
M  END
> <s_m_source_file>
AV-unprocessed.smi

> <i_m_source_file_index>
1593

> <i_lp_mmshare_version>
43012

> <i_f3d_flags>
0

> <s_epik_input>
W0NIM11jMVtjSF1jKG5vMSlbTkhdQyg9TylbTkhdW0NIMl1bQ0gyXU4yW0NIMl1bQ0gyXU9bQ0gyXVtDSDJdMg==

> <s_epik_cmdline>
J2VwaWtfcHl0aG9uJywgJy1waCcsICc3LjAnLCAnLXRuJywgJzgnLCAnLW1hJywgJzIwMCcsICctbWV0YWxfYmluZGluZycsICctaW1hZScsICc8aW5maWxlLm1hZT4nLCAnLW9tYWUnLCAnPG91dGZpbGUubWFlPic=

> <r_epik_Ionization_Penalty>
6.79272

> <r_epik_Ionization_Penalty_Charging>
6.79272

> <r_epik_Ionization_Penalty_Neutral>
5.6208e-06

> <r_epik_State_Penalty>
7.45901

> <r_epik_Charging_Adjusted_Penalty>
14.2517

> <i_epik_Tot_Q>
0

> <i_epik_Tot_abs_Q>
2

> <r_epik_Metal_State_Penalty>
3.38639

> <b_epik_Metal_Only>
1

> <s_lp_Force_Field>
OPLS_2005

> <r_lp_Energy>
12.9182

> <b_lp_Chiralities_Consistent>
1

> <s_lp_Variant>
AV-unprocessed.smi:1593-5

> <Gold.Version>
5.8.1

> <Gold.Id.Protein>
6NUR|6NUR_protein|mol2

> <Gold.PLP.Fitness>
41.6412

> <Gold.PLP.PLP>
-30.9951

> <Gold.PLP.part.hbond>
-3.0000

> <Gold.PLP.part.metal>
0.0000

> <Gold.PLP.part.buried>
-6.5459

> <Gold.PLP.part.nonpolar>
-21.9762

> <Gold.PLP.part.repulsive>
0.2677

> <Gold.PLP.ligand.clash>
0.0000

> <Gold.PLP.ligand.torsion>
0.7010

> <Gold.PLP.Chemscore.Hbond>
4.0000

> <Gold.PLP.Chemscore.CHOScore>
0.0000

> <Gold.PLP.Chemscore.Metal>
0.0000

> <Gold.Chemscore.Hbonds>
donor molecule, donor type, donor heavy atom, donor atom, acceptor molecule, acceptor atom, score
      L1  H    11    36       P1  7948  2.00
      P1  H  7989  7998       L1     8  1.00
      P1  H  7997  8008       L1     7  1.00

> <Gold.PLP.Chemscore.Internal.Correction>
0.0482

> <Gold.Rescore>
     Score         DG    S(hbond)    S(metal)    S(lipo)     H(rot)  DE(clash)    DE(int)     intcor
     15.93     -17.84       2.65        0.00      65.53       1.62       0.02       1.89       ----

> <Gold.Chemscore.Fitness>
15.9339

> <Gold.Chemscore.DG>
-17.8414

> <Gold.Chemscore.ZeroCoef>
-5.4800

> <Gold.Chemscore.Hbond>
2.6492

> <Gold.Chemscore.Metal>
0.0000

> <Gold.Chemscore.Lipo>
65.5336

> <Gold.Chemscore.Internal_Hbond>
0.0000

> <Gold.Chemscore.DEClash>
0.0208

> <Gold.Chemscore.DEInternal>
1.8866

> <Gold.Chemscore.Rot>
1.6228

> <Gold.Chemscore.Internal.Correction>
   9.000000E+99

> <Gold.Chemscore.Hbonds>
donor molecule, donor type, donor heavy atom, donor atom, acceptor molecule, acceptor atom, score
      L1  H    11    36       P1  7948  0.85
      P1  H  7989  7998       L1     8  0.41
      P1  H  7997  8008       L1     7  1.00

> <Gold.Chemscore.Hbond.Weighted>
-8.8482

> <Gold.Chemscore.Metal.Weighted>
-0.0000

> <Gold.Chemscore.Lipo.Weighted>
-7.6674

> <Gold.Chemscore.Internal_Hbond.Weighted>
0.0000

> <Gold.Chemscore.DEClash.Weighted>
0.0208

> <Gold.Chemscore.DEInternal.Weighted>
1.8866

> <Gold.Chemscore.Rot.Weighted>
4.1542

> <Gold.Chemscore.Internal.Correction.Weighted>
   9.000000E+99

> <Gold.Protein.RotatedTorsions>
[ 6907 6896 6895 6894 ] final  151.87 input  -60.11 | X-H torsion
[ 7974 7965 7964 7962 ] final -139.46 input  175.53 | X-H torsion
[ 8008 7997 7996 7995 ] final  -41.55 input   59.86 | X-H torsion
[ 10167 10162 10161 10158 ] final  -98.28 input  -65.29 | X-H torsion
[ 10718 10713 10712 10709 ] final   70.78 input   66.30 | X-H torsion
[ 10763 10752 10751 10750 ] final   59.02 input  -60.55 | X-H torsion
[ 11005 11000 10999 10996 ] final -171.81 input  -57.11 | X-H torsion

> <Gold.Protein.ActiveResidues>
 VAL166  LYS551  ARG553  GLY616  TRP617  ASP618  TYR619  PRO620  LYS621  CYS622 
 ASP623  PHE694  ASN695  SER759  ASP760  ASP761  ALA762  ILE779  LEU786  VAL792 
 PHE793  MET794  SER795  GLU796  ALA797  LYS798  CYS799  TRP800  GLU811  SER814 

> <Gold.Protein.RotatedAtoms>
  152.0947  133.4218  159.4559 H   0  0  0  0  0  0  0  0  0  0  0  0  # atno 6907 bound_to 6896
  150.6863  134.2831  159.4644 H   0  0  0  0  0  0  0  0  0  0  0  0  # atno 6908 bound_to 6896
  152.0685  134.9548  160.0625 H   0  0  0  0  0  0  0  0  0  0  0  0  # atno 6909 bound_to 6896
  144.8675  140.6315  143.5288 H   0  0  0  0  0  0  0  0  0  0  0  0  # atno 7974 bound_to 7965
  154.4003  140.1496  156.3209 H   0  0  0  0  0  0  0  0  0  0  0  0  # atno 8008 bound_to 7997
  155.8530  140.3457  155.5684 H   0  0  0  0  0  0  0  0  0  0  0  0  # atno 8009 bound_to 7997
  155.7963  140.0864  157.1972 H   0  0  0  0  0  0  0  0  0  0  0  0  # atno 8010 bound_to 7997
  140.2746  143.3321  152.0501 H   0  0  0  0  0  0  0  0  0  0  0  0  # atno 10167 bound_to 10162
  157.6417  130.9494  150.0697 H   0  0  0  0  0  0  0  0  0  0  0  0  # atno 10718 bound_to 10713
  152.9884  135.5586  154.5646 H   0  0  0  0  0  0  0  0  0  0  0  0  # atno 10763 bound_to 10752
  154.5058  135.2799  155.1385 H   0  0  0  0  0  0  0  0  0  0  0  0  # atno 10764 bound_to 10752
  154.2797  135.6347  153.5395 H   0  0  0  0  0  0  0  0  0  0  0  0  # atno 10765 bound_to 10752
  140.5040  134.5866  157.4997 H   0  0  0  0  0  0  0  0  0  0  0  0  # atno 11005 bound_to 11000
  145.4194  139.1566  143.4082 LP  0  0  0  0  0  0  0  0  0  0  0  0  # atno 17320 bound_to 7965
  146.2906  140.4303  142.8741 LP  0  0  0  0  0  0  0  0  0  0  0  0  # atno 17321 bound_to 7965
  139.4979  144.6633  151.6414 LP  0  0  0  0  0  0  0  0  0  0  0  0  # atno 17342 bound_to 10162
  140.5862  143.9860  150.6297 LP  0  0  0  0  0  0  0  0  0  0  0  0  # atno 17343 bound_to 10162
  156.1705  130.3646  149.9171 LP  0  0  0  0  0  0  0  0  0  0  0  0  # atno 17370 bound_to 10713
  156.7148  130.8984  151.3613 LP  0  0  0  0  0  0  0  0  0  0  0  0  # atno 17371 bound_to 10713
  139.9697  134.7314  156.0067 LP  0  0  0  0  0  0  0  0  0  0  0  0  # atno 17394 bound_to 11000
  141.1420  133.6563  156.3759 LP  0  0  0  0  0  0  0  0  0  0  0  0  # atno 17395 bound_to 11000

$$$$
