AV-unprocessed.smi:72|AV-procd|sdf|715|dock8
  -GOLD-   2262017 43D 1   1.00000     0.00000
 Structure written by MMmdl.
 28 29  0  0  0  0  0  0  0  0  2 V2000
  149.4275  135.4042  158.5796 N   0  0  0  0  0  0  0  0  0  0  0  0
  149.5862  136.3392  157.7493 C   0  0  0  0  0  0  0  0  0  0  0  0
  148.8545  137.5769  157.8995 N   0  0  0  0  0  0  0  0  0  0  0  0
  149.0009  138.4802  156.9796 C   0  0  0  0  0  0  0  0  0  0  0  0
  149.8322  138.2582  155.7993 N   0  0  0  0  0  0  0  0  0  0  0  0
  150.0167  139.3361  154.7362 C   0  0  2  0  0  0  0  0  0  0  0  0
  150.9620  140.2762  155.1737 O   0  0  0  0  0  0  0  0  0  0  0  0
  150.3483  141.5021  155.5705 C   0  0  2  0  0  0  0  0  0  0  0  0
  149.9527  141.4654  157.0650 C   0  0  0  0  0  0  0  0  0  0  0  0
  149.1670  142.5946  157.3823 O   0  0  0  0  0  0  0  0  0  0  0  0
  149.1749  141.5801  154.5890 C   0  0  2  0  0  0  0  0  0  0  0  0
  148.1287  142.4221  155.0325 O   0  0  0  0  0  0  0  0  0  0  0  0
  148.7186  140.1332  154.4583 C   0  0  1  0  0  0  0  0  0  0  0  0
  148.2357  139.9164  153.1474 O   0  0  0  0  0  0  0  0  0  0  0  0
  150.6302  137.0808  155.7484 C   0  0  0  0  0  0  0  0  0  0  0  0
  151.4444  136.9649  154.8330 O   0  0  0  0  0  0  0  0  0  0  0  0
  150.4752  136.1367  156.7183 N   0  5  0  0  0  0  0  0  0  0  0  0
  150.4071  138.7990  153.8702 H   0  0  0  0  0  0  0  0  0  0  0  0
  151.0320  142.3344  155.3985 H   0  0  0  0  0  0  0  0  0  0  0  0
  149.5483  141.9471  153.6311 H   0  0  0  0  0  0  0  0  0  0  0  0
  147.9598  139.8964  155.2060 H   0  0  0  0  0  0  0  0  0  0  0  0
  148.7594  135.6394  159.2991 H   0  0  0  0  0  0  0  0  0  0  0  0
  148.5098  139.4514  157.0381 H   0  0  0  0  0  0  0  0  0  0  0  0
  149.3329  140.5943  157.2756 H   0  0  0  0  0  0  0  0  0  0  0  0
  150.8157  141.3984  157.7255 H   0  0  0  0  0  0  0  0  0  0  0  0
  149.2815  143.2401  156.7017 H   0  0  0  0  0  0  0  0  0  0  0  0
  148.4714  143.2990  155.1169 H   0  0  0  0  0  0  0  0  0  0  0  0
  148.9630  140.0024  152.5489 H   0  0  0  0  0  0  0  0  0  0  0  0
  1  2  2  0  0  0  0
  1 22  1  0  0  0  0
  2 17  1  0  0  0  0
  2  3  1  0  0  0  0
  3  4  2  0  0  0  0
  4  5  1  0  0  0  0
  4 23  1  0  0  0  0
  5  6  1  0  0  0  0
  5 15  1  0  0  0  0
  6 18  1  0  0  0  0
  6 13  1  0  0  0  0
  6  7  1  0  0  0  0
  7  8  1  0  0  0  0
  8 19  1  0  0  0  0
  8  9  1  0  0  0  0
  8 11  1  0  0  0  0
  9 10  1  0  0  0  0
  9 24  1  0  0  0  0
  9 25  1  0  0  0  0
 10 26  1  0  0  0  0
 11 20  1  0  0  0  0
 11 12  1  0  0  0  0
 11 13  1  0  0  0  0
 12 27  1  0  0  0  0
 13 21  1  0  0  0  0
 13 14  1  0  0  0  0
 14 28  1  0  0  0  0
 15 16  2  0  0  0  0
 15 17  1  0  0  0  0
M  CHG  1  17  -1
M  END
> <s_m_source_file>
AV-unprocessed.smi

> <i_m_source_file_index>
72

> <i_lp_mmshare_version>
43012

> <i_f3d_flags>
0

> <s_epik_input>
W05IMl1jMW5bY0hdbihjKD1PKW4xKVtDQEBIXTJPW0NASF0oW0NIMl1bT0hdKVtDQEBIXShbT0hdKVtDQEhdMltPSF0=

> <s_epik_cmdline>
J2VwaWtfcHl0aG9uJywgJy1waCcsICc3LjAnLCAnLXRuJywgJzgnLCAnLW1hJywgJzIwMCcsICctbWV0YWxfYmluZGluZycsICctaW1hZScsICc8aW5maWxlLm1hZT4nLCAnLW9tYWUnLCAnPG91dGZpbGUubWFlPic=

> <r_lp_tautomer_probability>
7.17554e-07

> <r_epik_Ionization_Penalty>
12.8705

> <r_epik_Ionization_Penalty_Charging>
5.64144

> <r_epik_Ionization_Penalty_Neutral>
7.22905

> <r_epik_State_Penalty>
3.30104

> <r_epik_Charging_Adjusted_Penalty>
8.94249

> <i_epik_Tot_Q>
-1

> <i_epik_Tot_abs_Q>
1

> <r_epik_Metal_State_Penalty>
0.529074

> <b_epik_Metal_Only>
1

> <s_epik_Chemistry_Notes>
This compound contains an acetal/aminal-like group ( X-CH(R)-Y where X, Y are N, S, or O) that may be acid/base labile, releasing an aldehyde.

> <s_lp_Force_Field>
OPLS_2005

> <r_lp_Energy>
34.2271

> <b_lp_Chiralities_Consistent>
1

> <s_lp_Variant>
AV-unprocessed.smi:72-53

> <Gold.Version>
5.8.1

> <Gold.Id.Protein>
6NUR|6NUR_protein|mol2

> <Gold.PLP.Fitness>
39.4022

> <Gold.PLP.PLP>
-22.7032

> <Gold.PLP.part.hbond>
-5.5856

> <Gold.PLP.part.metal>
0.0000

> <Gold.PLP.part.buried>
-4.9250

> <Gold.PLP.part.nonpolar>
-12.8186

> <Gold.PLP.part.repulsive>
0.1679

> <Gold.PLP.ligand.clash>
0.0000

> <Gold.PLP.ligand.torsion>
0.6854

> <Gold.PLP.Chemscore.Hbond>
5.9913

> <Gold.PLP.Chemscore.CHOScore>
0.0000

> <Gold.PLP.Chemscore.Metal>
0.0000

> <Gold.Chemscore.Hbonds>
donor molecule, donor type, donor heavy atom, donor atom, acceptor molecule, acceptor atom, score
      L1  H    10    26       P1  8028  1.00
      L1  H    12    27       P1  8028  1.00
      L1  H    14    28       P1  7957  1.00
      P1  H  6896  6907       L1     1  1.00
      P1  H  7989  7998       L1     7  0.85
      P1  H 10752 10765       L1    16  0.99

> <Gold.PLP.Chemscore.Internal.Correction>
0.0960

> <Gold.Rescore>
     Score         DG    S(hbond)    S(metal)    S(lipo)     H(rot)  DE(clash)    DE(int)     intcor
     13.69     -14.39       4.83        0.00      26.69       4.04       0.01       0.69       ----

> <Gold.Chemscore.Fitness>
13.6905

> <Gold.Chemscore.DG>
-14.3883

> <Gold.Chemscore.ZeroCoef>
-5.4800

> <Gold.Chemscore.Hbond>
4.8289

> <Gold.Chemscore.Metal>
0.0000

> <Gold.Chemscore.Lipo>
26.6926

> <Gold.Chemscore.Internal_Hbond>
0.0000

> <Gold.Chemscore.DEClash>
0.0093

> <Gold.Chemscore.DEInternal>
0.6886

> <Gold.Chemscore.Rot>
4.0403

> <Gold.Chemscore.Internal.Correction>
   9.000000E+99

> <Gold.Chemscore.Hbonds>
donor molecule, donor type, donor heavy atom, donor atom, acceptor molecule, acceptor atom, score
      L1  H    10    26       P1  8028  0.98
      L1  H    12    27       P1  8028  0.95
      L1  H    14    28       P1  7957  0.91
      P1  H  6896  6907       L1     1  0.39
      P1  H  7989  7998       L1     7  0.04
      P1  H 10752 10765       L1    16  0.92

> <Gold.Chemscore.Hbond.Weighted>
-16.1284

> <Gold.Chemscore.Metal.Weighted>
-0.0000

> <Gold.Chemscore.Lipo.Weighted>
-3.1230

> <Gold.Chemscore.Internal_Hbond.Weighted>
0.0000

> <Gold.Chemscore.DEClash.Weighted>
0.0093

> <Gold.Chemscore.DEInternal.Weighted>
0.6886

> <Gold.Chemscore.Rot.Weighted>
10.3431

> <Gold.Chemscore.Internal.Correction.Weighted>
   9.000000E+99

> <Gold.Protein.RotatedTorsions>
[ 6907 6896 6895 6894 ] final  -83.25 input  -60.11 | X-H torsion
[ 7974 7965 7964 7962 ] final  123.37 input  175.53 | X-H torsion
[ 8008 7997 7996 7995 ] final   -8.67 input   59.86 | X-H torsion
[ 10167 10162 10161 10158 ] final   27.82 input  -65.29 | X-H torsion
[ 10718 10713 10712 10709 ] final  173.14 input   66.30 | X-H torsion
[ 10763 10752 10751 10750 ] final  177.91 input  -60.55 | X-H torsion
[ 11005 11000 10999 10996 ] final   -1.61 input  -57.11 | X-H torsion

> <Gold.Protein.ActiveResidues>
 VAL166  LYS551  ARG553  GLY616  TRP617  ASP618  TYR619  PRO620  LYS621  CYS622 
 ASP623  PHE694  ASN695  SER759  ASP760  ASP761  ALA762  ILE779  LEU786  VAL792 
 PHE793  MET794  SER795  GLU796  ALA797  LYS798  CYS799  TRP800  GLU811  SER814 

> <Gold.Protein.RotatedAtoms>
  150.6887  134.3541  159.4921 H   0  0  0  0  0  0  0  0  0  0  0  0  # atno 6907 bound_to 6896
  152.1379  134.9083  160.0564 H   0  0  0  0  0  0  0  0  0  0  0  0  # atno 6908 bound_to 6896
  152.0228  133.3870  159.4302 H   0  0  0  0  0  0  0  0  0  0  0  0  # atno 6909 bound_to 6896
  145.0967  139.3548  143.4833 H   0  0  0  0  0  0  0  0  0  0  0  0  # atno 7974 bound_to 7965
  154.5719  140.2375  155.8179 H   0  0  0  0  0  0  0  0  0  0  0  0  # atno 8008 bound_to 7997
  156.2113  140.3025  155.9697 H   0  0  0  0  0  0  0  0  0  0  0  0  # atno 8009 bound_to 7997
  155.2696  140.0418  157.2996 H   0  0  0  0  0  0  0  0  0  0  0  0  # atno 8010 bound_to 7997
  140.4906  144.0473  150.6295 H   0  0  0  0  0  0  0  0  0  0  0  0  # atno 10167 bound_to 10162
  156.9687  131.0083  151.2910 H   0  0  0  0  0  0  0  0  0  0  0  0  # atno 10718 bound_to 10713
  154.5007  135.2783  155.1423 H   0  0  0  0  0  0  0  0  0  0  0  0  # atno 10763 bound_to 10752
  154.3057  135.6239  153.5447 H   0  0  0  0  0  0  0  0  0  0  0  0  # atno 10764 bound_to 10752
  152.9902  135.5707  154.5450 H   0  0  0  0  0  0  0  0  0  0  0  0  # atno 10765 bound_to 10752
  140.6493  133.9419  155.8371 H   0  0  0  0  0  0  0  0  0  0  0  0  # atno 11005 bound_to 11000
  146.3530  140.0825  142.8617 LP  0  0  0  0  0  0  0  0  0  0  0  0  # atno 17320 bound_to 7965
  145.1003  140.9341  143.4716 LP  0  0  0  0  0  0  0  0  0  0  0  0  # atno 17321 bound_to 7965
  140.3741  143.2838  152.0244 LP  0  0  0  0  0  0  0  0  0  0  0  0  # atno 17342 bound_to 10162
  139.4850  144.6206  151.7261 LP  0  0  0  0  0  0  0  0  0  0  0  0  # atno 17343 bound_to 10162
  157.5607  130.8244  149.8263 LP  0  0  0  0  0  0  0  0  0  0  0  0  # atno 17370 bound_to 10713
  156.0292  130.3770  150.1736 LP  0  0  0  0  0  0  0  0  0  0  0  0  # atno 17371 bound_to 10713
  141.0549  134.0431  157.3736 LP  0  0  0  0  0  0  0  0  0  0  0  0  # atno 17394 bound_to 11000
  139.9052  135.0177  156.7451 LP  0  0  0  0  0  0  0  0  0  0  0  0  # atno 17395 bound_to 11000

$$$$
