AV-unprocessed.smi:498|AV-procd|sdf|2730|dock6
  -GOLD-   2262023183D 1   1.00000     0.00000
 Structure written by MMmdl.
 41 43  0  0  0  0  0  0  0  0  2 V2000
  159.1387  140.3831  160.8748 C   0  0  0  0  0  0  0  0  0  0  0  0
  157.9426  140.2549  159.9295 C   0  0  0  0  0  0  0  0  0  0  0  0
  156.7658  140.6052  160.6357 O   0  0  0  0  0  0  0  0  0  0  0  0
  155.6084  140.5926  159.8162 C   0  0  0  0  0  0  0  0  0  0  0  0
  154.3994  141.1112  160.6110 C   0  0  0  0  0  0  0  0  0  0  0  0
  153.1964  141.2462  159.7827 N   0  0  0  0  0  0  0  0  0  0  0  0
  152.4846  140.3055  159.0871 C   0  0  0  0  0  0  0  0  0  0  0  0
  152.8340  138.8364  159.0294 C   0  0  0  0  0  0  0  0  0  0  0  0
  153.6135  138.5201  157.8359 N   0  5  0  0  0  0  0  0  0  0  0  0
  153.2668  137.5692  156.9259 C   0  0  0  0  0  0  0  0  0  0  0  0
  153.6561  136.4020  156.8128 O   0  0  0  0  0  0  0  0  0  0  0  0
  152.2443  138.0632  155.9762 C   0  0  0  0  0  0  0  0  0  0  0  0
  151.5737  139.2574  155.8925 C   0  0  0  0  0  0  0  0  0  0  0  0
  150.7342  139.1780  154.7473 C   0  0  0  0  0  0  0  0  0  0  0  0
  150.9571  137.9453  154.2052 C   0  0  0  0  0  0  0  0  0  0  0  0
  151.8786  137.2594  154.9344 O   0  0  0  0  0  0  0  0  0  0  0  0
  151.4214  140.7702  158.4253 N   0  0  0  0  0  0  0  0  0  0  0  0
  151.4439  142.1214  158.7016 C   0  0  0  0  0  0  0  0  0  0  0  0
  150.5771  143.1566  158.2837 C   0  0  0  0  0  0  0  0  0  0  0  0
  150.8016  144.4858  158.6969 C   0  0  0  0  0  0  0  0  0  0  0  0
  151.8935  144.7975  159.5320 C   0  0  0  0  0  0  0  0  0  0  0  0
  152.7672  143.7798  159.9605 C   0  0  0  0  0  0  0  0  0  0  0  0
  152.5389  142.4530  159.5462 C   0  0  0  0  0  0  0  0  0  0  0  0
  160.0676  140.1279  160.3649 H   0  0  0  0  0  0  0  0  0  0  0  0
  159.0324  139.7178  161.7317 H   0  0  0  0  0  0  0  0  0  0  0  0
  159.2312  141.4020  161.2512 H   0  0  0  0  0  0  0  0  0  0  0  0
  158.0763  140.9140  159.0708 H   0  0  0  0  0  0  0  0  0  0  0  0
  157.8682  139.2330  159.5552 H   0  0  0  0  0  0  0  0  0  0  0  0
  155.7710  141.2106  158.9337 H   0  0  0  0  0  0  0  0  0  0  0  0
  155.4141  139.5786  159.4649 H   0  0  0  0  0  0  0  0  0  0  0  0
  154.1992  140.4670  161.4669 H   0  0  0  0  0  0  0  0  0  0  0  0
  154.6352  142.0885  161.0324 H   0  0  0  0  0  0  0  0  0  0  0  0
  153.3613  138.5857  159.9507 H   0  0  0  0  0  0  0  0  0  0  0  0
  151.9099  138.2580  159.0629 H   0  0  0  0  0  0  0  0  0  0  0  0
  151.6768  140.0886  156.5744 H   0  0  0  0  0  0  0  0  0  0  0  0
  150.0572  139.9285  154.3673 H   0  0  0  0  0  0  0  0  0  0  0  0
  150.5687  137.4225  153.3439 H   0  0  0  0  0  0  0  0  0  0  0  0
  149.7395  142.9261  157.6425 H   0  0  0  0  0  0  0  0  0  0  0  0
  150.1339  145.2696  158.3707 H   0  0  0  0  0  0  0  0  0  0  0  0
  152.0610  145.8182  159.8428 H   0  0  0  0  0  0  0  0  0  0  0  0
  153.6071  144.0168  160.5963 H   0  0  0  0  0  0  0  0  0  0  0  0
  1  2  1  0  0  0  0
  1 24  1  0  0  0  0
  1 25  1  0  0  0  0
  1 26  1  0  0  0  0
  2  3  1  0  0  0  0
  2 27  1  0  0  0  0
  2 28  1  0  0  0  0
  3  4  1  0  0  0  0
  4  5  1  0  0  0  0
  4 29  1  0  0  0  0
  4 30  1  0  0  0  0
  5  6  1  0  0  0  0
  5 31  1  0  0  0  0
  5 32  1  0  0  0  0
  6 23  1  0  0  0  0
  6  7  1  0  0  0  0
  7  8  1  0  0  0  0
  7 17  2  0  0  0  0
  8  9  1  0  0  0  0
  8 33  1  0  0  0  0
  8 34  1  0  0  0  0
  9 10  1  0  0  0  0
 10 11  2  0  0  0  0
 10 12  1  0  0  0  0
 12 16  1  0  0  0  0
 12 13  2  0  0  0  0
 13 14  1  0  0  0  0
 13 35  1  0  0  0  0
 14 15  2  0  0  0  0
 14 36  1  0  0  0  0
 15 16  1  0  0  0  0
 15 37  1  0  0  0  0
 17 18  1  0  0  0  0
 18 23  2  0  0  0  0
 18 19  1  0  0  0  0
 19 20  2  0  0  0  0
 19 38  1  0  0  0  0
 20 21  1  0  0  0  0
 20 39  1  0  0  0  0
 21 22  2  0  0  0  0
 21 40  1  0  0  0  0
 22 23  1  0  0  0  0
 22 41  1  0  0  0  0
M  CHG  1   9  -1
M  END
> <s_m_source_file>
AV-unprocessed.smi

> <i_m_source_file_index>
498

> <i_lp_mmshare_version>
43012

> <i_f3d_flags>
0

> <s_epik_input>
W0NIM11bQ0gyXU9bQ0gyXVtDSDJdbihjKGMxMilbY0hdW2NIXVtjSF1bY0hdMiljKG4xKVtDSDJdW05IXUMoPU8pYzNbY0hdW2NIXVtjSF1vMw==

> <s_epik_cmdline>
J2VwaWtfcHl0aG9uJywgJy1waCcsICc3LjAnLCAnLXRuJywgJzgnLCAnLW1hJywgJzIwMCcsICctbWV0YWxfYmluZGluZycsICctaW1hZScsICc8aW5maWxlLm1hZT4nLCAnLW9tYWUnLCAnPG91dGZpbGUubWFlPic=

> <r_epik_Ionization_Penalty>
7.14443

> <r_epik_Ionization_Penalty_Charging>
6.27046

> <r_epik_Ionization_Penalty_Neutral>
0.873973

> <r_epik_State_Penalty>
6.33192

> <r_epik_Charging_Adjusted_Penalty>
12.6024

> <i_epik_Tot_Q>
-1

> <i_epik_Tot_abs_Q>
1

> <r_epik_Metal_State_Penalty>
2.32923

> <b_epik_Metal_Only>
1

> <s_lp_Force_Field>
OPLS_2005

> <r_lp_Energy>
15.7295

> <b_lp_Chiralities_Consistent>
1

> <s_lp_Variant>
AV-unprocessed.smi:498-3

> <Gold.Version>
5.8.1

> <Gold.Id.Protein>
6NUR|6NUR_protein|mol2

> <Gold.PLP.Fitness>
61.0133

> <Gold.PLP.PLP>
-49.3229

> <Gold.PLP.part.hbond>
-4.0000

> <Gold.PLP.part.metal>
0.0000

> <Gold.PLP.part.buried>
-5.7358

> <Gold.PLP.part.nonpolar>
-39.6015

> <Gold.PLP.part.repulsive>
0.0932

> <Gold.PLP.ligand.clash>
0.0000

> <Gold.PLP.ligand.torsion>
1.1150

> <Gold.PLP.Chemscore.Hbond>
3.4880

> <Gold.PLP.Chemscore.CHOScore>
1.0996

> <Gold.PLP.Chemscore.Metal>
0.0000

> <Gold.Chemscore.Hbonds>
donor molecule, donor type, donor heavy atom, donor atom, acceptor molecule, acceptor atom, score
      P1  H  7997  8009       L1     9  2.00
      P1  H 10752 10763       L1    11  0.82
      P1  H 10752 10765       L1    16  0.67
      L1  C    15    37       P1  7948  0.52
      L1  C    15    37       P1  7949  0.57

> <Gold.PLP.Chemscore.Internal.Correction>
0.1576

> <Gold.Rescore>
     Score         DG    S(hbond)    S(metal)    S(lipo)     H(rot)  DE(clash)    DE(int)     intcor
     21.88     -23.50       2.27        0.00     130.79       1.90       0.47       1.15       ----

> <Gold.Chemscore.Fitness>
21.8798

> <Gold.Chemscore.DG>
-23.4990

> <Gold.Chemscore.ZeroCoef>
-5.4800

> <Gold.Chemscore.Hbond>
2.2690

> <Gold.Chemscore.Metal>
0.0000

> <Gold.Chemscore.Lipo>
130.7914

> <Gold.Chemscore.Internal_Hbond>
0.0000

> <Gold.Chemscore.DEClash>
0.4651

> <Gold.Chemscore.DEInternal>
1.1541

> <Gold.Chemscore.Rot>
1.8992

> <Gold.Chemscore.Internal.Correction>
   9.000000E+99

> <Gold.Chemscore.Hbonds>
donor molecule, donor type, donor heavy atom, donor atom, acceptor molecule, acceptor atom, score
      P1  H  7997  8009       L1     9  0.72
      P1  H 10752 10763       L1    11  0.80
      P1  H 10752 10765       L1    16  0.65

> <Gold.Chemscore.Hbond.Weighted>
-7.5784

> <Gold.Chemscore.Metal.Weighted>
-0.0000

> <Gold.Chemscore.Lipo.Weighted>
-15.3026

> <Gold.Chemscore.Internal_Hbond.Weighted>
0.0000

> <Gold.Chemscore.DEClash.Weighted>
0.4651

> <Gold.Chemscore.DEInternal.Weighted>
1.1541

> <Gold.Chemscore.Rot.Weighted>
4.8621

> <Gold.Chemscore.Internal.Correction.Weighted>
   9.000000E+99

> <Gold.Protein.RotatedTorsions>
[ 6907 6896 6895 6894 ] final  -23.95 input  -60.11 | X-H torsion
[ 7974 7965 7964 7962 ] final  115.58 input  175.53 | X-H torsion
[ 8008 7997 7996 7995 ] final  158.40 input   59.86 | X-H torsion
[ 10167 10162 10161 10158 ] final   88.87 input  -65.29 | X-H torsion
[ 10718 10713 10712 10709 ] final   49.70 input   66.30 | X-H torsion
[ 10763 10752 10751 10750 ] final  151.84 input  -60.55 | X-H torsion
[ 11005 11000 10999 10996 ] final  -94.75 input  -57.11 | X-H torsion

> <Gold.Protein.ActiveResidues>
 VAL166  LYS551  ARG553  GLY616  TRP617  ASP618  TYR619  PRO620  LYS621  CYS622 
 ASP623  PHE694  ASN695  SER759  ASP760  ASP761  ALA762  ILE779  LEU786  VAL792 
 PHE793  MET794  SER795  GLU796  ALA797  LYS798  CYS799  TRP800  GLU811  SER814 

> <Gold.Protein.RotatedAtoms>
  151.1966  135.0425  159.8854 H   0  0  0  0  0  0  0  0  0  0  0  0  # atno 6907 bound_to 6896
  152.5436  134.0897  159.8281 H   0  0  0  0  0  0  0  0  0  0  0  0  # atno 6908 bound_to 6896
  151.1032  133.5181  159.2641 H   0  0  0  0  0  0  0  0  0  0  0  0  # atno 6909 bound_to 6896
  145.1902  139.3004  143.4372 H   0  0  0  0  0  0  0  0  0  0  0  0  # atno 7974 bound_to 7965
  156.2305  140.1859  156.7255 H   0  0  0  0  0  0  0  0  0  0  0  0  # atno 8008 bound_to 7997
  154.6014  140.0635  156.9401 H   0  0  0  0  0  0  0  0  0  0  0  0  # atno 8009 bound_to 7997
  155.2168  140.3304  155.4323 H   0  0  0  0  0  0  0  0  0  0  0  0  # atno 8010 bound_to 7997
  139.8629  144.6534  150.9037 H   0  0  0  0  0  0  0  0  0  0  0  0  # atno 10167 bound_to 10162
  157.4813  130.8317  149.8096 H   0  0  0  0  0  0  0  0  0  0  0  0  # atno 10718 bound_to 10713
  154.1104  135.2839  155.3232 H   0  0  0  0  0  0  0  0  0  0  0  0  # atno 10763 bound_to 10752
  154.6494  135.5374  153.7886 H   0  0  0  0  0  0  0  0  0  0  0  0  # atno 10764 bound_to 10752
  153.0347  135.6506  154.1263 H   0  0  0  0  0  0  0  0  0  0  0  0  # atno 10765 bound_to 10752
  141.1461  133.7978  157.0341 H   0  0  0  0  0  0  0  0  0  0  0  0  # atno 11005 bound_to 11000
  146.3437  140.2112  142.8590 LP  0  0  0  0  0  0  0  0  0  0  0  0  # atno 17320 bound_to 7965
  145.0049  140.8664  143.5259 LP  0  0  0  0  0  0  0  0  0  0  0  0  # atno 17321 bound_to 7965
  140.7772  143.3728  151.1617 LP  0  0  0  0  0  0  0  0  0  0  0  0  # atno 17342 bound_to 10162
  139.7356  143.9004  152.3034 LP  0  0  0  0  0  0  0  0  0  0  0  0  # atno 17343 bound_to 10162
  156.0123  130.3828  150.2224 LP  0  0  0  0  0  0  0  0  0  0  0  0  # atno 17370 bound_to 10713
  157.0411  131.0035  151.3283 LP  0  0  0  0  0  0  0  0  0  0  0  0  # atno 17371 bound_to 10713
  140.0735  134.9689  157.1506 LP  0  0  0  0  0  0  0  0  0  0  0  0  # atno 17394 bound_to 11000
  140.3677  134.2424  155.7181 LP  0  0  0  0  0  0  0  0  0  0  0  0  # atno 17395 bound_to 11000

$$$$
