AV-unprocessed.smi:1648|AV-procd|sdf|6628|dock8
  -GOLD-   22720 7323D 1   1.00000     0.00000
 Structure written by MMmdl.
 42 42  0  0  0  0  0  0  0  0  2 V2000
  151.6228  133.7884  156.3319 C   0  0  0  0  0  0  0  0  0  0  0  0
  150.5636  132.7003  156.5181 C   0  0  0  0  0  0  0  0  0  0  0  0
  150.0305  132.5586  157.6160 O   0  0  0  0  0  0  0  0  0  0  0  0
  150.2316  131.9179  155.4763 N   0  0  0  0  0  0  0  0  0  0  0  0
  149.2491  130.8299  155.4527 C   0  0  1  0  0  0  0  0  0  0  0  0
  148.4224  130.9384  154.1557 C   0  0  0  0  0  0  0  0  0  0  0  0
  148.2216  129.9446  153.4558 O   0  0  0  0  0  0  0  0  0  0  0  0
  147.9452  132.1570  153.8562 N   0  0  0  0  0  0  0  0  0  0  0  0
  147.2052  132.5181  152.6479 C   0  0  2  0  0  0  0  0  0  0  0  0
  146.9251  134.0267  152.6829 C   0  0  0  0  0  0  0  0  0  0  0  0
  145.8934  131.7119  152.5205 C   0  0  0  0  0  0  0  0  0  0  0  0
  145.1037  132.0682  151.3356 N   0  0  0  0  0  0  0  0  0  0  0  0
  145.4715  131.9335  150.0206 C   0  0  0  0  0  0  0  0  0  0  0  0
  144.4232  132.4006  149.2708 C   0  0  0  0  0  0  0  0  0  0  0  0
  143.4672  132.8159  150.1581 N   0  3  0  0  0  0  0  0  0  0  0  0
  143.8870  132.6227  151.4127 C   0  0  0  0  0  0  0  0  0  0  0  0
  150.0043  129.4680  155.4877 C   0  0  0  0  0  0  0  0  0  0  0  0
  150.7268  129.2194  156.8274 C   0  0  0  0  0  0  0  0  0  0  0  0
  151.0275  129.3400  154.3410 C   0  0  0  0  0  0  0  0  0  0  0  0
  152.5745  133.3572  156.0212 H   0  0  0  0  0  0  0  0  0  0  0  0
  151.7892  134.3239  157.2672 H   0  0  0  0  0  0  0  0  0  0  0  0
  151.3041  134.5144  155.5839 H   0  0  0  0  0  0  0  0  0  0  0  0
  150.7000  132.1058  154.6017 H   0  0  0  0  0  0  0  0  0  0  0  0
  148.5949  130.8974  156.3238 H   0  0  0  0  0  0  0  0  0  0  0  0
  148.1543  132.9094  154.4968 H   0  0  0  0  0  0  0  0  0  0  0  0
  147.8287  132.3316  151.7716 H   0  0  0  0  0  0  0  0  0  0  0  0
  146.4086  134.3519  151.7794 H   0  0  0  0  0  0  0  0  0  0  0  0
  147.8519  134.5975  152.7530 H   0  0  0  0  0  0  0  0  0  0  0  0
  146.3023  134.2966  153.5368 H   0  0  0  0  0  0  0  0  0  0  0  0
  146.0968  130.6397  152.5031 H   0  0  0  0  0  0  0  0  0  0  0  0
  145.2543  131.8965  153.3848 H   0  0  0  0  0  0  0  0  0  0  0  0
  146.4231  131.5170  149.7234 H   0  0  0  0  0  0  0  0  0  0  0  0
  144.2910  132.4700  148.2009 H   0  0  0  0  0  0  0  0  0  0  0  0
  143.3446  132.8629  152.3096 H   0  0  0  0  0  0  0  0  0  0  0  0
  149.2771  128.6647  155.3562 H   0  0  0  0  0  0  0  0  0  0  0  0
  151.4545  130.0049  157.0336 H   0  0  0  0  0  0  0  0  0  0  0  0
  151.2618  128.2693  156.8138 H   0  0  0  0  0  0  0  0  0  0  0  0
  150.0357  129.1792  157.6671 H   0  0  0  0  0  0  0  0  0  0  0  0
  151.7691  130.1384  154.3828 H   0  0  0  0  0  0  0  0  0  0  0  0
  150.5530  129.3777  153.3605 H   0  0  0  0  0  0  0  0  0  0  0  0
  151.5610  128.3907  154.3951 H   0  0  0  0  0  0  0  0  0  0  0  0
  142.5723  133.2152  149.9037 H   0  0  0  0  0  0  0  0  0  0  0  0
  1  2  1  0  0  0  0
  1 20  1  0  0  0  0
  1 21  1  0  0  0  0
  1 22  1  0  0  0  0
  2  3  2  0  0  0  0
  2  4  1  0  0  0  0
  4  5  1  0  0  0  0
  4 23  1  0  0  0  0
  5  6  1  0  0  0  0
  5 17  1  0  0  0  0
  5 24  1  0  0  0  0
  6  7  2  0  0  0  0
  6  8  1  0  0  0  0
  8  9  1  0  0  0  0
  8 25  1  0  0  0  0
  9 10  1  0  0  0  0
  9 11  1  0  0  0  0
  9 26  1  0  0  0  0
 10 27  1  0  0  0  0
 10 28  1  0  0  0  0
 10 29  1  0  0  0  0
 11 12  1  0  0  0  0
 11 30  1  0  0  0  0
 11 31  1  0  0  0  0
 12 16  1  0  0  0  0
 12 13  1  0  0  0  0
 13 14  2  0  0  0  0
 13 32  1  0  0  0  0
 14 15  1  0  0  0  0
 14 33  1  0  0  0  0
 15 16  2  0  0  0  0
 15 42  1  0  0  0  0
 16 34  1  0  0  0  0
 17 18  1  0  0  0  0
 17 19  1  0  0  0  0
 17 35  1  0  0  0  0
 18 36  1  0  0  0  0
 18 37  1  0  0  0  0
 18 38  1  0  0  0  0
 19 39  1  0  0  0  0
 19 40  1  0  0  0  0
 19 41  1  0  0  0  0
M  CHG  1  15   1
M  END
> <s_m_source_file>
AV-unprocessed.smi

> <i_m_source_file_index>
1648

> <i_lp_mmshare_version>
43012

> <i_f3d_flags>
0

> <s_epik_input>
W0NIM11DKD1PKVtOSF1bQ0BASF0oW0NIXShbQ0gzXSlbQ0gzXSlDKD1PKVtOSF1bQ0BIXShbQ0gzXSlbQ0gyXW4xW2NIXVtjSF1uW2NIXTE=

> <s_epik_cmdline>
J2VwaWtfcHl0aG9uJywgJy1waCcsICc3LjAnLCAnLXRuJywgJzgnLCAnLW1hJywgJzIwMCcsICctbWV0YWxfYmluZGluZycsICctaW1hZScsICc8aW5maWxlLm1hZT4nLCAnLW9tYWUnLCAnPG91dGZpbGUubWFlPic=

> <r_lp_tautomer_probability>
1

> <r_epik_Ionization_Penalty>
0.251562

> <r_epik_Ionization_Penalty_Charging>
0

> <r_epik_Ionization_Penalty_Neutral>
0.251562

> <r_epik_State_Penalty>
0.242926

> <r_epik_Charging_Adjusted_Penalty>
0.242926

> <i_epik_Tot_Q>
1

> <i_epik_Tot_abs_Q>
1

> <r_epik_Metal_State_Penalty>
0.53388

> <b_epik_Metal_Only>
0

> <s_lp_Force_Field>
OPLS_2005

> <r_lp_Energy>
11.0591

> <b_lp_Chiralities_Consistent>
1

> <s_lp_Variant>
AV-unprocessed.smi:1648-2

> <Gold.Version>
5.8.1

> <Gold.Id.Protein>
6NUR|6NUR_protein|mol2

> <Gold.PLP.Fitness>
39.9331

> <Gold.PLP.PLP>
-28.9783

> <Gold.PLP.part.hbond>
-2.0000

> <Gold.PLP.part.metal>
0.0000

> <Gold.PLP.part.buried>
-4.8396

> <Gold.PLP.part.nonpolar>
-22.4191

> <Gold.PLP.part.repulsive>
0.1600

> <Gold.PLP.ligand.clash>
0.0000

> <Gold.PLP.ligand.torsion>
0.5743

> <Gold.PLP.Chemscore.Hbond>
3.0000

> <Gold.PLP.Chemscore.CHOScore>
0.9996

> <Gold.PLP.Chemscore.Metal>
0.0000

> <Gold.Chemscore.Hbonds>
donor molecule, donor type, donor heavy atom, donor atom, acceptor molecule, acceptor atom, score
      L1  H    15    42       P1 10186  2.00
      P1  H  6896  6907       L1     3  0.78
      L1  C    13    32       P1 10747  0.63
      L1  C    16    34       P1 10957  0.31

> <Gold.PLP.Chemscore.Internal.Correction>
0.1047

> <Gold.Rescore>
     Score         DG    S(hbond)    S(metal)    S(lipo)     H(rot)  DE(clash)    DE(int)     intcor
     11.30     -12.20       1.96        0.00      58.59       2.61       0.14       0.76       ----

> <Gold.Chemscore.Fitness>
11.3014

> <Gold.Chemscore.DG>
-12.2004

> <Gold.Chemscore.ZeroCoef>
-5.4800

> <Gold.Chemscore.Hbond>
1.9629

> <Gold.Chemscore.Metal>
0.0000

> <Gold.Chemscore.Lipo>
58.5903

> <Gold.Chemscore.Internal_Hbond>
0.0000

> <Gold.Chemscore.DEClash>
0.1378

> <Gold.Chemscore.DEInternal>
0.7612

> <Gold.Chemscore.Rot>
2.6135

> <Gold.Chemscore.Internal.Correction>
   9.000000E+99

> <Gold.Chemscore.Hbonds>
donor molecule, donor type, donor heavy atom, donor atom, acceptor molecule, acceptor atom, score
      L1  H    15    42       P1 10186  0.95
      P1  H  6896  6907       L1     3  0.71

> <Gold.Chemscore.Hbond.Weighted>
-6.5560

> <Gold.Chemscore.Metal.Weighted>
-0.0000

> <Gold.Chemscore.Lipo.Weighted>
-6.8551

> <Gold.Chemscore.Internal_Hbond.Weighted>
0.0000

> <Gold.Chemscore.DEClash.Weighted>
0.1378

> <Gold.Chemscore.DEInternal.Weighted>
0.7612

> <Gold.Chemscore.Rot.Weighted>
6.6906

> <Gold.Chemscore.Internal.Correction.Weighted>
   9.000000E+99

> <Gold.Protein.RotatedTorsions>
[ 6907 6896 6895 6894 ] final -133.54 input  -60.11 | X-H torsion
[ 7974 7965 7964 7962 ] final  133.31 input  175.53 | X-H torsion
[ 8008 7997 7996 7995 ] final  -23.87 input   59.86 | X-H torsion
[ 10167 10162 10161 10158 ] final   88.67 input  -65.29 | X-H torsion
[ 10718 10713 10712 10709 ] final   -9.82 input   66.30 | X-H torsion
[ 10763 10752 10751 10750 ] final -162.67 input  -60.55 | X-H torsion
[ 11005 11000 10999 10996 ] final   45.52 input  -57.11 | X-H torsion

> <Gold.Protein.ActiveResidues>
 VAL166  LYS551  ARG553  GLY616  TRP617  ASP618  TYR619  PRO620  LYS621  CYS622 
 ASP623  PHE694  ASN695  SER759  ASP760  ASP761  ALA762  ILE779  LEU786  VAL792 
 PHE793  MET794  SER795  GLU796  ALA797  LYS798  CYS799  TRP800  GLU811  SER814 

> <Gold.Protein.RotatedAtoms>
  150.9753  133.6301  159.2731 H   0  0  0  0  0  0  0  0  0  0  0  0  # atno 6907 bound_to 6896
  151.3576  135.0896  159.9433 H   0  0  0  0  0  0  0  0  0  0  0  0  # atno 6908 bound_to 6896
  152.5197  133.9333  159.7645 H   0  0  0  0  0  0  0  0  0  0  0  0  # atno 6909 bound_to 6896
  144.9879  139.4437  143.5354 H   0  0  0  0  0  0  0  0  0  0  0  0  # atno 7974 bound_to 7965
  154.4561  140.1969  156.0377 H   0  0  0  0  0  0  0  0  0  0  0  0  # atno 8008 bound_to 7997
  156.0748  140.3279  155.7592 H   0  0  0  0  0  0  0  0  0  0  0  0  # atno 8009 bound_to 7997
  155.5206  140.0569  157.2898 H   0  0  0  0  0  0  0  0  0  0  0  0  # atno 8010 bound_to 7997
  139.8649  144.6524  150.9016 H   0  0  0  0  0  0  0  0  0  0  0  0  # atno 10167 bound_to 10162
  156.6824  130.5041  149.5967 H   0  0  0  0  0  0  0  0  0  0  0  0  # atno 10718 bound_to 10713
  154.7193  135.3022  154.9073 H   0  0  0  0  0  0  0  0  0  0  0  0  # atno 10763 bound_to 10752
  153.9950  135.6714  153.4760 H   0  0  0  0  0  0  0  0  0  0  0  0  # atno 10764 bound_to 10752
  153.0820  135.5004  154.8439 H   0  0  0  0  0  0  0  0  0  0  0  0  # atno 10765 bound_to 10752
  140.1452  134.4532  155.8421 H   0  0  0  0  0  0  0  0  0  0  0  0  # atno 11005 bound_to 11000
  146.3424  139.9192  142.8769 LP  0  0  0  0  0  0  0  0  0  0  0  0  # atno 17320 bound_to 7965
  145.2328  140.9979  143.3981 LP  0  0  0  0  0  0  0  0  0  0  0  0  # atno 17321 bound_to 7965
  140.7769  143.3713  151.1645 LP  0  0  0  0  0  0  0  0  0  0  0  0  # atno 17342 bound_to 10162
  139.7338  143.9030  152.3028 LP  0  0  0  0  0  0  0  0  0  0  0  0  # atno 17343 bound_to 10162
  156.1857  130.6528  151.1004 LP  0  0  0  0  0  0  0  0  0  0  0  0  # atno 17370 bound_to 10713
  157.7039  131.0765  150.6732 LP  0  0  0  0  0  0  0  0  0  0  0  0  # atno 17371 bound_to 10713
  141.2191  133.6849  156.7320 LP  0  0  0  0  0  0  0  0  0  0  0  0  # atno 17394 bound_to 11000
  140.2673  134.8420  157.3814 LP  0  0  0  0  0  0  0  0  0  0  0  0  # atno 17395 bound_to 11000

$$$$
