AV-unprocessed.smi:3303|AV-procd|sdf|12663|dock3
  -GOLD-   2272019 03D 1   1.00000     0.00000
 Structure written by MMmdl.
 45 46  0  0  0  0  0  0  0  0  3 V2000
  146.6558  139.5927  153.8367 C   0  0  0  0  0  0  0  0  0  0  0  0
  146.9969  140.3598  155.1269 C   0  0  2  0  0  0  0  0  0  0  0  0
  145.7296  140.6840  155.9448 C   0  0  0  0  0  0  0  0  0  0  0  0
  144.9006  141.7418  155.3084 N   0  3  1  0  0  0  0  0  0  0  0  0
  143.6171  141.9147  156.0316 C   0  0  0  0  0  0  0  0  0  0  0  0
  145.6648  143.0104  155.1116 C   0  0  2  0  0  0  0  0  0  0  0  0
  144.8257  144.1102  154.4321 C   0  0  0  0  0  0  0  0  0  0  0  0
  146.9400  142.7506  154.2787 C   0  0  0  0  0  0  0  0  0  0  0  0
  147.8268  141.6319  154.8542 C   0  0  1  0  0  0  0  0  0  0  0  0
  148.5223  142.0875  156.0818 N   0  3  0  0  0  0  0  0  0  0  0  0
  149.5131  141.1340  156.6203 C   0  0  0  0  0  0  0  0  0  0  0  0
  149.7947  141.4043  158.1043 C   0  0  0  0  0  0  0  0  0  0  0  0
  150.5289  142.7150  158.3131 C   0  0  0  0  0  0  0  0  0  0  0  0
  151.7103  143.0047  157.5976 C   0  0  0  0  0  0  0  0  0  0  0  0
  152.3433  144.2427  157.8231 C   0  0  0  0  0  0  0  0  0  0  0  0
  151.7723  145.1380  158.7480 C   0  0  0  0  0  0  0  0  0  0  0  0
  150.5892  144.7544  159.4102 C   0  0  0  0  0  0  0  0  0  0  0  0
  149.9740  143.5700  159.2011 N   0  0  0  0  0  0  0  0  0  0  0  0
  146.0231  140.1764  153.1680 H   0  0  0  0  0  0  0  0  0  0  0  0
  146.1279  138.6655  154.0620 H   0  0  0  0  0  0  0  0  0  0  0  0
  147.5595  139.3250  153.2883 H   0  0  0  0  0  0  0  0  0  0  0  0
  147.6101  139.6815  155.7226 H   0  0  0  0  0  0  0  0  0  0  0  0
  145.1383  139.7754  156.0684 H   0  0  0  0  0  0  0  0  0  0  0  0
  146.0069  141.0071  156.9495 H   0  0  0  0  0  0  0  0  0  0  0  0
  143.7732  142.3894  157.0012 H   0  0  0  0  0  0  0  0  0  0  0  0
  143.1348  140.9512  156.2006 H   0  0  0  0  0  0  0  0  0  0  0  0
  142.9127  142.5171  155.4591 H   0  0  0  0  0  0  0  0  0  0  0  0
  145.9629  143.3781  156.0949 H   0  0  0  0  0  0  0  0  0  0  0  0
  145.4372  144.9857  154.2108 H   0  0  0  0  0  0  0  0  0  0  0  0
  144.0104  144.4561  155.0674 H   0  0  0  0  0  0  0  0  0  0  0  0
  144.3987  143.7617  153.4909 H   0  0  0  0  0  0  0  0  0  0  0  0
  146.6511  142.4854  153.2607 H   0  0  0  0  0  0  0  0  0  0  0  0
  147.5225  143.6686  154.1868 H   0  0  0  0  0  0  0  0  0  0  0  0
  148.5851  141.3939  154.1058 H   0  0  0  0  0  0  0  0  0  0  0  0
  149.0006  142.9538  155.8788 H   0  0  0  0  0  0  0  0  0  0  0  0
  149.1408  140.1163  156.4929 H   0  0  0  0  0  0  0  0  0  0  0  0
  150.4354  141.2178  156.0435 H   0  0  0  0  0  0  0  0  0  0  0  0
  148.8595  141.4307  158.6660 H   0  0  0  0  0  0  0  0  0  0  0  0
  150.3848  140.5903  158.5277 H   0  0  0  0  0  0  0  0  0  0  0  0
  152.1238  142.2992  156.8918 H   0  0  0  0  0  0  0  0  0  0  0  0
  153.2494  144.5015  157.2951 H   0  0  0  0  0  0  0  0  0  0  0  0
  152.2296  146.0962  158.9457 H   0  0  0  0  0  0  0  0  0  0  0  0
  150.1234  145.4163  160.1252 H   0  0  0  0  0  0  0  0  0  0  0  0
  147.8308  142.2625  156.7970 H   0  0  0  0  0  0  0  0  0  0  0  0
  144.6610  141.4005  154.3880 H   0  0  0  0  0  0  0  0  0  0  0  0
  1  2  1  0  0  0  0
  1 19  1  0  0  0  0
  1 20  1  0  0  0  0
  1 21  1  0  0  0  0
  2  9  1  0  0  0  0
  2  3  1  0  0  0  0
  2 22  1  0  0  0  0
  3  4  1  0  0  0  0
  3 23  1  0  0  0  0
  3 24  1  0  0  0  0
  4  5  1  0  0  0  0
  4  6  1  0  0  0  0
  4 45  1  0  0  0  0
  5 25  1  0  0  0  0
  5 26  1  0  0  0  0
  5 27  1  0  0  0  0
  6  7  1  0  0  0  0
  6  8  1  0  0  0  0
  6 28  1  0  0  0  0
  7 29  1  0  0  0  0
  7 30  1  0  0  0  0
  7 31  1  0  0  0  0
  8  9  1  0  0  0  0
  8 32  1  0  0  0  0
  8 33  1  0  0  0  0
  9 10  1  0  0  0  0
  9 34  1  0  0  0  0
 10 11  1  0  0  0  0
 10 35  1  0  0  0  0
 10 44  1  0  0  0  0
 11 12  1  0  0  0  0
 11 36  1  0  0  0  0
 11 37  1  0  0  0  0
 12 13  1  0  0  0  0
 12 38  1  0  0  0  0
 12 39  1  0  0  0  0
 13 18  1  0  0  0  0
 13 14  2  0  0  0  0
 14 15  1  0  0  0  0
 14 40  1  0  0  0  0
 15 16  2  0  0  0  0
 15 41  1  0  0  0  0
 16 17  1  0  0  0  0
 16 42  1  0  0  0  0
 17 18  2  0  0  0  0
 17 43  1  0  0  0  0
M  CHG  1   4   1
M  CHG  1  10   1
M  END
> <s_m_source_file>
AV-unprocessed.smi

> <i_m_source_file_index>
3303

> <i_lp_mmshare_version>
43012

> <i_f3d_flags>
0

> <s_epik_input>
W0NIM11bQ0BASF0xW0NIMl1OKFtDSDNdKVtDQEBIXShbQ0gzXSlbQ0gyXVtDQEhdMVtOSF1bQ0gyXVtDSDJdYzJbY0hdW2NIXVtjSF1bY0hdbjI=

> <s_epik_cmdline>
J2VwaWtfcHl0aG9uJywgJy1waCcsICc3LjAnLCAnLXRuJywgJzgnLCAnLW1hJywgJzIwMCcsICctbWV0YWxfYmluZGluZycsICctaW1hZScsICc8aW5maWxlLm1hZT4nLCAnLW9tYWUnLCAnPG91dGZpbGUubWFlPic=

> <r_epik_Ionization_Penalty>
0.0769462

> <r_epik_Ionization_Penalty_Charging>
0.0759813

> <r_epik_Ionization_Penalty_Neutral>
0.000964829

> <r_epik_State_Penalty>
0.0654373

> <r_epik_Charging_Adjusted_Penalty>
0.141419

> <i_epik_Tot_Q>
2

> <i_epik_Tot_abs_Q>
2

> <r_epik_Metal_State_Penalty>
0.0656439

> <b_epik_Metal_Only>
0

> <s_lp_Force_Field>
OPLS_2005

> <r_lp_Energy>
35.1377

> <b_lp_Chiralities_Consistent>
1

> <s_lp_Variant>
AV-unprocessed.smi:3303-7

> <Gold.Version>
5.8.1

> <Gold.Id.Protein>
6NUR|6NUR_protein|mol2

> <Gold.PLP.Fitness>
47.7102

> <Gold.PLP.PLP>
-36.0756

> <Gold.PLP.part.hbond>
-2.6512

> <Gold.PLP.part.metal>
0.0000

> <Gold.PLP.part.buried>
-4.4254

> <Gold.PLP.part.nonpolar>
-29.4756

> <Gold.PLP.part.repulsive>
0.2036

> <Gold.PLP.ligand.clash>
0.0000

> <Gold.PLP.ligand.torsion>
0.1928

> <Gold.PLP.Chemscore.Hbond>
4.0000

> <Gold.PLP.Chemscore.CHOScore>
0.0000

> <Gold.PLP.Chemscore.Metal>
0.0000

> <Gold.Chemscore.Hbonds>
donor molecule, donor type, donor heavy atom, donor atom, acceptor molecule, acceptor atom, score
      L1  H     4    45       P1 10175  0.59
      L1  H    10    35       P1  8028  1.89

> <Gold.PLP.Chemscore.Internal.Correction>
0.0202

> <Gold.Rescore>
     Score         DG    S(hbond)    S(metal)    S(lipo)     H(rot)  DE(clash)    DE(int)     intcor
     19.29     -19.75       1.81        0.00     100.48       1.37       0.15       0.30       ----

> <Gold.Chemscore.Fitness>
19.2945

> <Gold.Chemscore.DG>
-19.7509

> <Gold.Chemscore.ZeroCoef>
-5.4800

> <Gold.Chemscore.Hbond>
1.8065

> <Gold.Chemscore.Metal>
0.0000

> <Gold.Chemscore.Lipo>
100.4769

> <Gold.Chemscore.Internal_Hbond>
0.0000

> <Gold.Chemscore.DEClash>
0.1533

> <Gold.Chemscore.DEInternal>
0.3031

> <Gold.Chemscore.Rot>
1.3744

> <Gold.Chemscore.Internal.Correction>
   9.000000E+99

> <Gold.Chemscore.Hbonds>
donor molecule, donor type, donor heavy atom, donor atom, acceptor molecule, acceptor atom, score
      L1  H     4    45       P1 10175  0.17
      L1  H    10    35       P1  8028  0.91

> <Gold.Chemscore.Hbond.Weighted>
-6.0336

> <Gold.Chemscore.Metal.Weighted>
-0.0000

> <Gold.Chemscore.Lipo.Weighted>
-11.7558

> <Gold.Chemscore.Internal_Hbond.Weighted>
0.0000

> <Gold.Chemscore.DEClash.Weighted>
0.1533

> <Gold.Chemscore.DEInternal.Weighted>
0.3031

> <Gold.Chemscore.Rot.Weighted>
3.5185

> <Gold.Chemscore.Internal.Correction.Weighted>
   9.000000E+99

> <Gold.Protein.RotatedTorsions>
[ 6907 6896 6895 6894 ] final -169.27 input  -60.11 | X-H torsion
[ 7974 7965 7964 7962 ] final -173.43 input  175.53 | X-H torsion
[ 8008 7997 7996 7995 ] final   16.44 input   59.86 | X-H torsion
[ 10167 10162 10161 10158 ] final -160.29 input  -65.29 | X-H torsion
[ 10718 10713 10712 10709 ] final   59.21 input   66.30 | X-H torsion
[ 10763 10752 10751 10750 ] final   66.82 input  -60.55 | X-H torsion
[ 11005 11000 10999 10996 ] final   36.45 input  -57.11 | X-H torsion

> <Gold.Protein.ActiveResidues>
 VAL166  LYS551  ARG553  GLY616  TRP617  ASP618  TYR619  PRO620  LYS621  CYS622 
 ASP623  PHE694  ASN695  SER759  ASP760  ASP761  ALA762  ILE779  LEU786  VAL792 
 PHE793  MET794  SER795  GLU796  ALA797  LYS798  CYS799  TRP800  GLU811  SER814 

> <Gold.Protein.RotatedAtoms>
  151.4889  133.3529  159.2849 H   0  0  0  0  0  0  0  0  0  0  0  0  # atno 6907 bound_to 6896
  150.8848  134.8246  159.7262 H   0  0  0  0  0  0  0  0  0  0  0  0  # atno 6908 bound_to 6896
  152.4786  134.4791  159.9711 H   0  0  0  0  0  0  0  0  0  0  0  0  # atno 6909 bound_to 6896
  144.7138  140.1623  143.6375 H   0  0  0  0  0  0  0  0  0  0  0  0  # atno 7974 bound_to 7965
  154.8771  140.2967  155.5447 H   0  0  0  0  0  0  0  0  0  0  0  0  # atno 8008 bound_to 7997
  156.3022  140.2449  156.3701 H   0  0  0  0  0  0  0  0  0  0  0  0  # atno 8009 bound_to 7997
  154.8756  140.0400  157.1740 H   0  0  0  0  0  0  0  0  0  0  0  0  # atno 8010 bound_to 7997
  139.6550  144.0015  152.2188 H   0  0  0  0  0  0  0  0  0  0  0  0  # atno 10167 bound_to 10162
  157.5657  130.8869  149.9184 H   0  0  0  0  0  0  0  0  0  0  0  0  # atno 10718 bound_to 10713
  153.0157  135.5306  154.6883 H   0  0  0  0  0  0  0  0  0  0  0  0  # atno 10763 bound_to 10752
  154.6024  135.2869  155.0523 H   0  0  0  0  0  0  0  0  0  0  0  0  # atno 10764 bound_to 10752
  154.1575  135.6553  153.5030 H   0  0  0  0  0  0  0  0  0  0  0  0  # atno 10765 bound_to 10752
  140.2325  134.3511  155.7958 H   0  0  0  0  0  0  0  0  0  0  0  0  # atno 11005 bound_to 11000
  145.9019  139.2435  143.1488 LP  0  0  0  0  0  0  0  0  0  0  0  0  # atno 17320 bound_to 7965
  145.9802  140.8689  143.0118 LP  0  0  0  0  0  0  0  0  0  0  0  0  # atno 17321 bound_to 7965
  139.9739  144.6475  150.7963 LP  0  0  0  0  0  0  0  0  0  0  0  0  # atno 17342 bound_to 10162
  140.7555  143.3047  151.2991 LP  0  0  0  0  0  0  0  0  0  0  0  0  # atno 17343 bound_to 10162
  156.0706  130.3686  150.0784 LP  0  0  0  0  0  0  0  0  0  0  0  0  # atno 17370 bound_to 10713
  156.8943  130.9599  151.3584 LP  0  0  0  0  0  0  0  0  0  0  0  0  # atno 17371 bound_to 10713
  141.2217  133.7253  156.8754 LP  0  0  0  0  0  0  0  0  0  0  0  0  # atno 17394 bound_to 11000
  140.1736  134.9082  157.2863 LP  0  0  0  0  0  0  0  0  0  0  0  0  # atno 17395 bound_to 11000

$$$$
