AV-unprocessed.smi:2880|AV-procd|sdf|11052|dock7
  -GOLD-   2272015523D 1   1.00000     0.00000
 Structure written by MMmdl.
 47 48  0  0  0  0  0  0  0  0  1 V2000
  150.1648  140.0841  157.8895 C   0  0  0  0  0  0  0  0  0  0  0  0
  149.7318  141.2298  156.9529 C   0  0  0  0  0  0  0  0  0  0  0  0
  148.7744  142.1595  157.7363 C   0  0  0  0  0  0  0  0  0  0  0  0
  150.9681  142.0407  156.5213 C   0  0  0  0  0  0  0  0  0  0  0  0
  149.0959  140.6628  155.7556 N   0  0  0  0  0  0  0  0  0  0  0  0
  148.5146  141.3408  154.6965 C   0  0  0  0  0  0  0  0  0  0  0  0
  148.0168  140.4171  153.8220 C   0  0  0  0  0  0  0  0  0  0  0  0
  148.3293  139.1799  154.4450 C   0  0  0  0  0  0  0  0  0  0  0  0
  147.9660  137.9499  153.8395 N   0  0  0  0  0  0  0  0  0  0  0  0
  146.9711  137.1212  154.2000 C   0  0  0  0  0  0  0  0  0  0  0  0
  146.2064  137.3020  155.1483 O   0  0  0  0  0  0  0  0  0  0  0  0
  146.9161  136.0511  153.3931 N   0  0  0  0  0  0  0  0  0  0  0  0
  145.9507  134.9522  153.4787 C   0  0  1  0  0  0  0  0  0  0  0  0
  144.5487  135.4613  153.0870 C   0  0  0  0  0  0  0  0  0  0  0  0
  144.4448  135.7842  151.5863 C   0  0  0  0  0  0  0  0  0  0  0  0
  144.8593  134.5796  150.7291 C   0  0  0  0  0  0  0  0  0  0  0  0
  146.2656  134.0834  151.1015 C   0  0  0  0  0  0  0  0  0  0  0  0
  146.3682  133.7397  152.6050 C   0  0  1  0  0  0  0  0  0  0  0  0
  147.7572  133.1845  152.9832 C   0  0  0  0  0  0  0  0  0  0  0  0
  147.9007  131.8496  152.5442 O   0  0  0  0  0  0  0  0  0  0  0  0
  148.9603  139.3236  155.6005 N   0  0  0  0  0  0  0  0  0  0  0  0
  150.6244  140.4701  158.8001 H   0  0  0  0  0  0  0  0  0  0  0  0
  150.8933  139.4247  157.4172 H   0  0  0  0  0  0  0  0  0  0  0  0
  149.3112  139.4736  158.1868 H   0  0  0  0  0  0  0  0  0  0  0  0
  147.8737  141.6320  158.0536 H   0  0  0  0  0  0  0  0  0  0  0  0
  148.4653  143.0189  157.1396 H   0  0  0  0  0  0  0  0  0  0  0  0
  149.2525  142.5513  158.6347 H   0  0  0  0  0  0  0  0  0  0  0  0
  151.4694  142.4868  157.3808 H   0  0  0  0  0  0  0  0  0  0  0  0
  150.6930  142.8502  155.8443 H   0  0  0  0  0  0  0  0  0  0  0  0
  151.6985  141.4155  156.0066 H   0  0  0  0  0  0  0  0  0  0  0  0
  148.5011  142.4197  154.6511 H   0  0  0  0  0  0  0  0  0  0  0  0
  147.5058  140.6004  152.8885 H   0  0  0  0  0  0  0  0  0  0  0  0
  148.5232  137.6719  153.0453 H   0  0  0  0  0  0  0  0  0  0  0  0
  147.5915  135.9927  152.6453 H   0  0  0  0  0  0  0  0  0  0  0  0
  145.8870  134.6148  154.5147 H   0  0  0  0  0  0  0  0  0  0  0  0
  143.8092  134.7000  153.3389 H   0  0  0  0  0  0  0  0  0  0  0  0
  144.2879  136.3409  153.6769 H   0  0  0  0  0  0  0  0  0  0  0  0
  143.4246  136.0804  151.3407 H   0  0  0  0  0  0  0  0  0  0  0  0
  145.0777  136.6392  151.3458 H   0  0  0  0  0  0  0  0  0  0  0  0
  144.1404  133.7708  150.8650 H   0  0  0  0  0  0  0  0  0  0  0  0
  144.8270  134.8471  149.6726 H   0  0  0  0  0  0  0  0  0  0  0  0
  146.5047  133.2077  150.4975 H   0  0  0  0  0  0  0  0  0  0  0  0
  147.0029  134.8437  150.8407 H   0  0  0  0  0  0  0  0  0  0  0  0
  145.6444  132.9483  152.8081 H   0  0  0  0  0  0  0  0  0  0  0  0
  148.5552  133.7898  152.5522 H   0  0  0  0  0  0  0  0  0  0  0  0
  147.8895  133.2001  154.0655 H   0  0  0  0  0  0  0  0  0  0  0  0
  148.3575  131.8533  151.7170 H   0  0  0  0  0  0  0  0  0  0  0  0
  1  2  1  0  0  0  0
  1 22  1  0  0  0  0
  1 23  1  0  0  0  0
  1 24  1  0  0  0  0
  2  3  1  0  0  0  0
  2  4  1  0  0  0  0
  2  5  1  0  0  0  0
  3 25  1  0  0  0  0
  3 26  1  0  0  0  0
  3 27  1  0  0  0  0
  4 28  1  0  0  0  0
  4 29  1  0  0  0  0
  4 30  1  0  0  0  0
  5 21  1  0  0  0  0
  5  6  1  0  0  0  0
  6  7  2  0  0  0  0
  6 31  1  0  0  0  0
  7  8  1  0  0  0  0
  7 32  1  0  0  0  0
  8  9  1  0  0  0  0
  8 21  2  0  0  0  0
  9 10  1  0  0  0  0
  9 33  1  0  0  0  0
 10 11  2  0  0  0  0
 10 12  1  0  0  0  0
 12 13  1  0  0  0  0
 12 34  1  0  0  0  0
 13 18  1  0  0  0  0
 13 14  1  0  0  0  0
 13 35  1  0  0  0  0
 14 15  1  0  0  0  0
 14 36  1  0  0  0  0
 14 37  1  0  0  0  0
 15 16  1  0  0  0  0
 15 38  1  0  0  0  0
 15 39  1  0  0  0  0
 16 17  1  0  0  0  0
 16 40  1  0  0  0  0
 16 41  1  0  0  0  0
 17 18  1  0  0  0  0
 17 42  1  0  0  0  0
 17 43  1  0  0  0  0
 18 19  1  0  0  0  0
 18 44  1  0  0  0  0
 19 20  1  0  0  0  0
 19 45  1  0  0  0  0
 19 46  1  0  0  0  0
 20 47  1  0  0  0  0
M  END
> <s_m_source_file>
AV-unprocessed.smi

> <i_m_source_file_index>
2880

> <i_lp_mmshare_version>
43012

> <i_f3d_flags>
0

> <s_epik_input>
W0NIM11DKFtDSDNdKShbQ0gzXSluMVtjSF1bY0hdYyhuMSlbTkhdQyg9TylbTkhdW0NAQEhdMltDSDJdW0NIMl1bQ0gyXVtDSDJdW0NASF0yW0NIMl1bT0hd

> <s_epik_cmdline>
J2VwaWtfcHl0aG9uJywgJy1waCcsICc3LjAnLCAnLXRuJywgJzgnLCAnLW1hJywgJzIwMCcsICctbWV0YWxfYmluZGluZycsICctaW1hZScsICc8aW5maWxlLm1hZT4nLCAnLW9tYWUnLCAnPG91dGZpbGUubWFlPic=

> <r_lp_tautomer_probability>
1

> <r_epik_Ionization_Penalty>
3.89283e-05

> <r_epik_Ionization_Penalty_Charging>
0

> <r_epik_Ionization_Penalty_Neutral>
3.89283e-05

> <r_epik_State_Penalty>
-0

> <r_epik_Charging_Adjusted_Penalty>
0

> <i_epik_Tot_Q>
0

> <i_epik_Tot_abs_Q>
0

> <r_epik_Metal_State_Penalty>
-0

> <b_epik_Metal_Only>
0

> <s_lp_Force_Field>
OPLS_2005

> <r_lp_Energy>
20.5246

> <b_lp_Chiralities_Consistent>
1

> <s_lp_Variant>
AV-unprocessed.smi:2880-2

> <Gold.Version>
5.8.1

> <Gold.Id.Protein>
6NUR|6NUR_protein|mol2

> <Gold.PLP.Fitness>
38.9916

> <Gold.PLP.PLP>
-29.3068

> <Gold.PLP.part.hbond>
-3.0000

> <Gold.PLP.part.metal>
0.0000

> <Gold.PLP.part.buried>
-4.6095

> <Gold.PLP.part.nonpolar>
-22.5973

> <Gold.PLP.part.repulsive>
0.0666

> <Gold.PLP.ligand.clash>
0.0000

> <Gold.PLP.ligand.torsion>
0.9855

> <Gold.PLP.Chemscore.Hbond>
2.8720

> <Gold.PLP.Chemscore.CHOScore>
1.0000

> <Gold.PLP.Chemscore.Metal>
0.0000

> <Gold.Chemscore.Hbonds>
donor molecule, donor type, donor heavy atom, donor atom, acceptor molecule, acceptor atom, score
      L1  H     9    33       P1  7948  0.93
      L1  H    12    34       P1  7948  1.00
      L1  H    20    47       P1 10747  0.94
      L1  C     6    31       P1  8028  1.00

> <Gold.PLP.Chemscore.Internal.Correction>
0.0397

> <Gold.Rescore>
     Score         DG    S(hbond)    S(metal)    S(lipo)     H(rot)  DE(clash)    DE(int)     intcor
     16.37     -17.45       2.90        0.00      62.56       1.97       0.05       1.03       ----

> <Gold.Chemscore.Fitness>
16.3721

> <Gold.Chemscore.DG>
-17.4507

> <Gold.Chemscore.ZeroCoef>
-5.4800

> <Gold.Chemscore.Hbond>
2.9003

> <Gold.Chemscore.Metal>
0.0000

> <Gold.Chemscore.Lipo>
62.5615

> <Gold.Chemscore.Internal_Hbond>
0.0000

> <Gold.Chemscore.DEClash>
0.0515

> <Gold.Chemscore.DEInternal>
1.0271

> <Gold.Chemscore.Rot>
1.9672

> <Gold.Chemscore.Internal.Correction>
   9.000000E+99

> <Gold.Chemscore.Hbonds>
donor molecule, donor type, donor heavy atom, donor atom, acceptor molecule, acceptor atom, score
      L1  H     9    33       P1  7948  0.89
      L1  H    12    34       P1  7948  0.97
      L1  H    20    47       P1 10747  0.91

> <Gold.Chemscore.Hbond.Weighted>
-9.6871

> <Gold.Chemscore.Metal.Weighted>
-0.0000

> <Gold.Chemscore.Lipo.Weighted>
-7.3197

> <Gold.Chemscore.Internal_Hbond.Weighted>
0.0000

> <Gold.Chemscore.DEClash.Weighted>
0.0515

> <Gold.Chemscore.DEInternal.Weighted>
1.0271

> <Gold.Chemscore.Rot.Weighted>
5.0360

> <Gold.Chemscore.Internal.Correction.Weighted>
   9.000000E+99

> <Gold.Protein.RotatedTorsions>
[ 6907 6896 6895 6894 ] final  170.58 input  -60.11 | X-H torsion
[ 7974 7965 7964 7962 ] final -114.33 input  175.53 | X-H torsion
[ 8008 7997 7996 7995 ] final   65.16 input   59.86 | X-H torsion
[ 10167 10162 10161 10158 ] final  -85.58 input  -65.29 | X-H torsion
[ 10718 10713 10712 10709 ] final -119.01 input   66.30 | X-H torsion
[ 10763 10752 10751 10750 ] final   89.39 input  -60.55 | X-H torsion
[ 11005 11000 10999 10996 ] final  144.67 input  -57.11 | X-H torsion

> <Gold.Protein.ActiveResidues>
 VAL166  LYS551  ARG553  GLY616  TRP617  ASP618  TYR619  PRO620  LYS621  CYS622 
 ASP623  PHE694  ASN695  SER759  ASP760  ASP761  ALA762  ILE779  LEU786  VAL792 
 PHE793  MET794  SER795  GLU796  ALA797  LYS798  CYS799  TRP800  GLU811  SER814 

> <Gold.Protein.RotatedAtoms>
  151.8138  133.3385  159.3563 H   0  0  0  0  0  0  0  0  0  0  0  0  # atno 6907 bound_to 6896
  150.7317  134.5639  159.5865 H   0  0  0  0  0  0  0  0  0  0  0  0  # atno 6908 bound_to 6896
  152.3056  134.7560  160.0399 H   0  0  0  0  0  0  0  0  0  0  0  0  # atno 6909 bound_to 6896
  145.1214  140.8671  143.3812 H   0  0  0  0  0  0  0  0  0  0  0  0  # atno 7974 bound_to 7965
  155.6575  140.3497  155.4770 H   0  0  0  0  0  0  0  0  0  0  0  0  # atno 8008 bound_to 7997
  155.9797  140.1172  157.0761 H   0  0  0  0  0  0  0  0  0  0  0  0  # atno 8009 bound_to 7997
  154.4188  140.1141  156.5404 H   0  0  0  0  0  0  0  0  0  0  0  0  # atno 8010 bound_to 7997
  140.4023  143.2657  151.9126 H   0  0  0  0  0  0  0  0  0  0  0  0  # atno 10167 bound_to 10162
  156.1149  130.6278  150.9363 H   0  0  0  0  0  0  0  0  0  0  0  0  # atno 10718 bound_to 10713
  153.1866  135.4472  155.0097 H   0  0  0  0  0  0  0  0  0  0  0  0  # atno 10763 bound_to 10752
  154.8064  135.3276  154.7422 H   0  0  0  0  0  0  0  0  0  0  0  0  # atno 10764 bound_to 10752
  153.7880  135.6972  153.4931 H   0  0  0  0  0  0  0  0  0  0  0  0  # atno 10765 bound_to 10752
  140.0651  134.9183  157.1250 H   0  0  0  0  0  0  0  0  0  0  0  0  # atno 11005 bound_to 11000
  145.0736  139.3012  143.5819 LP  0  0  0  0  0  0  0  0  0  0  0  0  # atno 17320 bound_to 7965
  146.3520  140.0219  142.8658 LP  0  0  0  0  0  0  0  0  0  0  0  0  # atno 17321 bound_to 7965
  139.4784  144.5621  151.8223 LP  0  0  0  0  0  0  0  0  0  0  0  0  # atno 17342 bound_to 10162
  140.4726  144.1565  150.5920 LP  0  0  0  0  0  0  0  0  0  0  0  0  # atno 17343 bound_to 10162
  157.6332  131.0919  150.8400 LP  0  0  0  0  0  0  0  0  0  0  0  0  # atno 17370 bound_to 10713
  156.8505  130.5079  149.5312 LP  0  0  0  0  0  0  0  0  0  0  0  0  # atno 17371 bound_to 10713
  140.3712  134.2388  155.7178 LP  0  0  0  0  0  0  0  0  0  0  0  0  # atno 17394 bound_to 11000
  141.1989  133.8024  157.0561 LP  0  0  0  0  0  0  0  0  0  0  0  0  # atno 17395 bound_to 11000

$$$$
