AV-unprocessed.smi:2442|AV-procd|sdf|9625|dock3
  -GOLD-   2272013253D 1   1.00000     0.00000
 Structure written by MMmdl.
 46 47  0  0  0  0  0  0  0  0  1 V2000
  145.4310  133.3410  159.2955 C   0  0  0  0  0  0  0  0  0  0  0  0
  146.1848  134.5140  159.5573 O   0  0  0  0  0  0  0  0  0  0  0  0
  147.4712  134.2727  160.1206 C   0  0  2  0  0  0  0  0  0  0  0  0
  147.3448  133.5448  161.4760 C   0  0  0  0  0  0  0  0  0  0  0  0
  146.6460  134.4195  162.5299 C   0  0  0  0  0  0  0  0  0  0  0  0
  147.3657  135.7660  162.7006 C   0  0  0  0  0  0  0  0  0  0  0  0
  147.4945  136.5042  161.3588 C   0  0  0  0  0  0  0  0  0  0  0  0
  148.1924  135.6303  160.2978 C   0  0  2  0  0  0  0  0  0  0  0  0
  148.2719  136.3541  159.0313 N   0  0  0  0  0  0  0  0  0  0  0  0
  149.3980  136.8255  158.4785 C   0  0  0  0  0  0  0  0  0  0  0  0
  150.5134  136.7290  158.9909 O   0  0  0  0  0  0  0  0  0  0  0  0
  149.1654  137.4032  157.2933 N   0  0  0  0  0  0  0  0  0  0  0  0
  150.2005  137.9666  156.4381 C   0  0  0  0  0  0  0  0  0  0  0  0
  149.7771  137.9000  154.9642 C   0  0  0  0  0  0  0  0  0  0  0  0
  149.0021  139.1350  154.5319 C   0  0  0  0  0  0  0  0  0  0  0  0
  147.7450  138.9815  153.9105 C   0  0  0  0  0  0  0  0  0  0  0  0
  147.0363  140.1339  153.5191 C   0  0  0  0  0  0  0  0  0  0  0  0
  147.4987  141.3872  153.7075 N   0  0  0  0  0  0  0  0  0  0  0  0
  148.7008  141.5319  154.3038 C   0  0  0  0  0  0  0  0  0  0  0  0
  149.4949  140.4478  154.7371 C   0  0  0  0  0  0  0  0  0  0  0  0
  150.8341  140.7134  155.4012 C   0  0  0  0  0  0  0  0  0  0  0  0
  144.4733  133.6173  158.8548 H   0  0  0  0  0  0  0  0  0  0  0  0
  145.2268  132.7760  160.2045 H   0  0  0  0  0  0  0  0  0  0  0  0
  145.9479  132.6917  158.5877 H   0  0  0  0  0  0  0  0  0  0  0  0
  148.0576  133.6545  159.4382 H   0  0  0  0  0  0  0  0  0  0  0  0
  146.8133  132.6006  161.3638 H   0  0  0  0  0  0  0  0  0  0  0  0
  148.3415  133.2842  161.8341 H   0  0  0  0  0  0  0  0  0  0  0  0
  145.6102  134.5919  162.2348 H   0  0  0  0  0  0  0  0  0  0  0  0
  146.6103  133.8940  163.4845 H   0  0  0  0  0  0  0  0  0  0  0  0
  146.8265  136.3872  163.4162 H   0  0  0  0  0  0  0  0  0  0  0  0
  148.3578  135.5992  163.1223 H   0  0  0  0  0  0  0  0  0  0  0  0
  146.5022  136.7935  161.0091 H   0  0  0  0  0  0  0  0  0  0  0  0
  148.0513  137.4307  161.5044 H   0  0  0  0  0  0  0  0  0  0  0  0
  149.2096  135.4380  160.6450 H   0  0  0  0  0  0  0  0  0  0  0  0
  147.4063  136.4797  158.5278 H   0  0  0  0  0  0  0  0  0  0  0  0
  148.2157  137.4377  156.9528 H   0  0  0  0  0  0  0  0  0  0  0  0
  150.3877  139.0011  156.7301 H   0  0  0  0  0  0  0  0  0  0  0  0
  151.1311  137.4169  156.5869 H   0  0  0  0  0  0  0  0  0  0  0  0
  150.6492  137.7638  154.3244 H   0  0  0  0  0  0  0  0  0  0  0  0
  149.1520  137.0207  154.8017 H   0  0  0  0  0  0  0  0  0  0  0  0
  147.3276  138.0006  153.7374 H   0  0  0  0  0  0  0  0  0  0  0  0
  146.0714  140.0466  153.0417 H   0  0  0  0  0  0  0  0  0  0  0  0
  149.0381  142.5492  154.4391 H   0  0  0  0  0  0  0  0  0  0  0  0
  150.9858  141.7796  155.5714 H   0  0  0  0  0  0  0  0  0  0  0  0
  151.6492  140.3549  154.7723 H   0  0  0  0  0  0  0  0  0  0  0  0
  150.8935  140.2109  156.3665 H   0  0  0  0  0  0  0  0  0  0  0  0
  1  2  1  0  0  0  0
  1 22  1  0  0  0  0
  1 23  1  0  0  0  0
  1 24  1  0  0  0  0
  2  3  1  0  0  0  0
  3  8  1  0  0  0  0
  3  4  1  0  0  0  0
  3 25  1  0  0  0  0
  4  5  1  0  0  0  0
  4 26  1  0  0  0  0
  4 27  1  0  0  0  0
  5  6  1  0  0  0  0
  5 28  1  0  0  0  0
  5 29  1  0  0  0  0
  6  7  1  0  0  0  0
  6 30  1  0  0  0  0
  6 31  1  0  0  0  0
  7  8  1  0  0  0  0
  7 32  1  0  0  0  0
  7 33  1  0  0  0  0
  8  9  1  0  0  0  0
  8 34  1  0  0  0  0
  9 10  1  0  0  0  0
  9 35  1  0  0  0  0
 10 11  2  0  0  0  0
 10 12  1  0  0  0  0
 12 13  1  0  0  0  0
 12 36  1  0  0  0  0
 13 14  1  0  0  0  0
 13 37  1  0  0  0  0
 13 38  1  0  0  0  0
 14 15  1  0  0  0  0
 14 39  1  0  0  0  0
 14 40  1  0  0  0  0
 15 20  1  0  0  0  0
 15 16  2  0  0  0  0
 16 17  1  0  0  0  0
 16 41  1  0  0  0  0
 17 18  2  0  0  0  0
 17 42  1  0  0  0  0
 18 19  1  0  0  0  0
 19 20  2  0  0  0  0
 19 43  1  0  0  0  0
 20 21  1  0  0  0  0
 21 44  1  0  0  0  0
 21 45  1  0  0  0  0
 21 46  1  0  0  0  0
M  END
> <s_m_source_file>
AV-unprocessed.smi

> <i_m_source_file_index>
2442

> <i_lp_mmshare_version>
43012

> <i_f3d_flags>
0

> <s_epik_input>
W0NIM11PW0NAQEhdMVtDSDJdW0NIMl1bQ0gyXVtDSDJdW0NASF0xW05IXUMoPU8pW05IXVtDSDJdW0NIMl1jMltjSF1bY0hdbltjSF1jMltDSDNd

> <s_epik_cmdline>
J2VwaWtfcHl0aG9uJywgJy1waCcsICc3LjAnLCAnLXRuJywgJzgnLCAnLW1hJywgJzIwMCcsICctbWV0YWxfYmluZGluZycsICctaW1hZScsICc8aW5maWxlLm1hZT4nLCAnLW9tYWUnLCAnPG91dGZpbGUubWFlPic=

> <r_epik_Ionization_Penalty>
0.106136

> <r_epik_Ionization_Penalty_Charging>
0

> <r_epik_Ionization_Penalty_Neutral>
0.106136

> <r_epik_State_Penalty>
0.0959393

> <r_epik_Charging_Adjusted_Penalty>
0.0959393

> <i_epik_Tot_Q>
0

> <i_epik_Tot_abs_Q>
0

> <r_epik_Metal_State_Penalty>
0.0812517

> <b_epik_Metal_Only>
0

> <s_lp_Force_Field>
OPLS_2005

> <r_lp_Energy>
9.91993

> <b_lp_Chiralities_Consistent>
1

> <s_lp_Variant>
AV-unprocessed.smi:2442-3

> <Gold.Version>
5.8.1

> <Gold.Id.Protein>
6NUR|6NUR_protein|mol2

> <Gold.PLP.Fitness>
43.3498

> <Gold.PLP.PLP>
-35.3410

> <Gold.PLP.part.hbond>
-1.0000

> <Gold.PLP.part.metal>
0.0000

> <Gold.PLP.part.buried>
-4.2486

> <Gold.PLP.part.nonpolar>
-30.7218

> <Gold.PLP.part.repulsive>
0.3281

> <Gold.PLP.ligand.clash>
0.0000

> <Gold.PLP.ligand.torsion>
0.4784

> <Gold.PLP.Chemscore.Hbond>
1.0000

> <Gold.PLP.Chemscore.CHOScore>
1.9752

> <Gold.PLP.Chemscore.Metal>
0.0000

> <Gold.Chemscore.Hbonds>
donor molecule, donor type, donor heavy atom, donor atom, acceptor molecule, acceptor atom, score
      P1  H  6896  6907       L1    11  1.00
      L1  C    17    42       P1 10175  1.00
      L1  C    19    43       P1  8028  1.00

> <Gold.PLP.Chemscore.Internal.Correction>
0.0401

> <Gold.Rescore>
     Score         DG    S(hbond)    S(metal)    S(lipo)     H(rot)  DE(clash)    DE(int)     intcor
     14.94     -15.48       0.96        0.00      93.96       1.64       0.02       0.52       ----

> <Gold.Chemscore.Fitness>
14.9397

> <Gold.Chemscore.DG>
-15.4783

> <Gold.Chemscore.ZeroCoef>
-5.4800

> <Gold.Chemscore.Hbond>
0.9576

> <Gold.Chemscore.Metal>
0.0000

> <Gold.Chemscore.Lipo>
93.9609

> <Gold.Chemscore.Internal_Hbond>
0.0000

> <Gold.Chemscore.DEClash>
0.0201

> <Gold.Chemscore.DEInternal>
0.5185

> <Gold.Chemscore.Rot>
1.6380

> <Gold.Chemscore.Internal.Correction>
   9.000000E+99

> <Gold.Chemscore.Hbonds>
donor molecule, donor type, donor heavy atom, donor atom, acceptor molecule, acceptor atom, score
      P1  H  6896  6907       L1    11  0.96

> <Gold.Chemscore.Hbond.Weighted>
-3.1983

> <Gold.Chemscore.Metal.Weighted>
-0.0000

> <Gold.Chemscore.Lipo.Weighted>
-10.9934

> <Gold.Chemscore.Internal_Hbond.Weighted>
0.0000

> <Gold.Chemscore.DEClash.Weighted>
0.0201

> <Gold.Chemscore.DEInternal.Weighted>
0.5185

> <Gold.Chemscore.Rot.Weighted>
4.1934

> <Gold.Chemscore.Internal.Correction.Weighted>
   9.000000E+99

> <Gold.Protein.RotatedTorsions>
[ 6907 6896 6895 6894 ] final  -30.74 input  -60.11 | X-H torsion
[ 7974 7965 7964 7962 ] final   43.49 input  175.53 | X-H torsion
[ 8008 7997 7996 7995 ] final   37.20 input   59.86 | X-H torsion
[ 10167 10162 10161 10158 ] final  155.00 input  -65.29 | X-H torsion
[ 10718 10713 10712 10709 ] final    6.46 input   66.30 | X-H torsion
[ 10763 10752 10751 10750 ] final   37.77 input  -60.55 | X-H torsion
[ 11005 11000 10999 10996 ] final  -65.25 input  -57.11 | X-H torsion

> <Gold.Protein.ActiveResidues>
 VAL166  LYS551  ARG553  GLY616  TRP617  ASP618  TYR619  PRO620  LYS621  CYS622 
 ASP623  PHE694  ASN695  SER759  ASP760  ASP761  ALA762  ILE779  LEU786  VAL792 
 PHE793  MET794  SER795  GLU796  ALA797  LYS798  CYS799  TRP800  GLU811  SER814 

> <Gold.Protein.RotatedAtoms>
  151.1015  134.9975  159.8450 H   0  0  0  0  0  0  0  0  0  0  0  0  # atno 6907 bound_to 6896
  152.5437  134.1944  159.8697 H   0  0  0  0  0  0  0  0  0  0  0  0  # atno 6908 bound_to 6896
  151.1988  133.4579  159.2629 H   0  0  0  0  0  0  0  0  0  0  0  0  # atno 6909 bound_to 6896
  146.0651  139.5181  142.9633 H   0  0  0  0  0  0  0  0  0  0  0  0  # atno 7974 bound_to 7965
  155.1999  140.3315  155.4345 H   0  0  0  0  0  0  0  0  0  0  0  0  # atno 8008 bound_to 7997
  156.2411  140.1895  156.7036 H   0  0  0  0  0  0  0  0  0  0  0  0  # atno 8009 bound_to 7997
  154.6148  140.0603  156.9526 H   0  0  0  0  0  0  0  0  0  0  0  0  # atno 8010 bound_to 7997
  139.4822  144.5137  151.7985 H   0  0  0  0  0  0  0  0  0  0  0  0  # atno 10167 bound_to 10162
  156.9226  130.5796  149.5648 H   0  0  0  0  0  0  0  0  0  0  0  0  # atno 10718 bound_to 10713
  153.0025  135.6268  154.2198 H   0  0  0  0  0  0  0  0  0  0  0  0  # atno 10763 bound_to 10752
  154.1941  135.2807  155.3014 H   0  0  0  0  0  0  0  0  0  0  0  0  # atno 10764 bound_to 10752
  154.5736  135.5669  153.7177 H   0  0  0  0  0  0  0  0  0  0  0  0  # atno 10765 bound_to 10752
  141.1449  133.6678  156.5957 H   0  0  0  0  0  0  0  0  0  0  0  0  # atno 11005 bound_to 11000
  145.6492  141.0267  143.1770 LP  0  0  0  0  0  0  0  0  0  0  0  0  # atno 17320 bound_to 7965
  144.7197  139.8071  143.7386 LP  0  0  0  0  0  0  0  0  0  0  0  0  # atno 17321 bound_to 7965
  140.4643  144.1678  150.5910 LP  0  0  0  0  0  0  0  0  0  0  0  0  # atno 17342 bound_to 10162
  140.4451  143.2510  151.9422 LP  0  0  0  0  0  0  0  0  0  0  0  0  # atno 17343 bound_to 10162
  156.0484  130.5557  150.8933 LP  0  0  0  0  0  0  0  0  0  0  0  0  # atno 17370 bound_to 10713
  157.5898  131.0945  150.9137 LP  0  0  0  0  0  0  0  0  0  0  0  0  # atno 17371 bound_to 10713
  140.3728  134.7591  157.4610 LP  0  0  0  0  0  0  0  0  0  0  0  0  # atno 17394 bound_to 11000
  140.0697  134.5879  155.8655 LP  0  0  0  0  0  0  0  0  0  0  0  0  # atno 17395 bound_to 11000

$$$$
