AV-unprocessed.smi:767|AV-procd|sdf|3669|dock1
  -GOLD-   22720 1 83D 1   1.00000     0.00000
 Structure written by MMmdl.
 48 50  0  0  0  0  0  0  0  0  2 V2000
  145.6503  130.2442  150.2501 C   0  0  0  0  0  0  0  0  0  0  0  0
  145.4392  131.7331  150.4276 C   0  0  0  0  0  0  0  0  0  0  0  0
  144.1527  132.3103  150.4909 C   0  0  0  0  0  0  0  0  0  0  0  0
  144.0314  133.7056  150.6563 C   0  0  0  0  0  0  0  0  0  0  0  0
  145.1977  134.4954  150.7553 C   0  0  0  0  0  0  0  0  0  0  0  0
  145.1007  135.9970  150.9393 C   0  0  0  0  0  0  0  0  0  0  0  0
  145.1627  136.4016  152.4210 C   0  0  0  0  0  0  0  0  0  0  0  0
  146.5248  136.7130  152.8356 N   0  0  0  0  0  0  0  0  0  0  0  0
  146.8529  137.3581  153.9634 C   0  0  0  0  0  0  0  0  0  0  0  0
  146.0342  137.7609  154.7903 O   0  0  0  0  0  0  0  0  0  0  0  0
  148.1782  137.5065  154.0849 N   0  0  0  0  0  0  0  0  0  0  0  0
  148.8327  138.1788  155.2027 C   0  0  2  0  0  0  0  0  0  0  0  0
  149.6537  139.3982  154.7549 C   0  0  1  0  0  0  0  0  0  0  0  0
  149.2436  140.7785  155.1902 C   0  0  0  0  0  0  0  0  0  0  0  0
  150.1092  141.0162  156.4311 C   0  0  0  0  0  0  0  0  0  0  0  0
  150.4687  139.7102  156.8760 O   0  0  0  0  0  0  0  0  0  0  0  0
  150.7287  138.9195  155.7187 C   0  0  1  0  0  0  0  0  0  0  0  0
  150.1319  137.4961  155.7022 C   0  0  0  0  0  0  0  0  0  0  0  0
  150.0458  136.7900  157.0562 C   0  0  0  0  0  0  0  0  0  0  0  0
  150.8402  136.5290  154.7427 C   0  0  0  0  0  0  0  0  0  0  0  0
  146.4577  133.8632  150.6869 C   0  0  0  0  0  0  0  0  0  0  0  0
  146.5316  132.5236  150.5271 N   0  3  0  0  0  0  0  0  0  0  0  0
  144.6978  129.7158  150.1978 H   0  0  0  0  0  0  0  0  0  0  0  0
  146.2189  129.8381  151.0871 H   0  0  0  0  0  0  0  0  0  0  0  0
  146.2004  130.0454  149.3301 H   0  0  0  0  0  0  0  0  0  0  0  0
  143.2682  131.6947  150.4137 H   0  0  0  0  0  0  0  0  0  0  0  0
  143.0535  134.1621  150.7082 H   0  0  0  0  0  0  0  0  0  0  0  0
  145.9089  136.4724  150.3818 H   0  0  0  0  0  0  0  0  0  0  0  0
  144.1708  136.3515  150.4924 H   0  0  0  0  0  0  0  0  0  0  0  0
  144.5470  137.2850  152.5922 H   0  0  0  0  0  0  0  0  0  0  0  0
  144.7540  135.6102  153.0517 H   0  0  0  0  0  0  0  0  0  0  0  0
  147.2689  136.4222  152.2181 H   0  0  0  0  0  0  0  0  0  0  0  0
  148.7733  137.1420  153.3555 H   0  0  0  0  0  0  0  0  0  0  0  0
  148.1552  138.4269  156.0229 H   0  0  0  0  0  0  0  0  0  0  0  0
  149.9855  139.3261  153.7173 H   0  0  0  0  0  0  0  0  0  0  0  0
  149.4253  141.5320  154.4235 H   0  0  0  0  0  0  0  0  0  0  0  0
  148.1836  140.8074  155.4440 H   0  0  0  0  0  0  0  0  0  0  0  0
  151.0160  141.5624  156.1671 H   0  0  0  0  0  0  0  0  0  0  0  0
  149.5875  141.5752  157.2081 H   0  0  0  0  0  0  0  0  0  0  0  0
  151.7463  139.0216  155.3381 H   0  0  0  0  0  0  0  0  0  0  0  0
  151.0359  136.5761  157.4597 H   0  0  0  0  0  0  0  0  0  0  0  0
  149.5069  135.8450  156.9814 H   0  0  0  0  0  0  0  0  0  0  0  0
  149.5217  137.3979  157.7940 H   0  0  0  0  0  0  0  0  0  0  0  0
  151.8425  136.2832  155.0948 H   0  0  0  0  0  0  0  0  0  0  0  0
  150.9493  136.9556  153.7452 H   0  0  0  0  0  0  0  0  0  0  0  0
  150.2928  135.5919  154.6372 H   0  0  0  0  0  0  0  0  0  0  0  0
  147.4021  134.3837  150.7553 H   0  0  0  0  0  0  0  0  0  0  0  0
  147.4536  132.0891  150.4795 H   0  0  0  0  0  0  0  0  0  0  0  0
  1  2  1  0  0  0  0
  1 23  1  0  0  0  0
  1 24  1  0  0  0  0
  1 25  1  0  0  0  0
  2 22  1  0  0  0  0
  2  3  2  0  0  0  0
  3  4  1  0  0  0  0
  3 26  1  0  0  0  0
  4  5  2  0  0  0  0
  4 27  1  0  0  0  0
  5  6  1  0  0  0  0
  5 21  1  0  0  0  0
  6  7  1  0  0  0  0
  6 28  1  0  0  0  0
  6 29  1  0  0  0  0
  7  8  1  0  0  0  0
  7 30  1  0  0  0  0
  7 31  1  0  0  0  0
  8  9  1  0  0  0  0
  8 32  1  0  0  0  0
  9 10  2  0  0  0  0
  9 11  1  0  0  0  0
 11 12  1  0  0  0  0
 11 33  1  0  0  0  0
 12 18  1  0  0  0  0
 12 13  1  0  0  0  0
 12 34  1  0  0  0  0
 13 17  1  0  0  0  0
 13 14  1  0  0  0  0
 13 35  1  0  0  0  0
 14 15  1  0  0  0  0
 14 36  1  0  0  0  0
 14 37  1  0  0  0  0
 15 16  1  0  0  0  0
 15 38  1  0  0  0  0
 15 39  1  0  0  0  0
 16 17  1  0  0  0  0
 17 18  1  0  0  0  0
 17 40  1  0  0  0  0
 18 19  1  0  0  0  0
 18 20  1  0  0  0  0
 19 41  1  0  0  0  0
 19 42  1  0  0  0  0
 19 43  1  0  0  0  0
 20 44  1  0  0  0  0
 20 45  1  0  0  0  0
 20 46  1  0  0  0  0
 21 22  2  0  0  0  0
 21 47  1  0  0  0  0
 22 48  1  0  0  0  0
M  CHG  1  22   1
M  END
> <s_m_source_file>
AV-unprocessed.smi

> <i_m_source_file_index>
767

> <i_lp_mmshare_version>
43012

> <i_f3d_flags>
0

> <s_epik_input>
W0NIM11jMVtjSF1bY0hdYyhbY0hdbjEpW0NIMl1bQ0gyXVtOSF1DKD1PKVtOSF1bQ0BIXTJDKFtDSDNdKShbQ0gzXSlbQ0BIXShbQ0BASF0yMylPW0NIMl1bQ0gyXTM=

> <s_epik_cmdline>
J2VwaWtfcHl0aG9uJywgJy1waCcsICc3LjAnLCAnLXRuJywgJzgnLCAnLW1hJywgJzIwMCcsICctbWV0YWxfYmluZGluZycsICctaW1hZScsICc8aW5maWxlLm1hZT4nLCAnLW9tYWUnLCAnPG91dGZpbGUubWFlPic=

> <r_epik_Ionization_Penalty>
1.41853

> <r_epik_Ionization_Penalty_Charging>
1.41848

> <r_epik_Ionization_Penalty_Neutral>
5.17407e-05

> <r_epik_State_Penalty>
1.50205

> <r_epik_Charging_Adjusted_Penalty>
2.92053

> <i_epik_Tot_Q>
1

> <i_epik_Tot_abs_Q>
1

> <r_epik_Metal_State_Penalty>
1.5544

> <b_epik_Metal_Only>
0

> <s_lp_Force_Field>
OPLS_2005

> <r_lp_Energy>
38.5293

> <b_lp_Chiralities_Consistent>
1

> <s_lp_Variant>
AV-unprocessed.smi:767-13

> <Gold.Version>
5.8.1

> <Gold.Id.Protein>
6NUR|6NUR_protein|mol2

> <Gold.PLP.Fitness>
45.1978

> <Gold.PLP.PLP>
-37.6402

> <Gold.PLP.part.hbond>
-3.0000

> <Gold.PLP.part.metal>
0.0000

> <Gold.PLP.part.buried>
-4.3199

> <Gold.PLP.part.nonpolar>
-30.5930

> <Gold.PLP.part.repulsive>
0.1771

> <Gold.PLP.ligand.clash>
0.0000

> <Gold.PLP.ligand.torsion>
0.8065

> <Gold.PLP.Chemscore.Hbond>
2.9920

> <Gold.PLP.Chemscore.CHOScore>
0.0000

> <Gold.PLP.Chemscore.Metal>
0.0000

> <Gold.Chemscore.Hbonds>
donor molecule, donor type, donor heavy atom, donor atom, acceptor molecule, acceptor atom, score
      L1  H     8    32       P1  7948  1.00
      L1  H    11    33       P1  7948  1.00
      L1  H    22    48       P1 10747  1.00

> <Gold.PLP.Chemscore.Internal.Correction>
0.1946

> <Gold.Rescore>
     Score         DG    S(hbond)    S(metal)    S(lipo)     H(rot)  DE(clash)    DE(int)     intcor
     21.54     -23.78       2.91        0.00     106.61       1.52       1.38       0.85       ----

> <Gold.Chemscore.Fitness>
21.5440

> <Gold.Chemscore.DG>
-23.7779

> <Gold.Chemscore.ZeroCoef>
-5.4800

> <Gold.Chemscore.Hbond>
2.9113

> <Gold.Chemscore.Metal>
0.0000

> <Gold.Chemscore.Lipo>
106.6119

> <Gold.Chemscore.Internal_Hbond>
0.0000

> <Gold.Chemscore.DEClash>
1.3796

> <Gold.Chemscore.DEInternal>
0.8543

> <Gold.Chemscore.Rot>
1.5233

> <Gold.Chemscore.Internal.Correction>
   9.000000E+99

> <Gold.Chemscore.Hbonds>
donor molecule, donor type, donor heavy atom, donor atom, acceptor molecule, acceptor atom, score
      L1  H     8    32       P1  7948  0.96
      L1  H    11    33       P1  7948  0.95
      L1  H    22    48       P1 10747  0.99

> <Gold.Chemscore.Hbond.Weighted>
-9.7239

> <Gold.Chemscore.Metal.Weighted>
-0.0000

> <Gold.Chemscore.Lipo.Weighted>
-12.4736

> <Gold.Chemscore.Internal_Hbond.Weighted>
0.0000

> <Gold.Chemscore.DEClash.Weighted>
1.3796

> <Gold.Chemscore.DEInternal.Weighted>
0.8543

> <Gold.Chemscore.Rot.Weighted>
3.8995

> <Gold.Chemscore.Internal.Correction.Weighted>
   9.000000E+99

> <Gold.Protein.RotatedTorsions>
[ 6907 6896 6895 6894 ] final   80.93 input  -60.11 | X-H torsion
[ 7974 7965 7964 7962 ] final   56.62 input  175.53 | X-H torsion
[ 8008 7997 7996 7995 ] final   40.83 input   59.86 | X-H torsion
[ 10167 10162 10161 10158 ] final  -50.43 input  -65.29 | X-H torsion
[ 10718 10713 10712 10709 ] final   34.43 input   66.30 | X-H torsion
[ 10763 10752 10751 10750 ] final  177.70 input  -60.55 | X-H torsion
[ 11005 11000 10999 10996 ] final -119.61 input  -57.11 | X-H torsion

> <Gold.Protein.ActiveResidues>
 VAL166  LYS551  ARG553  GLY616  TRP617  ASP618  TYR619  PRO620  LYS621  CYS622 
 ASP623  PHE694  ASN695  SER759  ASP760  ASP761  ALA762  ILE779  LEU786  VAL792 
 PHE793  MET794  SER795  GLU796  ALA797  LYS798  CYS799  TRP800  GLU811  SER814 

> <Gold.Protein.RotatedAtoms>
  152.5252  134.3281  159.9172 H   0  0  0  0  0  0  0  0  0  0  0  0  # atno 6907 bound_to 6896
  151.3230  133.4025  159.2664 H   0  0  0  0  0  0  0  0  0  0  0  0  # atno 6908 bound_to 6896
  150.9943  134.9288  159.7975 H   0  0  0  0  0  0  0  0  0  0  0  0  # atno 6909 bound_to 6896
  145.9378  139.3862  143.0382 H   0  0  0  0  0  0  0  0  0  0  0  0  # atno 7974 bound_to 7965
  155.2596  140.3358  155.4274 H   0  0  0  0  0  0  0  0  0  0  0  0  # atno 8008 bound_to 7997
  156.2180  140.1797  156.7586 H   0  0  0  0  0  0  0  0  0  0  0  0  # atno 8009 bound_to 7997
  154.5783  140.0658  156.9051 H   0  0  0  0  0  0  0  0  0  0  0  0  # atno 8010 bound_to 7997
  140.6638  143.2658  151.4358 H   0  0  0  0  0  0  0  0  0  0  0  0  # atno 10167 bound_to 10162
  157.3103  130.7395  149.6720 H   0  0  0  0  0  0  0  0  0  0  0  0  # atno 10718 bound_to 10713
  154.4979  135.2782  155.1444 H   0  0  0  0  0  0  0  0  0  0  0  0  # atno 10763 bound_to 10752
  154.3089  135.6233  153.5461 H   0  0  0  0  0  0  0  0  0  0  0  0  # atno 10764 bound_to 10752
  152.9898  135.5715  154.5415 H   0  0  0  0  0  0  0  0  0  0  0  0  # atno 10765 bound_to 10752
  141.0203  134.0134  157.3292 H   0  0  0  0  0  0  0  0  0  0  0  0  # atno 11005 bound_to 11000
  145.8340  140.9616  143.0834 LP  0  0  0  0  0  0  0  0  0  0  0  0  # atno 17320 bound_to 7965
  144.6774  140.0199  143.7484 LP  0  0  0  0  0  0  0  0  0  0  0  0  # atno 17321 bound_to 7965
  139.5880  144.1562  152.2053 LP  0  0  0  0  0  0  0  0  0  0  0  0  # atno 17342 bound_to 10162
  140.0908  144.5622  150.7056 LP  0  0  0  0  0  0  0  0  0  0  0  0  # atno 17343 bound_to 10162
  155.9677  130.4253  150.4649 LP  0  0  0  0  0  0  0  0  0  0  0  0  # atno 17370 bound_to 10713
  157.2646  131.0574  151.2298 LP  0  0  0  0  0  0  0  0  0  0  0  0  # atno 17371 bound_to 10713
  139.9142  135.0194  156.7814 LP  0  0  0  0  0  0  0  0  0  0  0  0  # atno 17394 bound_to 11000
  140.6584  133.9667  155.7792 LP  0  0  0  0  0  0  0  0  0  0  0  0  # atno 17395 bound_to 11000

$$$$
