AV-unprocessed.smi:2451|AV-procd|sdf|9672|dock5
  -GOLD-   2272013313D 1   1.00000     0.00000
 Structure written by MMmdl.
 38 39  0  0  0  0  0  0  0  0  1 V2000
  152.0584  143.5665  161.3916 C   0  0  0  0  0  0  0  0  0  0  0  0
  153.1002  143.3692  160.2708 C   0  0  1  0  0  0  0  0  0  0  0  0
  153.8173  142.0102  160.3995 C   0  0  0  0  0  0  0  0  0  0  0  0
  152.9049  140.8352  160.0151 C   0  0  0  0  0  0  0  0  0  0  0  0
  152.3521  141.0103  158.5944 C   0  0  0  0  0  0  0  0  0  0  0  0
  151.6352  142.3625  158.4172 C   0  0  2  0  0  0  0  0  0  0  0  0
  151.2380  142.5001  157.0127 N   0  0  0  0  0  0  0  0  0  0  0  0
  150.5731  141.1320  156.2005 S   0  0  0  0  0  0  0  0  0  0  0  0
  149.8048  140.3606  157.1893 O   0  0  0  0  0  0  0  0  0  0  0  0
  149.9167  141.6167  154.9761 O   0  0  0  0  0  0  0  0  0  0  0  0
  152.0774  140.1819  155.7237 C   0  0  0  0  0  0  0  0  0  0  0  0
  151.6746  138.8440  155.1731 C   0  0  0  0  0  0  0  0  0  0  0  0
  150.3685  138.3726  154.8645 C   0  0  0  0  0  0  0  0  0  0  0  0
  150.5876  137.1076  154.4005 C   0  0  0  0  0  0  0  0  0  0  0  0
  151.9137  136.8198  154.4150 O   0  0  0  0  0  0  0  0  0  0  0  0
  152.5999  137.9353  154.9085 N   0  0  0  0  0  0  0  0  0  0  0  0
  152.5349  143.5531  158.8360 C   0  0  1  0  0  0  0  0  0  0  0  0
  151.8344  144.9151  158.6597 C   0  0  0  0  0  0  0  0  0  0  0  0
  151.2115  142.8885  161.2909 H   0  0  0  0  0  0  0  0  0  0  0  0
  151.6678  144.5837  161.4021 H   0  0  0  0  0  0  0  0  0  0  0  0
  152.5038  143.3902  162.3710 H   0  0  0  0  0  0  0  0  0  0  0  0
  153.8578  144.1393  160.4222 H   0  0  0  0  0  0  0  0  0  0  0  0
  154.6953  142.0048  159.7522 H   0  0  0  0  0  0  0  0  0  0  0  0
  154.1919  141.8753  161.4148 H   0  0  0  0  0  0  0  0  0  0  0  0
  153.4610  139.8997  160.0814 H   0  0  0  0  0  0  0  0  0  0  0  0
  152.0815  140.7506  160.7248 H   0  0  0  0  0  0  0  0  0  0  0  0
  153.1754  140.9347  157.8824 H   0  0  0  0  0  0  0  0  0  0  0  0
  151.6697  140.1915  158.3626 H   0  0  0  0  0  0  0  0  0  0  0  0
  150.7383  142.3633  159.0377 H   0  0  0  0  0  0  0  0  0  0  0  0
  151.9747  142.9387  156.4607 H   0  0  0  0  0  0  0  0  0  0  0  0
  152.6248  140.7589  154.9786 H   0  0  0  0  0  0  0  0  0  0  0  0
  152.7156  140.0802  156.6019 H   0  0  0  0  0  0  0  0  0  0  0  0
  149.4216  138.8807  154.9716 H   0  0  0  0  0  0  0  0  0  0  0  0
  149.9356  136.3261  154.0392 H   0  0  0  0  0  0  0  0  0  0  0  0
  153.3948  143.5580  158.1638 H   0  0  0  0  0  0  0  0  0  0  0  0
  150.8916  144.9567  159.2055 H   0  0  0  0  0  0  0  0  0  0  0  0
  151.6095  145.1145  157.6118 H   0  0  0  0  0  0  0  0  0  0  0  0
  152.4648  145.7307  159.0144 H   0  0  0  0  0  0  0  0  0  0  0  0
  1  2  1  0  0  0  0
  1 19  1  0  0  0  0
  1 20  1  0  0  0  0
  1 21  1  0  0  0  0
  2 17  1  0  0  0  0
  2  3  1  0  0  0  0
  2 22  1  0  0  0  0
  3  4  1  0  0  0  0
  3 23  1  0  0  0  0
  3 24  1  0  0  0  0
  4  5  1  0  0  0  0
  4 25  1  0  0  0  0
  4 26  1  0  0  0  0
  5  6  1  0  0  0  0
  5 27  1  0  0  0  0
  5 28  1  0  0  0  0
  6  7  1  0  0  0  0
  6 17  1  0  0  0  0
  6 29  1  0  0  0  0
  7  8  1  0  0  0  0
  7 30  1  0  0  0  0
  8  9  2  0  0  0  0
  8 10  2  0  0  0  0
  8 11  1  0  0  0  0
 11 12  1  0  0  0  0
 11 31  1  0  0  0  0
 11 32  1  0  0  0  0
 12 16  2  0  0  0  0
 12 13  1  0  0  0  0
 13 14  2  0  0  0  0
 13 33  1  0  0  0  0
 14 15  1  0  0  0  0
 14 34  1  0  0  0  0
 15 16  1  0  0  0  0
 17 18  1  0  0  0  0
 17 35  1  0  0  0  0
 18 36  1  0  0  0  0
 18 37  1  0  0  0  0
 18 38  1  0  0  0  0
M  END
> <s_m_source_file>
AV-unprocessed.smi

> <i_m_source_file_index>
2451

> <i_lp_mmshare_version>
43012

> <i_f3d_flags>
0

> <s_epik_input>
W0NIM11bQ0BASF0xW0NIMl1bQ0gyXVtDSDJdW0NASF0oW0NASF0xW0NIM10pW05IXVMoPU8pKD1PKVtDSDJdYzJbY0hdW2NIXW9uMg==

> <s_epik_cmdline>
J2VwaWtfcHl0aG9uJywgJy1waCcsICc3LjAnLCAnLXRuJywgJzgnLCAnLW1hJywgJzIwMCcsICctbWV0YWxfYmluZGluZycsICctaW1hZScsICc8aW5maWxlLm1hZT4nLCAnLW9tYWUnLCAnPG91dGZpbGUubWFlPic=

> <r_lp_tautomer_probability>
1

> <r_epik_Ionization_Penalty>
8.73668e-05

> <r_epik_Ionization_Penalty_Charging>
0

> <r_epik_Ionization_Penalty_Neutral>
8.73668e-05

> <r_epik_State_Penalty>
-0

> <r_epik_Charging_Adjusted_Penalty>
0

> <i_epik_Tot_Q>
0

> <i_epik_Tot_abs_Q>
0

> <r_epik_Metal_State_Penalty>
0.0716439

> <b_epik_Metal_Only>
0

> <s_lp_Force_Field>
OPLS_2005

> <r_lp_Energy>
8.38809

> <b_lp_Chiralities_Consistent>
1

> <s_lp_Variant>
AV-unprocessed.smi:2451-4

> <Gold.Version>
5.8.1

> <Gold.Id.Protein>
6NUR|6NUR_protein|mol2

> <Gold.PLP.Fitness>
43.4082

> <Gold.PLP.PLP>
-38.9213

> <Gold.PLP.part.hbond>
-2.9286

> <Gold.PLP.part.metal>
0.0000

> <Gold.PLP.part.buried>
-0.9422

> <Gold.PLP.part.nonpolar>
-34.6873

> <Gold.PLP.part.repulsive>
0.4201

> <Gold.PLP.ligand.clash>
0.0000

> <Gold.PLP.ligand.torsion>
0.7544

> <Gold.PLP.Chemscore.Hbond>
1.0520

> <Gold.PLP.Chemscore.CHOScore>
0.9010

> <Gold.PLP.Chemscore.Metal>
0.0000

> <Gold.Chemscore.Hbonds>
donor molecule, donor type, donor heavy atom, donor atom, acceptor molecule, acceptor atom, score
      P1  H  7989  7998       L1    10  0.06
      P1  H 10752 10765       L1    15  1.00
      L1  C    14    34       P1  7948  0.90

> <Gold.PLP.Chemscore.Internal.Correction>
0.1368

> <Gold.Rescore>
     Score         DG    S(hbond)    S(metal)    S(lipo)     H(rot)  DE(clash)    DE(int)     intcor
     14.83     -17.49       0.91        0.00     112.90       1.66       0.73       1.92       ----

> <Gold.Chemscore.Fitness>
14.8313

> <Gold.Chemscore.DG>
-17.4864

> <Gold.Chemscore.ZeroCoef>
-5.4800

> <Gold.Chemscore.Hbond>
0.9111

> <Gold.Chemscore.Metal>
0.0000

> <Gold.Chemscore.Lipo>
112.9047

> <Gold.Chemscore.Internal_Hbond>
0.0000

> <Gold.Chemscore.DEClash>
0.7335

> <Gold.Chemscore.DEInternal>
1.9216

> <Gold.Chemscore.Rot>
1.6588

> <Gold.Chemscore.Internal.Correction>
   9.000000E+99

> <Gold.Chemscore.Hbonds>
donor molecule, donor type, donor heavy atom, donor atom, acceptor molecule, acceptor atom, score
      P1  H  7989  7998       L1    10  0.01
      P1  H 10752 10765       L1    15  0.52

> <Gold.Chemscore.Hbond.Weighted>
-3.0431

> <Gold.Chemscore.Metal.Weighted>
-0.0000

> <Gold.Chemscore.Lipo.Weighted>
-13.2099

> <Gold.Chemscore.Internal_Hbond.Weighted>
0.0000

> <Gold.Chemscore.DEClash.Weighted>
0.7335

> <Gold.Chemscore.DEInternal.Weighted>
1.9216

> <Gold.Chemscore.Rot.Weighted>
4.2466

> <Gold.Chemscore.Internal.Correction.Weighted>
   9.000000E+99

> <Gold.Protein.RotatedTorsions>
[ 6907 6896 6895 6894 ] final  158.93 input  -60.11 | X-H torsion
[ 7974 7965 7964 7962 ] final  -85.92 input  175.53 | X-H torsion
[ 8008 7997 7996 7995 ] final -108.09 input   59.86 | X-H torsion
[ 10167 10162 10161 10158 ] final  -46.17 input  -65.29 | X-H torsion
[ 10718 10713 10712 10709 ] final  -50.32 input   66.30 | X-H torsion
[ 10763 10752 10751 10750 ] final  171.78 input  -60.55 | X-H torsion
[ 11005 11000 10999 10996 ] final   38.24 input  -57.11 | X-H torsion

> <Gold.Protein.ActiveResidues>
 VAL166  LYS551  ARG553  GLY616  TRP617  ASP618  TYR619  PRO620  LYS621  CYS622 
 ASP623  PHE694  ASN695  SER759  ASP760  ASP761  ALA762  ILE779  LEU786  VAL792 
 PHE793  MET794  SER795  GLU796  ALA797  LYS798  CYS799  TRP800  GLU811  SER814 

> <Gold.Protein.RotatedAtoms>
  151.9931  133.3798  159.4151 H   0  0  0  0  0  0  0  0  0  0  0  0  # atno 6907 bound_to 6896
  150.6919  134.3915  159.5088 H   0  0  0  0  0  0  0  0  0  0  0  0  # atno 6908 bound_to 6896
  152.1652  134.8880  160.0589 H   0  0  0  0  0  0  0  0  0  0  0  0  # atno 6909 bound_to 6896
  145.4868  140.9554  143.1834 H   0  0  0  0  0  0  0  0  0  0  0  0  # atno 7974 bound_to 7965
  154.9391  140.0403  157.2088 H   0  0  0  0  0  0  0  0  0  0  0  0  # atno 8008 bound_to 7997
  154.8086  140.2864  155.5848 H   0  0  0  0  0  0  0  0  0  0  0  0  # atno 8009 bound_to 7997
  156.2969  140.2541  156.2969 H   0  0  0  0  0  0  0  0  0  0  0  0  # atno 8010 bound_to 7997
  140.6828  143.2844  151.3744 H   0  0  0  0  0  0  0  0  0  0  0  0  # atno 10167 bound_to 10162
  156.1811  130.4150  149.9505 H   0  0  0  0  0  0  0  0  0  0  0  0  # atno 10718 bound_to 10713
  154.4168  135.2757  155.2001 H   0  0  0  0  0  0  0  0  0  0  0  0  # atno 10763 bound_to 10752
  154.3964  135.6054  153.5875 H   0  0  0  0  0  0  0  0  0  0  0  0  # atno 10764 bound_to 10752
  152.9832  135.5915  154.4458 H   0  0  0  0  0  0  0  0  0  0  0  0  # atno 10765 bound_to 10752
  140.2146  134.3714  155.8033 H   0  0  0  0  0  0  0  0  0  0  0  0  # atno 11005 bound_to 11000
  144.7856  139.6433  143.7135 LP  0  0  0  0  0  0  0  0  0  0  0  0  # atno 17320 bound_to 7965
  146.2308  139.5810  142.9556 LP  0  0  0  0  0  0  0  0  0  0  0  0  # atno 17321 bound_to 7965
  139.6164  144.0995  152.2349 LP  0  0  0  0  0  0  0  0  0  0  0  0  # atno 17342 bound_to 10162
  140.0425  144.5996  150.7399 LP  0  0  0  0  0  0  0  0  0  0  0  0  # atno 17343 bound_to 10162
  156.7275  130.9030  151.3623 LP  0  0  0  0  0  0  0  0  0  0  0  0  # atno 17370 bound_to 10713
  157.6869  130.9194  150.0409 LP  0  0  0  0  0  0  0  0  0  0  0  0  # atno 17371 bound_to 10713
  141.2225  133.7161  156.8474 LP  0  0  0  0  0  0  0  0  0  0  0  0  # atno 17394 bound_to 11000
  140.1914  134.8962  157.3065 LP  0  0  0  0  0  0  0  0  0  0  0  0  # atno 17395 bound_to 11000

$$$$
