AV-unprocessed.smi:496|AV-procd|sdf|2722|dock10
  -GOLD-   2262023163D 1   1.00000     0.00000
 Structure written by MMmdl.
 42 44  0  0  0  0  0  0  0  0  3 V2000
  153.0150  138.6436  154.7061 C   0  0  0  0  0  0  0  0  0  0  0  0
  152.8942  139.2680  155.9747 O   0  0  0  0  0  0  0  0  0  0  0  0
  151.8078  138.7872  156.7528 C   0  0  0  0  0  0  0  0  0  0  0  0
  151.5724  139.6569  157.9996 C   0  0  0  0  0  0  0  0  0  0  0  0
  151.1239  141.0156  157.6381 N   0  0  0  0  0  0  0  0  0  0  0  0
  150.1654  141.4550  156.7595 C   0  0  0  0  0  0  0  0  0  0  0  0
  149.2557  140.6387  155.8757 C   0  0  2  0  0  0  0  0  0  0  0  0
  149.3529  141.1206  154.4220 C   0  0  0  0  0  0  0  0  0  0  0  0
  147.8610  140.7109  156.3141 N   0  5  0  0  0  0  0  0  0  0  0  0
  147.2519  141.8563  156.7345 C   0  0  0  0  0  0  0  0  0  0  0  0
  147.2589  142.3867  157.8508 O   0  0  0  0  0  0  0  0  0  0  0  0
  146.4955  142.5238  155.6489 C   0  0  0  0  0  0  0  0  0  0  0  0
  146.6732  142.4718  154.2916 C   0  0  0  0  0  0  0  0  0  0  0  0
  145.6710  143.2984  153.7124 C   0  0  0  0  0  0  0  0  0  0  0  0
  144.9487  143.7994  154.7566 C   0  0  0  0  0  0  0  0  0  0  0  0
  145.4352  143.3392  155.9407 O   0  0  0  0  0  0  0  0  0  0  0  0
  150.1692  142.8182  156.8198 N   0  3  0  0  0  0  0  0  0  0  0  0
  151.1090  143.2566  157.7503 C   0  0  0  0  0  0  0  0  0  0  0  0
  151.4562  144.5408  158.1576 C   0  0  0  0  0  0  0  0  0  0  0  0
  152.4579  144.6420  159.1448 C   0  0  0  0  0  0  0  0  0  0  0  0
  153.0710  143.4943  159.6878 C   0  0  0  0  0  0  0  0  0  0  0  0
  152.7110  142.1979  159.2647 C   0  0  0  0  0  0  0  0  0  0  0  0
  151.7217  142.1057  158.2852 C   0  0  0  0  0  0  0  0  0  0  0  0
  153.9001  139.0259  154.1980 H   0  0  0  0  0  0  0  0  0  0  0  0
  152.1554  138.8475  154.0681 H   0  0  0  0  0  0  0  0  0  0  0  0
  153.1279  137.5634  154.8062 H   0  0  0  0  0  0  0  0  0  0  0  0
  150.9023  138.7077  156.1490 H   0  0  0  0  0  0  0  0  0  0  0  0
  152.0581  137.7732  157.0658 H   0  0  0  0  0  0  0  0  0  0  0  0
  150.8340  139.2009  158.6587 H   0  0  0  0  0  0  0  0  0  0  0  0
  152.4807  139.7485  158.5940 H   0  0  0  0  0  0  0  0  0  0  0  0
  149.6140  139.6086  155.8984 H   0  0  0  0  0  0  0  0  0  0  0  0
  150.3762  141.0411  154.0539 H   0  0  0  0  0  0  0  0  0  0  0  0
  149.0428  142.1615  154.3221 H   0  0  0  0  0  0  0  0  0  0  0  0
  148.7220  140.5206  153.7651 H   0  0  0  0  0  0  0  0  0  0  0  0
  147.4353  141.9050  153.7774 H   0  0  0  0  0  0  0  0  0  0  0  0
  145.5005  143.5000  152.6652 H   0  0  0  0  0  0  0  0  0  0  0  0
  144.0999  144.4628  154.8332 H   0  0  0  0  0  0  0  0  0  0  0  0
  150.9828  145.4199  157.7455 H   0  0  0  0  0  0  0  0  0  0  0  0
  152.7587  145.6187  159.4950 H   0  0  0  0  0  0  0  0  0  0  0  0
  153.8320  143.6101  160.4458 H   0  0  0  0  0  0  0  0  0  0  0  0
  153.1844  141.3265  159.6925 H   0  0  0  0  0  0  0  0  0  0  0  0
  149.5453  143.3952  156.2703 H   0  0  0  0  0  0  0  0  0  0  0  0
  1  2  1  0  0  0  0
  1 24  1  0  0  0  0
  1 25  1  0  0  0  0
  1 26  1  0  0  0  0
  2  3  1  0  0  0  0
  3  4  1  0  0  0  0
  3 27  1  0  0  0  0
  3 28  1  0  0  0  0
  4  5  1  0  0  0  0
  4 29  1  0  0  0  0
  4 30  1  0  0  0  0
  5 23  1  0  0  0  0
  5  6  1  0  0  0  0
  6  7  1  0  0  0  0
  6 17  2  0  0  0  0
  7  8  1  0  0  0  0
  7  9  1  0  0  0  0
  7 31  1  0  0  0  0
  8 32  1  0  0  0  0
  8 33  1  0  0  0  0
  8 34  1  0  0  0  0
  9 10  1  0  0  0  0
 10 11  2  0  0  0  0
 10 12  1  0  0  0  0
 12 16  1  0  0  0  0
 12 13  2  0  0  0  0
 13 14  1  0  0  0  0
 13 35  1  0  0  0  0
 14 15  2  0  0  0  0
 14 36  1  0  0  0  0
 15 16  1  0  0  0  0
 15 37  1  0  0  0  0
 17 18  1  0  0  0  0
 17 42  1  0  0  0  0
 18 23  2  0  0  0  0
 18 19  1  0  0  0  0
 19 20  2  0  0  0  0
 19 38  1  0  0  0  0
 20 21  1  0  0  0  0
 20 39  1  0  0  0  0
 21 22  2  0  0  0  0
 21 40  1  0  0  0  0
 22 23  1  0  0  0  0
 22 41  1  0  0  0  0
M  CHG  1   9  -1
M  CHG  1  17   1
M  END
> <s_m_source_file>
AV-unprocessed.smi

> <i_m_source_file_index>
496

> <i_lp_mmshare_version>
43012

> <i_f3d_flags>
0

> <s_epik_input>
W2NIXTFbY0hdW2NIXVtjSF1jKGMxMiluKFtDSDJdW0NIMl1PW0NIM10pYyhuMilbQ0BIXShbQ0gzXSlbTkhdQyg9TyljM1tjSF1bY0hdW2NIXW8z

> <s_epik_cmdline>
J2VwaWtfcHl0aG9uJywgJy1waCcsICc3LjAnLCAnLXRuJywgJzgnLCAnLW1hJywgJzIwMCcsICctbWV0YWxfYmluZGluZycsICctaW1hZScsICc8aW5maWxlLm1hZT4nLCAnLW9tYWUnLCAnPG91dGZpbGUubWFlPic=

> <r_epik_Ionization_Penalty>
6.2189

> <r_epik_Ionization_Penalty_Charging>
6.2189

> <r_epik_Ionization_Penalty_Neutral>
2.56052e-12

> <r_epik_State_Penalty>
7.14475

> <r_epik_Charging_Adjusted_Penalty>
13.3636

> <i_epik_Tot_Q>
0

> <i_epik_Tot_abs_Q>
2

> <r_epik_Metal_State_Penalty>
3.17915

> <b_epik_Metal_Only>
1

> <s_lp_Force_Field>
OPLS_2005

> <r_lp_Energy>
11.1611

> <b_lp_Chiralities_Consistent>
1

> <s_lp_Variant>
AV-unprocessed.smi:496-7

> <Gold.Version>
5.8.1

> <Gold.Id.Protein>
6NUR|6NUR_protein|mol2

> <Gold.PLP.Fitness>
55.4400

> <Gold.PLP.PLP>
-49.6418

> <Gold.PLP.part.hbond>
-2.0000

> <Gold.PLP.part.metal>
0.0000

> <Gold.PLP.part.buried>
-5.8252

> <Gold.PLP.part.nonpolar>
-42.5897

> <Gold.PLP.part.repulsive>
0.3734

> <Gold.PLP.ligand.clash>
0.0000

> <Gold.PLP.ligand.torsion>
1.6356

> <Gold.PLP.Chemscore.Hbond>
3.0000

> <Gold.PLP.Chemscore.CHOScore>
0.0000

> <Gold.PLP.Chemscore.Metal>
0.0000

> <Gold.Chemscore.Hbonds>
donor molecule, donor type, donor heavy atom, donor atom, acceptor molecule, acceptor atom, score
      L1  H    17    42       P1  8028  2.00
      P1  H  7997  8010       L1     2  1.00

> <Gold.PLP.Chemscore.Internal.Correction>
0.0695

> <Gold.Rescore>
     Score         DG    S(hbond)    S(metal)    S(lipo)     H(rot)  DE(clash)    DE(int)     intcor
     20.22     -21.75       1.95        0.00     123.61       1.83       0.00       1.52       ----

> <Gold.Chemscore.Fitness>
20.2226

> <Gold.Chemscore.DG>
-21.7458

> <Gold.Chemscore.ZeroCoef>
-5.4800

> <Gold.Chemscore.Hbond>
1.9458

> <Gold.Chemscore.Metal>
0.0000

> <Gold.Chemscore.Lipo>
123.6129

> <Gold.Chemscore.Internal_Hbond>
0.0000

> <Gold.Chemscore.DEClash>
0.0025

> <Gold.Chemscore.DEInternal>
1.5207

> <Gold.Chemscore.Rot>
1.8343

> <Gold.Chemscore.Internal.Correction>
   9.000000E+99

> <Gold.Chemscore.Hbonds>
donor molecule, donor type, donor heavy atom, donor atom, acceptor molecule, acceptor atom, score
      L1  H    17    42       P1  8028  0.98
      P1  H  7997  8010       L1     2  0.45

> <Gold.Chemscore.Hbond.Weighted>
-6.4989

> <Gold.Chemscore.Metal.Weighted>
-0.0000

> <Gold.Chemscore.Lipo.Weighted>
-14.4627

> <Gold.Chemscore.Internal_Hbond.Weighted>
0.0000

> <Gold.Chemscore.DEClash.Weighted>
0.0025

> <Gold.Chemscore.DEInternal.Weighted>
1.5207

> <Gold.Chemscore.Rot.Weighted>
4.6958

> <Gold.Chemscore.Internal.Correction.Weighted>
   9.000000E+99

> <Gold.Protein.RotatedTorsions>
[ 6907 6896 6895 6894 ] final -157.99 input  -60.11 | X-H torsion
[ 7974 7965 7964 7962 ] final -103.26 input  175.53 | X-H torsion
[ 8008 7997 7996 7995 ] final   89.04 input   59.86 | X-H torsion
[ 10167 10162 10161 10158 ] final   -4.25 input  -65.29 | X-H torsion
[ 10718 10713 10712 10709 ] final  159.57 input   66.30 | X-H torsion
[ 10763 10752 10751 10750 ] final -146.38 input  -60.55 | X-H torsion
[ 11005 11000 10999 10996 ] final  -77.83 input  -57.11 | X-H torsion

> <Gold.Protein.ActiveResidues>
 VAL166  LYS551  ARG553  GLY616  TRP617  ASP618  TYR619  PRO620  LYS621  CYS622 
 ASP623  PHE694  ASN695  SER759  ASP760  ASP761  ALA762  ILE779  LEU786  VAL792 
 PHE793  MET794  SER795  GLU796  ALA797  LYS798  CYS799  TRP800  GLU811  SER814 

> <Gold.Protein.RotatedAtoms>
  151.3113  133.4079  159.2646 H   0  0  0  0  0  0  0  0  0  0  0  0  # atno 6907 bound_to 6896
  151.0112  134.9399  159.8018 H   0  0  0  0  0  0  0  0  0  0  0  0  # atno 6908 bound_to 6896
  152.5301  134.3077  159.9154 H   0  0  0  0  0  0  0  0  0  0  0  0  # atno 6909 bound_to 6896
  145.2582  140.9260  143.3056 H   0  0  0  0  0  0  0  0  0  0  0  0  # atno 7974 bound_to 7965
  155.9952  140.3365  155.6791 H   0  0  0  0  0  0  0  0  0  0  0  0  # atno 8008 bound_to 7997
  155.6366  140.0691  157.2650 H   0  0  0  0  0  0  0  0  0  0  0  0  # atno 8009 bound_to 7997
  154.4231  140.1750  156.1516 H   0  0  0  0  0  0  0  0  0  0  0  0  # atno 8010 bound_to 7997
  140.6920  143.6445  150.8405 H   0  0  0  0  0  0  0  0  0  0  0  0  # atno 10167 bound_to 10162
  157.1623  131.0590  151.2226 H   0  0  0  0  0  0  0  0  0  0  0  0  # atno 10718 bound_to 10713
  154.8338  135.3388  154.6653 H   0  0  0  0  0  0  0  0  0  0  0  0  # atno 10763 bound_to 10752
  153.7270  135.6954  153.5003 H   0  0  0  0  0  0  0  0  0  0  0  0  # atno 10764 bound_to 10752
  153.2340  135.4407  155.0578 H   0  0  0  0  0  0  0  0  0  0  0  0  # atno 10765 bound_to 10752
  141.1662  133.7038  156.7879 H   0  0  0  0  0  0  0  0  0  0  0  0  # atno 11005 bound_to 11000
  144.9442  139.4155  143.6434 LP  0  0  0  0  0  0  0  0  0  0  0  0  # atno 17320 bound_to 7965
  146.3283  139.8417  142.8889 LP  0  0  0  0  0  0  0  0  0  0  0  0  # atno 17321 bound_to 7965
  140.0159  143.5593  152.2820 LP  0  0  0  0  0  0  0  0  0  0  0  0  # atno 17342 bound_to 10162
  139.6334  144.7647  151.2489 LP  0  0  0  0  0  0  0  0  0  0  0  0  # atno 17343 bound_to 10162
  157.4121  130.7391  149.6847 LP  0  0  0  0  0  0  0  0  0  0  0  0  # atno 17370 bound_to 10713
  155.9752  130.4093  150.3869 LP  0  0  0  0  0  0  0  0  0  0  0  0  # atno 17371 bound_to 10713
  140.2347  134.8659  157.3512 LP  0  0  0  0  0  0  0  0  0  0  0  0  # atno 17394 bound_to 11000
  140.1856  134.4435  155.7746 LP  0  0  0  0  0  0  0  0  0  0  0  0  # atno 17395 bound_to 11000

$$$$
