AV-unprocessed.smi:62|AV-procd|sdf|603|dock10
  -GOLD-   2262016493D 1   1.00000     0.00000
 Structure written by MMmdl.
 31 32  0  0  0  0  0  0  0  0  3 V2000
  152.1501  144.9852  159.2423 C   0  0  0  0  0  0  0  0  0  0  0  0
  151.4969  143.7501  158.8658 N   0  0  0  0  0  0  0  0  0  0  0  0
  150.2386  143.5663  158.3403 C   0  0  0  0  0  0  0  0  0  0  0  0
  150.0556  142.2254  158.1425 C   0  0  0  0  0  0  0  0  0  0  0  0
  148.8164  141.5690  157.5807 C   0  0  0  0  0  0  0  0  0  0  0  0
  148.5504  142.0103  156.1914 N   0  3  1  0  0  0  0  0  0  0  0  0
  149.2463  141.2394  155.1375 C   0  0  0  0  0  0  0  0  0  0  0  0
  148.3739  141.3868  153.8949 C   0  0  0  0  0  0  0  0  0  0  0  0
  146.9665  141.3641  154.4826 C   0  0  2  0  0  0  0  0  0  0  0  0
  146.0287  141.9967  153.6374 O   0  0  0  0  0  0  0  0  0  0  0  0
  147.1145  142.0808  155.8320 C   0  0  0  0  0  0  0  0  0  0  0  0
  151.2960  141.6586  158.5940 C   0  0  0  0  0  0  0  0  0  0  0  0
  151.5582  140.1757  158.5804 C   0  0  0  0  0  0  0  0  0  0  0  0
  150.6192  139.3765  158.3699 O   0  0  0  0  0  0  0  0  0  0  0  0
  152.7267  139.7865  158.7951 O   0  5  0  0  0  0  0  0  0  0  0  0
  152.1466  142.5819  159.0214 N   0  0  0  0  0  0  0  0  0  0  0  0
  151.4822  145.8298  159.0703 H   0  0  0  0  0  0  0  0  0  0  0  0
  153.0539  145.1208  158.6473 H   0  0  0  0  0  0  0  0  0  0  0  0
  152.4180  144.9542  160.2989 H   0  0  0  0  0  0  0  0  0  0  0  0
  149.5786  144.3997  158.1496 H   0  0  0  0  0  0  0  0  0  0  0  0
  148.9107  140.4821  157.5911 H   0  0  0  0  0  0  0  0  0  0  0  0
  147.9464  141.7943  158.1985 H   0  0  0  0  0  0  0  0  0  0  0  0
  150.2631  141.6009  154.9801 H   0  0  0  0  0  0  0  0  0  0  0  0
  149.3015  140.1873  155.4225 H   0  0  0  0  0  0  0  0  0  0  0  0
  148.5748  142.3480  153.4187 H   0  0  0  0  0  0  0  0  0  0  0  0
  148.5426  140.6005  153.1585 H   0  0  0  0  0  0  0  0  0  0  0  0
  146.6616  140.3303  154.6509 H   0  0  0  0  0  0  0  0  0  0  0  0
  145.4497  141.3396  153.2819 H   0  0  0  0  0  0  0  0  0  0  0  0
  146.4682  141.6310  156.5873 H   0  0  0  0  0  0  0  0  0  0  0  0
  146.8451  143.1352  155.7552 H   0  0  0  0  0  0  0  0  0  0  0  0
  148.8924  142.9597  156.1248 H   0  0  0  0  0  0  0  0  0  0  0  0
  1  2  1  0  0  0  0
  1 17  1  0  0  0  0
  1 18  1  0  0  0  0
  1 19  1  0  0  0  0
  2 16  1  0  0  0  0
  2  3  1  0  0  0  0
  3  4  2  0  0  0  0
  3 20  1  0  0  0  0
  4  5  1  0  0  0  0
  4 12  1  0  0  0  0
  5  6  1  0  0  0  0
  5 21  1  0  0  0  0
  5 22  1  0  0  0  0
  6 11  1  0  0  0  0
  6  7  1  0  0  0  0
  6 31  1  0  0  0  0
  7  8  1  0  0  0  0
  7 23  1  0  0  0  0
  7 24  1  0  0  0  0
  8  9  1  0  0  0  0
  8 25  1  0  0  0  0
  8 26  1  0  0  0  0
  9 10  1  0  0  0  0
  9 11  1  0  0  0  0
  9 27  1  0  0  0  0
 10 28  1  0  0  0  0
 11 29  1  0  0  0  0
 11 30  1  0  0  0  0
 12 13  1  0  0  0  0
 12 16  2  0  0  0  0
 13 14  2  0  0  0  0
 13 15  1  0  0  0  0
M  CHG  1   6   1
M  CHG  1  15  -1
M  END
> <s_m_source_file>
AV-unprocessed.smi

> <i_m_source_file_index>
62

> <i_lp_mmshare_version>
43012

> <i_f3d_flags>
0

> <s_epik_input>
W0NIM11uMVtjSF1jKGMobjEpQyg9TylbT0hdKVtDSDJdTjJbQ0gyXVtDSDJdW0NAQEhdKFtPSF0pW0NIMl0y

> <s_epik_cmdline>
J2VwaWtfcHl0aG9uJywgJy1waCcsICc3LjAnLCAnLXRuJywgJzgnLCAnLW1hJywgJzIwMCcsICctbWV0YWxfYmluZGluZycsICctaW1hZScsICc8aW5maWxlLm1hZT4nLCAnLW9tYWUnLCAnPG91dGZpbGUubWFlPic=

> <r_epik_Ionization_Penalty>
0.0522993

> <r_epik_Ionization_Penalty_Charging>
0.0522915

> <r_epik_Ionization_Penalty_Neutral>
7.84975e-06

> <r_epik_State_Penalty>
0.0448084

> <r_epik_Charging_Adjusted_Penalty>
0.0970998

> <i_epik_Tot_Q>
0

> <i_epik_Tot_abs_Q>
2

> <r_epik_Metal_State_Penalty>
0.0448097

> <b_epik_Metal_Only>
0

> <s_lp_Force_Field>
OPLS_2005

> <r_lp_Energy>
17.4079

> <b_lp_Chiralities_Consistent>
1

> <s_lp_Variant>
AV-unprocessed.smi:62-3

> <Gold.Version>
5.8.1

> <Gold.Id.Protein>
6NUR|6NUR_protein|mol2

> <Gold.PLP.Fitness>
46.2625

> <Gold.PLP.PLP>
-29.2720

> <Gold.PLP.part.hbond>
-3.0000

> <Gold.PLP.part.metal>
0.0000

> <Gold.PLP.part.buried>
-3.7981

> <Gold.PLP.part.nonpolar>
-22.8814

> <Gold.PLP.part.repulsive>
0.0361

> <Gold.PLP.ligand.clash>
0.0000

> <Gold.PLP.ligand.torsion>
0.4317

> <Gold.PLP.Chemscore.Hbond>
4.9425

> <Gold.PLP.Chemscore.CHOScore>
1.0054

> <Gold.PLP.Chemscore.Metal>
0.0000

> <Gold.Chemscore.Hbonds>
donor molecule, donor type, donor heavy atom, donor atom, acceptor molecule, acceptor atom, score
      L1  H     6    31       P1  8028  2.00
      L1  H    10    28       P1 10175  0.69
      L1  C     3    20       P1  8028  0.30
      L1  C     3    20       P1  8029  0.75

> <Gold.PLP.Chemscore.Internal.Correction>
0.0103

> <Gold.Rescore>
     Score         DG    S(hbond)    S(metal)    S(lipo)     H(rot)  DE(clash)    DE(int)     intcor
     15.27     -16.89       2.64        0.00      61.68       1.81       0.01       1.61       ----

> <Gold.Chemscore.Fitness>
15.2715

> <Gold.Chemscore.DG>
-16.8922

> <Gold.Chemscore.ZeroCoef>
-5.4800

> <Gold.Chemscore.Hbond>
2.6429

> <Gold.Chemscore.Metal>
0.0000

> <Gold.Chemscore.Lipo>
61.6783

> <Gold.Chemscore.Internal_Hbond>
0.0000

> <Gold.Chemscore.DEClash>
0.0133

> <Gold.Chemscore.DEInternal>
1.6073

> <Gold.Chemscore.Rot>
1.8091

> <Gold.Chemscore.Internal.Correction>
   9.000000E+99

> <Gold.Chemscore.Hbonds>
donor molecule, donor type, donor heavy atom, donor atom, acceptor molecule, acceptor atom, score
      L1  H     6    31       P1  8028  0.99
      L1  H    10    28       P1 10175  0.12

> <Gold.Chemscore.Hbond.Weighted>
-8.8272

> <Gold.Chemscore.Metal.Weighted>
-0.0000

> <Gold.Chemscore.Lipo.Weighted>
-7.2164

> <Gold.Chemscore.Internal_Hbond.Weighted>
0.0000

> <Gold.Chemscore.DEClash.Weighted>
0.0133

> <Gold.Chemscore.DEInternal.Weighted>
1.6073

> <Gold.Chemscore.Rot.Weighted>
4.6314

> <Gold.Chemscore.Internal.Correction.Weighted>
   9.000000E+99

> <Gold.Protein.RotatedTorsions>
[ 6907 6896 6895 6894 ] final  137.52 input  -60.11 | X-H torsion
[ 7974 7965 7964 7962 ] final   61.16 input  175.53 | X-H torsion
[ 8008 7997 7996 7995 ] final  161.53 input   59.86 | X-H torsion
[ 10167 10162 10161 10158 ] final   73.20 input  -65.29 | X-H torsion
[ 10718 10713 10712 10709 ] final  123.78 input   66.30 | X-H torsion
[ 10763 10752 10751 10750 ] final   62.89 input  -60.55 | X-H torsion
[ 11005 11000 10999 10996 ] final  -72.65 input  -57.11 | X-H torsion

> <Gold.Protein.ActiveResidues>
 VAL166  LYS551  ARG553  GLY616  TRP617  ASP618  TYR619  PRO620  LYS621  CYS622 
 ASP623  PHE694  ASN695  SER759  ASP760  ASP761  ALA762  ILE779  LEU786  VAL792 
 PHE793  MET794  SER795  GLU796  ALA797  LYS798  CYS799  TRP800  GLU811  SER814 

> <Gold.Protein.RotatedAtoms>
  152.2771  133.5436  159.5474 H   0  0  0  0  0  0  0  0  0  0  0  0  # atno 6907 bound_to 6896
  150.7181  134.0616  159.3842 H   0  0  0  0  0  0  0  0  0  0  0  0  # atno 6908 bound_to 6896
  151.8528  135.0552  160.0511 H   0  0  0  0  0  0  0  0  0  0  0  0  # atno 6909 bound_to 6896
  145.8879  139.3489  143.0667 H   0  0  0  0  0  0  0  0  0  0  0  0  # atno 7974 bound_to 7965
  156.2096  140.1775  156.7724 H   0  0  0  0  0  0  0  0  0  0  0  0  # atno 8008 bound_to 7997
  154.5704  140.0683  156.8985 H   0  0  0  0  0  0  0  0  0  0  0  0  # atno 8009 bound_to 7997
  155.2684  140.3340  155.4269 H   0  0  0  0  0  0  0  0  0  0  0  0  # atno 8010 bound_to 7997
  140.0270  144.5495  150.7536 H   0  0  0  0  0  0  0  0  0  0  0  0  # atno 10167 bound_to 10162
  157.5637  131.1088  150.8492 H   0  0  0  0  0  0  0  0  0  0  0  0  # atno 10718 bound_to 10713
  152.9998  135.5449  154.6264 H   0  0  0  0  0  0  0  0  0  0  0  0  # atno 10763 bound_to 10752
  154.5552  135.2829  155.0973 H   0  0  0  0  0  0  0  0  0  0  0  0  # atno 10764 bound_to 10752
  154.2198  135.6452  153.5193 H   0  0  0  0  0  0  0  0  0  0  0  0  # atno 10765 bound_to 10752
  141.1611  133.6853  156.7091 H   0  0  0  0  0  0  0  0  0  0  0  0  # atno 11005 bound_to 11000
  145.8945  140.9283  143.0535 LP  0  0  0  0  0  0  0  0  0  0  0  0  # atno 17320 bound_to 7965
  144.6729  140.0949  143.7463 LP  0  0  0  0  0  0  0  0  0  0  0  0  # atno 17321 bound_to 7965
  140.7318  143.2698  151.3924 LP  0  0  0  0  0  0  0  0  0  0  0  0  # atno 17342 bound_to 10162
  139.6101  144.1116  152.2290 LP  0  0  0  0  0  0  0  0  0  0  0  0  # atno 17343 bound_to 10162
  156.8983  130.5237  149.5283 LP  0  0  0  0  0  0  0  0  0  0  0  0  # atno 17370 bound_to 10713
  156.0687  130.5725  150.9341 LP  0  0  0  0  0  0  0  0  0  0  0  0  # atno 17371 bound_to 10713
  140.2901  134.8247  157.4009 LP  0  0  0  0  0  0  0  0  0  0  0  0  # atno 17394 bound_to 11000
  140.1355  134.5040  155.8072 LP  0  0  0  0  0  0  0  0  0  0  0  0  # atno 17395 bound_to 11000

$$$$
