AV-unprocessed.smi:2480|AV-procd|sdf|9769|dock5
  -GOLD-   2272013413D 1   1.00000     0.00000
 Structure written by MMmdl.
 33 34  0  0  0  0  0  0  0  0  3 V2000
  151.1783  141.2063  156.7850 O   0  0  0  0  0  0  0  0  0  0  0  0
  150.4560  142.1658  156.5239 C   0  0  0  0  0  0  0  0  0  0  0  0
  149.3994  142.1302  155.6884 N   0  0  0  0  0  0  0  0  0  0  0  0
  148.8438  141.0286  154.9772 C   0  0  0  0  0  0  0  0  0  0  0  0
  149.5909  139.8626  154.6790 C   0  0  0  0  0  0  0  0  0  0  0  0
  148.9672  138.8124  153.9799 C   0  0  0  0  0  0  0  0  0  0  0  0
  147.6854  138.8561  153.5669 N   0  0  0  0  0  0  0  0  0  0  0  0
  146.9779  139.9730  153.8334 C   0  0  0  0  0  0  0  0  0  0  0  0
  147.4988  141.0942  154.5193 C   0  0  0  0  0  0  0  0  0  0  0  0
  146.6327  142.2675  154.7430 N   0  3  0  0  0  0  0  0  0  0  0  0
  146.6369  142.8020  155.8475 O   0  0  0  0  0  0  0  0  0  0  0  0
  145.9658  142.6678  153.7950 O   0  5  0  0  0  0  0  0  0  0  0  0
  150.6741  143.3723  157.0803 N   0  0  0  0  0  0  0  0  0  0  0  0
  151.7233  143.7653  158.0245 C   0  0  2  0  0  0  0  0  0  0  0  0
  152.0483  142.6220  158.9781 C   0  0  0  0  0  0  0  0  0  0  0  0
  152.2114  142.7785  160.3029 C   0  0  0  0  0  0  0  0  0  0  0  0
  152.1027  144.1182  161.0069 C   0  0  0  0  0  0  0  0  0  0  0  0
  152.1576  145.2963  160.0184 C   0  0  0  0  0  0  0  0  0  0  0  0
  151.2839  145.0367  158.7818 C   0  0  0  0  0  0  0  0  0  0  0  0
  148.8701  142.9880  155.6258 H   0  0  0  0  0  0  0  0  0  0  0  0
  150.6260  139.7548  154.9632 H   0  0  0  0  0  0  0  0  0  0  0  0
  149.5157  137.9124  153.7435 H   0  0  0  0  0  0  0  0  0  0  0  0
  145.9593  139.9741  153.4739 H   0  0  0  0  0  0  0  0  0  0  0  0
  150.0506  144.1134  156.7939 H   0  0  0  0  0  0  0  0  0  0  0  0
  152.6405  144.0018  157.4824 H   0  0  0  0  0  0  0  0  0  0  0  0
  152.1503  141.6369  158.5464 H   0  0  0  0  0  0  0  0  0  0  0  0
  152.4203  141.9189  160.9226 H   0  0  0  0  0  0  0  0  0  0  0  0
  151.1638  144.1337  161.5614 H   0  0  0  0  0  0  0  0  0  0  0  0
  152.9064  144.2087  161.7381 H   0  0  0  0  0  0  0  0  0  0  0  0
  151.8470  146.2150  160.5165 H   0  0  0  0  0  0  0  0  0  0  0  0
  153.1886  145.4535  159.6987 H   0  0  0  0  0  0  0  0  0  0  0  0
  151.3140  145.8974  158.1128 H   0  0  0  0  0  0  0  0  0  0  0  0
  150.2466  144.9366  159.1055 H   0  0  0  0  0  0  0  0  0  0  0  0
  1  2  2  0  0  0  0
  2  3  1  0  0  0  0
  2 13  1  0  0  0  0
  3  4  1  0  0  0  0
  3 20  1  0  0  0  0
  4  9  1  0  0  0  0
  4  5  2  0  0  0  0
  5  6  1  0  0  0  0
  5 21  1  0  0  0  0
  6  7  2  0  0  0  0
  6 22  1  0  0  0  0
  7  8  1  0  0  0  0
  8  9  2  0  0  0  0
  8 23  1  0  0  0  0
  9 10  1  0  0  0  0
 10 11  2  0  0  0  0
 10 12  1  0  0  0  0
 13 14  1  0  0  0  0
 13 24  1  0  0  0  0
 14 19  1  0  0  0  0
 14 15  1  0  0  0  0
 14 25  1  0  0  0  0
 15 16  2  0  0  0  0
 15 26  1  0  0  0  0
 16 17  1  0  0  0  0
 16 27  1  0  0  0  0
 17 18  1  0  0  0  0
 17 28  1  0  0  0  0
 17 29  1  0  0  0  0
 18 19  1  0  0  0  0
 18 30  1  0  0  0  0
 18 31  1  0  0  0  0
 19 32  1  0  0  0  0
 19 33  1  0  0  0  0
M  CHG  1  10   1
M  CHG  1  12  -1
M  END
> <s_m_source_file>
AV-unprocessed.smi

> <i_m_source_file_index>
2480

> <i_lp_mmshare_version>
43012

> <i_f3d_flags>
0

> <s_epik_input>
W0NIMl0xW0NIMl1bQ0gyXVtDSF09W0NIXVtDQEhdMVtOSF1DKD1PKVtOSF1jMltjSF1bY0hdbltjSF1jMltOK10oPU8pW08tXQ==

> <s_epik_cmdline>
J2VwaWtfcHl0aG9uJywgJy1waCcsICc3LjAnLCAnLXRuJywgJzgnLCAnLW1hJywgJzIwMCcsICctbWV0YWxfYmluZGluZycsICctaW1hZScsICc8aW5maWxlLm1hZT4nLCAnLW9tYWUnLCAnPG91dGZpbGUubWFlPic=

> <r_lp_tautomer_probability>
1

> <r_epik_Ionization_Penalty>
0.000149203

> <r_epik_Ionization_Penalty_Charging>
0

> <r_epik_Ionization_Penalty_Neutral>
0.000149203

> <r_epik_State_Penalty>
-0

> <r_epik_Charging_Adjusted_Penalty>
0

> <i_epik_Tot_Q>
0

> <i_epik_Tot_abs_Q>
2

> <r_epik_Metal_State_Penalty>
-0

> <b_epik_Metal_Only>
0

> <s_lp_Force_Field>
OPLS_2005

> <r_lp_Energy>
27.2011

> <b_lp_Chiralities_Consistent>
1

> <s_lp_Variant>
AV-unprocessed.smi:2480-1

> <Gold.Version>
5.8.1

> <Gold.Id.Protein>
6NUR|6NUR_protein|mol2

> <Gold.PLP.Fitness>
47.5980

> <Gold.PLP.PLP>
-38.1035

> <Gold.PLP.part.hbond>
-2.0000

> <Gold.PLP.part.metal>
0.0000

> <Gold.PLP.part.buried>
-3.9331

> <Gold.PLP.part.nonpolar>
-34.3956

> <Gold.PLP.part.repulsive>
2.1838

> <Gold.PLP.ligand.clash>
0.0000

> <Gold.PLP.ligand.torsion>
1.1698

> <Gold.PLP.Chemscore.Hbond>
1.9680

> <Gold.PLP.Chemscore.CHOScore>
1.9739

> <Gold.PLP.Chemscore.Metal>
0.0000

> <Gold.Chemscore.Hbonds>
donor molecule, donor type, donor heavy atom, donor atom, acceptor molecule, acceptor atom, score
      L1  H     3    20       P1  8028  0.96
      L1  H    13    24       P1  8028  1.00
      L1  C     6    22       P1  7948  0.88
      L1  C     8    23       P1 10175  0.98

> <Gold.PLP.Chemscore.Internal.Correction>
0.0085

> <Gold.Rescore>
     Score         DG    S(hbond)    S(metal)    S(lipo)     H(rot)  DE(clash)    DE(int)     intcor
     15.67     -20.62       1.87        0.00      97.86       1.00       0.17       4.78       ----

> <Gold.Chemscore.Fitness>
15.6651

> <Gold.Chemscore.DG>
-20.6178

> <Gold.Chemscore.ZeroCoef>
-5.4800

> <Gold.Chemscore.Hbond>
1.8707

> <Gold.Chemscore.Metal>
0.0000

> <Gold.Chemscore.Lipo>
97.8604

> <Gold.Chemscore.Internal_Hbond>
0.0000

> <Gold.Chemscore.DEClash>
0.1740

> <Gold.Chemscore.DEInternal>
4.7787

> <Gold.Chemscore.Rot>
1.0000

> <Gold.Chemscore.Internal.Correction>
   9.000000E+99

> <Gold.Chemscore.Hbonds>
donor molecule, donor type, donor heavy atom, donor atom, acceptor molecule, acceptor atom, score
      L1  H     3    20       P1  8028  0.92
      L1  H    13    24       P1  8028  0.91

> <Gold.Chemscore.Hbond.Weighted>
-6.2481

> <Gold.Chemscore.Metal.Weighted>
-0.0000

> <Gold.Chemscore.Lipo.Weighted>
-11.4497

> <Gold.Chemscore.Internal_Hbond.Weighted>
0.0000

> <Gold.Chemscore.DEClash.Weighted>
0.1740

> <Gold.Chemscore.DEInternal.Weighted>
4.7787

> <Gold.Chemscore.Rot.Weighted>
2.5600

> <Gold.Chemscore.Internal.Correction.Weighted>
   9.000000E+99

> <Gold.Protein.RotatedTorsions>
[ 6907 6896 6895 6894 ] final  140.75 input  -60.11 | X-H torsion
[ 7974 7965 7964 7962 ] final  166.24 input  175.53 | X-H torsion
[ 8008 7997 7996 7995 ] final   68.40 input   59.86 | X-H torsion
[ 10167 10162 10161 10158 ] final   59.38 input  -65.29 | X-H torsion
[ 10718 10713 10712 10709 ] final  -76.34 input   66.30 | X-H torsion
[ 10763 10752 10751 10750 ] final  127.58 input  -60.55 | X-H torsion
[ 11005 11000 10999 10996 ] final  -70.91 input  -57.11 | X-H torsion

> <Gold.Protein.ActiveResidues>
 VAL166  LYS551  ARG553  GLY616  TRP617  ASP618  TYR619  PRO620  LYS621  CYS622 
 ASP623  PHE694  ASN695  SER759  ASP760  ASP761  ALA762  ILE779  LEU786  VAL792 
 PHE793  MET794  SER795  GLU796  ALA797  LYS798  CYS799  TRP800  GLU811  SER814 

> <Gold.Protein.RotatedAtoms>
  152.2392  133.5122  159.5260 H   0  0  0  0  0  0  0  0  0  0  0  0  # atno 6907 bound_to 6896
  150.7059  134.1111  159.4009 H   0  0  0  0  0  0  0  0  0  0  0  0  # atno 6908 bound_to 6896
  151.9032  135.0369  160.0559 H   0  0  0  0  0  0  0  0  0  0  0  0  # atno 6909 bound_to 6896
  144.7470  139.8586  143.6379 H   0  0  0  0  0  0  0  0  0  0  0  0  # atno 7974 bound_to 7965
  155.7078  140.3494  155.4960 H   0  0  0  0  0  0  0  0  0  0  0  0  # atno 8008 bound_to 7997
  155.9383  140.1097  157.1098 H   0  0  0  0  0  0  0  0  0  0  0  0  # atno 8009 bound_to 7997
  154.4098  140.1218  156.4880 H   0  0  0  0  0  0  0  0  0  0  0  0  # atno 8010 bound_to 7997
  140.1771  144.4219  150.6633 H   0  0  0  0  0  0  0  0  0  0  0  0  # atno 10167 bound_to 10162
  156.0178  130.4463  150.3179 H   0  0  0  0  0  0  0  0  0  0  0  0  # atno 10718 bound_to 10713
  153.7117  135.3267  155.3247 H   0  0  0  0  0  0  0  0  0  0  0  0  # atno 10763 bound_to 10752
  154.8383  135.4478  154.1307 H   0  0  0  0  0  0  0  0  0  0  0  0  # atno 10764 bound_to 10752
  153.2403  135.6970  153.7870 H   0  0  0  0  0  0  0  0  0  0  0  0  # atno 10765 bound_to 10752
  141.1583  133.6803  156.6825 H   0  0  0  0  0  0  0  0  0  0  0  0  # atno 11005 bound_to 11000
  146.1365  139.4411  143.0136 LP  0  0  0  0  0  0  0  0  0  0  0  0  # atno 17320 bound_to 7965
  145.7084  141.0114  143.1466 LP  0  0  0  0  0  0  0  0  0  0  0  0  # atno 17321 bound_to 7965
  140.6544  143.2233  151.6002 LP  0  0  0  0  0  0  0  0  0  0  0  0  # atno 17342 bound_to 10162
  139.5312  144.2910  152.1152 LP  0  0  0  0  0  0  0  0  0  0  0  0  # atno 17343 bound_to 10162
  157.1280  131.0264  151.2981 LP  0  0  0  0  0  0  0  0  0  0  0  0  # atno 17370 bound_to 10713
  157.4574  130.7633  149.7205 LP  0  0  0  0  0  0  0  0  0  0  0  0  # atno 17371 bound_to 10713
  140.3091  134.8100  157.4162 LP  0  0  0  0  0  0  0  0  0  0  0  0  # atno 17394 bound_to 11000
  140.1194  134.5240  155.8197 LP  0  0  0  0  0  0  0  0  0  0  0  0  # atno 17395 bound_to 11000

$$$$
