AV-unprocessed.smi:3315|AV-procd|sdf|12752|dock5
  -GOLD-   2272019 93D 1   1.00000     0.00000
 Structure written by MMmdl.
 37 38  0  0  0  0  0  0  0  0  1 V2000
  149.9145  141.3737  155.5210 C   0  0  0  0  0  0  0  0  0  0  0  0
  150.6461  140.4739  154.6982 O   0  0  0  0  0  0  0  0  0  0  0  0
  151.1300  139.2875  155.3304 C   0  0  2  0  0  0  0  0  0  0  0  0
  152.1107  139.6553  156.4550 C   0  0  0  0  0  0  0  0  0  0  0  0
  151.5689  138.2216  154.3097 C   0  0  0  0  0  0  0  0  0  0  0  0
  150.8436  137.2062  155.1900 C   0  0  2  0  0  0  0  0  0  0  0  0
  150.1824  136.1607  154.4161 N   0  0  0  0  0  0  0  0  0  0  0  0
  150.1204  134.8731  154.7814 C   0  0  0  0  0  0  0  0  0  0  0  0
  150.6256  134.4355  155.8157 O   0  0  0  0  0  0  0  0  0  0  0  0
  149.4406  134.1426  153.8812 N   0  0  0  0  0  0  0  0  0  0  0  0
  149.1716  132.7506  153.9228 C   0  0  0  0  0  0  0  0  0  0  0  0
  148.2587  132.1573  153.0105 C   0  0  0  0  0  0  0  0  0  0  0  0
  148.2814  130.8404  153.3727 C   0  0  0  0  0  0  0  0  0  0  0  0
  149.1324  130.6428  154.4144 O   0  0  0  0  0  0  0  0  0  0  0  0
  149.7007  131.8740  154.7634 N   0  0  0  0  0  0  0  0  0  0  0  0
  149.9168  138.3569  155.6588 C   0  0  0  0  0  0  0  0  0  0  0  0
  149.4677  138.2958  157.1222 C   0  0  0  0  0  0  0  0  0  0  0  0
  148.6350  138.5965  154.8355 C   0  0  0  0  0  0  0  0  0  0  0  0
  149.6911  142.2752  154.9507 H   0  0  0  0  0  0  0  0  0  0  0  0
  150.4800  141.6738  156.4034 H   0  0  0  0  0  0  0  0  0  0  0  0
  148.9628  140.9506  155.8412 H   0  0  0  0  0  0  0  0  0  0  0  0
  152.3926  138.7861  157.0487 H   0  0  0  0  0  0  0  0  0  0  0  0
  151.6763  140.3882  157.1352 H   0  0  0  0  0  0  0  0  0  0  0  0
  153.0387  140.0731  156.0657 H   0  0  0  0  0  0  0  0  0  0  0  0
  151.1196  138.3477  153.3229 H   0  0  0  0  0  0  0  0  0  0  0  0
  152.6464  138.0706  154.2403 H   0  0  0  0  0  0  0  0  0  0  0  0
  151.4895  136.8262  155.9850 H   0  0  0  0  0  0  0  0  0  0  0  0
  149.7409  136.4389  153.5520 H   0  0  0  0  0  0  0  0  0  0  0  0
  149.0785  134.6348  153.0781 H   0  0  0  0  0  0  0  0  0  0  0  0
  147.6828  132.6170  152.2212 H   0  0  0  0  0  0  0  0  0  0  0  0
  147.7730  129.9616  153.0041 H   0  0  0  0  0  0  0  0  0  0  0  0
  148.6758  137.5601  157.2676 H   0  0  0  0  0  0  0  0  0  0  0  0
  149.0886  139.2596  157.4629 H   0  0  0  0  0  0  0  0  0  0  0  0
  150.2816  138.0116  157.7886 H   0  0  0  0  0  0  0  0  0  0  0  0
  147.9100  137.7940  154.9752 H   0  0  0  0  0  0  0  0  0  0  0  0
  148.8358  138.6624  153.7660 H   0  0  0  0  0  0  0  0  0  0  0  0
  148.1447  139.5266  155.1250 H   0  0  0  0  0  0  0  0  0  0  0  0
  1  2  1  0  0  0  0
  1 19  1  0  0  0  0
  1 20  1  0  0  0  0
  1 21  1  0  0  0  0
  2  3  1  0  0  0  0
  3 16  1  0  0  0  0
  3  4  1  0  0  0  0
  3  5  1  0  0  0  0
  4 22  1  0  0  0  0
  4 23  1  0  0  0  0
  4 24  1  0  0  0  0
  5  6  1  0  0  0  0
  5 25  1  0  0  0  0
  5 26  1  0  0  0  0
  6  7  1  0  0  0  0
  6 16  1  0  0  0  0
  6 27  1  0  0  0  0
  7  8  1  0  0  0  0
  7 28  1  0  0  0  0
  8  9  2  0  0  0  0
  8 10  1  0  0  0  0
 10 11  1  0  0  0  0
 10 29  1  0  0  0  0
 11 15  2  0  0  0  0
 11 12  1  0  0  0  0
 12 13  2  0  0  0  0
 12 30  1  0  0  0  0
 13 14  1  0  0  0  0
 13 31  1  0  0  0  0
 14 15  1  0  0  0  0
 16 17  1  0  0  0  0
 16 18  1  0  0  0  0
 17 32  1  0  0  0  0
 17 33  1  0  0  0  0
 17 34  1  0  0  0  0
 18 35  1  0  0  0  0
 18 36  1  0  0  0  0
 18 37  1  0  0  0  0
M  END
> <s_m_source_file>
AV-unprocessed.smi

> <i_m_source_file_index>
3315

> <i_lp_mmshare_version>
43012

> <i_f3d_flags>
0

> <s_epik_input>
W0NIM11PW0NAQF0xKFtDSDNdKVtDSDJdW0NASF0oQzEoW0NIM10pW0NIM10pW05IXUMoPU8pW05IXWMyW2NIXVtjSF1vbjI=

> <s_epik_cmdline>
J2VwaWtfcHl0aG9uJywgJy1waCcsICc3LjAnLCAnLXRuJywgJzgnLCAnLW1hJywgJzIwMCcsICctbWV0YWxfYmluZGluZycsICctaW1hZScsICc8aW5maWxlLm1hZT4nLCAnLW9tYWUnLCAnPG91dGZpbGUubWFlPic=

> <r_lp_tautomer_probability>
1

> <r_epik_Ionization_Penalty>
2.28875e-05

> <r_epik_Ionization_Penalty_Charging>
0

> <r_epik_Ionization_Penalty_Neutral>
2.28875e-05

> <r_epik_State_Penalty>
-0

> <r_epik_Charging_Adjusted_Penalty>
0

> <i_epik_Tot_Q>
0

> <i_epik_Tot_abs_Q>
0

> <r_epik_Metal_State_Penalty>
-0

> <b_epik_Metal_Only>
0

> <s_lp_Force_Field>
OPLS_2005

> <r_lp_Energy>
21.6117

> <b_lp_Chiralities_Consistent>
1

> <s_lp_Variant>
AV-unprocessed.smi:3315-4

> <Gold.Version>
5.8.1

> <Gold.Id.Protein>
6NUR|6NUR_protein|mol2

> <Gold.PLP.Fitness>
36.3258

> <Gold.PLP.PLP>
-27.9516

> <Gold.PLP.part.hbond>
-3.6014

> <Gold.PLP.part.metal>
0.0000

> <Gold.PLP.part.buried>
-3.3273

> <Gold.PLP.part.nonpolar>
-21.1945

> <Gold.PLP.part.repulsive>
0.2582

> <Gold.PLP.ligand.clash>
0.0000

> <Gold.PLP.ligand.torsion>
0.2632

> <Gold.PLP.Chemscore.Hbond>
2.8432

> <Gold.PLP.Chemscore.CHOScore>
0.0000

> <Gold.PLP.Chemscore.Metal>
0.0000

> <Gold.Chemscore.Hbonds>
donor molecule, donor type, donor heavy atom, donor atom, acceptor molecule, acceptor atom, score
      L1  H     7    28       P1  7948  1.00
      L1  H    10    29       P1  7948  0.55
      P1  H  7989  7998       L1     2  1.00

> <Gold.PLP.Chemscore.Internal.Correction>
0.3709

> <Gold.Rescore>
     Score         DG    S(hbond)    S(metal)    S(lipo)     H(rot)  DE(clash)    DE(int)     intcor
     14.62     -16.24       2.46        0.00      50.14       1.30       0.04       1.58       ----

> <Gold.Chemscore.Fitness>
14.6181

> <Gold.Chemscore.DG>
-16.2405

> <Gold.Chemscore.ZeroCoef>
-5.4800

> <Gold.Chemscore.Hbond>
2.4645

> <Gold.Chemscore.Metal>
0.0000

> <Gold.Chemscore.Lipo>
50.1439

> <Gold.Chemscore.Internal_Hbond>
0.0000

> <Gold.Chemscore.DEClash>
0.0396

> <Gold.Chemscore.DEInternal>
1.5828

> <Gold.Chemscore.Rot>
1.3038

> <Gold.Chemscore.Internal.Correction>
   9.000000E+99

> <Gold.Chemscore.Hbonds>
donor molecule, donor type, donor heavy atom, donor atom, acceptor molecule, acceptor atom, score
      L1  H     7    28       P1  7948  0.34
      L1  H    10    29       P1  7948  0.03
      P1  H  7989  7998       L1     2  0.71

> <Gold.Chemscore.Hbond.Weighted>
-8.2314

> <Gold.Chemscore.Metal.Weighted>
-0.0000

> <Gold.Chemscore.Lipo.Weighted>
-5.8668

> <Gold.Chemscore.Internal_Hbond.Weighted>
0.0000

> <Gold.Chemscore.DEClash.Weighted>
0.0396

> <Gold.Chemscore.DEInternal.Weighted>
1.5828

> <Gold.Chemscore.Rot.Weighted>
3.3377

> <Gold.Chemscore.Internal.Correction.Weighted>
   9.000000E+99

> <Gold.Protein.RotatedTorsions>
[ 6907 6896 6895 6894 ] final  -86.64 input  -60.11 | X-H torsion
[ 7974 7965 7964 7962 ] final  131.77 input  175.53 | X-H torsion
[ 8008 7997 7996 7995 ] final -119.34 input   59.86 | X-H torsion
[ 10167 10162 10161 10158 ] final  147.03 input  -65.29 | X-H torsion
[ 10718 10713 10712 10709 ] final  111.41 input   66.30 | X-H torsion
[ 10763 10752 10751 10750 ] final  126.03 input  -60.55 | X-H torsion
[ 11005 11000 10999 10996 ] final   91.91 input  -57.11 | X-H torsion

> <Gold.Protein.ActiveResidues>
 VAL166  LYS551  ARG553  GLY616  TRP617  ASP618  TYR619  PRO620  LYS621  CYS622 
 ASP623  PHE694  ASN695  SER759  ASP760  ASP761  ALA762  ILE779  LEU786  VAL792 
 PHE793  MET794  SER795  GLU796  ALA797  LYS798  CYS799  TRP800  GLU811  SER814 

> <Gold.Protein.RotatedAtoms>
  150.6866  134.3020  159.4709 H   0  0  0  0  0  0  0  0  0  0  0  0  # atno 6907 bound_to 6896
  152.0915  134.9401  160.0581 H   0  0  0  0  0  0  0  0  0  0  0  0  # atno 6908 bound_to 6896
  152.0716  133.4074  159.4498 H   0  0  0  0  0  0  0  0  0  0  0  0  # atno 6909 bound_to 6896
  145.0038  139.4286  143.5279 H   0  0  0  0  0  0  0  0  0  0  0  0  # atno 7974 bound_to 7965
  155.1142  140.0397  157.2732 H   0  0  0  0  0  0  0  0  0  0  0  0  # atno 8008 bound_to 7997
  154.6662  140.2602  155.7030 H   0  0  0  0  0  0  0  0  0  0  0  0  # atno 8009 bound_to 7997
  156.2640  140.2807  156.1154 H   0  0  0  0  0  0  0  0  0  0  0  0  # atno 8010 bound_to 7997
  139.4897  144.5785  151.6917 H   0  0  0  0  0  0  0  0  0  0  0  0  # atno 10167 bound_to 10162
  157.6446  131.0950  150.6745 H   0  0  0  0  0  0  0  0  0  0  0  0  # atno 10718 bound_to 10713
  153.6867  135.3305  155.3192 H   0  0  0  0  0  0  0  0  0  0  0  0  # atno 10763 bound_to 10752
  154.8451  135.4422  154.1550 H   0  0  0  0  0  0  0  0  0  0  0  0  # atno 10764 bound_to 10752
  153.2581  135.6988  153.7685 H   0  0  0  0  0  0  0  0  0  0  0  0  # atno 10765 bound_to 10752
  139.8831  134.8702  156.3496 H   0  0  0  0  0  0  0  0  0  0  0  0  # atno 11005 bound_to 11000
  146.3457  139.9442  142.8737 LP  0  0  0  0  0  0  0  0  0  0  0  0  # atno 17320 bound_to 7965
  145.2117  140.9898  143.4097 LP  0  0  0  0  0  0  0  0  0  0  0  0  # atno 17321 bound_to 7965
  140.5387  144.0615  150.6080 LP  0  0  0  0  0  0  0  0  0  0  0  0  # atno 17342 bound_to 10162
  140.3629  143.2898  152.0363 LP  0  0  0  0  0  0  0  0  0  0  0  0  # atno 17343 bound_to 10162
  156.7064  130.4638  149.5559 LP  0  0  0  0  0  0  0  0  0  0  0  0  # atno 17370 bound_to 10713
  156.1760  130.6468  151.0894 LP  0  0  0  0  0  0  0  0  0  0  0  0  # atno 17371 bound_to 10713
  140.9603  133.7393  156.0392 LP  0  0  0  0  0  0  0  0  0  0  0  0  # atno 17394 bound_to 11000
  140.7998  134.3522  157.5442 LP  0  0  0  0  0  0  0  0  0  0  0  0  # atno 17395 bound_to 11000

$$$$
