AV-unprocessed.smi:844|AV-procd|sdf|3923|dock3
  -GOLD-   22720 1383D 1   1.00000     0.00000
 Structure written by MMmdl.
 32 34  0  0  0  0  0  0  0  0  1 V2000
  154.9449  140.1372  159.3506 O   0  0  0  0  0  0  0  0  0  0  0  0
  153.8939  140.3285  160.2760 C   0  0  2  0  0  0  0  0  0  0  0  0
  152.8672  139.1968  160.0753 C   0  0  0  0  0  0  0  0  0  0  0  0
  153.4476  137.8851  160.2980 N   0  0  0  0  0  0  0  0  0  0  0  0
  153.6226  136.9078  159.3875 C   0  0  0  0  0  0  0  0  0  0  0  0
  154.1666  135.7708  159.8115 N   0  0  0  0  0  0  0  0  0  0  0  0
  154.3721  136.0427  161.1533 C   0  0  0  0  0  0  0  0  0  0  0  0
  154.9235  135.2407  162.1782 C   0  0  0  0  0  0  0  0  0  0  0  0
  155.0336  135.7383  163.4935 C   0  0  0  0  0  0  0  0  0  0  0  0
  154.5951  137.0421  163.8042 C   0  0  0  0  0  0  0  0  0  0  0  0
  154.0423  137.8598  162.7999 C   0  0  0  0  0  0  0  0  0  0  0  0
  153.9345  137.3594  161.4891 C   0  0  0  0  0  0  0  0  0  0  0  0
  153.2602  141.7102  160.1536 C   0  0  0  0  0  0  0  0  0  0  0  0
  152.7897  142.1689  158.9028 C   0  0  0  0  0  0  0  0  0  0  0  0
  152.1866  143.4363  158.7895 C   0  0  0  0  0  0  0  0  0  0  0  0
  152.0467  144.2536  159.9269 C   0  0  0  0  0  0  0  0  0  0  0  0
  151.4656  145.4717  159.8184 F   0  0  0  0  0  0  0  0  0  0  0  0
  152.5091  143.8017  161.1775 C   0  0  0  0  0  0  0  0  0  0  0  0
  153.1129  142.5344  161.2931 C   0  0  0  0  0  0  0  0  0  0  0  0
  153.5416  142.1115  162.5069 F   0  0  0  0  0  0  0  0  0  0  0  0
  155.7560  140.0632  159.8301 H   0  0  0  0  0  0  0  0  0  0  0  0
  154.3432  140.2281  161.2644 H   0  0  0  0  0  0  0  0  0  0  0  0
  152.0132  139.3243  160.7424 H   0  0  0  0  0  0  0  0  0  0  0  0
  152.4747  139.2187  159.0577 H   0  0  0  0  0  0  0  0  0  0  0  0
  153.3259  137.0356  158.3567 H   0  0  0  0  0  0  0  0  0  0  0  0
  155.2623  134.2407  161.9517 H   0  0  0  0  0  0  0  0  0  0  0  0
  155.4566  135.1162  164.2687 H   0  0  0  0  0  0  0  0  0  0  0  0
  154.6837  137.4143  164.8145 H   0  0  0  0  0  0  0  0  0  0  0  0
  153.7047  138.8585  163.0336 H   0  0  0  0  0  0  0  0  0  0  0  0
  152.8851  141.5474  158.0244 H   0  0  0  0  0  0  0  0  0  0  0  0
  151.8294  143.7801  157.8298 H   0  0  0  0  0  0  0  0  0  0  0  0
  152.3979  144.4273  162.0509 H   0  0  0  0  0  0  0  0  0  0  0  0
  1  2  1  0  0  0  0
  1 21  1  0  0  0  0
  2  3  1  0  0  0  0
  2 13  1  0  0  0  0
  2 22  1  0  0  0  0
  3  4  1  0  0  0  0
  3 23  1  0  0  0  0
  3 24  1  0  0  0  0
  4 12  1  0  0  0  0
  4  5  1  0  0  0  0
  5  6  2  0  0  0  0
  5 25  1  0  0  0  0
  6  7  1  0  0  0  0
  7 12  2  0  0  0  0
  7  8  1  0  0  0  0
  8  9  2  0  0  0  0
  8 26  1  0  0  0  0
  9 10  1  0  0  0  0
  9 27  1  0  0  0  0
 10 11  2  0  0  0  0
 10 28  1  0  0  0  0
 11 12  1  0  0  0  0
 11 29  1  0  0  0  0
 13 19  1  0  0  0  0
 13 14  2  0  0  0  0
 14 15  1  0  0  0  0
 14 30  1  0  0  0  0
 15 16  2  0  0  0  0
 15 31  1  0  0  0  0
 16 17  1  0  0  0  0
 16 18  1  0  0  0  0
 18 19  2  0  0  0  0
 18 32  1  0  0  0  0
 19 20  1  0  0  0  0
M  END
> <s_m_source_file>
AV-unprocessed.smi

> <i_m_source_file_index>
844

> <i_lp_mmshare_version>
43012

> <i_f3d_flags>
0

> <s_epik_input>
RmMxW2NIXWMoRilbY0hdW2NIXWMxW0NASF0oW09IXSlbQ0gyXW4oW2NIXW4yKWMoYzIzKVtjSF1bY0hdW2NIXVtjSF0z

> <s_epik_cmdline>
J2VwaWtfcHl0aG9uJywgJy1waCcsICc3LjAnLCAnLXRuJywgJzgnLCAnLW1hJywgJzIwMCcsICctbWV0YWxfYmluZGluZycsICctaW1hZScsICc8aW5maWxlLm1hZT4nLCAnLW9tYWUnLCAnPG91dGZpbGUubWFlPic=

> <r_epik_Ionization_Penalty>
0.0696514

> <r_epik_Ionization_Penalty_Charging>
0

> <r_epik_Ionization_Penalty_Neutral>
0.0696514

> <r_epik_State_Penalty>
0.0610247

> <r_epik_Charging_Adjusted_Penalty>
0.0610247

> <i_epik_Tot_Q>
0

> <i_epik_Tot_abs_Q>
0

> <r_epik_Metal_State_Penalty>
6.42746e-05

> <b_epik_Metal_Only>
0

> <s_lp_Force_Field>
OPLS_2005

> <r_lp_Energy>
12.41

> <b_lp_Chiralities_Consistent>
1

> <s_lp_Variant>
AV-unprocessed.smi:844-1

> <Gold.Version>
5.8.1

> <Gold.Id.Protein>
6NUR|6NUR_protein|mol2

> <Gold.PLP.Fitness>
54.8699

> <Gold.PLP.PLP>
-49.2607

> <Gold.PLP.part.hbond>
-2.0000

> <Gold.PLP.part.metal>
0.0000

> <Gold.PLP.part.buried>
-5.1306

> <Gold.PLP.part.nonpolar>
-42.4677

> <Gold.PLP.part.repulsive>
0.0000

> <Gold.PLP.ligand.clash>
0.0000

> <Gold.PLP.ligand.torsion>
0.1763

> <Gold.PLP.Chemscore.Hbond>
1.9833

> <Gold.PLP.Chemscore.CHOScore>
0.0000

> <Gold.PLP.Chemscore.Metal>
0.0000

> <Gold.Chemscore.Hbonds>
donor molecule, donor type, donor heavy atom, donor atom, acceptor molecule, acceptor atom, score
      P1  H  6896  6907       L1     6  0.89
      P1  H  7997  8009       L1     1  0.98

> <Gold.PLP.Chemscore.Internal.Correction>
0.0120

> <Gold.Rescore>
     Score         DG    S(hbond)    S(metal)    S(lipo)     H(rot)  DE(clash)    DE(int)     intcor
     18.50     -18.75       1.07        0.00     126.66       2.00       0.07       0.18       ----

> <Gold.Chemscore.Fitness>
18.4968

> <Gold.Chemscore.DG>
-18.7462

> <Gold.Chemscore.ZeroCoef>
-5.4800

> <Gold.Chemscore.Hbond>
1.0709

> <Gold.Chemscore.Metal>
0.0000

> <Gold.Chemscore.Lipo>
126.6627

> <Gold.Chemscore.Internal_Hbond>
0.0000

> <Gold.Chemscore.DEClash>
0.0692

> <Gold.Chemscore.DEInternal>
0.1801

> <Gold.Chemscore.Rot>
2.0040

> <Gold.Chemscore.Internal.Correction>
   9.000000E+99

> <Gold.Chemscore.Hbonds>
donor molecule, donor type, donor heavy atom, donor atom, acceptor molecule, acceptor atom, score
      P1  H  6896  6907       L1     6  0.10
      P1  H  7997  8009       L1     1  0.73

> <Gold.Chemscore.Hbond.Weighted>
-3.5770

> <Gold.Chemscore.Metal.Weighted>
-0.0000

> <Gold.Chemscore.Lipo.Weighted>
-14.8195

> <Gold.Chemscore.Internal_Hbond.Weighted>
0.0000

> <Gold.Chemscore.DEClash.Weighted>
0.0692

> <Gold.Chemscore.DEInternal.Weighted>
0.1801

> <Gold.Chemscore.Rot.Weighted>
5.1303

> <Gold.Chemscore.Internal.Correction.Weighted>
   9.000000E+99

> <Gold.Protein.RotatedTorsions>
[ 6907 6896 6895 6894 ] final   74.16 input  -60.11 | X-H torsion
[ 7974 7965 7964 7962 ] final   55.59 input  175.53 | X-H torsion
[ 8008 7997 7996 7995 ] final  112.04 input   59.86 | X-H torsion
[ 10167 10162 10161 10158 ] final   40.33 input  -65.29 | X-H torsion
[ 10718 10713 10712 10709 ] final  -59.41 input   66.30 | X-H torsion
[ 10763 10752 10751 10750 ] final  144.49 input  -60.55 | X-H torsion
[ 11005 11000 10999 10996 ] final   39.86 input  -57.11 | X-H torsion

> <Gold.Protein.ActiveResidues>
 VAL166  LYS551  ARG553  GLY616  TRP617  ASP618  TYR619  PRO620  LYS621  CYS622 
 ASP623  PHE694  ASN695  SER759  ASP760  ASP761  ALA762  ILE779  LEU786  VAL792 
 PHE793  MET794  SER795  GLU796  ALA797  LYS798  CYS799  TRP800  GLU811  SER814 

> <Gold.Protein.RotatedAtoms>
  152.4961  134.4313  159.9512 H   0  0  0  0  0  0  0  0  0  0  0  0  # atno 6907 bound_to 6896
  151.4291  133.3669  159.2774 H   0  0  0  0  0  0  0  0  0  0  0  0  # atno 6908 bound_to 6896
  150.9167  134.8608  159.7521 H   0  0  0  0  0  0  0  0  0  0  0  0  # atno 6909 bound_to 6896
  145.9488  139.3954  143.0318 H   0  0  0  0  0  0  0  0  0  0  0  0  # atno 7974 bound_to 7965
  156.2165  140.3007  155.9852 H   0  0  0  0  0  0  0  0  0  0  0  0  # atno 8008 bound_to 7997
  155.2591  140.0429  157.3012 H   0  0  0  0  0  0  0  0  0  0  0  0  # atno 8009 bound_to 7997
  154.5776  140.2366  155.8109 H   0  0  0  0  0  0  0  0  0  0  0  0  # atno 8010 bound_to 7997
  140.3753  144.2052  150.6132 H   0  0  0  0  0  0  0  0  0  0  0  0  # atno 10167 bound_to 10162
  156.1064  130.4180  150.0711 H   0  0  0  0  0  0  0  0  0  0  0  0  # atno 10718 bound_to 10713
  153.9897  135.2933  155.3413 H   0  0  0  0  0  0  0  0  0  0  0  0  # atno 10763 bound_to 10752
  154.7222  135.5104  153.8832 H   0  0  0  0  0  0  0  0  0  0  0  0  # atno 10764 bound_to 10752
  153.0815  135.6680  154.0151 H   0  0  0  0  0  0  0  0  0  0  0  0  # atno 10765 bound_to 10752
  140.1986  134.3898  155.8108 H   0  0  0  0  0  0  0  0  0  0  0  0  # atno 11005 bound_to 11000
  145.8199  140.9684  143.0904 LP  0  0  0  0  0  0  0  0  0  0  0  0  # atno 17320 bound_to 7965
  144.6792  140.0028  143.7484 LP  0  0  0  0  0  0  0  0  0  0  0  0  # atno 17321 bound_to 7965
  140.4993  143.2323  151.8703 LP  0  0  0  0  0  0  0  0  0  0  0  0  # atno 17342 bound_to 10162
  139.4800  144.5078  151.8974 LP  0  0  0  0  0  0  0  0  0  0  0  0  # atno 17343 bound_to 10162
  156.8686  130.9516  151.3611 LP  0  0  0  0  0  0  0  0  0  0  0  0  # atno 17370 bound_to 10713
  157.6241  130.8677  149.9158 LP  0  0  0  0  0  0  0  0  0  0  0  0  # atno 17371 bound_to 10713
  141.2227  133.7082  156.8219 LP  0  0  0  0  0  0  0  0  0  0  0  0  # atno 17394 bound_to 11000
  140.2079  134.8849  157.3242 LP  0  0  0  0  0  0  0  0  0  0  0  0  # atno 17395 bound_to 11000

$$$$
