AV-unprocessed.smi:1643|AV-procd|sdf|6583|dock2
  -GOLD-   22720 7273D 1   1.00000     0.00000
 Structure written by MMmdl.
 54 56  0  0  0  0  0  0  0  0  2 V2000
  150.2696  135.0472  155.3312 C   0  0  0  0  0  0  0  0  0  0  0  0
  150.5137  136.5076  154.9428 C   0  0  0  0  0  0  0  0  0  0  0  0
  151.3277  136.7450  154.0498 O   0  0  0  0  0  0  0  0  0  0  0  0
  149.8363  137.4840  155.5932 N   0  0  0  0  0  0  0  0  0  0  0  0
  148.8320  137.1876  156.6210 C   0  0  0  0  0  0  0  0  0  0  0  0
  147.4372  137.0585  155.9875 C   0  0  0  0  0  0  0  0  0  0  0  0
  146.9914  138.2802  155.1565 C   0  0  0  0  0  0  0  0  0  0  0  0
  147.7662  138.4714  153.9226 N   0  0  0  0  0  0  0  0  0  0  0  0
  146.9574  139.0119  152.8287 C   0  0  0  0  0  0  0  0  0  0  0  0
  146.0388  137.9866  152.1325 C   0  0  1  0  0  0  0  0  0  0  0  0
  146.4951  137.8294  150.8043 O   0  0  0  0  0  0  0  0  0  0  0  0
  146.0414  136.6187  152.8465 C   0  0  0  0  0  0  0  0  0  0  0  0
  145.1680  135.6331  152.1949 N   0  0  0  0  0  0  0  0  0  0  0  0
  144.0021  135.8224  151.5200 C   0  0  0  0  0  0  0  0  0  0  0  0
  143.5645  134.6017  151.1048 N   0  3  0  0  0  0  0  0  0  0  0  0
  144.4643  133.6182  151.5205 C   0  0  0  0  0  0  0  0  0  0  0  0
  144.4524  132.2401  151.3408 C   0  0  0  0  0  0  0  0  0  0  0  0
  145.5290  131.5087  151.8914 C   0  0  0  0  0  0  0  0  0  0  0  0
  145.5470  129.9999  151.7134 C   0  0  0  0  0  0  0  0  0  0  0  0
  146.5734  132.1643  152.5936 C   0  0  0  0  0  0  0  0  0  0  0  0
  147.7292  131.3691  153.1765 C   0  0  0  0  0  0  0  0  0  0  0  0
  146.5662  133.5668  152.7665 C   0  0  0  0  0  0  0  0  0  0  0  0
  145.4971  134.2728  152.2200 C   0  0  0  0  0  0  0  0  0  0  0  0
  148.9487  139.3197  154.1343 C   0  0  0  0  0  0  0  0  0  0  0  0
  149.9211  138.9116  155.2641 C   0  0  0  0  0  0  0  0  0  0  0  0
  150.4853  134.8826  156.3868 H   0  0  0  0  0  0  0  0  0  0  0  0
  150.9161  134.3847  154.7544 H   0  0  0  0  0  0  0  0  0  0  0  0
  149.2373  134.7603  155.1307 H   0  0  0  0  0  0  0  0  0  0  0  0
  149.0791  136.2711  157.1592 H   0  0  0  0  0  0  0  0  0  0  0  0
  148.8189  137.9647  157.3860 H   0  0  0  0  0  0  0  0  0  0  0  0
  147.4028  136.1678  155.3589 H   0  0  0  0  0  0  0  0  0  0  0  0
  146.7106  136.8890  156.7824 H   0  0  0  0  0  0  0  0  0  0  0  0
  145.9400  138.1259  154.9220 H   0  0  0  0  0  0  0  0  0  0  0  0
  147.0136  139.1865  155.7636 H   0  0  0  0  0  0  0  0  0  0  0  0
  146.3654  139.8504  153.1993 H   0  0  0  0  0  0  0  0  0  0  0  0
  147.6163  139.4291  152.0653 H   0  0  0  0  0  0  0  0  0  0  0  0
  145.0171  138.3590  152.0722 H   0  0  0  0  0  0  0  0  0  0  0  0
  145.7695  137.9813  150.2180 H   0  0  0  0  0  0  0  0  0  0  0  0
  147.0501  136.2131  152.9289 H   0  0  0  0  0  0  0  0  0  0  0  0
  145.6762  136.7311  153.8682 H   0  0  0  0  0  0  0  0  0  0  0  0
  143.5123  136.7699  151.3473 H   0  0  0  0  0  0  0  0  0  0  0  0
  143.6553  131.7485  150.8025 H   0  0  0  0  0  0  0  0  0  0  0  0
  146.4207  129.6935  151.1375 H   0  0  0  0  0  0  0  0  0  0  0  0
  144.6593  129.6494  151.1856 H   0  0  0  0  0  0  0  0  0  0  0  0
  145.5768  129.4996  152.6816 H   0  0  0  0  0  0  0  0  0  0  0  0
  148.4584  132.0212  153.6584 H   0  0  0  0  0  0  0  0  0  0  0  0
  148.2463  130.8137  152.3935 H   0  0  0  0  0  0  0  0  0  0  0  0
  147.3690  130.6621  153.9239 H   0  0  0  0  0  0  0  0  0  0  0  0
  147.3644  134.0656  153.2960 H   0  0  0  0  0  0  0  0  0  0  0  0
  149.5195  139.3399  153.2053 H   0  0  0  0  0  0  0  0  0  0  0  0
  148.6367  140.3516  154.3027 H   0  0  0  0  0  0  0  0  0  0  0  0
  149.6883  139.5061  156.1482 H   0  0  0  0  0  0  0  0  0  0  0  0
  150.9393  139.2071  155.0105 H   0  0  0  0  0  0  0  0  0  0  0  0
  142.7135  134.4538  150.5778 H   0  0  0  0  0  0  0  0  0  0  0  0
  1  2  1  0  0  0  0
  1 26  1  0  0  0  0
  1 27  1  0  0  0  0
  1 28  1  0  0  0  0
  2  3  2  0  0  0  0
  2  4  1  0  0  0  0
  4 25  1  0  0  0  0
  4  5  1  0  0  0  0
  5  6  1  0  0  0  0
  5 29  1  0  0  0  0
  5 30  1  0  0  0  0
  6  7  1  0  0  0  0
  6 31  1  0  0  0  0
  6 32  1  0  0  0  0
  7  8  1  0  0  0  0
  7 33  1  0  0  0  0
  7 34  1  0  0  0  0
  8  9  1  0  0  0  0
  8 24  1  0  0  0  0
  9 10  1  0  0  0  0
  9 35  1  0  0  0  0
  9 36  1  0  0  0  0
 10 11  1  0  0  0  0
 10 12  1  0  0  0  0
 10 37  1  0  0  0  0
 11 38  1  0  0  0  0
 12 13  1  0  0  0  0
 12 39  1  0  0  0  0
 12 40  1  0  0  0  0
 13 23  1  0  0  0  0
 13 14  1  0  0  0  0
 14 15  2  0  0  0  0
 14 41  1  0  0  0  0
 15 16  1  0  0  0  0
 15 54  1  0  0  0  0
 16 23  2  0  0  0  0
 16 17  1  0  0  0  0
 17 18  2  0  0  0  0
 17 42  1  0  0  0  0
 18 19  1  0  0  0  0
 18 20  1  0  0  0  0
 19 43  1  0  0  0  0
 19 44  1  0  0  0  0
 19 45  1  0  0  0  0
 20 21  1  0  0  0  0
 20 22  2  0  0  0  0
 21 46  1  0  0  0  0
 21 47  1  0  0  0  0
 21 48  1  0  0  0  0
 22 23  1  0  0  0  0
 22 49  1  0  0  0  0
 24 25  1  0  0  0  0
 24 50  1  0  0  0  0
 24 51  1  0  0  0  0
 25 52  1  0  0  0  0
 25 53  1  0  0  0  0
M  CHG  1  15   1
M  END
> <s_m_source_file>
AV-unprocessed.smi

> <i_m_source_file_index>
1643

> <i_lp_mmshare_version>
43012

> <i_f3d_flags>
0

> <s_epik_input>
W0NIM11DKD1PKU4xW0NIMl1bQ0gyXVtDSDJdTihbQ0gyXVtDSDJdMSlbQ0gyXVtDQEhdKFtPSF0pW0NIMl1uKFtjSF1uMiljKGMyMylbY0hdYyhbQ0gzXSljKFtjSF0zKVtDSDNd

> <s_epik_cmdline>
J2VwaWtfcHl0aG9uJywgJy1waCcsICc3LjAnLCAnLXRuJywgJzgnLCAnLW1hJywgJzIwMCcsICctbWV0YWxfYmluZGluZycsICctaW1hZScsICc8aW5maWxlLm1hZT4nLCAnLW9tYWUnLCAnPG91dGZpbGUubWFlPic=

> <r_epik_Ionization_Penalty>
2.25269

> <r_epik_Ionization_Penalty_Charging>
1.20735

> <r_epik_Ionization_Penalty_Neutral>
1.04533

> <r_epik_State_Penalty>
2.37869

> <r_epik_Charging_Adjusted_Penalty>
3.58604

> <i_epik_Tot_Q>
1

> <i_epik_Tot_abs_Q>
1

> <r_epik_Metal_State_Penalty>
6.40045

> <b_epik_Metal_Only>
0

> <s_lp_Force_Field>
OPLS_2005

> <r_lp_Energy>
51.5531

> <b_lp_Chiralities_Consistent>
1

> <s_lp_Variant>
AV-unprocessed.smi:1643-12

> <Gold.Version>
5.8.1

> <Gold.Id.Protein>
6NUR|6NUR_protein|mol2

> <Gold.PLP.Fitness>
51.2316

> <Gold.PLP.PLP>
-35.8319

> <Gold.PLP.part.hbond>
-4.9010

> <Gold.PLP.part.metal>
0.0000

> <Gold.PLP.part.buried>
-5.1467

> <Gold.PLP.part.nonpolar>
-29.2062

> <Gold.PLP.part.repulsive>
2.3807

> <Gold.PLP.ligand.clash>
0.0058

> <Gold.PLP.ligand.torsion>
1.2993

> <Gold.PLP.Chemscore.Hbond>
4.9750

> <Gold.PLP.Chemscore.CHOScore>
1.0000

> <Gold.PLP.Chemscore.Metal>
0.0000

> <Gold.Chemscore.Hbonds>
donor molecule, donor type, donor heavy atom, donor atom, acceptor molecule, acceptor atom, score
      L1  H    11    38       P1 10171  1.00
      L1  H    15    54       P1 10186  2.00
      P1  H  7954  7966       L1    11  1.00
      P1  H 10752 10765       L1     3  1.00
      L1  C    14    41       P1 10171  1.00

> <Gold.PLP.Chemscore.Internal.Correction>
0.0792

> <Gold.Rescore>
     Score         DG    S(hbond)    S(metal)    S(lipo)     H(rot)  DE(clash)    DE(int)     intcor
     18.36     -20.89       3.22        0.00      86.18       2.12       1.13       1.40       ----

> <Gold.Chemscore.Fitness>
18.3615

> <Gold.Chemscore.DG>
-20.8881

> <Gold.Chemscore.ZeroCoef>
-5.4800

> <Gold.Chemscore.Hbond>
3.2209

> <Gold.Chemscore.Metal>
0.0000

> <Gold.Chemscore.Lipo>
86.1755

> <Gold.Chemscore.Internal_Hbond>
0.0000

> <Gold.Chemscore.DEClash>
1.1258

> <Gold.Chemscore.DEInternal>
1.4008

> <Gold.Chemscore.Rot>
2.1220

> <Gold.Chemscore.Internal.Correction>
   9.000000E+99

> <Gold.Chemscore.Hbonds>
donor molecule, donor type, donor heavy atom, donor atom, acceptor molecule, acceptor atom, score
      L1  H    11    38       P1 10171  0.92
      L1  H    15    54       P1 10186  0.44
      P1  H  7954  7966       L1    11  0.77
      P1  H 10752 10765       L1     3  0.73

> <Gold.Chemscore.Hbond.Weighted>
-10.7578

> <Gold.Chemscore.Metal.Weighted>
-0.0000

> <Gold.Chemscore.Lipo.Weighted>
-10.0825

> <Gold.Chemscore.Internal_Hbond.Weighted>
0.0000

> <Gold.Chemscore.DEClash.Weighted>
1.1258

> <Gold.Chemscore.DEInternal.Weighted>
1.4008

> <Gold.Chemscore.Rot.Weighted>
5.4322

> <Gold.Chemscore.Internal.Correction.Weighted>
   9.000000E+99

> <Gold.Protein.RotatedTorsions>
[ 6907 6896 6895 6894 ] final  -64.91 input  -60.11 | X-H torsion
[ 7974 7965 7964 7962 ] final  -97.05 input  175.53 | X-H torsion
[ 8008 7997 7996 7995 ] final -179.16 input   59.86 | X-H torsion
[ 10167 10162 10161 10158 ] final  -41.37 input  -65.29 | X-H torsion
[ 10718 10713 10712 10709 ] final  114.61 input   66.30 | X-H torsion
[ 10763 10752 10751 10750 ] final  164.28 input  -60.55 | X-H torsion
[ 11005 11000 10999 10996 ] final -118.56 input  -57.11 | X-H torsion

> <Gold.Protein.ActiveResidues>
 VAL166  LYS551  ARG553  GLY616  TRP617  ASP618  TYR619  PRO620  LYS621  CYS622 
 ASP623  PHE694  ASN695  SER759  ASP760  ASP761  ALA762  ILE779  LEU786  VAL792 
 PHE793  MET794  SER795  GLU796  ALA797  LYS798  CYS799  TRP800  GLU811  SER814 

> <Gold.Protein.RotatedAtoms>
  150.7556  134.6233  159.6147 H   0  0  0  0  0  0  0  0  0  0  0  0  # atno 6907 bound_to 6896
  152.3532  134.6973  160.0239 H   0  0  0  0  0  0  0  0  0  0  0  0  # atno 6908 bound_to 6896
  151.7387  133.3285  159.3396 H   0  0  0  0  0  0  0  0  0  0  0  0  # atno 6909 bound_to 6896
  145.3388  140.9456  143.2619 H   0  0  0  0  0  0  0  0  0  0  0  0  # atno 7974 bound_to 7965
  156.0273  140.1274  157.0295 H   0  0  0  0  0  0  0  0  0  0  0  0  # atno 8008 bound_to 7997
  154.4335  140.1056  156.6119 H   0  0  0  0  0  0  0  0  0  0  0  0  # atno 8009 bound_to 7997
  155.5858  140.3468  155.4555 H   0  0  0  0  0  0  0  0  0  0  0  0  # atno 8010 bound_to 7997
  140.7005  143.3098  151.3057 H   0  0  0  0  0  0  0  0  0  0  0  0  # atno 10167 bound_to 10162
  157.6271  131.1001  150.7211 H   0  0  0  0  0  0  0  0  0  0  0  0  # atno 10718 bound_to 10713
  154.3065  135.2758  155.2586 H   0  0  0  0  0  0  0  0  0  0  0  0  # atno 10763 bound_to 10752
  154.5000  135.5810  153.6527 H   0  0  0  0  0  0  0  0  0  0  0  0  # atno 10764 bound_to 10752
  152.9893  135.6155  154.3239 H   0  0  0  0  0  0  0  0  0  0  0  0  # atno 10765 bound_to 10752
  141.0277  134.0029  157.3190 H   0  0  0  0  0  0  0  0  0  0  0  0  # atno 11005 bound_to 11000
  144.8806  139.4909  143.6724 LP  0  0  0  0  0  0  0  0  0  0  0  0  # atno 17320 bound_to 7965
  146.3016  139.7444  142.9087 LP  0  0  0  0  0  0  0  0  0  0  0  0  # atno 17321 bound_to 7965
  139.6517  144.0349  152.2631 LP  0  0  0  0  0  0  0  0  0  0  0  0  # atno 17342 bound_to 10162
  139.9888  144.6376  150.7833 LP  0  0  0  0  0  0  0  0  0  0  0  0  # atno 17343 bound_to 10162
  156.7557  130.4783  149.5447 LP  0  0  0  0  0  0  0  0  0  0  0  0  # atno 17370 bound_to 10713
  156.1450  130.6270  151.0519 LP  0  0  0  0  0  0  0  0  0  0  0  0  # atno 17371 bound_to 10713
  139.9187  135.0199  156.7981 LP  0  0  0  0  0  0  0  0  0  0  0  0  # atno 17394 bound_to 11000
  140.6462  133.9773  155.7732 LP  0  0  0  0  0  0  0  0  0  0  0  0  # atno 17395 bound_to 11000

$$$$
