AV-unprocessed.smi:54|AV-procd|sdf|538|dock4
  -GOLD-   2262016423D 1   1.00000     0.00000
 Structure written by MMmdl.
 44 46  0  0  0  0  0  0  0  0  1 V2000
  146.5173  142.5050  153.8316 C   0  0  0  0  0  0  0  0  0  0  0  0
  146.9544  141.3394  154.7333 C   0  0  0  0  0  0  0  0  0  0  0  0
  148.4856  141.2054  154.7672 C   0  0  0  0  0  0  0  0  0  0  0  0
  146.3064  140.0292  154.2712 C   0  0  0  0  0  0  0  0  0  0  0  0
  146.7056  139.4181  153.2792 O   0  0  0  0  0  0  0  0  0  0  0  0
  145.1910  139.5678  155.0792 N   0  0  0  0  0  0  0  0  0  0  0  0
  144.4446  138.4549  154.8903 C   0  0  0  0  0  0  0  0  0  0  0  0
  144.6885  137.5724  153.9321 N   0  0  0  0  0  0  0  0  0  0  0  0
  143.8227  136.5150  153.8963 C   0  0  0  0  0  0  0  0  0  0  0  0
  142.7666  136.2892  154.7539 C   0  0  0  0  0  0  0  0  0  0  0  0
  142.1245  135.1029  154.4188 N   0  0  0  0  0  0  0  0  0  0  0  0
  142.7969  134.6570  153.3942 C   0  0  0  0  0  0  0  0  0  0  0  0
  143.8311  135.4725  152.9933 N   0  0  0  0  0  0  0  0  0  0  0  0
  144.8287  135.2833  151.8882 C   0  0  1  0  0  0  0  0  0  0  0  0
  145.4874  134.0711  152.0802 O   0  0  0  0  0  0  0  0  0  0  0  0
  144.7611  133.0364  151.4301 C   0  0  2  0  0  0  0  0  0  0  0  0
  145.6725  131.8216  151.2025 C   0  0  0  0  0  0  0  0  0  0  0  0
  146.8253  132.2101  150.4871 O   0  0  0  0  0  0  0  0  0  0  0  0
  144.3107  133.7160  150.1319 C   0  0  1  0  0  0  0  0  0  0  0  0
  143.0927  133.1514  149.6882 O   0  0  0  0  0  0  0  0  0  0  0  0
  144.1177  135.1818  150.5249 C   0  0  2  0  0  0  0  0  0  0  0  0
  144.7130  136.0365  149.5698 O   0  0  0  0  0  0  0  0  0  0  0  0
  142.4949  137.2294  155.8029 C   0  0  0  0  0  0  0  0  0  0  0  0
  141.6049  137.1904  156.6499 O   0  0  0  0  0  0  0  0  0  0  0  0
  143.3971  138.3013  155.7987 N   0  0  0  0  0  0  0  0  0  0  0  0
  145.5041  136.1338  151.9920 H   0  0  0  0  0  0  0  0  0  0  0  0
  143.8894  132.7637  152.0286 H   0  0  0  0  0  0  0  0  0  0  0  0
  145.0774  133.6130  149.3620 H   0  0  0  0  0  0  0  0  0  0  0  0
  143.0626  135.4412  150.6264 H   0  0  0  0  0  0  0  0  0  0  0  0
  145.4315  142.6062  153.8123 H   0  0  0  0  0  0  0  0  0  0  0  0
  146.8575  142.3672  152.8044 H   0  0  0  0  0  0  0  0  0  0  0  0
  146.9268  143.4495  154.1907 H   0  0  0  0  0  0  0  0  0  0  0  0
  146.6127  141.5500  155.7477 H   0  0  0  0  0  0  0  0  0  0  0  0
  148.7976  140.3761  155.4032 H   0  0  0  0  0  0  0  0  0  0  0  0
  148.9474  142.1110  155.1615 H   0  0  0  0  0  0  0  0  0  0  0  0
  148.8955  141.0338  153.7710 H   0  0  0  0  0  0  0  0  0  0  0  0
  144.9319  140.1611  155.8534 H   0  0  0  0  0  0  0  0  0  0  0  0
  142.5503  133.7234  152.9093 H   0  0  0  0  0  0  0  0  0  0  0  0
  146.0024  131.4173  152.1597 H   0  0  0  0  0  0  0  0  0  0  0  0
  145.1479  131.0234  150.6765 H   0  0  0  0  0  0  0  0  0  0  0  0
  147.4109  131.4701  150.4358 H   0  0  0  0  0  0  0  0  0  0  0  0
  142.4637  133.8470  149.5712 H   0  0  0  0  0  0  0  0  0  0  0  0
  144.9040  135.5329  148.7935 H   0  0  0  0  0  0  0  0  0  0  0  0
  143.2634  139.0051  156.5095 H   0  0  0  0  0  0  0  0  0  0  0  0
  1  2  1  0  0  0  0
  1 30  1  0  0  0  0
  1 31  1  0  0  0  0
  1 32  1  0  0  0  0
  2  3  1  0  0  0  0
  2  4  1  0  0  0  0
  2 33  1  0  0  0  0
  3 34  1  0  0  0  0
  3 35  1  0  0  0  0
  3 36  1  0  0  0  0
  4  5  2  0  0  0  0
  4  6  1  0  0  0  0
  6 37  1  0  0  0  0
  6  7  1  0  0  0  0
  7 25  1  0  0  0  0
  7  8  2  0  0  0  0
  8  9  1  0  0  0  0
  9 13  1  0  0  0  0
  9 10  2  0  0  0  0
 10 11  1  0  0  0  0
 10 23  1  0  0  0  0
 11 12  2  0  0  0  0
 12 13  1  0  0  0  0
 12 38  1  0  0  0  0
 13 14  1  0  0  0  0
 14 26  1  0  0  0  0
 14 21  1  0  0  0  0
 14 15  1  0  0  0  0
 15 16  1  0  0  0  0
 16 27  1  0  0  0  0
 16 17  1  0  0  0  0
 16 19  1  0  0  0  0
 17 18  1  0  0  0  0
 17 39  1  0  0  0  0
 17 40  1  0  0  0  0
 18 41  1  0  0  0  0
 19 28  1  0  0  0  0
 19 20  1  0  0  0  0
 19 21  1  0  0  0  0
 20 42  1  0  0  0  0
 21 29  1  0  0  0  0
 21 22  1  0  0  0  0
 22 43  1  0  0  0  0
 23 24  2  0  0  0  0
 23 25  1  0  0  0  0
 25 44  1  0  0  0  0
M  END
> <s_m_source_file>
AV-unprocessed.smi

> <i_m_source_file_index>
54

> <i_lp_mmshare_version>
43012

> <i_f3d_flags>
0

> <s_epik_input>
W0NIM11bQ0hdKFtDSDNdKUMoPU8pW05IXWMobjEpW25IXWMoPU8pYyhjMTIpbltjSF1uMltDQEBIXTNPW0NASF0oW0NIMl1bT0hdKVtDQEBIXShbT0hdKVtDQEhdM1tPSF0=

> <s_epik_cmdline>
J2VwaWtfcHl0aG9uJywgJy1waCcsICc3LjAnLCAnLXRuJywgJzgnLCAnLW1hJywgJzIwMCcsICctbWV0YWxfYmluZGluZycsICctaW1hZScsICc8aW5maWxlLm1hZT4nLCAnLW9tYWUnLCAnPG91dGZpbGUubWFlPic=

> <r_lp_tautomer_probability>
0.85571

> <r_epik_Ionization_Penalty>
0.0316551

> <r_epik_Ionization_Penalty_Charging>
0.0316043

> <r_epik_Ionization_Penalty_Neutral>
5.07097e-05

> <r_epik_State_Penalty>
3.15494e-07

> <r_epik_Charging_Adjusted_Penalty>
0.0316047

> <i_epik_Tot_Q>
0

> <i_epik_Tot_abs_Q>
0

> <r_epik_Metal_State_Penalty>
0.421206

> <b_epik_Metal_Only>
0

> <s_epik_Chemistry_Notes>
This compound contains an acetal/aminal-like group ( X-CH(R)-Y where X, Y are N, S, or O) that may be acid/base labile, releasing an aldehyde.

> <s_lp_Force_Field>
OPLS_2005

> <r_lp_Energy>
36.3126

> <b_lp_Chiralities_Consistent>
1

> <s_lp_Variant>
AV-unprocessed.smi:54-10

> <Gold.Version>
5.8.1

> <Gold.Id.Protein>
6NUR|6NUR_protein|mol2

> <Gold.PLP.Fitness>
42.0844

> <Gold.PLP.PLP>
-31.9081

> <Gold.PLP.part.hbond>
-5.5308

> <Gold.PLP.part.metal>
0.0000

> <Gold.PLP.part.buried>
-7.7150

> <Gold.PLP.part.nonpolar>
-20.7777

> <Gold.PLP.part.repulsive>
0.5351

> <Gold.PLP.ligand.clash>
0.0000

> <Gold.PLP.ligand.torsion>
0.3764

> <Gold.PLP.Chemscore.Hbond>
3.2132

> <Gold.PLP.Chemscore.CHOScore>
0.4000

> <Gold.PLP.Chemscore.Metal>
0.0000

> <Gold.Chemscore.Hbonds>
donor molecule, donor type, donor heavy atom, donor atom, acceptor molecule, acceptor atom, score
      L1  H    18    41       P1 10747  0.99
      L1  H    20    42       P1 10186  1.00
      L1  H    22    43       P1  7921  0.99
      P1  H 11000 11005       L1    11  0.22
      L1  C    12    38       P1 10957  0.33

> <Gold.PLP.Chemscore.Internal.Correction>
0.0895

> <Gold.Rescore>
     Score         DG    S(hbond)    S(metal)    S(lipo)     H(rot)  DE(clash)    DE(int)     intcor
     10.57     -12.09       3.44        0.00      46.84       4.05       0.05       1.47       ----

> <Gold.Chemscore.Fitness>
10.5722

> <Gold.Chemscore.DG>
-12.0856

> <Gold.Chemscore.ZeroCoef>
-5.4800

> <Gold.Chemscore.Hbond>
3.4407

> <Gold.Chemscore.Metal>
0.0000

> <Gold.Chemscore.Lipo>
46.8354

> <Gold.Chemscore.Internal_Hbond>
0.0000

> <Gold.Chemscore.DEClash>
0.0451

> <Gold.Chemscore.DEInternal>
1.4683

> <Gold.Chemscore.Rot>
4.0493

> <Gold.Chemscore.Internal.Correction>
   9.000000E+99

> <Gold.Chemscore.Hbonds>
donor molecule, donor type, donor heavy atom, donor atom, acceptor molecule, acceptor atom, score
      L1  H    18    41       P1 10747  0.94
      L1  H    20    42       P1 10186  0.94
      L1  H    22    43       P1  7921  0.94
      P1  H 11000 11005       L1    11  0.23

> <Gold.Chemscore.Hbond.Weighted>
-11.4921

> <Gold.Chemscore.Metal.Weighted>
-0.0000

> <Gold.Chemscore.Lipo.Weighted>
-5.4797

> <Gold.Chemscore.Internal_Hbond.Weighted>
0.0000

> <Gold.Chemscore.DEClash.Weighted>
0.0451

> <Gold.Chemscore.DEInternal.Weighted>
1.4683

> <Gold.Chemscore.Rot.Weighted>
10.3662

> <Gold.Chemscore.Internal.Correction.Weighted>
   9.000000E+99

> <Gold.Protein.RotatedTorsions>
[ 6907 6896 6895 6894 ] final -149.54 input  -60.11 | X-H torsion
[ 7974 7965 7964 7962 ] final  -84.91 input  175.53 | X-H torsion
[ 8008 7997 7996 7995 ] final  117.96 input   59.86 | X-H torsion
[ 10167 10162 10161 10158 ] final -134.08 input  -65.29 | X-H torsion
[ 10718 10713 10712 10709 ] final -158.78 input   66.30 | X-H torsion
[ 10763 10752 10751 10750 ] final   25.47 input  -60.55 | X-H torsion
[ 11005 11000 10999 10996 ] final   -6.85 input  -57.11 | X-H torsion

> <Gold.Protein.ActiveResidues>
 VAL166  LYS551  ARG553  GLY616  TRP617  ASP618  TYR619  PRO620  LYS621  CYS622 
 ASP623  PHE694  ASN695  SER759  ASP760  ASP761  ALA762  ILE779  LEU786  VAL792 
 PHE793  MET794  SER795  GLU796  ALA797  LYS798  CYS799  TRP800  GLU811  SER814 

> <Gold.Protein.RotatedAtoms>
  151.1856  133.4698  159.2594 H   0  0  0  0  0  0  0  0  0  0  0  0  # atno 6907 bound_to 6896
  151.1215  135.0082  159.8551 H   0  0  0  0  0  0  0  0  0  0  0  0  # atno 6908 bound_to 6896
  152.5456  134.1767  159.8672 H   0  0  0  0  0  0  0  0  0  0  0  0  # atno 6909 bound_to 6896
  145.5003  140.9547  143.1763 H   0  0  0  0  0  0  0  0  0  0  0  0  # atno 7974 bound_to 7965
  156.2521  140.2885  156.0759 H   0  0  0  0  0  0  0  0  0  0  0  0  # atno 8008 bound_to 7997
  155.1619  140.0400  157.2862 H   0  0  0  0  0  0  0  0  0  0  0  0  # atno 8009 bound_to 7997
  154.6386  140.2517  155.7355 H   0  0  0  0  0  0  0  0  0  0  0  0  # atno 8010 bound_to 7997
  139.8917  143.6714  152.2611 H   0  0  0  0  0  0  0  0  0  0  0  0  # atno 10167 bound_to 10162
  156.5590  130.8638  151.2803 H   0  0  0  0  0  0  0  0  0  0  0  0  # atno 10718 bound_to 10713
  153.0690  135.6582  154.0290 H   0  0  0  0  0  0  0  0  0  0  0  0  # atno 10763 bound_to 10752
  153.9940  135.2943  155.3410 H   0  0  0  0  0  0  0  0  0  0  0  0  # atno 10764 bound_to 10752
  154.7058  135.5226  153.8662 H   0  0  0  0  0  0  0  0  0  0  0  0  # atno 10765 bound_to 10752
  140.7064  133.8946  155.8719 H   0  0  0  0  0  0  0  0  0  0  0  0  # atno 11005 bound_to 11000
  144.7784  139.6580  143.7165 LP  0  0  0  0  0  0  0  0  0  0  0  0  # atno 17320 bound_to 7965
  146.2230  139.5671  142.9606 LP  0  0  0  0  0  0  0  0  0  0  0  0  # atno 17321 bound_to 7965
  139.7103  144.7621  151.1123 LP  0  0  0  0  0  0  0  0  0  0  0  0  # atno 17342 bound_to 10162
  140.7725  143.5339  150.9391 LP  0  0  0  0  0  0  0  0  0  0  0  0  # atno 17343 bound_to 10162
  157.7372  130.9792  150.2182 LP  0  0  0  0  0  0  0  0  0  0  0  0  # atno 17370 bound_to 10713
  156.2816  130.3734  149.7929 LP  0  0  0  0  0  0  0  0  0  0  0  0  # atno 17371 bound_to 10713
  141.0121  134.1006  157.4210 LP  0  0  0  0  0  0  0  0  0  0  0  0  # atno 17394 bound_to 11000
  139.8883  135.0096  156.6612 LP  0  0  0  0  0  0  0  0  0  0  0  0  # atno 17395 bound_to 11000

$$$$
