AV-unprocessed.smi:1285|AV-procd|sdf|5372|dock4
  -GOLD-   22720 4513D 1   1.00000     0.00000
 Structure written by MMmdl.
 47 48  0  0  0  0  0  0  0  0  2 V2000
  147.0496  132.2450  155.7658 C   0  0  0  0  0  0  0  0  0  0  0  0
  146.4748  133.3935  154.9174 C   0  0  0  0  0  0  0  0  0  0  0  0
  147.5280  134.3053  154.2146 C   0  0  2  0  0  0  0  0  0  0  0  0
  148.3845  133.3916  153.2976 C   0  0  0  0  0  0  0  0  0  0  0  0
  148.4402  134.9623  155.2983 C   0  0  0  0  0  0  0  0  0  0  0  0
  149.2706  136.0423  154.7705 N   0  0  0  0  0  0  0  0  0  0  0  0
  149.6752  137.1288  155.4473 C   0  0  0  0  0  0  0  0  0  0  0  0
  149.4548  137.2976  156.6470 O   0  0  0  0  0  0  0  0  0  0  0  0
  150.4050  138.1970  154.6194 C   0  0  2  0  0  0  0  0  0  0  0  0
  151.8505  138.4444  155.0917 C   0  0  0  0  0  0  0  0  0  0  0  0
  149.6256  139.4282  154.6214 N   0  0  0  0  0  0  0  0  0  0  0  0
  148.3664  139.6681  154.2449 C   0  0  0  0  0  0  0  0  0  0  0  0
  148.0132  140.9428  154.3317 N   0  0  0  0  0  0  0  0  0  0  0  0
  149.1830  141.4725  154.7976 C   0  0  0  0  0  0  0  0  0  0  0  0
  150.1837  140.6106  154.9775 N   0  0  0  0  0  0  0  0  0  0  0  0
  146.8364  135.3618  153.3890 N   0  3  0  0  0  0  0  0  0  0  0  0
  146.0588  134.8670  152.2177 C   0  0  0  0  0  0  0  0  0  0  0  0
  145.5851  136.0444  151.3505 C   0  0  0  0  0  0  0  0  0  0  0  0
  144.7927  136.9236  152.1357 O   0  0  0  0  0  0  0  0  0  0  0  0
  145.5335  137.4761  153.2146 C   0  0  0  0  0  0  0  0  0  0  0  0
  146.0180  136.3516  154.1456 C   0  0  0  0  0  0  0  0  0  0  0  0
  146.2434  131.6628  156.2124 H   0  0  0  0  0  0  0  0  0  0  0  0
  147.6690  132.6149  156.5826 H   0  0  0  0  0  0  0  0  0  0  0  0
  147.6515  131.5594  155.1695 H   0  0  0  0  0  0  0  0  0  0  0  0
  145.7802  132.9792  154.1873 H   0  0  0  0  0  0  0  0  0  0  0  0
  145.8465  133.9984  155.5725 H   0  0  0  0  0  0  0  0  0  0  0  0
  148.6966  132.4814  153.8103 H   0  0  0  0  0  0  0  0  0  0  0  0
  149.2985  133.8852  152.9667 H   0  0  0  0  0  0  0  0  0  0  0  0
  147.8366  133.0827  152.4070 H   0  0  0  0  0  0  0  0  0  0  0  0
  147.8510  135.3252  156.1408 H   0  0  0  0  0  0  0  0  0  0  0  0
  149.1312  134.2292  155.7129 H   0  0  0  0  0  0  0  0  0  0  0  0
  149.5046  135.9927  153.7891 H   0  0  0  0  0  0  0  0  0  0  0  0
  150.4561  137.8327  153.5916 H   0  0  0  0  0  0  0  0  0  0  0  0
  152.4404  137.5278  155.0497 H   0  0  0  0  0  0  0  0  0  0  0  0
  151.8878  138.8165  156.1164 H   0  0  0  0  0  0  0  0  0  0  0  0
  152.3461  139.1791  154.4566 H   0  0  0  0  0  0  0  0  0  0  0  0
  147.6991  138.8974  153.8880 H   0  0  0  0  0  0  0  0  0  0  0  0
  149.3032  142.5264  155.0022 H   0  0  0  0  0  0  0  0  0  0  0  0
  146.6539  134.2060  151.5911 H   0  0  0  0  0  0  0  0  0  0  0  0
  145.1897  134.2996  152.5515 H   0  0  0  0  0  0  0  0  0  0  0  0
  146.4337  136.5794  150.9209 H   0  0  0  0  0  0  0  0  0  0  0  0
  144.9842  135.6793  150.5175 H   0  0  0  0  0  0  0  0  0  0  0  0
  146.3755  138.0572  152.8347 H   0  0  0  0  0  0  0  0  0  0  0  0
  144.8936  138.1671  153.7635 H   0  0  0  0  0  0  0  0  0  0  0  0
  145.1575  135.8614  154.6011 H   0  0  0  0  0  0  0  0  0  0  0  0
  146.5862  136.8155  154.9494 H   0  0  0  0  0  0  0  0  0  0  0  0
  147.5928  135.9015  152.9928 H   0  0  0  0  0  0  0  0  0  0  0  0
  1  2  1  0  0  0  0
  1 22  1  0  0  0  0
  1 23  1  0  0  0  0
  1 24  1  0  0  0  0
  2  3  1  0  0  0  0
  2 25  1  0  0  0  0
  2 26  1  0  0  0  0
  3  4  1  0  0  0  0
  3  5  1  0  0  0  0
  3 16  1  0  0  0  0
  4 27  1  0  0  0  0
  4 28  1  0  0  0  0
  4 29  1  0  0  0  0
  5  6  1  0  0  0  0
  5 30  1  0  0  0  0
  5 31  1  0  0  0  0
  6  7  1  0  0  0  0
  6 32  1  0  0  0  0
  7  8  2  0  0  0  0
  7  9  1  0  0  0  0
  9 10  1  0  0  0  0
  9 11  1  0  0  0  0
  9 33  1  0  0  0  0
 10 34  1  0  0  0  0
 10 35  1  0  0  0  0
 10 36  1  0  0  0  0
 11 15  1  0  0  0  0
 11 12  1  0  0  0  0
 12 13  2  0  0  0  0
 12 37  1  0  0  0  0
 13 14  1  0  0  0  0
 14 15  2  0  0  0  0
 14 38  1  0  0  0  0
 16 21  1  0  0  0  0
 16 17  1  0  0  0  0
 16 47  1  0  0  0  0
 17 18  1  0  0  0  0
 17 39  1  0  0  0  0
 17 40  1  0  0  0  0
 18 19  1  0  0  0  0
 18 41  1  0  0  0  0
 18 42  1  0  0  0  0
 19 20  1  0  0  0  0
 20 21  1  0  0  0  0
 20 43  1  0  0  0  0
 20 44  1  0  0  0  0
 21 45  1  0  0  0  0
 21 46  1  0  0  0  0
M  CHG  1  16   1
M  END
> <s_m_source_file>
AV-unprocessed.smi

> <i_m_source_file_index>
1285

> <i_lp_mmshare_version>
43012

> <i_f3d_flags>
0

> <s_epik_input>
W0NIMl0xW0NIMl1PW0NIMl1bQ0gyXU4xW0NAQF0oW0NIM10pKFtDSDJdW0NIM10pW0NIMl1bTkhdQyg9TylbQ0BIXShbQ0gzXSluMltjSF1uW2NIXW4y

> <s_epik_cmdline>
J2VwaWtfcHl0aG9uJywgJy1waCcsICc3LjAnLCAnLXRuJywgJzgnLCAnLW1hJywgJzIwMCcsICctbWV0YWxfYmluZGluZycsICctaW1hZScsICc8aW5maWxlLm1hZT4nLCAnLW9tYWUnLCAnPG91dGZpbGUubWFlPic=

> <r_lp_tautomer_probability>
1

> <r_epik_Ionization_Penalty>
0.569304

> <r_epik_Ionization_Penalty_Charging>
0.569295

> <r_epik_Ionization_Penalty_Neutral>
8.22697e-06

> <r_epik_State_Penalty>
0.581114

> <r_epik_Charging_Adjusted_Penalty>
1.15041

> <i_epik_Tot_Q>
1

> <i_epik_Tot_abs_Q>
1

> <r_epik_Metal_State_Penalty>
0.581117

> <b_epik_Metal_Only>
0

> <s_lp_Force_Field>
OPLS_2005

> <r_lp_Energy>
32.2271

> <b_lp_Chiralities_Consistent>
1

> <s_lp_Variant>
AV-unprocessed.smi:1285-6

> <Gold.Version>
5.8.1

> <Gold.Id.Protein>
6NUR|6NUR_protein|mol2

> <Gold.PLP.Fitness>
44.4833

> <Gold.PLP.PLP>
-30.0648

> <Gold.PLP.part.hbond>
-3.0000

> <Gold.PLP.part.metal>
0.0000

> <Gold.PLP.part.buried>
-3.0717

> <Gold.PLP.part.nonpolar>
-24.0755

> <Gold.PLP.part.repulsive>
0.4562

> <Gold.PLP.ligand.clash>
0.0000

> <Gold.PLP.ligand.torsion>
0.4208

> <Gold.PLP.Chemscore.Hbond>
3.9500

> <Gold.PLP.Chemscore.CHOScore>
1.0000

> <Gold.PLP.Chemscore.Metal>
0.0000

> <Gold.Chemscore.Hbonds>
donor molecule, donor type, donor heavy atom, donor atom, acceptor molecule, acceptor atom, score
      L1  H     6    32       P1  7948  1.00
      L1  H    16    47       P1  7948  2.00
      P1  H  7989  7998       L1    15  0.80
      L1  C    14    38       P1  8028  1.00

> <Gold.PLP.Chemscore.Internal.Correction>
0.4101

> <Gold.Rescore>
     Score         DG    S(hbond)    S(metal)    S(lipo)     H(rot)  DE(clash)    DE(int)     intcor
     11.63     -12.33       2.57        0.00      45.37       2.76       0.00       0.69       ----

> <Gold.Chemscore.Fitness>
11.6302

> <Gold.Chemscore.DG>
-12.3257

> <Gold.Chemscore.ZeroCoef>
-5.4800

> <Gold.Chemscore.Hbond>
2.5748

> <Gold.Chemscore.Metal>
0.0000

> <Gold.Chemscore.Lipo>
45.3715

> <Gold.Chemscore.Internal_Hbond>
0.0000

> <Gold.Chemscore.DEClash>
0.0008

> <Gold.Chemscore.DEInternal>
0.6947

> <Gold.Chemscore.Rot>
2.7589

> <Gold.Chemscore.Internal.Correction>
   9.000000E+99

> <Gold.Chemscore.Hbonds>
donor molecule, donor type, donor heavy atom, donor atom, acceptor molecule, acceptor atom, score
      L1  H     6    32       P1  7948  0.51
      L1  H    16    47       P1  7948  0.98
      P1  H  7989  7998       L1    15  0.18

> <Gold.Chemscore.Hbond.Weighted>
-8.5999

> <Gold.Chemscore.Metal.Weighted>
-0.0000

> <Gold.Chemscore.Lipo.Weighted>
-5.3085

> <Gold.Chemscore.Internal_Hbond.Weighted>
0.0000

> <Gold.Chemscore.DEClash.Weighted>
0.0008

> <Gold.Chemscore.DEInternal.Weighted>
0.6947

> <Gold.Chemscore.Rot.Weighted>
7.0627

> <Gold.Chemscore.Internal.Correction.Weighted>
   9.000000E+99

> <Gold.Protein.RotatedTorsions>
[ 6907 6896 6895 6894 ] final   11.06 input  -60.11 | X-H torsion
[ 7974 7965 7964 7962 ] final -167.81 input  175.53 | X-H torsion
[ 8008 7997 7996 7995 ] final -133.31 input   59.86 | X-H torsion
[ 10167 10162 10161 10158 ] final  -79.67 input  -65.29 | X-H torsion
[ 10718 10713 10712 10709 ] final   93.59 input   66.30 | X-H torsion
[ 10763 10752 10751 10750 ] final  -93.71 input  -60.55 | X-H torsion
[ 11005 11000 10999 10996 ] final  174.11 input  -57.11 | X-H torsion

> <Gold.Protein.ActiveResidues>
 VAL166  LYS551  ARG553  GLY616  TRP617  ASP618  TYR619  PRO620  LYS621  CYS622 
 ASP623  PHE694  ASN695  SER759  ASP760  ASP761  ALA762  ILE779  LEU786  VAL792 
 PHE793  MET794  SER795  GLU796  ALA797  LYS798  CYS799  TRP800  GLU811  SER814 

> <Gold.Protein.RotatedAtoms>
  151.7482  135.0839  160.0326 H   0  0  0  0  0  0  0  0  0  0  0  0  # atno 6907 bound_to 6896
  152.3434  133.6089  159.5901 H   0  0  0  0  0  0  0  0  0  0  0  0  # atno 6908 bound_to 6896
  150.7494  133.9603  159.3555 H   0  0  0  0  0  0  0  0  0  0  0  0  # atno 6909 bound_to 6896
  144.7215  140.2463  143.6284 H   0  0  0  0  0  0  0  0  0  0  0  0  # atno 7974 bound_to 7965
  155.3434  140.0473  157.3045 H   0  0  0  0  0  0  0  0  0  0  0  0  # atno 8008 bound_to 7997
  154.5265  140.2243  155.8845 H   0  0  0  0  0  0  0  0  0  0  0  0  # atno 8009 bound_to 7997
  156.1745  140.3088  155.9040 H   0  0  0  0  0  0  0  0  0  0  0  0  # atno 8010 bound_to 7997
  140.4572  143.2464  151.8401 H   0  0  0  0  0  0  0  0  0  0  0  0  # atno 10167 bound_to 10162
  157.6953  131.0483  150.4057 H   0  0  0  0  0  0  0  0  0  0  0  0  # atno 10718 bound_to 10713
  154.6985  135.5184  153.8492 H   0  0  0  0  0  0  0  0  0  0  0  0  # atno 10763 bound_to 10752
  153.0685  135.6593  154.0308 H   0  0  0  0  0  0  0  0  0  0  0  0  # atno 10764 bound_to 10752
  154.0171  135.2997  155.3365 H   0  0  0  0  0  0  0  0  0  0  0  0  # atno 10765 bound_to 10752
  140.3477  134.7222  157.4246 H   0  0  0  0  0  0  0  0  0  0  0  0  # atno 11005 bound_to 11000
  145.8271  139.2069  143.1904 LP  0  0  0  0  0  0  0  0  0  0  0  0  # atno 17320 bound_to 7965
  146.0463  140.8114  142.9803 LP  0  0  0  0  0  0  0  0  0  0  0  0  # atno 17321 bound_to 7965
  139.4802  144.5050  151.9009 LP  0  0  0  0  0  0  0  0  0  0  0  0  # atno 17342 bound_to 10162
  140.4136  144.2336  150.5888 LP  0  0  0  0  0  0  0  0  0  0  0  0  # atno 17343 bound_to 10162
  156.4446  130.3998  149.6675 LP  0  0  0  0  0  0  0  0  0  0  0  0  # atno 17370 bound_to 10713
  156.3847  130.7596  151.2592 LP  0  0  0  0  0  0  0  0  0  0  0  0  # atno 17371 bound_to 10713
  140.0728  134.5838  155.8623 LP  0  0  0  0  0  0  0  0  0  0  0  0  # atno 17394 bound_to 11000
  141.2021  133.6623  156.5986 LP  0  0  0  0  0  0  0  0  0  0  0  0  # atno 17395 bound_to 11000

$$$$
