AV-unprocessed.smi:704|AV-procd|sdf|3443|dock2
  -GOLD-   22720 0433D 1   1.00000     0.00000
 Structure written by MMmdl.
 38 39  0  0  0  0  0  0  0  0  1 V2000
  152.0725  145.6260  159.4319 C   0  0  0  0  0  0  0  0  0  0  0  0
  151.7892  144.5144  158.5891 O   0  0  0  0  0  0  0  0  0  0  0  0
  152.2912  143.2757  158.9403 C   0  0  0  0  0  0  0  0  0  0  0  0
  153.2353  143.2141  159.9130 N   0  0  0  0  0  0  0  0  0  0  0  0
  153.7221  142.0053  160.2610 C   0  0  0  0  0  0  0  0  0  0  0  0
  153.2942  140.8030  159.6689 C   0  0  0  0  0  0  0  0  0  0  0  0
  152.3165  140.8641  158.6589 C   0  0  0  0  0  0  0  0  0  0  0  0
  151.8069  142.1270  158.2721 C   0  0  0  0  0  0  0  0  0  0  0  0
  150.8036  142.2954  157.2791 N   0  0  0  0  0  0  0  0  0  0  0  0
  149.8048  141.4575  156.9553 C   0  0  0  0  0  0  0  0  0  0  0  0
  149.6040  140.3564  157.4682 O   0  0  0  0  0  0  0  0  0  0  0  0
  149.0551  141.9584  155.9639 N   0  0  0  0  0  0  0  0  0  0  0  0
  147.9113  141.2797  155.3522 C   0  0  1  0  0  0  0  0  0  0  0  0
  147.4315  142.0240  154.0916 C   0  0  0  0  0  0  0  0  0  0  0  0
  147.1266  140.9567  153.0330 C   0  0  0  0  0  0  0  0  0  0  0  0
  147.1915  139.6118  153.7621 C   0  0  0  0  0  0  0  0  0  0  0  0
  148.1781  139.8118  154.9223 C   0  0  1  0  0  0  0  0  0  0  0  0
  149.6253  139.5103  154.4754 C   0  0  0  0  0  0  0  0  0  0  0  0
  149.8779  138.2727  154.0422 N   0  0  0  0  0  0  0  0  0  0  0  0
  150.5011  140.3725  154.5254 O   0  0  0  0  0  0  0  0  0  0  0  0
  151.6107  146.5213  159.0156 H   0  0  0  0  0  0  0  0  0  0  0  0
  153.1455  145.8102  159.5021 H   0  0  0  0  0  0  0  0  0  0  0  0
  151.6671  145.4809  160.4342 H   0  0  0  0  0  0  0  0  0  0  0  0
  154.4702  141.9955  161.0398 H   0  0  0  0  0  0  0  0  0  0  0  0
  153.7028  139.8549  159.9857 H   0  0  0  0  0  0  0  0  0  0  0  0
  151.9670  139.9455  158.2134 H   0  0  0  0  0  0  0  0  0  0  0  0
  150.9019  143.1169  156.7003 H   0  0  0  0  0  0  0  0  0  0  0  0
  149.2977  142.8653  155.5926 H   0  0  0  0  0  0  0  0  0  0  0  0
  147.0858  141.2766  156.0670 H   0  0  0  0  0  0  0  0  0  0  0  0
  146.5448  142.6178  154.3163 H   0  0  0  0  0  0  0  0  0  0  0  0
  148.1888  142.7118  153.7124 H   0  0  0  0  0  0  0  0  0  0  0  0
  146.1592  141.1139  152.5552 H   0  0  0  0  0  0  0  0  0  0  0  0
  147.8839  140.9904  152.2487 H   0  0  0  0  0  0  0  0  0  0  0  0
  146.2079  139.3691  154.1662 H   0  0  0  0  0  0  0  0  0  0  0  0
  147.4706  138.7970  153.0922 H   0  0  0  0  0  0  0  0  0  0  0  0
  147.9275  139.1372  155.7429 H   0  0  0  0  0  0  0  0  0  0  0  0
  150.8075  138.0254  153.7347 H   0  0  0  0  0  0  0  0  0  0  0  0
  149.1357  137.5885  154.0200 H   0  0  0  0  0  0  0  0  0  0  0  0
  1  2  1  0  0  0  0
  1 21  1  0  0  0  0
  1 22  1  0  0  0  0
  1 23  1  0  0  0  0
  2  3  1  0  0  0  0
  3  8  1  0  0  0  0
  3  4  2  0  0  0  0
  4  5  1  0  0  0  0
  5  6  2  0  0  0  0
  5 24  1  0  0  0  0
  6  7  1  0  0  0  0
  6 25  1  0  0  0  0
  7  8  2  0  0  0  0
  7 26  1  0  0  0  0
  8  9  1  0  0  0  0
  9 10  1  0  0  0  0
  9 27  1  0  0  0  0
 10 11  2  0  0  0  0
 10 12  1  0  0  0  0
 12 13  1  0  0  0  0
 12 28  1  0  0  0  0
 13 17  1  0  0  0  0
 13 14  1  0  0  0  0
 13 29  1  0  0  0  0
 14 15  1  0  0  0  0
 14 30  1  0  0  0  0
 14 31  1  0  0  0  0
 15 16  1  0  0  0  0
 15 32  1  0  0  0  0
 15 33  1  0  0  0  0
 16 17  1  0  0  0  0
 16 34  1  0  0  0  0
 16 35  1  0  0  0  0
 17 18  1  0  0  0  0
 17 36  1  0  0  0  0
 18 19  1  0  0  0  0
 18 20  2  0  0  0  0
 19 37  1  0  0  0  0
 19 38  1  0  0  0  0
M  END
> <s_m_source_file>
AV-unprocessed.smi

> <i_m_source_file_index>
704

> <i_lp_mmshare_version>
43012

> <i_f3d_flags>
0

> <s_epik_input>
W0NIM11PYzFuW2NIXVtjSF1bY0hdYzFbTkhdQyg9TylbTkhdW0NAQEhdMltDSDJdW0NIMl1bQ0gyXVtDQEhdMkMoPU8pW05IMl0=

> <s_epik_cmdline>
J2VwaWtfcHl0aG9uJywgJy1waCcsICc3LjAnLCAnLXRuJywgJzgnLCAnLW1hJywgJzIwMCcsICctbWV0YWxfYmluZGluZycsICctaW1hZScsICc8aW5maWxlLm1hZT4nLCAnLW9tYWUnLCAnPG91dGZpbGUubWFlPic=

> <r_lp_tautomer_probability>
1

> <r_epik_Ionization_Penalty>
9.09123e-05

> <r_epik_Ionization_Penalty_Charging>
0

> <r_epik_Ionization_Penalty_Neutral>
9.09123e-05

> <r_epik_State_Penalty>
-0

> <r_epik_Charging_Adjusted_Penalty>
0

> <i_epik_Tot_Q>
0

> <i_epik_Tot_abs_Q>
0

> <r_epik_Metal_State_Penalty>
-0

> <b_epik_Metal_Only>
0

> <s_lp_Force_Field>
OPLS_2005

> <r_lp_Energy>
16.4561

> <b_lp_Chiralities_Consistent>
1

> <s_lp_Variant>
AV-unprocessed.smi:704-2

> <Gold.Version>
5.8.1

> <Gold.Id.Protein>
6NUR|6NUR_protein|mol2

> <Gold.PLP.Fitness>
43.6936

> <Gold.PLP.PLP>
-38.5740

> <Gold.PLP.part.hbond>
-2.9540

> <Gold.PLP.part.metal>
0.0000

> <Gold.PLP.part.buried>
-7.1536

> <Gold.PLP.part.nonpolar>
-27.9721

> <Gold.PLP.part.repulsive>
0.3667

> <Gold.PLP.ligand.clash>
0.0000

> <Gold.PLP.ligand.torsion>
0.4537

> <Gold.PLP.Chemscore.Hbond>
2.0000

> <Gold.PLP.Chemscore.CHOScore>
0.0000

> <Gold.PLP.Chemscore.Metal>
0.0000

> <Gold.Chemscore.Hbonds>
donor molecule, donor type, donor heavy atom, donor atom, acceptor molecule, acceptor atom, score
      L1  H    12    28       P1  8028  0.90
      P1  H  7989  7998       L1    20  1.00

> <Gold.PLP.Chemscore.Internal.Correction>
0.0270

> <Gold.Rescore>
     Score         DG    S(hbond)    S(metal)    S(lipo)     H(rot)  DE(clash)    DE(int)     intcor
     10.79     -16.00       1.93        0.00      75.47       1.86       0.00       5.20       ----

> <Gold.Chemscore.Fitness>
10.7945

> <Gold.Chemscore.DG>
-15.9969

> <Gold.Chemscore.ZeroCoef>
-5.4800

> <Gold.Chemscore.Hbond>
1.9344

> <Gold.Chemscore.Metal>
0.0000

> <Gold.Chemscore.Lipo>
75.4701

> <Gold.Chemscore.Internal_Hbond>
0.0000

> <Gold.Chemscore.DEClash>
0.0000

> <Gold.Chemscore.DEInternal>
5.2024

> <Gold.Chemscore.Rot>
1.8648

> <Gold.Chemscore.Internal.Correction>
   9.000000E+99

> <Gold.Chemscore.Hbonds>
donor molecule, donor type, donor heavy atom, donor atom, acceptor molecule, acceptor atom, score
      L1  H    12    28       P1  8028  0.86
      P1  H  7989  7998       L1    20  0.96

> <Gold.Chemscore.Hbond.Weighted>
-6.4608

> <Gold.Chemscore.Metal.Weighted>
-0.0000

> <Gold.Chemscore.Lipo.Weighted>
-8.8300

> <Gold.Chemscore.Internal_Hbond.Weighted>
0.0000

> <Gold.Chemscore.DEClash.Weighted>
0.0000

> <Gold.Chemscore.DEInternal.Weighted>
5.2024

> <Gold.Chemscore.Rot.Weighted>
4.7739

> <Gold.Chemscore.Internal.Correction.Weighted>
   9.000000E+99

> <Gold.Protein.RotatedTorsions>
[ 6907 6896 6895 6894 ] final  155.25 input  -60.11 | X-H torsion
[ 7974 7965 7964 7962 ] final  -65.69 input  175.53 | X-H torsion
[ 8008 7997 7996 7995 ] final   54.14 input   59.86 | X-H torsion
[ 10167 10162 10161 10158 ] final  -50.32 input  -65.29 | X-H torsion
[ 10718 10713 10712 10709 ] final  103.29 input   66.30 | X-H torsion
[ 10763 10752 10751 10750 ] final  -80.75 input  -60.55 | X-H torsion
[ 11005 11000 10999 10996 ] final -174.13 input  -57.11 | X-H torsion

> <Gold.Protein.ActiveResidues>
 VAL166  LYS551  ARG553  GLY616  TRP617  ASP618  TYR619  PRO620  LYS621  CYS622 
 ASP623  PHE694  ASN695  SER759  ASP760  ASP761  ALA762  ILE779  LEU786  VAL792 
 PHE793  MET794  SER795  GLU796  ALA797  LYS798  CYS799  TRP800  GLU811  SER814 

> <Gold.Protein.RotatedAtoms>
  152.0469  133.4001  159.4360 H   0  0  0  0  0  0  0  0  0  0  0  0  # atno 6907 bound_to 6896
  150.6872  134.3352  159.4853 H   0  0  0  0  0  0  0  0  0  0  0  0  # atno 6908 bound_to 6896
  152.1157  134.9241  160.0615 H   0  0  0  0  0  0  0  0  0  0  0  0  # atno 6909 bound_to 6896
  145.7511  140.8908  143.0479 H   0  0  0  0  0  0  0  0  0  0  0  0  # atno 7974 bound_to 7965
  155.4798  140.3468  155.4338 H   0  0  0  0  0  0  0  0  0  0  0  0  # atno 8008 bound_to 7997
  156.1046  140.1444  156.9449 H   0  0  0  0  0  0  0  0  0  0  0  0  # atno 8009 bound_to 7997
  154.4716  140.0899  156.7137 H   0  0  0  0  0  0  0  0  0  0  0  0  # atno 8010 bound_to 7997
  140.6643  143.2662  151.4343 H   0  0  0  0  0  0  0  0  0  0  0  0  # atno 10167 bound_to 10162
  157.6777  131.0775  150.5532 H   0  0  0  0  0  0  0  0  0  0  0  0  # atno 10718 bound_to 10713
  154.5551  135.5650  153.6956 H   0  0  0  0  0  0  0  0  0  0  0  0  # atno 10763 bound_to 10752
  153.0001  135.6260  154.2321 H   0  0  0  0  0  0  0  0  0  0  0  0  # atno 10764 bound_to 10752
  154.2257  135.2868  155.2888 H   0  0  0  0  0  0  0  0  0  0  0  0  # atno 10765 bound_to 10752
  140.4780  134.6103  157.4908 H   0  0  0  0  0  0  0  0  0  0  0  0  # atno 11005 bound_to 11000
  144.6849  139.9593  143.7480 LP  0  0  0  0  0  0  0  0  0  0  0  0  # atno 17320 bound_to 7965
  146.0355  139.3374  143.0729 LP  0  0  0  0  0  0  0  0  0  0  0  0  # atno 17321 bound_to 7965
  139.5886  144.1548  152.2061 LP  0  0  0  0  0  0  0  0  0  0  0  0  # atno 17342 bound_to 10162
  140.0896  144.5632  150.7064 LP  0  0  0  0  0  0  0  0  0  0  0  0  # atno 17343 bound_to 10162
  156.5837  130.4311  149.5966 LP  0  0  0  0  0  0  0  0  0  0  0  0  # atno 17370 bound_to 10713
  156.2641  130.6979  151.1756 LP  0  0  0  0  0  0  0  0  0  0  0  0  # atno 17371 bound_to 10713
  139.9844  134.7085  155.9800 LP  0  0  0  0  0  0  0  0  0  0  0  0  # atno 17394 bound_to 11000
  141.1545  133.6544  156.4118 LP  0  0  0  0  0  0  0  0  0  0  0  0  # atno 17395 bound_to 11000

$$$$
