AV-unprocessed.smi:2243|AV-procd|sdf|9065|dock4
  -GOLD-   2272012273D 1   1.00000     0.00000
 Structure written by MMmdl.
 35 36  0  0  0  0  0  0  0  0  2 V2000
  147.1971  140.6091  155.1021 C   0  0  0  0  0  0  0  0  0  0  0  0
  148.4325  141.4431  155.4831 C   0  0  1  0  0  0  0  0  0  0  0  0
  148.0110  142.4589  156.4491 N   0  0  0  0  0  0  0  0  0  0  0  0
  147.3886  142.2267  157.6155 C   0  0  0  0  0  0  0  0  0  0  0  0
  147.0817  141.1049  158.0201 O   0  0  0  0  0  0  0  0  0  0  0  0
  147.1428  143.3671  158.2783 N   0  0  0  0  0  0  0  0  0  0  0  0
  146.5006  143.4690  159.5340 C   0  0  0  0  0  0  0  0  0  0  0  0
  145.5872  144.3920  159.8313 N   0  3  0  0  0  0  0  0  0  0  0  0
  145.1744  144.2022  161.1270 C   0  0  0  0  0  0  0  0  0  0  0  0
  145.8849  143.1211  161.5908 C   0  0  0  0  0  0  0  0  0  0  0  0
  146.7231  142.6491  160.6006 O   0  0  0  0  0  0  0  0  0  0  0  0
  149.5953  140.5911  156.0591 C   0  0  0  0  0  0  0  0  0  0  0  0
  150.6802  141.4513  156.7424 C   0  0  0  0  0  0  0  0  0  0  0  0
  151.8553  140.5889  157.2308 C   0  0  0  0  0  0  0  0  0  0  0  0
  152.4081  139.8591  156.1431 O   0  0  0  0  0  0  0  0  0  0  0  0
  151.4785  138.9525  155.5639 C   0  0  0  0  0  0  0  0  0  0  0  0
  150.2813  139.7232  154.9840 C   0  0  0  0  0  0  0  0  0  0  0  0
  147.4107  139.9191  154.2863 H   0  0  0  0  0  0  0  0  0  0  0  0
  146.3813  141.2501  154.7656 H   0  0  0  0  0  0  0  0  0  0  0  0
  146.8330  140.0259  155.9484 H   0  0  0  0  0  0  0  0  0  0  0  0
  148.7909  141.9261  154.5723 H   0  0  0  0  0  0  0  0  0  0  0  0
  148.2187  143.4166  156.2057 H   0  0  0  0  0  0  0  0  0  0  0  0
  145.2298  145.1267  159.2333 H   0  0  0  0  0  0  0  0  0  0  0  0
  144.4314  144.8422  161.5809 H   0  0  0  0  0  0  0  0  0  0  0  0
  145.9129  142.5951  162.5340 H   0  0  0  0  0  0  0  0  0  0  0  0
  149.1812  139.9208  156.8141 H   0  0  0  0  0  0  0  0  0  0  0  0
  151.0494  142.2018  156.0422 H   0  0  0  0  0  0  0  0  0  0  0  0
  150.2674  141.9952  157.5919 H   0  0  0  0  0  0  0  0  0  0  0  0
  152.6321  141.2232  157.6583 H   0  0  0  0  0  0  0  0  0  0  0  0
  151.5350  139.9044  158.0180 H   0  0  0  0  0  0  0  0  0  0  0  0
  151.9804  138.3939  154.7736 H   0  0  0  0  0  0  0  0  0  0  0  0
  151.1501  138.2249  156.3078 H   0  0  0  0  0  0  0  0  0  0  0  0
  149.5796  139.0067  154.5579 H   0  0  0  0  0  0  0  0  0  0  0  0
  150.6230  140.3539  154.1623 H   0  0  0  0  0  0  0  0  0  0  0  0
  147.4393  144.2319  157.8508 H   0  0  0  0  0  0  0  0  0  0  0  0
  1  2  1  0  0  0  0
  1 18  1  0  0  0  0
  1 19  1  0  0  0  0
  1 20  1  0  0  0  0
  2  3  1  0  0  0  0
  2 12  1  0  0  0  0
  2 21  1  0  0  0  0
  3 22  1  0  0  0  0
  3  4  1  0  0  0  0
  4  6  1  0  0  0  0
  4  5  2  0  0  0  0
  6  7  1  0  0  0  0
  6 35  1  0  0  0  0
  7 11  1  0  0  0  0
  7  8  2  0  0  0  0
  8 23  1  0  0  0  0
  8  9  1  0  0  0  0
  9 24  1  0  0  0  0
  9 10  2  0  0  0  0
 10 25  1  0  0  0  0
 10 11  1  0  0  0  0
 12 17  1  0  0  0  0
 12 13  1  0  0  0  0
 12 26  1  0  0  0  0
 13 14  1  0  0  0  0
 13 27  1  0  0  0  0
 13 28  1  0  0  0  0
 14 15  1  0  0  0  0
 14 29  1  0  0  0  0
 14 30  1  0  0  0  0
 15 16  1  0  0  0  0
 16 17  1  0  0  0  0
 16 31  1  0  0  0  0
 16 32  1  0  0  0  0
 17 33  1  0  0  0  0
 17 34  1  0  0  0  0
M  CHG  1   8   1
M  END
> <s_m_source_file>
AV-unprocessed.smi

> <i_m_source_file_index>
2243

> <i_lp_mmshare_version>
43012

> <i_f3d_flags>
0

> <s_epik_input>
W0NIMl0xW0NIMl1PW0NIMl1bQ0gyXVtDSF0xW0NASF0oW0NIM10pW05IXUMoPU8pW05IXWMybltjSF1bY0hdbzI=

> <s_epik_cmdline>
J2VwaWtfcHl0aG9uJywgJy1waCcsICc3LjAnLCAnLXRuJywgJzgnLCAnLW1hJywgJzIwMCcsICctbWV0YWxfYmluZGluZycsICctaW1hZScsICc8aW5maWxlLm1hZT4nLCAnLW9tYWUnLCAnPG91dGZpbGUubWFlPic=

> <r_epik_Ionization_Penalty>
6.61405

> <r_epik_Ionization_Penalty_Charging>
6.55981

> <r_epik_Ionization_Penalty_Neutral>
0.0542461

> <r_epik_State_Penalty>
1.79186

> <r_epik_Charging_Adjusted_Penalty>
8.35167

> <i_epik_Tot_Q>
1

> <i_epik_Tot_abs_Q>
1

> <r_epik_Metal_State_Penalty>
1.80655

> <b_epik_Metal_Only>
0

> <s_lp_Force_Field>
OPLS_2005

> <r_lp_Energy>
19.6033

> <b_lp_Chiralities_Consistent>
1

> <s_lp_Variant>
AV-unprocessed.smi:2243-4

> <Gold.Version>
5.8.1

> <Gold.Id.Protein>
6NUR|6NUR_protein|mol2

> <Gold.PLP.Fitness>
37.6018

> <Gold.PLP.PLP>
-24.9105

> <Gold.PLP.part.hbond>
-5.4772

> <Gold.PLP.part.metal>
0.0000

> <Gold.PLP.part.buried>
-1.9977

> <Gold.PLP.part.nonpolar>
-17.5265

> <Gold.PLP.part.repulsive>
0.1170

> <Gold.PLP.ligand.clash>
0.0000

> <Gold.PLP.ligand.torsion>
0.5535

> <Gold.PLP.Chemscore.Hbond>
4.5940

> <Gold.PLP.Chemscore.CHOScore>
0.0000

> <Gold.PLP.Chemscore.Metal>
0.0000

> <Gold.Chemscore.Hbonds>
donor molecule, donor type, donor heavy atom, donor atom, acceptor molecule, acceptor atom, score
      L1  H     3    22       P1  8028  1.00
      L1  H     6    35       P1  8029  0.80
      P1  H  6933  6944       L1    11  0.78
      P1  H  6934  6946       L1    11  0.94
      P1  H  7997  8010       L1    15  1.00

> <Gold.PLP.Chemscore.Internal.Correction>
0.0163

> <Gold.Rescore>
     Score         DG    S(hbond)    S(metal)    S(lipo)     H(rot)  DE(clash)    DE(int)     intcor
     17.84     -20.38       3.76        0.00      49.31       1.33       0.07       2.47       ----

> <Gold.Chemscore.Fitness>
17.8375

> <Gold.Chemscore.DG>
-20.3840

> <Gold.Chemscore.ZeroCoef>
-5.4800

> <Gold.Chemscore.Hbond>
3.7562

> <Gold.Chemscore.Metal>
0.0000

> <Gold.Chemscore.Lipo>
49.3056

> <Gold.Chemscore.Internal_Hbond>
0.0000

> <Gold.Chemscore.DEClash>
0.0746

> <Gold.Chemscore.DEInternal>
2.4719

> <Gold.Chemscore.Rot>
1.3321

> <Gold.Chemscore.Internal.Correction>
   9.000000E+99

> <Gold.Chemscore.Hbonds>
donor molecule, donor type, donor heavy atom, donor atom, acceptor molecule, acceptor atom, score
      L1  H     3    22       P1  8028  0.37
      L1  H     6    35       P1  8029  0.12
      P1  H  6933  6944       L1    11  0.46
      P1  H  6934  6946       L1    11  0.71
      P1  H  7997  8010       L1    15  0.39

> <Gold.Chemscore.Hbond.Weighted>
-12.5456

> <Gold.Chemscore.Metal.Weighted>
-0.0000

> <Gold.Chemscore.Lipo.Weighted>
-5.7688

> <Gold.Chemscore.Internal_Hbond.Weighted>
0.0000

> <Gold.Chemscore.DEClash.Weighted>
0.0746

> <Gold.Chemscore.DEInternal.Weighted>
2.4719

> <Gold.Chemscore.Rot.Weighted>
3.4103

> <Gold.Chemscore.Internal.Correction.Weighted>
   9.000000E+99

> <Gold.Protein.RotatedTorsions>
[ 6907 6896 6895 6894 ] final -102.37 input  -60.11 | X-H torsion
[ 7974 7965 7964 7962 ] final  -85.75 input  175.53 | X-H torsion
[ 8008 7997 7996 7995 ] final   76.66 input   59.86 | X-H torsion
[ 10167 10162 10161 10158 ] final   38.03 input  -65.29 | X-H torsion
[ 10718 10713 10712 10709 ] final   29.92 input   66.30 | X-H torsion
[ 10763 10752 10751 10750 ] final   29.37 input  -60.55 | X-H torsion
[ 11005 11000 10999 10996 ] final  -18.10 input  -57.11 | X-H torsion

> <Gold.Protein.ActiveResidues>
 VAL166  LYS551  ARG553  GLY616  TRP617  ASP618  TYR619  PRO620  LYS621  CYS622 
 ASP623  PHE694  ASN695  SER759  ASP760  ASP761  ALA762  ILE779  LEU786  VAL792 
 PHE793  MET794  SER795  GLU796  ALA797  LYS798  CYS799  TRP800  GLU811  SER814 

> <Gold.Protein.RotatedAtoms>
  150.7193  134.0592  159.3824 H   0  0  0  0  0  0  0  0  0  0  0  0  # atno 6907 bound_to 6896
  151.8571  135.0535  160.0474 H   0  0  0  0  0  0  0  0  0  0  0  0  # atno 6908 bound_to 6896
  152.2746  133.5378  159.5496 H   0  0  0  0  0  0  0  0  0  0  0  0  # atno 6909 bound_to 6896
  145.4891  140.9553  143.1822 H   0  0  0  0  0  0  0  0  0  0  0  0  # atno 7974 bound_to 7965
  155.8305  140.3466  155.5569 H   0  0  0  0  0  0  0  0  0  0  0  0  # atno 8008 bound_to 7997
  155.8247  140.0918  157.1848 H   0  0  0  0  0  0  0  0  0  0  0  0  # atno 8009 bound_to 7997
  154.4004  140.1423  156.3529 H   0  0  0  0  0  0  0  0  0  0  0  0  # atno 8010 bound_to 7997
  140.3976  144.1768  150.6132 H   0  0  0  0  0  0  0  0  0  0  0  0  # atno 10167 bound_to 10162
  157.2528  130.7123  149.6414 H   0  0  0  0  0  0  0  0  0  0  0  0  # atno 10718 bound_to 10713
  153.0434  135.6490  154.0880 H   0  0  0  0  0  0  0  0  0  0  0  0  # atno 10763 bound_to 10752
  154.0583  135.2890  155.3330 H   0  0  0  0  0  0  0  0  0  0  0  0  # atno 10764 bound_to 10752
  154.6675  135.5369  153.8160 H   0  0  0  0  0  0  0  0  0  0  0  0  # atno 10765 bound_to 10752
  140.8234  133.8051  155.9683 H   0  0  0  0  0  0  0  0  0  0  0  0  # atno 11005 bound_to 11000
  144.7844  139.6457  143.7140 LP  0  0  0  0  0  0  0  0  0  0  0  0  # atno 17320 bound_to 7965
  146.2295  139.5786  142.9565 LP  0  0  0  0  0  0  0  0  0  0  0  0  # atno 17321 bound_to 7965
  140.4774  143.2391  151.9004 LP  0  0  0  0  0  0  0  0  0  0  0  0  # atno 17342 bound_to 10162
  139.4786  144.5306  151.8672 LP  0  0  0  0  0  0  0  0  0  0  0  0  # atno 17343 bound_to 10162
  155.9666  130.4422  150.5371 LP  0  0  0  0  0  0  0  0  0  0  0  0  # atno 17370 bound_to 10713
  157.3259  131.0690  151.1897 LP  0  0  0  0  0  0  0  0  0  0  0  0  # atno 17371 bound_to 10713
  140.9074  134.2303  157.5006 LP  0  0  0  0  0  0  0  0  0  0  0  0  # atno 17394 bound_to 11000
  139.8707  134.9735  156.4810 LP  0  0  0  0  0  0  0  0  0  0  0  0  # atno 17395 bound_to 11000

$$$$
