AV-unprocessed.smi:189|AV-procd|sdf|1483|dock1
  -GOLD-   2262019303D 1   1.00000     0.00000
 Structure written by MMmdl.
 53 57  0  0  0  0  0  0  0  0  1 V2000
  153.8448  139.8914  159.5798 C   0  0  0  0  0  0  0  0  0  0  0  0
  153.4434  141.3002  159.1093 C   0  0  2  0  0  0  0  0  0  0  0  0
  153.5679  142.3467  160.2337 C   0  0  0  0  0  0  0  0  0  0  0  0
  152.1185  142.6903  160.5860 C   0  0  1  0  0  0  0  0  0  0  0  0
  151.8806  144.0474  161.2790 C   0  0  0  0  0  0  0  0  0  0  0  0
  152.0087  145.2438  160.3238 C   0  0  0  0  0  0  0  0  0  0  0  0
  151.1278  145.0515  159.0822 C   0  0  0  0  0  0  0  0  0  0  0  0
  151.5162  143.7657  158.3418 C   0  0  0  0  0  0  0  0  0  0  0  0
  151.3873  142.5162  159.2476 C   0  0  1  0  0  0  0  0  0  0  0  0
  152.0446  141.3495  158.6681 N   0  0  0  0  0  0  0  0  0  0  0  0
  151.6528  140.8551  157.4600 C   0  0  0  0  0  0  0  0  0  0  0  0
  152.5298  140.1066  156.7387 N   0  0  0  0  0  0  0  0  0  0  0  0
  152.1856  139.6050  155.5502 C   0  0  0  0  0  0  0  0  0  0  0  0
  151.0288  139.7256  154.8993 N   0  0  0  0  0  0  0  0  0  0  0  0
  150.1383  140.4726  155.6115 C   0  0  0  0  0  0  0  0  0  0  0  0
  150.3620  141.0664  156.8881 C   0  0  0  0  0  0  0  0  0  0  0  0
  149.2114  141.7333  157.2953 N   0  0  0  0  0  0  0  0  0  0  0  0
  148.3667  141.5539  156.3179 C   0  0  0  0  0  0  0  0  0  0  0  0
  148.8431  140.8128  155.2614 N   0  0  0  0  0  0  0  0  0  0  0  0
  148.1174  140.4535  154.0519 C   0  0  0  0  0  0  0  0  0  0  0  0
  148.0829  138.9312  153.7731 C   0  0  2  0  0  0  0  0  0  0  0  0
  149.3721  138.5122  153.3627 O   0  0  0  0  0  0  0  0  0  0  0  0
  147.0692  138.5621  152.6876 C   0  0  0  0  0  0  0  0  0  0  0  0
  145.9584  137.8588  153.4580 C   0  0  0  0  0  0  0  0  0  0  0  0
  146.6714  137.1783  154.4748 O   0  0  0  0  0  0  0  0  0  0  0  0
  147.6373  138.0864  154.9841 C   0  0  0  0  0  0  0  0  0  0  0  0
  154.8779  139.8776  159.9274 H   0  0  0  0  0  0  0  0  0  0  0  0
  153.7617  139.1573  158.7790 H   0  0  0  0  0  0  0  0  0  0  0  0
  153.2125  139.5566  160.4028 H   0  0  0  0  0  0  0  0  0  0  0  0
  154.0994  141.5994  158.2907 H   0  0  0  0  0  0  0  0  0  0  0  0
  154.1295  141.9885  161.0972 H   0  0  0  0  0  0  0  0  0  0  0  0
  154.0872  143.2261  159.8525 H   0  0  0  0  0  0  0  0  0  0  0  0
  151.7658  141.9091  161.2619 H   0  0  0  0  0  0  0  0  0  0  0  0
  150.8750  144.0495  161.7016 H   0  0  0  0  0  0  0  0  0  0  0  0
  152.5628  144.1630  162.1216 H   0  0  0  0  0  0  0  0  0  0  0  0
  151.7262  146.1608  160.8416 H   0  0  0  0  0  0  0  0  0  0  0  0
  153.0486  145.3706  160.0214 H   0  0  0  0  0  0  0  0  0  0  0  0
  150.0774  145.0095  159.3729 H   0  0  0  0  0  0  0  0  0  0  0  0
  151.2336  145.9086  158.4167 H   0  0  0  0  0  0  0  0  0  0  0  0
  150.8895  143.6526  157.4570 H   0  0  0  0  0  0  0  0  0  0  0  0
  152.5394  143.8643  157.9762 H   0  0  0  0  0  0  0  0  0  0  0  0
  150.3379  142.3145  159.4571 H   0  0  0  0  0  0  0  0  0  0  0  0
  152.9463  139.0250  155.0491 H   0  0  0  0  0  0  0  0  0  0  0  0
  147.3658  141.9601  156.3406 H   0  0  0  0  0  0  0  0  0  0  0  0
  147.1006  140.8398  154.1346 H   0  0  0  0  0  0  0  0  0  0  0  0
  148.5743  140.9807  153.2131 H   0  0  0  0  0  0  0  0  0  0  0  0
  149.6644  139.0839  152.6691 H   0  0  0  0  0  0  0  0  0  0  0  0
  146.7013  139.4209  152.1249 H   0  0  0  0  0  0  0  0  0  0  0  0
  147.4999  137.8626  151.9691 H   0  0  0  0  0  0  0  0  0  0  0  0
  145.2738  138.5806  153.9065 H   0  0  0  0  0  0  0  0  0  0  0  0
  145.3824  137.1722  152.8374 H   0  0  0  0  0  0  0  0  0  0  0  0
  148.4560  137.5622  155.4788 H   0  0  0  0  0  0  0  0  0  0  0  0
  147.1410  138.7025  155.7339 H   0  0  0  0  0  0  0  0  0  0  0  0
  1  2  1  0  0  0  0
  1 27  1  0  0  0  0
  1 28  1  0  0  0  0
  1 29  1  0  0  0  0
  2 10  1  0  0  0  0
  2  3  1  0  0  0  0
  2 30  1  0  0  0  0
  3  4  1  0  0  0  0
  3 31  1  0  0  0  0
  3 32  1  0  0  0  0
  4  9  1  0  0  0  0
  4  5  1  0  0  0  0
  4 33  1  0  0  0  0
  5  6  1  0  0  0  0
  5 34  1  0  0  0  0
  5 35  1  0  0  0  0
  6  7  1  0  0  0  0
  6 36  1  0  0  0  0
  6 37  1  0  0  0  0
  7  8  1  0  0  0  0
  7 38  1  0  0  0  0
  7 39  1  0  0  0  0
  8  9  1  0  0  0  0
  8 40  1  0  0  0  0
  8 41  1  0  0  0  0
  9 10  1  0  0  0  0
  9 42  1  0  0  0  0
 10 11  1  0  0  0  0
 11 16  1  0  0  0  0
 11 12  2  0  0  0  0
 12 13  1  0  0  0  0
 13 14  2  0  0  0  0
 13 43  1  0  0  0  0
 14 15  1  0  0  0  0
 15 19  1  0  0  0  0
 15 16  2  0  0  0  0
 16 17  1  0  0  0  0
 17 18  2  0  0  0  0
 18 19  1  0  0  0  0
 18 44  1  0  0  0  0
 19 20  1  0  0  0  0
 20 21  1  0  0  0  0
 20 45  1  0  0  0  0
 20 46  1  0  0  0  0
 21 26  1  0  0  0  0
 21 22  1  0  0  0  0
 21 23  1  0  0  0  0
 22 47  1  0  0  0  0
 23 24  1  0  0  0  0
 23 48  1  0  0  0  0
 23 49  1  0  0  0  0
 24 25  1  0  0  0  0
 24 50  1  0  0  0  0
 24 51  1  0  0  0  0
 25 26  1  0  0  0  0
 26 52  1  0  0  0  0
 26 53  1  0  0  0  0
M  END
> <s_m_source_file>
AV-unprocessed.smi

> <i_m_source_file_index>
189

> <i_lp_mmshare_version>
43012

> <i_f3d_flags>
0

> <s_epik_input>
W0NIMl0xW0NIMl1bQ0gyXVtDSDJdW0NASF0oW0NASF0xMilOKFtDQEhdKFtDSDNdKVtDSDJdMiljKG5bY0hdbjMpYyhjMzQpbltjSF1uNFtDSDJdW0NAQF01KFtPSF0pW0NIMl1bQ0gyXU9bQ0gyXTU=

> <s_epik_cmdline>
J2VwaWtfcHl0aG9uJywgJy1waCcsICc3LjAnLCAnLXRuJywgJzgnLCAnLW1hJywgJzIwMCcsICctbWV0YWxfYmluZGluZycsICctaW1hZScsICc8aW5maWxlLm1hZT4nLCAnLW9tYWUnLCAnPG91dGZpbGUubWFlPic=

> <r_lp_tautomer_probability>
1

> <r_epik_Ionization_Penalty>
0.00594261

> <r_epik_Ionization_Penalty_Charging>
0

> <r_epik_Ionization_Penalty_Neutral>
0.00594261

> <r_epik_State_Penalty>
0.00429776

> <r_epik_Charging_Adjusted_Penalty>
0.00429776

> <i_epik_Tot_Q>
0

> <i_epik_Tot_abs_Q>
0

> <r_epik_Metal_State_Penalty>
-0

> <b_epik_Metal_Only>
0

> <s_lp_Force_Field>
OPLS_2005

> <r_lp_Energy>
57.6623

> <b_lp_Chiralities_Consistent>
1

> <s_lp_Variant>
AV-unprocessed.smi:189-9

> <Gold.Version>
5.8.1

> <Gold.Id.Protein>
6NUR|6NUR_protein|mol2

> <Gold.PLP.Fitness>
60.7232

> <Gold.PLP.PLP>
-51.9789

> <Gold.PLP.part.hbond>
-4.0000

> <Gold.PLP.part.metal>
0.0000

> <Gold.PLP.part.buried>
-3.2894

> <Gold.PLP.part.nonpolar>
-44.2627

> <Gold.PLP.part.repulsive>
0.2650

> <Gold.PLP.ligand.clash>
0.0000

> <Gold.PLP.ligand.torsion>
0.2687

> <Gold.PLP.Chemscore.Hbond>
3.0000

> <Gold.PLP.Chemscore.CHOScore>
0.0000

> <Gold.PLP.Chemscore.Metal>
0.0000

> <Gold.Chemscore.Hbonds>
donor molecule, donor type, donor heavy atom, donor atom, acceptor molecule, acceptor atom, score
      L1  H    22    47       P1  7957  1.00
      P1  H  7989  7998       L1    14  0.90
      P1  H  7997  8008       L1    12  1.00

> <Gold.PLP.Chemscore.Internal.Correction>
0.2818

> <Gold.Rescore>
     Score         DG    S(hbond)    S(metal)    S(lipo)     H(rot)  DE(clash)    DE(int)     intcor
     19.55     -21.41       1.74        0.00     124.62       1.74       0.54       1.32       ----

> <Gold.Chemscore.Fitness>
19.5458

> <Gold.Chemscore.DG>
-21.4063

> <Gold.Chemscore.ZeroCoef>
-5.4800

> <Gold.Chemscore.Hbond>
1.7380

> <Gold.Chemscore.Metal>
0.0000

> <Gold.Chemscore.Lipo>
124.6211

> <Gold.Chemscore.Internal_Hbond>
0.0000

> <Gold.Chemscore.DEClash>
0.5371

> <Gold.Chemscore.DEInternal>
1.3234

> <Gold.Chemscore.Rot>
1.7420

> <Gold.Chemscore.Internal.Correction>
   9.000000E+99

> <Gold.Chemscore.Hbonds>
donor molecule, donor type, donor heavy atom, donor atom, acceptor molecule, acceptor atom, score
      L1  H    22    47       P1  7957  0.94
      P1  H  7989  7998       L1    14  0.10
      P1  H  7997  8008       L1    12  0.25

> <Gold.Chemscore.Hbond.Weighted>
-5.8051

> <Gold.Chemscore.Metal.Weighted>
-0.0000

> <Gold.Chemscore.Lipo.Weighted>
-14.5807

> <Gold.Chemscore.Internal_Hbond.Weighted>
0.0000

> <Gold.Chemscore.DEClash.Weighted>
0.5371

> <Gold.Chemscore.DEInternal.Weighted>
1.3234

> <Gold.Chemscore.Rot.Weighted>
4.4594

> <Gold.Chemscore.Internal.Correction.Weighted>
   9.000000E+99

> <Gold.Protein.RotatedTorsions>
[ 6907 6896 6895 6894 ] final    5.49 input  -60.11 | X-H torsion
[ 7974 7965 7964 7962 ] final   28.73 input  175.53 | X-H torsion
[ 8008 7997 7996 7995 ] final  -55.96 input   59.86 | X-H torsion
[ 10167 10162 10161 10158 ] final  -46.35 input  -65.29 | X-H torsion
[ 10718 10713 10712 10709 ] final  -49.47 input   66.30 | X-H torsion
[ 10763 10752 10751 10750 ] final -137.13 input  -60.55 | X-H torsion
[ 11005 11000 10999 10996 ] final  -13.01 input  -57.11 | X-H torsion

> <Gold.Protein.ActiveResidues>
 VAL166  LYS551  ARG553  GLY616  TRP617  ASP618  TYR619  PRO620  LYS621  CYS622 
 ASP623  PHE694  ASN695  SER759  ASP760  ASP761  ALA762  ILE779  LEU786  VAL792 
 PHE793  MET794  SER795  GLU796  ALA797  LYS798  CYS799  TRP800  GLU811  SER814 

> <Gold.Protein.RotatedAtoms>
  151.6583  135.0992  160.0174 H   0  0  0  0  0  0  0  0  0  0  0  0  # atno 6907 bound_to 6896
  152.3961  133.6745  159.6286 H   0  0  0  0  0  0  0  0  0  0  0  0  # atno 6908 bound_to 6896
  150.7868  133.8788  159.3321 H   0  0  0  0  0  0  0  0  0  0  0  0  # atno 6909 bound_to 6896
  146.1712  139.7017  142.8966 H   0  0  0  0  0  0  0  0  0  0  0  0  # atno 7974 bound_to 7965
  154.4213  140.1140  156.5561 H   0  0  0  0  0  0  0  0  0  0  0  0  # atno 8008 bound_to 7997
  155.6359  140.3496  155.4679 H   0  0  0  0  0  0  0  0  0  0  0  0  # atno 8009 bound_to 7997
  155.9910  140.1179  157.0628 H   0  0  0  0  0  0  0  0  0  0  0  0  # atno 8010 bound_to 7997
  140.6821  143.2835  151.3770 H   0  0  0  0  0  0  0  0  0  0  0  0  # atno 10167 bound_to 10162
  156.1890  130.4152  149.9398 H   0  0  0  0  0  0  0  0  0  0  0  0  # atno 10718 bound_to 10713
  154.8669  135.3651  154.5173 H   0  0  0  0  0  0  0  0  0  0  0  0  # atno 10763 bound_to 10752
  153.5805  135.7018  153.5470 H   0  0  0  0  0  0  0  0  0  0  0  0  # atno 10764 bound_to 10752
  153.3461  135.4084  155.1572 H   0  0  0  0  0  0  0  0  0  0  0  0  # atno 10765 bound_to 10752
  140.7717  133.8433  155.9213 H   0  0  0  0  0  0  0  0  0  0  0  0  # atno 11005 bound_to 11000
  145.4334  141.0417  143.2898 LP  0  0  0  0  0  0  0  0  0  0  0  0  # atno 17320 bound_to 7965
  144.8166  139.5865  143.7005 LP  0  0  0  0  0  0  0  0  0  0  0  0  # atno 17321 bound_to 7965
  139.6151  144.1020  152.2337 LP  0  0  0  0  0  0  0  0  0  0  0  0  # atno 17342 bound_to 10162
  140.0446  144.5980  150.7384 LP  0  0  0  0  0  0  0  0  0  0  0  0  # atno 17343 bound_to 10162
  156.7144  130.8982  151.3612 LP  0  0  0  0  0  0  0  0  0  0  0  0  # atno 17370 bound_to 10713
  157.6917  130.9240  150.0533 LP  0  0  0  0  0  0  0  0  0  0  0  0  # atno 17371 bound_to 10713
  140.9567  134.1708  157.4686 LP  0  0  0  0  0  0  0  0  0  0  0  0  # atno 17394 bound_to 11000
  139.8755  134.9929  156.5621 LP  0  0  0  0  0  0  0  0  0  0  0  0  # atno 17395 bound_to 11000

$$$$
