AV-unprocessed.smi:3326|AV-procd|sdf|12786|dock3
  -GOLD-   2272019133D 1   1.00000     0.00000
 Structure written by MMmdl.
 30 31  0  0  0  0  0  0  0  0  1 V2000
  152.0561  145.3183  160.0447 F   0  0  0  0  0  0  0  0  0  0  0  0
  151.9534  144.4605  159.0290 C   0  0  0  0  0  0  0  0  0  0  0  0
  150.6729  144.4069  158.6616 F   0  0  0  0  0  0  0  0  0  0  0  0
  152.6754  144.9347  158.0134 F   0  0  0  0  0  0  0  0  0  0  0  0
  152.4457  143.0670  159.4134 C   0  0  0  0  0  0  0  0  0  0  0  0
  153.1633  142.8676  160.6149 C   0  0  0  0  0  0  0  0  0  0  0  0
  153.6083  141.5751  160.9469 C   0  0  0  0  0  0  0  0  0  0  0  0
  153.3194  140.5225  160.0605 C   0  0  0  0  0  0  0  0  0  0  0  0
  152.6354  140.6945  158.9110 N   0  0  0  0  0  0  0  0  0  0  0  0
  152.2034  141.9377  158.5878 C   0  0  0  0  0  0  0  0  0  0  0  0
  151.4916  142.0911  157.3879 N   0  0  0  0  0  0  0  0  0  0  0  0
  150.4905  141.1193  156.9714 C   0  0  0  0  0  0  0  0  0  0  0  0
  150.9184  140.3831  155.6947 C   0  0  1  0  0  0  0  0  0  0  0  0
  152.1360  139.4784  155.8634 C   0  0  0  0  0  0  0  0  0  0  0  0
  152.0017  138.5366  154.6830 C   0  0  0  0  0  0  0  0  0  0  0  0
  150.4924  138.4992  154.4214 C   0  0  0  0  0  0  0  0  0  0  0  0
  149.9129  139.4663  155.2925 O   0  0  0  0  0  0  0  0  0  0  0  0
  153.3764  143.6888  161.2826 H   0  0  0  0  0  0  0  0  0  0  0  0
  154.1582  141.3951  161.8588 H   0  0  0  0  0  0  0  0  0  0  0  0
  153.6452  139.5164  160.2796 H   0  0  0  0  0  0  0  0  0  0  0  0
  151.6541  142.9003  156.8061 H   0  0  0  0  0  0  0  0  0  0  0  0
  150.3132  140.4050  157.7763 H   0  0  0  0  0  0  0  0  0  0  0  0
  149.5501  141.6413  156.7909 H   0  0  0  0  0  0  0  0  0  0  0  0
  151.0837  141.0915  154.8806 H   0  0  0  0  0  0  0  0  0  0  0  0
  153.0787  140.0262  155.8663 H   0  0  0  0  0  0  0  0  0  0  0  0
  152.0647  138.9167  156.7959 H   0  0  0  0  0  0  0  0  0  0  0  0
  152.5201  138.9458  153.8150 H   0  0  0  0  0  0  0  0  0  0  0  0
  152.4182  137.5506  154.8903 H   0  0  0  0  0  0  0  0  0  0  0  0
  150.2718  138.7516  153.3836 H   0  0  0  0  0  0  0  0  0  0  0  0
  150.0670  137.5169  154.6286 H   0  0  0  0  0  0  0  0  0  0  0  0
  1  2  1  0  0  0  0
  2  3  1  0  0  0  0
  2  4  1  0  0  0  0
  2  5  1  0  0  0  0
  5 10  1  0  0  0  0
  5  6  2  0  0  0  0
  6  7  1  0  0  0  0
  6 18  1  0  0  0  0
  7  8  2  0  0  0  0
  7 19  1  0  0  0  0
  8  9  1  0  0  0  0
  8 20  1  0  0  0  0
  9 10  2  0  0  0  0
 10 11  1  0  0  0  0
 11 12  1  0  0  0  0
 11 21  1  0  0  0  0
 12 13  1  0  0  0  0
 12 22  1  0  0  0  0
 12 23  1  0  0  0  0
 13 17  1  0  0  0  0
 13 14  1  0  0  0  0
 13 24  1  0  0  0  0
 14 15  1  0  0  0  0
 14 25  1  0  0  0  0
 14 26  1  0  0  0  0
 15 16  1  0  0  0  0
 15 27  1  0  0  0  0
 15 28  1  0  0  0  0
 16 17  1  0  0  0  0
 16 29  1  0  0  0  0
 16 30  1  0  0  0  0
M  END
> <s_m_source_file>
AV-unprocessed.smi

> <i_m_source_file_index>
3326

> <i_lp_mmshare_version>
43012

> <i_f3d_flags>
0

> <s_epik_input>
RkMoRikoRiljMVtjSF1bY0hdW2NIXW5jMVtOSF1bQ0gyXVtDQEBIXTJbQ0gyXVtDSDJdW0NIMl1PMg==

> <s_epik_cmdline>
J2VwaWtfcHl0aG9uJywgJy1waCcsICc3LjAnLCAnLXRuJywgJzgnLCAnLW1hJywgJzIwMCcsICctbWV0YWxfYmluZGluZycsICctaW1hZScsICc8aW5maWxlLm1hZT4nLCAnLW9tYWUnLCAnPG91dGZpbGUubWFlPic=

> <r_lp_tautomer_probability>
1

> <r_epik_Ionization_Penalty>
0.000820218

> <r_epik_Ionization_Penalty_Charging>
0

> <r_epik_Ionization_Penalty_Neutral>
0.000820218

> <r_epik_State_Penalty>
0.000527207

> <r_epik_Charging_Adjusted_Penalty>
0.000527207

> <i_epik_Tot_Q>
0

> <i_epik_Tot_abs_Q>
0

> <r_epik_Metal_State_Penalty>
-0

> <b_epik_Metal_Only>
0

> <s_lp_Force_Field>
OPLS_2005

> <r_lp_Energy>
21.9295

> <b_lp_Chiralities_Consistent>
1

> <s_lp_Variant>
AV-unprocessed.smi:3326-2

> <Gold.Version>
5.8.1

> <Gold.Id.Protein>
6NUR|6NUR_protein|mol2

> <Gold.PLP.Fitness>
45.3889

> <Gold.PLP.PLP>
-46.4192

> <Gold.PLP.part.hbond>
0.0000

> <Gold.PLP.part.metal>
0.0000

> <Gold.PLP.part.buried>
-4.7114

> <Gold.PLP.part.nonpolar>
-41.4970

> <Gold.PLP.part.repulsive>
0.1078

> <Gold.PLP.ligand.clash>
0.0384

> <Gold.PLP.ligand.torsion>
0.7443

> <Gold.PLP.Chemscore.Hbond>
0.0000

> <Gold.PLP.Chemscore.CHOScore>
0.0000

> <Gold.PLP.Chemscore.Metal>
0.0000

> <Gold.PLP.Chemscore.Internal.Correction>
0.4966

> <Gold.Rescore>
     Score         DG    S(hbond)    S(metal)    S(lipo)     H(rot)  DE(clash)    DE(int)     intcor
     10.97     -13.07       0.00        0.00      92.26       1.25       0.05       2.05       ----

> <Gold.Chemscore.Fitness>
10.9701

> <Gold.Chemscore.DG>
-13.0706

> <Gold.Chemscore.ZeroCoef>
-5.4800

> <Gold.Chemscore.Hbond>
0.0000

> <Gold.Chemscore.Metal>
0.0000

> <Gold.Chemscore.Lipo>
92.2576

> <Gold.Chemscore.Internal_Hbond>
0.0000

> <Gold.Chemscore.DEClash>
0.0536

> <Gold.Chemscore.DEInternal>
2.0469

> <Gold.Chemscore.Rot>
1.2514

> <Gold.Chemscore.Internal.Correction>
   9.000000E+99

> <Gold.Chemscore.Hbond.Weighted>
-0.0000

> <Gold.Chemscore.Metal.Weighted>
-0.0000

> <Gold.Chemscore.Lipo.Weighted>
-10.7941

> <Gold.Chemscore.Internal_Hbond.Weighted>
0.0000

> <Gold.Chemscore.DEClash.Weighted>
0.0536

> <Gold.Chemscore.DEInternal.Weighted>
2.0469

> <Gold.Chemscore.Rot.Weighted>
3.2036

> <Gold.Chemscore.Internal.Correction.Weighted>
   9.000000E+99

> <Gold.Protein.RotatedTorsions>
[ 6907 6896 6895 6894 ] final   67.63 input  -60.11 | X-H torsion
[ 7974 7965 7964 7962 ] final   39.36 input  175.53 | X-H torsion
[ 8008 7997 7996 7995 ] final   36.03 input   59.86 | X-H torsion
[ 10167 10162 10161 10158 ] final  -28.39 input  -65.29 | X-H torsion
[ 10718 10713 10712 10709 ] final  148.80 input   66.30 | X-H torsion
[ 10763 10752 10751 10750 ] final   49.55 input  -60.55 | X-H torsion
[ 11005 11000 10999 10996 ] final  -49.70 input  -57.11 | X-H torsion

> <Gold.Protein.ActiveResidues>
 VAL166  LYS551  ARG553  GLY616  TRP617  ASP618  TYR619  PRO620  LYS621  CYS622 
 ASP623  PHE694  ASN695  SER759  ASP760  ASP761  ALA762  ILE779  LEU786  VAL792 
 PHE793  MET794  SER795  GLU796  ALA797  LYS798  CYS799  TRP800  GLU811  SER814 

> <Gold.Protein.RotatedAtoms>
  152.4565  134.5279  159.9801 H   0  0  0  0  0  0  0  0  0  0  0  0  # atno 6907 bound_to 6896
  151.5338  133.3438  159.2931 H   0  0  0  0  0  0  0  0  0  0  0  0  # atno 6908 bound_to 6896
  150.8512  134.7867  159.7073 H   0  0  0  0  0  0  0  0  0  0  0  0  # atno 6909 bound_to 6896
  146.0990  139.5660  142.9426 H   0  0  0  0  0  0  0  0  0  0  0  0  # atno 7974 bound_to 7965
  155.1808  140.3300  155.4375 H   0  0  0  0  0  0  0  0  0  0  0  0  # atno 8008 bound_to 7997
  156.2477  140.1927  156.6857 H   0  0  0  0  0  0  0  0  0  0  0  0  # atno 8009 bound_to 7997
  154.6272  140.0587  156.9674 H   0  0  0  0  0  0  0  0  0  0  0  0  # atno 8010 bound_to 7997
  140.7270  143.4014  151.1259 H   0  0  0  0  0  0  0  0  0  0  0  0  # atno 10167 bound_to 10162
  157.3041  131.0876  151.1367 H   0  0  0  0  0  0  0  0  0  0  0  0  # atno 10718 bound_to 10713
  152.9786  135.5908  154.4107 H   0  0  0  0  0  0  0  0  0  0  0  0  # atno 10763 bound_to 10752
  154.3743  135.2767  155.2250 H   0  0  0  0  0  0  0  0  0  0  0  0  # atno 10764 bound_to 10752
  154.4192  135.6063  153.6054 H   0  0  0  0  0  0  0  0  0  0  0  0  # atno 10765 bound_to 10752
  141.0774  133.6662  156.3624 H   0  0  0  0  0  0  0  0  0  0  0  0  # atno 11005 bound_to 11000
  145.5892  141.0372  143.2079 LP  0  0  0  0  0  0  0  0  0  0  0  0  # atno 17320 bound_to 7965
  144.7418  139.7429  143.7308 LP  0  0  0  0  0  0  0  0  0  0  0  0  # atno 17321 bound_to 7965
  139.7634  143.8602  152.3105 LP  0  0  0  0  0  0  0  0  0  0  0  0  # atno 17342 bound_to 10162
  139.8495  144.7171  150.9231 LP  0  0  0  0  0  0  0  0  0  0  0  0  # atno 17343 bound_to 10162
  157.2714  130.6706  149.6021 LP  0  0  0  0  0  0  0  0  0  0  0  0  # atno 17370 bound_to 10713
  155.9673  130.4478  150.5593 LP  0  0  0  0  0  0  0  0  0  0  0  0  # atno 17371 bound_to 10713
  140.5543  134.5997  157.5416 LP  0  0  0  0  0  0  0  0  0  0  0  0  # atno 17394 bound_to 11000
  139.9587  134.7490  156.0285 LP  0  0  0  0  0  0  0  0  0  0  0  0  # atno 17395 bound_to 11000

$$$$
