AV-unprocessed.smi:1996|AV-procd|sdf|8085|dock3
  -GOLD-   2272010303D 1   1.00000     0.00000
 Structure written by MMmdl.
 32 33  0  0  0  0  0  0  0  0  2 V2000
  151.1214  136.8268  159.7632 O   0  0  0  0  0  0  0  0  0  0  0  0
  149.9983  137.1460  159.3663 C   0  0  0  0  0  0  0  0  0  0  0  0
  149.7862  138.3794  158.8879 N   0  0  0  0  0  0  0  0  0  0  0  0
  150.7965  139.4241  158.7854 C   0  0  0  0  0  0  0  0  0  0  0  0
  150.1570  140.7523  158.3543 C   0  0  0  0  0  0  0  0  0  0  0  0
  150.9503  141.9653  158.8120 C   0  0  0  0  0  0  0  0  0  0  0  0
  152.1099  141.8457  159.4879 C   0  0  0  0  0  0  0  0  0  0  0  0
  152.9501  143.0206  159.9566 C   0  0  0  0  0  0  0  0  0  0  0  0
  152.5305  144.3433  159.2938 C   0  0  0  0  0  0  0  0  0  0  0  0
  151.0037  144.4813  159.2509 C   0  0  0  0  0  0  0  0  0  0  0  0
  150.3588  143.3268  158.4632 C   0  0  0  0  0  0  0  0  0  0  0  0
  148.8986  136.3584  159.3534 N   0  5  0  0  0  0  0  0  0  0  0  0
  148.2555  136.0853  160.5004 C   0  0  0  0  0  0  0  0  0  0  0  0
  147.9165  137.0416  161.3801 N   0  0  0  0  0  0  0  0  0  0  0  0
  147.2567  136.5472  162.4972 N   0  0  0  0  0  0  0  0  0  0  0  0
  147.1065  135.2248  162.4268 C   0  0  0  0  0  0  0  0  0  0  0  0
  147.7531  134.4642  160.9884 S   0  0  0  0  0  0  0  0  0  0  0  0
  148.8543  138.6056  158.5728 H   0  0  0  0  0  0  0  0  0  0  0  0
  151.2909  139.5420  159.7510 H   0  0  0  0  0  0  0  0  0  0  0  0
  151.5566  139.1157  158.0663 H   0  0  0  0  0  0  0  0  0  0  0  0
  150.0611  140.7880  157.2685 H   0  0  0  0  0  0  0  0  0  0  0  0
  149.1435  140.8128  158.7539 H   0  0  0  0  0  0  0  0  0  0  0  0
  152.4890  140.8646  159.7346 H   0  0  0  0  0  0  0  0  0  0  0  0
  152.8512  143.0937  161.0401 H   0  0  0  0  0  0  0  0  0  0  0  0
  154.0005  142.8177  159.7463 H   0  0  0  0  0  0  0  0  0  0  0  0
  152.9743  145.1850  159.8262 H   0  0  0  0  0  0  0  0  0  0  0  0
  152.9212  144.3809  158.2760 H   0  0  0  0  0  0  0  0  0  0  0  0
  150.6160  144.4871  160.2705 H   0  0  0  0  0  0  0  0  0  0  0  0
  150.7210  145.4367  158.8079 H   0  0  0  0  0  0  0  0  0  0  0  0
  150.4937  143.4927  157.3940 H   0  0  0  0  0  0  0  0  0  0  0  0
  149.2842  143.3165  158.6480 H   0  0  0  0  0  0  0  0  0  0  0  0
  146.6092  134.6941  163.2246 H   0  0  0  0  0  0  0  0  0  0  0  0
  1  2  2  0  0  0  0
  2  3  1  0  0  0  0
  2 12  1  0  0  0  0
  3  4  1  0  0  0  0
  3 18  1  0  0  0  0
  4  5  1  0  0  0  0
  4 19  1  0  0  0  0
  4 20  1  0  0  0  0
  5  6  1  0  0  0  0
  5 21  1  0  0  0  0
  5 22  1  0  0  0  0
  6 11  1  0  0  0  0
  6  7  2  0  0  0  0
  7  8  1  0  0  0  0
  7 23  1  0  0  0  0
  8  9  1  0  0  0  0
  8 24  1  0  0  0  0
  8 25  1  0  0  0  0
  9 10  1  0  0  0  0
  9 26  1  0  0  0  0
  9 27  1  0  0  0  0
 10 11  1  0  0  0  0
 10 28  1  0  0  0  0
 10 29  1  0  0  0  0
 11 30  1  0  0  0  0
 11 31  1  0  0  0  0
 12 13  1  0  0  0  0
 13 17  1  0  0  0  0
 13 14  2  0  0  0  0
 14 15  1  0  0  0  0
 15 16  2  0  0  0  0
 16 17  1  0  0  0  0
 16 32  1  0  0  0  0
M  CHG  1  12  -1
M  END
> <s_m_source_file>
AV-unprocessed.smi

> <i_m_source_file_index>
1996

> <i_lp_mmshare_version>
43012

> <i_f3d_flags>
0

> <s_epik_input>
czFbY0hdbm5jMVtOSF1DKD1PKVtOSF1bQ0gyXVtDSDJdQzI9W0NIXVtDSDJdW0NIMl1bQ0gyXVtDSDJdMg==

> <s_epik_cmdline>
J2VwaWtfcHl0aG9uJywgJy1waCcsICc3LjAnLCAnLXRuJywgJzgnLCAnLW1hJywgJzIwMCcsICctbWV0YWxfYmluZGluZycsICctaW1hZScsICc8aW5maWxlLm1hZT4nLCAnLW9tYWUnLCAnPG91dGZpbGUubWFlPic=

> <r_lp_tautomer_probability>
1

> <r_epik_Ionization_Penalty>
3.56684

> <r_epik_Ionization_Penalty_Charging>
3.52481

> <r_epik_Ionization_Penalty_Neutral>
0.0420339

> <r_epik_State_Penalty>
3.52326

> <r_epik_Charging_Adjusted_Penalty>
7.04807

> <i_epik_Tot_Q>
-1

> <i_epik_Tot_abs_Q>
1

> <r_epik_Metal_State_Penalty>
0.513455

> <b_epik_Metal_Only>
1

> <s_lp_Force_Field>
OPLS_2005

> <r_lp_Energy>
5.58763

> <b_lp_Chiralities_Consistent>
1

> <s_lp_Variant>
AV-unprocessed.smi:1996-2

> <Gold.Version>
5.8.1

> <Gold.Id.Protein>
6NUR|6NUR_protein|mol2

> <Gold.PLP.Fitness>
39.9748

> <Gold.PLP.PLP>
-34.5043

> <Gold.PLP.part.hbond>
-3.4645

> <Gold.PLP.part.metal>
0.0000

> <Gold.PLP.part.buried>
-4.7148

> <Gold.PLP.part.nonpolar>
-27.0347

> <Gold.PLP.part.repulsive>
0.1997

> <Gold.PLP.ligand.clash>
0.0000

> <Gold.PLP.ligand.torsion>
1.2856

> <Gold.PLP.Chemscore.Hbond>
2.6661

> <Gold.PLP.Chemscore.CHOScore>
0.0000

> <Gold.PLP.Chemscore.Metal>
0.0000

> <Gold.Chemscore.Hbonds>
donor molecule, donor type, donor heavy atom, donor atom, acceptor molecule, acceptor atom, score
      P1  H  6896  6907       L1     1  1.00
      P1  H  6931  6943       L1    14  1.00
      P1  H  6934  6947       L1    14  0.51

> <Gold.PLP.Chemscore.Internal.Correction>
0.0434

> <Gold.Rescore>
     Score         DG    S(hbond)    S(metal)    S(lipo)     H(rot)  DE(clash)    DE(int)     intcor
     17.73     -19.13       2.30        0.00      85.88       1.59       0.07       1.32       ----

> <Gold.Chemscore.Fitness>
17.7335

> <Gold.Chemscore.DG>
-19.1306

> <Gold.Chemscore.ZeroCoef>
-5.4800

> <Gold.Chemscore.Hbond>
2.2970

> <Gold.Chemscore.Metal>
0.0000

> <Gold.Chemscore.Lipo>
85.8843

> <Gold.Chemscore.Internal_Hbond>
0.0000

> <Gold.Chemscore.DEClash>
0.0742

> <Gold.Chemscore.DEInternal>
1.3229

> <Gold.Chemscore.Rot>
1.5898

> <Gold.Chemscore.Internal.Correction>
   9.000000E+99

> <Gold.Chemscore.Hbonds>
donor molecule, donor type, donor heavy atom, donor atom, acceptor molecule, acceptor atom, score
      P1  H  6896  6907       L1     1  0.48
      P1  H  6931  6943       L1    14  0.64
      P1  H  6934  6947       L1    14  0.36

> <Gold.Chemscore.Hbond.Weighted>
-7.6720

> <Gold.Chemscore.Metal.Weighted>
-0.0000

> <Gold.Chemscore.Lipo.Weighted>
-10.0485

> <Gold.Chemscore.Internal_Hbond.Weighted>
0.0000

> <Gold.Chemscore.DEClash.Weighted>
0.0742

> <Gold.Chemscore.DEInternal.Weighted>
1.3229

> <Gold.Chemscore.Rot.Weighted>
4.0698

> <Gold.Chemscore.Internal.Correction.Weighted>
   9.000000E+99

> <Gold.Protein.RotatedTorsions>
[ 6907 6896 6895 6894 ] final  -31.71 input  -60.11 | X-H torsion
[ 7974 7965 7964 7962 ] final  133.01 input  175.53 | X-H torsion
[ 8008 7997 7996 7995 ] final -106.02 input   59.86 | X-H torsion
[ 10167 10162 10161 10158 ] final  -61.07 input  -65.29 | X-H torsion
[ 10718 10713 10712 10709 ] final  -20.47 input   66.30 | X-H torsion
[ 10763 10752 10751 10750 ] final  -42.01 input  -60.55 | X-H torsion
[ 11005 11000 10999 10996 ] final -112.53 input  -57.11 | X-H torsion

> <Gold.Protein.ActiveResidues>
 VAL166  LYS551  ARG553  GLY616  TRP617  ASP618  TYR619  PRO620  LYS621  CYS622 
 ASP623  PHE694  ASN695  SER759  ASP760  ASP761  ALA762  ILE779  LEU786  VAL792 
 PHE793  MET794  SER795  GLU796  ALA797  LYS798  CYS799  TRP800  GLU811  SER814 

> <Gold.Protein.RotatedAtoms>
  151.0884  134.9901  159.8390 H   0  0  0  0  0  0  0  0  0  0  0  0  # atno 6907 bound_to 6896
  152.5427  134.2096  159.8754 H   0  0  0  0  0  0  0  0  0  0  0  0  # atno 6908 bound_to 6896
  151.2130  133.4501  159.2632 H   0  0  0  0  0  0  0  0  0  0  0  0  # atno 6909 bound_to 6896
  144.9909  139.4407  143.5339 H   0  0  0  0  0  0  0  0  0  0  0  0  # atno 7974 bound_to 7965
  154.9084  140.0410  157.1932 H   0  0  0  0  0  0  0  0  0  0  0  0  # atno 8008 bound_to 7997
  154.8373  140.2909  155.5661 H   0  0  0  0  0  0  0  0  0  0  0  0  # atno 8009 bound_to 7997
  156.2990  140.2489  156.3309 H   0  0  0  0  0  0  0  0  0  0  0  0  # atno 8010 bound_to 7997
  140.6030  143.2366  151.5886 H   0  0  0  0  0  0  0  0  0  0  0  0  # atno 10167 bound_to 10162
  156.5314  130.4656  149.6545 H   0  0  0  0  0  0  0  0  0  0  0  0  # atno 10718 bound_to 10713
  153.9719  135.6727  153.4747 H   0  0  0  0  0  0  0  0  0  0  0  0  # atno 10763 bound_to 10752
  153.0789  135.4934  154.8458 H   0  0  0  0  0  0  0  0  0  0  0  0  # atno 10764 bound_to 10752
  154.7214  135.3118  154.9002 H   0  0  0  0  0  0  0  0  0  0  0  0  # atno 10765 bound_to 10752
  141.0669  133.9443  157.2560 H   0  0  0  0  0  0  0  0  0  0  0  0  # atno 11005 bound_to 11000
  146.3431  139.9240  142.8762 LP  0  0  0  0  0  0  0  0  0  0  0  0  # atno 17320 bound_to 7965
  145.2287  140.9964  143.4003 LP  0  0  0  0  0  0  0  0  0  0  0  0  # atno 17321 bound_to 7965
  139.5304  144.2932  152.1135 LP  0  0  0  0  0  0  0  0  0  0  0  0  # atno 17342 bound_to 10162
  140.2116  144.4557  150.6383 LP  0  0  0  0  0  0  0  0  0  0  0  0  # atno 17343 bound_to 10162
  156.3056  130.7201  151.2083 LP  0  0  0  0  0  0  0  0  0  0  0  0  # atno 17370 bound_to 10713
  157.7421  131.0494  150.5049 LP  0  0  0  0  0  0  0  0  0  0  0  0  # atno 17371 bound_to 10713
  139.9485  135.0180  156.8925 LP  0  0  0  0  0  0  0  0  0  0  0  0  # atno 17394 bound_to 11000
  140.5754  134.0403  155.7445 LP  0  0  0  0  0  0  0  0  0  0  0  0  # atno 17395 bound_to 11000

$$$$
