AV-unprocessed.smi:3303|AV-procd|sdf|12681|dock6
  -GOLD-   2272019 13D 1   1.00000     0.00000
 Structure written by MMmdl.
 44 45  0  0  0  0  0  0  0  0  2 V2000
  148.4091  141.4490  154.1594 C   0  0  0  0  0  0  0  0  0  0  0  0
  148.7619  139.9512  154.1205 C   0  0  2  0  0  0  0  0  0  0  0  0
  147.4746  139.1043  154.1530 C   0  0  0  0  0  0  0  0  0  0  0  0
  147.7571  137.6467  154.0912 N   0  3  2  0  0  0  0  0  0  0  0  0
  146.5013  136.8684  153.9622 C   0  0  0  0  0  0  0  0  0  0  0  0
  148.6362  137.2039  155.2139 C   0  0  1  0  0  0  0  0  0  0  0  0
  148.9555  135.6968  155.1633 C   0  0  0  0  0  0  0  0  0  0  0  0
  149.9491  138.0112  155.2055 C   0  0  0  0  0  0  0  0  0  0  0  0
  149.6982  139.5258  155.2740 C   0  0  1  0  0  0  0  0  0  0  0  0
  150.9890  140.1895  155.1445 N   0  0  0  0  0  0  0  0  0  0  0  0
  151.0636  141.3870  155.9700 C   0  0  0  0  0  0  0  0  0  0  0  0
  151.5523  141.0490  157.3889 C   0  0  0  0  0  0  0  0  0  0  0  0
  151.8192  142.2803  158.2392 C   0  0  0  0  0  0  0  0  0  0  0  0
  151.7098  143.5719  157.6813 C   0  0  0  0  0  0  0  0  0  0  0  0
  151.9867  144.6833  158.5008 C   0  0  0  0  0  0  0  0  0  0  0  0
  152.3629  144.4618  159.8395 C   0  0  0  0  0  0  0  0  0  0  0  0
  152.4442  143.1332  160.3014 C   0  0  0  0  0  0  0  0  0  0  0  0
  152.1797  142.0609  159.5245 N   0  0  0  0  0  0  0  0  0  0  0  0
  147.9416  141.7225  155.1058 H   0  0  0  0  0  0  0  0  0  0  0  0
  147.7164  141.7095  153.3587 H   0  0  0  0  0  0  0  0  0  0  0  0
  149.2937  142.0729  154.0301 H   0  0  0  0  0  0  0  0  0  0  0  0
  149.2661  139.7550  153.1723 H   0  0  0  0  0  0  0  0  0  0  0  0
  146.9030  139.3227  155.0568 H   0  0  0  0  0  0  0  0  0  0  0  0
  146.8429  139.3824  153.3081 H   0  0  0  0  0  0  0  0  0  0  0  0
  145.9283  136.8931  154.8901 H   0  0  0  0  0  0  0  0  0  0  0  0
  146.6985  135.8287  153.7028 H   0  0  0  0  0  0  0  0  0  0  0  0
  145.8743  137.2729  153.1668 H   0  0  0  0  0  0  0  0  0  0  0  0
  148.1146  137.4057  156.1514 H   0  0  0  0  0  0  0  0  0  0  0  0
  149.6752  135.4267  155.9365 H   0  0  0  0  0  0  0  0  0  0  0  0
  149.3835  135.4112  154.2019 H   0  0  0  0  0  0  0  0  0  0  0  0
  148.0713  135.0841  155.3375 H   0  0  0  0  0  0  0  0  0  0  0  0
  150.5719  137.7084  156.0487 H   0  0  0  0  0  0  0  0  0  0  0  0
  150.5148  137.7689  154.3036 H   0  0  0  0  0  0  0  0  0  0  0  0
  149.2348  139.7590  156.2345 H   0  0  0  0  0  0  0  0  0  0  0  0
  151.7362  139.5599  155.4011 H   0  0  0  0  0  0  0  0  0  0  0  0
  151.7311  142.1215  155.5181 H   0  0  0  0  0  0  0  0  0  0  0  0
  150.0727  141.8397  156.0182 H   0  0  0  0  0  0  0  0  0  0  0  0
  150.8016  140.4381  157.8916 H   0  0  0  0  0  0  0  0  0  0  0  0
  152.4542  140.4368  157.3418 H   0  0  0  0  0  0  0  0  0  0  0  0
  151.4246  143.7098  156.6487 H   0  0  0  0  0  0  0  0  0  0  0  0
  151.9141  145.6870  158.1091 H   0  0  0  0  0  0  0  0  0  0  0  0
  152.5847  145.2898  160.4966 H   0  0  0  0  0  0  0  0  0  0  0  0
  152.7318  142.9261  161.3215 H   0  0  0  0  0  0  0  0  0  0  0  0
  148.2762  137.4933  153.2383 H   0  0  0  0  0  0  0  0  0  0  0  0
  1  2  1  0  0  0  0
  1 19  1  0  0  0  0
  1 20  1  0  0  0  0
  1 21  1  0  0  0  0
  2  9  1  0  0  0  0
  2  3  1  0  0  0  0
  2 22  1  0  0  0  0
  3  4  1  0  0  0  0
  3 23  1  0  0  0  0
  3 24  1  0  0  0  0
  4  5  1  0  0  0  0
  4  6  1  0  0  0  0
  4 44  1  0  0  0  0
  5 25  1  0  0  0  0
  5 26  1  0  0  0  0
  5 27  1  0  0  0  0
  6  7  1  0  0  0  0
  6  8  1  0  0  0  0
  6 28  1  0  0  0  0
  7 29  1  0  0  0  0
  7 30  1  0  0  0  0
  7 31  1  0  0  0  0
  8  9  1  0  0  0  0
  8 32  1  0  0  0  0
  8 33  1  0  0  0  0
  9 10  1  0  0  0  0
  9 34  1  0  0  0  0
 10 11  1  0  0  0  0
 10 35  1  0  0  0  0
 11 12  1  0  0  0  0
 11 36  1  0  0  0  0
 11 37  1  0  0  0  0
 12 13  1  0  0  0  0
 12 38  1  0  0  0  0
 12 39  1  0  0  0  0
 13 18  1  0  0  0  0
 13 14  2  0  0  0  0
 14 15  1  0  0  0  0
 14 40  1  0  0  0  0
 15 16  2  0  0  0  0
 15 41  1  0  0  0  0
 16 17  1  0  0  0  0
 16 42  1  0  0  0  0
 17 18  2  0  0  0  0
 17 43  1  0  0  0  0
M  CHG  1   4   1
M  END
> <s_m_source_file>
AV-unprocessed.smi

> <i_m_source_file_index>
3303

> <i_lp_mmshare_version>
43012

> <i_f3d_flags>
0

> <s_epik_input>
W0NIM11bQ0BASF0xW0NIMl1OKFtDSDNdKVtDQEBIXShbQ0gzXSlbQ0gyXVtDQEhdMVtOSF1bQ0gyXVtDSDJdYzJbY0hdW2NIXVtjSF1bY0hdbjI=

> <s_epik_cmdline>
J2VwaWtfcHl0aG9uJywgJy1waCcsICc3LjAnLCAnLXRuJywgJzgnLCAnLW1hJywgJzIwMCcsICctbWV0YWxfYmluZGluZycsICctaW1hZScsICc8aW5maWxlLm1hZT4nLCAnLW9tYWUnLCAnPG91dGZpbGUubWFlPic=

> <r_epik_Ionization_Penalty>
2.31085

> <r_epik_Ionization_Penalty_Charging>
0.000313057

> <r_epik_Ionization_Penalty_Neutral>
2.31054

> <r_epik_State_Penalty>
2.4087

> <r_epik_Charging_Adjusted_Penalty>
2.40902

> <i_epik_Tot_Q>
1

> <i_epik_Tot_abs_Q>
1

> <r_epik_Metal_State_Penalty>
2.30979

> <b_epik_Metal_Only>
0

> <s_lp_Force_Field>
OPLS_2005

> <r_lp_Energy>
25.5146

> <b_lp_Chiralities_Consistent>
1

> <s_lp_Variant>
AV-unprocessed.smi:3303-25

> <Gold.Version>
5.8.1

> <Gold.Id.Protein>
6NUR|6NUR_protein|mol2

> <Gold.PLP.Fitness>
43.2431

> <Gold.PLP.PLP>
-35.6246

> <Gold.PLP.part.hbond>
-2.0000

> <Gold.PLP.part.metal>
0.0000

> <Gold.PLP.part.buried>
-3.8102

> <Gold.PLP.part.nonpolar>
-29.5942

> <Gold.PLP.part.repulsive>
0.0000

> <Gold.PLP.ligand.clash>
0.0000

> <Gold.PLP.ligand.torsion>
0.6936

> <Gold.PLP.Chemscore.Hbond>
3.0000

> <Gold.PLP.Chemscore.CHOScore>
0.0000

> <Gold.PLP.Chemscore.Metal>
0.0000

> <Gold.Chemscore.Hbonds>
donor molecule, donor type, donor heavy atom, donor atom, acceptor molecule, acceptor atom, score
      L1  H     4    44       P1  7948  1.98
      P1  H  7989  7998       L1    10  1.00

> <Gold.PLP.Chemscore.Internal.Correction>
0.0058

> <Gold.Rescore>
     Score         DG    S(hbond)    S(metal)    S(lipo)     H(rot)  DE(clash)    DE(int)     intcor
     17.65     -18.52       1.08        0.00     109.69       1.33       0.08       0.80       ----

> <Gold.Chemscore.Fitness>
17.6484

> <Gold.Chemscore.DG>
-18.5242

> <Gold.Chemscore.ZeroCoef>
-5.4800

> <Gold.Chemscore.Hbond>
1.0802

> <Gold.Chemscore.Metal>
0.0000

> <Gold.Chemscore.Lipo>
109.6934

> <Gold.Chemscore.Internal_Hbond>
0.0000

> <Gold.Chemscore.DEClash>
0.0769

> <Gold.Chemscore.DEInternal>
0.7989

> <Gold.Chemscore.Rot>
1.3272

> <Gold.Chemscore.Internal.Correction>
   9.000000E+99

> <Gold.Chemscore.Hbonds>
donor molecule, donor type, donor heavy atom, donor atom, acceptor molecule, acceptor atom, score
      L1  H     4    44       P1  7948  0.92
      P1  H  7989  7998       L1    10  0.08

> <Gold.Chemscore.Hbond.Weighted>
-3.6078

> <Gold.Chemscore.Metal.Weighted>
-0.0000

> <Gold.Chemscore.Lipo.Weighted>
-12.8341

> <Gold.Chemscore.Internal_Hbond.Weighted>
0.0000

> <Gold.Chemscore.DEClash.Weighted>
0.0769

> <Gold.Chemscore.DEInternal.Weighted>
0.7989

> <Gold.Chemscore.Rot.Weighted>
3.3976

> <Gold.Chemscore.Internal.Correction.Weighted>
   9.000000E+99

> <Gold.Protein.RotatedTorsions>
[ 6907 6896 6895 6894 ] final -152.60 input  -60.11 | X-H torsion
[ 7974 7965 7964 7962 ] final   19.00 input  175.53 | X-H torsion
[ 8008 7997 7996 7995 ] final  137.79 input   59.86 | X-H torsion
[ 10167 10162 10161 10158 ] final  -16.11 input  -65.29 | X-H torsion
[ 10718 10713 10712 10709 ] final   87.50 input   66.30 | X-H torsion
[ 10763 10752 10751 10750 ] final  170.50 input  -60.55 | X-H torsion
[ 11005 11000 10999 10996 ] final -138.95 input  -57.11 | X-H torsion

> <Gold.Protein.ActiveResidues>
 VAL166  LYS551  ARG553  GLY616  TRP617  ASP618  TYR619  PRO620  LYS621  CYS622 
 ASP623  PHE694  ASN695  SER759  ASP760  ASP761  ALA762  ILE779  LEU786  VAL792 
 PHE793  MET794  SER795  GLU796  ALA797  LYS798  CYS799  TRP800  GLU811  SER814 

> <Gold.Protein.RotatedAtoms>
  151.2301  133.4455  159.2603 H   0  0  0  0  0  0  0  0  0  0  0  0  # atno 6907 bound_to 6896
  151.0802  134.9854  159.8362 H   0  0  0  0  0  0  0  0  0  0  0  0  # atno 6908 bound_to 6896
  152.5423  134.2241  159.8852 H   0  0  0  0  0  0  0  0  0  0  0  0  # atno 6909 bound_to 6896
  146.2165  139.8376  142.8647 H   0  0  0  0  0  0  0  0  0  0  0  0  # atno 7974 bound_to 7965
  156.3000  140.2410  156.3968 H   0  0  0  0  0  0  0  0  0  0  0  0  # atno 8008 bound_to 7997
  154.8563  140.0422  157.1657 H   0  0  0  0  0  0  0  0  0  0  0  0  # atno 8009 bound_to 7997
  154.8944  140.2968  155.5356 H   0  0  0  0  0  0  0  0  0  0  0  0  # atno 8010 bound_to 7997
  140.7229  143.5149  150.9704 H   0  0  0  0  0  0  0  0  0  0  0  0  # atno 10167 bound_to 10162
  157.6940  131.0258  150.3132 H   0  0  0  0  0  0  0  0  0  0  0  0  # atno 10718 bound_to 10713
  154.3984  135.2754  155.2112 H   0  0  0  0  0  0  0  0  0  0  0  0  # atno 10763 bound_to 10752
  154.4148  135.6014  153.5978 H   0  0  0  0  0  0  0  0  0  0  0  0  # atno 10764 bound_to 10752
  152.9831  135.5958  154.4249 H   0  0  0  0  0  0  0  0  0  0  0  0  # atno 10765 bound_to 10752
  140.8566  134.2220  157.4731 H   0  0  0  0  0  0  0  0  0  0  0  0  # atno 11005 bound_to 11000
  145.2932  141.0173  143.3651 LP  0  0  0  0  0  0  0  0  0  0  0  0  # atno 17320 bound_to 7965
  144.9061  139.4587  143.6609 LP  0  0  0  0  0  0  0  0  0  0  0  0  # atno 17321 bound_to 7965
  139.8864  143.7007  152.3151 LP  0  0  0  0  0  0  0  0  0  0  0  0  # atno 17342 bound_to 10162
  139.7308  144.7583  151.0806 LP  0  0  0  0  0  0  0  0  0  0  0  0  # atno 17343 bound_to 10162
  156.3631  130.3850  149.7236 LP  0  0  0  0  0  0  0  0  0  0  0  0  # atno 17370 bound_to 10713
  156.4675  130.7981  151.3000 LP  0  0  0  0  0  0  0  0  0  0  0  0  # atno 17371 bound_to 10713
  139.8705  134.9709  156.4719 LP  0  0  0  0  0  0  0  0  0  0  0  0  # atno 17394 bound_to 11000
  140.8730  133.7974  155.9384 LP  0  0  0  0  0  0  0  0  0  0  0  0  # atno 17395 bound_to 11000

$$$$
