AV-unprocessed.smi:1826|AV-procd|sdf|7417|dock6
  -GOLD-   22720 9 93D 1   1.00000     0.00000
 Structure written by MMmdl.
 40 42  0  0  0  0  0  0  0  0  2 V2000
  152.2650  136.9938  153.4217 O   0  0  0  0  0  0  0  0  0  0  0  0
  151.3873  137.0883  154.5217 C   0  0  0  0  0  0  0  0  0  0  0  0
  150.4074  138.2046  154.3717 C   0  0  0  0  0  0  0  0  0  0  0  0
  149.1992  138.1277  153.7453 N   0  3  0  0  0  0  0  0  0  0  0  0
  148.5559  139.3648  153.8060 C   0  0  0  0  0  0  0  0  0  0  0  0
  147.3204  139.7754  153.3148 C   0  0  0  0  0  0  0  0  0  0  0  0
  146.9607  141.1188  153.5504 C   0  0  0  0  0  0  0  0  0  0  0  0
  147.8149  141.9961  154.2502 C   0  0  0  0  0  0  0  0  0  0  0  0
  149.0650  141.5682  154.7439 C   0  0  0  0  0  0  0  0  0  0  0  0
  149.4125  140.2389  154.5056 C   0  0  0  0  0  0  0  0  0  0  0  0
  150.5413  139.4813  154.8342 N   0  0  0  0  0  0  0  0  0  0  0  0
  151.6385  140.1154  155.5812 C   0  0  0  0  0  0  0  0  0  0  0  0
  151.6363  139.7533  157.0800 C   0  0  2  0  0  0  0  0  0  0  0  0
  150.5619  138.8766  157.3609 O   0  0  0  0  0  0  0  0  0  0  0  0
  151.6037  141.0017  157.9471 C   0  0  0  0  0  0  0  0  0  0  0  0
  150.5486  141.9279  157.8110 C   0  0  0  0  0  0  0  0  0  0  0  0
  150.5072  143.0818  158.6176 C   0  0  0  0  0  0  0  0  0  0  0  0
  151.5170  143.3213  159.5743 C   0  0  0  0  0  0  0  0  0  0  0  0
  151.4767  144.5739  160.4375 C   0  0  0  0  0  0  0  0  0  0  0  0
  151.9348  145.6311  159.7660 F   0  0  0  0  0  0  0  0  0  0  0  0
  150.2184  144.8118  160.8054 F   0  0  0  0  0  0  0  0  0  0  0  0
  152.2224  144.4212  161.5325 F   0  0  0  0  0  0  0  0  0  0  0  0
  152.5739  142.3951  159.7076 C   0  0  0  0  0  0  0  0  0  0  0  0
  152.6154  141.2407  158.9021 C   0  0  0  0  0  0  0  0  0  0  0  0
  151.7626  136.7651  152.6544 H   0  0  0  0  0  0  0  0  0  0  0  0
  150.8518  136.1456  154.6353 H   0  0  0  0  0  0  0  0  0  0  0  0
  151.9707  137.2364  155.4308 H   0  0  0  0  0  0  0  0  0  0  0  0
  146.6642  139.1052  152.7789 H   0  0  0  0  0  0  0  0  0  0  0  0
  146.0108  141.4838  153.1872 H   0  0  0  0  0  0  0  0  0  0  0  0
  147.5050  143.0184  154.4117 H   0  0  0  0  0  0  0  0  0  0  0  0
  149.7126  142.2473  155.2786 H   0  0  0  0  0  0  0  0  0  0  0  0
  152.5818  139.8306  155.1133 H   0  0  0  0  0  0  0  0  0  0  0  0
  151.5484  141.1944  155.4506 H   0  0  0  0  0  0  0  0  0  0  0  0
  152.5489  139.2033  157.3125 H   0  0  0  0  0  0  0  0  0  0  0  0
  150.5994  138.1537  156.7532 H   0  0  0  0  0  0  0  0  0  0  0  0
  149.7653  141.7584  157.0868 H   0  0  0  0  0  0  0  0  0  0  0  0
  149.6956  143.7841  158.4966 H   0  0  0  0  0  0  0  0  0  0  0  0
  153.3596  142.5657  160.4289 H   0  0  0  0  0  0  0  0  0  0  0  0
  153.4275  140.5382  159.0210 H   0  0  0  0  0  0  0  0  0  0  0  0
  148.8427  137.2864  153.3108 H   0  0  0  0  0  0  0  0  0  0  0  0
  1  2  1  0  0  0  0
  1 25  1  0  0  0  0
  2  3  1  0  0  0  0
  2 26  1  0  0  0  0
  2 27  1  0  0  0  0
  3 11  1  0  0  0  0
  3  4  2  0  0  0  0
  4  5  1  0  0  0  0
  4 40  1  0  0  0  0
  5 10  2  0  0  0  0
  5  6  1  0  0  0  0
  6  7  2  0  0  0  0
  6 28  1  0  0  0  0
  7  8  1  0  0  0  0
  7 29  1  0  0  0  0
  8  9  2  0  0  0  0
  8 30  1  0  0  0  0
  9 10  1  0  0  0  0
  9 31  1  0  0  0  0
 10 11  1  0  0  0  0
 11 12  1  0  0  0  0
 12 13  1  0  0  0  0
 12 32  1  0  0  0  0
 12 33  1  0  0  0  0
 13 14  1  0  0  0  0
 13 15  1  0  0  0  0
 13 34  1  0  0  0  0
 14 35  1  0  0  0  0
 15 24  1  0  0  0  0
 15 16  2  0  0  0  0
 16 17  1  0  0  0  0
 16 36  1  0  0  0  0
 17 18  2  0  0  0  0
 17 37  1  0  0  0  0
 18 19  1  0  0  0  0
 18 23  1  0  0  0  0
 19 20  1  0  0  0  0
 19 21  1  0  0  0  0
 19 22  1  0  0  0  0
 23 24  2  0  0  0  0
 23 38  1  0  0  0  0
 24 39  1  0  0  0  0
M  CHG  1   4   1
M  END
> <s_m_source_file>
AV-unprocessed.smi

> <i_m_source_file_index>
1826

> <i_lp_mmshare_version>
43012

> <i_f3d_flags>
0

> <s_epik_input>
W2NIXTFbY0hdW2NIXVtjSF1jKGMxMiluKGMobjIpW0NIMl1bT0hdKVtDSDJdW0NASF0oW09IXSljM1tjSF1bY0hdYyhDKEYpKEYpRilbY0hdW2NIXTM=

> <s_epik_cmdline>
J2VwaWtfcHl0aG9uJywgJy1waCcsICc3LjAnLCAnLXRuJywgJzgnLCAnLW1hJywgJzIwMCcsICctbWV0YWxfYmluZGluZycsICctaW1hZScsICc8aW5maWxlLm1hZT4nLCAnLW9tYWUnLCAnPG91dGZpbGUubWFlPic=

> <r_epik_Ionization_Penalty>
1.35643

> <r_epik_Ionization_Penalty_Charging>
1.35557

> <r_epik_Ionization_Penalty_Neutral>
0.000856405

> <r_epik_State_Penalty>
1.43401

> <r_epik_Charging_Adjusted_Penalty>
2.78958

> <i_epik_Tot_Q>
1

> <i_epik_Tot_abs_Q>
1

> <r_epik_Metal_State_Penalty>
5.47166

> <b_epik_Metal_Only>
0

> <s_lp_Force_Field>
OPLS_2005

> <r_lp_Energy>
15.9337

> <b_lp_Chiralities_Consistent>
1

> <s_lp_Variant>
AV-unprocessed.smi:1826-3

> <Gold.Version>
5.8.1

> <Gold.Id.Protein>
6NUR|6NUR_protein|mol2

> <Gold.PLP.Fitness>
61.3141

> <Gold.PLP.PLP>
-53.3987

> <Gold.PLP.part.hbond>
-2.9219

> <Gold.PLP.part.metal>
0.0000

> <Gold.PLP.part.buried>
2.9438

> <Gold.PLP.part.nonpolar>
-52.5226

> <Gold.PLP.part.repulsive>
0.0382

> <Gold.PLP.ligand.clash>
0.0241

> <Gold.PLP.ligand.torsion>
2.2680

> <Gold.PLP.Chemscore.Hbond>
3.6960

> <Gold.PLP.Chemscore.CHOScore>
0.0000

> <Gold.PLP.Chemscore.Metal>
0.0000

> <Gold.Chemscore.Hbonds>
donor molecule, donor type, donor heavy atom, donor atom, acceptor molecule, acceptor atom, score
      L1  H     1    25       P1  7949  0.96
      L1  H     4    40       P1  7948  1.73
      P1  H 10752 10764       L1     1  1.00

> <Gold.PLP.Chemscore.Internal.Correction>
1.3875

> <Gold.Rescore>
     Score         DG    S(hbond)    S(metal)    S(lipo)     H(rot)  DE(clash)    DE(int)     intcor
     16.48     -19.64       2.24        0.00     122.27       2.98       0.83       2.33       ----

> <Gold.Chemscore.Fitness>
16.4782

> <Gold.Chemscore.DG>
-19.6395

> <Gold.Chemscore.ZeroCoef>
-5.4800

> <Gold.Chemscore.Hbond>
2.2421

> <Gold.Chemscore.Metal>
0.0000

> <Gold.Chemscore.Lipo>
122.2660

> <Gold.Chemscore.Internal_Hbond>
0.0000

> <Gold.Chemscore.DEClash>
0.8266

> <Gold.Chemscore.DEInternal>
2.3348

> <Gold.Chemscore.Rot>
2.9822

> <Gold.Chemscore.Internal.Correction>
   9.000000E+99

> <Gold.Chemscore.Hbonds>
donor molecule, donor type, donor heavy atom, donor atom, acceptor molecule, acceptor atom, score
      L1  H     1    25       P1  7949  0.91
      L1  H     4    40       P1  7948  0.85
      P1  H 10752 10764       L1     1  0.26

> <Gold.Chemscore.Hbond.Weighted>
-7.4888

> <Gold.Chemscore.Metal.Weighted>
-0.0000

> <Gold.Chemscore.Lipo.Weighted>
-14.3051

> <Gold.Chemscore.Internal_Hbond.Weighted>
0.0000

> <Gold.Chemscore.DEClash.Weighted>
0.8266

> <Gold.Chemscore.DEInternal.Weighted>
2.3348

> <Gold.Chemscore.Rot.Weighted>
7.6343

> <Gold.Chemscore.Internal.Correction.Weighted>
   9.000000E+99

> <Gold.Protein.RotatedTorsions>
[ 6907 6896 6895 6894 ] final   51.42 input  -60.11 | X-H torsion
[ 7974 7965 7964 7962 ] final  129.05 input  175.53 | X-H torsion
[ 8008 7997 7996 7995 ] final   76.63 input   59.86 | X-H torsion
[ 10167 10162 10161 10158 ] final  103.80 input  -65.29 | X-H torsion
[ 10718 10713 10712 10709 ] final   71.38 input   66.30 | X-H torsion
[ 10763 10752 10751 10750 ] final -111.59 input  -60.55 | X-H torsion
[ 11005 11000 10999 10996 ] final   75.21 input  -57.11 | X-H torsion

> <Gold.Protein.ActiveResidues>
 VAL166  LYS551  ARG553  GLY616  TRP617  ASP618  TYR619  PRO620  LYS621  CYS622 
 ASP623  PHE694  ASN695  SER759  ASP760  ASP761  ALA762  ILE779  LEU786  VAL792 
 PHE793  MET794  SER795  GLU796  ALA797  LYS798  CYS799  TRP800  GLU811  SER814 

> <Gold.Protein.RotatedAtoms>
  152.3124  134.7481  160.0332 H   0  0  0  0  0  0  0  0  0  0  0  0  # atno 6907 bound_to 6896
  151.7957  133.3359  159.3520 H   0  0  0  0  0  0  0  0  0  0  0  0  # atno 6908 bound_to 6896
  150.7327  134.5731  159.5945 H   0  0  0  0  0  0  0  0  0  0  0  0  # atno 6909 bound_to 6896
  145.0328  139.4031  143.5141 H   0  0  0  0  0  0  0  0  0  0  0  0  # atno 7974 bound_to 7965
  155.8301  140.3466  155.5567 H   0  0  0  0  0  0  0  0  0  0  0  0  # atno 8008 bound_to 7997
  155.8251  140.0918  157.1845 H   0  0  0  0  0  0  0  0  0  0  0  0  # atno 8009 bound_to 7997
  154.4004  140.1422  156.3534 H   0  0  0  0  0  0  0  0  0  0  0  0  # atno 8010 bound_to 7997
  139.7231  144.7053  151.0840 H   0  0  0  0  0  0  0  0  0  0  0  0  # atno 10167 bound_to 10162
  157.6449  130.9525  150.0782 H   0  0  0  0  0  0  0  0  0  0  0  0  # atno 10718 bound_to 10713
  154.8308  135.4522  154.1062 H   0  0  0  0  0  0  0  0  0  0  0  0  # atno 10763 bound_to 10752
  153.2337  135.6908  153.7867 H   0  0  0  0  0  0  0  0  0  0  0  0  # atno 10764 bound_to 10752
  153.7240  135.3337  155.3248 H   0  0  0  0  0  0  0  0  0  0  0  0  # atno 10765 bound_to 10752
  139.9354  134.7499  156.1243 H   0  0  0  0  0  0  0  0  0  0  0  0  # atno 11005 bound_to 11000
  146.3500  139.9887  142.8688 LP  0  0  0  0  0  0  0  0  0  0  0  0  # atno 17320 bound_to 7965
  145.1748  140.9738  143.4300 LP  0  0  0  0  0  0  0  0  0  0  0  0  # atno 17321 bound_to 7965
  140.7757  143.5140  150.9618 LP  0  0  0  0  0  0  0  0  0  0  0  0  # atno 17342 bound_to 10162
  139.8827  143.7052  152.3155 LP  0  0  0  0  0  0  0  0  0  0  0  0  # atno 17343 bound_to 10162
  156.1766  130.3648  149.9092 LP  0  0  0  0  0  0  0  0  0  0  0  0  # atno 17370 bound_to 10713
  156.7055  130.8949  151.3604 LP  0  0  0  0  0  0  0  0  0  0  0  0  # atno 17371 bound_to 10713
  141.0965  133.6693  156.2657 LP  0  0  0  0  0  0  0  0  0  0  0  0  # atno 17394 bound_to 11000
  140.6089  134.5478  157.5530 LP  0  0  0  0  0  0  0  0  0  0  0  0  # atno 17395 bound_to 11000

$$$$
