AV-unprocessed.smi:3053|AV-procd|sdf|11638|dock1
  -GOLD-   2272017 33D 1   1.00000     0.00000
 Structure written by MMmdl.
 31 32  0  0  0  0  0  0  0  0  1 V2000
  152.3832  143.8759  161.7949 C   0  0  0  0  0  0  0  0  0  0  0  0
  151.9743  143.9042  160.3622 C   0  0  0  0  0  0  0  0  0  0  0  0
  151.9279  142.8191  159.5853 N   0  0  0  0  0  0  0  0  0  0  0  0
  151.5038  143.1066  158.2844 C   0  0  0  0  0  0  0  0  0  0  0  0
  151.3518  141.9972  157.2847 C   0  0  0  0  0  0  0  0  0  0  0  0
  149.9410  141.3764  157.2626 C   0  0  0  0  0  0  0  0  0  0  0  0
  149.1776  141.7739  156.0815 N   0  0  0  0  0  0  0  0  0  0  0  0
  149.2737  141.2145  154.8650 C   0  0  0  0  0  0  0  0  0  0  0  0
  150.0600  140.3044  154.5981 O   0  0  0  0  0  0  0  0  0  0  0  0
  148.3385  141.7762  153.7855 C   0  0  1  0  0  0  0  0  0  0  0  0
  147.2878  140.7626  153.3040 C   0  0  0  0  0  0  0  0  0  0  0  0
  146.0389  141.3739  153.7156 N   0  0  0  0  0  0  0  0  0  0  0  0
  146.1992  142.5684  154.2885 C   0  0  0  0  0  0  0  0  0  0  0  0
  145.3012  143.2950  154.7059 O   0  0  0  0  0  0  0  0  0  0  0  0
  147.5065  142.8365  154.3292 N   0  0  0  0  0  0  0  0  0  0  0  0
  151.2460  144.4397  158.0812 C   0  0  0  0  0  0  0  0  0  0  0  0
  151.5019  145.3780  159.5259 S   0  0  0  0  0  0  0  0  0  0  0  0
  152.4391  142.8491  162.1585 H   0  0  0  0  0  0  0  0  0  0  0  0
  151.6585  144.4209  162.3998 H   0  0  0  0  0  0  0  0  0  0  0  0
  153.3607  144.3433  161.9123 H   0  0  0  0  0  0  0  0  0  0  0  0
  151.5945  142.3649  156.2869 H   0  0  0  0  0  0  0  0  0  0  0  0
  152.0803  141.2128  157.4921 H   0  0  0  0  0  0  0  0  0  0  0  0
  150.0228  140.2894  157.2577 H   0  0  0  0  0  0  0  0  0  0  0  0
  149.4018  141.6346  158.1755 H   0  0  0  0  0  0  0  0  0  0  0  0
  148.5095  142.5211  156.2047 H   0  0  0  0  0  0  0  0  0  0  0  0
  148.9122  142.1703  152.9450 H   0  0  0  0  0  0  0  0  0  0  0  0
  147.3086  140.6459  152.2200 H   0  0  0  0  0  0  0  0  0  0  0  0
  147.3930  139.7765  153.7592 H   0  0  0  0  0  0  0  0  0  0  0  0
  145.1420  140.9347  153.5660 H   0  0  0  0  0  0  0  0  0  0  0  0
  147.8956  143.6776  154.7294 H   0  0  0  0  0  0  0  0  0  0  0  0
  150.9051  144.9214  157.1770 H   0  0  0  0  0  0  0  0  0  0  0  0
  1  2  1  0  0  0  0
  1 18  1  0  0  0  0
  1 19  1  0  0  0  0
  1 20  1  0  0  0  0
  2 17  1  0  0  0  0
  2  3  2  0  0  0  0
  3  4  1  0  0  0  0
  4  5  1  0  0  0  0
  4 16  2  0  0  0  0
  5  6  1  0  0  0  0
  5 21  1  0  0  0  0
  5 22  1  0  0  0  0
  6  7  1  0  0  0  0
  6 23  1  0  0  0  0
  6 24  1  0  0  0  0
  7  8  1  0  0  0  0
  7 25  1  0  0  0  0
  8  9  2  0  0  0  0
  8 10  1  0  0  0  0
 10 15  1  0  0  0  0
 10 11  1  0  0  0  0
 10 26  1  0  0  0  0
 11 12  1  0  0  0  0
 11 27  1  0  0  0  0
 11 28  1  0  0  0  0
 12 13  1  0  0  0  0
 12 29  1  0  0  0  0
 13 14  2  0  0  0  0
 13 15  1  0  0  0  0
 15 30  1  0  0  0  0
 16 17  1  0  0  0  0
 16 31  1  0  0  0  0
M  END
> <s_m_source_file>
AV-unprocessed.smi

> <i_m_source_file_index>
3053

> <i_lp_mmshare_version>
43012

> <i_f3d_flags>
0

> <s_epik_input>
W0NIM11jMW5jKFtjSF1zMSlbQ0gyXVtDSDJdW05IXUMoPU8pW0NAQEhdMltDSDJdW05IXUMoPU8pW05IXTI=

> <s_epik_cmdline>
J2VwaWtfcHl0aG9uJywgJy1waCcsICc3LjAnLCAnLXRuJywgJzgnLCAnLW1hJywgJzIwMCcsICctbWV0YWxfYmluZGluZycsICctaW1hZScsICc8aW5maWxlLm1hZT4nLCAnLW9tYWUnLCAnPG91dGZpbGUubWFlPic=

> <r_epik_Ionization_Penalty>
0.00110852

> <r_epik_Ionization_Penalty_Charging>
0

> <r_epik_Ionization_Penalty_Neutral>
0.00110852

> <r_epik_State_Penalty>
0.000695988

> <r_epik_Charging_Adjusted_Penalty>
0.000695988

> <i_epik_Tot_Q>
0

> <i_epik_Tot_abs_Q>
0

> <r_epik_Metal_State_Penalty>
-0

> <b_epik_Metal_Only>
0

> <s_lp_Force_Field>
OPLS_2005

> <r_lp_Energy>
23.8459

> <b_lp_Chiralities_Consistent>
1

> <s_lp_Variant>
AV-unprocessed.smi:3053-2

> <Gold.Version>
5.8.1

> <Gold.Id.Protein>
6NUR|6NUR_protein|mol2

> <Gold.PLP.Fitness>
48.5306

> <Gold.PLP.PLP>
-37.7142

> <Gold.PLP.part.hbond>
-4.0000

> <Gold.PLP.part.metal>
0.0000

> <Gold.PLP.part.buried>
-4.9088

> <Gold.PLP.part.nonpolar>
-29.3192

> <Gold.PLP.part.repulsive>
0.5704

> <Gold.PLP.ligand.clash>
0.0000

> <Gold.PLP.ligand.torsion>
0.8949

> <Gold.PLP.Chemscore.Hbond>
3.1893

> <Gold.PLP.Chemscore.CHOScore>
0.9943

> <Gold.PLP.Chemscore.Metal>
0.0000

> <Gold.Chemscore.Hbonds>
donor molecule, donor type, donor heavy atom, donor atom, acceptor molecule, acceptor atom, score
      L1  H     7    25       P1  8028  0.18
      L1  H    12    29       P1 10175  1.00
      L1  H    15    30       P1  8028  1.00
      P1  H  7989  7998       L1     9  0.99
      L1  C    16    31       P1  8028  1.00

> <Gold.PLP.Chemscore.Internal.Correction>
0.0554

> <Gold.Rescore>
     Score         DG    S(hbond)    S(metal)    S(lipo)     H(rot)  DE(clash)    DE(int)     intcor
     17.43     -19.29       2.49        0.00      91.10       2.02       1.10       0.76       ----

> <Gold.Chemscore.Fitness>
17.4328

> <Gold.Chemscore.DG>
-19.2850

> <Gold.Chemscore.ZeroCoef>
-5.4800

> <Gold.Chemscore.Hbond>
2.4942

> <Gold.Chemscore.Metal>
0.0000

> <Gold.Chemscore.Lipo>
91.0959

> <Gold.Chemscore.Internal_Hbond>
0.0000

> <Gold.Chemscore.DEClash>
1.0965

> <Gold.Chemscore.DEInternal>
0.7557

> <Gold.Chemscore.Rot>
2.0250

> <Gold.Chemscore.Internal.Correction>
   9.000000E+99

> <Gold.Chemscore.Hbonds>
donor molecule, donor type, donor heavy atom, donor atom, acceptor molecule, acceptor atom, score
      L1  H     7    25       P1  8028  0.18
      L1  H    12    29       P1 10175  0.72
      L1  H    15    30       P1  8028  0.50
      P1  H  7989  7998       L1     9  0.80

> <Gold.Chemscore.Hbond.Weighted>
-8.3308

> <Gold.Chemscore.Metal.Weighted>
-0.0000

> <Gold.Chemscore.Lipo.Weighted>
-10.6582

> <Gold.Chemscore.Internal_Hbond.Weighted>
0.0000

> <Gold.Chemscore.DEClash.Weighted>
1.0965

> <Gold.Chemscore.DEInternal.Weighted>
0.7557

> <Gold.Chemscore.Rot.Weighted>
5.1840

> <Gold.Chemscore.Internal.Correction.Weighted>
   9.000000E+99

> <Gold.Protein.RotatedTorsions>
[ 6907 6896 6895 6894 ] final   59.12 input  -60.11 | X-H torsion
[ 7974 7965 7964 7962 ] final -122.74 input  175.53 | X-H torsion
[ 8008 7997 7996 7995 ] final  -13.16 input   59.86 | X-H torsion
[ 10167 10162 10161 10158 ] final   37.64 input  -65.29 | X-H torsion
[ 10718 10713 10712 10709 ] final -128.70 input   66.30 | X-H torsion
[ 10763 10752 10751 10750 ] final   74.02 input  -60.55 | X-H torsion
[ 11005 11000 10999 10996 ] final  -22.08 input  -57.11 | X-H torsion

> <Gold.Protein.ActiveResidues>
 VAL166  LYS551  ARG553  GLY616  TRP617  ASP618  TYR619  PRO620  LYS621  CYS622 
 ASP623  PHE694  ASN695  SER759  ASP760  ASP761  ALA762  ILE779  LEU786  VAL792 
 PHE793  MET794  SER795  GLU796  ALA797  LYS798  CYS799  TRP800  GLU811  SER814 

> <Gold.Protein.RotatedAtoms>
  152.3886  134.6477  160.0115 H   0  0  0  0  0  0  0  0  0  0  0  0  # atno 6907 bound_to 6896
  151.6718  133.3308  159.3206 H   0  0  0  0  0  0  0  0  0  0  0  0  # atno 6908 bound_to 6896
  150.7807  134.6792  159.6479 H   0  0  0  0  0  0  0  0  0  0  0  0  # atno 6909 bound_to 6896
  145.0262  140.8029  143.4351 H   0  0  0  0  0  0  0  0  0  0  0  0  # atno 7974 bound_to 7965
  154.5316  140.2257  155.8795 H   0  0  0  0  0  0  0  0  0  0  0  0  # atno 8008 bound_to 7997
  156.1769  140.3109  155.9039 H   0  0  0  0  0  0  0  0  0  0  0  0  # atno 8009 bound_to 7997
  155.3440  140.0452  157.3036 H   0  0  0  0  0  0  0  0  0  0  0  0  # atno 8010 bound_to 7997
  140.4013  144.1720  150.6134 H   0  0  0  0  0  0  0  0  0  0  0  0  # atno 10167 bound_to 10162
  156.1975  130.6836  151.0500 H   0  0  0  0  0  0  0  0  0  0  0  0  # atno 10718 bound_to 10713
  153.0559  135.5041  154.7980 H   0  0  0  0  0  0  0  0  0  0  0  0  # atno 10763 bound_to 10752
  154.6806  135.2967  154.9620 H   0  0  0  0  0  0  0  0  0  0  0  0  # atno 10764 bound_to 10752
  154.0408  135.6717  153.4842 H   0  0  0  0  0  0  0  0  0  0  0  0  # atno 10765 bound_to 10752
  140.8623  133.7779  156.0088 H   0  0  0  0  0  0  0  0  0  0  0  0  # atno 11005 bound_to 11000
  145.1831  139.2341  143.5282 LP  0  0  0  0  0  0  0  0  0  0  0  0  # atno 17320 bound_to 7965
  146.3492  140.1609  142.8591 LP  0  0  0  0  0  0  0  0  0  0  0  0  # atno 17321 bound_to 7965
  140.4737  143.2404  151.9053 LP  0  0  0  0  0  0  0  0  0  0  0  0  # atno 17342 bound_to 10162
  139.4784  144.5343  151.8621 LP  0  0  0  0  0  0  0  0  0  0  0  0  # atno 17343 bound_to 10162
  157.6966  131.0791  150.6949 LP  0  0  0  0  0  0  0  0  0  0  0  0  # atno 17370 bound_to 10713
  156.7006  130.4622  149.5574 LP  0  0  0  0  0  0  0  0  0  0  0  0  # atno 17371 bound_to 10713
  140.8669  134.2773  157.5209 LP  0  0  0  0  0  0  0  0  0  0  0  0  # atno 17394 bound_to 11000
  139.8707  134.9547  156.4184 LP  0  0  0  0  0  0  0  0  0  0  0  0  # atno 17395 bound_to 11000

$$$$
