AV-unprocessed.smi:3030|AV-procd|sdf|11537|dock5
  -GOLD-   2272016483D 1   1.00000     0.00000
 Structure written by MMmdl.
 52 53  0  0  0  0  0  0  0  0  1 V2000
  153.3174  140.0970  159.5456 C   0  0  0  0  0  0  0  0  0  0  0  0
  153.6193  141.3252  160.4113 C   0  0  0  0  0  0  0  0  0  0  0  0
  152.6999  142.4196  160.1347 N   0  0  0  0  0  0  0  0  0  0  0  0
  152.7530  143.6091  160.8542 C   0  0  0  0  0  0  0  0  0  0  0  0
  151.8927  144.6321  160.6859 C   0  0  0  0  0  0  0  0  0  0  0  0
  150.8128  144.5126  159.6852 C   0  0  0  0  0  0  0  0  0  0  0  0
  150.0066  145.4257  159.5079 O   0  0  0  0  0  0  0  0  0  0  0  0
  150.7572  143.2419  158.9153 C   0  0  0  0  0  0  0  0  0  0  0  0
  149.7217  143.1271  157.9738 N   0  0  0  0  0  0  0  0  0  0  0  0
  148.8156  142.1435  157.8260 C   0  0  0  0  0  0  0  0  0  0  0  0
  148.7608  141.1088  158.4902 O   0  0  0  0  0  0  0  0  0  0  0  0
  147.9638  142.4266  156.8307 N   0  0  0  0  0  0  0  0  0  0  0  0
  146.8577  141.5780  156.3838 C   0  0  2  0  0  0  0  0  0  0  0  0
  147.3948  140.2917  155.7221 C   0  0  0  0  0  0  0  0  0  0  0  0
  148.0633  140.5605  154.3620 C   0  0  1  0  0  0  0  0  0  0  0  0
  148.5763  139.2629  153.7216 C   0  0  0  0  0  0  0  0  0  0  0  0
  147.0831  141.2978  153.4366 C   0  0  0  0  0  0  0  0  0  0  0  0
  146.5672  142.5977  154.0738 C   0  0  0  0  0  0  0  0  0  0  0  0
  145.8908  142.3583  155.4475 C   0  0  2  0  0  0  0  0  0  0  0  0
  145.3330  143.6715  156.0796 C   0  0  0  0  0  0  0  0  0  0  0  0
  144.6188  143.4257  157.4232 C   0  0  0  0  0  0  0  0  0  0  0  0
  144.3717  144.4228  155.1385 C   0  0  0  0  0  0  0  0  0  0  0  0
  151.6835  142.2885  159.1908 C   0  0  0  0  0  0  0  0  0  0  0  0
  154.0146  139.2882  159.7642 H   0  0  0  0  0  0  0  0  0  0  0  0
  153.4021  140.3326  158.4845 H   0  0  0  0  0  0  0  0  0  0  0  0
  152.3087  139.7251  159.7281 H   0  0  0  0  0  0  0  0  0  0  0  0
  153.5594  141.0584  161.4672 H   0  0  0  0  0  0  0  0  0  0  0  0
  154.6439  141.6570  160.2384 H   0  0  0  0  0  0  0  0  0  0  0  0
  153.5575  143.6589  161.5737 H   0  0  0  0  0  0  0  0  0  0  0  0
  151.9742  145.5393  161.2668 H   0  0  0  0  0  0  0  0  0  0  0  0
  149.6754  143.8848  157.3079 H   0  0  0  0  0  0  0  0  0  0  0  0
  148.0875  143.2992  156.3381 H   0  0  0  0  0  0  0  0  0  0  0  0
  146.2903  141.2558  157.2576 H   0  0  0  0  0  0  0  0  0  0  0  0
  148.0970  139.7940  156.3924 H   0  0  0  0  0  0  0  0  0  0  0  0
  146.5672  139.5943  155.5837 H   0  0  0  0  0  0  0  0  0  0  0  0
  148.9271  141.2067  154.5240 H   0  0  0  0  0  0  0  0  0  0  0  0
  147.7608  138.5641  153.5323 H   0  0  0  0  0  0  0  0  0  0  0  0
  149.2980  138.7652  154.3699 H   0  0  0  0  0  0  0  0  0  0  0  0
  149.0713  139.4625  152.7709 H   0  0  0  0  0  0  0  0  0  0  0  0
  147.5686  141.5265  152.4872 H   0  0  0  0  0  0  0  0  0  0  0  0
  146.2380  140.6495  153.2011 H   0  0  0  0  0  0  0  0  0  0  0  0
  147.3915  143.3037  154.1827 H   0  0  0  0  0  0  0  0  0  0  0  0
  145.8670  143.0500  153.3730 H   0  0  0  0  0  0  0  0  0  0  0  0
  145.0352  141.7048  155.2678 H   0  0  0  0  0  0  0  0  0  0  0  0
  146.1691  144.3433  156.2775 H   0  0  0  0  0  0  0  0  0  0  0  0
  143.8141  142.6977  157.3169 H   0  0  0  0  0  0  0  0  0  0  0  0
  144.1822  144.3462  157.8117 H   0  0  0  0  0  0  0  0  0  0  0  0
  145.3032  143.0628  158.1896 H   0  0  0  0  0  0  0  0  0  0  0  0
  143.5531  143.7811  154.8115 H   0  0  0  0  0  0  0  0  0  0  0  0
  144.8794  144.8022  154.2526 H   0  0  0  0  0  0  0  0  0  0  0  0
  143.9332  145.2890  155.6347 H   0  0  0  0  0  0  0  0  0  0  0  0
  151.7029  141.3301  158.6968 H   0  0  0  0  0  0  0  0  0  0  0  0
  1  2  1  0  0  0  0
  1 24  1  0  0  0  0
  1 25  1  0  0  0  0
  1 26  1  0  0  0  0
  2  3  1  0  0  0  0
  2 27  1  0  0  0  0
  2 28  1  0  0  0  0
  3 23  1  0  0  0  0
  3  4  1  0  0  0  0
  4  5  2  0  0  0  0
  4 29  1  0  0  0  0
  5  6  1  0  0  0  0
  5 30  1  0  0  0  0
  6  7  2  0  0  0  0
  6  8  1  0  0  0  0
  8  9  1  0  0  0  0
  8 23  2  0  0  0  0
  9 10  1  0  0  0  0
  9 31  1  0  0  0  0
 10 11  2  0  0  0  0
 10 12  1  0  0  0  0
 12 13  1  0  0  0  0
 12 32  1  0  0  0  0
 13 19  1  0  0  0  0
 13 14  1  0  0  0  0
 13 33  1  0  0  0  0
 14 15  1  0  0  0  0
 14 34  1  0  0  0  0
 14 35  1  0  0  0  0
 15 16  1  0  0  0  0
 15 17  1  0  0  0  0
 15 36  1  0  0  0  0
 16 37  1  0  0  0  0
 16 38  1  0  0  0  0
 16 39  1  0  0  0  0
 17 18  1  0  0  0  0
 17 40  1  0  0  0  0
 17 41  1  0  0  0  0
 18 19  1  0  0  0  0
 18 42  1  0  0  0  0
 18 43  1  0  0  0  0
 19 20  1  0  0  0  0
 19 44  1  0  0  0  0
 20 21  1  0  0  0  0
 20 22  1  0  0  0  0
 20 45  1  0  0  0  0
 21 46  1  0  0  0  0
 21 47  1  0  0  0  0
 21 48  1  0  0  0  0
 22 49  1  0  0  0  0
 22 50  1  0  0  0  0
 22 51  1  0  0  0  0
 23 52  1  0  0  0  0
M  END
> <s_m_source_file>
AV-unprocessed.smi

> <i_m_source_file_index>
3030

> <i_lp_mmshare_version>
43012

> <i_f3d_flags>
0

> <s_epik_input>
W0NIM11bQ0gyXW4xW2NIXVtjSF1jKD1PKWMoW2NIXTEpW05IXUMoPU8pW05IXVtDQEBIXTJbQ0gyXVtDQEBIXShbQ0gzXSlbQ0gyXVtDSDJdW0NASF0yW0NIXShbQ0gzXSlbQ0gzXQ==

> <s_epik_cmdline>
J2VwaWtfcHl0aG9uJywgJy1waCcsICc3LjAnLCAnLXRuJywgJzgnLCAnLW1hJywgJzIwMCcsICctbWV0YWxfYmluZGluZycsICctaW1hZScsICc8aW5maWxlLm1hZT4nLCAnLW9tYWUnLCAnPG91dGZpbGUubWFlPic=

> <r_lp_tautomer_probability>
1

> <r_epik_Ionization_Penalty>
0.00147933

> <r_epik_Ionization_Penalty_Charging>
0.00145753

> <r_epik_Ionization_Penalty_Neutral>
2.17987e-05

> <r_epik_State_Penalty>
0.00097457

> <r_epik_Charging_Adjusted_Penalty>
0.0024321

> <i_epik_Tot_Q>
0

> <i_epik_Tot_abs_Q>
0

> <r_epik_Metal_State_Penalty>
-0

> <b_epik_Metal_Only>
0

> <s_lp_Force_Field>
OPLS_2005

> <r_lp_Energy>
9.06052

> <b_lp_Chiralities_Consistent>
1

> <s_lp_Variant>
AV-unprocessed.smi:3030-5

> <Gold.Version>
5.8.1

> <Gold.Id.Protein>
6NUR|6NUR_protein|mol2

> <Gold.PLP.Fitness>
46.7264

> <Gold.PLP.PLP>
-41.8275

> <Gold.PLP.part.hbond>
-4.0237

> <Gold.PLP.part.metal>
0.0000

> <Gold.PLP.part.buried>
-4.2509

> <Gold.PLP.part.nonpolar>
-33.7510

> <Gold.PLP.part.repulsive>
0.3650

> <Gold.PLP.ligand.clash>
0.0000

> <Gold.PLP.ligand.torsion>
0.5857

> <Gold.PLP.Chemscore.Hbond>
2.0000

> <Gold.PLP.Chemscore.CHOScore>
0.0000

> <Gold.PLP.Chemscore.Metal>
0.0000

> <Gold.Chemscore.Hbonds>
donor molecule, donor type, donor heavy atom, donor atom, acceptor molecule, acceptor atom, score
      L1  H     9    31       P1  8028  1.00
      L1  H    12    32       P1  8028  1.00

> <Gold.PLP.Chemscore.Internal.Correction>
0.0704

> <Gold.Rescore>
     Score         DG    S(hbond)    S(metal)    S(lipo)     H(rot)  DE(clash)    DE(int)     intcor
     18.38     -19.49       1.49        0.00     104.94       1.27       0.54       0.56       ----

> <Gold.Chemscore.Fitness>
18.3828

> <Gold.Chemscore.DG>
-19.4877

> <Gold.Chemscore.ZeroCoef>
-5.4800

> <Gold.Chemscore.Hbond>
1.4900

> <Gold.Chemscore.Metal>
0.0000

> <Gold.Chemscore.Lipo>
104.9446

> <Gold.Chemscore.Internal_Hbond>
0.0000

> <Gold.Chemscore.DEClash>
0.5439

> <Gold.Chemscore.DEInternal>
0.5610

> <Gold.Chemscore.Rot>
1.2685

> <Gold.Chemscore.Internal.Correction>
   9.000000E+99

> <Gold.Chemscore.Hbonds>
donor molecule, donor type, donor heavy atom, donor atom, acceptor molecule, acceptor atom, score
      L1  H     9    31       P1  8028  0.61
      L1  H    12    32       P1  8028  0.26

> <Gold.Chemscore.Hbond.Weighted>
-4.9766

> <Gold.Chemscore.Metal.Weighted>
-0.0000

> <Gold.Chemscore.Lipo.Weighted>
-12.2785

> <Gold.Chemscore.Internal_Hbond.Weighted>
0.0000

> <Gold.Chemscore.DEClash.Weighted>
0.5439

> <Gold.Chemscore.DEInternal.Weighted>
0.5610

> <Gold.Chemscore.Rot.Weighted>
3.2474

> <Gold.Chemscore.Internal.Correction.Weighted>
   9.000000E+99

> <Gold.Protein.RotatedTorsions>
[ 6907 6896 6895 6894 ] final   90.27 input  -60.11 | X-H torsion
[ 7974 7965 7964 7962 ] final   -4.65 input  175.53 | X-H torsion
[ 8008 7997 7996 7995 ] final   38.35 input   59.86 | X-H torsion
[ 10167 10162 10161 10158 ] final  -28.27 input  -65.29 | X-H torsion
[ 10718 10713 10712 10709 ] final   93.03 input   66.30 | X-H torsion
[ 10763 10752 10751 10750 ] final  120.08 input  -60.55 | X-H torsion
[ 11005 11000 10999 10996 ] final   48.52 input  -57.11 | X-H torsion

> <Gold.Protein.ActiveResidues>
 VAL166  LYS551  ARG553  GLY616  TRP617  ASP618  TYR619  PRO620  LYS621  CYS622 
 ASP623  PHE694  ASN695  SER759  ASP760  ASP761  ALA762  ILE779  LEU786  VAL792 
 PHE793  MET794  SER795  GLU796  ALA797  LYS798  CYS799  TRP800  GLU811  SER814 

> <Gold.Protein.RotatedAtoms>
  152.5443  134.1838  159.8645 H   0  0  0  0  0  0  0  0  0  0  0  0  # atno 6907 bound_to 6896
  151.1838  133.4702  159.2602 H   0  0  0  0  0  0  0  0  0  0  0  0  # atno 6908 bound_to 6896
  151.1152  135.0060  159.8568 H   0  0  0  0  0  0  0  0  0  0  0  0  # atno 6909 bound_to 6896
  146.2368  140.1903  142.8332 H   0  0  0  0  0  0  0  0  0  0  0  0  # atno 7974 bound_to 7965
  155.2187  140.3329  155.4318 H   0  0  0  0  0  0  0  0  0  0  0  0  # atno 8008 bound_to 7997
  156.2342  140.1864  156.7212 H   0  0  0  0  0  0  0  0  0  0  0  0  # atno 8009 bound_to 7997
  154.6029  140.0620  156.9378 H   0  0  0  0  0  0  0  0  0  0  0  0  # atno 8010 bound_to 7997
  140.7271  143.4024  151.1243 H   0  0  0  0  0  0  0  0  0  0  0  0  # atno 10167 bound_to 10162
  157.6956  131.0464  150.3971 H   0  0  0  0  0  0  0  0  0  0  0  0  # atno 10718 bound_to 10713
  153.5929  135.3462  155.2917 H   0  0  0  0  0  0  0  0  0  0  0  0  # atno 10763 bound_to 10752
  154.8649  135.4209  154.2496 H   0  0  0  0  0  0  0  0  0  0  0  0  # atno 10764 bound_to 10752
  153.3308  135.7044  153.7021 H   0  0  0  0  0  0  0  0  0  0  0  0  # atno 10765 bound_to 10752
  140.1183  134.4863  155.8618 H   0  0  0  0  0  0  0  0  0  0  0  0  # atno 11005 bound_to 11000
  144.9863  140.8506  143.5366 LP  0  0  0  0  0  0  0  0  0  0  0  0  # atno 17320 bound_to 7965
  145.1903  139.2305  143.5246 LP  0  0  0  0  0  0  0  0  0  0  0  0  # atno 17321 bound_to 7965
  139.7646  143.8585  152.3108 LP  0  0  0  0  0  0  0  0  0  0  0  0  # atno 17342 bound_to 10162
  139.8482  144.7177  150.9246 LP  0  0  0  0  0  0  0  0  0  0  0  0  # atno 17343 bound_to 10162
  156.4369  130.3983  149.6723 LP  0  0  0  0  0  0  0  0  0  0  0  0  # atno 17370 bound_to 10713
  156.3921  130.7632  151.2634 LP  0  0  0  0  0  0  0  0  0  0  0  0  # atno 17371 bound_to 10713
  141.2146  133.6751  156.6840 LP  0  0  0  0  0  0  0  0  0  0  0  0  # atno 17394 bound_to 11000
  140.2998  134.8172  157.4088 LP  0  0  0  0  0  0  0  0  0  0  0  0  # atno 17395 bound_to 11000

$$$$
