AV-unprocessed.smi:275|AV-procd|sdf|2062|dock3
  -GOLD-   2262021313D 1   1.00000     0.00000
 Structure written by MMmdl.
 65 69  0  0  0  0  0  0  0  0  1 V2000
  147.8275  140.8967  156.5333 C   0  0  0  0  0  0  0  0  0  0  0  0
  148.7883  141.8896  155.8459 C   0  0  0  0  0  0  0  0  0  0  0  0
  148.5691  141.8628  154.3243 C   0  0  0  0  0  0  0  0  0  0  0  0
  150.2885  141.7338  156.1812 C   0  0  2  0  0  0  0  0  0  0  0  0
  150.6366  140.5004  156.8766 N   0  0  0  0  0  0  0  0  0  0  0  0
  150.9432  139.3913  156.0444 C   0  0  0  0  0  0  0  0  0  0  0  0
  152.0173  139.5325  155.2275 N   0  0  0  0  0  0  0  0  0  0  0  0
  152.4000  138.5475  154.4102 C   0  0  0  0  0  0  0  0  0  0  0  0
  151.8547  137.3424  154.2463 N   0  0  0  0  0  0  0  0  0  0  0  0
  150.7741  137.1822  155.0602 C   0  0  0  0  0  0  0  0  0  0  0  0
  150.2561  138.1410  155.9781 C   0  0  0  0  0  0  0  0  0  0  0  0
  149.1482  137.6083  156.6295 N   0  0  0  0  0  0  0  0  0  0  0  0
  149.0206  136.4105  156.1283 C   0  0  0  0  0  0  0  0  0  0  0  0
  149.9514  136.0763  155.1722 N   0  0  0  0  0  0  0  0  0  0  0  0
  150.0451  134.8229  154.4443 C   0  0  0  0  0  0  0  0  0  0  0  0
  150.0439  133.5803  155.3695 C   0  0  2  0  0  0  0  0  0  0  0  0
  151.2269  133.5789  156.3681 C   0  0  0  0  0  0  0  0  0  0  0  0
  151.0124  132.6630  157.4225 O   0  0  0  0  0  0  0  0  0  0  0  0
  149.9589  132.2629  154.5579 C   0  0  2  0  0  0  0  0  0  0  0  0
  148.8958  132.2508  153.4735 C   0  0  0  0  0  0  0  0  0  0  0  0
  148.7314  130.7599  153.1985 C   0  0  0  0  0  0  0  0  0  0  0  0
  148.9870  130.1082  154.4376 O   0  0  0  0  0  0  0  0  0  0  0  0
  149.5373  131.0336  155.3697 C   0  0  0  0  0  0  0  0  0  0  0  0
  151.7802  141.1455  157.5044 C   0  0  0  0  0  0  0  0  0  0  0  0
  151.0329  142.4791  157.3162 C   0  0  0  0  0  0  0  0  0  0  0  0
  151.8805  143.6694  156.8348 C   0  0  0  0  0  0  0  0  0  0  0  0
  152.8043  144.2381  157.9235 C   0  0  0  0  0  0  0  0  0  0  0  0
  152.0000  144.6798  159.1505 C   0  0  0  0  0  0  0  0  0  0  0  0
  151.1173  143.5369  159.6631 C   0  0  0  0  0  0  0  0  0  0  0  0
  150.2316  142.9603  158.5446 C   0  0  0  0  0  0  0  0  0  0  0  0
  148.0927  139.8600  156.3245 H   0  0  0  0  0  0  0  0  0  0  0  0
  146.8080  141.0428  156.1761 H   0  0  0  0  0  0  0  0  0  0  0  0
  147.7896  141.0289  157.6112 H   0  0  0  0  0  0  0  0  0  0  0  0
  148.4869  142.8860  156.1713 H   0  0  0  0  0  0  0  0  0  0  0  0
  148.8149  140.8872  153.9042 H   0  0  0  0  0  0  0  0  0  0  0  0
  149.1893  142.6060  153.8226 H   0  0  0  0  0  0  0  0  0  0  0  0
  147.5312  142.0798  154.0707 H   0  0  0  0  0  0  0  0  0  0  0  0
  150.8856  141.8414  155.2749 H   0  0  0  0  0  0  0  0  0  0  0  0
  153.2669  138.7561  153.8008 H   0  0  0  0  0  0  0  0  0  0  0  0
  148.2341  135.7371  156.4370 H   0  0  0  0  0  0  0  0  0  0  0  0
  149.2077  134.7848  153.7476 H   0  0  0  0  0  0  0  0  0  0  0  0
  150.9505  134.8421  153.8363 H   0  0  0  0  0  0  0  0  0  0  0  0
  149.1377  133.6400  155.9743 H   0  0  0  0  0  0  0  0  0  0  0  0
  152.1617  133.3252  155.8682 H   0  0  0  0  0  0  0  0  0  0  0  0
  151.3775  134.5712  156.7928 H   0  0  0  0  0  0  0  0  0  0  0  0
  150.7215  131.8426  157.0539 H   0  0  0  0  0  0  0  0  0  0  0  0
  150.9242  132.0565  154.0926 H   0  0  0  0  0  0  0  0  0  0  0  0
  147.9603  132.6671  153.8502 H   0  0  0  0  0  0  0  0  0  0  0  0
  149.1822  132.8075  152.5811 H   0  0  0  0  0  0  0  0  0  0  0  0
  147.7415  130.5137  152.8138 H   0  0  0  0  0  0  0  0  0  0  0  0
  149.4715  130.4233  152.4714 H   0  0  0  0  0  0  0  0  0  0  0  0
  150.3694  130.5886  155.9158 H   0  0  0  0  0  0  0  0  0  0  0  0
  148.7609  131.2934  156.0907 H   0  0  0  0  0  0  0  0  0  0  0  0
  151.9274  140.8498  158.5432 H   0  0  0  0  0  0  0  0  0  0  0  0
  152.7049  141.0807  156.9305 H   0  0  0  0  0  0  0  0  0  0  0  0
  152.4914  143.3768  155.9800 H   0  0  0  0  0  0  0  0  0  0  0  0
  151.2280  144.4630  156.4683 H   0  0  0  0  0  0  0  0  0  0  0  0
  153.5357  143.4835  158.2150 H   0  0  0  0  0  0  0  0  0  0  0  0
  153.3703  145.0820  157.5282 H   0  0  0  0  0  0  0  0  0  0  0  0
  152.6725  145.0182  159.9393 H   0  0  0  0  0  0  0  0  0  0  0  0
  151.3742  145.5336  158.8878 H   0  0  0  0  0  0  0  0  0  0  0  0
  151.7480  142.7474  160.0733 H   0  0  0  0  0  0  0  0  0  0  0  0
  150.4946  143.8898  160.4856 H   0  0  0  0  0  0  0  0  0  0  0  0
  149.4970  143.7084  158.2441 H   0  0  0  0  0  0  0  0  0  0  0  0
  149.6698  142.1335  158.9775 H   0  0  0  0  0  0  0  0  0  0  0  0
  1  2  1  0  0  0  0
  1 31  1  0  0  0  0
  1 32  1  0  0  0  0
  1 33  1  0  0  0  0
  2  3  1  0  0  0  0
  2  4  1  0  0  0  0
  2 34  1  0  0  0  0
  3 35  1  0  0  0  0
  3 36  1  0  0  0  0
  3 37  1  0  0  0  0
  4 25  1  0  0  0  0
  4  5  1  0  0  0  0
  4 38  1  0  0  0  0
  5  6  1  0  0  0  0
  5 24  1  0  0  0  0
  6 11  1  0  0  0  0
  6  7  2  0  0  0  0
  7  8  1  0  0  0  0
  8  9  2  0  0  0  0
  8 39  1  0  0  0  0
  9 10  1  0  0  0  0
 10 14  1  0  0  0  0
 10 11  2  0  0  0  0
 11 12  1  0  0  0  0
 12 13  2  0  0  0  0
 13 14  1  0  0  0  0
 13 40  1  0  0  0  0
 14 15  1  0  0  0  0
 15 16  1  0  0  0  0
 15 41  1  0  0  0  0
 15 42  1  0  0  0  0
 16 17  1  0  0  0  0
 16 19  1  0  0  0  0
 16 43  1  0  0  0  0
 17 18  1  0  0  0  0
 17 44  1  0  0  0  0
 17 45  1  0  0  0  0
 18 46  1  0  0  0  0
 19 23  1  0  0  0  0
 19 20  1  0  0  0  0
 19 47  1  0  0  0  0
 20 21  1  0  0  0  0
 20 48  1  0  0  0  0
 20 49  1  0  0  0  0
 21 22  1  0  0  0  0
 21 50  1  0  0  0  0
 21 51  1  0  0  0  0
 22 23  1  0  0  0  0
 23 52  1  0  0  0  0
 23 53  1  0  0  0  0
 24 25  1  0  0  0  0
 24 54  1  0  0  0  0
 24 55  1  0  0  0  0
 25 30  1  0  0  0  0
 25 26  1  0  0  0  0
 26 27  1  0  0  0  0
 26 56  1  0  0  0  0
 26 57  1  0  0  0  0
 27 28  1  0  0  0  0
 27 58  1  0  0  0  0
 27 59  1  0  0  0  0
 28 29  1  0  0  0  0
 28 60  1  0  0  0  0
 28 61  1  0  0  0  0
 29 30  1  0  0  0  0
 29 62  1  0  0  0  0
 29 63  1  0  0  0  0
 30 64  1  0  0  0  0
 30 65  1  0  0  0  0
M  END
> <s_m_source_file>
AV-unprocessed.smi

> <i_m_source_file_index>
275

> <i_lp_mmshare_version>
43012

> <i_f3d_flags>
0

> <s_epik_input>
W0NIMl0xW0NIMl1bQ0gyXVtDSDJdW0NIMl1DMTJbQ0BIXShbQ0hdKFtDSDNdKVtDSDNdKU4oW0NIMl0yKWMobltjSF1uMyljKGMzNCluW2NIXW40W0NIMl1bQ0BIXShbQ0gyXVtPSF0pW0NAQEhdNVtDSDJdW0NIMl1PW0NIMl01

> <s_epik_cmdline>
J2VwaWtfcHl0aG9uJywgJy1waCcsICc3LjAnLCAnLXRuJywgJzgnLCAnLW1hJywgJzIwMCcsICctbWV0YWxfYmluZGluZycsICctaW1hZScsICc8aW5maWxlLm1hZT4nLCAnLW9tYWUnLCAnPG91dGZpbGUubWFlPic=

> <r_lp_tautomer_probability>
1

> <r_epik_Ionization_Penalty>
0.00375122

> <r_epik_Ionization_Penalty_Charging>
0

> <r_epik_Ionization_Penalty_Neutral>
0.00375122

> <r_epik_State_Penalty>
0.00260593

> <r_epik_Charging_Adjusted_Penalty>
0.00260593

> <i_epik_Tot_Q>
0

> <i_epik_Tot_abs_Q>
0

> <r_epik_Metal_State_Penalty>
-0

> <b_epik_Metal_Only>
0

> <s_lp_Force_Field>
OPLS_2005

> <r_lp_Energy>
69.4255

> <b_lp_Chiralities_Consistent>
1

> <s_lp_Variant>
AV-unprocessed.smi:275-1

> <Gold.Version>
5.8.1

> <Gold.Id.Protein>
6NUR|6NUR_protein|mol2

> <Gold.PLP.Fitness>
52.3885

> <Gold.PLP.PLP>
-48.1198

> <Gold.PLP.part.hbond>
-2.8305

> <Gold.PLP.part.metal>
0.0000

> <Gold.PLP.part.buried>
-4.8750

> <Gold.PLP.part.nonpolar>
-39.7457

> <Gold.PLP.part.repulsive>
0.2309

> <Gold.PLP.ligand.clash>
0.0000

> <Gold.PLP.ligand.torsion>
1.7215

> <Gold.PLP.Chemscore.Hbond>
2.3206

> <Gold.PLP.Chemscore.CHOScore>
0.0000

> <Gold.PLP.Chemscore.Metal>
0.0000

> <Gold.Chemscore.Hbonds>
donor molecule, donor type, donor heavy atom, donor atom, acceptor molecule, acceptor atom, score
      P1  H  6896  6907       L1    18  1.00
      P1  H  7989  7998       L1     7  0.29
      P1  H 10752 10765       L1     9  1.00

> <Gold.PLP.Chemscore.Internal.Correction>
0.7500

> <Gold.Rescore>
     Score         DG    S(hbond)    S(metal)    S(lipo)     H(rot)  DE(clash)    DE(int)     intcor
     17.41     -19.59       1.86        0.00     122.89       2.54       0.42       1.76       ----

> <Gold.Chemscore.Fitness>
17.4079

> <Gold.Chemscore.DG>
-19.5871

> <Gold.Chemscore.ZeroCoef>
-5.4800

> <Gold.Chemscore.Hbond>
1.8641

> <Gold.Chemscore.Metal>
0.0000

> <Gold.Chemscore.Lipo>
122.8851

> <Gold.Chemscore.Internal_Hbond>
0.0000

> <Gold.Chemscore.DEClash>
0.4227

> <Gold.Chemscore.DEInternal>
1.7564

> <Gold.Chemscore.Rot>
2.5377

> <Gold.Chemscore.Internal.Correction>
   9.000000E+99

> <Gold.Chemscore.Hbonds>
donor molecule, donor type, donor heavy atom, donor atom, acceptor molecule, acceptor atom, score
      P1  H  6896  6907       L1    18  0.86
      P1  H  7989  7998       L1     7  0.01
      P1  H 10752 10765       L1     9  0.68

> <Gold.Chemscore.Hbond.Weighted>
-6.2261

> <Gold.Chemscore.Metal.Weighted>
-0.0000

> <Gold.Chemscore.Lipo.Weighted>
-14.3776

> <Gold.Chemscore.Internal_Hbond.Weighted>
0.0000

> <Gold.Chemscore.DEClash.Weighted>
0.4227

> <Gold.Chemscore.DEInternal.Weighted>
1.7564

> <Gold.Chemscore.Rot.Weighted>
6.4966

> <Gold.Chemscore.Internal.Correction.Weighted>
   9.000000E+99

> <Gold.Protein.RotatedTorsions>
[ 6907 6896 6895 6894 ] final -168.82 input  -60.11 | X-H torsion
[ 7974 7965 7964 7962 ] final   77.77 input  175.53 | X-H torsion
[ 8008 7997 7996 7995 ] final    2.27 input   59.86 | X-H torsion
[ 10167 10162 10161 10158 ] final  166.72 input  -65.29 | X-H torsion
[ 10718 10713 10712 10709 ] final   27.18 input   66.30 | X-H torsion
[ 10763 10752 10751 10750 ] final  159.17 input  -60.55 | X-H torsion
[ 11005 11000 10999 10996 ] final  -54.96 input  -57.11 | X-H torsion

> <Gold.Protein.ActiveResidues>
 VAL166  LYS551  ARG553  GLY616  TRP617  ASP618  TYR619  PRO620  LYS621  CYS622 
 ASP623  PHE694  ASN695  SER759  ASP760  ASP761  ALA762  ILE779  LEU786  VAL792 
 PHE793  MET794  SER795  GLU796  ALA797  LYS798  CYS799  TRP800  GLU811  SER814 

> <Gold.Protein.RotatedAtoms>
  151.4817  133.3545  159.2838 H   0  0  0  0  0  0  0  0  0  0  0  0  # atno 6907 bound_to 6896
  150.8893  134.8297  159.7292 H   0  0  0  0  0  0  0  0  0  0  0  0  # atno 6908 bound_to 6896
  152.4813  134.4724  159.9692 H   0  0  0  0  0  0  0  0  0  0  0  0  # atno 6909 bound_to 6896
  145.6857  139.2537  143.1788 H   0  0  0  0  0  0  0  0  0  0  0  0  # atno 7974 bound_to 7965
  154.6896  140.2650  155.6826 H   0  0  0  0  0  0  0  0  0  0  0  0  # atno 8008 bound_to 7997
  156.2727  140.2794  156.1392 H   0  0  0  0  0  0  0  0  0  0  0  0  # atno 8009 bound_to 7997
  155.0916  140.0373  157.2660 H   0  0  0  0  0  0  0  0  0  0  0  0  # atno 8010 bound_to 7997
  139.4930  144.3997  151.9423 H   0  0  0  0  0  0  0  0  0  0  0  0  # atno 10167 bound_to 10162
  157.2168  130.6960  149.6252 H   0  0  0  0  0  0  0  0  0  0  0  0  # atno 10718 bound_to 10713
  154.2276  135.2779  155.2902 H   0  0  0  0  0  0  0  0  0  0  0  0  # atno 10763 bound_to 10752
  154.5650  135.5635  153.7046 H   0  0  0  0  0  0  0  0  0  0  0  0  # atno 10764 bound_to 10752
  153.0027  135.6307  154.2417 H   0  0  0  0  0  0  0  0  0  0  0  0  # atno 10765 bound_to 10752
  141.1051  133.6614  156.4399 H   0  0  0  0  0  0  0  0  0  0  0  0  # atno 11005 bound_to 11000
  146.0925  140.7638  142.9588 LP  0  0  0  0  0  0  0  0  0  0  0  0  # atno 17320 bound_to 7965
  144.7012  140.3660  143.7154 LP  0  0  0  0  0  0  0  0  0  0  0  0  # atno 17321 bound_to 7965
  140.3436  144.3173  150.5962 LP  0  0  0  0  0  0  0  0  0  0  0  0  # atno 17342 bound_to 10162
  140.5545  143.2201  151.7871 LP  0  0  0  0  0  0  0  0  0  0  0  0  # atno 17343 bound_to 10162
  155.9685  130.4533  150.5806 LP  0  0  0  0  0  0  0  0  0  0  0  0  # atno 17370 bound_to 10713
  157.3616  131.0751  151.1631 LP  0  0  0  0  0  0  0  0  0  0  0  0  # atno 17371 bound_to 10713
  140.4923  134.6564  157.5215 LP  0  0  0  0  0  0  0  0  0  0  0  0  # atno 17394 bound_to 11000
  139.9918  134.6973  155.9677 LP  0  0  0  0  0  0  0  0  0  0  0  0  # atno 17395 bound_to 11000

$$$$
