AV-unprocessed.smi:153|AV-procd|sdf|1257|dock9
  -GOLD-   2262018503D 1   1.00000     0.00000
 Structure written by MMmdl.
 60 63  0  0  0  0  0  0  0  0  2 V2000
  152.8204  142.2764  159.7900 C   0  0  0  0  0  0  0  0  0  0  0  0
  151.7510  143.3635  159.9840 C   0  0  1  0  0  0  0  0  0  0  0  0
  152.4217  144.4164  160.6803 O   0  0  0  0  0  0  0  0  0  0  0  0
  152.1711  145.6685  160.0617 C   0  0  0  0  0  0  0  0  0  0  0  0
  151.9474  145.3113  158.5997 C   0  0  0  0  0  0  0  0  0  0  0  0
  151.1704  144.0065  158.6934 C   0  0  2  0  0  0  0  0  0  0  0  0
  149.8158  144.3420  158.9443 O   0  0  0  0  0  0  0  0  0  0  0  0
  151.2228  143.1896  157.3723 C   0  0  0  0  0  0  0  0  0  0  0  0
  150.5695  141.8840  157.4046 N   0  0  0  0  0  0  0  0  0  0  0  0
  150.4078  141.0434  158.4845 C   0  0  0  0  0  0  0  0  0  0  0  0
  149.7554  139.9410  158.2401 N   0  0  0  0  0  0  0  0  0  0  0  0
  149.4170  140.0267  156.8948 C   0  0  0  0  0  0  0  0  0  0  0  0
  148.6952  139.1929  155.9871 C   0  0  0  0  0  0  0  0  0  0  0  0
  148.1482  137.9874  156.3067 N   0  0  0  0  0  0  0  0  0  0  0  0
  148.6357  137.2637  157.4739 C   0  0  0  0  0  0  0  0  0  0  0  0
  146.8866  137.5649  155.6888 C   0  0  0  0  0  0  0  0  0  0  0  0
  147.0639  136.7077  154.4139 C   0  0  1  0  0  0  0  0  0  0  0  0
  147.6310  137.5027  153.3918 O   0  0  0  0  0  0  0  0  0  0  0  0
  147.8912  135.4184  154.6091 C   0  0  0  0  0  0  0  0  0  0  0  0
  147.8097  134.5048  153.4422 N   0  3  0  0  0  0  0  0  0  0  0  0
  148.4528  133.1946  153.7026 C   0  0  0  0  0  0  0  0  0  0  0  0
  148.3928  132.3066  152.4485 C   0  0  0  0  0  0  0  0  0  0  0  0
  147.0397  132.1459  152.0418 O   0  0  0  0  0  0  0  0  0  0  0  0
  146.4351  133.3879  151.7036 C   0  0  0  0  0  0  0  0  0  0  0  0
  146.4290  134.3114  152.9334 C   0  0  0  0  0  0  0  0  0  0  0  0
  148.5308  139.6582  154.7208 N   0  0  0  0  0  0  0  0  0  0  0  0
  149.0388  140.8376  154.3552 C   0  0  0  0  0  0  0  0  0  0  0  0
  149.7333  141.7072  155.0883 N   0  0  0  0  0  0  0  0  0  0  0  0
  149.9015  141.2574  156.3644 C   0  0  0  0  0  0  0  0  0  0  0  0
  152.3934  141.3512  159.4102 H   0  0  0  0  0  0  0  0  0  0  0  0
  153.2941  142.0317  160.7410 H   0  0  0  0  0  0  0  0  0  0  0  0
  153.6048  142.6015  159.1063 H   0  0  0  0  0  0  0  0  0  0  0  0
  150.9555  142.9653  160.6161 H   0  0  0  0  0  0  0  0  0  0  0  0
  151.2752  146.1138  160.4963 H   0  0  0  0  0  0  0  0  0  0  0  0
  153.0017  146.3596  160.2054 H   0  0  0  0  0  0  0  0  0  0  0  0
  151.4298  146.0933  158.0425 H   0  0  0  0  0  0  0  0  0  0  0  0
  152.9128  145.1433  158.1199 H   0  0  0  0  0  0  0  0  0  0  0  0
  149.5050  144.8842  158.2355 H   0  0  0  0  0  0  0  0  0  0  0  0
  150.7728  143.7645  156.5622 H   0  0  0  0  0  0  0  0  0  0  0  0
  152.2633  143.0420  157.0818 H   0  0  0  0  0  0  0  0  0  0  0  0
  150.7817  141.2651  159.4724 H   0  0  0  0  0  0  0  0  0  0  0  0
  149.7245  137.2989  157.5292 H   0  0  0  0  0  0  0  0  0  0  0  0
  148.3421  136.2150  157.4240 H   0  0  0  0  0  0  0  0  0  0  0  0
  148.2227  137.6853  158.3906 H   0  0  0  0  0  0  0  0  0  0  0  0
  146.2785  137.0098  156.4025 H   0  0  0  0  0  0  0  0  0  0  0  0
  146.2964  138.4519  155.4553 H   0  0  0  0  0  0  0  0  0  0  0  0
  146.0623  136.4483  154.0729 H   0  0  0  0  0  0  0  0  0  0  0  0
  148.2123  136.9623  152.8780 H   0  0  0  0  0  0  0  0  0  0  0  0
  148.9336  135.6948  154.7742 H   0  0  0  0  0  0  0  0  0  0  0  0
  147.5692  134.8865  155.5058 H   0  0  0  0  0  0  0  0  0  0  0  0
  149.4934  133.3429  153.9940 H   0  0  0  0  0  0  0  0  0  0  0  0
  147.9530  132.7004  154.5372 H   0  0  0  0  0  0  0  0  0  0  0  0
  148.9810  132.7376  151.6367 H   0  0  0  0  0  0  0  0  0  0  0  0
  148.8168  131.3254  152.6626 H   0  0  0  0  0  0  0  0  0  0  0  0
  146.9664  133.8512  150.8705 H   0  0  0  0  0  0  0  0  0  0  0  0
  145.4147  133.2035  151.3672 H   0  0  0  0  0  0  0  0  0  0  0  0
  145.8059  133.8788  153.7178 H   0  0  0  0  0  0  0  0  0  0  0  0
  145.9825  135.2677  152.6632 H   0  0  0  0  0  0  0  0  0  0  0  0
  148.8653  141.1248  153.3287 H   0  0  0  0  0  0  0  0  0  0  0  0
  148.3428  134.9397  152.7021 H   0  0  0  0  0  0  0  0  0  0  0  0
  1  2  1  0  0  0  0
  1 30  1  0  0  0  0
  1 31  1  0  0  0  0
  1 32  1  0  0  0  0
  2  6  1  0  0  0  0
  2  3  1  0  0  0  0
  2 33  1  0  0  0  0
  3  4  1  0  0  0  0
  4  5  1  0  0  0  0
  4 34  1  0  0  0  0
  4 35  1  0  0  0  0
  5  6  1  0  0  0  0
  5 36  1  0  0  0  0
  5 37  1  0  0  0  0
  6  7  1  0  0  0  0
  6  8  1  0  0  0  0
  7 38  1  0  0  0  0
  8  9  1  0  0  0  0
  8 39  1  0  0  0  0
  8 40  1  0  0  0  0
  9 29  1  0  0  0  0
  9 10  1  0  0  0  0
 10 11  2  0  0  0  0
 10 41  1  0  0  0  0
 11 12  1  0  0  0  0
 12 29  2  0  0  0  0
 12 13  1  0  0  0  0
 13 14  1  0  0  0  0
 13 26  2  0  0  0  0
 14 15  1  0  0  0  0
 14 16  1  0  0  0  0
 15 42  1  0  0  0  0
 15 43  1  0  0  0  0
 15 44  1  0  0  0  0
 16 17  1  0  0  0  0
 16 45  1  0  0  0  0
 16 46  1  0  0  0  0
 17 18  1  0  0  0  0
 17 19  1  0  0  0  0
 17 47  1  0  0  0  0
 18 48  1  0  0  0  0
 19 20  1  0  0  0  0
 19 49  1  0  0  0  0
 19 50  1  0  0  0  0
 20 25  1  0  0  0  0
 20 21  1  0  0  0  0
 20 60  1  0  0  0  0
 21 22  1  0  0  0  0
 21 51  1  0  0  0  0
 21 52  1  0  0  0  0
 22 23  1  0  0  0  0
 22 53  1  0  0  0  0
 22 54  1  0  0  0  0
 23 24  1  0  0  0  0
 24 25  1  0  0  0  0
 24 55  1  0  0  0  0
 24 56  1  0  0  0  0
 25 57  1  0  0  0  0
 25 58  1  0  0  0  0
 26 27  1  0  0  0  0
 27 28  2  0  0  0  0
 27 59  1  0  0  0  0
 28 29  1  0  0  0  0
M  CHG  1  20   1
M  END
> <s_m_source_file>
AV-unprocessed.smi

> <i_m_source_file_index>
153

> <i_lp_mmshare_version>
43012

> <i_f3d_flags>
0

> <s_epik_input>
W0NIMl0xW0NIMl1PW0NAQEhdKFtDSDNdKVtDQEBdMShbT0hdKVtDSDJdbihbY0hdbjIpYyhjMjMpbltjSF1uYzNOKFtDSDNdKVtDSDJdW0NASF0oW09IXSlbQ0gyXU40W0NIMl1bQ0gyXU9bQ0gyXVtDSDJdNA==

> <s_epik_cmdline>
J2VwaWtfcHl0aG9uJywgJy1waCcsICc3LjAnLCAnLXRuJywgJzgnLCAnLW1hJywgJzIwMCcsICctbWV0YWxfYmluZGluZycsICctaW1hZScsICc8aW5maWxlLm1hZT4nLCAnLW9tYWUnLCAnPG91dGZpbGUubWFlPic=

> <r_lp_tautomer_probability>
1

> <r_epik_Ionization_Penalty>
0.403509

> <r_epik_Ionization_Penalty_Charging>
0.40072

> <r_epik_Ionization_Penalty_Neutral>
0.00278876

> <r_epik_State_Penalty>
0.400058

> <r_epik_Charging_Adjusted_Penalty>
0.800778

> <i_epik_Tot_Q>
1

> <i_epik_Tot_abs_Q>
1

> <r_epik_Metal_State_Penalty>
0.400321

> <b_epik_Metal_Only>
0

> <s_lp_Force_Field>
OPLS_2005

> <r_lp_Energy>
51.1355

> <b_lp_Chiralities_Consistent>
1

> <s_lp_Variant>
AV-unprocessed.smi:153-8

> <Gold.Version>
5.8.1

> <Gold.Id.Protein>
6NUR|6NUR_protein|mol2

> <Gold.PLP.Fitness>
51.5627

> <Gold.PLP.PLP>
-38.7270

> <Gold.PLP.part.hbond>
-3.2995

> <Gold.PLP.part.metal>
0.0000

> <Gold.PLP.part.buried>
-3.2842

> <Gold.PLP.part.nonpolar>
-33.1358

> <Gold.PLP.part.repulsive>
0.4712

> <Gold.PLP.ligand.clash>
0.0000

> <Gold.PLP.ligand.torsion>
1.1427

> <Gold.PLP.Chemscore.Hbond>
3.8736

> <Gold.PLP.Chemscore.CHOScore>
1.0000

> <Gold.PLP.Chemscore.Metal>
0.0000

> <Gold.Chemscore.Hbonds>
donor molecule, donor type, donor heavy atom, donor atom, acceptor molecule, acceptor atom, score
      L1  H     7    38       P1  8029  0.71
      L1  H    18    48       P1  7948  0.80
      L1  H    20    60       P1  7948  2.00
      L1  C    27    59       P1  7957  1.00

> <Gold.PLP.Chemscore.Internal.Correction>
0.5003

> <Gold.Rescore>
     Score         DG    S(hbond)    S(metal)    S(lipo)     H(rot)  DE(clash)    DE(int)     intcor
     11.08     -15.28       2.58        0.00      89.41       3.62       0.59       3.61       ----

> <Gold.Chemscore.Fitness>
11.0817

> <Gold.Chemscore.DG>
-15.2848

> <Gold.Chemscore.ZeroCoef>
-5.4800

> <Gold.Chemscore.Hbond>
2.5769

> <Gold.Chemscore.Metal>
0.0000

> <Gold.Chemscore.Lipo>
89.4053

> <Gold.Chemscore.Internal_Hbond>
0.0000

> <Gold.Chemscore.DEClash>
0.5903

> <Gold.Chemscore.DEInternal>
3.6128

> <Gold.Chemscore.Rot>
3.6182

> <Gold.Chemscore.Internal.Correction>
   9.000000E+99

> <Gold.Chemscore.Hbonds>
donor molecule, donor type, donor heavy atom, donor atom, acceptor molecule, acceptor atom, score
      L1  H     7    38       P1  8029  0.20
      L1  H    18    48       P1  7948  0.79
      L1  H    20    60       P1  7948  0.59

> <Gold.Chemscore.Hbond.Weighted>
-8.6068

> <Gold.Chemscore.Metal.Weighted>
-0.0000

> <Gold.Chemscore.Lipo.Weighted>
-10.4604

> <Gold.Chemscore.Internal_Hbond.Weighted>
0.0000

> <Gold.Chemscore.DEClash.Weighted>
0.5903

> <Gold.Chemscore.DEInternal.Weighted>
3.6128

> <Gold.Chemscore.Rot.Weighted>
9.2625

> <Gold.Chemscore.Internal.Correction.Weighted>
   9.000000E+99

> <Gold.Protein.RotatedTorsions>
[ 6907 6896 6895 6894 ] final   87.47 input  -60.11 | X-H torsion
[ 7974 7965 7964 7962 ] final   18.36 input  175.53 | X-H torsion
[ 8008 7997 7996 7995 ] final   37.12 input   59.86 | X-H torsion
[ 10167 10162 10161 10158 ] final  -32.63 input  -65.29 | X-H torsion
[ 10718 10713 10712 10709 ] final -132.42 input   66.30 | X-H torsion
[ 10763 10752 10751 10750 ] final   63.96 input  -60.55 | X-H torsion
[ 11005 11000 10999 10996 ] final -120.90 input  -57.11 | X-H torsion

> <Gold.Protein.ActiveResidues>
 VAL166  LYS551  ARG553  GLY616  TRP617  ASP618  TYR619  PRO620  LYS621  CYS622 
 ASP623  PHE694  ASN695  SER759  ASP760  ASP761  ALA762  ILE779  LEU786  VAL792 
 PHE793  MET794  SER795  GLU796  ALA797  LYS798  CYS799  TRP800  GLU811  SER814 

> <Gold.Protein.RotatedAtoms>
  152.5411  134.2271  159.8810 H   0  0  0  0  0  0  0  0  0  0  0  0  # atno 6907 bound_to 6896
  151.2245  133.4477  159.2609 H   0  0  0  0  0  0  0  0  0  0  0  0  # atno 6908 bound_to 6896
  151.0774  134.9850  159.8395 H   0  0  0  0  0  0  0  0  0  0  0  0  # atno 6909 bound_to 6896
  146.2187  139.8468  142.8630 H   0  0  0  0  0  0  0  0  0  0  0  0  # atno 7974 bound_to 7965
  155.1985  140.3314  155.4347 H   0  0  0  0  0  0  0  0  0  0  0  0  # atno 8008 bound_to 7997
  156.2415  140.1898  156.7024 H   0  0  0  0  0  0  0  0  0  0  0  0  # atno 8009 bound_to 7997
  154.6157  140.0602  156.9537 H   0  0  0  0  0  0  0  0  0  0  0  0  # atno 8010 bound_to 7997
  140.7218  143.3680  151.1832 H   0  0  0  0  0  0  0  0  0  0  0  0  # atno 10167 bound_to 10162
  156.2344  130.7057  151.0892 H   0  0  0  0  0  0  0  0  0  0  0  0  # atno 10718 bound_to 10713
  153.0037  135.5410  154.6435 H   0  0  0  0  0  0  0  0  0  0  0  0  # atno 10763 bound_to 10752
  154.5684  135.2839  155.0853 H   0  0  0  0  0  0  0  0  0  0  0  0  # atno 10764 bound_to 10752
  154.2028  135.6481  153.5144 H   0  0  0  0  0  0  0  0  0  0  0  0  # atno 10765 bound_to 10752
  141.0109  134.0265  157.3414 H   0  0  0  0  0  0  0  0  0  0  0  0  # atno 11005 bound_to 11000
  145.2842  141.0148  143.3700 LP  0  0  0  0  0  0  0  0  0  0  0  0  # atno 17320 bound_to 7965
  144.9127  139.4509  143.6579 LP  0  0  0  0  0  0  0  0  0  0  0  0  # atno 17321 bound_to 7965
  139.7246  143.9169  152.2998 LP  0  0  0  0  0  0  0  0  0  0  0  0  # atno 17342 bound_to 10162
  139.8937  144.6951  150.8742 LP  0  0  0  0  0  0  0  0  0  0  0  0  # atno 17343 bound_to 10162
  157.7147  131.0716  150.6370 LP  0  0  0  0  0  0  0  0  0  0  0  0  # atno 17370 bound_to 10713
  156.6439  130.4466  149.5742 LP  0  0  0  0  0  0  0  0  0  0  0  0  # atno 17371 bound_to 10713
  139.9089  135.0186  156.7609 LP  0  0  0  0  0  0  0  0  0  0  0  0  # atno 17394 bound_to 11000
  140.6734  133.9539  155.7869 LP  0  0  0  0  0  0  0  0  0  0  0  0  # atno 17395 bound_to 11000

$$$$
