AV-unprocessed.smi:1845|AV-procd|sdf|7512|dock3
  -GOLD-   22720 9223D 1   1.00000     0.00000
 Structure written by MMmdl.
 45 46  0  0  0  0  0  0  0  0  1 V2000
  151.3476  131.6839  156.2357 C   0  0  0  0  0  0  0  0  0  0  0  0
  149.6772  132.2764  156.7315 S   0  0  0  0  0  0  0  0  0  0  0  0
  148.8103  131.1029  156.9156 O   0  0  0  0  0  0  0  0  0  0  0  0
  149.8247  133.2678  157.8079 O   0  0  0  0  0  0  0  0  0  0  0  0
  149.1236  133.1062  155.3245 N   0  0  0  0  0  0  0  0  0  0  0  0
  149.9149  134.1984  154.7500 C   0  0  0  0  0  0  0  0  0  0  0  0
  149.8468  135.4770  155.6088 C   0  0  0  0  0  0  0  0  0  0  0  0
  150.6070  136.6538  154.9896 C   0  0  0  0  0  0  0  0  0  0  0  0
  151.8368  136.6351  154.9355 O   0  0  0  0  0  0  0  0  0  0  0  0
  149.8613  137.6758  154.5412 N   0  0  0  0  0  0  0  0  0  0  0  0
  150.3764  138.9422  154.0304 C   0  0  0  0  0  0  0  0  0  0  0  0
  150.8408  139.8686  155.1420 C   0  0  0  0  0  0  0  0  0  0  0  0
  150.2739  141.1477  155.3057 C   0  0  0  0  0  0  0  0  0  0  0  0
  150.7184  141.9608  156.3663 C   0  0  0  0  0  0  0  0  0  0  0  0
  151.7212  141.4728  157.2379 C   0  0  0  0  0  0  0  0  0  0  0  0
  152.1704  142.2617  158.3184 N   0  0  0  0  0  0  0  0  0  0  0  0
  152.0974  141.6338  159.6351 C   0  0  0  0  0  0  0  0  0  0  0  0
  152.8887  142.4585  160.6652 C   0  0  0  0  0  0  0  0  0  0  0  0
  152.4258  143.8050  160.6651 O   0  0  0  0  0  0  0  0  0  0  0  0
  152.6155  144.4292  159.4001 C   0  0  0  0  0  0  0  0  0  0  0  0
  151.8079  143.6780  158.3288 C   0  0  0  0  0  0  0  0  0  0  0  0
  152.2679  140.2434  157.0720 N   0  0  0  0  0  0  0  0  0  0  0  0
  151.8431  139.4718  156.0508 C   0  0  0  0  0  0  0  0  0  0  0  0
  151.7914  131.1268  157.0606 H   0  0  0  0  0  0  0  0  0  0  0  0
  151.9889  132.5292  155.9893 H   0  0  0  0  0  0  0  0  0  0  0  0
  151.2585  131.0290  155.3697 H   0  0  0  0  0  0  0  0  0  0  0  0
  148.6762  132.4964  154.6395 H   0  0  0  0  0  0  0  0  0  0  0  0
  150.9481  133.8659  154.6489 H   0  0  0  0  0  0  0  0  0  0  0  0
  149.5564  134.4144  153.7433 H   0  0  0  0  0  0  0  0  0  0  0  0
  148.8065  135.7714  155.7527 H   0  0  0  0  0  0  0  0  0  0  0  0
  150.2441  135.2693  156.6035 H   0  0  0  0  0  0  0  0  0  0  0  0
  148.8573  137.5923  154.6120 H   0  0  0  0  0  0  0  0  0  0  0  0
  151.1996  138.7794  153.3329 H   0  0  0  0  0  0  0  0  0  0  0  0
  149.5832  139.4241  153.4581 H   0  0  0  0  0  0  0  0  0  0  0  0
  149.5014  141.5006  154.6384 H   0  0  0  0  0  0  0  0  0  0  0  0
  150.2730  142.9338  156.5105 H   0  0  0  0  0  0  0  0  0  0  0  0
  151.0509  141.5682  159.9354 H   0  0  0  0  0  0  0  0  0  0  0  0
  152.4869  140.6170  159.6196 H   0  0  0  0  0  0  0  0  0  0  0  0
  152.7575  142.0384  161.6625 H   0  0  0  0  0  0  0  0  0  0  0  0
  153.9572  142.4301  160.4465 H   0  0  0  0  0  0  0  0  0  0  0  0
  152.2849  145.4659  159.4617 H   0  0  0  0  0  0  0  0  0  0  0  0
  153.6766  144.4480  159.1463 H   0  0  0  0  0  0  0  0  0  0  0  0
  151.9999  144.1247  157.3524 H   0  0  0  0  0  0  0  0  0  0  0  0
  150.7403  143.7764  158.5291 H   0  0  0  0  0  0  0  0  0  0  0  0
  152.3159  138.5054  155.9654 H   0  0  0  0  0  0  0  0  0  0  0  0
  1  2  1  0  0  0  0
  1 24  1  0  0  0  0
  1 25  1  0  0  0  0
  1 26  1  0  0  0  0
  2  3  2  0  0  0  0
  2  4  2  0  0  0  0
  2  5  1  0  0  0  0
  5  6  1  0  0  0  0
  5 27  1  0  0  0  0
  6  7  1  0  0  0  0
  6 28  1  0  0  0  0
  6 29  1  0  0  0  0
  7  8  1  0  0  0  0
  7 30  1  0  0  0  0
  7 31  1  0  0  0  0
  8  9  2  0  0  0  0
  8 10  1  0  0  0  0
 10 11  1  0  0  0  0
 10 32  1  0  0  0  0
 11 12  1  0  0  0  0
 11 33  1  0  0  0  0
 11 34  1  0  0  0  0
 12 23  1  0  0  0  0
 12 13  2  0  0  0  0
 13 14  1  0  0  0  0
 13 35  1  0  0  0  0
 14 15  2  0  0  0  0
 14 36  1  0  0  0  0
 15 16  1  0  0  0  0
 15 22  1  0  0  0  0
 16 21  1  0  0  0  0
 16 17  1  0  0  0  0
 17 18  1  0  0  0  0
 17 37  1  0  0  0  0
 17 38  1  0  0  0  0
 18 19  1  0  0  0  0
 18 39  1  0  0  0  0
 18 40  1  0  0  0  0
 19 20  1  0  0  0  0
 20 21  1  0  0  0  0
 20 41  1  0  0  0  0
 20 42  1  0  0  0  0
 21 43  1  0  0  0  0
 21 44  1  0  0  0  0
 22 23  2  0  0  0  0
 23 45  1  0  0  0  0
M  END
> <s_m_source_file>
AV-unprocessed.smi

> <i_m_source_file_index>
1845

> <i_lp_mmshare_version>
43012

> <i_f3d_flags>
0

> <s_epik_input>
W0NIM11TKD1PKSg9TylbTkhdW0NIMl1bQ0gyXUMoPU8pW05IXVtDSDJdYzFbY0hdW2NIXWMobltjSF0xKU4yW0NIMl1bQ0gyXU9bQ0gyXVtDSDJdMg==

> <s_epik_cmdline>
J2VwaWtfcHl0aG9uJywgJy1waCcsICc3LjAnLCAnLXRuJywgJzgnLCAnLW1hJywgJzIwMCcsICctbWV0YWxfYmluZGluZycsICctaW1hZScsICc8aW5maWxlLm1hZT4nLCAnLW9tYWUnLCAnPG91dGZpbGUubWFlPic=

> <r_lp_tautomer_probability>
1

> <r_epik_Ionization_Penalty>
0.00479915

> <r_epik_Ionization_Penalty_Charging>
0

> <r_epik_Ionization_Penalty_Neutral>
0.00479915

> <r_epik_State_Penalty>
0.00346804

> <r_epik_Charging_Adjusted_Penalty>
0.00346804

> <i_epik_Tot_Q>
0

> <i_epik_Tot_abs_Q>
0

> <r_epik_Metal_State_Penalty>
0.0135183

> <b_epik_Metal_Only>
0

> <s_lp_Force_Field>
OPLS_2005

> <r_lp_Energy>
4.60417

> <b_lp_Chiralities_Consistent>
1

> <s_lp_Variant>
AV-unprocessed.smi:1845-1

> <Gold.Version>
5.8.1

> <Gold.Id.Protein>
6NUR|6NUR_protein|mol2

> <Gold.PLP.Fitness>
48.9134

> <Gold.PLP.PLP>
-41.3127

> <Gold.PLP.part.hbond>
-3.4731

> <Gold.PLP.part.metal>
0.0000

> <Gold.PLP.part.buried>
-4.0471

> <Gold.PLP.part.nonpolar>
-33.2684

> <Gold.PLP.part.repulsive>
0.2138

> <Gold.PLP.ligand.clash>
0.0000

> <Gold.PLP.ligand.torsion>
0.4844

> <Gold.PLP.Chemscore.Hbond>
2.6738

> <Gold.PLP.Chemscore.CHOScore>
0.0000

> <Gold.PLP.Chemscore.Metal>
0.0000

> <Gold.Chemscore.Hbonds>
donor molecule, donor type, donor heavy atom, donor atom, acceptor molecule, acceptor atom, score
      P1  H  6896  6907       L1     4  1.00
      P1  H  7997  8008       L1    22  0.49
      P1  H 10752 10763       L1     9  1.00

> <Gold.PLP.Chemscore.Internal.Correction>
0.5482

> <Gold.Rescore>
     Score         DG    S(hbond)    S(metal)    S(lipo)     H(rot)  DE(clash)    DE(int)     intcor
     14.80     -17.04       2.29        0.00      96.91       2.90       0.30       1.94       ----

> <Gold.Chemscore.Fitness>
14.7993

> <Gold.Chemscore.DG>
-17.0400

> <Gold.Chemscore.ZeroCoef>
-5.4800

> <Gold.Chemscore.Hbond>
2.2903

> <Gold.Chemscore.Metal>
0.0000

> <Gold.Chemscore.Lipo>
96.9079

> <Gold.Chemscore.Internal_Hbond>
0.0000

> <Gold.Chemscore.DEClash>
0.3006

> <Gold.Chemscore.DEInternal>
1.9401

> <Gold.Chemscore.Rot>
2.9015

> <Gold.Chemscore.Internal.Correction>
   9.000000E+99

> <Gold.Chemscore.Hbonds>
donor molecule, donor type, donor heavy atom, donor atom, acceptor molecule, acceptor atom, score
      P1  H  6896  6907       L1     4  1.00
      P1  H  7997  8008       L1    22  0.05
      P1  H 10752 10763       L1     9  0.95

> <Gold.Chemscore.Hbond.Weighted>
-7.6496

> <Gold.Chemscore.Metal.Weighted>
-0.0000

> <Gold.Chemscore.Lipo.Weighted>
-11.3382

> <Gold.Chemscore.Internal_Hbond.Weighted>
0.0000

> <Gold.Chemscore.DEClash.Weighted>
0.3006

> <Gold.Chemscore.DEInternal.Weighted>
1.9401

> <Gold.Chemscore.Rot.Weighted>
7.4278

> <Gold.Chemscore.Internal.Correction.Weighted>
   9.000000E+99

> <Gold.Protein.RotatedTorsions>
[ 6907 6896 6895 6894 ] final -133.42 input  -60.11 | X-H torsion
[ 7974 7965 7964 7962 ] final  -69.12 input  175.53 | X-H torsion
[ 8008 7997 7996 7995 ] final  -51.52 input   59.86 | X-H torsion
[ 10167 10162 10161 10158 ] final   48.49 input  -65.29 | X-H torsion
[ 10718 10713 10712 10709 ] final  -59.73 input   66.30 | X-H torsion
[ 10763 10752 10751 10750 ] final   46.64 input  -60.55 | X-H torsion
[ 11005 11000 10999 10996 ] final -158.10 input  -57.11 | X-H torsion

> <Gold.Protein.ActiveResidues>
 VAL166  LYS551  ARG553  GLY616  TRP617  ASP618  TYR619  PRO620  LYS621  CYS622 
 ASP623  PHE694  ASN695  SER759  ASP760  ASP761  ALA762  ILE779  LEU786  VAL792 
 PHE793  MET794  SER795  GLU796  ALA797  LYS798  CYS799  TRP800  GLU811  SER814 

> <Gold.Protein.RotatedAtoms>
  150.9739  133.6316  159.2733 H   0  0  0  0  0  0  0  0  0  0  0  0  # atno 6907 bound_to 6896
  151.3595  135.0900  159.9439 H   0  0  0  0  0  0  0  0  0  0  0  0  # atno 6908 bound_to 6896
  152.5192  133.9315  159.7637 H   0  0  0  0  0  0  0  0  0  0  0  0  # atno 6909 bound_to 6896
  145.7079  140.9090  143.0696 H   0  0  0  0  0  0  0  0  0  0  0  0  # atno 7974 bound_to 7965
  154.4085  140.1246  156.4842 H   0  0  0  0  0  0  0  0  0  0  0  0  # atno 8008 bound_to 7997
  155.7054  140.3494  155.4931 H   0  0  0  0  0  0  0  0  0  0  0  0  # atno 8009 bound_to 7997
  155.9348  140.1076  157.1093 H   0  0  0  0  0  0  0  0  0  0  0  0  # atno 8010 bound_to 7997
  140.2927  144.3027  150.6237 H   0  0  0  0  0  0  0  0  0  0  0  0  # atno 10167 bound_to 10162
  156.1041  130.4182  150.0755 H   0  0  0  0  0  0  0  0  0  0  0  0  # atno 10718 bound_to 10713
  152.9808  135.6002  154.3632 H   0  0  0  0  0  0  0  0  0  0  0  0  # atno 10763 bound_to 10752
  154.3312  135.2768  155.2472 H   0  0  0  0  0  0  0  0  0  0  0  0  # atno 10764 bound_to 10752
  154.4596  135.5969  153.6302 H   0  0  0  0  0  0  0  0  0  0  0  0  # atno 10765 bound_to 10752
  140.6574  134.4386  157.5235 H   0  0  0  0  0  0  0  0  0  0  0  0  # atno 11005 bound_to 11000
  144.6950  139.9035  143.7460 LP  0  0  0  0  0  0  0  0  0  0  0  0  # atno 17320 bound_to 7965
  146.0739  139.3727  143.0506 LP  0  0  0  0  0  0  0  0  0  0  0  0  # atno 17321 bound_to 7965
  140.5718  143.2180  151.7585 LP  0  0  0  0  0  0  0  0  0  0  0  0  # atno 17342 bound_to 10162
  139.4934  144.4205  151.9982 LP  0  0  0  0  0  0  0  0  0  0  0  0  # atno 17343 bound_to 10162
  156.8735  130.9532  151.3607 LP  0  0  0  0  0  0  0  0  0  0  0  0  # atno 17370 bound_to 10713
  157.6215  130.8659  149.9117 LP  0  0  0  0  0  0  0  0  0  0  0  0  # atno 17371 bound_to 10713
  139.9025  134.8524  156.1838 LP  0  0  0  0  0  0  0  0  0  0  0  0  # atno 17394 bound_to 11000
  141.0491  133.6898  156.1739 LP  0  0  0  0  0  0  0  0  0  0  0  0  # atno 17395 bound_to 11000

$$$$
