AV-unprocessed.smi:1721|AV-procd|sdf|6940|dock2
  -GOLD-   22720 8143D 1   1.00000     0.00000
 Structure written by MMmdl.
 44 46  0  0  0  0  0  0  0  0  2 V2000
  151.7989  138.2908  154.4247 C   0  0  0  0  0  0  0  0  0  0  0  0
  150.4120  138.1809  154.1234 O   0  0  0  0  0  0  0  0  0  0  0  0
  149.6188  139.3065  154.2429 C   0  0  0  0  0  0  0  0  0  0  0  0
  150.1922  140.4527  154.6882 N   0  0  0  0  0  0  0  0  0  0  0  0
  149.4217  141.5526  154.8078 C   0  0  0  0  0  0  0  0  0  0  0  0
  148.0510  141.5690  154.4935 C   0  0  0  0  0  0  0  0  0  0  0  0
  147.4536  140.3819  154.0309 C   0  0  0  0  0  0  0  0  0  0  0  0
  148.2491  139.2163  153.8981 C   0  0  0  0  0  0  0  0  0  0  0  0
  147.7662  137.9545  153.4454 N   0  0  0  0  0  0  0  0  0  0  0  0
  146.5826  137.3554  153.6620 C   0  0  0  0  0  0  0  0  0  0  0  0
  145.6539  137.8133  154.3259 O   0  0  0  0  0  0  0  0  0  0  0  0
  146.5299  136.1623  153.0529 N   0  0  0  0  0  0  0  0  0  0  0  0
  145.3873  135.2535  153.0825 C   0  0  1  0  0  0  0  0  0  0  0  0
  144.0391  135.9804  152.9367 C   0  0  0  0  0  0  0  0  0  0  0  0
  143.1593  135.0429  152.0861 C   0  0  0  0  0  0  0  0  0  0  0  0
  143.9775  133.8361  151.8601 N   0  3  1  0  0  0  0  0  0  0  0  0
  143.6639  133.0223  150.6656 C   0  0  0  0  0  0  0  0  0  0  0  0
  144.5618  131.7688  150.6550 C   0  0  0  0  0  0  0  0  0  0  0  0
  146.0551  132.1338  150.7777 C   0  0  0  0  0  0  0  0  0  0  0  0
  146.3048  133.0574  151.9857 C   0  0  0  0  0  0  0  0  0  0  0  0
  145.3786  134.2826  151.8988 C   0  0  2  0  0  0  0  0  0  0  0  0
  152.2764  137.3220  154.2797 H   0  0  0  0  0  0  0  0  0  0  0  0
  151.9597  138.5865  155.4625 H   0  0  0  0  0  0  0  0  0  0  0  0
  152.2959  139.0054  153.7671 H   0  0  0  0  0  0  0  0  0  0  0  0
  149.9121  142.4455  155.1663 H   0  0  0  0  0  0  0  0  0  0  0  0
  147.4695  142.4722  154.6057 H   0  0  0  0  0  0  0  0  0  0  0  0
  146.4027  140.4020  153.7945 H   0  0  0  0  0  0  0  0  0  0  0  0
  148.4162  137.4405  152.8684 H   0  0  0  0  0  0  0  0  0  0  0  0
  147.3381  135.8629  152.5269 H   0  0  0  0  0  0  0  0  0  0  0  0
  145.3711  134.6878  154.0167 H   0  0  0  0  0  0  0  0  0  0  0  0
  143.5938  136.1824  153.9115 H   0  0  0  0  0  0  0  0  0  0  0  0
  144.1563  136.9374  152.4259 H   0  0  0  0  0  0  0  0  0  0  0  0
  142.2245  134.7855  152.5847 H   0  0  0  0  0  0  0  0  0  0  0  0
  142.9166  135.5181  151.1343 H   0  0  0  0  0  0  0  0  0  0  0  0
  142.6129  132.7325  150.6853 H   0  0  0  0  0  0  0  0  0  0  0  0
  143.8203  133.6127  149.7612 H   0  0  0  0  0  0  0  0  0  0  0  0
  144.2825  131.1191  151.4856 H   0  0  0  0  0  0  0  0  0  0  0  0
  144.3908  131.1936  149.7445 H   0  0  0  0  0  0  0  0  0  0  0  0
  146.6574  131.2292  150.8661 H   0  0  0  0  0  0  0  0  0  0  0  0
  146.3816  132.6345  149.8653 H   0  0  0  0  0  0  0  0  0  0  0  0
  146.1239  132.5136  152.9140 H   0  0  0  0  0  0  0  0  0  0  0  0
  147.3490  133.3696  152.0025 H   0  0  0  0  0  0  0  0  0  0  0  0
  145.5932  134.8347  150.9807 H   0  0  0  0  0  0  0  0  0  0  0  0
  143.8453  133.2457  152.6690 H   0  0  0  0  0  0  0  0  0  0  0  0
  1  2  1  0  0  0  0
  1 22  1  0  0  0  0
  1 23  1  0  0  0  0
  1 24  1  0  0  0  0
  2  3  1  0  0  0  0
  3  8  1  0  0  0  0
  3  4  2  0  0  0  0
  4  5  1  0  0  0  0
  5  6  2  0  0  0  0
  5 25  1  0  0  0  0
  6  7  1  0  0  0  0
  6 26  1  0  0  0  0
  7  8  2  0  0  0  0
  7 27  1  0  0  0  0
  8  9  1  0  0  0  0
  9 10  1  0  0  0  0
  9 28  1  0  0  0  0
 10 11  2  0  0  0  0
 10 12  1  0  0  0  0
 12 13  1  0  0  0  0
 12 29  1  0  0  0  0
 13 21  1  0  0  0  0
 13 14  1  0  0  0  0
 13 30  1  0  0  0  0
 14 15  1  0  0  0  0
 14 31  1  0  0  0  0
 14 32  1  0  0  0  0
 15 16  1  0  0  0  0
 15 33  1  0  0  0  0
 15 34  1  0  0  0  0
 16 21  1  0  0  0  0
 16 17  1  0  0  0  0
 16 44  1  0  0  0  0
 17 18  1  0  0  0  0
 17 35  1  0  0  0  0
 17 36  1  0  0  0  0
 18 19  1  0  0  0  0
 18 37  1  0  0  0  0
 18 38  1  0  0  0  0
 19 20  1  0  0  0  0
 19 39  1  0  0  0  0
 19 40  1  0  0  0  0
 20 21  1  0  0  0  0
 20 41  1  0  0  0  0
 20 42  1  0  0  0  0
 21 43  1  0  0  0  0
M  CHG  1  16   1
M  END
> <s_m_source_file>
AV-unprocessed.smi

> <i_m_source_file_index>
1721

> <i_lp_mmshare_version>
43012

> <i_f3d_flags>
0

> <s_epik_input>
W0NIM11PYzFuW2NIXVtjSF1bY0hdYzFbTkhdQyg9TylbTkhdW0NASF0oW0NIMl1bQ0gyXTIpW0NAQEhdKE4yMylbQ0gyXVtDSDJdW0NIMl1bQ0gyXTM=

> <s_epik_cmdline>
J2VwaWtfcHl0aG9uJywgJy1waCcsICc3LjAnLCAnLXRuJywgJzgnLCAnLW1hJywgJzIwMCcsICctbWV0YWxfYmluZGluZycsICctaW1hZScsICc8aW5maWxlLm1hZT4nLCAnLW9tYWUnLCAnPG91dGZpbGUubWFlPic=

> <r_lp_tautomer_probability>
1

> <r_epik_Ionization_Penalty>
0.00104793

> <r_epik_Ionization_Penalty_Charging>
0.000974069

> <r_epik_Ionization_Penalty_Neutral>
7.38649e-05

> <r_epik_State_Penalty>
0.000633842

> <r_epik_Charging_Adjusted_Penalty>
0.00160791

> <i_epik_Tot_Q>
1

> <i_epik_Tot_abs_Q>
1

> <r_epik_Metal_State_Penalty>
-0

> <b_epik_Metal_Only>
0

> <s_lp_Force_Field>
OPLS_2005

> <r_lp_Energy>
37.3569

> <b_lp_Chiralities_Consistent>
1

> <s_lp_Variant>
AV-unprocessed.smi:1721-6

> <Gold.Version>
5.8.1

> <Gold.Id.Protein>
6NUR|6NUR_protein|mol2

> <Gold.PLP.Fitness>
45.4388

> <Gold.PLP.PLP>
-34.7991

> <Gold.PLP.part.hbond>
-3.0000

> <Gold.PLP.part.metal>
0.0000

> <Gold.PLP.part.buried>
-3.4730

> <Gold.PLP.part.nonpolar>
-28.9816

> <Gold.PLP.part.repulsive>
0.4617

> <Gold.PLP.ligand.clash>
0.0000

> <Gold.PLP.ligand.torsion>
0.5658

> <Gold.PLP.Chemscore.Hbond>
2.9200

> <Gold.PLP.Chemscore.CHOScore>
1.0000

> <Gold.PLP.Chemscore.Metal>
0.0000

> <Gold.Chemscore.Hbonds>
donor molecule, donor type, donor heavy atom, donor atom, acceptor molecule, acceptor atom, score
      L1  H     9    28       P1  7948  1.00
      L1  H    12    29       P1  7948  1.00
      P1  H  7989  7998       L1     4  0.96
      L1  C     5    25       P1  8028  0.95

> <Gold.PLP.Chemscore.Internal.Correction>
0.0113

> <Gold.Rescore>
     Score         DG    S(hbond)    S(metal)    S(lipo)     H(rot)  DE(clash)    DE(int)     intcor
     18.02     -20.36       2.41        0.00      85.77       1.25       0.31       2.02       ----

> <Gold.Chemscore.Fitness>
18.0229

> <Gold.Chemscore.DG>
-20.3558

> <Gold.Chemscore.ZeroCoef>
-5.4800

> <Gold.Chemscore.Hbond>
2.4055

> <Gold.Chemscore.Metal>
0.0000

> <Gold.Chemscore.Lipo>
85.7675

> <Gold.Chemscore.Internal_Hbond>
0.0000

> <Gold.Chemscore.DEClash>
0.3124

> <Gold.Chemscore.DEInternal>
2.0205

> <Gold.Chemscore.Rot>
1.2474

> <Gold.Chemscore.Internal.Correction>
   9.000000E+99

> <Gold.Chemscore.Hbonds>
donor molecule, donor type, donor heavy atom, donor atom, acceptor molecule, acceptor atom, score
      L1  H     9    28       P1  7948  0.99
      L1  H    12    29       P1  7948  0.94
      P1  H  7989  7998       L1     4  0.36

> <Gold.Chemscore.Hbond.Weighted>
-8.0344

> <Gold.Chemscore.Metal.Weighted>
-0.0000

> <Gold.Chemscore.Lipo.Weighted>
-10.0348

> <Gold.Chemscore.Internal_Hbond.Weighted>
0.0000

> <Gold.Chemscore.DEClash.Weighted>
0.3124

> <Gold.Chemscore.DEInternal.Weighted>
2.0205

> <Gold.Chemscore.Rot.Weighted>
3.1934

> <Gold.Chemscore.Internal.Correction.Weighted>
   9.000000E+99

> <Gold.Protein.RotatedTorsions>
[ 6907 6896 6895 6894 ] final   53.46 input  -60.11 | X-H torsion
[ 7974 7965 7964 7962 ] final  142.88 input  175.53 | X-H torsion
[ 8008 7997 7996 7995 ] final  -57.07 input   59.86 | X-H torsion
[ 10167 10162 10161 10158 ] final  -56.06 input  -65.29 | X-H torsion
[ 10718 10713 10712 10709 ] final -146.17 input   66.30 | X-H torsion
[ 10763 10752 10751 10750 ] final  167.60 input  -60.55 | X-H torsion
[ 11005 11000 10999 10996 ] final -155.05 input  -57.11 | X-H torsion

> <Gold.Protein.ActiveResidues>
 VAL166  LYS551  ARG553  GLY616  TRP617  ASP618  TYR619  PRO620  LYS621  CYS622 
 ASP623  PHE694  ASN695  SER759  ASP760  ASP761  ALA762  ILE779  LEU786  VAL792 
 PHE793  MET794  SER795  GLU796  ALA797  LYS798  CYS799  TRP800  GLU811  SER814 

> <Gold.Protein.RotatedAtoms>
  152.3339  134.7224  160.0282 H   0  0  0  0  0  0  0  0  0  0  0  0  # atno 6907 bound_to 6896
  151.7631  133.3330  159.3431 H   0  0  0  0  0  0  0  0  0  0  0  0  # atno 6908 bound_to 6896
  150.7439  134.6019  159.6085 H   0  0  0  0  0  0  0  0  0  0  0  0  # atno 6909 bound_to 6896
  144.8969  139.5478  143.5772 H   0  0  0  0  0  0  0  0  0  0  0  0  # atno 7974 bound_to 7965
  154.4254  140.1115  156.5739 H   0  0  0  0  0  0  0  0  0  0  0  0  # atno 8008 bound_to 7997
  155.6183  140.3495  155.4625 H   0  0  0  0  0  0  0  0  0  0  0  0  # atno 8009 bound_to 7997
  156.0045  140.1206  157.0505 H   0  0  0  0  0  0  0  0  0  0  0  0  # atno 8010 bound_to 7997
  140.6339  143.2472  151.5170 H   0  0  0  0  0  0  0  0  0  0  0  0  # atno 10167 bound_to 10162
  156.3916  130.7889  151.2091 H   0  0  0  0  0  0  0  0  0  0  0  0  # atno 10718 bound_to 10713
  154.3562  135.2753  155.2345 H   0  0  0  0  0  0  0  0  0  0  0  0  # atno 10763 bound_to 10752
  154.4552  135.5921  153.6222 H   0  0  0  0  0  0  0  0  0  0  0  0  # atno 10764 bound_to 10752
  152.9846  135.6051  154.3778 H   0  0  0  0  0  0  0  0  0  0  0  0  # atno 10765 bound_to 10752
  140.6907  134.4045  157.5219 H   0  0  0  0  0  0  0  0  0  0  0  0  # atno 11005 bound_to 11000
  146.3086  139.7667  142.9037 LP  0  0  0  0  0  0  0  0  0  0  0  0  # atno 17320 bound_to 7965
  145.3684  141.0338  143.3245 LP  0  0  0  0  0  0  0  0  0  0  0  0  # atno 17321 bound_to 7965
  139.5551  144.2297  152.1597 LP  0  0  0  0  0  0  0  0  0  0  0  0  # atno 17342 bound_to 10162
  140.1548  144.5081  150.6666 LP  0  0  0  0  0  0  0  0  0  0  0  0  # atno 17343 bound_to 10162
  157.7499  131.0314  150.4179 LP  0  0  0  0  0  0  0  0  0  0  0  0  # atno 17370 bound_to 10713
  156.4441  130.3998  149.6678 LP  0  0  0  0  0  0  0  0  0  0  0  0  # atno 17371 bound_to 10713
  139.8924  134.8755  156.2271 LP  0  0  0  0  0  0  0  0  0  0  0  0  # atno 17394 bound_to 11000
  141.0244  133.7023  156.1322 LP  0  0  0  0  0  0  0  0  0  0  0  0  # atno 17395 bound_to 11000

$$$$
