AV-unprocessed.smi:1830|AV-procd|sdf|7453|dock4
  -GOLD-   22720 9143D 1   1.00000     0.00000
 Structure written by MMmdl.
 53 56  0  0  0  0  0  0  0  0  2 V2000
  149.8933  134.7639  155.9303 O   0  0  0  0  0  0  0  0  0  0  0  0
  149.4832  135.1640  154.8410 C   0  0  0  0  0  0  0  0  0  0  0  0
  149.5950  136.4307  154.4189 N   0  0  0  0  0  0  0  0  0  0  0  0
  150.2607  137.5064  155.1460 C   0  0  0  0  0  0  0  0  0  0  0  0
  150.6687  138.6521  154.1965 C   0  0  1  0  0  0  0  0  0  0  0  0
  149.4739  139.2234  153.3962 C   0  0  0  0  0  0  0  0  0  0  0  0
  148.6498  140.0713  154.2364 N   0  0  0  0  0  0  0  0  0  0  0  0
  147.5480  140.7486  153.5931 C   0  0  0  0  0  0  0  0  0  0  0  0
  147.1426  141.8473  154.5903 C   0  0  0  0  0  0  0  0  0  0  0  0
  148.3865  142.0300  155.4874 C   0  0  0  0  0  0  0  0  0  0  0  0
  149.4271  141.1334  154.8133 C   0  0  1  0  0  0  0  0  0  0  0  0
  150.5459  140.5665  155.6953 C   0  0  0  0  0  0  0  0  0  0  0  0
  151.3590  139.7015  154.8950 O   0  0  0  0  0  0  0  0  0  0  0  0
  148.8917  134.3928  153.9148 N   0  0  0  0  0  0  0  0  0  0  0  0
  148.6852  132.9866  153.9719 C   0  0  0  0  0  0  0  0  0  0  0  0
  149.5418  132.1435  154.7239 C   0  0  0  0  0  0  0  0  0  0  0  0
  149.2786  130.7620  154.7929 C   0  0  0  0  0  0  0  0  0  0  0  0
  148.1577  130.2472  154.1176 C   0  0  0  0  0  0  0  0  0  0  0  0
  147.3553  131.0790  153.4209 N   0  3  0  0  0  0  0  0  0  0  0  0
  147.5584  132.4161  153.3188 C   0  0  0  0  0  0  0  0  0  0  0  0
  146.6679  133.1858  152.5389 N   0  0  0  0  0  0  0  0  0  0  0  0
  146.8076  132.9923  151.0971 C   0  0  0  0  0  0  0  0  0  0  0  0
  145.3946  133.0453  150.5112 C   0  0  0  0  0  0  0  0  0  0  0  0
  144.5162  132.6171  151.6801 C   0  0  0  0  0  0  0  0  0  0  0  0
  145.2459  133.2227  152.8769 C   0  0  0  0  0  0  0  0  0  0  0  0
  149.2235  136.6647  153.5100 H   0  0  0  0  0  0  0  0  0  0  0  0
  149.5544  137.8839  155.8856 H   0  0  0  0  0  0  0  0  0  0  0  0
  151.1157  137.1347  155.7126 H   0  0  0  0  0  0  0  0  0  0  0  0
  151.3771  138.2395  153.4774 H   0  0  0  0  0  0  0  0  0  0  0  0
  149.8527  139.8038  152.5536 H   0  0  0  0  0  0  0  0  0  0  0  0
  148.8752  138.4158  152.9737 H   0  0  0  0  0  0  0  0  0  0  0  0
  147.8794  141.2020  152.6574 H   0  0  0  0  0  0  0  0  0  0  0  0
  146.7307  140.0633  153.3667 H   0  0  0  0  0  0  0  0  0  0  0  0
  146.8719  142.7678  154.0722 H   0  0  0  0  0  0  0  0  0  0  0  0
  146.2863  141.5350  155.1890 H   0  0  0  0  0  0  0  0  0  0  0  0
  148.7143  143.0681  155.5466 H   0  0  0  0  0  0  0  0  0  0  0  0
  148.1735  141.6823  156.4993 H   0  0  0  0  0  0  0  0  0  0  0  0
  149.8895  141.7095  154.0089 H   0  0  0  0  0  0  0  0  0  0  0  0
  151.1649  141.3689  156.0962 H   0  0  0  0  0  0  0  0  0  0  0  0
  150.1334  140.0245  156.5463 H   0  0  0  0  0  0  0  0  0  0  0  0
  148.6918  134.8318  153.0279 H   0  0  0  0  0  0  0  0  0  0  0  0
  150.3894  132.5411  155.2619 H   0  0  0  0  0  0  0  0  0  0  0  0
  149.9243  130.1085  155.3613 H   0  0  0  0  0  0  0  0  0  0  0  0
  147.8785  129.2035  154.1153 H   0  0  0  0  0  0  0  0  0  0  0  0
  147.4446  133.7593  150.6560 H   0  0  0  0  0  0  0  0  0  0  0  0
  147.2610  132.0216  150.8896 H   0  0  0  0  0  0  0  0  0  0  0  0
  145.1505  134.0692  150.2249 H   0  0  0  0  0  0  0  0  0  0  0  0
  145.2754  132.4121  149.6317 H   0  0  0  0  0  0  0  0  0  0  0  0
  143.4860  132.9625  151.5911 H   0  0  0  0  0  0  0  0  0  0  0  0
  144.5058  131.5291  151.7602 H   0  0  0  0  0  0  0  0  0  0  0  0
  144.9825  132.7199  153.8070 H   0  0  0  0  0  0  0  0  0  0  0  0
  144.9604  134.2685  152.9930 H   0  0  0  0  0  0  0  0  0  0  0  0
  146.5512  130.6766  152.9393 H   0  0  0  0  0  0  0  0  0  0  0  0
  1  2  2  0  0  0  0
  2  3  1  0  0  0  0
  2 14  1  0  0  0  0
  3  4  1  0  0  0  0
  3 26  1  0  0  0  0
  4  5  1  0  0  0  0
  4 27  1  0  0  0  0
  4 28  1  0  0  0  0
  5 13  1  0  0  0  0
  5  6  1  0  0  0  0
  5 29  1  0  0  0  0
  6  7  1  0  0  0  0
  6 30  1  0  0  0  0
  6 31  1  0  0  0  0
  7 11  1  0  0  0  0
  7  8  1  0  0  0  0
  8  9  1  0  0  0  0
  8 32  1  0  0  0  0
  8 33  1  0  0  0  0
  9 10  1  0  0  0  0
  9 34  1  0  0  0  0
  9 35  1  0  0  0  0
 10 11  1  0  0  0  0
 10 36  1  0  0  0  0
 10 37  1  0  0  0  0
 11 12  1  0  0  0  0
 11 38  1  0  0  0  0
 12 13  1  0  0  0  0
 12 39  1  0  0  0  0
 12 40  1  0  0  0  0
 14 15  1  0  0  0  0
 14 41  1  0  0  0  0
 15 20  1  0  0  0  0
 15 16  2  0  0  0  0
 16 17  1  0  0  0  0
 16 42  1  0  0  0  0
 17 18  2  0  0  0  0
 17 43  1  0  0  0  0
 18 19  1  0  0  0  0
 18 44  1  0  0  0  0
 19 20  2  0  0  0  0
 19 53  1  0  0  0  0
 20 21  1  0  0  0  0
 21 25  1  0  0  0  0
 21 22  1  0  0  0  0
 22 23  1  0  0  0  0
 22 45  1  0  0  0  0
 22 46  1  0  0  0  0
 23 24  1  0  0  0  0
 23 47  1  0  0  0  0
 23 48  1  0  0  0  0
 24 25  1  0  0  0  0
 24 49  1  0  0  0  0
 24 50  1  0  0  0  0
 25 51  1  0  0  0  0
 25 52  1  0  0  0  0
M  CHG  1  19   1
M  END
> <s_m_source_file>
AV-unprocessed.smi

> <i_m_source_file_index>
1830

> <i_lp_mmshare_version>
43012

> <i_f3d_flags>
0

> <s_epik_input>
W0NIMl0xW0NIMl1bQ0gyXVtDQEhdKE4xMilbQ0gyXU9bQ0BASF0oW0NIMl0yKVtDSDJdW05IXUMoPU8pW05IXWMzW2NIXVtjSF1bY0hdbmMzTjRbQ0gyXVtDSDJdW0NIMl1bQ0gyXTQ=

> <s_epik_cmdline>
J2VwaWtfcHl0aG9uJywgJy1waCcsICc3LjAnLCAnLXRuJywgJzgnLCAnLW1hJywgJzIwMCcsICctbWV0YWxfYmluZGluZycsICctaW1hZScsICc8aW5maWxlLm1hZT4nLCAnLW9tYWUnLCAnPG91dGZpbGUubWFlPic=

> <r_epik_Ionization_Penalty>
2.19264

> <r_epik_Ionization_Penalty_Charging>
1.12452

> <r_epik_Ionization_Penalty_Neutral>
1.06812

> <r_epik_State_Penalty>
2.334

> <r_epik_Charging_Adjusted_Penalty>
3.45852

> <i_epik_Tot_Q>
1

> <i_epik_Tot_abs_Q>
1

> <r_epik_Metal_State_Penalty>
2.41144

> <b_epik_Metal_Only>
0

> <s_lp_Force_Field>
OPLS_2005

> <r_lp_Energy>
84.2953

> <b_lp_Chiralities_Consistent>
1

> <s_lp_Variant>
AV-unprocessed.smi:1830-22

> <Gold.Version>
5.8.1

> <Gold.Id.Protein>
6NUR|6NUR_protein|mol2

> <Gold.PLP.Fitness>
45.4810

> <Gold.PLP.PLP>
-37.9916

> <Gold.PLP.part.hbond>
-3.1489

> <Gold.PLP.part.metal>
0.0000

> <Gold.PLP.part.buried>
2.3150

> <Gold.PLP.part.nonpolar>
-37.7341

> <Gold.PLP.part.repulsive>
0.3629

> <Gold.PLP.ligand.clash>
0.0000

> <Gold.PLP.ligand.torsion>
0.4852

> <Gold.PLP.Chemscore.Hbond>
2.7620

> <Gold.PLP.Chemscore.CHOScore>
0.0000

> <Gold.PLP.Chemscore.Metal>
0.0000

> <Gold.Chemscore.Hbonds>
donor molecule, donor type, donor heavy atom, donor atom, acceptor molecule, acceptor atom, score
      L1  H     3    26       P1  7948  0.98
      L1  H    14    41       P1  7948  0.99
      P1  H  7989  7998       L1    13  0.90

> <Gold.PLP.Chemscore.Internal.Correction>
0.1738

> <Gold.Rescore>
     Score         DG    S(hbond)    S(metal)    S(lipo)     H(rot)  DE(clash)    DE(int)     intcor
     15.87     -17.67       1.56        0.00      90.14       1.40       0.12       1.68       ----

> <Gold.Chemscore.Fitness>
15.8740

> <Gold.Chemscore.DG>
-17.6709

> <Gold.Chemscore.ZeroCoef>
-5.4800

> <Gold.Chemscore.Hbond>
1.5622

> <Gold.Chemscore.Metal>
0.0000

> <Gold.Chemscore.Lipo>
90.1437

> <Gold.Chemscore.Internal_Hbond>
0.0000

> <Gold.Chemscore.DEClash>
0.1200

> <Gold.Chemscore.DEInternal>
1.6769

> <Gold.Chemscore.Rot>
1.3959

> <Gold.Chemscore.Internal.Correction>
   9.000000E+99

> <Gold.Chemscore.Hbonds>
donor molecule, donor type, donor heavy atom, donor atom, acceptor molecule, acceptor atom, score
      L1  H     3    26       P1  7948  0.89
      L1  H    14    41       P1  7948  0.28
      P1  H  7989  7998       L1    13  0.05

> <Gold.Chemscore.Hbond.Weighted>
-5.2177

> <Gold.Chemscore.Metal.Weighted>
-0.0000

> <Gold.Chemscore.Lipo.Weighted>
-10.5468

> <Gold.Chemscore.Internal_Hbond.Weighted>
0.0000

> <Gold.Chemscore.DEClash.Weighted>
0.1200

> <Gold.Chemscore.DEInternal.Weighted>
1.6769

> <Gold.Chemscore.Rot.Weighted>
3.5736

> <Gold.Chemscore.Internal.Correction.Weighted>
   9.000000E+99

> <Gold.Protein.RotatedTorsions>
[ 6907 6896 6895 6894 ] final   63.87 input  -60.11 | X-H torsion
[ 7974 7965 7964 7962 ] final  124.79 input  175.53 | X-H torsion
[ 8008 7997 7996 7995 ] final  -53.11 input   59.86 | X-H torsion
[ 10167 10162 10161 10158 ] final    6.15 input  -65.29 | X-H torsion
[ 10718 10713 10712 10709 ] final  -36.02 input   66.30 | X-H torsion
[ 10763 10752 10751 10750 ] final  122.35 input  -60.55 | X-H torsion
[ 11005 11000 10999 10996 ] final  153.72 input  -57.11 | X-H torsion

> <Gold.Protein.ActiveResidues>
 VAL166  LYS551  ARG553  GLY616  TRP617  ASP618  TYR619  PRO620  LYS621  CYS622 
 ASP623  PHE694  ASN695  SER759  ASP760  ASP761  ALA762  ILE779  LEU786  VAL792 
 PHE793  MET794  SER795  GLU796  ALA797  LYS798  CYS799  TRP800  GLU811  SER814 

> <Gold.Protein.RotatedAtoms>
  152.4287  134.5818  159.9949 H   0  0  0  0  0  0  0  0  0  0  0  0  # atno 6907 bound_to 6896
  151.5947  133.3357  159.3043 H   0  0  0  0  0  0  0  0  0  0  0  0  # atno 6908 bound_to 6896
  150.8179  134.7407  159.6811 H   0  0  0  0  0  0  0  0  0  0  0  0  # atno 6909 bound_to 6896
  145.0804  139.3662  143.4912 H   0  0  0  0  0  0  0  0  0  0  0  0  # atno 7974 bound_to 7965
  154.4124  140.1208  156.5101 H   0  0  0  0  0  0  0  0  0  0  0  0  # atno 8008 bound_to 7997
  155.6808  140.3496  155.4835 H   0  0  0  0  0  0  0  0  0  0  0  0  # atno 8009 bound_to 7997
  155.9553  140.1112  157.0932 H   0  0  0  0  0  0  0  0  0  0  0  0  # atno 8010 bound_to 7997
  140.6443  143.7699  150.7475 H   0  0  0  0  0  0  0  0  0  0  0  0  # atno 10167 bound_to 10162
  156.3318  130.4280  149.7866 H   0  0  0  0  0  0  0  0  0  0  0  0  # atno 10718 bound_to 10713
  153.6283  135.3400  155.3033 H   0  0  0  0  0  0  0  0  0  0  0  0  # atno 10763 bound_to 10752
  154.8585  135.4289  154.2133 H   0  0  0  0  0  0  0  0  0  0  0  0  # atno 10764 bound_to 10752
  153.3022  135.7025  153.7265 H   0  0  0  0  0  0  0  0  0  0  0  0  # atno 10765 bound_to 10752
  140.1423  134.8730  157.2347 H   0  0  0  0  0  0  0  0  0  0  0  0  # atno 11005 bound_to 11000
  146.3531  140.0591  142.8630 LP  0  0  0  0  0  0  0  0  0  0  0  0  # atno 17320 bound_to 7965
  145.1185  140.9448  143.4614 LP  0  0  0  0  0  0  0  0  0  0  0  0  # atno 17321 bound_to 7965
  140.1337  143.4503  152.2238 LP  0  0  0  0  0  0  0  0  0  0  0  0  # atno 17342 bound_to 10162
  139.5653  144.7431  151.4039 LP  0  0  0  0  0  0  0  0  0  0  0  0  # atno 17343 bound_to 10162
  156.5135  130.8183  151.3177 LP  0  0  0  0  0  0  0  0  0  0  0  0  # atno 17370 bound_to 10713
  157.7431  130.9906  150.2571 LP  0  0  0  0  0  0  0  0  0  0  0  0  # atno 17371 bound_to 10713
  140.2706  134.3464  155.7375 LP  0  0  0  0  0  0  0  0  0  0  0  0  # atno 17394 bound_to 11000
  141.2188  133.7421  156.9218 LP  0  0  0  0  0  0  0  0  0  0  0  0  # atno 17395 bound_to 11000

$$$$
