AV-unprocessed.smi:1809|AV-procd|sdf|7326|dock10
  -GOLD-   22720 8583D 1   1.00000     0.00000
 Structure written by MMmdl.
 39 41  0  0  0  0  0  0  0  0  3 V2000
  154.6573  136.9707  163.3397 C   0  0  0  0  0  0  0  0  0  0  0  0
  154.2545  136.7729  161.9185 C   0  0  0  0  0  0  0  0  0  0  0  0
  154.3700  135.5998  161.2917 N   0  0  0  0  0  0  0  0  0  0  0  0
  153.9336  135.6649  159.9764 N   0  0  0  0  0  0  0  0  0  0  0  0
  153.5035  136.8846  159.6242 C   0  0  0  0  0  0  0  0  0  0  0  0
  153.0355  137.1539  158.3941 N   0  5  0  0  0  0  0  0  0  0  0  0
  153.1370  138.4035  157.8891 C   0  0  0  0  0  0  0  0  0  0  0  0
  153.8889  139.2956  158.2889 O   0  0  0  0  0  0  0  0  0  0  0  0
  152.3105  138.6376  156.8602 N   0  0  0  0  0  0  0  0  0  0  0  0
  152.1847  139.9001  156.1403 C   0  0  0  0  0  0  0  0  0  0  0  0
  150.7186  140.2036  155.7881 C   0  0  1  0  0  0  0  0  0  0  0  0
  150.3973  141.7056  155.9014 C   0  0  0  0  0  0  0  0  0  0  0  0
  149.0232  142.0113  155.4389 N   0  3  2  0  0  0  0  0  0  0  0  0
  147.9305  141.7505  156.4022 C   0  0  0  0  0  0  0  0  0  0  0  0
  146.7019  141.3575  155.5664 C   0  0  0  0  0  0  0  0  0  0  0  0
  147.1345  141.5183  154.1058 C   0  0  0  0  0  0  0  0  0  0  0  0
  148.6572  141.3832  154.1522 C   0  0  2  0  0  0  0  0  0  0  0  0
  149.1145  139.9076  154.0921 C   0  0  0  0  0  0  0  0  0  0  0  0
  150.4864  139.8031  154.4423 O   0  0  0  0  0  0  0  0  0  0  0  0
  153.5913  138.0650  160.9321 S   0  0  0  0  0  0  0  0  0  0  0  0
  155.7311  137.1469  163.4006 H   0  0  0  0  0  0  0  0  0  0  0  0
  154.4117  136.0871  163.9293 H   0  0  0  0  0  0  0  0  0  0  0  0
  154.1358  137.8285  163.7646 H   0  0  0  0  0  0  0  0  0  0  0  0
  151.7139  137.8794  156.5632 H   0  0  0  0  0  0  0  0  0  0  0  0
  152.6078  140.7072  156.7405 H   0  0  0  0  0  0  0  0  0  0  0  0
  152.7867  139.8421  155.2332 H   0  0  0  0  0  0  0  0  0  0  0  0
  150.0680  139.6392  156.4582 H   0  0  0  0  0  0  0  0  0  0  0  0
  150.5318  142.0600  156.9243 H   0  0  0  0  0  0  0  0  0  0  0  0
  151.0924  142.2715  155.2799 H   0  0  0  0  0  0  0  0  0  0  0  0
  148.1904  140.9437  157.0887 H   0  0  0  0  0  0  0  0  0  0  0  0
  147.7466  142.6451  156.9979 H   0  0  0  0  0  0  0  0  0  0  0  0
  146.4392  140.3177  155.7653 H   0  0  0  0  0  0  0  0  0  0  0  0
  145.8284  141.9664  155.8015 H   0  0  0  0  0  0  0  0  0  0  0  0
  146.6580  140.7987  153.4391 H   0  0  0  0  0  0  0  0  0  0  0  0
  146.8689  142.5172  153.7565 H   0  0  0  0  0  0  0  0  0  0  0  0
  149.1250  141.9351  153.3360 H   0  0  0  0  0  0  0  0  0  0  0  0
  148.5202  139.2745  154.7529 H   0  0  0  0  0  0  0  0  0  0  0  0
  148.9779  139.5166  153.0837 H   0  0  0  0  0  0  0  0  0  0  0  0
  148.9894  143.0075  155.2757 H   0  0  0  0  0  0  0  0  0  0  0  0
  1  2  1  0  0  0  0
  1 21  1  0  0  0  0
  1 22  1  0  0  0  0
  1 23  1  0  0  0  0
  2 20  1  0  0  0  0
  2  3  2  0  0  0  0
  3  4  1  0  0  0  0
  4  5  2  0  0  0  0
  5  6  1  0  0  0  0
  5 20  1  0  0  0  0
  6  7  1  0  0  0  0
  7  8  2  0  0  0  0
  7  9  1  0  0  0  0
  9 10  1  0  0  0  0
  9 24  1  0  0  0  0
 10 11  1  0  0  0  0
 10 25  1  0  0  0  0
 10 26  1  0  0  0  0
 11 19  1  0  0  0  0
 11 12  1  0  0  0  0
 11 27  1  0  0  0  0
 12 13  1  0  0  0  0
 12 28  1  0  0  0  0
 12 29  1  0  0  0  0
 13 17  1  0  0  0  0
 13 14  1  0  0  0  0
 13 39  1  0  0  0  0
 14 15  1  0  0  0  0
 14 30  1  0  0  0  0
 14 31  1  0  0  0  0
 15 16  1  0  0  0  0
 15 32  1  0  0  0  0
 15 33  1  0  0  0  0
 16 17  1  0  0  0  0
 16 34  1  0  0  0  0
 16 35  1  0  0  0  0
 17 18  1  0  0  0  0
 17 36  1  0  0  0  0
 18 19  1  0  0  0  0
 18 37  1  0  0  0  0
 18 38  1  0  0  0  0
M  CHG  1   6  -1
M  CHG  1  13   1
M  END
> <s_m_source_file>
AV-unprocessed.smi

> <i_m_source_file_index>
1809

> <i_lp_mmshare_version>
43012

> <i_f3d_flags>
0

> <s_epik_input>
W0NIM11jMW5uYyhzMSlbTkhdQyg9TylbTkhdW0NIMl1bQ0BIXShbQ0gyXTIpT1tDSDJdW0NAQEhdKE4yMylbQ0gyXVtDSDJdW0NIMl0z

> <s_epik_cmdline>
J2VwaWtfcHl0aG9uJywgJy1waCcsICc3LjAnLCAnLXRuJywgJzgnLCAnLW1hJywgJzIwMCcsICctbWV0YWxfYmluZGluZycsICctaW1hZScsICc8aW5maWxlLm1hZT4nLCAnLW9tYWUnLCAnPG91dGZpbGUubWFlPic=

> <r_lp_tautomer_probability>
1

> <r_epik_Ionization_Penalty>
3.2601

> <r_epik_Ionization_Penalty_Charging>
3.1406

> <r_epik_Ionization_Penalty_Neutral>
0.119497

> <r_epik_State_Penalty>
3.08894

> <r_epik_Charging_Adjusted_Penalty>
6.22954

> <i_epik_Tot_Q>
0

> <i_epik_Tot_abs_Q>
2

> <r_epik_Metal_State_Penalty>
0.510807

> <b_epik_Metal_Only>
1

> <s_lp_Force_Field>
OPLS_2005

> <r_lp_Energy>
28.762

> <b_lp_Chiralities_Consistent>
1

> <s_lp_Variant>
AV-unprocessed.smi:1809-18

> <Gold.Version>
5.8.1

> <Gold.Id.Protein>
6NUR|6NUR_protein|mol2

> <Gold.PLP.Fitness>
44.2209

> <Gold.PLP.PLP>
-31.0222

> <Gold.PLP.part.hbond>
-4.0000

> <Gold.PLP.part.metal>
0.0000

> <Gold.PLP.part.buried>
-0.7172

> <Gold.PLP.part.nonpolar>
-25.4794

> <Gold.PLP.part.repulsive>
0.3683

> <Gold.PLP.ligand.clash>
0.0000

> <Gold.PLP.ligand.torsion>
0.9059

> <Gold.PLP.Chemscore.Hbond>
5.0000

> <Gold.PLP.Chemscore.CHOScore>
0.0000

> <Gold.PLP.Chemscore.Metal>
0.0000

> <Gold.Chemscore.Hbonds>
donor molecule, donor type, donor heavy atom, donor atom, acceptor molecule, acceptor atom, score
      L1  H    13    39       P1  8028  2.00
      P1  H  6896  6907       L1     4  1.00
      P1  H  7989  7998       L1    19  1.00
      P1  H  7997  8010       L1     8  0.99

> <Gold.PLP.Chemscore.Internal.Correction>
0.0105

> <Gold.Rescore>
     Score         DG    S(hbond)    S(metal)    S(lipo)     H(rot)  DE(clash)    DE(int)     intcor
     18.97     -21.25       3.31        0.00      69.28       1.32       0.10       2.17       ----

> <Gold.Chemscore.Fitness>
18.9722

> <Gold.Chemscore.DG>
-21.2468

> <Gold.Chemscore.ZeroCoef>
-5.4800

> <Gold.Chemscore.Hbond>
3.3091

> <Gold.Chemscore.Metal>
0.0000

> <Gold.Chemscore.Lipo>
69.2777

> <Gold.Chemscore.Internal_Hbond>
0.0000

> <Gold.Chemscore.DEClash>
0.1038

> <Gold.Chemscore.DEInternal>
2.1708

> <Gold.Chemscore.Rot>
1.3246

> <Gold.Chemscore.Internal.Correction>
   9.000000E+99

> <Gold.Chemscore.Hbonds>
donor molecule, donor type, donor heavy atom, donor atom, acceptor molecule, acceptor atom, score
      L1  H    13    39       P1  8028  0.99
      P1  H  6896  6907       L1     4  0.24
      P1  H  7989  7998       L1    19  0.36
      P1  H  7997  8010       L1     8  0.93

> <Gold.Chemscore.Hbond.Weighted>
-11.0523

> <Gold.Chemscore.Metal.Weighted>
-0.0000

> <Gold.Chemscore.Lipo.Weighted>
-8.1055

> <Gold.Chemscore.Internal_Hbond.Weighted>
0.0000

> <Gold.Chemscore.DEClash.Weighted>
0.1038

> <Gold.Chemscore.DEInternal.Weighted>
2.1708

> <Gold.Chemscore.Rot.Weighted>
3.3910

> <Gold.Chemscore.Internal.Correction.Weighted>
   9.000000E+99

> <Gold.Protein.RotatedTorsions>
[ 6907 6896 6895 6894 ] final   65.91 input  -60.11 | X-H torsion
[ 7974 7965 7964 7962 ] final   31.48 input  175.53 | X-H torsion
[ 8008 7997 7996 7995 ] final    2.42 input   59.86 | X-H torsion
[ 10167 10162 10161 10158 ] final  -87.27 input  -65.29 | X-H torsion
[ 10718 10713 10712 10709 ] final  174.51 input   66.30 | X-H torsion
[ 10763 10752 10751 10750 ] final  170.23 input  -60.55 | X-H torsion
[ 11005 11000 10999 10996 ] final -109.16 input  -57.11 | X-H torsion

> <Gold.Protein.ActiveResidues>
 VAL166  LYS551  ARG553  GLY616  TRP617  ASP618  TYR619  PRO620  LYS621  CYS622 
 ASP623  PHE694  ASN695  SER759  ASP760  ASP761  ALA762  ILE779  LEU786  VAL792 
 PHE793  MET794  SER795  GLU796  ALA797  LYS798  CYS799  TRP800  GLU811  SER814 

> <Gold.Protein.RotatedAtoms>
  152.4443  134.5528  159.9871 H   0  0  0  0  0  0  0  0  0  0  0  0  # atno 6907 bound_to 6896
  151.5617  133.3396  159.2980 H   0  0  0  0  0  0  0  0  0  0  0  0  # atno 6908 bound_to 6896
  150.8355  134.7659  159.6953 H   0  0  0  0  0  0  0  0  0  0  0  0  # atno 6909 bound_to 6896
  146.1547  139.6651  142.9074 H   0  0  0  0  0  0  0  0  0  0  0  0  # atno 7974 bound_to 7965
  154.6914  140.2654  155.6809 H   0  0  0  0  0  0  0  0  0  0  0  0  # atno 8008 bound_to 7997
  156.2733  140.2790  156.1416 H   0  0  0  0  0  0  0  0  0  0  0  0  # atno 8009 bound_to 7997
  155.0892  140.0373  157.2653 H   0  0  0  0  0  0  0  0  0  0  0  0  # atno 8010 bound_to 7997
  140.3861  143.2726  151.9323 H   0  0  0  0  0  0  0  0  0  0  0  0  # atno 10167 bound_to 10162
  156.9486  131.0024  151.2953 H   0  0  0  0  0  0  0  0  0  0  0  0  # atno 10718 bound_to 10713
  154.3946  135.2754  155.2133 H   0  0  0  0  0  0  0  0  0  0  0  0  # atno 10763 bound_to 10752
  154.4185  135.6005  153.5999 H   0  0  0  0  0  0  0  0  0  0  0  0  # atno 10764 bound_to 10752
  152.9831  135.5967  154.4206 H   0  0  0  0  0  0  0  0  0  0  0  0  # atno 10765 bound_to 10752
  141.0863  133.9134  157.2179 H   0  0  0  0  0  0  0  0  0  0  0  0  # atno 11005 bound_to 11000
  145.4737  141.0436  143.2684 LP  0  0  0  0  0  0  0  0  0  0  0  0  # atno 17320 bound_to 7965
  144.7948  139.6255  143.7097 LP  0  0  0  0  0  0  0  0  0  0  0  0  # atno 17321 bound_to 7965
  139.4792  144.5772  151.7992 LP  0  0  0  0  0  0  0  0  0  0  0  0  # atno 17342 bound_to 10162
  140.4888  144.1341  150.5946 LP  0  0  0  0  0  0  0  0  0  0  0  0  # atno 17343 bound_to 10162
  157.5737  130.8328  149.8426 LP  0  0  0  0  0  0  0  0  0  0  0  0  # atno 17370 bound_to 10713
  156.0373  130.3748  150.1528 LP  0  0  0  0  0  0  0  0  0  0  0  0  # atno 17371 bound_to 10713
  139.9681  135.0136  156.9441 LP  0  0  0  0  0  0  0  0  0  0  0  0  # atno 17394 bound_to 11000
  140.5356  134.0770  155.7327 LP  0  0  0  0  0  0  0  0  0  0  0  0  # atno 17395 bound_to 11000

$$$$
