AV-unprocessed.smi:3057|AV-procd|sdf|11665|dock3
  -GOLD-   2272017 73D 1   1.00000     0.00000
 Structure written by MMmdl.
 41 43  0  0  0  0  0  0  0  0  2 V2000
  147.1805  140.0529  157.0266 C   0  0  0  0  0  0  0  0  0  0  0  0
  147.9140  141.1984  156.3025 C   0  0  1  0  0  0  0  0  0  0  0  0
  149.0888  141.7342  157.1408 C   0  0  0  0  0  0  0  0  0  0  0  0
  150.3162  140.9772  156.6116 C   0  0  0  0  0  0  0  0  0  0  0  0
  149.8742  140.5745  155.2140 C   0  0  0  0  0  0  0  0  0  0  0  0
  150.6556  140.2218  154.3319 O   0  0  0  0  0  0  0  0  0  0  0  0
  148.5502  140.7298  155.0862 N   0  0  0  0  0  0  0  0  0  0  0  0
  147.7906  140.8064  153.8358 C   0  0  1  0  0  0  0  0  0  0  0  0
  147.4708  139.3972  153.3090 C   0  0  0  0  0  0  0  0  0  0  0  0
  147.9274  138.3958  153.8620 O   0  0  0  0  0  0  0  0  0  0  0  0
  146.6711  139.3392  152.2342 N   0  0  0  0  0  0  0  0  0  0  0  0
  146.2587  138.1096  151.5705 C   0  0  0  0  0  0  0  0  0  0  0  0
  145.5671  137.1675  152.5655 C   0  0  0  0  0  0  0  0  0  0  0  0
  145.3943  135.7677  152.0084 C   0  0  0  0  0  0  0  0  0  0  0  0
  144.1325  135.1389  151.9290 C   0  0  0  0  0  0  0  0  0  0  0  0
  144.0455  133.8339  151.4001 C   0  0  0  0  0  0  0  0  0  0  0  0
  145.2197  133.1859  150.9635 C   0  0  0  0  0  0  0  0  0  0  0  0
  146.4535  133.8601  151.0674 C   0  0  0  0  0  0  0  0  0  0  0  0
  146.4958  135.1099  151.5789 N   0  3  0  0  0  0  0  0  0  0  0  0
  146.4789  141.5617  154.1655 C   0  0  0  0  0  0  0  0  0  0  0  0
  146.7611  142.4532  155.7207 S   0  0  0  0  0  0  0  0  0  0  0  0
  147.8609  139.2387  157.2777 H   0  0  0  0  0  0  0  0  0  0  0  0
  146.3791  139.6354  156.4171 H   0  0  0  0  0  0  0  0  0  0  0  0
  146.7306  140.4050  157.9553 H   0  0  0  0  0  0  0  0  0  0  0  0
  149.2234  142.8040  156.9743 H   0  0  0  0  0  0  0  0  0  0  0  0
  148.9435  141.5886  158.2118 H   0  0  0  0  0  0  0  0  0  0  0  0
  151.2118  141.5988  156.5944 H   0  0  0  0  0  0  0  0  0  0  0  0
  150.5171  140.0806  157.1987 H   0  0  0  0  0  0  0  0  0  0  0  0
  148.3699  141.3720  153.1033 H   0  0  0  0  0  0  0  0  0  0  0  0
  146.3354  140.2080  151.8441 H   0  0  0  0  0  0  0  0  0  0  0  0
  145.5789  138.3355  150.7470 H   0  0  0  0  0  0  0  0  0  0  0  0
  147.1376  137.6285  151.1397 H   0  0  0  0  0  0  0  0  0  0  0  0
  146.1400  137.1157  153.4925 H   0  0  0  0  0  0  0  0  0  0  0  0
  144.5851  137.5614  152.8321 H   0  0  0  0  0  0  0  0  0  0  0  0
  143.2413  135.6474  152.2678 H   0  0  0  0  0  0  0  0  0  0  0  0
  143.0895  133.3359  151.3304 H   0  0  0  0  0  0  0  0  0  0  0  0
  145.1745  132.1866  150.5557 H   0  0  0  0  0  0  0  0  0  0  0  0
  147.4004  133.4411  150.7592 H   0  0  0  0  0  0  0  0  0  0  0  0
  146.1923  142.2523  153.3720 H   0  0  0  0  0  0  0  0  0  0  0  0
  145.6418  140.8804  154.3266 H   0  0  0  0  0  0  0  0  0  0  0  0
  147.3996  135.5789  151.6446 H   0  0  0  0  0  0  0  0  0  0  0  0
  1  2  1  0  0  0  0
  1 22  1  0  0  0  0
  1 23  1  0  0  0  0
  1 24  1  0  0  0  0
  2  7  1  0  0  0  0
  2 21  1  0  0  0  0
  2  3  1  0  0  0  0
  3  4  1  0  0  0  0
  3 25  1  0  0  0  0
  3 26  1  0  0  0  0
  4  5  1  0  0  0  0
  4 27  1  0  0  0  0
  4 28  1  0  0  0  0
  5  6  2  0  0  0  0
  5  7  1  0  0  0  0
  7  8  1  0  0  0  0
  8  9  1  0  0  0  0
  8 20  1  0  0  0  0
  8 29  1  0  0  0  0
  9 10  2  0  0  0  0
  9 11  1  0  0  0  0
 11 12  1  0  0  0  0
 11 30  1  0  0  0  0
 12 13  1  0  0  0  0
 12 31  1  0  0  0  0
 12 32  1  0  0  0  0
 13 14  1  0  0  0  0
 13 33  1  0  0  0  0
 13 34  1  0  0  0  0
 14 19  1  0  0  0  0
 14 15  2  0  0  0  0
 15 16  1  0  0  0  0
 15 35  1  0  0  0  0
 16 17  2  0  0  0  0
 16 36  1  0  0  0  0
 17 18  1  0  0  0  0
 17 37  1  0  0  0  0
 18 19  2  0  0  0  0
 18 38  1  0  0  0  0
 19 41  1  0  0  0  0
 20 21  1  0  0  0  0
 20 39  1  0  0  0  0
 20 40  1  0  0  0  0
M  CHG  1  19   1
M  END
> <s_m_source_file>
AV-unprocessed.smi

> <i_m_source_file_index>
3057

> <i_lp_mmshare_version>
43012

> <i_f3d_flags>
0

> <s_epik_input>
W0NIMl0xW0NIMl1DKD1PKU4oW0NAQF0xMltDSDNdKVtDQEhdKFtDSDJdUzIpQyg9TylbTkhdW0NIMl1bQ0gyXWMzW2NIXVtjSF1bY0hdW2NIXW4z

> <s_epik_cmdline>
J2VwaWtfcHl0aG9uJywgJy1waCcsICc3LjAnLCAnLXRuJywgJzgnLCAnLW1hJywgJzIwMCcsICctbWV0YWxfYmluZGluZycsICctaW1hZScsICc8aW5maWxlLm1hZT4nLCAnLW9tYWUnLCAnPG91dGZpbGUubWFlPic=

> <r_epik_Ionization_Penalty>
1.8888

> <r_epik_Ionization_Penalty_Charging>
1.8888

> <r_epik_Ionization_Penalty_Neutral>
1.66252e-07

> <r_epik_State_Penalty>
2.00916

> <r_epik_Charging_Adjusted_Penalty>
3.89796

> <i_epik_Tot_Q>
1

> <i_epik_Tot_abs_Q>
1

> <r_epik_Metal_State_Penalty>
2.03343

> <b_epik_Metal_Only>
0

> <s_lp_Force_Field>
OPLS_2005

> <r_lp_Energy>
32.3191

> <b_lp_Chiralities_Consistent>
1

> <s_lp_Variant>
AV-unprocessed.smi:3057-5

> <Gold.Version>
5.8.1

> <Gold.Id.Protein>
6NUR|6NUR_protein|mol2

> <Gold.PLP.Fitness>
42.0092

> <Gold.PLP.PLP>
-33.1807

> <Gold.PLP.part.hbond>
-2.9790

> <Gold.PLP.part.metal>
0.0000

> <Gold.PLP.part.buried>
-3.0522

> <Gold.PLP.part.nonpolar>
-29.2373

> <Gold.PLP.part.repulsive>
0.4136

> <Gold.PLP.ligand.clash>
0.0000

> <Gold.PLP.ligand.torsion>
0.1042

> <Gold.PLP.Chemscore.Hbond>
3.0000

> <Gold.PLP.Chemscore.CHOScore>
0.0000

> <Gold.PLP.Chemscore.Metal>
0.0000

> <Gold.Chemscore.Hbonds>
donor molecule, donor type, donor heavy atom, donor atom, acceptor molecule, acceptor atom, score
      L1  H    19    41       P1  7948  2.00
      P1  H  7989  7998       L1     6  0.76

> <Gold.PLP.Chemscore.Internal.Correction>
0.0369

> <Gold.Rescore>
     Score         DG    S(hbond)    S(metal)    S(lipo)     H(rot)  DE(clash)    DE(int)     intcor
     14.78     -16.25       1.99        0.00      70.82       1.62       0.15       1.31       ----

> <Gold.Chemscore.Fitness>
14.7816

> <Gold.Chemscore.DG>
-16.2485

> <Gold.Chemscore.ZeroCoef>
-5.4800

> <Gold.Chemscore.Hbond>
1.9874

> <Gold.Chemscore.Metal>
0.0000

> <Gold.Chemscore.Lipo>
70.8232

> <Gold.Chemscore.Internal_Hbond>
0.0000

> <Gold.Chemscore.DEClash>
0.1538

> <Gold.Chemscore.DEInternal>
1.3130

> <Gold.Chemscore.Rot>
1.6234

> <Gold.Chemscore.Internal.Correction>
   9.000000E+99

> <Gold.Chemscore.Hbonds>
donor molecule, donor type, donor heavy atom, donor atom, acceptor molecule, acceptor atom, score
      L1  H    19    41       P1  7948  0.99
      P1  H  7989  7998       L1     6  0.75

> <Gold.Chemscore.Hbond.Weighted>
-6.6380

> <Gold.Chemscore.Metal.Weighted>
-0.0000

> <Gold.Chemscore.Lipo.Weighted>
-8.2863

> <Gold.Chemscore.Internal_Hbond.Weighted>
0.0000

> <Gold.Chemscore.DEClash.Weighted>
0.1538

> <Gold.Chemscore.DEInternal.Weighted>
1.3130

> <Gold.Chemscore.Rot.Weighted>
4.1558

> <Gold.Chemscore.Internal.Correction.Weighted>
   9.000000E+99

> <Gold.Protein.RotatedTorsions>
[ 6907 6896 6895 6894 ] final   40.48 input  -60.11 | X-H torsion
[ 7974 7965 7964 7962 ] final  147.22 input  175.53 | X-H torsion
[ 8008 7997 7996 7995 ] final   91.75 input   59.86 | X-H torsion
[ 10167 10162 10161 10158 ] final   40.67 input  -65.29 | X-H torsion
[ 10718 10713 10712 10709 ] final  -85.16 input   66.30 | X-H torsion
[ 10763 10752 10751 10750 ] final  -38.96 input  -60.55 | X-H torsion
[ 11005 11000 10999 10996 ] final  -47.51 input  -57.11 | X-H torsion

> <Gold.Protein.ActiveResidues>
 VAL166  LYS551  ARG553  GLY616  TRP617  ASP618  TYR619  PRO620  LYS621  CYS622 
 ASP623  PHE694  ASN695  SER759  ASP760  ASP761  ALA762  ILE779  LEU786  VAL792 
 PHE793  MET794  SER795  GLU796  ALA797  LYS798  CYS799  TRP800  GLU811  SER814 

> <Gold.Protein.RotatedAtoms>
  152.1830  134.8737  160.0524 H   0  0  0  0  0  0  0  0  0  0  0  0  # atno 6907 bound_to 6896
  151.9654  133.3704  159.4059 H   0  0  0  0  0  0  0  0  0  0  0  0  # atno 6908 bound_to 6896
  150.6921  134.4119  159.5209 H   0  0  0  0  0  0  0  0  0  0  0  0  # atno 6909 bound_to 6896
  144.8608  139.6002  143.5931 H   0  0  0  0  0  0  0  0  0  0  0  0  # atno 7974 bound_to 7965
  156.0273  140.3334  155.7102 H   0  0  0  0  0  0  0  0  0  0  0  0  # atno 8008 bound_to 7997
  155.5935  140.0648  157.2770 H   0  0  0  0  0  0  0  0  0  0  0  0  # atno 8009 bound_to 7997
  154.4339  140.1823  156.1087 H   0  0  0  0  0  0  0  0  0  0  0  0  # atno 8010 bound_to 7997
  140.3719  144.2094  150.6133 H   0  0  0  0  0  0  0  0  0  0  0  0  # atno 10167 bound_to 10162
  155.9999  130.4722  150.4520 H   0  0  0  0  0  0  0  0  0  0  0  0  # atno 10718 bound_to 10713
  153.9215  135.6782  153.4747 H   0  0  0  0  0  0  0  0  0  0  0  0  # atno 10763 bound_to 10752
  153.1026  135.4821  154.8891 H   0  0  0  0  0  0  0  0  0  0  0  0  # atno 10764 bound_to 10752
  154.7475  135.3176  154.8574 H   0  0  0  0  0  0  0  0  0  0  0  0  # atno 10765 bound_to 10752
  141.0645  133.6698  156.3308 H   0  0  0  0  0  0  0  0  0  0  0  0  # atno 11005 bound_to 11000
  146.2859  139.7003  142.9196 LP  0  0  0  0  0  0  0  0  0  0  0  0  # atno 17320 bound_to 7965
  145.4316  141.0415  143.2908 LP  0  0  0  0  0  0  0  0  0  0  0  0  # atno 17321 bound_to 7965
  140.5025  143.2314  151.8657 LP  0  0  0  0  0  0  0  0  0  0  0  0  # atno 17342 bound_to 10162
  139.4803  144.5043  151.9018 LP  0  0  0  0  0  0  0  0  0  0  0  0  # atno 17343 bound_to 10162
  157.2552  131.0555  151.2354 LP  0  0  0  0  0  0  0  0  0  0  0  0  # atno 17370 bound_to 10713
  157.3489  130.7072  149.6428 LP  0  0  0  0  0  0  0  0  0  0  0  0  # atno 17371 bound_to 10713
  140.5802  134.5754  157.5477 LP  0  0  0  0  0  0  0  0  0  0  0  0  # atno 17394 bound_to 11000
  139.9463  134.7696  156.0554 LP  0  0  0  0  0  0  0  0  0  0  0  0  # atno 17395 bound_to 11000

$$$$
