AV-unprocessed.smi:2060|AV-procd|sdf|8356|dock3
  -GOLD-   2272011 23D 1   1.00000     0.00000
 Structure written by MMmdl.
 46 47  0  0  0  0  0  0  0  0  2 V2000
  146.5091  141.5673  156.8448 C   0  0  0  0  0  0  0  0  0  0  0  0
  146.4980  140.5123  155.7243 C   0  0  0  0  0  0  0  0  0  0  0  0
  147.0111  140.9876  154.3305 C   0  0  1  0  0  0  0  0  0  0  0  0
  146.4435  142.4005  154.0343 C   0  0  0  0  0  0  0  0  0  0  0  0
  148.5677  141.1013  154.3575 C   0  0  0  0  0  0  0  0  0  0  0  0
  149.0763  142.0351  155.3641 N   0  0  0  0  0  0  0  0  0  0  0  0
  150.0309  141.7673  156.2671 C   0  0  0  0  0  0  0  0  0  0  0  0
  150.5890  140.6747  156.3599 O   0  0  0  0  0  0  0  0  0  0  0  0
  150.2766  142.8356  157.0435 N   0  0  0  0  0  0  0  0  0  0  0  0
  151.2025  142.9547  158.1117 C   0  0  0  0  0  0  0  0  0  0  0  0
  151.4628  141.9796  159.1184 C   0  0  0  0  0  0  0  0  0  0  0  0
  152.4244  142.5783  159.8827 C   0  0  0  0  0  0  0  0  0  0  0  0
  153.1693  142.1454  161.0990 C   0  0  0  0  0  0  0  0  0  0  0  0
  152.7250  143.8089  159.3875 O   0  0  0  0  0  0  0  0  0  0  0  0
  151.9390  144.0411  158.2530 N   0  0  0  0  0  0  0  0  0  0  0  0
  146.5819  140.0328  153.2417 N   0  3  0  0  0  0  0  0  0  0  0  0
  147.1582  140.2905  151.8914 C   0  0  0  0  0  0  0  0  0  0  0  0
  146.4806  139.3991  150.8381 C   0  0  0  0  0  0  0  0  0  0  0  0
  146.6457  138.0342  151.1954 O   0  0  0  0  0  0  0  0  0  0  0  0
  146.0354  137.7401  152.4442 C   0  0  0  0  0  0  0  0  0  0  0  0
  146.6870  138.5796  153.5563 C   0  0  0  0  0  0  0  0  0  0  0  0
  146.1295  141.1373  157.7720 H   0  0  0  0  0  0  0  0  0  0  0  0
  145.8776  142.4231  156.6078 H   0  0  0  0  0  0  0  0  0  0  0  0
  147.5149  141.9327  157.0506 H   0  0  0  0  0  0  0  0  0  0  0  0
  147.0936  139.6697  156.0739 H   0  0  0  0  0  0  0  0  0  0  0  0
  145.4780  140.1391  155.6379 H   0  0  0  0  0  0  0  0  0  0  0  0
  146.9268  143.1665  154.6412 H   0  0  0  0  0  0  0  0  0  0  0  0
  145.3765  142.4683  154.2476 H   0  0  0  0  0  0  0  0  0  0  0  0
  146.5916  142.6843  152.9918 H   0  0  0  0  0  0  0  0  0  0  0  0
  149.0273  140.1219  154.4989 H   0  0  0  0  0  0  0  0  0  0  0  0
  148.9393  141.4398  153.3905 H   0  0  0  0  0  0  0  0  0  0  0  0
  148.6859  142.9662  155.3547 H   0  0  0  0  0  0  0  0  0  0  0  0
  149.7315  143.6640  156.8551 H   0  0  0  0  0  0  0  0  0  0  0  0
  151.0309  141.0016  159.2688 H   0  0  0  0  0  0  0  0  0  0  0  0
  152.6754  141.2996  161.5774 H   0  0  0  0  0  0  0  0  0  0  0  0
  153.2306  142.9552  161.8262 H   0  0  0  0  0  0  0  0  0  0  0  0
  154.1845  141.8433  160.8415 H   0  0  0  0  0  0  0  0  0  0  0  0
  147.0296  141.3290  151.5922 H   0  0  0  0  0  0  0  0  0  0  0  0
  148.2292  140.0870  151.8916 H   0  0  0  0  0  0  0  0  0  0  0  0
  145.4209  139.6412  150.7434 H   0  0  0  0  0  0  0  0  0  0  0  0
  146.9333  139.5632  149.8599 H   0  0  0  0  0  0  0  0  0  0  0  0
  144.9620  137.9298  152.3917 H   0  0  0  0  0  0  0  0  0  0  0  0
  146.1596  136.6778  152.6550 H   0  0  0  0  0  0  0  0  0  0  0  0
  147.7326  138.2908  153.6655 H   0  0  0  0  0  0  0  0  0  0  0  0
  146.1851  138.3302  154.4891 H   0  0  0  0  0  0  0  0  0  0  0  0
  145.5913  140.2031  153.1427 H   0  0  0  0  0  0  0  0  0  0  0  0
  1  2  1  0  0  0  0
  1 22  1  0  0  0  0
  1 23  1  0  0  0  0
  1 24  1  0  0  0  0
  2  3  1  0  0  0  0
  2 25  1  0  0  0  0
  2 26  1  0  0  0  0
  3  4  1  0  0  0  0
  3  5  1  0  0  0  0
  3 16  1  0  0  0  0
  4 27  1  0  0  0  0
  4 28  1  0  0  0  0
  4 29  1  0  0  0  0
  5  6  1  0  0  0  0
  5 30  1  0  0  0  0
  5 31  1  0  0  0  0
  6  7  1  0  0  0  0
  6 32  1  0  0  0  0
  7  8  2  0  0  0  0
  7  9  1  0  0  0  0
  9 10  1  0  0  0  0
  9 33  1  0  0  0  0
 10 15  2  0  0  0  0
 10 11  1  0  0  0  0
 11 12  2  0  0  0  0
 11 34  1  0  0  0  0
 12 13  1  0  0  0  0
 12 14  1  0  0  0  0
 13 35  1  0  0  0  0
 13 36  1  0  0  0  0
 13 37  1  0  0  0  0
 14 15  1  0  0  0  0
 16 21  1  0  0  0  0
 16 17  1  0  0  0  0
 16 46  1  0  0  0  0
 17 18  1  0  0  0  0
 17 38  1  0  0  0  0
 17 39  1  0  0  0  0
 18 19  1  0  0  0  0
 18 40  1  0  0  0  0
 18 41  1  0  0  0  0
 19 20  1  0  0  0  0
 20 21  1  0  0  0  0
 20 42  1  0  0  0  0
 20 43  1  0  0  0  0
 21 44  1  0  0  0  0
 21 45  1  0  0  0  0
M  CHG  1  16   1
M  END
> <s_m_source_file>
AV-unprocessed.smi

> <i_m_source_file_index>
2060

> <i_lp_mmshare_version>
43012

> <i_f3d_flags>
0

> <s_epik_input>
W0NIMl0xW0NIMl1PW0NIMl1bQ0gyXU4xW0NAQF0oW0NIM10pKFtDSDJdW0NIM10pW0NIMl1bTkhdQyg9TylbTkhdYzJbY0hdYyhbQ0gzXSlvbjI=

> <s_epik_cmdline>
J2VwaWtfcHl0aG9uJywgJy1waCcsICc3LjAnLCAnLXRuJywgJzgnLCAnLW1hJywgJzIwMCcsICctbWV0YWxfYmluZGluZycsICctaW1hZScsICc8aW5maWxlLm1hZT4nLCAnLW9tYWUnLCAnPG91dGZpbGUubWFlPic=

> <r_epik_Ionization_Penalty>
0.563843

> <r_epik_Ionization_Penalty_Charging>
0.563819

> <r_epik_Ionization_Penalty_Neutral>
2.4442e-05

> <r_epik_State_Penalty>
0.575199

> <r_epik_Charging_Adjusted_Penalty>
1.13902

> <i_epik_Tot_Q>
1

> <i_epik_Tot_abs_Q>
1

> <r_epik_Metal_State_Penalty>
0.577669

> <b_epik_Metal_Only>
0

> <s_lp_Force_Field>
OPLS_2005

> <r_lp_Energy>
34.1669

> <b_lp_Chiralities_Consistent>
1

> <s_lp_Variant>
AV-unprocessed.smi:2060-3

> <Gold.Version>
5.8.1

> <Gold.Id.Protein>
6NUR|6NUR_protein|mol2

> <Gold.PLP.Fitness>
45.1822

> <Gold.PLP.PLP>
-32.0154

> <Gold.PLP.part.hbond>
-4.0000

> <Gold.PLP.part.metal>
0.0000

> <Gold.PLP.part.buried>
-1.3226

> <Gold.PLP.part.nonpolar>
-29.6731

> <Gold.PLP.part.repulsive>
1.5381

> <Gold.PLP.ligand.clash>
0.0000

> <Gold.PLP.ligand.torsion>
0.8555

> <Gold.PLP.Chemscore.Hbond>
4.9180

> <Gold.PLP.Chemscore.CHOScore>
0.0000

> <Gold.PLP.Chemscore.Metal>
0.0000

> <Gold.Chemscore.Hbonds>
donor molecule, donor type, donor heavy atom, donor atom, acceptor molecule, acceptor atom, score
      L1  H     6    32       P1  8028  1.00
      L1  H     9    33       P1  8028  0.99
      L1  H    16    46       P1 10175  1.95
      P1  H  7954  7966       L1    19  0.50

> <Gold.PLP.Chemscore.Internal.Correction>
0.1237

> <Gold.Rescore>
     Score         DG    S(hbond)    S(metal)    S(lipo)     H(rot)  DE(clash)    DE(int)     intcor
     17.17     -23.10       3.41        0.00      91.89       1.77       4.88       1.05       ----

> <Gold.Chemscore.Fitness>
17.1673

> <Gold.Chemscore.DG>
-23.0992

> <Gold.Chemscore.ZeroCoef>
-5.4800

> <Gold.Chemscore.Hbond>
3.4106

> <Gold.Chemscore.Metal>
0.0000

> <Gold.Chemscore.Lipo>
91.8906

> <Gold.Chemscore.Internal_Hbond>
0.0000

> <Gold.Chemscore.DEClash>
4.8788

> <Gold.Chemscore.DEInternal>
1.0531

> <Gold.Chemscore.Rot>
1.7670

> <Gold.Chemscore.Internal.Correction>
   9.000000E+99

> <Gold.Chemscore.Hbonds>
donor molecule, donor type, donor heavy atom, donor atom, acceptor molecule, acceptor atom, score
      L1  H     6    32       P1  8028  0.94
      L1  H     9    33       P1  8028  0.93
      L1  H    16    46       P1 10175  0.91
      P1  H  7954  7966       L1    19  0.02

> <Gold.Chemscore.Hbond.Weighted>
-11.3915

> <Gold.Chemscore.Metal.Weighted>
-0.0000

> <Gold.Chemscore.Lipo.Weighted>
-10.7512

> <Gold.Chemscore.Internal_Hbond.Weighted>
0.0000

> <Gold.Chemscore.DEClash.Weighted>
4.8788

> <Gold.Chemscore.DEInternal.Weighted>
1.0531

> <Gold.Chemscore.Rot.Weighted>
4.5235

> <Gold.Chemscore.Internal.Correction.Weighted>
   9.000000E+99

> <Gold.Protein.RotatedTorsions>
[ 6907 6896 6895 6894 ] final  -13.33 input  -60.11 | X-H torsion
[ 7974 7965 7964 7962 ] final -173.47 input  175.53 | X-H torsion
[ 8008 7997 7996 7995 ] final   -4.20 input   59.86 | X-H torsion
[ 10167 10162 10161 10158 ] final -173.24 input  -65.29 | X-H torsion
[ 10718 10713 10712 10709 ] final -146.72 input   66.30 | X-H torsion
[ 10763 10752 10751 10750 ] final  -42.04 input  -60.55 | X-H torsion
[ 11005 11000 10999 10996 ] final   72.37 input  -57.11 | X-H torsion

> <Gold.Protein.ActiveResidues>
 VAL166  LYS551  ARG553  GLY616  TRP617  ASP618  TYR619  PRO620  LYS621  CYS622 
 ASP623  PHE694  ASN695  SER759  ASP760  ASP761  ALA762  ILE779  LEU786  VAL792 
 PHE793  MET794  SER795  GLU796  ALA797  LYS798  CYS799  TRP800  GLU811  SER814 

> <Gold.Protein.RotatedAtoms>
  151.3566  135.0895  159.9420 H   0  0  0  0  0  0  0  0  0  0  0  0  # atno 6907 bound_to 6896
  152.5173  133.9299  159.7586 H   0  0  0  0  0  0  0  0  0  0  0  0  # atno 6908 bound_to 6896
  150.9685  133.6314  159.2771 H   0  0  0  0  0  0  0  0  0  0  0  0  # atno 6909 bound_to 6896
  144.7138  140.1617  143.6375 H   0  0  0  0  0  0  0  0  0  0  0  0  # atno 7974 bound_to 7965
  154.6168  140.2490  155.7600 H   0  0  0  0  0  0  0  0  0  0  0  0  # atno 8008 bound_to 7997
  156.2403  140.2935  156.0375 H   0  0  0  0  0  0  0  0  0  0  0  0  # atno 8009 bound_to 7997
  155.1962  140.0393  157.2900 H   0  0  0  0  0  0  0  0  0  0  0  0  # atno 8010 bound_to 7997
  139.5699  144.1666  152.1368 H   0  0  0  0  0  0  0  0  0  0  0  0  # atno 10167 bound_to 10162
  156.3985  130.7922  151.2130 H   0  0  0  0  0  0  0  0  0  0  0  0  # atno 10718 bound_to 10713
  153.9725  135.6727  153.4747 H   0  0  0  0  0  0  0  0  0  0  0  0  # atno 10763 bound_to 10752
  153.0786  135.4935  154.8453 H   0  0  0  0  0  0  0  0  0  0  0  0  # atno 10764 bound_to 10752
  154.7211  135.3117  154.9007 H   0  0  0  0  0  0  0  0  0  0  0  0  # atno 10765 bound_to 10752
  139.9494  134.7254  156.0899 H   0  0  0  0  0  0  0  0  0  0  0  0  # atno 11005 bound_to 11000
  145.9024  139.2438  143.1486 LP  0  0  0  0  0  0  0  0  0  0  0  0  # atno 17320 bound_to 7965
  145.9798  140.8692  143.0120 LP  0  0  0  0  0  0  0  0  0  0  0  0  # atno 17321 bound_to 7965
  140.1197  144.5384  150.6871 LP  0  0  0  0  0  0  0  0  0  0  0  0  # atno 17342 bound_to 10162
  140.6983  143.2418  151.4937 LP  0  0  0  0  0  0  0  0  0  0  0  0  # atno 17343 bound_to 10162
  157.7503  131.0294  150.4091 LP  0  0  0  0  0  0  0  0  0  0  0  0  # atno 17370 bound_to 10713
  156.4366  130.3983  149.6725 LP  0  0  0  0  0  0  0  0  0  0  0  0  # atno 17371 bound_to 10713
  141.1153  133.6630  156.3079 LP  0  0  0  0  0  0  0  0  0  0  0  0  # atno 17394 bound_to 11000
  140.5755  134.5797  157.5467 LP  0  0  0  0  0  0  0  0  0  0  0  0  # atno 17395 bound_to 11000

$$$$
