AV-unprocessed.smi:153|AV-procd|sdf|1250|dock7
  -GOLD-   2262018483D 1   1.00000     0.00000
 Structure written by MMmdl.
 60 63  0  0  0  0  0  0  0  0  2 V2000
  152.5163  144.6261  157.8990 C   0  0  0  0  0  0  0  0  0  0  0  0
  151.8081  143.7161  158.9179 C   0  0  2  0  0  0  0  0  0  0  0  0
  152.6971  143.6714  160.0357 O   0  0  0  0  0  0  0  0  0  0  0  0
  153.2689  142.3764  160.1904 C   0  0  0  0  0  0  0  0  0  0  0  0
  152.9361  141.6208  158.9080 C   0  0  0  0  0  0  0  0  0  0  0  0
  151.6164  142.2437  158.4855 C   0  0  1  0  0  0  0  0  0  0  0  0
  150.5879  141.6939  159.2925 O   0  0  0  0  0  0  0  0  0  0  0  0
  151.2647  141.9741  156.9953 C   0  0  0  0  0  0  0  0  0  0  0  0
  150.6722  140.6663  156.7343 N   0  0  0  0  0  0  0  0  0  0  0  0
  149.3585  140.2942  156.9031 C   0  0  0  0  0  0  0  0  0  0  0  0
  149.0845  139.0606  156.5815 N   0  0  0  0  0  0  0  0  0  0  0  0
  150.2938  138.5331  156.1415 C   0  0  0  0  0  0  0  0  0  0  0  0
  150.7149  137.2633  155.6348 C   0  0  0  0  0  0  0  0  0  0  0  0
  149.9081  136.1748  155.4706 N   0  0  0  0  0  0  0  0  0  0  0  0
  148.4603  136.3170  155.5637 C   0  0  0  0  0  0  0  0  0  0  0  0
  150.4388  134.9275  154.9116 C   0  0  0  0  0  0  0  0  0  0  0  0
  149.3862  133.8016  154.8545 C   0  0  2  0  0  0  0  0  0  0  0  0
  149.1936  133.3460  156.1789 O   0  0  0  0  0  0  0  0  0  0  0  0
  149.8268  132.6031  153.9848 C   0  0  0  0  0  0  0  0  0  0  0  0
  148.6863  131.9041  153.3419 N   0  3  0  0  0  0  0  0  0  0  0  0
  148.1004  130.8307  154.1836 C   0  0  0  0  0  0  0  0  0  0  0  0
  146.9461  130.1347  153.4424 C   0  0  0  0  0  0  0  0  0  0  0  0
  145.9660  131.0964  153.0730 O   0  0  0  0  0  0  0  0  0  0  0  0
  146.4928  132.0823  152.1941 C   0  0  0  0  0  0  0  0  0  0  0  0
  147.6302  132.8435  152.8955 C   0  0  0  0  0  0  0  0  0  0  0  0
  152.0219  137.1532  155.2754 N   0  0  0  0  0  0  0  0  0  0  0  0
  152.8578  138.1870  155.3939 C   0  0  0  0  0  0  0  0  0  0  0  0
  152.6027  139.4148  155.8426 N   0  0  0  0  0  0  0  0  0  0  0  0
  151.2978  139.5434  156.2157 C   0  0  0  0  0  0  0  0  0  0  0  0
  151.9139  144.7952  157.0111 H   0  0  0  0  0  0  0  0  0  0  0  0
  153.4713  144.2074  157.5813 H   0  0  0  0  0  0  0  0  0  0  0  0
  152.7176  145.6042  158.3362 H   0  0  0  0  0  0  0  0  0  0  0  0
  150.8619  144.1763  159.2075 H   0  0  0  0  0  0  0  0  0  0  0  0
  154.3421  142.4334  160.3726 H   0  0  0  0  0  0  0  0  0  0  0  0
  152.8058  141.8922  161.0511 H   0  0  0  0  0  0  0  0  0  0  0  0
  153.7026  141.8190  158.1574 H   0  0  0  0  0  0  0  0  0  0  0  0
  152.8846  140.5409  159.0520 H   0  0  0  0  0  0  0  0  0  0  0  0
  149.9629  142.3750  159.4891 H   0  0  0  0  0  0  0  0  0  0  0  0
  150.6017  142.7447  156.6012 H   0  0  0  0  0  0  0  0  0  0  0  0
  152.1736  142.0420  156.3964 H   0  0  0  0  0  0  0  0  0  0  0  0
  148.5926  140.9643  157.2601 H   0  0  0  0  0  0  0  0  0  0  0  0
  148.1788  136.8344  156.4815 H   0  0  0  0  0  0  0  0  0  0  0  0
  147.9735  135.3416  155.5765 H   0  0  0  0  0  0  0  0  0  0  0  0
  148.0711  136.8715  154.7096 H   0  0  0  0  0  0  0  0  0  0  0  0
  150.8983  135.0721  153.9337 H   0  0  0  0  0  0  0  0  0  0  0  0
  151.2581  134.6123  155.5592 H   0  0  0  0  0  0  0  0  0  0  0  0
  148.4421  134.2181  154.5051 H   0  0  0  0  0  0  0  0  0  0  0  0
  149.2506  132.4031  156.1910 H   0  0  0  0  0  0  0  0  0  0  0  0
  150.5129  132.9182  153.1995 H   0  0  0  0  0  0  0  0  0  0  0  0
  150.3865  131.9063  154.6113 H   0  0  0  0  0  0  0  0  0  0  0  0
  148.8573  130.0923  154.4457 H   0  0  0  0  0  0  0  0  0  0  0  0
  147.7346  131.2567  155.1194 H   0  0  0  0  0  0  0  0  0  0  0  0
  147.3103  129.6093  152.5582 H   0  0  0  0  0  0  0  0  0  0  0  0
  146.4817  129.3884  154.0872 H   0  0  0  0  0  0  0  0  0  0  0  0
  146.8458  131.6158  151.2731 H   0  0  0  0  0  0  0  0  0  0  0  0
  145.6949  132.7714  151.9165 H   0  0  0  0  0  0  0  0  0  0  0  0
  147.2404  133.3915  153.7548 H   0  0  0  0  0  0  0  0  0  0  0  0
  148.0539  133.5789  152.2105 H   0  0  0  0  0  0  0  0  0  0  0  0
  153.8761  138.0037  155.0841 H   0  0  0  0  0  0  0  0  0  0  0  0
  149.0468  131.4677  152.5057 H   0  0  0  0  0  0  0  0  0  0  0  0
  1  2  1  0  0  0  0
  1 30  1  0  0  0  0
  1 31  1  0  0  0  0
  1 32  1  0  0  0  0
  2  6  1  0  0  0  0
  2  3  1  0  0  0  0
  2 33  1  0  0  0  0
  3  4  1  0  0  0  0
  4  5  1  0  0  0  0
  4 34  1  0  0  0  0
  4 35  1  0  0  0  0
  5  6  1  0  0  0  0
  5 36  1  0  0  0  0
  5 37  1  0  0  0  0
  6  7  1  0  0  0  0
  6  8  1  0  0  0  0
  7 38  1  0  0  0  0
  8  9  1  0  0  0  0
  8 39  1  0  0  0  0
  8 40  1  0  0  0  0
  9 29  1  0  0  0  0
  9 10  1  0  0  0  0
 10 11  2  0  0  0  0
 10 41  1  0  0  0  0
 11 12  1  0  0  0  0
 12 29  2  0  0  0  0
 12 13  1  0  0  0  0
 13 14  1  0  0  0  0
 13 26  2  0  0  0  0
 14 15  1  0  0  0  0
 14 16  1  0  0  0  0
 15 42  1  0  0  0  0
 15 43  1  0  0  0  0
 15 44  1  0  0  0  0
 16 17  1  0  0  0  0
 16 45  1  0  0  0  0
 16 46  1  0  0  0  0
 17 18  1  0  0  0  0
 17 19  1  0  0  0  0
 17 47  1  0  0  0  0
 18 48  1  0  0  0  0
 19 20  1  0  0  0  0
 19 49  1  0  0  0  0
 19 50  1  0  0  0  0
 20 25  1  0  0  0  0
 20 21  1  0  0  0  0
 20 60  1  0  0  0  0
 21 22  1  0  0  0  0
 21 51  1  0  0  0  0
 21 52  1  0  0  0  0
 22 23  1  0  0  0  0
 22 53  1  0  0  0  0
 22 54  1  0  0  0  0
 23 24  1  0  0  0  0
 24 25  1  0  0  0  0
 24 55  1  0  0  0  0
 24 56  1  0  0  0  0
 25 57  1  0  0  0  0
 25 58  1  0  0  0  0
 26 27  1  0  0  0  0
 27 28  2  0  0  0  0
 27 59  1  0  0  0  0
 28 29  1  0  0  0  0
M  CHG  1  20   1
M  END
> <s_m_source_file>
AV-unprocessed.smi

> <i_m_source_file_index>
153

> <i_lp_mmshare_version>
43012

> <i_f3d_flags>
0

> <s_epik_input>
W0NIMl0xW0NIMl1PW0NAQEhdKFtDSDNdKVtDQEBdMShbT0hdKVtDSDJdbihbY0hdbjIpYyhjMjMpbltjSF1uYzNOKFtDSDNdKVtDSDJdW0NASF0oW09IXSlbQ0gyXU40W0NIMl1bQ0gyXU9bQ0gyXVtDSDJdNA==

> <s_epik_cmdline>
J2VwaWtfcHl0aG9uJywgJy1waCcsICc3LjAnLCAnLXRuJywgJzgnLCAnLW1hJywgJzIwMCcsICctbWV0YWxfYmluZGluZycsICctaW1hZScsICc8aW5maWxlLm1hZT4nLCAnLW9tYWUnLCAnPG91dGZpbGUubWFlPic=

> <r_lp_tautomer_probability>
1

> <r_epik_Ionization_Penalty>
0.403509

> <r_epik_Ionization_Penalty_Charging>
0.40072

> <r_epik_Ionization_Penalty_Neutral>
0.00278876

> <r_epik_State_Penalty>
0.400058

> <r_epik_Charging_Adjusted_Penalty>
0.800778

> <i_epik_Tot_Q>
1

> <i_epik_Tot_abs_Q>
1

> <r_epik_Metal_State_Penalty>
0.400321

> <b_epik_Metal_Only>
0

> <s_lp_Force_Field>
OPLS_2005

> <r_lp_Energy>
46.9593

> <b_lp_Chiralities_Consistent>
1

> <s_lp_Variant>
AV-unprocessed.smi:153-1

> <Gold.Version>
5.8.1

> <Gold.Id.Protein>
6NUR|6NUR_protein|mol2

> <Gold.PLP.Fitness>
55.2234

> <Gold.PLP.PLP>
-48.9472

> <Gold.PLP.part.hbond>
-4.0000

> <Gold.PLP.part.metal>
0.0000

> <Gold.PLP.part.buried>
-6.9353

> <Gold.PLP.part.nonpolar>
-38.7122

> <Gold.PLP.part.repulsive>
0.2395

> <Gold.PLP.ligand.clash>
0.0000

> <Gold.PLP.ligand.torsion>
1.4833

> <Gold.PLP.Chemscore.Hbond>
2.9833

> <Gold.PLP.Chemscore.CHOScore>
0.0000

> <Gold.PLP.Chemscore.Metal>
0.0000

> <Gold.Chemscore.Hbonds>
donor molecule, donor type, donor heavy atom, donor atom, acceptor molecule, acceptor atom, score
      L1  H    20    60       P1 10747  0.37
      P1  H  7997  8010       L1    28  1.00
      P1  H 10752 10765       L1    26  0.94

> <Gold.PLP.Chemscore.Internal.Correction>
0.2932

> <Gold.Rescore>
     Score         DG    S(hbond)    S(metal)    S(lipo)     H(rot)  DE(clash)    DE(int)     intcor
     13.76     -16.42       2.14        0.00     111.66       3.62       0.14       2.52       ----

> <Gold.Chemscore.Fitness>
13.7617

> <Gold.Chemscore.DG>
-16.4229

> <Gold.Chemscore.ZeroCoef>
-5.4800

> <Gold.Chemscore.Hbond>
2.1380

> <Gold.Chemscore.Metal>
0.0000

> <Gold.Chemscore.Lipo>
111.6608

> <Gold.Chemscore.Internal_Hbond>
0.0000

> <Gold.Chemscore.DEClash>
0.1430

> <Gold.Chemscore.DEInternal>
2.5181

> <Gold.Chemscore.Rot>
3.6182

> <Gold.Chemscore.Internal.Correction>
   9.000000E+99

> <Gold.Chemscore.Hbonds>
donor molecule, donor type, donor heavy atom, donor atom, acceptor molecule, acceptor atom, score
      L1  H    20    60       P1 10747  0.22
      P1  H  7997  8010       L1    28  0.45
      P1  H 10752 10765       L1    26  0.67

> <Gold.Chemscore.Hbond.Weighted>
-7.1410

> <Gold.Chemscore.Metal.Weighted>
-0.0000

> <Gold.Chemscore.Lipo.Weighted>
-13.0643

> <Gold.Chemscore.Internal_Hbond.Weighted>
0.0000

> <Gold.Chemscore.DEClash.Weighted>
0.1430

> <Gold.Chemscore.DEInternal.Weighted>
2.5181

> <Gold.Chemscore.Rot.Weighted>
9.2625

> <Gold.Chemscore.Internal.Correction.Weighted>
   9.000000E+99

> <Gold.Protein.RotatedTorsions>
[ 6907 6896 6895 6894 ] final   76.49 input  -60.11 | X-H torsion
[ 7974 7965 7964 7962 ] final  -91.88 input  175.53 | X-H torsion
[ 8008 7997 7996 7995 ] final   81.51 input   59.86 | X-H torsion
[ 10167 10162 10161 10158 ] final  101.19 input  -65.29 | X-H torsion
[ 10718 10713 10712 10709 ] final  -20.68 input   66.30 | X-H torsion
[ 10763 10752 10751 10750 ] final -174.46 input  -60.55 | X-H torsion
[ 11005 11000 10999 10996 ] final -111.89 input  -57.11 | X-H torsion

> <Gold.Protein.ActiveResidues>
 VAL166  LYS551  ARG553  GLY616  TRP617  ASP618  TYR619  PRO620  LYS621  CYS622 
 ASP623  PHE694  ASN695  SER759  ASP760  ASP761  ALA762  ILE779  LEU786  VAL792 
 PHE793  MET794  SER795  GLU796  ALA797  LYS798  CYS799  TRP800  GLU811  SER814 

> <Gold.Protein.RotatedAtoms>
  152.5075  134.3961  159.9400 H   0  0  0  0  0  0  0  0  0  0  0  0  # atno 6907 bound_to 6896
  151.3923  133.3778  159.2730 H   0  0  0  0  0  0  0  0  0  0  0  0  # atno 6908 bound_to 6896
  150.9423  134.8852  159.7679 H   0  0  0  0  0  0  0  0  0  0  0  0  # atno 6909 bound_to 6896
  145.4072  140.9542  143.2254 H   0  0  0  0  0  0  0  0  0  0  0  0  # atno 7974 bound_to 7965
  155.8981  140.3435  155.6006 H   0  0  0  0  0  0  0  0  0  0  0  0  # atno 8008 bound_to 7997
  155.7532  140.0822  157.2210 H   0  0  0  0  0  0  0  0  0  0  0  0  # atno 8009 bound_to 7997
  154.4040  140.1549  156.2735 H   0  0  0  0  0  0  0  0  0  0  0  0  # atno 8010 bound_to 7997
  139.7459  144.6998  151.0504 H   0  0  0  0  0  0  0  0  0  0  0  0  # atno 10167 bound_to 10162
  156.5285  130.4649  149.6559 H   0  0  0  0  0  0  0  0  0  0  0  0  # atno 10718 bound_to 10713
  154.5960  135.2850  155.0586 H   0  0  0  0  0  0  0  0  0  0  0  0  # atno 10763 bound_to 10752
  154.1868  135.6447  153.5053 H   0  0  0  0  0  0  0  0  0  0  0  0  # atno 10764 bound_to 10752
  153.0139  135.5437  154.6662 H   0  0  0  0  0  0  0  0  0  0  0  0  # atno 10765 bound_to 10752
  141.0708  133.9383  157.2489 H   0  0  0  0  0  0  0  0  0  0  0  0  # atno 11005 bound_to 11000
  144.8333  139.5591  143.6933 LP  0  0  0  0  0  0  0  0  0  0  0  0  # atno 17320 bound_to 7965
  146.2723  139.6665  142.9288 LP  0  0  0  0  0  0  0  0  0  0  0  0  # atno 17321 bound_to 7965
  140.7792  143.4867  150.9947 LP  0  0  0  0  0  0  0  0  0  0  0  0  # atno 17342 bound_to 10162
  139.8555  143.7383  152.3176 LP  0  0  0  0  0  0  0  0  0  0  0  0  # atno 17343 bound_to 10162
  156.3082  130.7214  151.2101 LP  0  0  0  0  0  0  0  0  0  0  0  0  # atno 17370 bound_to 10713
  157.7425  131.0488  150.5016 LP  0  0  0  0  0  0  0  0  0  0  0  0  # atno 17371 bound_to 10713
  139.9521  135.0173  156.9024 LP  0  0  0  0  0  0  0  0  0  0  0  0  # atno 17394 bound_to 11000
  140.5678  134.0472  155.7420 LP  0  0  0  0  0  0  0  0  0  0  0  0  # atno 17395 bound_to 11000

$$$$
