AV-unprocessed.smi:2148|AV-procd|sdf|8749|dock4
  -GOLD-   2272011523D 1   1.00000     0.00000
 Structure written by MMmdl.
 44 45  0  0  0  0  0  0  0  0  1 V2000
  154.0286  135.5920  164.2626 C   0  0  0  0  0  0  0  0  0  0  0  0
  154.7254  134.2365  163.2808 S   0  0  0  0  0  0  0  0  0  0  0  0
  155.7601  135.1645  162.1087 C   0  0  1  0  0  0  0  0  0  0  0  0
  156.5728  134.2131  161.2108 C   0  0  0  0  0  0  0  0  0  0  0  0
  154.9184  136.1625  161.3003 C   0  0  0  0  0  0  0  0  0  0  0  0
  154.1623  135.7636  160.4144 O   0  0  0  0  0  0  0  0  0  0  0  0
  155.0969  137.4577  161.6227 N   0  0  0  0  0  0  0  0  0  0  0  0
  154.4775  138.6107  161.0687 C   0  0  0  0  0  0  0  0  0  0  0  0
  154.7155  139.9362  161.5040 C   0  0  0  0  0  0  0  0  0  0  0  0
  154.0465  140.9947  160.8603 C   0  0  0  0  0  0  0  0  0  0  0  0
  153.1648  140.6968  159.7963 C   0  0  0  0  0  0  0  0  0  0  0  0
  152.4663  141.7033  159.1168 N   0  0  0  0  0  0  0  0  0  0  0  0
  152.5052  142.9909  159.7940 C   0  0  0  0  0  0  0  0  0  0  0  0
  151.8792  144.0755  158.8982 C   0  0  2  0  0  0  0  0  0  0  0  0
  151.7893  145.4270  159.6145 C   0  0  0  0  0  0  0  0  0  0  0  0
  150.5571  143.6823  158.5261 O   0  0  0  0  0  0  0  0  0  0  0  0
  150.4697  142.4198  157.8587 C   0  0  1  0  0  0  0  0  0  0  0  0
  151.0265  142.4811  156.4249 C   0  0  0  0  0  0  0  0  0  0  0  0
  151.1169  141.3199  158.7232 C   0  0  0  0  0  0  0  0  0  0  0  0
  152.9474  139.4360  159.3652 N   0  0  0  0  0  0  0  0  0  0  0  0
  153.5924  138.4262  159.9864 C   0  0  0  0  0  0  0  0  0  0  0  0
  153.3429  135.1953  165.0111 H   0  0  0  0  0  0  0  0  0  0  0  0
  153.4778  136.2825  163.6236 H   0  0  0  0  0  0  0  0  0  0  0  0
  154.8152  136.1434  164.7767 H   0  0  0  0  0  0  0  0  0  0  0  0
  156.4649  135.7557  162.6953 H   0  0  0  0  0  0  0  0  0  0  0  0
  157.1626  134.7643  160.4772 H   0  0  0  0  0  0  0  0  0  0  0  0
  155.9235  133.5243  160.6688 H   0  0  0  0  0  0  0  0  0  0  0  0
  157.2700  133.6154  161.7973 H   0  0  0  0  0  0  0  0  0  0  0  0
  155.8024  137.6415  162.3213 H   0  0  0  0  0  0  0  0  0  0  0  0
  155.4024  140.1658  162.3032 H   0  0  0  0  0  0  0  0  0  0  0  0
  154.2153  142.0130  161.1782 H   0  0  0  0  0  0  0  0  0  0  0  0
  151.9624  142.9251  160.7380 H   0  0  0  0  0  0  0  0  0  0  0  0
  153.5375  143.2508  160.0325 H   0  0  0  0  0  0  0  0  0  0  0  0
  152.4879  144.2074  158.0034 H   0  0  0  0  0  0  0  0  0  0  0  0
  152.7777  145.7813  159.9082 H   0  0  0  0  0  0  0  0  0  0  0  0
  151.1772  145.3574  160.5141 H   0  0  0  0  0  0  0  0  0  0  0  0
  151.3447  146.1826  158.9664 H   0  0  0  0  0  0  0  0  0  0  0  0
  149.4065  142.1929  157.7745 H   0  0  0  0  0  0  0  0  0  0  0  0
  150.8393  141.5448  155.8988 H   0  0  0  0  0  0  0  0  0  0  0  0
  152.1024  142.6523  156.4048 H   0  0  0  0  0  0  0  0  0  0  0  0
  150.5495  143.2796  155.8563 H   0  0  0  0  0  0  0  0  0  0  0  0
  151.1386  140.3729  158.1820 H   0  0  0  0  0  0  0  0  0  0  0  0
  150.5116  141.1622  159.6167 H   0  0  0  0  0  0  0  0  0  0  0  0
  153.3896  137.4349  159.6077 H   0  0  0  0  0  0  0  0  0  0  0  0
  1  2  1  0  0  0  0
  1 22  1  0  0  0  0
  1 23  1  0  0  0  0
  1 24  1  0  0  0  0
  2  3  1  0  0  0  0
  3  4  1  0  0  0  0
  3  5  1  0  0  0  0
  3 25  1  0  0  0  0
  4 26  1  0  0  0  0
  4 27  1  0  0  0  0
  4 28  1  0  0  0  0
  5  6  2  0  0  0  0
  5  7  1  0  0  0  0
  7  8  1  0  0  0  0
  7 29  1  0  0  0  0
  8 21  1  0  0  0  0
  8  9  2  0  0  0  0
  9 10  1  0  0  0  0
  9 30  1  0  0  0  0
 10 11  2  0  0  0  0
 10 31  1  0  0  0  0
 11 12  1  0  0  0  0
 11 20  1  0  0  0  0
 12 19  1  0  0  0  0
 12 13  1  0  0  0  0
 13 14  1  0  0  0  0
 13 32  1  0  0  0  0
 13 33  1  0  0  0  0
 14 15  1  0  0  0  0
 14 16  1  0  0  0  0
 14 34  1  0  0  0  0
 15 35  1  0  0  0  0
 15 36  1  0  0  0  0
 15 37  1  0  0  0  0
 16 17  1  0  0  0  0
 17 18  1  0  0  0  0
 17 19  1  0  0  0  0
 17 38  1  0  0  0  0
 18 39  1  0  0  0  0
 18 40  1  0  0  0  0
 18 41  1  0  0  0  0
 19 42  1  0  0  0  0
 19 43  1  0  0  0  0
 20 21  2  0  0  0  0
 21 44  1  0  0  0  0
M  END
> <s_m_source_file>
AV-unprocessed.smi

> <i_m_source_file_index>
2148

> <i_lp_mmshare_version>
43012

> <i_f3d_flags>
0

> <s_epik_input>
W0NIM11TW0NASF0oW0NIM10pQyg9TylbTkhdYzFbY0hdW2NIXWMobltjSF0xKU4yW0NIMl1bQ0BASF0oW0NIM10pT1tDQEBIXShbQ0gzXSlbQ0gyXTI=

> <s_epik_cmdline>
J2VwaWtfcHl0aG9uJywgJy1waCcsICc3LjAnLCAnLXRuJywgJzgnLCAnLW1hJywgJzIwMCcsICctbWV0YWxfYmluZGluZycsICctaW1hZScsICc8aW5maWxlLm1hZT4nLCAnLW9tYWUnLCAnPG91dGZpbGUubWFlPic=

> <r_lp_tautomer_probability>
1

> <r_epik_Ionization_Penalty>
0.000646494

> <r_epik_Ionization_Penalty_Charging>
0

> <r_epik_Ionization_Penalty_Neutral>
0.000646494

> <r_epik_State_Penalty>
0.000408447

> <r_epik_Charging_Adjusted_Penalty>
0.000408447

> <i_epik_Tot_Q>
0

> <i_epik_Tot_abs_Q>
0

> <r_epik_Metal_State_Penalty>
-0

> <b_epik_Metal_Only>
0

> <s_lp_Force_Field>
OPLS_2005

> <r_lp_Energy>
27.0114

> <b_lp_Chiralities_Consistent>
1

> <s_lp_Variant>
AV-unprocessed.smi:2148-4

> <Gold.Version>
5.8.1

> <Gold.Id.Protein>
6NUR|6NUR_protein|mol2

> <Gold.PLP.Fitness>
40.8630

> <Gold.PLP.PLP>
-39.4884

> <Gold.PLP.part.hbond>
-1.0000

> <Gold.PLP.part.metal>
0.0000

> <Gold.PLP.part.buried>
-4.9976

> <Gold.PLP.part.nonpolar>
-33.8967

> <Gold.PLP.part.repulsive>
0.1501

> <Gold.PLP.ligand.clash>
0.4298

> <Gold.PLP.ligand.torsion>
0.6764

> <Gold.PLP.Chemscore.Hbond>
1.0000

> <Gold.PLP.Chemscore.CHOScore>
0.0000

> <Gold.PLP.Chemscore.Metal>
0.0000

> <Gold.Chemscore.Hbonds>
donor molecule, donor type, donor heavy atom, donor atom, acceptor molecule, acceptor atom, score
      P1  H  6896  6908       L1     6  0.89

> <Gold.PLP.Chemscore.Internal.Correction>
0.1572

> <Gold.Rescore>
     Score         DG    S(hbond)    S(metal)    S(lipo)     H(rot)  DE(clash)    DE(int)     intcor
     16.83     -18.77       1.00        0.00     112.78       1.27       0.05       1.90       ----

> <Gold.Chemscore.Fitness>
16.8259

> <Gold.Chemscore.DG>
-18.7705

> <Gold.Chemscore.ZeroCoef>
-5.4800

> <Gold.Chemscore.Hbond>
0.9988

> <Gold.Chemscore.Metal>
0.0000

> <Gold.Chemscore.Lipo>
112.7779

> <Gold.Chemscore.Internal_Hbond>
0.0000

> <Gold.Chemscore.DEClash>
0.0472

> <Gold.Chemscore.DEInternal>
1.8974

> <Gold.Chemscore.Rot>
1.2659

> <Gold.Chemscore.Internal.Correction>
   9.000000E+99

> <Gold.Chemscore.Hbonds>
donor molecule, donor type, donor heavy atom, donor atom, acceptor molecule, acceptor atom, score
      P1  H  6896  6908       L1     6  0.87

> <Gold.Chemscore.Hbond.Weighted>
-3.3360

> <Gold.Chemscore.Metal.Weighted>
-0.0000

> <Gold.Chemscore.Lipo.Weighted>
-13.1950

> <Gold.Chemscore.Internal_Hbond.Weighted>
0.0000

> <Gold.Chemscore.DEClash.Weighted>
0.0472

> <Gold.Chemscore.DEInternal.Weighted>
1.8974

> <Gold.Chemscore.Rot.Weighted>
3.2406

> <Gold.Chemscore.Internal.Correction.Weighted>
   9.000000E+99

> <Gold.Protein.RotatedTorsions>
[ 6907 6896 6895 6894 ] final  -56.51 input  -60.11 | X-H torsion
[ 7974 7965 7964 7962 ] final -128.20 input  175.53 | X-H torsion
[ 8008 7997 7996 7995 ] final  134.74 input   59.86 | X-H torsion
[ 10167 10162 10161 10158 ] final -149.24 input  -65.29 | X-H torsion
[ 10718 10713 10712 10709 ] final  122.70 input   66.30 | X-H torsion
[ 10763 10752 10751 10750 ] final   33.16 input  -60.55 | X-H torsion
[ 11005 11000 10999 10996 ] final   41.61 input  -57.11 | X-H torsion

> <Gold.Protein.ActiveResidues>
 VAL166  LYS551  ARG553  GLY616  TRP617  ASP618  TYR619  PRO620  LYS621  CYS622 
 ASP623  PHE694  ASN695  SER759  ASP760  ASP761  ALA762  ILE779  LEU786  VAL792 
 PHE793  MET794  SER795  GLU796  ALA797  LYS798  CYS799  TRP800  GLU811  SER814 

> <Gold.Protein.RotatedAtoms>
  150.8162  134.7344  159.6731 H   0  0  0  0  0  0  0  0  0  0  0  0  # atno 6907 bound_to 6896
  152.4280  134.5828  159.9962 H   0  0  0  0  0  0  0  0  0  0  0  0  # atno 6908 bound_to 6896
  151.6025  133.3317  159.3086 H   0  0  0  0  0  0  0  0  0  0  0  0  # atno 6909 bound_to 6896
  144.9694  140.7530  143.4680 H   0  0  0  0  0  0  0  0  0  0  0  0  # atno 7974 bound_to 7965
  156.3000  140.2488  156.3467 H   0  0  0  0  0  0  0  0  0  0  0  0  # atno 8008 bound_to 7997
  154.9004  140.0406  157.1909 H   0  0  0  0  0  0  0  0  0  0  0  0  # atno 8009 bound_to 7997
  154.8506  140.2905  155.5604 H   0  0  0  0  0  0  0  0  0  0  0  0  # atno 8010 bound_to 7997
  139.7460  143.8590  152.2574 H   0  0  0  0  0  0  0  0  0  0  0  0  # atno 10167 bound_to 10162
  157.5722  131.1082  150.8346 H   0  0  0  0  0  0  0  0  0  0  0  0  # atno 10718 bound_to 10713
  153.0226  135.6394  154.1468 H   0  0  0  0  0  0  0  0  0  0  0  0  # atno 10763 bound_to 10752
  154.1201  135.2847  155.3212 H   0  0  0  0  0  0  0  0  0  0  0  0  # atno 10764 bound_to 10752
  154.6270  135.5505  153.7700 H   0  0  0  0  0  0  0  0  0  0  0  0  # atno 10765 bound_to 10752
  140.1818  134.4094  155.8196 H   0  0  0  0  0  0  0  0  0  0  0  0  # atno 11005 bound_to 11000
  145.2581  139.2003  143.4906 LP  0  0  0  0  0  0  0  0  0  0  0  0  # atno 17320 bound_to 7965
  146.3377  140.2506  142.8598 LP  0  0  0  0  0  0  0  0  0  0  0  0  # atno 17321 bound_to 7965
  139.8555  144.7143  150.9163 LP  0  0  0  0  0  0  0  0  0  0  0  0  # atno 17342 bound_to 10162
  140.7792  143.3862  151.1389 LP  0  0  0  0  0  0  0  0  0  0  0  0  # atno 17343 bound_to 10162
  156.8815  130.5181  149.5291 LP  0  0  0  0  0  0  0  0  0  0  0  0  # atno 17370 bound_to 10713
  156.0767  130.5787  150.9487 LP  0  0  0  0  0  0  0  0  0  0  0  0  # atno 17371 bound_to 10713
  141.2223  133.7004  156.7944 LP  0  0  0  0  0  0  0  0  0  0  0  0  # atno 17394 bound_to 11000
  140.2258  134.8723  157.3425 LP  0  0  0  0  0  0  0  0  0  0  0  0  # atno 17395 bound_to 11000

$$$$
