AV-unprocessed.smi:2002|AV-procd|sdf|8116|dock6
  -GOLD-   2272010353D 1   1.00000     0.00000
 Structure written by MMmdl.
 39 40  0  0  0  0  0  0  0  0  2 V2000
  145.9015  132.8860  150.9683 C   0  0  0  0  0  0  0  0  0  0  0  0
  146.1531  131.8100  152.0332 C   0  0  0  0  0  0  0  0  0  0  0  0
  147.5815  131.7265  152.4205 N   0  3  2  0  0  0  0  0  0  0  0  0
  147.8983  130.6063  153.3382 C   0  0  0  0  0  0  0  0  0  0  0  0
  148.7413  131.1905  154.4763 C   0  0  0  0  0  0  0  0  0  0  0  0
  149.2954  132.4950  153.9037 C   0  0  2  0  0  0  0  0  0  0  0  0
  149.7348  133.5378  154.9494 C   0  0  0  0  0  0  0  0  0  0  0  0
  149.6936  134.8966  154.4168 N   0  0  0  0  0  0  0  0  0  0  0  0
  150.0404  136.0061  155.0862 C   0  0  0  0  0  0  0  0  0  0  0  0
  150.4472  135.9970  156.2479 O   0  0  0  0  0  0  0  0  0  0  0  0
  149.8944  137.1010  154.3211 N   0  0  0  0  0  0  0  0  0  0  0  0
  150.1357  138.4560  154.6659 C   0  0  0  0  0  0  0  0  0  0  0  0
  150.8342  138.9228  155.8175 C   0  0  0  0  0  0  0  0  0  0  0  0
  150.7744  140.2811  155.6822 C   0  0  0  0  0  0  0  0  0  0  0  0
  151.2863  141.4061  156.5145 C   0  0  0  0  0  0  0  0  0  0  0  0
  150.1018  140.6154  154.5482 O   0  0  0  0  0  0  0  0  0  0  0  0
  149.6944  139.4407  153.9049 N   0  0  0  0  0  0  0  0  0  0  0  0
  148.1418  132.9606  153.0149 C   0  0  0  0  0  0  0  0  0  0  0  0
  144.8535  132.8913  150.6675 H   0  0  0  0  0  0  0  0  0  0  0  0
  146.5007  132.7052  150.0754 H   0  0  0  0  0  0  0  0  0  0  0  0
  146.1400  133.8834  151.3381 H   0  0  0  0  0  0  0  0  0  0  0  0
  145.5378  131.9945  152.9151 H   0  0  0  0  0  0  0  0  0  0  0  0
  145.8434  130.8441  151.6314 H   0  0  0  0  0  0  0  0  0  0  0  0
  147.0041  130.1187  153.7295 H   0  0  0  0  0  0  0  0  0  0  0  0
  148.4657  129.8584  152.7839 H   0  0  0  0  0  0  0  0  0  0  0  0
  148.0971  131.4042  155.3305 H   0  0  0  0  0  0  0  0  0  0  0  0
  149.5227  130.5079  154.8117 H   0  0  0  0  0  0  0  0  0  0  0  0
  150.1452  132.2556  153.2617 H   0  0  0  0  0  0  0  0  0  0  0  0
  149.0610  133.4997  155.8057 H   0  0  0  0  0  0  0  0  0  0  0  0
  150.7282  133.3026  155.3356 H   0  0  0  0  0  0  0  0  0  0  0  0
  149.3683  135.0008  153.4665 H   0  0  0  0  0  0  0  0  0  0  0  0
  149.5719  136.9494  153.3768 H   0  0  0  0  0  0  0  0  0  0  0  0
  151.3017  138.3712  156.6190 H   0  0  0  0  0  0  0  0  0  0  0  0
  151.6481  141.0442  157.4771 H   0  0  0  0  0  0  0  0  0  0  0  0
  150.5001  142.1373  156.7032 H   0  0  0  0  0  0  0  0  0  0  0  0
  152.1096  141.9145  156.0128 H   0  0  0  0  0  0  0  0  0  0  0  0
  148.4676  133.6625  152.2466 H   0  0  0  0  0  0  0  0  0  0  0  0
  147.3819  133.4557  153.6225 H   0  0  0  0  0  0  0  0  0  0  0  0
  148.1090  131.5477  151.5777 H   0  0  0  0  0  0  0  0  0  0  0  0
  1  2  1  0  0  0  0
  1 19  1  0  0  0  0
  1 20  1  0  0  0  0
  1 21  1  0  0  0  0
  2  3  1  0  0  0  0
  2 22  1  0  0  0  0
  2 23  1  0  0  0  0
  3 18  1  0  0  0  0
  3  4  1  0  0  0  0
  3 39  1  0  0  0  0
  4  5  1  0  0  0  0
  4 24  1  0  0  0  0
  4 25  1  0  0  0  0
  5  6  1  0  0  0  0
  5 26  1  0  0  0  0
  5 27  1  0  0  0  0
  6  7  1  0  0  0  0
  6 18  1  0  0  0  0
  6 28  1  0  0  0  0
  7  8  1  0  0  0  0
  7 29  1  0  0  0  0
  7 30  1  0  0  0  0
  8  9  1  0  0  0  0
  8 31  1  0  0  0  0
  9 10  2  0  0  0  0
  9 11  1  0  0  0  0
 11 12  1  0  0  0  0
 11 32  1  0  0  0  0
 12 17  2  0  0  0  0
 12 13  1  0  0  0  0
 13 14  2  0  0  0  0
 13 33  1  0  0  0  0
 14 15  1  0  0  0  0
 14 16  1  0  0  0  0
 15 34  1  0  0  0  0
 15 35  1  0  0  0  0
 15 36  1  0  0  0  0
 16 17  1  0  0  0  0
 18 37  1  0  0  0  0
 18 38  1  0  0  0  0
M  CHG  1   3   1
M  END
> <s_m_source_file>
AV-unprocessed.smi

> <i_m_source_file_index>
2002

> <i_lp_mmshare_version>
43012

> <i_f3d_flags>
0

> <s_epik_input>
W0NIM11bQ0gyXU4xW0NIMl1bQ0gyXVtDQEhdKFtDSDJdMSlbQ0gyXVtOSF1DKD1PKVtOSF1jMltjSF1jKFtDSDNdKW9uMg==

> <s_epik_cmdline>
J2VwaWtfcHl0aG9uJywgJy1waCcsICc3LjAnLCAnLXRuJywgJzgnLCAnLW1hJywgJzIwMCcsICctbWV0YWxfYmluZGluZycsICctaW1hZScsICc8aW5maWxlLm1hZT4nLCAnLW9tYWUnLCAnPG91dGZpbGUubWFlPic=

> <r_epik_Ionization_Penalty>
0.000632871

> <r_epik_Ionization_Penalty_Charging>
0.000610951

> <r_epik_Ionization_Penalty_Neutral>
2.19198e-05

> <r_epik_State_Penalty>
0.000385263

> <r_epik_Charging_Adjusted_Penalty>
0.000996214

> <i_epik_Tot_Q>
1

> <i_epik_Tot_abs_Q>
1

> <r_epik_Metal_State_Penalty>
-0

> <b_epik_Metal_Only>
0

> <s_lp_Force_Field>
OPLS_2005

> <r_lp_Energy>
28.1542

> <b_lp_Chiralities_Consistent>
1

> <s_lp_Variant>
AV-unprocessed.smi:2002-4

> <Gold.Version>
5.8.1

> <Gold.Id.Protein>
6NUR|6NUR_protein|mol2

> <Gold.PLP.Fitness>
39.8888

> <Gold.PLP.PLP>
-30.7647

> <Gold.PLP.part.hbond>
-4.1650

> <Gold.PLP.part.metal>
0.0000

> <Gold.PLP.part.buried>
-5.9872

> <Gold.PLP.part.nonpolar>
-23.0388

> <Gold.PLP.part.repulsive>
2.3461

> <Gold.PLP.ligand.clash>
0.0000

> <Gold.PLP.ligand.torsion>
0.3005

> <Gold.PLP.Chemscore.Hbond>
3.2371

> <Gold.PLP.Chemscore.CHOScore>
0.0000

> <Gold.PLP.Chemscore.Metal>
0.0000

> <Gold.Chemscore.Hbonds>
donor molecule, donor type, donor heavy atom, donor atom, acceptor molecule, acceptor atom, score
      L1  H     3    39       P1 10747  1.00
      L1  H     8    31       P1  7948  0.69
      L1  H    11    32       P1  7948  1.00
      P1  H  7989  7998       L1    16  0.54

> <Gold.PLP.Chemscore.Internal.Correction>
0.0138

> <Gold.Rescore>
     Score         DG    S(hbond)    S(metal)    S(lipo)     H(rot)  DE(clash)    DE(int)     intcor
     14.18     -15.69       2.13        0.00      59.67       1.52       0.17       1.34       ----

> <Gold.Chemscore.Fitness>
14.1777

> <Gold.Chemscore.DG>
-15.6866

> <Gold.Chemscore.ZeroCoef>
-5.4800

> <Gold.Chemscore.Hbond>
2.1325

> <Gold.Chemscore.Metal>
0.0000

> <Gold.Chemscore.Lipo>
59.6683

> <Gold.Chemscore.Internal_Hbond>
0.0000

> <Gold.Chemscore.DEClash>
0.1665

> <Gold.Chemscore.DEInternal>
1.3424

> <Gold.Chemscore.Rot>
1.5223

> <Gold.Chemscore.Internal.Correction>
   9.000000E+99

> <Gold.Chemscore.Hbonds>
donor molecule, donor type, donor heavy atom, donor atom, acceptor molecule, acceptor atom, score
      L1  H     3    39       P1 10747  1.00
      L1  H     8    31       P1  7948  0.07
      L1  H    11    32       P1  7948  0.74
      P1  H  7989  7998       L1    16  0.01

> <Gold.Chemscore.Hbond.Weighted>
-7.1225

> <Gold.Chemscore.Metal.Weighted>
-0.0000

> <Gold.Chemscore.Lipo.Weighted>
-6.9812

> <Gold.Chemscore.Internal_Hbond.Weighted>
0.0000

> <Gold.Chemscore.DEClash.Weighted>
0.1665

> <Gold.Chemscore.DEInternal.Weighted>
1.3424

> <Gold.Chemscore.Rot.Weighted>
3.8971

> <Gold.Chemscore.Internal.Correction.Weighted>
   9.000000E+99

> <Gold.Protein.RotatedTorsions>
[ 6907 6896 6895 6894 ] final  -10.01 input  -60.11 | X-H torsion
[ 7974 7965 7964 7962 ] final   64.24 input  175.53 | X-H torsion
[ 8008 7997 7996 7995 ] final  166.24 input   59.86 | X-H torsion
[ 10167 10162 10161 10158 ] final  133.77 input  -65.29 | X-H torsion
[ 10718 10713 10712 10709 ] final  153.31 input   66.30 | X-H torsion
[ 10763 10752 10751 10750 ] final  -39.81 input  -60.55 | X-H torsion
[ 11005 11000 10999 10996 ] final -133.48 input  -57.11 | X-H torsion

> <Gold.Protein.ActiveResidues>
 VAL166  LYS551  ARG553  GLY616  TRP617  ASP618  TYR619  PRO620  LYS621  CYS622 
 ASP623  PHE694  ASN695  SER759  ASP760  ASP761  ALA762  ILE779  LEU786  VAL792 
 PHE793  MET794  SER795  GLU796  ALA797  LYS798  CYS799  TRP800  GLU811  SER814 

> <Gold.Protein.RotatedAtoms>
  151.4087  135.0982  159.9577 H   0  0  0  0  0  0  0  0  0  0  0  0  # atno 6907 bound_to 6896
  152.5027  133.8819  159.7361 H   0  0  0  0  0  0  0  0  0  0  0  0  # atno 6908 bound_to 6896
  150.9308  133.6712  159.2839 H   0  0  0  0  0  0  0  0  0  0  0  0  # atno 6909 bound_to 6896
  145.8525  139.3263  143.0867 H   0  0  0  0  0  0  0  0  0  0  0  0  # atno 7974 bound_to 7965
  156.1734  140.1648  156.8406 H   0  0  0  0  0  0  0  0  0  0  0  0  # atno 8008 bound_to 7997
  154.5281  140.0763  156.8330 H   0  0  0  0  0  0  0  0  0  0  0  0  # atno 8009 bound_to 7997
  155.3464  140.3387  155.4241 H   0  0  0  0  0  0  0  0  0  0  0  0  # atno 8010 bound_to 7997
  139.5283  144.6600  151.5043 H   0  0  0  0  0  0  0  0  0  0  0  0  # atno 10167 bound_to 10162
  157.2465  131.0770  151.1758 H   0  0  0  0  0  0  0  0  0  0  0  0  # atno 10718 bound_to 10713
  153.9355  135.6767  153.4745 H   0  0  0  0  0  0  0  0  0  0  0  0  # atno 10763 bound_to 10752
  153.0958  135.4852  154.8772 H   0  0  0  0  0  0  0  0  0  0  0  0  # atno 10764 bound_to 10752
  154.7405  135.3159  154.8694 H   0  0  0  0  0  0  0  0  0  0  0  0  # atno 10765 bound_to 10752
  140.9077  134.1608  157.4413 H   0  0  0  0  0  0  0  0  0  0  0  0  # atno 11005 bound_to 11000
  145.9341  140.9027  143.0341 LP  0  0  0  0  0  0  0  0  0  0  0  0  # atno 17320 bound_to 7965
  144.6728  140.1458  143.7433 LP  0  0  0  0  0  0  0  0  0  0  0  0  # atno 17321 bound_to 7965
  140.6443  143.8825  150.6722 LP  0  0  0  0  0  0  0  0  0  0  0  0  # atno 17342 bound_to 10162
  140.2170  143.3839  152.1673 LP  0  0  0  0  0  0  0  0  0  0  0  0  # atno 17343 bound_to 10162
  157.3324  130.6991  149.6332 LP  0  0  0  0  0  0  0  0  0  0  0  0  # atno 17370 bound_to 10713
  155.9668  130.4304  150.4873 LP  0  0  0  0  0  0  0  0  0  0  0  0  # atno 17371 bound_to 10713
  139.8752  134.9923  156.5592 LP  0  0  0  0  0  0  0  0  0  0  0  0  # atno 17394 bound_to 11000
  140.8150  133.8399  155.8844 LP  0  0  0  0  0  0  0  0  0  0  0  0  # atno 17395 bound_to 11000

$$$$
