AV-unprocessed.smi:2452|AV-procd|sdf|9686|dock3
  -GOLD-   2272013323D 1   1.00000     0.00000
 Structure written by MMmdl.
 34 35  0  0  0  0  0  0  0  0  1 V2000
  152.8924  138.9667  158.4532 C   0  0  0  0  0  0  0  0  0  0  0  0
  152.1665  139.0991  157.1453 C   0  0  0  0  0  0  0  0  0  0  0  0
  152.7970  139.5742  156.0837 N   0  0  0  0  0  0  0  0  0  0  0  0
  151.8581  139.5855  155.0408 O   0  0  0  0  0  0  0  0  0  0  0  0
  150.6694  139.1093  155.5015 C   0  0  0  0  0  0  0  0  0  0  0  0
  149.5394  139.1085  154.5253 C   0  0  0  0  0  0  0  0  0  0  0  0
  150.8261  138.7656  156.8180 C   0  0  0  0  0  0  0  0  0  0  0  0
  149.8769  138.2540  157.7397 N   0  0  0  0  0  0  0  0  0  0  0  0
  149.7081  136.9750  158.1094 C   0  0  0  0  0  0  0  0  0  0  0  0
  150.3940  136.0304  157.7198 O   0  0  0  0  0  0  0  0  0  0  0  0
  148.7019  136.8494  158.9851 N   0  0  0  0  0  0  0  0  0  0  0  0
  148.2621  135.5920  159.5790 C   0  0  0  0  0  0  0  0  0  0  0  0
  147.4831  135.8243  160.8843 C   0  0  1  0  0  0  0  0  0  0  0  0
  147.1121  134.5385  161.6204 C   0  0  0  0  0  0  0  0  0  0  0  0
  146.9950  134.9778  163.0727 C   0  0  0  0  0  0  0  0  0  0  0  0
  147.6410  136.3661  163.0987 C   0  0  0  0  0  0  0  0  0  0  0  0
  148.2871  136.4967  161.8406 O   0  0  0  0  0  0  0  0  0  0  0  0
  152.1975  138.9618  159.2930 H   0  0  0  0  0  0  0  0  0  0  0  0
  153.5874  139.7928  158.6068 H   0  0  0  0  0  0  0  0  0  0  0  0
  153.4634  138.0388  158.4895 H   0  0  0  0  0  0  0  0  0  0  0  0
  148.5984  139.3543  155.0172 H   0  0  0  0  0  0  0  0  0  0  0  0
  149.4357  138.1311  154.0542 H   0  0  0  0  0  0  0  0  0  0  0  0
  149.7042  139.8439  153.7377 H   0  0  0  0  0  0  0  0  0  0  0  0
  149.3205  138.9415  158.2261 H   0  0  0  0  0  0  0  0  0  0  0  0
  148.1936  137.6797  159.2517 H   0  0  0  0  0  0  0  0  0  0  0  0
  147.6464  135.0426  158.8649 H   0  0  0  0  0  0  0  0  0  0  0  0
  149.1408  134.9751  159.7695 H   0  0  0  0  0  0  0  0  0  0  0  0
  146.5817  136.4119  160.6991 H   0  0  0  0  0  0  0  0  0  0  0  0
  146.1966  134.0867  161.2374 H   0  0  0  0  0  0  0  0  0  0  0  0
  147.9136  133.8041  161.5269 H   0  0  0  0  0  0  0  0  0  0  0  0
  145.9542  135.0309  163.3945 H   0  0  0  0  0  0  0  0  0  0  0  0
  147.5147  134.2803  163.7305 H   0  0  0  0  0  0  0  0  0  0  0  0
  146.8792  137.1416  163.1917 H   0  0  0  0  0  0  0  0  0  0  0  0
  148.3488  136.4850  163.9195 H   0  0  0  0  0  0  0  0  0  0  0  0
  1  2  1  0  0  0  0
  1 18  1  0  0  0  0
  1 19  1  0  0  0  0
  1 20  1  0  0  0  0
  2  7  1  0  0  0  0
  2  3  2  0  0  0  0
  3  4  1  0  0  0  0
  4  5  1  0  0  0  0
  5  6  1  0  0  0  0
  5  7  2  0  0  0  0
  6 21  1  0  0  0  0
  6 22  1  0  0  0  0
  6 23  1  0  0  0  0
  7  8  1  0  0  0  0
  8  9  1  0  0  0  0
  8 24  1  0  0  0  0
  9 10  2  0  0  0  0
  9 11  1  0  0  0  0
 11 12  1  0  0  0  0
 11 25  1  0  0  0  0
 12 13  1  0  0  0  0
 12 26  1  0  0  0  0
 12 27  1  0  0  0  0
 13 17  1  0  0  0  0
 13 14  1  0  0  0  0
 13 28  1  0  0  0  0
 14 15  1  0  0  0  0
 14 29  1  0  0  0  0
 14 30  1  0  0  0  0
 15 16  1  0  0  0  0
 15 31  1  0  0  0  0
 15 32  1  0  0  0  0
 16 17  1  0  0  0  0
 16 33  1  0  0  0  0
 16 34  1  0  0  0  0
M  END
> <s_m_source_file>
AV-unprocessed.smi

> <i_m_source_file_index>
2452

> <i_lp_mmshare_version>
43012

> <i_f3d_flags>
0

> <s_epik_input>
W0NIM11jMW5vYyhbQ0gzXSljMVtOSF1DKD1PKVtOSF1bQ0gyXVtDQEBIXTJbQ0gyXVtDSDJdW0NIMl1PMg==

> <s_epik_cmdline>
J2VwaWtfcHl0aG9uJywgJy1waCcsICc3LjAnLCAnLXRuJywgJzgnLCAnLW1hJywgJzIwMCcsICctbWV0YWxfYmluZGluZycsICctaW1hZScsICc8aW5maWxlLm1hZT4nLCAnLW9tYWUnLCAnPG91dGZpbGUubWFlPic=

> <r_lp_tautomer_probability>
1

> <r_epik_Ionization_Penalty>
3.28451e-05

> <r_epik_Ionization_Penalty_Charging>
0

> <r_epik_Ionization_Penalty_Neutral>
3.28451e-05

> <r_epik_State_Penalty>
-0

> <r_epik_Charging_Adjusted_Penalty>
0

> <i_epik_Tot_Q>
0

> <i_epik_Tot_abs_Q>
0

> <r_epik_Metal_State_Penalty>
-0

> <b_epik_Metal_Only>
0

> <s_lp_Force_Field>
OPLS_2005

> <r_lp_Energy>
18.1661

> <b_lp_Chiralities_Consistent>
1

> <s_lp_Variant>
AV-unprocessed.smi:2452-2

> <Gold.Version>
5.8.1

> <Gold.Id.Protein>
6NUR|6NUR_protein|mol2

> <Gold.PLP.Fitness>
37.3489

> <Gold.PLP.PLP>
-29.1397

> <Gold.PLP.part.hbond>
-4.0000

> <Gold.PLP.part.metal>
0.0000

> <Gold.PLP.part.buried>
-4.8529

> <Gold.PLP.part.nonpolar>
-21.5881

> <Gold.PLP.part.repulsive>
0.2506

> <Gold.PLP.ligand.clash>
0.0000

> <Gold.PLP.ligand.torsion>
0.8946

> <Gold.PLP.Chemscore.Hbond>
3.2823

> <Gold.PLP.Chemscore.CHOScore>
0.0000

> <Gold.PLP.Chemscore.Metal>
0.0000

> <Gold.Chemscore.Hbonds>
donor molecule, donor type, donor heavy atom, donor atom, acceptor molecule, acceptor atom, score
      P1  H  6896  6908       L1    10  0.21
      P1  H  6931  6943       L1    17  1.00
      P1  H  7989  7998       L1     4  0.99
      P1  H  7997  8009       L1     3  1.00

> <Gold.PLP.Chemscore.Internal.Correction>
0.1516

> <Gold.Rescore>
     Score         DG    S(hbond)    S(metal)    S(lipo)     H(rot)  DE(clash)    DE(int)     intcor
     20.00     -21.03       3.32        0.00      65.03       1.23       0.16       0.86       ----

> <Gold.Chemscore.Fitness>
20.0040

> <Gold.Chemscore.DG>
-21.0286

> <Gold.Chemscore.ZeroCoef>
-5.4800

> <Gold.Chemscore.Hbond>
3.3227

> <Gold.Chemscore.Metal>
0.0000

> <Gold.Chemscore.Lipo>
65.0322

> <Gold.Chemscore.Internal_Hbond>
0.0000

> <Gold.Chemscore.DEClash>
0.1625

> <Gold.Chemscore.DEInternal>
0.8621

> <Gold.Chemscore.Rot>
1.2337

> <Gold.Chemscore.Internal.Correction>
   9.000000E+99

> <Gold.Chemscore.Hbonds>
donor molecule, donor type, donor heavy atom, donor atom, acceptor molecule, acceptor atom, score
      P1  H  6896  6908       L1    10  0.10
      P1  H  6931  6943       L1    17  0.40
      P1  H  7989  7998       L1     4  0.79
      P1  H  7997  8009       L1     3  0.99

> <Gold.Chemscore.Hbond.Weighted>
-11.0980

> <Gold.Chemscore.Metal.Weighted>
-0.0000

> <Gold.Chemscore.Lipo.Weighted>
-7.6088

> <Gold.Chemscore.Internal_Hbond.Weighted>
0.0000

> <Gold.Chemscore.DEClash.Weighted>
0.1625

> <Gold.Chemscore.DEInternal.Weighted>
0.8621

> <Gold.Chemscore.Rot.Weighted>
3.1582

> <Gold.Chemscore.Internal.Correction.Weighted>
   9.000000E+99

> <Gold.Protein.RotatedTorsions>
[ 6907 6896 6895 6894 ] final -176.96 input  -60.11 | X-H torsion
[ 7974 7965 7964 7962 ] final -109.48 input  175.53 | X-H torsion
[ 8008 7997 7996 7995 ] final -149.30 input   59.86 | X-H torsion
[ 10167 10162 10161 10158 ] final   -3.88 input  -65.29 | X-H torsion
[ 10718 10713 10712 10709 ] final   48.72 input   66.30 | X-H torsion
[ 10763 10752 10751 10750 ] final   16.20 input  -60.55 | X-H torsion
[ 11005 11000 10999 10996 ] final   19.57 input  -57.11 | X-H torsion

> <Gold.Protein.ActiveResidues>
 VAL166  LYS551  ARG553  GLY616  TRP617  ASP618  TYR619  PRO620  LYS621  CYS622 
 ASP623  PHE694  ASN695  SER759  ASP760  ASP761  ALA762  ILE779  LEU786  VAL792 
 PHE793  MET794  SER795  GLU796  ALA797  LYS798  CYS799  TRP800  GLU811  SER814 

> <Gold.Protein.RotatedAtoms>
  151.6133  133.3345  159.3071 H   0  0  0  0  0  0  0  0  0  0  0  0  # atno 6907 bound_to 6896
  150.8145  134.7322  159.6729 H   0  0  0  0  0  0  0  0  0  0  0  0  # atno 6908 bound_to 6896
  152.4241  134.5906  160.0024 H   0  0  0  0  0  0  0  0  0  0  0  0  # atno 6909 bound_to 6896
  145.1800  140.8966  143.3485 H   0  0  0  0  0  0  0  0  0  0  0  0  # atno 7974 bound_to 7965
  155.6054  140.0666  157.2721 H   0  0  0  0  0  0  0  0  0  0  0  0  # atno 8008 bound_to 7997
  154.4268  140.1811  156.1264 H   0  0  0  0  0  0  0  0  0  0  0  0  # atno 8009 bound_to 7997
  156.0127  140.3325  155.6960 H   0  0  0  0  0  0  0  0  0  0  0  0  # atno 8010 bound_to 7997
  140.6907  143.6488  150.8369 H   0  0  0  0  0  0  0  0  0  0  0  0  # atno 10167 bound_to 10162
  157.4714  130.8258  149.7992 H   0  0  0  0  0  0  0  0  0  0  0  0  # atno 10718 bound_to 10713
  153.1453  135.6768  153.8965 H   0  0  0  0  0  0  0  0  0  0  0  0  # atno 10763 bound_to 10752
  153.8408  135.3105  155.3427 H   0  0  0  0  0  0  0  0  0  0  0  0  # atno 10764 bound_to 10752
  154.7820  135.4883  153.9949 H   0  0  0  0  0  0  0  0  0  0  0  0  # atno 10765 bound_to 10752
  140.4122  134.1606  155.7668 H   0  0  0  0  0  0  0  0  0  0  0  0  # atno 11005 bound_to 11000
  145.0146  139.3479  143.6103 LP  0  0  0  0  0  0  0  0  0  0  0  0  # atno 17320 bound_to 7965
  146.3455  139.9422  142.8739 LP  0  0  0  0  0  0  0  0  0  0  0  0  # atno 17321 bound_to 7965
  140.0201  143.5552  152.2804 LP  0  0  0  0  0  0  0  0  0  0  0  0  # atno 17342 bound_to 10162
  139.6307  144.7644  151.2543 LP  0  0  0  0  0  0  0  0  0  0  0  0  # atno 17343 bound_to 10162
  156.0075  130.3848  150.2378 LP  0  0  0  0  0  0  0  0  0  0  0  0  # atno 17370 bound_to 10713
  157.0561  131.0076  151.3238 LP  0  0  0  0  0  0  0  0  0  0  0  0  # atno 17371 bound_to 10713
  141.1817  133.8401  157.1235 LP  0  0  0  0  0  0  0  0  0  0  0  0  # atno 17394 bound_to 11000
  140.0259  134.9924  157.0685 LP  0  0  0  0  0  0  0  0  0  0  0  0  # atno 17395 bound_to 11000

$$$$
