AV-unprocessed.smi:1962|AV-procd|sdf|7922|dock3
  -GOLD-   2272010 93D 1   1.00000     0.00000
 Structure written by MMmdl.
 36 37  0  0  0  0  0  0  0  0  1 V2000
  144.9323  135.1561  153.1887 C   0  0  0  0  0  0  0  0  0  0  0  0
  145.2388  136.3041  152.2176 C   0  0  2  0  0  0  0  0  0  0  0  0
  145.5106  135.7789  150.7922 C   0  0  0  0  0  0  0  0  0  0  0  0
  145.4202  134.3316  150.7034 N   0  0  0  0  0  0  0  0  0  0  0  0
  144.3846  133.5668  150.2093 C   0  0  0  0  0  0  0  0  0  0  0  0
  144.7597  132.2583  150.3154 C   0  0  0  0  0  0  0  0  0  0  0  0
  146.0572  132.3246  150.8959 C   0  0  0  0  0  0  0  0  0  0  0  0
  146.4484  133.5663  151.1306 N   0  0  0  0  0  0  0  0  0  0  0  0
  146.3868  137.0577  152.7198 N   0  0  0  0  0  0  0  0  0  0  0  0
  146.3415  138.0589  153.6190 C   0  0  0  0  0  0  0  0  0  0  0  0
  145.2988  138.4334  154.1567 O   0  0  0  0  0  0  0  0  0  0  0  0
  147.6392  138.7179  153.9232 C   0  0  0  0  0  0  0  0  0  0  0  0
  148.6697  138.0028  154.2511 N   0  0  0  0  0  0  0  0  0  0  0  0
  149.8983  138.5696  154.5228 N   0  0  0  0  0  0  0  0  0  0  0  0
  151.0076  137.6212  154.6003 C   0  0  0  0  0  0  0  0  0  0  0  0
  150.1071  139.8928  154.7346 C   0  0  0  0  0  0  0  0  0  0  0  0
  151.2132  140.3837  154.9604 O   0  0  0  0  0  0  0  0  0  0  0  0
  148.8670  140.7911  154.7135 C   0  0  0  0  0  0  0  0  0  0  0  0
  147.7528  140.2255  153.8105 C   0  0  0  0  0  0  0  0  0  0  0  0
  144.0652  134.5839  152.8581 H   0  0  0  0  0  0  0  0  0  0  0  0
  144.7141  135.5347  154.1878 H   0  0  0  0  0  0  0  0  0  0  0  0
  145.7743  134.4676  153.2693 H   0  0  0  0  0  0  0  0  0  0  0  0
  144.3559  136.9450  152.1884 H   0  0  0  0  0  0  0  0  0  0  0  0
  144.8164  136.2270  150.0790 H   0  0  0  0  0  0  0  0  0  0  0  0
  146.5124  136.0688  150.4731 H   0  0  0  0  0  0  0  0  0  0  0  0
  143.4804  134.0131  149.8221 H   0  0  0  0  0  0  0  0  0  0  0  0
  144.1946  131.3865  150.0209 H   0  0  0  0  0  0  0  0  0  0  0  0
  146.7217  131.5128  151.1529 H   0  0  0  0  0  0  0  0  0  0  0  0
  147.2879  136.8240  152.3280 H   0  0  0  0  0  0  0  0  0  0  0  0
  151.4865  137.6668  155.5795 H   0  0  0  0  0  0  0  0  0  0  0  0
  151.7578  137.8474  153.8410 H   0  0  0  0  0  0  0  0  0  0  0  0
  150.6791  136.5927  154.4419 H   0  0  0  0  0  0  0  0  0  0  0  0
  148.5031  140.8709  155.7385 H   0  0  0  0  0  0  0  0  0  0  0  0
  149.1379  141.7987  154.3966 H   0  0  0  0  0  0  0  0  0  0  0  0
  147.9436  140.4940  152.7709 H   0  0  0  0  0  0  0  0  0  0  0  0
  146.8116  140.7043  154.0839 H   0  0  0  0  0  0  0  0  0  0  0  0
  1  2  1  0  0  0  0
  1 20  1  0  0  0  0
  1 21  1  0  0  0  0
  1 22  1  0  0  0  0
  2  3  1  0  0  0  0
  2  9  1  0  0  0  0
  2 23  1  0  0  0  0
  3  4  1  0  0  0  0
  3 24  1  0  0  0  0
  3 25  1  0  0  0  0
  4  8  1  0  0  0  0
  4  5  1  0  0  0  0
  5  6  2  0  0  0  0
  5 26  1  0  0  0  0
  6  7  1  0  0  0  0
  6 27  1  0  0  0  0
  7  8  2  0  0  0  0
  7 28  1  0  0  0  0
  9 10  1  0  0  0  0
  9 29  1  0  0  0  0
 10 11  2  0  0  0  0
 10 12  1  0  0  0  0
 12 19  1  0  0  0  0
 12 13  2  0  0  0  0
 13 14  1  0  0  0  0
 14 15  1  0  0  0  0
 14 16  1  0  0  0  0
 15 30  1  0  0  0  0
 15 31  1  0  0  0  0
 15 32  1  0  0  0  0
 16 17  2  0  0  0  0
 16 18  1  0  0  0  0
 18 19  1  0  0  0  0
 18 33  1  0  0  0  0
 18 34  1  0  0  0  0
 19 35  1  0  0  0  0
 19 36  1  0  0  0  0
M  END
> <s_m_source_file>
AV-unprocessed.smi

> <i_m_source_file_index>
1962

> <i_lp_mmshare_version>
43012

> <i_f3d_flags>
0

> <s_epik_input>
bjFbY0hdW2NIXVtjSF1uMVtDSDJdW0NAQEhdKFtDSDNdKVtOSF1DKD1PKUMyPU5OKFtDSDNdKUMoPU8pW0NIMl1bQ0gyXTI=

> <s_epik_cmdline>
J2VwaWtfcHl0aG9uJywgJy1waCcsICc3LjAnLCAnLXRuJywgJzgnLCAnLW1hJywgJzIwMCcsICctbWV0YWxfYmluZGluZycsICctaW1hZScsICc8aW5maWxlLm1hZT4nLCAnLW9tYWUnLCAnPG91dGZpbGUubWFlPic=

> <r_lp_tautomer_probability>
1

> <r_epik_Ionization_Penalty>
9.43868e-05

> <r_epik_Ionization_Penalty_Charging>
0

> <r_epik_Ionization_Penalty_Neutral>
9.43868e-05

> <r_epik_State_Penalty>
-0

> <r_epik_Charging_Adjusted_Penalty>
0

> <i_epik_Tot_Q>
0

> <i_epik_Tot_abs_Q>
0

> <r_epik_Metal_State_Penalty>
0.0732556

> <b_epik_Metal_Only>
0

> <s_epik_Chemistry_Notes>
This compound has an imine and may undergo hydrolysis.

> <s_lp_Force_Field>
OPLS_2005

> <r_lp_Energy>
16.0967

> <b_lp_Chiralities_Consistent>
1

> <s_lp_Variant>
AV-unprocessed.smi:1962-1

> <Gold.Version>
5.8.1

> <Gold.Id.Protein>
6NUR|6NUR_protein|mol2

> <Gold.PLP.Fitness>
38.6691

> <Gold.PLP.PLP>
-31.1828

> <Gold.PLP.part.hbond>
-2.0000

> <Gold.PLP.part.metal>
0.0000

> <Gold.PLP.part.buried>
-4.6507

> <Gold.PLP.part.nonpolar>
-26.5944

> <Gold.PLP.part.repulsive>
1.8918

> <Gold.PLP.ligand.clash>
0.0000

> <Gold.PLP.ligand.torsion>
2.2894

> <Gold.PLP.Chemscore.Hbond>
2.0000

> <Gold.PLP.Chemscore.CHOScore>
2.0000

> <Gold.PLP.Chemscore.Metal>
0.0000

> <Gold.Chemscore.Hbonds>
donor molecule, donor type, donor heavy atom, donor atom, acceptor molecule, acceptor atom, score
      L1  H     9    29       P1  7948  1.00
      P1  H  7989  7998       L1    17  1.00
      L1  C     5    26       P1 10186  1.00
      L1  C     7    28       P1 10747  1.00

> <Gold.PLP.Chemscore.Internal.Correction>
0.0651

> <Gold.Rescore>
     Score         DG    S(hbond)    S(metal)    S(lipo)     H(rot)  DE(clash)    DE(int)     intcor
     11.32     -15.47       1.79        0.00      67.54       1.53       0.95       3.19       ----

> <Gold.Chemscore.Fitness>
11.3242

> <Gold.Chemscore.DG>
-15.4651

> <Gold.Chemscore.ZeroCoef>
-5.4800

> <Gold.Chemscore.Hbond>
1.7929

> <Gold.Chemscore.Metal>
0.0000

> <Gold.Chemscore.Lipo>
67.5367

> <Gold.Chemscore.Internal_Hbond>
0.0000

> <Gold.Chemscore.DEClash>
0.9481

> <Gold.Chemscore.DEInternal>
3.1927

> <Gold.Chemscore.Rot>
1.5254

> <Gold.Chemscore.Internal.Correction>
   9.000000E+99

> <Gold.Chemscore.Hbonds>
donor molecule, donor type, donor heavy atom, donor atom, acceptor molecule, acceptor atom, score
      L1  H     9    29       P1  7948  1.00
      P1  H  7989  7998       L1    17  0.33

> <Gold.Chemscore.Hbond.Weighted>
-5.9883

> <Gold.Chemscore.Metal.Weighted>
-0.0000

> <Gold.Chemscore.Lipo.Weighted>
-7.9018

> <Gold.Chemscore.Internal_Hbond.Weighted>
0.0000

> <Gold.Chemscore.DEClash.Weighted>
0.9481

> <Gold.Chemscore.DEInternal.Weighted>
3.1927

> <Gold.Chemscore.Rot.Weighted>
3.9051

> <Gold.Chemscore.Internal.Correction.Weighted>
   9.000000E+99

> <Gold.Protein.RotatedTorsions>
[ 6907 6896 6895 6894 ] final  -47.51 input  -60.11 | X-H torsion
[ 7974 7965 7964 7962 ] final -119.22 input  175.53 | X-H torsion
[ 8008 7997 7996 7995 ] final  -43.94 input   59.86 | X-H torsion
[ 10167 10162 10161 10158 ] final -147.98 input  -65.29 | X-H torsion
[ 10718 10713 10712 10709 ] final -178.00 input   66.30 | X-H torsion
[ 10763 10752 10751 10750 ] final   47.26 input  -60.55 | X-H torsion
[ 11005 11000 10999 10996 ] final -140.82 input  -57.11 | X-H torsion

> <Gold.Protein.ActiveResidues>
 VAL166  LYS551  ARG553  GLY616  TRP617  ASP618  TYR619  PRO620  LYS621  CYS622 
 ASP623  PHE694  ASN695  SER759  ASP760  ASP761  ALA762  ILE779  LEU786  VAL792 
 PHE793  MET794  SER795  GLU796  ALA797  LYS798  CYS799  TRP800  GLU811  SER814 

> <Gold.Protein.RotatedAtoms>
  150.9001  134.8412  159.7353 H   0  0  0  0  0  0  0  0  0  0  0  0  # atno 6907 bound_to 6896
  152.4887  134.4516  159.9586 H   0  0  0  0  0  0  0  0  0  0  0  0  # atno 6908 bound_to 6896
  151.4569  133.3564  159.2838 H   0  0  0  0  0  0  0  0  0  0  0  0  # atno 6909 bound_to 6896
  145.0650  140.8318  143.4129 H   0  0  0  0  0  0  0  0  0  0  0  0  # atno 7974 bound_to 7965
  154.3997  140.1435  156.3602 H   0  0  0  0  0  0  0  0  0  0  0  0  # atno 8008 bound_to 7997
  155.8188  140.3470  155.5481 H   0  0  0  0  0  0  0  0  0  0  0  0  # atno 8009 bound_to 7997
  155.8309  140.0912  157.1783 H   0  0  0  0  0  0  0  0  0  0  0  0  # atno 8010 bound_to 7997
  139.7573  143.8429  152.2600 H   0  0  0  0  0  0  0  0  0  0  0  0  # atno 10167 bound_to 10162
  156.8378  130.9676  151.3102 H   0  0  0  0  0  0  0  0  0  0  0  0  # atno 10718 bound_to 10713
  152.9802  135.5982  154.3734 H   0  0  0  0  0  0  0  0  0  0  0  0  # atno 10763 bound_to 10752
  154.3405  135.2768  155.2427 H   0  0  0  0  0  0  0  0  0  0  0  0  # atno 10764 bound_to 10752
  154.4510  135.5989  153.6247 H   0  0  0  0  0  0  0  0  0  0  0  0  # atno 10765 bound_to 10752
  140.8385  134.2431  157.4822 H   0  0  0  0  0  0  0  0  0  0  0  0  # atno 11005 bound_to 11000
  145.1362  139.2601  143.5514 LP  0  0  0  0  0  0  0  0  0  0  0  0  # atno 17320 bound_to 7965
  146.3526  140.1026  142.8607 LP  0  0  0  0  0  0  0  0  0  0  0  0  # atno 17321 bound_to 7965
  139.8425  144.7203  150.9314 LP  0  0  0  0  0  0  0  0  0  0  0  0  # atno 17342 bound_to 10162
  140.7804  143.3971  151.1211 LP  0  0  0  0  0  0  0  0  0  0  0  0  # atno 17343 bound_to 10162
  157.6372  130.8776  149.9381 LP  0  0  0  0  0  0  0  0  0  0  0  0  # atno 17370 bound_to 10713
  156.0898  130.3664  150.0418 LP  0  0  0  0  0  0  0  0  0  0  0  0  # atno 17371 bound_to 10713
  139.8703  134.9623  156.4424 LP  0  0  0  0  0  0  0  0  0  0  0  0  # atno 17394 bound_to 11000
  140.8921  133.7840  155.9584 LP  0  0  0  0  0  0  0  0  0  0  0  0  # atno 17395 bound_to 11000

$$$$
