AV-unprocessed.smi:3138|AV-procd|sdf|11954|dock6
  -GOLD-   2272017353D 1   1.00000     0.00000
 Structure written by MMmdl.
 38 39  0  0  0  0  0  0  0  0  2 V2000
  150.2543  145.0345  160.4322 O   0  0  0  0  0  0  0  0  0  0  0  0
  151.1574  144.5642  159.7376 C   0  0  0  0  0  0  0  0  0  0  0  0
  150.9662  144.5124  158.2140 C   0  0  0  0  0  0  0  0  0  0  0  0
  150.0772  143.4099  157.7934 N   0  3  0  0  0  0  0  0  0  0  0  0
  150.7219  142.0819  157.7870 C   0  0  0  0  0  0  0  0  0  0  0  0
  151.2846  141.7352  156.3973 C   0  0  0  0  0  0  0  0  0  0  0  0
  150.3060  141.1007  155.5299 N   0  0  0  0  0  0  0  0  0  0  0  0
  148.9798  141.4344  155.3492 C   0  0  0  0  0  0  0  0  0  0  0  0
  148.4665  140.5747  154.4209 C   0  0  0  0  0  0  0  0  0  0  0  0
  149.5722  139.7483  154.0766 C   0  0  0  0  0  0  0  0  0  0  0  0
  150.6726  140.0696  154.7378 N   0  0  0  0  0  0  0  0  0  0  0  0
  152.3091  144.0897  160.2718 N   0  0  0  0  0  0  0  0  0  0  0  0
  153.4068  143.4672  159.5182 C   0  0  0  0  0  0  0  0  0  0  0  0
  153.4444  141.9640  159.8483 C   0  0  0  0  0  0  0  0  0  0  0  0
  153.5839  141.7384  161.3658 C   0  0  0  0  0  0  0  0  0  0  0  0
  152.5449  142.5522  162.1607 C   0  0  0  0  0  0  0  0  0  0  0  0
  152.5456  144.0279  161.7204 C   0  0  0  0  0  0  0  0  0  0  0  0
  150.5434  145.4578  157.8714 H   0  0  0  0  0  0  0  0  0  0  0  0
  151.9365  144.3799  157.7328 H   0  0  0  0  0  0  0  0  0  0  0  0
  149.2905  143.3801  158.4268 H   0  0  0  0  0  0  0  0  0  0  0  0
  151.5299  142.0770  158.5194 H   0  0  0  0  0  0  0  0  0  0  0  0
  150.0036  141.3257  158.1064 H   0  0  0  0  0  0  0  0  0  0  0  0
  151.6556  142.6359  155.9064 H   0  0  0  0  0  0  0  0  0  0  0  0
  152.1357  141.0606  156.4978 H   0  0  0  0  0  0  0  0  0  0  0  0
  148.5150  142.2457  155.8901 H   0  0  0  0  0  0  0  0  0  0  0  0
  147.4562  140.5442  154.0401 H   0  0  0  0  0  0  0  0  0  0  0  0
  149.6086  138.9330  153.3689 H   0  0  0  0  0  0  0  0  0  0  0  0
  153.3379  143.6082  158.4409 H   0  0  0  0  0  0  0  0  0  0  0  0
  154.3487  143.9344  159.8096 H   0  0  0  0  0  0  0  0  0  0  0  0
  152.5303  141.4889  159.4895 H   0  0  0  0  0  0  0  0  0  0  0  0
  154.2704  141.4835  159.3232 H   0  0  0  0  0  0  0  0  0  0  0  0
  153.4923  140.6775  161.6002 H   0  0  0  0  0  0  0  0  0  0  0  0
  154.5849  142.0373  161.6794 H   0  0  0  0  0  0  0  0  0  0  0  0
  151.5522  142.1273  162.0063 H   0  0  0  0  0  0  0  0  0  0  0  0
  152.7505  142.4780  163.2290 H   0  0  0  0  0  0  0  0  0  0  0  0
  153.5079  144.4877  161.9499 H   0  0  0  0  0  0  0  0  0  0  0  0
  151.8063  144.5863  162.2966 H   0  0  0  0  0  0  0  0  0  0  0  0
  149.7334  143.6120  156.8654 H   0  0  0  0  0  0  0  0  0  0  0  0
  1  2  2  0  0  0  0
  2  3  1  0  0  0  0
  2 12  1  0  0  0  0
  3  4  1  0  0  0  0
  3 18  1  0  0  0  0
  3 19  1  0  0  0  0
  4  5  1  0  0  0  0
  4 20  1  0  0  0  0
  4 38  1  0  0  0  0
  5  6  1  0  0  0  0
  5 21  1  0  0  0  0
  5 22  1  0  0  0  0
  6  7  1  0  0  0  0
  6 23  1  0  0  0  0
  6 24  1  0  0  0  0
  7 11  1  0  0  0  0
  7  8  1  0  0  0  0
  8  9  2  0  0  0  0
  8 25  1  0  0  0  0
  9 10  1  0  0  0  0
  9 26  1  0  0  0  0
 10 11  2  0  0  0  0
 10 27  1  0  0  0  0
 12 17  1  0  0  0  0
 12 13  1  0  0  0  0
 13 14  1  0  0  0  0
 13 28  1  0  0  0  0
 13 29  1  0  0  0  0
 14 15  1  0  0  0  0
 14 30  1  0  0  0  0
 14 31  1  0  0  0  0
 15 16  1  0  0  0  0
 15 32  1  0  0  0  0
 15 33  1  0  0  0  0
 16 17  1  0  0  0  0
 16 34  1  0  0  0  0
 16 35  1  0  0  0  0
 17 36  1  0  0  0  0
 17 37  1  0  0  0  0
M  CHG  1   4   1
M  END
> <s_m_source_file>
AV-unprocessed.smi

> <i_m_source_file_index>
3138

> <i_lp_mmshare_version>
43012

> <i_f3d_flags>
0

> <s_epik_input>
W0NIMl0xW0NIMl1bQ0gyXVtDSDJdW0NIMl1OMUMoPU8pW0NIMl1bTkhdW0NIMl1bQ0gyXW4yW2NIXVtjSF1bY0hdbjI=

> <s_epik_cmdline>
J2VwaWtfcHl0aG9uJywgJy1waCcsICc3LjAnLCAnLXRuJywgJzgnLCAnLW1hJywgJzIwMCcsICctbWV0YWxfYmluZGluZycsICctaW1hZScsICc8aW5maWxlLm1hZT4nLCAnLW9tYWUnLCAnPG91dGZpbGUubWFlPic=

> <r_lp_tautomer_probability>
1

> <r_epik_Ionization_Penalty>
0.202061

> <r_epik_Ionization_Penalty_Charging>
0.202058

> <r_epik_Ionization_Penalty_Neutral>
2.33614e-06

> <r_epik_State_Penalty>
0.191938

> <r_epik_Charging_Adjusted_Penalty>
0.393996

> <i_epik_Tot_Q>
1

> <i_epik_Tot_abs_Q>
1

> <r_epik_Metal_State_Penalty>
0.192416

> <b_epik_Metal_Only>
0

> <s_lp_Force_Field>
OPLS_2005

> <r_lp_Energy>
21.8037

> <b_lp_Chiralities_Consistent>
1

> <s_lp_Variant>
AV-unprocessed.smi:3138-1

> <Gold.Version>
5.8.1

> <Gold.Id.Protein>
6NUR|6NUR_protein|mol2

> <Gold.PLP.Fitness>
54.9831

> <Gold.PLP.PLP>
-43.5630

> <Gold.PLP.part.hbond>
-2.0000

> <Gold.PLP.part.metal>
0.0000

> <Gold.PLP.part.buried>
-4.1142

> <Gold.PLP.part.nonpolar>
-36.4486

> <Gold.PLP.part.repulsive>
0.3095

> <Gold.PLP.ligand.clash>
0.0000

> <Gold.PLP.ligand.torsion>
0.9477

> <Gold.PLP.Chemscore.Hbond>
2.9520

> <Gold.PLP.Chemscore.CHOScore>
1.4664

> <Gold.PLP.Chemscore.Metal>
0.0000

> <Gold.Chemscore.Hbonds>
donor molecule, donor type, donor heavy atom, donor atom, acceptor molecule, acceptor atom, score
      L1  H     4    38       P1  8028  2.00
      P1  H  7989  7998       L1    11  1.00
      L1  C     8    25       P1  8028  0.99
      L1  C    10    27       P1  7957  0.50

> <Gold.PLP.Chemscore.Internal.Correction>
0.0603

> <Gold.Rescore>
     Score         DG    S(hbond)    S(metal)    S(lipo)     H(rot)  DE(clash)    DE(int)     intcor
     15.92     -17.90       1.46        0.00     104.70       1.84       1.04       0.94       ----

> <Gold.Chemscore.Fitness>
15.9198

> <Gold.Chemscore.DG>
-17.9019

> <Gold.Chemscore.ZeroCoef>
-5.4800

> <Gold.Chemscore.Hbond>
1.4618

> <Gold.Chemscore.Metal>
0.0000

> <Gold.Chemscore.Lipo>
104.7043

> <Gold.Chemscore.Internal_Hbond>
0.0000

> <Gold.Chemscore.DEClash>
1.0385

> <Gold.Chemscore.DEInternal>
0.9436

> <Gold.Chemscore.Rot>
1.8402

> <Gold.Chemscore.Internal.Correction>
   9.000000E+99

> <Gold.Chemscore.Hbonds>
donor molecule, donor type, donor heavy atom, donor atom, acceptor molecule, acceptor atom, score
      L1  H     4    38       P1  8028  0.93
      P1  H  7989  7998       L1    11  0.12

> <Gold.Chemscore.Hbond.Weighted>
-4.8824

> <Gold.Chemscore.Metal.Weighted>
-0.0000

> <Gold.Chemscore.Lipo.Weighted>
-12.2504

> <Gold.Chemscore.Internal_Hbond.Weighted>
0.0000

> <Gold.Chemscore.DEClash.Weighted>
1.0385

> <Gold.Chemscore.DEInternal.Weighted>
0.9436

> <Gold.Chemscore.Rot.Weighted>
4.7110

> <Gold.Chemscore.Internal.Correction.Weighted>
   9.000000E+99

> <Gold.Protein.RotatedTorsions>
[ 6907 6896 6895 6894 ] final  -96.11 input  -60.11 | X-H torsion
[ 7974 7965 7964 7962 ] final -145.72 input  175.53 | X-H torsion
[ 8008 7997 7996 7995 ] final -173.90 input   59.86 | X-H torsion
[ 10167 10162 10161 10158 ] final  141.61 input  -65.29 | X-H torsion
[ 10718 10713 10712 10709 ] final -124.67 input   66.30 | X-H torsion
[ 10763 10752 10751 10750 ] final    3.06 input  -60.55 | X-H torsion
[ 11005 11000 10999 10996 ] final  122.12 input  -57.11 | X-H torsion

> <Gold.Protein.ActiveResidues>
 VAL166  LYS551  ARG553  GLY616  TRP617  ASP618  TYR619  PRO620  LYS621  CYS622 
 ASP623  PHE694  ASN695  SER759  ASP760  ASP761  ALA762  ILE779  LEU786  VAL792 
 PHE793  MET794  SER795  GLU796  ALA797  LYS798  CYS799  TRP800  GLU811  SER814 

> <Gold.Protein.RotatedAtoms>
  150.6980  134.1553  159.4155 H   0  0  0  0  0  0  0  0  0  0  0  0  # atno 6907 bound_to 6896
  151.9535  135.0155  160.0552 H   0  0  0  0  0  0  0  0  0  0  0  0  # atno 6908 bound_to 6896
  152.1990  133.4792  159.5085 H   0  0  0  0  0  0  0  0  0  0  0  0  # atno 6909 bound_to 6896
  144.8208  140.5547  143.5580 H   0  0  0  0  0  0  0  0  0  0  0  0  # atno 7974 bound_to 7965
  155.9634  140.1149  157.0876 H   0  0  0  0  0  0  0  0  0  0  0  0  # atno 8008 bound_to 7997
  154.4137  140.1177  156.5276 H   0  0  0  0  0  0  0  0  0  0  0  0  # atno 8009 bound_to 7997
  155.6691  140.3473  155.4814 H   0  0  0  0  0  0  0  0  0  0  0  0  # atno 8010 bound_to 7997
  139.5016  144.6161  151.6161 H   0  0  0  0  0  0  0  0  0  0  0  0  # atno 10167 bound_to 10162
  156.1608  130.6600  151.0047 H   0  0  0  0  0  0  0  0  0  0  0  0  # atno 10718 bound_to 10713
  153.2879  135.6946  153.7321 H   0  0  0  0  0  0  0  0  0  0  0  0  # atno 10763 bound_to 10752
  153.6284  135.3414  155.3034 H   0  0  0  0  0  0  0  0  0  0  0  0  # atno 10764 bound_to 10752
  154.8515  135.4403  154.1953 H   0  0  0  0  0  0  0  0  0  0  0  0  # atno 10765 bound_to 10752
  139.9255  134.9640  156.8061 H   0  0  0  0  0  0  0  0  0  0  0  0  # atno 11005 bound_to 11000
  145.5110  139.1479  143.3605 LP  0  0  0  0  0  0  0  0  0  0  0  0  # atno 17320 bound_to 7965
  146.2513  140.5251  142.8892 LP  0  0  0  0  0  0  0  0  0  0  0  0  # atno 17321 bound_to 7965
  140.5849  143.9882  150.6289 LP  0  0  0  0  0  0  0  0  0  0  0  0  # atno 17342 bound_to 10162
  140.3043  143.3240  152.0941 LP  0  0  0  0  0  0  0  0  0  0  0  0  # atno 17343 bound_to 10162
  157.6731  131.0857  150.7563 LP  0  0  0  0  0  0  0  0  0  0  0  0  # atno 17370 bound_to 10713
  156.7625  130.4803  149.5434 LP  0  0  0  0  0  0  0  0  0  0  0  0  # atno 17371 bound_to 10713
  140.6350  133.9871  155.7680 LP  0  0  0  0  0  0  0  0  0  0  0  0  # atno 17394 bound_to 11000
  141.0808  134.0064  157.3388 LP  0  0  0  0  0  0  0  0  0  0  0  0  # atno 17395 bound_to 11000

$$$$
