AV-unprocessed.smi:1373|AV-procd|sdf|5586|dock6
  -GOLD-   22720 5183D 1   1.00000     0.00000
 Structure written by MMmdl.
 42 43  0  0  0  0  0  0  0  0  1 V2000
  152.8071  142.9936  160.2584 C   0  0  0  0  0  0  0  0  0  0  0  0
  152.0234  142.9329  158.9426 C   0  0  0  0  0  0  0  0  0  0  0  0
  151.5935  141.5051  158.5782 C   0  0  0  0  0  0  0  0  0  0  0  0
  151.1598  141.3790  157.1093 C   0  0  0  0  0  0  0  0  0  0  0  0
  151.7103  140.1780  156.4931 N   0  0  0  0  0  0  0  0  0  0  0  0
  151.3744  139.7048  155.2816 C   0  0  0  0  0  0  0  0  0  0  0  0
  150.5576  140.2564  154.5441 O   0  0  0  0  0  0  0  0  0  0  0  0
  152.0778  138.4251  154.8178 C   0  0  0  0  0  0  0  0  0  0  0  0
  151.6776  137.2508  155.6547 C   0  0  0  0  0  0  0  0  0  0  0  0
  151.6406  137.3249  156.9805 N   0  0  0  0  0  0  0  0  0  0  0  0
  151.2595  136.0318  157.3671 O   0  0  0  0  0  0  0  0  0  0  0  0
  151.1058  135.3332  156.2169 C   0  0  0  0  0  0  0  0  0  0  0  0
  150.7300  133.8889  156.2906 C   0  0  0  0  0  0  0  0  0  0  0  0
  150.3843  133.3092  154.9937 N   0  0  0  0  0  0  0  0  0  0  0  0
  150.0597  131.8932  155.1202 C   0  0  0  0  0  0  0  0  0  0  0  0
  149.6961  131.2651  153.7637 C   0  0  0  0  0  0  0  0  0  0  0  0
  148.6124  131.9825  153.1814 O   0  0  0  0  0  0  0  0  0  0  0  0
  148.9044  133.3640  152.9971 C   0  0  0  0  0  0  0  0  0  0  0  0
  149.2683  134.0003  154.3498 C   0  0  0  0  0  0  0  0  0  0  0  0
  151.3391  136.0454  155.1178 N   0  0  0  0  0  0  0  0  0  0  0  0
  153.1038  144.0175  160.4873 H   0  0  0  0  0  0  0  0  0  0  0  0
  153.7130  142.3890  160.2055 H   0  0  0  0  0  0  0  0  0  0  0  0
  152.2067  142.6270  161.0915 H   0  0  0  0  0  0  0  0  0  0  0  0
  151.1437  143.5729  159.0190 H   0  0  0  0  0  0  0  0  0  0  0  0
  152.6363  143.3451  158.1402 H   0  0  0  0  0  0  0  0  0  0  0  0
  152.4184  140.8196  158.7773 H   0  0  0  0  0  0  0  0  0  0  0  0
  150.7723  141.1967  159.2264 H   0  0  0  0  0  0  0  0  0  0  0  0
  150.0726  141.3221  157.0464 H   0  0  0  0  0  0  0  0  0  0  0  0
  151.4567  142.2641  156.5438 H   0  0  0  0  0  0  0  0  0  0  0  0
  152.3936  139.6629  157.0298 H   0  0  0  0  0  0  0  0  0  0  0  0
  151.8378  138.2279  153.7719 H   0  0  0  0  0  0  0  0  0  0  0  0
  153.1578  138.5667  154.8742 H   0  0  0  0  0  0  0  0  0  0  0  0
  151.5759  133.3506  156.7196 H   0  0  0  0  0  0  0  0  0  0  0  0
  149.9005  133.7739  156.9902 H   0  0  0  0  0  0  0  0  0  0  0  0
  150.9057  131.3564  155.5507 H   0  0  0  0  0  0  0  0  0  0  0  0
  149.2247  131.7649  155.8110 H   0  0  0  0  0  0  0  0  0  0  0  0
  150.5543  131.2778  153.0898 H   0  0  0  0  0  0  0  0  0  0  0  0
  149.4055  130.2226  153.8938 H   0  0  0  0  0  0  0  0  0  0  0  0
  149.7230  133.4782  152.2846 H   0  0  0  0  0  0  0  0  0  0  0  0
  148.0338  133.8595  152.5674 H   0  0  0  0  0  0  0  0  0  0  0  0
  148.3951  133.9826  155.0039 H   0  0  0  0  0  0  0  0  0  0  0  0
  149.5154  135.0497  154.1879 H   0  0  0  0  0  0  0  0  0  0  0  0
  1  2  1  0  0  0  0
  1 21  1  0  0  0  0
  1 22  1  0  0  0  0
  1 23  1  0  0  0  0
  2  3  1  0  0  0  0
  2 24  1  0  0  0  0
  2 25  1  0  0  0  0
  3  4  1  0  0  0  0
  3 26  1  0  0  0  0
  3 27  1  0  0  0  0
  4  5  1  0  0  0  0
  4 28  1  0  0  0  0
  4 29  1  0  0  0  0
  5  6  1  0  0  0  0
  5 30  1  0  0  0  0
  6  7  2  0  0  0  0
  6  8  1  0  0  0  0
  8  9  1  0  0  0  0
  8 31  1  0  0  0  0
  8 32  1  0  0  0  0
  9 20  1  0  0  0  0
  9 10  2  0  0  0  0
 10 11  1  0  0  0  0
 11 12  1  0  0  0  0
 12 13  1  0  0  0  0
 12 20  2  0  0  0  0
 13 14  1  0  0  0  0
 13 33  1  0  0  0  0
 13 34  1  0  0  0  0
 14 19  1  0  0  0  0
 14 15  1  0  0  0  0
 15 16  1  0  0  0  0
 15 35  1  0  0  0  0
 15 36  1  0  0  0  0
 16 17  1  0  0  0  0
 16 37  1  0  0  0  0
 16 38  1  0  0  0  0
 17 18  1  0  0  0  0
 18 19  1  0  0  0  0
 18 39  1  0  0  0  0
 18 40  1  0  0  0  0
 19 41  1  0  0  0  0
 19 42  1  0  0  0  0
M  END
> <s_m_source_file>
AV-unprocessed.smi

> <i_m_source_file_index>
1373

> <i_lp_mmshare_version>
43012

> <i_f3d_flags>
0

> <s_epik_input>
W0NIM11bQ0gyXVtDSDJdW0NIMl1bTkhdQyg9TylbQ0gyXWMxbm9jKG4xKVtDSDJdTjJbQ0gyXVtDSDJdT1tDSDJdW0NIMl0y

> <s_epik_cmdline>
J2VwaWtfcHl0aG9uJywgJy1waCcsICc3LjAnLCAnLXRuJywgJzgnLCAnLW1hJywgJzIwMCcsICctbWV0YWxfYmluZGluZycsICctaW1hZScsICc8aW5maWxlLm1hZT4nLCAnLW9tYWUnLCAnPG91dGZpbGUubWFlPic=

> <r_lp_tautomer_probability>
1

> <r_epik_Ionization_Penalty>
0.0010147

> <r_epik_Ionization_Penalty_Charging>
0

> <r_epik_Ionization_Penalty_Neutral>
0.0010147

> <r_epik_State_Penalty>
0.00066205

> <r_epik_Charging_Adjusted_Penalty>
0.00066205

> <i_epik_Tot_Q>
0

> <i_epik_Tot_abs_Q>
0

> <r_epik_Metal_State_Penalty>
-0

> <b_epik_Metal_Only>
0

> <s_lp_Force_Field>
OPLS_2005

> <r_lp_Energy>
19.0751

> <b_lp_Chiralities_Consistent>
1

> <s_lp_Variant>
AV-unprocessed.smi:1373-1

> <Gold.Version>
5.8.1

> <Gold.Id.Protein>
6NUR|6NUR_protein|mol2

> <Gold.PLP.Fitness>
40.0002

> <Gold.PLP.PLP>
-35.9845

> <Gold.PLP.part.hbond>
-2.9070

> <Gold.PLP.part.metal>
0.0000

> <Gold.PLP.part.buried>
-4.2621

> <Gold.PLP.part.nonpolar>
-28.5770

> <Gold.PLP.part.repulsive>
0.4659

> <Gold.PLP.ligand.clash>
0.0000

> <Gold.PLP.ligand.torsion>
0.7179

> <Gold.PLP.Chemscore.Hbond>
1.8000

> <Gold.PLP.Chemscore.CHOScore>
0.0000

> <Gold.PLP.Chemscore.Metal>
0.0000

> <Gold.Chemscore.Hbonds>
donor molecule, donor type, donor heavy atom, donor atom, acceptor molecule, acceptor atom, score
      P1  H  7989  7998       L1     7  0.85
      P1  H 10752 10764       L1    20  0.85

> <Gold.PLP.Chemscore.Internal.Correction>
0.0516

> <Gold.Rescore>
     Score         DG    S(hbond)    S(metal)    S(lipo)     H(rot)  DE(clash)    DE(int)     intcor
     11.90     -14.91       2.04        0.00      72.55       2.29       0.05       2.97       ----

> <Gold.Chemscore.Fitness>
11.8986

> <Gold.Chemscore.DG>
-14.9108

> <Gold.Chemscore.ZeroCoef>
-5.4800

> <Gold.Chemscore.Hbond>
2.0384

> <Gold.Chemscore.Metal>
0.0000

> <Gold.Chemscore.Lipo>
72.5469

> <Gold.Chemscore.Internal_Hbond>
0.0000

> <Gold.Chemscore.DEClash>
0.0464

> <Gold.Chemscore.DEInternal>
2.9658

> <Gold.Chemscore.Rot>
2.2912

> <Gold.Chemscore.Internal.Correction>
   9.000000E+99

> <Gold.Chemscore.Hbonds>
donor molecule, donor type, donor heavy atom, donor atom, acceptor molecule, acceptor atom, score
      P1  H  7989  7998       L1     7  0.14
      P1  H 10752 10764       L1    20  0.07

> <Gold.Chemscore.Hbond.Weighted>
-6.8083

> <Gold.Chemscore.Metal.Weighted>
-0.0000

> <Gold.Chemscore.Lipo.Weighted>
-8.4880

> <Gold.Chemscore.Internal_Hbond.Weighted>
0.0000

> <Gold.Chemscore.DEClash.Weighted>
0.0464

> <Gold.Chemscore.DEInternal.Weighted>
2.9658

> <Gold.Chemscore.Rot.Weighted>
5.8654

> <Gold.Chemscore.Internal.Correction.Weighted>
   9.000000E+99

> <Gold.Protein.RotatedTorsions>
[ 6907 6896 6895 6894 ] final   -4.84 input  -60.11 | X-H torsion
[ 7974 7965 7964 7962 ] final -109.96 input  175.53 | X-H torsion
[ 8008 7997 7996 7995 ] final   69.14 input   59.86 | X-H torsion
[ 10167 10162 10161 10158 ] final -159.74 input  -65.29 | X-H torsion
[ 10718 10713 10712 10709 ] final  -58.01 input   66.30 | X-H torsion
[ 10763 10752 10751 10750 ] final  -59.65 input  -60.55 | X-H torsion
[ 11005 11000 10999 10996 ] final  -38.91 input  -57.11 | X-H torsion

> <Gold.Protein.ActiveResidues>
 VAL166  LYS551  ARG553  GLY616  TRP617  ASP618  TYR619  PRO620  LYS621  CYS622 
 ASP623  PHE694  ASN695  SER759  ASP760  ASP761  ALA762  ILE779  LEU786  VAL792 
 PHE793  MET794  SER795  GLU796  ALA797  LYS798  CYS799  TRP800  GLU811  SER814 

> <Gold.Protein.RotatedAtoms>
  151.4911  135.1057  159.9803 H   0  0  0  0  0  0  0  0  0  0  0  0  # atno 6907 bound_to 6896
  152.4740  133.8092  159.7004 H   0  0  0  0  0  0  0  0  0  0  0  0  # atno 6908 bound_to 6896
  150.8767  133.7367  159.2971 H   0  0  0  0  0  0  0  0  0  0  0  0  # atno 6909 bound_to 6896
  145.1741  140.8940  143.3518 H   0  0  0  0  0  0  0  0  0  0  0  0  # atno 7974 bound_to 7965
  155.7191  140.3493  155.5008 H   0  0  0  0  0  0  0  0  0  0  0  0  # atno 8008 bound_to 7997
  155.9286  140.1080  157.1172 H   0  0  0  0  0  0  0  0  0  0  0  0  # atno 8009 bound_to 7997
  154.4081  140.1235  156.4759 H   0  0  0  0  0  0  0  0  0  0  0  0  # atno 8010 bound_to 7997
  139.6592  143.9943  152.2214 H   0  0  0  0  0  0  0  0  0  0  0  0  # atno 10167 bound_to 10162
  156.1167  130.4170  150.0518 H   0  0  0  0  0  0  0  0  0  0  0  0  # atno 10718 bound_to 10713
  154.2570  135.6315  153.5261 H   0  0  0  0  0  0  0  0  0  0  0  0  # atno 10763 bound_to 10752
  152.9902  135.5578  154.5746 H   0  0  0  0  0  0  0  0  0  0  0  0  # atno 10764 bound_to 10752
  154.5286  135.2887  155.1175 H   0  0  0  0  0  0  0  0  0  0  0  0  # atno 10765 bound_to 10752
  141.0062  133.6930  156.2116 H   0  0  0  0  0  0  0  0  0  0  0  0  # atno 11005 bound_to 11000
  145.0203  139.3430  143.6076 LP  0  0  0  0  0  0  0  0  0  0  0  0  # atno 17320 bound_to 7965
  146.3464  139.9501  142.8730 LP  0  0  0  0  0  0  0  0  0  0  0  0  # atno 17321 bound_to 7965
  139.9678  144.6514  150.8018 LP  0  0  0  0  0  0  0  0  0  0  0  0  # atno 17342 bound_to 10162
  140.7572  143.3082  151.2909 LP  0  0  0  0  0  0  0  0  0  0  0  0  # atno 17343 bound_to 10162
  156.8467  130.9444  151.3628 LP  0  0  0  0  0  0  0  0  0  0  0  0  # atno 17370 bound_to 10713
  157.6351  130.8760  149.9344 LP  0  0  0  0  0  0  0  0  0  0  0  0  # atno 17371 bound_to 10713
  140.6808  134.4769  157.5589 LP  0  0  0  0  0  0  0  0  0  0  0  0  # atno 17394 bound_to 11000
  139.9065  134.8438  156.1688 LP  0  0  0  0  0  0  0  0  0  0  0  0  # atno 17395 bound_to 11000

$$$$
