AV-unprocessed.smi:2955|AV-procd|sdf|11303|dock8
  -GOLD-   2272016203D 1   1.00000     0.00000
 Structure written by MMmdl.
 46 48  0  0  0  0  0  0  0  0  2 V2000
  147.7085  136.3847  162.7784 C   0  0  0  0  0  0  0  0  0  0  0  0
  147.9508  135.9921  161.3355 C   0  0  0  0  0  0  0  0  0  0  0  0
  147.4275  134.7859  160.8283 C   0  0  0  0  0  0  0  0  0  0  0  0
  147.6564  134.4306  159.4864 C   0  0  0  0  0  0  0  0  0  0  0  0
  148.4073  135.2791  158.6512 C   0  0  0  0  0  0  0  0  0  0  0  0
  148.9392  136.4888  159.1424 C   0  0  0  0  0  0  0  0  0  0  0  0
  149.6634  137.2579  158.2568 O   0  0  0  0  0  0  0  0  0  0  0  0
  149.6895  138.6638  158.4540 C   0  0  0  0  0  0  0  0  0  0  0  0
  150.8652  139.2440  157.6604 C   0  0  0  0  0  0  0  0  0  0  0  0
  150.7805  140.7071  157.5570 N   0  0  0  0  0  0  0  0  0  0  0  0
  150.0230  141.4953  156.7387 C   0  0  0  0  0  0  0  0  0  0  0  0
  149.0322  141.0400  155.7066 C   0  0  2  0  0  0  0  0  0  0  0  0
  149.7069  140.1611  154.6432 C   0  0  0  0  0  0  0  0  0  0  0  0
  148.3693  142.1681  155.0647 N   0  0  0  0  0  0  0  0  0  0  0  0
  147.4476  142.0497  154.1010 C   0  0  0  0  0  0  0  0  0  0  0  0
  147.0705  140.9665  153.6624 O   0  0  0  0  0  0  0  0  0  0  0  0
  150.3091  142.7911  157.0556 N   0  3  0  0  0  0  0  0  0  0  0  0
  151.2729  142.8324  158.0630 C   0  0  0  0  0  0  0  0  0  0  0  0
  151.8802  143.9105  158.6991 C   0  0  0  0  0  0  0  0  0  0  0  0
  152.8362  143.6038  159.6898 C   0  0  0  0  0  0  0  0  0  0  0  0
  153.1558  142.2691  160.0133 C   0  0  0  0  0  0  0  0  0  0  0  0
  152.5320  141.1844  159.3621 C   0  0  0  0  0  0  0  0  0  0  0  0
  151.5854  141.4965  158.3862 C   0  0  0  0  0  0  0  0  0  0  0  0
  148.7028  136.8398  160.4961 C   0  0  0  0  0  0  0  0  0  0  0  0
  147.1908  135.5956  163.3247 H   0  0  0  0  0  0  0  0  0  0  0  0
  147.1001  137.2881  162.8259 H   0  0  0  0  0  0  0  0  0  0  0  0
  148.6555  136.5808  163.2817 H   0  0  0  0  0  0  0  0  0  0  0  0
  146.8500  134.1304  161.4636 H   0  0  0  0  0  0  0  0  0  0  0  0
  147.2557  133.5063  159.0970 H   0  0  0  0  0  0  0  0  0  0  0  0
  148.5785  134.9975  157.6225 H   0  0  0  0  0  0  0  0  0  0  0  0
  148.7548  139.1120  158.1136 H   0  0  0  0  0  0  0  0  0  0  0  0
  149.8138  138.8931  159.5139 H   0  0  0  0  0  0  0  0  0  0  0  0
  151.8089  138.9945  158.1451 H   0  0  0  0  0  0  0  0  0  0  0  0
  150.9167  138.8133  156.6602 H   0  0  0  0  0  0  0  0  0  0  0  0
  148.2717  140.4290  156.1946 H   0  0  0  0  0  0  0  0  0  0  0  0
  150.1787  139.2901  155.0991 H   0  0  0  0  0  0  0  0  0  0  0  0
  150.4750  140.7074  154.0947 H   0  0  0  0  0  0  0  0  0  0  0  0
  148.9787  139.7966  153.9176 H   0  0  0  0  0  0  0  0  0  0  0  0
  148.6273  143.0955  155.3695 H   0  0  0  0  0  0  0  0  0  0  0  0
  147.0801  143.0305  153.7602 H   0  0  0  0  0  0  0  0  0  0  0  0
  151.6381  144.9338  158.4517 H   0  0  0  0  0  0  0  0  0  0  0  0
  153.3349  144.4081  160.2110 H   0  0  0  0  0  0  0  0  0  0  0  0
  153.8945  142.0726  160.7769 H   0  0  0  0  0  0  0  0  0  0  0  0
  152.7866  140.1664  159.6174 H   0  0  0  0  0  0  0  0  0  0  0  0
  149.0888  137.7572  160.9139 H   0  0  0  0  0  0  0  0  0  0  0  0
  149.8756  143.5887  156.6084 H   0  0  0  0  0  0  0  0  0  0  0  0
  1  2  1  0  0  0  0
  1 25  1  0  0  0  0
  1 26  1  0  0  0  0
  1 27  1  0  0  0  0
  2 24  1  0  0  0  0
  2  3  2  0  0  0  0
  3  4  1  0  0  0  0
  3 28  1  0  0  0  0
  4  5  2  0  0  0  0
  4 29  1  0  0  0  0
  5  6  1  0  0  0  0
  5 30  1  0  0  0  0
  6  7  1  0  0  0  0
  6 24  2  0  0  0  0
  7  8  1  0  0  0  0
  8  9  1  0  0  0  0
  8 31  1  0  0  0  0
  8 32  1  0  0  0  0
  9 10  1  0  0  0  0
  9 33  1  0  0  0  0
  9 34  1  0  0  0  0
 10 23  1  0  0  0  0
 10 11  1  0  0  0  0
 11 12  1  0  0  0  0
 11 17  2  0  0  0  0
 12 13  1  0  0  0  0
 12 14  1  0  0  0  0
 12 35  1  0  0  0  0
 13 36  1  0  0  0  0
 13 37  1  0  0  0  0
 13 38  1  0  0  0  0
 14 15  1  0  0  0  0
 14 39  1  0  0  0  0
 15 16  2  0  0  0  0
 15 40  1  0  0  0  0
 17 18  1  0  0  0  0
 17 46  1  0  0  0  0
 18 23  2  0  0  0  0
 18 19  1  0  0  0  0
 19 20  2  0  0  0  0
 19 41  1  0  0  0  0
 20 21  1  0  0  0  0
 20 42  1  0  0  0  0
 21 22  2  0  0  0  0
 21 43  1  0  0  0  0
 22 23  1  0  0  0  0
 22 44  1  0  0  0  0
 24 45  1  0  0  0  0
M  CHG  1  17   1
M  END
> <s_m_source_file>
AV-unprocessed.smi

> <i_m_source_file_index>
2955

> <i_lp_mmshare_version>
43012

> <i_f3d_flags>
0

> <s_epik_input>
W0NIM11jMVtjSF1bY0hdW2NIXWMoW2NIXTEpT1tDSDJdW0NIMl1uKGMobjIpW0NASF0oW0NIM10pW05IXVtDSF09TyljKGMyMylbY0hdW2NIXVtjSF1bY0hdMw==

> <s_epik_cmdline>
J2VwaWtfcHl0aG9uJywgJy1waCcsICc3LjAnLCAnLXRuJywgJzgnLCAnLW1hJywgJzIwMCcsICctbWV0YWxfYmluZGluZycsICctaW1hZScsICc8aW5maWxlLm1hZT4nLCAnLW9tYWUnLCAnPG91dGZpbGUubWFlPic=

> <r_lp_tautomer_probability>
1

> <r_epik_Ionization_Penalty>
1.15027

> <r_epik_Ionization_Penalty_Charging>
1.15027

> <r_epik_Ionization_Penalty_Neutral>
5.5802e-08

> <r_epik_State_Penalty>
1.21159

> <r_epik_Charging_Adjusted_Penalty>
2.36186

> <i_epik_Tot_Q>
1

> <i_epik_Tot_abs_Q>
1

> <r_epik_Metal_State_Penalty>
1.29223

> <b_epik_Metal_Only>
0

> <s_lp_Force_Field>
OPLS_2005

> <r_lp_Energy>
18.7975

> <b_lp_Chiralities_Consistent>
1

> <s_lp_Variant>
AV-unprocessed.smi:2955-3

> <Gold.Version>
5.8.1

> <Gold.Id.Protein>
6NUR|6NUR_protein|mol2

> <Gold.PLP.Fitness>
55.6473

> <Gold.PLP.PLP>
-48.0218

> <Gold.PLP.part.hbond>
-2.0000

> <Gold.PLP.part.metal>
0.0000

> <Gold.PLP.part.buried>
-5.1844

> <Gold.PLP.part.nonpolar>
-42.0535

> <Gold.PLP.part.repulsive>
0.3417

> <Gold.PLP.ligand.clash>
0.0000

> <Gold.PLP.ligand.torsion>
0.7547

> <Gold.PLP.Chemscore.Hbond>
3.0000

> <Gold.PLP.Chemscore.CHOScore>
0.0000

> <Gold.PLP.Chemscore.Metal>
0.0000

> <Gold.Chemscore.Hbonds>
donor molecule, donor type, donor heavy atom, donor atom, acceptor molecule, acceptor atom, score
      L1  H    14    39       P1  8028  1.00
      L1  H    17    46       P1  8028  2.00

> <Gold.PLP.Chemscore.Internal.Correction>
0.1349

> <Gold.Rescore>
     Score         DG    S(hbond)    S(metal)    S(lipo)     H(rot)  DE(clash)    DE(int)     intcor
     18.77     -19.64       1.98        0.00     115.33       2.32       0.01       0.86       ----

> <Gold.Chemscore.Fitness>
18.7687

> <Gold.Chemscore.DG>
-19.6381

> <Gold.Chemscore.ZeroCoef>
-5.4800

> <Gold.Chemscore.Hbond>
1.9788

> <Gold.Chemscore.Metal>
0.0000

> <Gold.Chemscore.Lipo>
115.3334

> <Gold.Chemscore.Internal_Hbond>
0.0000

> <Gold.Chemscore.DEClash>
0.0060

> <Gold.Chemscore.DEInternal>
0.8634

> <Gold.Chemscore.Rot>
2.3223

> <Gold.Chemscore.Internal.Correction>
   9.000000E+99

> <Gold.Chemscore.Hbonds>
donor molecule, donor type, donor heavy atom, donor atom, acceptor molecule, acceptor atom, score
      L1  H    14    39       P1  8028  1.00
      L1  H    17    46       P1  8028  1.00

> <Gold.Chemscore.Hbond.Weighted>
-6.6091

> <Gold.Chemscore.Metal.Weighted>
-0.0000

> <Gold.Chemscore.Lipo.Weighted>
-13.4940

> <Gold.Chemscore.Internal_Hbond.Weighted>
0.0000

> <Gold.Chemscore.DEClash.Weighted>
0.0060

> <Gold.Chemscore.DEInternal.Weighted>
0.8634

> <Gold.Chemscore.Rot.Weighted>
5.9450

> <Gold.Chemscore.Internal.Correction.Weighted>
   9.000000E+99

> <Gold.Protein.RotatedTorsions>
[ 6907 6896 6895 6894 ] final  -53.42 input  -60.11 | X-H torsion
[ 7974 7965 7964 7962 ] final  -19.01 input  175.53 | X-H torsion
[ 8008 7997 7996 7995 ] final -104.30 input   59.86 | X-H torsion
[ 10167 10162 10161 10158 ] final  148.09 input  -65.29 | X-H torsion
[ 10718 10713 10712 10709 ] final -108.56 input   66.30 | X-H torsion
[ 10763 10752 10751 10750 ] final   93.32 input  -60.55 | X-H torsion
[ 11005 11000 10999 10996 ] final   72.42 input  -57.11 | X-H torsion

> <Gold.Protein.ActiveResidues>
 VAL166  LYS551  ARG553  GLY616  TRP617  ASP618  TYR619  PRO620  LYS621  CYS622 
 ASP623  PHE694  ASN695  SER759  ASP760  ASP761  ALA762  ILE779  LEU786  VAL792 
 PHE793  MET794  SER795  GLU796  ALA797  LYS798  CYS799  TRP800  GLU811  SER814 

> <Gold.Protein.RotatedAtoms>
  150.8428  134.7727  159.6946 H   0  0  0  0  0  0  0  0  0  0  0  0  # atno 6907 bound_to 6896
  152.4512  134.5386  159.9842 H   0  0  0  0  0  0  0  0  0  0  0  0  # atno 6908 bound_to 6896
  151.5523  133.3378  159.2991 H   0  0  0  0  0  0  0  0  0  0  0  0  # atno 6909 bound_to 6896
  146.1863  140.4002  142.8475 H   0  0  0  0  0  0  0  0  0  0  0  0  # atno 7974 bound_to 7965
  154.8833  140.0418  157.1795 H   0  0  0  0  0  0  0  0  0  0  0  0  # atno 8008 bound_to 7997
  154.8617  140.2945  155.5514 H   0  0  0  0  0  0  0  0  0  0  0  0  # atno 8009 bound_to 7997
  156.2998  140.2445  156.3592 H   0  0  0  0  0  0  0  0  0  0  0  0  # atno 8010 bound_to 7997
  139.4880  144.5706  151.7062 H   0  0  0  0  0  0  0  0  0  0  0  0  # atno 10167 bound_to 10162
  156.0492  130.5719  150.7979 H   0  0  0  0  0  0  0  0  0  0  0  0  # atno 10718 bound_to 10713
  153.2290  135.4329  155.0574 H   0  0  0  0  0  0  0  0  0  0  0  0  # atno 10763 bound_to 10752
  154.8287  135.3375  154.6815 H   0  0  0  0  0  0  0  0  0  0  0  0  # atno 10764 bound_to 10752
  153.7243  135.7015  153.5061 H   0  0  0  0  0  0  0  0  0  0  0  0  # atno 10765 bound_to 10752
  139.9492  134.7258  156.0905 H   0  0  0  0  0  0  0  0  0  0  0  0  # atno 11005 bound_to 11000
  144.8404  140.6848  143.6233 LP  0  0  0  0  0  0  0  0  0  0  0  0  # atno 17320 bound_to 7965
  145.3928  139.1613  143.4220 LP  0  0  0  0  0  0  0  0  0  0  0  0  # atno 17321 bound_to 7965
  140.5292  144.0757  150.6048 LP  0  0  0  0  0  0  0  0  0  0  0  0  # atno 17342 bound_to 10162
  140.3741  143.2838  152.0244 LP  0  0  0  0  0  0  0  0  0  0  0  0  # atno 17343 bound_to 10162
  157.5400  131.0940  150.9840 LP  0  0  0  0  0  0  0  0  0  0  0  0  # atno 17370 bound_to 10713
  157.0125  130.5642  149.5322 LP  0  0  0  0  0  0  0  0  0  0  0  0  # atno 17371 bound_to 10713
  141.1150  133.6630  156.3072 LP  0  0  0  0  0  0  0  0  0  0  0  0  # atno 17394 bound_to 11000
  140.5761  134.5792  157.5469 LP  0  0  0  0  0  0  0  0  0  0  0  0  # atno 17395 bound_to 11000

$$$$
