AV-unprocessed.smi:1648|AV-procd|sdf|6632|dock2
  -GOLD-   22720 7333D 1   1.00000     0.00000
 Structure written by MMmdl.
 41 41  0  0  0  0  0  0  0  0  1 V2000
  147.3043  127.5765  150.9404 C   0  0  0  0  0  0  0  0  0  0  0  0
  146.5509  128.6263  151.7594 C   0  0  0  0  0  0  0  0  0  0  0  0
  145.9813  128.2888  152.7945 O   0  0  0  0  0  0  0  0  0  0  0  0
  146.5262  129.9019  151.3344 N   0  0  0  0  0  0  0  0  0  0  0  0
  145.8655  131.0460  151.9712 C   0  0  1  0  0  0  0  0  0  0  0  0
  146.6092  131.3896  153.2778 C   0  0  0  0  0  0  0  0  0  0  0  0
  146.0179  131.3711  154.3582 O   0  0  0  0  0  0  0  0  0  0  0  0
  147.9099  131.7002  153.1554 N   0  0  0  0  0  0  0  0  0  0  0  0
  148.7980  132.1223  154.2373 C   0  0  2  0  0  0  0  0  0  0  0  0
  149.4910  133.4260  153.8182 C   0  0  0  0  0  0  0  0  0  0  0  0
  149.8322  131.0273  154.5795 C   0  0  0  0  0  0  0  0  0  0  0  0
  150.7277  131.4017  155.6598 N   0  0  0  0  0  0  0  0  0  0  0  0
  152.1033  131.2150  155.7134 C   0  0  0  0  0  0  0  0  0  0  0  0
  152.5218  131.7137  156.9261 C   0  0  0  0  0  0  0  0  0  0  0  0
  151.4250  132.1882  157.6412 N   0  0  0  0  0  0  0  0  0  0  0  0
  150.3985  131.9609  156.8324 C   0  0  0  0  0  0  0  0  0  0  0  0
  145.9122  132.2605  150.9967 C   0  0  0  0  0  0  0  0  0  0  0  0
  145.0647  133.4531  151.4848 C   0  0  0  0  0  0  0  0  0  0  0  0
  145.4610  131.8821  149.5714 C   0  0  0  0  0  0  0  0  0  0  0  0
  146.8833  127.4891  149.9387 H   0  0  0  0  0  0  0  0  0  0  0  0
  147.2350  126.5981  151.4169 H   0  0  0  0  0  0  0  0  0  0  0  0
  148.3603  127.8333  150.8573 H   0  0  0  0  0  0  0  0  0  0  0  0
  147.0309  130.1059  150.4840 H   0  0  0  0  0  0  0  0  0  0  0  0
  144.8240  130.8007  152.1857 H   0  0  0  0  0  0  0  0  0  0  0  0
  148.3100  131.6758  152.2286 H   0  0  0  0  0  0  0  0  0  0  0  0
  148.2078  132.3492  155.1273 H   0  0  0  0  0  0  0  0  0  0  0  0
  150.1353  133.8014  154.6137 H   0  0  0  0  0  0  0  0  0  0  0  0
  148.7612  134.2047  153.5932 H   0  0  0  0  0  0  0  0  0  0  0  0
  150.1085  133.2805  152.9310 H   0  0  0  0  0  0  0  0  0  0  0  0
  149.3302  130.0939  154.8391 H   0  0  0  0  0  0  0  0  0  0  0  0
  150.4508  130.8145  153.7069 H   0  0  0  0  0  0  0  0  0  0  0  0
  152.6567  130.7645  154.9030 H   0  0  0  0  0  0  0  0  0  0  0  0
  153.5188  131.7597  157.3387 H   0  0  0  0  0  0  0  0  0  0  0  0
  149.3821  132.2096  157.1005 H   0  0  0  0  0  0  0  0  0  0  0  0
  146.9455  132.6054  150.9224 H   0  0  0  0  0  0  0  0  0  0  0  0
  144.0189  133.1701  151.6081 H   0  0  0  0  0  0  0  0  0  0  0  0
  145.1020  134.2783  150.7731 H   0  0  0  0  0  0  0  0  0  0  0  0
  145.4160  133.8451  152.4373 H   0  0  0  0  0  0  0  0  0  0  0  0
  144.4455  131.4846  149.5719 H   0  0  0  0  0  0  0  0  0  0  0  0
  146.1117  131.1335  149.1195 H   0  0  0  0  0  0  0  0  0  0  0  0
  145.4756  132.7502  148.9118 H   0  0  0  0  0  0  0  0  0  0  0  0
  1  2  1  0  0  0  0
  1 20  1  0  0  0  0
  1 21  1  0  0  0  0
  1 22  1  0  0  0  0
  2  3  2  0  0  0  0
  2  4  1  0  0  0  0
  4  5  1  0  0  0  0
  4 23  1  0  0  0  0
  5  6  1  0  0  0  0
  5 17  1  0  0  0  0
  5 24  1  0  0  0  0
  6  7  2  0  0  0  0
  6  8  1  0  0  0  0
  8  9  1  0  0  0  0
  8 25  1  0  0  0  0
  9 10  1  0  0  0  0
  9 11  1  0  0  0  0
  9 26  1  0  0  0  0
 10 27  1  0  0  0  0
 10 28  1  0  0  0  0
 10 29  1  0  0  0  0
 11 12  1  0  0  0  0
 11 30  1  0  0  0  0
 11 31  1  0  0  0  0
 12 16  1  0  0  0  0
 12 13  1  0  0  0  0
 13 14  2  0  0  0  0
 13 32  1  0  0  0  0
 14 15  1  0  0  0  0
 14 33  1  0  0  0  0
 15 16  2  0  0  0  0
 16 34  1  0  0  0  0
 17 18  1  0  0  0  0
 17 19  1  0  0  0  0
 17 35  1  0  0  0  0
 18 36  1  0  0  0  0
 18 37  1  0  0  0  0
 18 38  1  0  0  0  0
 19 39  1  0  0  0  0
 19 40  1  0  0  0  0
 19 41  1  0  0  0  0
M  END
> <s_m_source_file>
AV-unprocessed.smi

> <i_m_source_file_index>
1648

> <i_lp_mmshare_version>
43012

> <i_f3d_flags>
0

> <s_epik_input>
W0NIM11DKD1PKVtOSF1bQ0BASF0oW0NIXShbQ0gzXSlbQ0gzXSlDKD1PKVtOSF1bQ0BIXShbQ0gzXSlbQ0gyXW4xW2NIXVtjSF1uW2NIXTE=

> <s_epik_cmdline>
J2VwaWtfcHl0aG9uJywgJy1waCcsICc3LjAnLCAnLXRuJywgJzgnLCAnLW1hJywgJzIwMCcsICctbWV0YWxfYmluZGluZycsICctaW1hZScsICc8aW5maWxlLm1hZT4nLCAnLW9tYWUnLCAnPG91dGZpbGUubWFlPic=

> <r_lp_tautomer_probability>
1

> <r_epik_Ionization_Penalty>
0.628885

> <r_epik_Ionization_Penalty_Charging>
0.628884

> <r_epik_Ionization_Penalty_Neutral>
4.35155e-07

> <r_epik_State_Penalty>
0.64556

> <r_epik_Charging_Adjusted_Penalty>
1.27444

> <i_epik_Tot_Q>
0

> <i_epik_Tot_abs_Q>
0

> <r_epik_Metal_State_Penalty>
0.30874

> <b_epik_Metal_Only>
0

> <s_lp_Force_Field>
OPLS_2005

> <r_lp_Energy>
9.77282

> <b_lp_Chiralities_Consistent>
1

> <s_lp_Variant>
AV-unprocessed.smi:1648-6

> <Gold.Version>
5.8.1

> <Gold.Id.Protein>
6NUR|6NUR_protein|mol2

> <Gold.PLP.Fitness>
42.7117

> <Gold.PLP.PLP>
-36.1022

> <Gold.PLP.part.hbond>
-2.8260

> <Gold.PLP.part.metal>
0.0000

> <Gold.PLP.part.buried>
-4.6193

> <Gold.PLP.part.nonpolar>
-28.9982

> <Gold.PLP.part.repulsive>
0.3527

> <Gold.PLP.ligand.clash>
0.0000

> <Gold.PLP.ligand.torsion>
0.4716

> <Gold.PLP.Chemscore.Hbond>
2.4945

> <Gold.PLP.Chemscore.CHOScore>
0.0000

> <Gold.PLP.Chemscore.Metal>
0.0000

> <Gold.Chemscore.Hbonds>
donor molecule, donor type, donor heavy atom, donor atom, acceptor molecule, acceptor atom, score
      L1  H     4    23       P1 10747  0.51
      L1  H     8    25       P1 10747  0.55
      P1  H  6896  6908       L1    15  0.95

> <Gold.PLP.Chemscore.Internal.Correction>
0.0693

> <Gold.Rescore>
     Score         DG    S(hbond)    S(metal)    S(lipo)     H(rot)  DE(clash)    DE(int)     intcor
     14.98     -15.63       2.47        0.00      71.39       2.52       0.12       0.54       ----

> <Gold.Chemscore.Fitness>
14.9753

> <Gold.Chemscore.DG>
-15.6347

> <Gold.Chemscore.ZeroCoef>
-5.4800

> <Gold.Chemscore.Hbond>
2.4722

> <Gold.Chemscore.Metal>
0.0000

> <Gold.Chemscore.Lipo>
71.3923

> <Gold.Chemscore.Internal_Hbond>
0.0000

> <Gold.Chemscore.DEClash>
0.1187

> <Gold.Chemscore.DEInternal>
0.5407

> <Gold.Chemscore.Rot>
2.5216

> <Gold.Chemscore.Internal.Correction>
   9.000000E+99

> <Gold.Chemscore.Hbonds>
donor molecule, donor type, donor heavy atom, donor atom, acceptor molecule, acceptor atom, score
      L1  H     4    23       P1 10747  0.51
      L1  H     8    25       P1 10747  0.56
      P1  H  6896  6908       L1    15  0.80

> <Gold.Chemscore.Hbond.Weighted>
-8.2571

> <Gold.Chemscore.Metal.Weighted>
-0.0000

> <Gold.Chemscore.Lipo.Weighted>
-8.3529

> <Gold.Chemscore.Internal_Hbond.Weighted>
0.0000

> <Gold.Chemscore.DEClash.Weighted>
0.1187

> <Gold.Chemscore.DEInternal.Weighted>
0.5407

> <Gold.Chemscore.Rot.Weighted>
6.4553

> <Gold.Chemscore.Internal.Correction.Weighted>
   9.000000E+99

> <Gold.Protein.RotatedTorsions>
[ 6907 6896 6895 6894 ] final   49.93 input  -60.11 | X-H torsion
[ 7974 7965 7964 7962 ] final  157.53 input  175.53 | X-H torsion
[ 8008 7997 7996 7995 ] final  172.13 input   59.86 | X-H torsion
[ 10167 10162 10161 10158 ] final -171.86 input  -65.29 | X-H torsion
[ 10718 10713 10712 10709 ] final  -84.93 input   66.30 | X-H torsion
[ 10763 10752 10751 10750 ] final   61.78 input  -60.55 | X-H torsion
[ 11005 11000 10999 10996 ] final -126.29 input  -57.11 | X-H torsion

> <Gold.Protein.ActiveResidues>
 VAL166  LYS551  ARG553  GLY616  TRP617  ASP618  TYR619  PRO620  LYS621  CYS622 
 ASP623  PHE694  ASN695  SER759  ASP760  ASP761  ALA762  ILE779  LEU786  VAL792 
 PHE793  MET794  SER795  GLU796  ALA797  LYS798  CYS799  TRP800  GLU811  SER814 

> <Gold.Protein.RotatedAtoms>
  152.2962  134.7664  160.0367 H   0  0  0  0  0  0  0  0  0  0  0  0  # atno 6907 bound_to 6896
  151.8193  133.3387  159.3587 H   0  0  0  0  0  0  0  0  0  0  0  0  # atno 6908 bound_to 6896
  150.7252  134.5518  159.5843 H   0  0  0  0  0  0  0  0  0  0  0  0  # atno 6909 bound_to 6896
  144.7898  139.7354  143.6226 H   0  0  0  0  0  0  0  0  0  0  0  0  # atno 7974 bound_to 7965
  156.1204  140.1494  156.9212 H   0  0  0  0  0  0  0  0  0  0  0  0  # atno 8008 bound_to 7997
  154.4831  140.0873  156.7467 H   0  0  0  0  0  0  0  0  0  0  0  0  # atno 8009 bound_to 7997
  155.4438  140.3432  155.4295 H   0  0  0  0  0  0  0  0  0  0  0  0  # atno 8010 bound_to 7997
  139.5778  144.1493  152.1474 H   0  0  0  0  0  0  0  0  0  0  0  0  # atno 10167 bound_to 10162
  156.0001  130.4714  150.4485 H   0  0  0  0  0  0  0  0  0  0  0  0  # atno 10718 bound_to 10713
  152.9961  135.5488  154.6089 H   0  0  0  0  0  0  0  0  0  0  0  0  # atno 10763 bound_to 10752
  154.5414  135.2820  155.1094 H   0  0  0  0  0  0  0  0  0  0  0  0  # atno 10764 bound_to 10752
  154.2370  135.6423  153.5247 H   0  0  0  0  0  0  0  0  0  0  0  0  # atno 10765 bound_to 10752
  140.9693  134.0828  157.3886 H   0  0  0  0  0  0  0  0  0  0  0  0  # atno 11005 bound_to 11000
  146.2145  139.5524  142.9659 LP  0  0  0  0  0  0  0  0  0  0  0  0  # atno 17320 bound_to 7965
  145.5825  141.0380  143.2114 LP  0  0  0  0  0  0  0  0  0  0  0  0  # atno 17321 bound_to 7965
  140.1040  144.5515  150.6970 LP  0  0  0  0  0  0  0  0  0  0  0  0  # atno 17342 bound_to 10162
  140.7059  143.2467  151.4728 LP  0  0  0  0  0  0  0  0  0  0  0  0  # atno 17343 bound_to 10162
  157.2520  131.0548  151.2373 LP  0  0  0  0  0  0  0  0  0  0  0  0  # atno 17370 bound_to 10713
  157.3519  130.7086  149.6446 LP  0  0  0  0  0  0  0  0  0  0  0  0  # atno 17371 bound_to 10713
  139.8906  135.0113  156.6746 LP  0  0  0  0  0  0  0  0  0  0  0  0  # atno 17394 bound_to 11000
  140.7353  133.9024  155.8239 LP  0  0  0  0  0  0  0  0  0  0  0  0  # atno 17395 bound_to 11000

$$$$
