AV-unprocessed.smi:3156|AV-procd|sdf|12029|dock9
  -GOLD-   2272017443D 1   1.00000     0.00000
 Structure written by MMmdl.
 41 42  0  0  0  0  0  0  0  0  2 V2000
  151.6827  144.6336  157.6944 C   0  0  0  0  0  0  0  0  0  0  0  0
  151.9047  143.2607  158.3590 C   0  0  2  0  0  0  0  0  0  0  0  0
  150.8627  142.3039  157.9149 N   0  3  0  0  0  0  0  0  0  0  0  0
  150.6801  142.1894  156.4527 C   0  0  0  0  0  0  0  0  0  0  0  0
  150.2193  140.7768  156.0689 C   0  0  2  0  0  0  0  0  0  0  0  0
  151.3447  139.7387  156.2444 C   0  0  0  0  0  0  0  0  0  0  0  0
  150.8804  138.3556  155.7740 C   0  0  0  0  0  0  0  0  0  0  0  0
  150.3342  138.4526  154.3459 C   0  0  0  0  0  0  0  0  0  0  0  0
  149.2703  139.5578  154.2546 C   0  0  0  0  0  0  0  0  0  0  0  0
  149.8166  140.7960  154.7006 O   0  0  0  0  0  0  0  0  0  0  0  0
  151.9136  143.3513  159.9109 C   0  0  2  0  0  0  0  0  0  0  0  0
  152.4580  144.6924  160.4375 C   0  0  0  0  0  0  0  0  0  0  0  0
  152.6607  142.2554  160.5205 N   0  0  0  0  0  0  0  0  0  0  0  0
  152.8865  142.0234  161.8619 C   0  0  0  0  0  0  0  0  0  0  0  0
  153.6498  140.8958  161.9598 C   0  0  0  0  0  0  0  0  0  0  0  0
  153.8575  140.5095  160.6066 C   0  0  0  0  0  0  0  0  0  0  0  0
  153.2705  141.3273  159.7481 N   0  0  0  0  0  0  0  0  0  0  0  0
  152.4719  145.3388  157.9526 H   0  0  0  0  0  0  0  0  0  0  0  0
  150.7315  145.0721  157.9974 H   0  0  0  0  0  0  0  0  0  0  0  0
  151.6822  144.5613  156.6073 H   0  0  0  0  0  0  0  0  0  0  0  0
  152.8736  142.8762  158.0365 H   0  0  0  0  0  0  0  0  0  0  0  0
  151.1406  141.3913  158.2482 H   0  0  0  0  0  0  0  0  0  0  0  0
  149.9597  142.9277  156.1009 H   0  0  0  0  0  0  0  0  0  0  0  0
  151.6301  142.4049  155.9618 H   0  0  0  0  0  0  0  0  0  0  0  0
  149.3688  140.4982  156.6945 H   0  0  0  0  0  0  0  0  0  0  0  0
  152.2202  140.0435  155.6692 H   0  0  0  0  0  0  0  0  0  0  0  0
  151.6579  139.6907  157.2878 H   0  0  0  0  0  0  0  0  0  0  0  0
  151.7030  137.6413  155.8194 H   0  0  0  0  0  0  0  0  0  0  0  0
  150.1024  137.9824  156.4411 H   0  0  0  0  0  0  0  0  0  0  0  0
  151.1494  138.6743  153.6561 H   0  0  0  0  0  0  0  0  0  0  0  0
  149.9134  137.4955  154.0365 H   0  0  0  0  0  0  0  0  0  0  0  0
  148.9357  139.6715  153.2235 H   0  0  0  0  0  0  0  0  0  0  0  0
  148.3909  139.3011  154.8474 H   0  0  0  0  0  0  0  0  0  0  0  0
  150.8834  143.2561  160.2577 H   0  0  0  0  0  0  0  0  0  0  0  0
  151.8259  145.5305  160.1466 H   0  0  0  0  0  0  0  0  0  0  0  0
  153.4649  144.8874  160.0666 H   0  0  0  0  0  0  0  0  0  0  0  0
  152.5022  144.6940  161.5271 H   0  0  0  0  0  0  0  0  0  0  0  0
  152.4883  142.6721  162.6285 H   0  0  0  0  0  0  0  0  0  0  0  0
  154.0107  140.4221  162.8610 H   0  0  0  0  0  0  0  0  0  0  0  0
  154.4151  139.6666  160.2254 H   0  0  0  0  0  0  0  0  0  0  0  0
  149.9812  142.5450  158.3450 H   0  0  0  0  0  0  0  0  0  0  0  0
  1  2  1  0  0  0  0
  1 18  1  0  0  0  0
  1 19  1  0  0  0  0
  1 20  1  0  0  0  0
  2  3  1  0  0  0  0
  2 11  1  0  0  0  0
  2 21  1  0  0  0  0
  3  4  1  0  0  0  0
  3 22  1  0  0  0  0
  3 41  1  0  0  0  0
  4  5  1  0  0  0  0
  4 23  1  0  0  0  0
  4 24  1  0  0  0  0
  5 10  1  0  0  0  0
  5  6  1  0  0  0  0
  5 25  1  0  0  0  0
  6  7  1  0  0  0  0
  6 26  1  0  0  0  0
  6 27  1  0  0  0  0
  7  8  1  0  0  0  0
  7 28  1  0  0  0  0
  7 29  1  0  0  0  0
  8  9  1  0  0  0  0
  8 30  1  0  0  0  0
  8 31  1  0  0  0  0
  9 10  1  0  0  0  0
  9 32  1  0  0  0  0
  9 33  1  0  0  0  0
 11 12  1  0  0  0  0
 11 13  1  0  0  0  0
 11 34  1  0  0  0  0
 12 35  1  0  0  0  0
 12 36  1  0  0  0  0
 12 37  1  0  0  0  0
 13 17  1  0  0  0  0
 13 14  1  0  0  0  0
 14 15  2  0  0  0  0
 14 38  1  0  0  0  0
 15 16  1  0  0  0  0
 15 39  1  0  0  0  0
 16 17  2  0  0  0  0
 16 40  1  0  0  0  0
M  CHG  1   3   1
M  END
> <s_m_source_file>
AV-unprocessed.smi

> <i_m_source_file_index>
3156

> <i_lp_mmshare_version>
43012

> <i_f3d_flags>
0

> <s_epik_input>
bjFbY0hdW2NIXVtjSF1uMVtDQEBIXShbQ0gzXSlbQ0BIXShbQ0gzXSlbTkhdW0NIMl1bQ0BASF0yW0NIMl1bQ0gyXVtDSDJdW0NIMl1PMg==

> <s_epik_cmdline>
J2VwaWtfcHl0aG9uJywgJy1waCcsICc3LjAnLCAnLXRuJywgJzgnLCAnLW1hJywgJzIwMCcsICctbWV0YWxfYmluZGluZycsICctaW1hZScsICc8aW5maWxlLm1hZT4nLCAnLW9tYWUnLCAnPG91dGZpbGUubWFlPic=

> <r_lp_tautomer_probability>
1

> <r_epik_Ionization_Penalty>
0.00658015

> <r_epik_Ionization_Penalty_Charging>
0.00656881

> <r_epik_Ionization_Penalty_Neutral>
1.13431e-05

> <r_epik_State_Penalty>
0.0048654

> <r_epik_Charging_Adjusted_Penalty>
0.0114342

> <i_epik_Tot_Q>
1

> <i_epik_Tot_abs_Q>
1

> <r_epik_Metal_State_Penalty>
-0

> <b_epik_Metal_Only>
0

> <s_lp_Force_Field>
OPLS_2005

> <r_lp_Energy>
17.2589

> <b_lp_Chiralities_Consistent>
1

> <s_lp_Variant>
AV-unprocessed.smi:3156-1

> <Gold.Version>
5.8.1

> <Gold.Id.Protein>
6NUR|6NUR_protein|mol2

> <Gold.PLP.Fitness>
46.5286

> <Gold.PLP.PLP>
-45.1839

> <Gold.PLP.part.hbond>
-1.0000

> <Gold.PLP.part.metal>
0.0000

> <Gold.PLP.part.buried>
-4.6328

> <Gold.PLP.part.nonpolar>
-39.4130

> <Gold.PLP.part.repulsive>
0.1361

> <Gold.PLP.ligand.clash>
0.0000

> <Gold.PLP.ligand.torsion>
0.8727

> <Gold.PLP.Chemscore.Hbond>
1.0000

> <Gold.PLP.Chemscore.CHOScore>
0.0000

> <Gold.PLP.Chemscore.Metal>
0.0000

> <Gold.Chemscore.Hbonds>
donor molecule, donor type, donor heavy atom, donor atom, acceptor molecule, acceptor atom, score
      P1  H  7989  7998       L1    10  0.48

> <Gold.PLP.Chemscore.Internal.Correction>
0.0902

> <Gold.Rescore>
     Score         DG    S(hbond)    S(metal)    S(lipo)     H(rot)  DE(clash)    DE(int)     intcor
     17.85     -18.82       0.94        0.00     122.05       1.59       0.13       0.83       ----

> <Gold.Chemscore.Fitness>
17.8498

> <Gold.Chemscore.DG>
-18.8175

> <Gold.Chemscore.ZeroCoef>
-5.4800

> <Gold.Chemscore.Hbond>
0.9394

> <Gold.Chemscore.Metal>
0.0000

> <Gold.Chemscore.Lipo>
122.0526

> <Gold.Chemscore.Internal_Hbond>
0.0000

> <Gold.Chemscore.DEClash>
0.1337

> <Gold.Chemscore.DEInternal>
0.8341

> <Gold.Chemscore.Rot>
1.5938

> <Gold.Chemscore.Internal.Correction>
   9.000000E+99

> <Gold.Chemscore.Hbonds>
donor molecule, donor type, donor heavy atom, donor atom, acceptor molecule, acceptor atom, score
      P1  H  7989  7998       L1    10  0.09

> <Gold.Chemscore.Hbond.Weighted>
-3.1376

> <Gold.Chemscore.Metal.Weighted>
-0.0000

> <Gold.Chemscore.Lipo.Weighted>
-14.2801

> <Gold.Chemscore.Internal_Hbond.Weighted>
0.0000

> <Gold.Chemscore.DEClash.Weighted>
0.1337

> <Gold.Chemscore.DEInternal.Weighted>
0.8341

> <Gold.Chemscore.Rot.Weighted>
4.0802

> <Gold.Chemscore.Internal.Correction.Weighted>
   9.000000E+99

> <Gold.Protein.RotatedTorsions>
[ 6907 6896 6895 6894 ] final   16.25 input  -60.11 | X-H torsion
[ 7974 7965 7964 7962 ] final  174.10 input  175.53 | X-H torsion
[ 8008 7997 7996 7995 ] final   51.02 input   59.86 | X-H torsion
[ 10167 10162 10161 10158 ] final  168.40 input  -65.29 | X-H torsion
[ 10718 10713 10712 10709 ] final   31.46 input   66.30 | X-H torsion
[ 10763 10752 10751 10750 ] final    2.52 input  -60.55 | X-H torsion
[ 11005 11000 10999 10996 ] final  107.32 input  -57.11 | X-H torsion

> <Gold.Protein.ActiveResidues>
 VAL166  LYS551  ARG553  GLY616  TRP617  ASP618  TYR619  PRO620  LYS621  CYS622 
 ASP623  PHE694  ASN695  SER759  ASP760  ASP761  ALA762  ILE779  LEU786  VAL792 
 PHE793  MET794  SER795  GLU796  ALA797  LYS798  CYS799  TRP800  GLU811  SER814 

> <Gold.Protein.RotatedAtoms>
  151.8309  135.0622  160.0436 H   0  0  0  0  0  0  0  0  0  0  0  0  # atno 6907 bound_to 6896
  152.2881  133.5530  159.5548 H   0  0  0  0  0  0  0  0  0  0  0  0  # atno 6908 bound_to 6896
  150.7218  134.0384  159.3799 H   0  0  0  0  0  0  0  0  0  0  0  0  # atno 6909 bound_to 6896
  144.7229  139.9747  143.6437 H   0  0  0  0  0  0  0  0  0  0  0  0  # atno 7974 bound_to 7965
  155.4284  140.3449  155.4278 H   0  0  0  0  0  0  0  0  0  0  0  0  # atno 8008 bound_to 7997
  156.1351  140.1525  156.9037 H   0  0  0  0  0  0  0  0  0  0  0  0  # atno 8009 bound_to 7997
  154.4925  140.0837  156.7606 H   0  0  0  0  0  0  0  0  0  0  0  0  # atno 8010 bound_to 7997
  139.4967  144.3818  151.9614 H   0  0  0  0  0  0  0  0  0  0  0  0  # atno 10167 bound_to 10162
  157.2728  130.7216  149.6513 H   0  0  0  0  0  0  0  0  0  0  0  0  # atno 10718 bound_to 10713
  153.2946  135.6951  153.7260 H   0  0  0  0  0  0  0  0  0  0  0  0  # atno 10763 bound_to 10752
  153.6198  135.3429  155.3008 H   0  0  0  0  0  0  0  0  0  0  0  0  # atno 10764 bound_to 10752
  154.8534  135.4383  154.2039 H   0  0  0  0  0  0  0  0  0  0  0  0  # atno 10765 bound_to 10752
  139.8826  134.9397  156.5801 H   0  0  0  0  0  0  0  0  0  0  0  0  # atno 11005 bound_to 11000
  146.0535  139.3534  143.0625 LP  0  0  0  0  0  0  0  0  0  0  0  0  # atno 17320 bound_to 7965
  145.8184  140.9691  143.0911 LP  0  0  0  0  0  0  0  0  0  0  0  0  # atno 17321 bound_to 7965
  140.3255  144.3378  150.5999 LP  0  0  0  0  0  0  0  0  0  0  0  0  # atno 17342 bound_to 10162
  140.5688  143.2183  151.7636 LP  0  0  0  0  0  0  0  0  0  0  0  0  # atno 17343 bound_to 10162
  155.9663  130.4362  150.5125 LP  0  0  0  0  0  0  0  0  0  0  0  0  # atno 17370 bound_to 10713
  157.3053  131.0653  151.2040 LP  0  0  0  0  0  0  0  0  0  0  0  0  # atno 17371 bound_to 10713
  140.8034  133.8487  155.8746 LP  0  0  0  0  0  0  0  0  0  0  0  0  # atno 17394 bound_to 11000
  140.9572  134.1702  157.4682 LP  0  0  0  0  0  0  0  0  0  0  0  0  # atno 17395 bound_to 11000

$$$$
