AV-unprocessed.smi:34|AV-procd|sdf|218|dock7
  -GOLD-   2262015533D 1   1.00000     0.00000
 Structure written by MMmdl.
 55 59  0  0  0  0  0  0  0  0  1 V2000
  152.5598  140.3383  159.6425 O   0  0  0  0  0  0  0  0  0  0  0  0
  152.2707  141.2003  158.8121 C   0  0  0  0  0  0  0  0  0  0  0  0
  152.1287  140.8980  157.3988 N   0  0  0  0  0  0  0  0  0  0  0  0
  152.2152  139.6932  156.7878 C   0  0  0  0  0  0  0  0  0  0  0  0
  152.9464  139.4987  155.6592 N   0  0  0  0  0  0  0  0  0  0  0  0
  152.9994  138.2899  155.0930 C   0  0  0  0  0  0  0  0  0  0  0  0
  152.4084  137.1600  155.4853 N   0  0  0  0  0  0  0  0  0  0  0  0
  151.6732  137.3433  156.6202 C   0  0  0  0  0  0  0  0  0  0  0  0
  151.5317  138.5715  157.3255 C   0  0  0  0  0  0  0  0  0  0  0  0
  150.7168  138.3868  158.4342 N   0  0  0  0  0  0  0  0  0  0  0  0
  150.3959  137.1225  158.3828 C   0  0  0  0  0  0  0  0  0  0  0  0
  150.9275  136.4174  157.3258 N   0  0  0  0  0  0  0  0  0  0  0  0
  150.7295  134.9608  157.0245 C   0  0  1  0  0  0  0  0  0  0  0  0
  149.7521  134.4316  157.8756 O   0  0  0  0  0  0  0  0  0  0  0  0
  148.6506  133.9436  157.1122 C   0  0  2  0  0  0  0  0  0  0  0  0
  147.9702  132.7816  157.8441 C   0  0  0  0  0  0  0  0  0  0  0  0
  147.5098  133.2293  159.1085 O   0  0  0  0  0  0  0  0  0  0  0  0
  146.5729  134.1941  159.1847 C   0  0  0  0  0  0  0  0  0  0  0  0
  145.7045  134.3707  158.3278 O   0  0  0  0  0  0  0  0  0  0  0  0
  146.6950  135.0243  160.4179 C   0  0  0  0  0  0  0  0  0  0  0  0
  145.9266  136.2061  160.5374 C   0  0  0  0  0  0  0  0  0  0  0  0
  146.0180  137.0075  161.6921 C   0  0  0  0  0  0  0  0  0  0  0  0
  146.8795  136.6377  162.7412 C   0  0  0  0  0  0  0  0  0  0  0  0
  147.6506  135.4657  162.6337 C   0  0  0  0  0  0  0  0  0  0  0  0
  147.5605  134.6626  161.4799 C   0  0  0  0  0  0  0  0  0  0  0  0
  149.2934  133.5664  155.7809 C   0  0  1  0  0  0  0  0  0  0  0  0
  148.4284  133.4290  154.7742 F   0  0  0  0  0  0  0  0  0  0  0  0
  150.2823  134.6985  155.5713 C   0  0  1  0  0  0  0  0  0  0  0  0
  149.6735  135.8201  154.9524 O   0  0  0  0  0  0  0  0  0  0  0  0
  152.1319  142.6457  159.1903 C   0  0  0  0  0  0  0  0  0  0  0  0
  152.1949  143.0303  160.5485 C   0  0  0  0  0  0  0  0  0  0  0  0
  152.0570  144.3838  160.9130 C   0  0  0  0  0  0  0  0  0  0  0  0
  151.8453  145.3623  159.9235 C   0  0  0  0  0  0  0  0  0  0  0  0
  151.7669  144.9860  158.5693 C   0  0  0  0  0  0  0  0  0  0  0  0
  151.9054  143.6329  158.2035 C   0  0  0  0  0  0  0  0  0  0  0  0
  151.9425  141.6862  156.7962 H   0  0  0  0  0  0  0  0  0  0  0  0
  153.6008  138.2183  154.1990 H   0  0  0  0  0  0  0  0  0  0  0  0
  149.7576  136.6641  159.1241 H   0  0  0  0  0  0  0  0  0  0  0  0
  151.6886  134.4987  157.2616 H   0  0  0  0  0  0  0  0  0  0  0  0
  147.9417  134.7594  156.9657 H   0  0  0  0  0  0  0  0  0  0  0  0
  147.1432  132.3864  157.2524 H   0  0  0  0  0  0  0  0  0  0  0  0
  148.6852  131.9713  157.9921 H   0  0  0  0  0  0  0  0  0  0  0  0
  145.2575  136.5101  159.7454 H   0  0  0  0  0  0  0  0  0  0  0  0
  145.4254  137.9068  161.7724 H   0  0  0  0  0  0  0  0  0  0  0  0
  146.9488  137.2521  163.6268 H   0  0  0  0  0  0  0  0  0  0  0  0
  148.3135  135.1807  163.4373 H   0  0  0  0  0  0  0  0  0  0  0  0
  148.1671  133.7701  161.4297 H   0  0  0  0  0  0  0  0  0  0  0  0
  149.8281  132.6205  155.8772 H   0  0  0  0  0  0  0  0  0  0  0  0
  151.1382  134.3890  154.9708 H   0  0  0  0  0  0  0  0  0  0  0  0
  149.6710  135.6822  154.0174 H   0  0  0  0  0  0  0  0  0  0  0  0
  152.3576  142.2908  161.3194 H   0  0  0  0  0  0  0  0  0  0  0  0
  152.1133  144.6709  161.9526 H   0  0  0  0  0  0  0  0  0  0  0  0
  151.7399  146.4002  160.2032 H   0  0  0  0  0  0  0  0  0  0  0  0
  151.5981  145.7356  157.8103 H   0  0  0  0  0  0  0  0  0  0  0  0
  151.8331  143.3634  157.1596 H   0  0  0  0  0  0  0  0  0  0  0  0
  1  2  2  0  0  0  0
  2  3  1  0  0  0  0
  2 30  1  0  0  0  0
  3  4  1  0  0  0  0
  3 36  1  0  0  0  0
  4  9  1  0  0  0  0
  4  5  2  0  0  0  0
  5  6  1  0  0  0  0
  6  7  2  0  0  0  0
  6 37  1  0  0  0  0
  7  8  1  0  0  0  0
  8 12  1  0  0  0  0
  8  9  2  0  0  0  0
  9 10  1  0  0  0  0
 10 11  2  0  0  0  0
 11 12  1  0  0  0  0
 11 38  1  0  0  0  0
 12 13  1  0  0  0  0
 13 28  1  0  0  0  0
 13 14  1  0  0  0  0
 13 39  1  0  0  0  0
 14 15  1  0  0  0  0
 15 16  1  0  0  0  0
 15 26  1  0  0  0  0
 15 40  1  0  0  0  0
 16 17  1  0  0  0  0
 16 41  1  0  0  0  0
 16 42  1  0  0  0  0
 17 18  1  0  0  0  0
 18 19  2  0  0  0  0
 18 20  1  0  0  0  0
 20 25  1  0  0  0  0
 20 21  2  0  0  0  0
 21 22  1  0  0  0  0
 21 43  1  0  0  0  0
 22 23  2  0  0  0  0
 22 44  1  0  0  0  0
 23 24  1  0  0  0  0
 23 45  1  0  0  0  0
 24 25  2  0  0  0  0
 24 46  1  0  0  0  0
 25 47  1  0  0  0  0
 26 27  1  0  0  0  0
 26 28  1  0  0  0  0
 26 48  1  0  0  0  0
 28 29  1  0  0  0  0
 28 49  1  0  0  0  0
 29 50  1  0  0  0  0
 30 35  1  0  0  0  0
 30 31  2  0  0  0  0
 31 32  1  0  0  0  0
 31 51  1  0  0  0  0
 32 33  2  0  0  0  0
 32 52  1  0  0  0  0
 33 34  1  0  0  0  0
 33 53  1  0  0  0  0
 34 35  2  0  0  0  0
 34 54  1  0  0  0  0
 35 55  1  0  0  0  0
M  END
> <s_m_source_file>
AV-unprocessed.smi

> <i_m_source_file_index>
34

> <i_lp_mmshare_version>
43012

> <i_f3d_flags>
0

> <s_epik_input>
W2NIXTFbY0hdW2NIXVtjSF1bY0hdYzFDKD1PKVtOSF1jKG5bY0hdbjIpYyhjMjMpbltjSF1uM1tDQEBIXTRPW0NASF0oW0NAQEhdKEYpW0NASF00W09IXSlbQ0gyXU9DKD1PKWM1W2NIXVtjSF1bY0hdW2NIXVtjSF01

> <s_epik_cmdline>
J2VwaWtfcHl0aG9uJywgJy1waCcsICc3LjAnLCAnLXRuJywgJzgnLCAnLW1hJywgJzIwMCcsICctbWV0YWxfYmluZGluZycsICctaW1hZScsICc8aW5maWxlLm1hZT4nLCAnLW9tYWUnLCAnPG91dGZpbGUubWFlPic=

> <r_lp_tautomer_probability>
1

> <r_epik_Ionization_Penalty>
0.00257489

> <r_epik_Ionization_Penalty_Charging>
0

> <r_epik_Ionization_Penalty_Neutral>
0.00257489

> <r_epik_State_Penalty>
0.00519398

> <r_epik_Charging_Adjusted_Penalty>
0.00519398

> <i_epik_Tot_Q>
0

> <i_epik_Tot_abs_Q>
0

> <r_epik_Metal_State_Penalty>
0.335891

> <b_epik_Metal_Only>
0

> <s_epik_Chemistry_Notes>
This compound has an ester and may undergo hydrolysis at high or low pH. This compound contains an acetal/aminal-like group ( X-CH(R)-Y where X, Y are N, S, or O) that may be acid/base labile, releasing an aldehyde.

> <s_lp_Force_Field>
OPLS_2005

> <r_lp_Energy>
55.7216

> <b_lp_Chiralities_Consistent>
1

> <s_lp_Variant>
AV-unprocessed.smi:34-4

> <Gold.Version>
5.8.1

> <Gold.Id.Protein>
6NUR|6NUR_protein|mol2

> <Gold.PLP.Fitness>
66.4922

> <Gold.PLP.PLP>
-56.8483

> <Gold.PLP.part.hbond>
-4.0643

> <Gold.PLP.part.metal>
0.0000

> <Gold.PLP.part.buried>
-8.0306

> <Gold.PLP.part.nonpolar>
-45.8811

> <Gold.PLP.part.repulsive>
0.1672

> <Gold.PLP.ligand.clash>
0.0000

> <Gold.PLP.ligand.torsion>
0.9863

> <Gold.PLP.Chemscore.Hbond>
3.7913

> <Gold.PLP.Chemscore.CHOScore>
0.0000

> <Gold.PLP.Chemscore.Metal>
0.0000

> <Gold.Chemscore.Hbonds>
donor molecule, donor type, donor heavy atom, donor atom, acceptor molecule, acceptor atom, score
      L1  H    29    50       P1  7948  0.32
      P1  H  6896  6908       L1    14  1.00
      P1  H  7997  8010       L1     5  1.00
      P1  H 10752 10764       L1     7  0.74

> <Gold.PLP.Chemscore.Internal.Correction>
0.2428

> <Gold.Rescore>
     Score         DG    S(hbond)    S(metal)    S(lipo)     H(rot)  DE(clash)    DE(int)     intcor
     21.38     -22.37       2.64        0.00     128.50       2.72       0.07       0.92       ----

> <Gold.Chemscore.Fitness>
21.3760

> <Gold.Chemscore.DG>
-22.3653

> <Gold.Chemscore.ZeroCoef>
-5.4800

> <Gold.Chemscore.Hbond>
2.6400

> <Gold.Chemscore.Metal>
0.0000

> <Gold.Chemscore.Lipo>
128.5024

> <Gold.Chemscore.Internal_Hbond>
0.0000

> <Gold.Chemscore.DEClash>
0.0727

> <Gold.Chemscore.DEInternal>
0.9167

> <Gold.Chemscore.Rot>
2.7215

> <Gold.Chemscore.Internal.Correction>
   9.000000E+99

> <Gold.Chemscore.Hbonds>
donor molecule, donor type, donor heavy atom, donor atom, acceptor molecule, acceptor atom, score
      L1  H    29    50       P1  7948  0.08
      P1  H  6896  6908       L1    14  0.34
      P1  H  7997  8010       L1     5  0.36
      P1  H 10752 10764       L1     7  0.68

> <Gold.Chemscore.Hbond.Weighted>
-8.8176

> <Gold.Chemscore.Metal.Weighted>
-0.0000

> <Gold.Chemscore.Lipo.Weighted>
-15.0348

> <Gold.Chemscore.Internal_Hbond.Weighted>
0.0000

> <Gold.Chemscore.DEClash.Weighted>
0.0727

> <Gold.Chemscore.DEInternal.Weighted>
0.9167

> <Gold.Chemscore.Rot.Weighted>
6.9670

> <Gold.Chemscore.Internal.Correction.Weighted>
   9.000000E+99

> <Gold.Protein.RotatedTorsions>
[ 6907 6896 6895 6894 ] final  137.43 input  -60.11 | X-H torsion
[ 7974 7965 7964 7962 ] final  -45.75 input  175.53 | X-H torsion
[ 8008 7997 7996 7995 ] final   96.07 input   59.86 | X-H torsion
[ 10167 10162 10161 10158 ] final  -76.24 input  -65.29 | X-H torsion
[ 10718 10713 10712 10709 ] final  -97.54 input   66.30 | X-H torsion
[ 10763 10752 10751 10750 ] final  -53.30 input  -60.55 | X-H torsion
[ 11005 11000 10999 10996 ] final  -33.38 input  -57.11 | X-H torsion

> <Gold.Protein.ActiveResidues>
 VAL166  LYS551  ARG553  GLY616  TRP617  ASP618  TYR619  PRO620  LYS621  CYS622 
 ASP623  PHE694  ASN695  SER759  ASP760  ASP761  ALA762  ILE779  LEU786  VAL792 
 PHE793  MET794  SER795  GLU796  ALA797  LYS798  CYS799  TRP800  GLU811  SER814 

> <Gold.Protein.RotatedAtoms>
  152.2782  133.5445  159.5480 H   0  0  0  0  0  0  0  0  0  0  0  0  # atno 6907 bound_to 6896
  150.7185  134.0602  159.3837 H   0  0  0  0  0  0  0  0  0  0  0  0  # atno 6908 bound_to 6896
  151.8514  135.0556  160.0510 H   0  0  0  0  0  0  0  0  0  0  0  0  # atno 6909 bound_to 6896
  145.9789  140.7305  142.9373 H   0  0  0  0  0  0  0  0  0  0  0  0  # atno 7974 bound_to 7965
  156.0757  140.3277  155.7631 H   0  0  0  0  0  0  0  0  0  0  0  0  # atno 8008 bound_to 7997
  155.5233  140.0587  157.2920 H   0  0  0  0  0  0  0  0  0  0  0  0  # atno 8009 bound_to 7997
  154.4554  140.1940  156.0412 H   0  0  0  0  0  0  0  0  0  0  0  0  # atno 8010 bound_to 7997
  140.4874  143.2388  151.7962 H   0  0  0  0  0  0  0  0  0  0  0  0  # atno 10167 bound_to 10162
  156.0086  130.5199  150.6389 H   0  0  0  0  0  0  0  0  0  0  0  0  # atno 10718 bound_to 10713
  154.1566  135.6481  153.4976 H   0  0  0  0  0  0  0  0  0  0  0  0  # atno 10763 bound_to 10752
  153.0122  135.5351  154.6754 H   0  0  0  0  0  0  0  0  0  0  0  0  # atno 10764 bound_to 10752
  154.6056  135.2948  155.0460 H   0  0  0  0  0  0  0  0  0  0  0  0  # atno 10765 bound_to 10752
  140.9630  133.7153  156.1399 H   0  0  0  0  0  0  0  0  0  0  0  0  # atno 11005 bound_to 11000
  144.6856  140.2875  143.7283 LP  0  0  0  0  0  0  0  0  0  0  0  0  # atno 17320 bound_to 7965
  145.7798  139.1887  143.2164 LP  0  0  0  0  0  0  0  0  0  0  0  0  # atno 17321 bound_to 7965
  139.4844  144.4694  151.9443 LP  0  0  0  0  0  0  0  0  0  0  0  0  # atno 17342 bound_to 10162
  140.3780  144.2771  150.5912 LP  0  0  0  0  0  0  0  0  0  0  0  0  # atno 17343 bound_to 10162
  157.4173  131.0832  151.1164 LP  0  0  0  0  0  0  0  0  0  0  0  0  # atno 17370 bound_to 10713
  157.1777  130.6295  149.5661 LP  0  0  0  0  0  0  0  0  0  0  0  0  # atno 17371 bound_to 10713
  140.7440  134.4118  157.5551 LP  0  0  0  0  0  0  0  0  0  0  0  0  # atno 17394 bound_to 11000
  139.8884  134.8856  156.2473 LP  0  0  0  0  0  0  0  0  0  0  0  0  # atno 17395 bound_to 11000

$$$$
