AV-unprocessed.smi:1085|AV-procd|sdf|4723|dock6
  -GOLD-   22720 3253D 1   1.00000     0.00000
 Structure written by MMmdl.
 33 34  0  0  0  0  0  0  0  0  1 V2000
  151.0939  139.3164  154.3767 O   0  0  0  0  0  0  0  0  0  0  0  0
  151.7043  139.4548  155.4359 C   0  0  0  0  0  0  0  0  0  0  0  0
  152.6793  138.3735  155.9011 C   0  0  0  0  0  0  0  0  0  0  0  0
  151.9880  137.3431  156.6527 N   0  0  0  0  0  0  0  0  0  0  0  0
  151.3266  137.3966  157.8110 C   0  0  0  0  0  0  0  0  0  0  0  0
  150.8473  136.2118  158.1558 N   0  0  0  0  0  0  0  0  0  0  0  0
  151.2577  135.3924  157.1174 N   0  0  0  0  0  0  0  0  0  0  0  0
  151.9352  136.0580  156.2228 N   0  0  0  0  0  0  0  0  0  0  0  0
  151.5786  140.5244  156.2373 N   0  0  0  0  0  0  0  0  0  0  0  0
  150.7488  141.7019  155.9852 C   0  0  1  0  0  0  0  0  0  0  0  0
  149.3026  141.4545  156.4544 C   0  0  0  0  0  0  0  0  0  0  0  0
  149.1932  141.3962  157.9871 C   0  0  0  0  0  0  0  0  0  0  0  0
  149.7815  142.6586  158.6365 C   0  0  0  0  0  0  0  0  0  0  0  0
  151.2484  142.8872  158.2143 C   0  0  2  0  0  0  0  0  0  0  0  0
  151.8533  144.1412  158.8787 C   0  0  0  0  0  0  0  0  0  0  0  0
  152.0389  143.9444  160.1844 F   0  0  0  0  0  0  0  0  0  0  0  0
  153.0254  144.4358  158.3162 F   0  0  0  0  0  0  0  0  0  0  0  0
  151.0389  145.1832  158.7107 F   0  0  0  0  0  0  0  0  0  0  0  0
  151.3560  142.9414  156.6727 C   0  0  0  0  0  0  0  0  0  0  0  0
  153.1713  137.9140  155.0427 H   0  0  0  0  0  0  0  0  0  0  0  0
  153.4600  138.8144  156.5230 H   0  0  0  0  0  0  0  0  0  0  0  0
  151.2027  138.2945  158.3984 H   0  0  0  0  0  0  0  0  0  0  0  0
  152.1195  140.5343  157.0899 H   0  0  0  0  0  0  0  0  0  0  0  0
  150.7179  141.9015  154.9129 H   0  0  0  0  0  0  0  0  0  0  0  0
  148.6654  142.2592  156.0846 H   0  0  0  0  0  0  0  0  0  0  0  0
  148.9143  140.5349  156.0149 H   0  0  0  0  0  0  0  0  0  0  0  0
  148.1487  141.2821  158.2785 H   0  0  0  0  0  0  0  0  0  0  0  0
  149.7136  140.5144  158.3626 H   0  0  0  0  0  0  0  0  0  0  0  0
  149.1776  143.5234  158.3591 H   0  0  0  0  0  0  0  0  0  0  0  0
  149.7120  142.5709  159.7209 H   0  0  0  0  0  0  0  0  0  0  0  0
  151.8287  142.0309  158.5614 H   0  0  0  0  0  0  0  0  0  0  0  0
  152.3982  143.0528  156.3710 H   0  0  0  0  0  0  0  0  0  0  0  0
  150.8418  143.8319  156.3090 H   0  0  0  0  0  0  0  0  0  0  0  0
  1  2  2  0  0  0  0
  2  3  1  0  0  0  0
  2  9  1  0  0  0  0
  3  4  1  0  0  0  0
  3 20  1  0  0  0  0
  3 21  1  0  0  0  0
  4  8  1  0  0  0  0
  4  5  1  0  0  0  0
  5  6  2  0  0  0  0
  5 22  1  0  0  0  0
  6  7  1  0  0  0  0
  7  8  2  0  0  0  0
  9 10  1  0  0  0  0
  9 23  1  0  0  0  0
 10 19  1  0  0  0  0
 10 11  1  0  0  0  0
 10 24  1  0  0  0  0
 11 12  1  0  0  0  0
 11 25  1  0  0  0  0
 11 26  1  0  0  0  0
 12 13  1  0  0  0  0
 12 27  1  0  0  0  0
 12 28  1  0  0  0  0
 13 14  1  0  0  0  0
 13 29  1  0  0  0  0
 13 30  1  0  0  0  0
 14 15  1  0  0  0  0
 14 19  1  0  0  0  0
 14 31  1  0  0  0  0
 15 16  1  0  0  0  0
 15 17  1  0  0  0  0
 15 18  1  0  0  0  0
 19 32  1  0  0  0  0
 19 33  1  0  0  0  0
M  END
> <s_m_source_file>
AV-unprocessed.smi

> <i_m_source_file_index>
1085

> <i_lp_mmshare_version>
43012

> <i_f3d_flags>
0

> <s_epik_input>
bjFubltjSF1uMVtDSDJdQyg9TylbTkhdW0NAQEhdMltDSDJdW0NIMl1bQ0gyXVtDQEBIXShDKEYpKEYpRilbQ0gyXTI=

> <s_epik_cmdline>
J2VwaWtfcHl0aG9uJywgJy1waCcsICc3LjAnLCAnLXRuJywgJzgnLCAnLW1hJywgJzIwMCcsICctbWV0YWxfYmluZGluZycsICctaW1hZScsICc8aW5maWxlLm1hZT4nLCAnLW9tYWUnLCAnPG91dGZpbGUubWFlPic=

> <r_lp_tautomer_probability>
1

> <r_epik_Ionization_Penalty>
8.41315e-07

> <r_epik_Ionization_Penalty_Charging>
0

> <r_epik_Ionization_Penalty_Neutral>
8.41315e-07

> <r_epik_State_Penalty>
-0

> <r_epik_Charging_Adjusted_Penalty>
0

> <i_epik_Tot_Q>
0

> <i_epik_Tot_abs_Q>
0

> <r_epik_Metal_State_Penalty>
-0

> <b_epik_Metal_Only>
0

> <s_lp_Force_Field>
OPLS_2005

> <r_lp_Energy>
12.3827

> <b_lp_Chiralities_Consistent>
1

> <s_lp_Variant>
AV-unprocessed.smi:1085-4

> <Gold.Version>
5.8.1

> <Gold.Id.Protein>
6NUR|6NUR_protein|mol2

> <Gold.PLP.Fitness>
41.6069

> <Gold.PLP.PLP>
-35.5587

> <Gold.PLP.part.hbond>
-4.0000

> <Gold.PLP.part.metal>
0.0000

> <Gold.PLP.part.buried>
-5.1307

> <Gold.PLP.part.nonpolar>
-26.5621

> <Gold.PLP.part.repulsive>
0.2889

> <Gold.PLP.ligand.clash>
0.0000

> <Gold.PLP.ligand.torsion>
0.9723

> <Gold.PLP.Chemscore.Hbond>
2.6560

> <Gold.PLP.Chemscore.CHOScore>
0.0000

> <Gold.PLP.Chemscore.Metal>
0.0000

> <Gold.Chemscore.Hbonds>
donor molecule, donor type, donor heavy atom, donor atom, acceptor molecule, acceptor atom, score
      P1  H  6896  6907       L1     6  0.66
      P1  H  7989  7998       L1     1  1.00
      P1  H 10752 10765       L1     8  1.00

> <Gold.PLP.Chemscore.Internal.Correction>
0.0247

> <Gold.Rescore>
     Score         DG    S(hbond)    S(metal)    S(lipo)     H(rot)  DE(clash)    DE(int)     intcor
     13.46     -14.51       2.33        0.00      55.39       2.05       0.08       0.96       ----

> <Gold.Chemscore.Fitness>
13.4639

> <Gold.Chemscore.DG>
-14.5078

> <Gold.Chemscore.ZeroCoef>
-5.4800

> <Gold.Chemscore.Hbond>
2.3306

> <Gold.Chemscore.Metal>
0.0000

> <Gold.Chemscore.Lipo>
55.3874

> <Gold.Chemscore.Internal_Hbond>
0.0000

> <Gold.Chemscore.DEClash>
0.0791

> <Gold.Chemscore.DEInternal>
0.9648

> <Gold.Chemscore.Rot>
2.0456

> <Gold.Chemscore.Internal.Correction>
   9.000000E+99

> <Gold.Chemscore.Hbonds>
donor molecule, donor type, donor heavy atom, donor atom, acceptor molecule, acceptor atom, score
      P1  H  6896  6907       L1     6  0.22
      P1  H  7989  7998       L1     1  0.26
      P1  H 10752 10765       L1     8  0.97

> <Gold.Chemscore.Hbond.Weighted>
-7.7842

> <Gold.Chemscore.Metal.Weighted>
-0.0000

> <Gold.Chemscore.Lipo.Weighted>
-6.4803

> <Gold.Chemscore.Internal_Hbond.Weighted>
0.0000

> <Gold.Chemscore.DEClash.Weighted>
0.0791

> <Gold.Chemscore.DEInternal.Weighted>
0.9648

> <Gold.Chemscore.Rot.Weighted>
5.2368

> <Gold.Chemscore.Internal.Correction.Weighted>
   9.000000E+99

> <Gold.Protein.RotatedTorsions>
[ 6907 6896 6895 6894 ] final  -38.91 input  -60.11 | X-H torsion
[ 7974 7965 7964 7962 ] final  -35.31 input  175.53 | X-H torsion
[ 8008 7997 7996 7995 ] final   18.47 input   59.86 | X-H torsion
[ 10167 10162 10161 10158 ] final -123.64 input  -65.29 | X-H torsion
[ 10718 10713 10712 10709 ] final   55.67 input   66.30 | X-H torsion
[ 10763 10752 10751 10750 ] final -148.63 input  -60.55 | X-H torsion
[ 11005 11000 10999 10996 ] final  113.86 input  -57.11 | X-H torsion

> <Gold.Protein.ActiveResidues>
 VAL166  LYS551  ARG553  GLY616  TRP617  ASP618  TYR619  PRO620  LYS621  CYS622 
 ASP623  PHE694  ASN695  SER759  ASP760  ASP761  ALA762  ILE779  LEU786  VAL792 
 PHE793  MET794  SER795  GLU796  ALA797  LYS798  CYS799  TRP800  GLU811  SER814 

> <Gold.Protein.RotatedAtoms>
  150.9967  134.9289  159.7930 H   0  0  0  0  0  0  0  0  0  0  0  0  # atno 6907 bound_to 6896
  152.5266  134.3209  159.9158 H   0  0  0  0  0  0  0  0  0  0  0  0  # atno 6908 bound_to 6896
  151.3214  133.3997  159.2689 H   0  0  0  0  0  0  0  0  0  0  0  0  # atno 6909 bound_to 6896
  146.0757  140.6144  142.8932 H   0  0  0  0  0  0  0  0  0  0  0  0  # atno 7974 bound_to 7965
  154.9065  140.3008  155.5289 H   0  0  0  0  0  0  0  0  0  0  0  0  # atno 8008 bound_to 7997
  156.3016  140.2397  156.4035 H   0  0  0  0  0  0  0  0  0  0  0  0  # atno 8009 bound_to 7997
  154.8468  140.0411  157.1567 H   0  0  0  0  0  0  0  0  0  0  0  0  # atno 8010 bound_to 7997
  140.0013  143.5537  152.2302 H   0  0  0  0  0  0  0  0  0  0  0  0  # atno 10167 bound_to 10162
  157.5365  130.8667  149.8760 H   0  0  0  0  0  0  0  0  0  0  0  0  # atno 10718 bound_to 10713
  154.8222  135.3329  154.7003 H   0  0  0  0  0  0  0  0  0  0  0  0  # atno 10763 bound_to 10752
  153.7634  135.6931  153.4925 H   0  0  0  0  0  0  0  0  0  0  0  0  # atno 10764 bound_to 10752
  153.2094  135.4487  155.0311 H   0  0  0  0  0  0  0  0  0  0  0  0  # atno 10765 bound_to 10752
  139.8964  134.9557  156.6803 H   0  0  0  0  0  0  0  0  0  0  0  0  # atno 11005 bound_to 11000
  144.7260  140.4525  143.6973 LP  0  0  0  0  0  0  0  0  0  0  0  0  # atno 17320 bound_to 7965
  145.6311  139.1536  143.2968 LP  0  0  0  0  0  0  0  0  0  0  0  0  # atno 17321 bound_to 7965
  139.6269  144.7638  151.2618 LP  0  0  0  0  0  0  0  0  0  0  0  0  # atno 17342 bound_to 10162
  140.7417  143.6547  150.8217 LP  0  0  0  0  0  0  0  0  0  0  0  0  # atno 17343 bound_to 10162
  156.0462  130.3727  150.1311 LP  0  0  0  0  0  0  0  0  0  0  0  0  # atno 17370 bound_to 10713
  156.9493  130.9769  151.3501 LP  0  0  0  0  0  0  0  0  0  0  0  0  # atno 17371 bound_to 10713
  140.7304  133.9064  155.8207 LP  0  0  0  0  0  0  0  0  0  0  0  0  # atno 17394 bound_to 11000
  141.0158  134.0958  157.4174 LP  0  0  0  0  0  0  0  0  0  0  0  0  # atno 17395 bound_to 11000

$$$$
