AV-unprocessed.smi:2424|AV-procd|sdf|9572|dock2
  -GOLD-   2272013203D 1   1.00000     0.00000
 Structure written by MMmdl.
 49 50  0  0  0  0  0  0  0  0  2 V2000
  147.8652  137.7984  158.2108 C   0  0  0  0  0  0  0  0  0  0  0  0
  147.0781  137.7474  156.8899 C   0  0  0  0  0  0  0  0  0  0  0  0
  147.8188  138.2127  155.6123 C   0  0  0  0  0  0  0  0  0  0  0  0
  149.0771  137.3092  155.4646 C   0  0  0  0  0  0  0  0  0  0  0  0
  148.8208  135.8015  155.2777 C   0  0  0  0  0  0  0  0  0  0  0  0
  146.9605  138.3853  154.3216 C   0  0  2  0  0  0  0  0  0  0  0  0
  147.0888  137.3084  153.3453 N   0  0  0  0  0  0  0  0  0  0  0  0
  146.0974  136.4766  152.9995 C   0  0  0  0  0  0  0  0  0  0  0  0
  144.9637  136.5478  153.4730 O   0  0  0  0  0  0  0  0  0  0  0  0
  146.5215  135.5803  152.0914 N   0  0  0  0  0  0  0  0  0  0  0  0
  145.8037  134.5433  151.4820 C   0  0  0  0  0  0  0  0  0  0  0  0
  144.8774  134.8237  150.4981 C   0  0  0  0  0  0  0  0  0  0  0  0
  144.0951  133.9704  149.8024 N   0  5  0  0  0  0  0  0  0  0  0  0
  144.1981  132.6377  150.0739 C   0  0  0  0  0  0  0  0  0  0  0  0
  143.5167  131.8018  149.4816 O   0  0  0  0  0  0  0  0  0  0  0  0
  145.1552  132.1932  151.1072 C   0  0  0  0  0  0  0  0  0  0  0  0
  145.2691  130.7078  151.4053 C   0  0  0  0  0  0  0  0  0  0  0  0
  145.9077  133.1115  151.7638 C   0  0  0  0  0  0  0  0  0  0  0  0
  147.7883  139.6188  153.9468 C   0  0  1  0  0  0  0  0  0  0  0  0
  147.1075  140.7509  153.1881 C   0  0  0  0  0  0  0  0  0  0  0  0
  148.0387  139.7452  155.4584 C   0  0  2  0  0  0  0  0  0  0  0  0
  149.3473  140.1713  155.8046 O   0  0  0  0  0  0  0  0  0  0  0  0
  149.6959  141.4299  155.2559 C   0  0  0  0  0  0  0  0  0  0  0  0
  147.2755  137.3627  159.0175 H   0  0  0  0  0  0  0  0  0  0  0  0
  148.0930  138.8223  158.5064 H   0  0  0  0  0  0  0  0  0  0  0  0
  148.7989  137.2400  158.1575 H   0  0  0  0  0  0  0  0  0  0  0  0
  146.7463  136.7173  156.7583 H   0  0  0  0  0  0  0  0  0  0  0  0
  146.1700  138.3356  157.0294 H   0  0  0  0  0  0  0  0  0  0  0  0
  149.6759  137.6467  154.6181 H   0  0  0  0  0  0  0  0  0  0  0  0
  149.7281  137.4238  156.3310 H   0  0  0  0  0  0  0  0  0  0  0  0
  149.7659  135.2583  155.2663 H   0  0  0  0  0  0  0  0  0  0  0  0
  148.3231  135.5872  154.3323 H   0  0  0  0  0  0  0  0  0  0  0  0
  148.2164  135.3782  156.0779 H   0  0  0  0  0  0  0  0  0  0  0  0
  145.9252  138.6759  154.5049 H   0  0  0  0  0  0  0  0  0  0  0  0
  147.9918  137.1844  152.9117 H   0  0  0  0  0  0  0  0  0  0  0  0
  147.4865  135.6528  151.8037 H   0  0  0  0  0  0  0  0  0  0  0  0
  144.7440  135.8941  150.2307 H   0  0  0  0  0  0  0  0  0  0  0  0
  146.0107  130.5127  152.1807 H   0  0  0  0  0  0  0  0  0  0  0  0
  145.5666  130.1611  150.5099 H   0  0  0  0  0  0  0  0  0  0  0  0
  144.3118  130.3137  151.7478 H   0  0  0  0  0  0  0  0  0  0  0  0
  146.5952  132.7492  152.5107 H   0  0  0  0  0  0  0  0  0  0  0  0
  148.7096  139.3197  153.4435 H   0  0  0  0  0  0  0  0  0  0  0  0
  146.2372  141.1256  153.7272 H   0  0  0  0  0  0  0  0  0  0  0  0
  146.7676  140.4156  152.2082 H   0  0  0  0  0  0  0  0  0  0  0  0
  147.7841  141.5898  153.0290 H   0  0  0  0  0  0  0  0  0  0  0  0
  147.2662  140.3307  155.9600 H   0  0  0  0  0  0  0  0  0  0  0  0
  150.6854  141.7186  155.6101 H   0  0  0  0  0  0  0  0  0  0  0  0
  148.9911  142.2043  155.5611 H   0  0  0  0  0  0  0  0  0  0  0  0
  149.7306  141.3941  154.1678 H   0  0  0  0  0  0  0  0  0  0  0  0
  1  2  1  0  0  0  0
  1 24  1  0  0  0  0
  1 25  1  0  0  0  0
  1 26  1  0  0  0  0
  2  3  1  0  0  0  0
  2 27  1  0  0  0  0
  2 28  1  0  0  0  0
  3 21  1  0  0  0  0
  3  4  1  0  0  0  0
  3  6  1  0  0  0  0
  4  5  1  0  0  0  0
  4 29  1  0  0  0  0
  4 30  1  0  0  0  0
  5 31  1  0  0  0  0
  5 32  1  0  0  0  0
  5 33  1  0  0  0  0
  6  7  1  0  0  0  0
  6 19  1  0  0  0  0
  6 34  1  0  0  0  0
  7  8  1  0  0  0  0
  7 35  1  0  0  0  0
  8  9  2  0  0  0  0
  8 10  1  0  0  0  0
 10 11  1  0  0  0  0
 10 36  1  0  0  0  0
 11 18  1  0  0  0  0
 11 12  2  0  0  0  0
 12 13  1  0  0  0  0
 12 37  1  0  0  0  0
 13 14  1  0  0  0  0
 14 15  2  0  0  0  0
 14 16  1  0  0  0  0
 16 17  1  0  0  0  0
 16 18  2  0  0  0  0
 17 38  1  0  0  0  0
 17 39  1  0  0  0  0
 17 40  1  0  0  0  0
 18 41  1  0  0  0  0
 19 20  1  0  0  0  0
 19 21  1  0  0  0  0
 19 42  1  0  0  0  0
 20 43  1  0  0  0  0
 20 44  1  0  0  0  0
 20 45  1  0  0  0  0
 21 22  1  0  0  0  0
 21 46  1  0  0  0  0
 22 23  1  0  0  0  0
 23 47  1  0  0  0  0
 23 48  1  0  0  0  0
 23 49  1  0  0  0  0
M  CHG  1  13  -1
M  END
> <s_m_source_file>
AV-unprocessed.smi

> <i_m_source_file_index>
2424

> <i_lp_mmshare_version>
43012

> <i_f3d_flags>
0

> <s_epik_input>
W0NIM11PW0NAQEhdMVtDQEhdKFtDSDNdKVtDQEBIXShDMShbQ0gyXVtDSDNdKVtDSDJdW0NIM10pW05IXUMoPU8pW05IXWMyW2NIXVtuSF1jKD1PKWMoW0NIM10pW2NIXTI=

> <s_epik_cmdline>
J2VwaWtfcHl0aG9uJywgJy1waCcsICc3LjAnLCAnLXRuJywgJzgnLCAnLW1hJywgJzIwMCcsICctbWV0YWxfYmluZGluZycsICctaW1hZScsICc8aW5maWxlLm1hZT4nLCAnLW9tYWUnLCAnPG91dGZpbGUubWFlPic=

> <r_lp_tautomer_probability>
1

> <r_epik_Ionization_Penalty>
7.6122

> <r_epik_Ionization_Penalty_Charging>
1.53843

> <r_epik_Ionization_Penalty_Neutral>
6.07377

> <r_epik_State_Penalty>
6.07371

> <r_epik_Charging_Adjusted_Penalty>
7.61214

> <i_epik_Tot_Q>
-1

> <i_epik_Tot_abs_Q>
1

> <r_epik_Metal_State_Penalty>
2.02136

> <b_epik_Metal_Only>
1

> <s_lp_Force_Field>
OPLS_2005

> <r_lp_Energy>
40.6297

> <b_lp_Chiralities_Consistent>
1

> <s_lp_Variant>
AV-unprocessed.smi:2424-14

> <Gold.Version>
5.8.1

> <Gold.Id.Protein>
6NUR|6NUR_protein|mol2

> <Gold.PLP.Fitness>
35.3168

> <Gold.PLP.PLP>
-28.1606

> <Gold.PLP.part.hbond>
-2.9013

> <Gold.PLP.part.metal>
0.0000

> <Gold.PLP.part.buried>
-5.5127

> <Gold.PLP.part.nonpolar>
-21.9386

> <Gold.PLP.part.repulsive>
1.2761

> <Gold.PLP.ligand.clash>
0.0000

> <Gold.PLP.ligand.torsion>
1.1272

> <Gold.PLP.Chemscore.Hbond>
2.9360

> <Gold.PLP.Chemscore.CHOScore>
0.0000

> <Gold.PLP.Chemscore.Metal>
0.0000

> <Gold.Chemscore.Hbonds>
donor molecule, donor type, donor heavy atom, donor atom, acceptor molecule, acceptor atom, score
      L1  H     7    35       P1  7948  0.94
      L1  H    10    36       P1  7948  1.00
      P1  H 10785 10796       L1    15  0.99

> <Gold.PLP.Chemscore.Internal.Correction>
0.6025

> <Gold.Rescore>
     Score         DG    S(hbond)    S(metal)    S(lipo)     H(rot)  DE(clash)    DE(int)     intcor
     17.52     -18.95       2.82        0.00      67.98       1.52       0.28       1.15       ----

> <Gold.Chemscore.Fitness>
17.5187

> <Gold.Chemscore.DG>
-18.9455

> <Gold.Chemscore.ZeroCoef>
-5.4800

> <Gold.Chemscore.Hbond>
2.8155

> <Gold.Chemscore.Metal>
0.0000

> <Gold.Chemscore.Lipo>
67.9815

> <Gold.Chemscore.Internal_Hbond>
0.0000

> <Gold.Chemscore.DEClash>
0.2814

> <Gold.Chemscore.DEInternal>
1.1454

> <Gold.Chemscore.Rot>
1.5204

> <Gold.Chemscore.Internal.Correction>
   9.000000E+99

> <Gold.Chemscore.Hbonds>
donor molecule, donor type, donor heavy atom, donor atom, acceptor molecule, acceptor atom, score
      L1  H     7    35       P1  7948  0.91
      L1  H    10    36       P1  7948  0.93
      P1  H 10785 10796       L1    15  0.94

> <Gold.Chemscore.Hbond.Weighted>
-9.4039

> <Gold.Chemscore.Metal.Weighted>
-0.0000

> <Gold.Chemscore.Lipo.Weighted>
-7.9538

> <Gold.Chemscore.Internal_Hbond.Weighted>
0.0000

> <Gold.Chemscore.DEClash.Weighted>
0.2814

> <Gold.Chemscore.DEInternal.Weighted>
1.1454

> <Gold.Chemscore.Rot.Weighted>
3.8922

> <Gold.Chemscore.Internal.Correction.Weighted>
   9.000000E+99

> <Gold.Protein.RotatedTorsions>
[ 6907 6896 6895 6894 ] final  -94.48 input  -60.11 | X-H torsion
[ 7974 7965 7964 7962 ] final  -65.87 input  175.53 | X-H torsion
[ 8008 7997 7996 7995 ] final   87.11 input   59.86 | X-H torsion
[ 10167 10162 10161 10158 ] final  -58.62 input  -65.29 | X-H torsion
[ 10718 10713 10712 10709 ] final  162.44 input   66.30 | X-H torsion
[ 10763 10752 10751 10750 ] final   58.12 input  -60.55 | X-H torsion
[ 11005 11000 10999 10996 ] final   68.55 input  -57.11 | X-H torsion

> <Gold.Protein.ActiveResidues>
 VAL166  LYS551  ARG553  GLY616  TRP617  ASP618  TYR619  PRO620  LYS621  CYS622 
 ASP623  PHE694  ASN695  SER759  ASP760  ASP761  ALA762  ILE779  LEU786  VAL792 
 PHE793  MET794  SER795  GLU796  ALA797  LYS798  CYS799  TRP800  GLU811  SER814 

> <Gold.Protein.RotatedAtoms>
  150.6943  134.1806  159.4246 H   0  0  0  0  0  0  0  0  0  0  0  0  # atno 6907 bound_to 6896
  151.9781  135.0040  160.0565 H   0  0  0  0  0  0  0  0  0  0  0  0  # atno 6908 bound_to 6896
  152.1780  133.4653  159.4980 H   0  0  0  0  0  0  0  0  0  0  0  0  # atno 6909 bound_to 6896
  145.7488  140.8918  143.0490 H   0  0  0  0  0  0  0  0  0  0  0  0  # atno 7974 bound_to 7965
  155.9712  140.3385  155.6578 H   0  0  0  0  0  0  0  0  0  0  0  0  # atno 8008 bound_to 7997
  155.6671  140.0722  157.2551 H   0  0  0  0  0  0  0  0  0  0  0  0  # atno 8009 bound_to 7997
  154.4167  140.1698  156.1827 H   0  0  0  0  0  0  0  0  0  0  0  0  # atno 8010 bound_to 7997
  140.6186  143.2411  151.5536 H   0  0  0  0  0  0  0  0  0  0  0  0  # atno 10167 bound_to 10162
  157.1225  131.0496  151.2409 H   0  0  0  0  0  0  0  0  0  0  0  0  # atno 10718 bound_to 10713
  152.9864  135.5618  154.5501 H   0  0  0  0  0  0  0  0  0  0  0  0  # atno 10763 bound_to 10752
  154.4939  135.2794  155.1477 H   0  0  0  0  0  0  0  0  0  0  0  0  # atno 10764 bound_to 10752
  154.2935  135.6321  153.5448 H   0  0  0  0  0  0  0  0  0  0  0  0  # atno 10765 bound_to 10752
  139.9705  134.6908  156.0457 H   0  0  0  0  0  0  0  0  0  0  0  0  # atno 11005 bound_to 11000
  144.6854  139.9563  143.7479 LP  0  0  0  0  0  0  0  0  0  0  0  0  # atno 17320 bound_to 7965
  146.0376  139.3392  143.0717 LP  0  0  0  0  0  0  0  0  0  0  0  0  # atno 17321 bound_to 7965
  139.5419  144.2624  152.1368 LP  0  0  0  0  0  0  0  0  0  0  0  0  # atno 17342 bound_to 10162
  140.1839  144.4818  150.6514 LP  0  0  0  0  0  0  0  0  0  0  0  0  # atno 17343 bound_to 10162
  157.4464  130.7573  149.7113 LP  0  0  0  0  0  0  0  0  0  0  0  0  # atno 17370 bound_to 10713
  155.9825  130.4009  150.3411 LP  0  0  0  0  0  0  0  0  0  0  0  0  # atno 17371 bound_to 10713
  141.1385  133.6570  156.3661 LP  0  0  0  0  0  0  0  0  0  0  0  0  # atno 17394 bound_to 11000
  140.5304  134.6218  157.5348 LP  0  0  0  0  0  0  0  0  0  0  0  0  # atno 17395 bound_to 11000

$$$$
