AV-unprocessed.smi:191|AV-procd|sdf|1493|dock5
  -GOLD-   2262019313D 1   1.00000     0.00000
 Structure written by MMmdl.
 46 48  0  0  0  0  0  0  0  0  1 V2000
  152.2359  144.3758  158.9023 C   0  0  0  0  0  0  0  0  0  0  0  0
  151.7913  143.2900  157.9138 C   0  0  0  0  0  0  0  0  0  0  0  0
  152.3012  141.9683  158.2706 N   0  0  0  0  0  0  0  0  0  0  0  0
  152.1662  141.5601  159.6694 C   0  0  0  0  0  0  0  0  0  0  0  0
  153.4020  141.8853  160.5319 C   0  0  2  0  0  0  0  0  0  0  0  0
  154.2112  140.6196  160.8373 C   0  0  0  0  0  0  0  0  0  0  0  0
  153.0274  142.5755  161.7775 C   0  0  0  0  0  0  0  0  0  0  0  0
  152.7331  143.1180  162.7560 N   0  0  0  0  0  0  0  0  0  0  0  0
  151.9176  141.0209  157.3878 C   0  0  0  0  0  0  0  0  0  0  0  0
  152.5748  139.8362  157.4214 N   0  0  0  0  0  0  0  0  0  0  0  0
  152.2357  138.8620  156.5718 C   0  0  0  0  0  0  0  0  0  0  0  0
  151.2898  138.8675  155.6296 N   0  0  0  0  0  0  0  0  0  0  0  0
  150.6269  140.0590  155.5953 C   0  0  0  0  0  0  0  0  0  0  0  0
  150.8765  141.1832  156.4315 C   0  0  0  0  0  0  0  0  0  0  0  0
  150.0124  142.2209  156.1055 N   0  0  0  0  0  0  0  0  0  0  0  0
  149.2953  141.7392  155.1273 C   0  0  0  0  0  0  0  0  0  0  0  0
  149.5895  140.4437  154.7635 N   0  0  0  0  0  0  0  0  0  0  0  0
  148.9457  139.6723  153.7108 C   0  0  0  0  0  0  0  0  0  0  0  0
  147.4034  139.6938  153.7608 C   0  0  0  0  0  0  0  0  0  0  0  0
  146.8075  138.6609  152.7882 C   0  0  0  0  0  0  0  0  0  0  0  0
  147.4881  138.6644  151.5494 O   0  0  0  0  0  0  0  0  0  0  0  0
  146.7829  139.6882  155.1649 C   0  0  0  0  0  0  0  0  0  0  0  0
  145.9452  140.8235  154.8601 O   0  0  0  0  0  0  0  0  0  0  0  0
  146.7468  141.0801  153.6877 C   0  0  0  0  0  0  0  0  0  0  0  0
  151.8827  145.3550  158.5791 H   0  0  0  0  0  0  0  0  0  0  0  0
  153.3233  144.4224  158.9704 H   0  0  0  0  0  0  0  0  0  0  0  0
  151.8425  144.2016  159.9034 H   0  0  0  0  0  0  0  0  0  0  0  0
  150.7019  143.2566  157.8702 H   0  0  0  0  0  0  0  0  0  0  0  0
  152.1346  143.5651  156.9148 H   0  0  0  0  0  0  0  0  0  0  0  0
  151.2972  142.0544  160.1026 H   0  0  0  0  0  0  0  0  0  0  0  0
  151.9574  140.4906  159.7110 H   0  0  0  0  0  0  0  0  0  0  0  0
  154.0554  142.5690  159.9898 H   0  0  0  0  0  0  0  0  0  0  0  0
  155.0983  140.8562  161.4254 H   0  0  0  0  0  0  0  0  0  0  0  0
  154.5425  140.1340  159.9189 H   0  0  0  0  0  0  0  0  0  0  0  0
  153.6192  139.8992  161.4026 H   0  0  0  0  0  0  0  0  0  0  0  0
  152.8035  137.9473  156.6594 H   0  0  0  0  0  0  0  0  0  0  0  0
  148.5209  142.3178  154.6447 H   0  0  0  0  0  0  0  0  0  0  0  0
  149.3001  140.0475  152.7499 H   0  0  0  0  0  0  0  0  0  0  0  0
  149.3164  138.6486  153.7752 H   0  0  0  0  0  0  0  0  0  0  0  0
  146.8825  137.6560  153.2055 H   0  0  0  0  0  0  0  0  0  0  0  0
  145.7454  138.8346  152.6157 H   0  0  0  0  0  0  0  0  0  0  0  0
  148.1627  139.3260  151.5788 H   0  0  0  0  0  0  0  0  0  0  0  0
  146.2077  138.7910  155.3963 H   0  0  0  0  0  0  0  0  0  0  0  0
  147.4922  139.9122  155.9637 H   0  0  0  0  0  0  0  0  0  0  0  0
  147.4340  141.9115  153.8508 H   0  0  0  0  0  0  0  0  0  0  0  0
  146.1457  141.2420  152.7922 H   0  0  0  0  0  0  0  0  0  0  0  0
  1  2  1  0  0  0  0
  1 25  1  0  0  0  0
  1 26  1  0  0  0  0
  1 27  1  0  0  0  0
  2  3  1  0  0  0  0
  2 28  1  0  0  0  0
  2 29  1  0  0  0  0
  3  4  1  0  0  0  0
  3  9  1  0  0  0  0
  4  5  1  0  0  0  0
  4 30  1  0  0  0  0
  4 31  1  0  0  0  0
  5  6  1  0  0  0  0
  5  7  1  0  0  0  0
  5 32  1  0  0  0  0
  6 33  1  0  0  0  0
  6 34  1  0  0  0  0
  6 35  1  0  0  0  0
  7  8  3  0  0  0  0
  9 14  1  0  0  0  0
  9 10  2  0  0  0  0
 10 11  1  0  0  0  0
 11 12  2  0  0  0  0
 11 36  1  0  0  0  0
 12 13  1  0  0  0  0
 13 17  1  0  0  0  0
 13 14  2  0  0  0  0
 14 15  1  0  0  0  0
 15 16  2  0  0  0  0
 16 17  1  0  0  0  0
 16 37  1  0  0  0  0
 17 18  1  0  0  0  0
 18 19  1  0  0  0  0
 18 38  1  0  0  0  0
 18 39  1  0  0  0  0
 19 24  1  0  0  0  0
 19 20  1  0  0  0  0
 19 22  1  0  0  0  0
 20 21  1  0  0  0  0
 20 40  1  0  0  0  0
 20 41  1  0  0  0  0
 21 42  1  0  0  0  0
 22 23  1  0  0  0  0
 22 43  1  0  0  0  0
 22 44  1  0  0  0  0
 23 24  1  0  0  0  0
 24 45  1  0  0  0  0
 24 46  1  0  0  0  0
M  END
> <s_m_source_file>
AV-unprocessed.smi

> <i_m_source_file_index>
191

> <i_lp_mmshare_version>
43012

> <i_f3d_flags>
0

> <s_epik_input>
TiNDW0NAQEhdKFtDSDNdKVtDSDJdTihbQ0gyXVtDSDNdKWMobltjSF1uMSljKGMxMiluW2NIXW4yW0NIMl1DMyhbQ0gyXVtPSF0pW0NIMl1PW0NIMl0z

> <s_epik_cmdline>
J2VwaWtfcHl0aG9uJywgJy1waCcsICc3LjAnLCAnLXRuJywgJzgnLCAnLW1hJywgJzIwMCcsICctbWV0YWxfYmluZGluZycsICctaW1hZScsICc8aW5maWxlLm1hZT4nLCAnLW9tYWUnLCAnPG91dGZpbGUubWFlPic=

> <r_lp_tautomer_probability>
1

> <r_epik_Ionization_Penalty>
0.000569684

> <r_epik_Ionization_Penalty_Charging>
0

> <r_epik_Ionization_Penalty_Neutral>
0.000569684

> <r_epik_State_Penalty>
0.000286009

> <r_epik_Charging_Adjusted_Penalty>
0.000286009

> <i_epik_Tot_Q>
0

> <i_epik_Tot_abs_Q>
0

> <r_epik_Metal_State_Penalty>
-0

> <b_epik_Metal_Only>
0

> <s_lp_Force_Field>
OPLS_2005

> <r_lp_Energy>
28.3961

> <b_lp_Chiralities_Consistent>
1

> <s_lp_Variant>
AV-unprocessed.smi:191-1

> <Gold.Version>
5.8.1

> <Gold.Id.Protein>
6NUR|6NUR_protein|mol2

> <Gold.PLP.Fitness>
47.9378

> <Gold.PLP.PLP>
-42.3688

> <Gold.PLP.part.hbond>
-3.8749

> <Gold.PLP.part.metal>
0.0000

> <Gold.PLP.part.buried>
-0.8840

> <Gold.PLP.part.nonpolar>
-40.2980

> <Gold.PLP.part.repulsive>
2.6732

> <Gold.PLP.ligand.clash>
0.5936

> <Gold.PLP.ligand.torsion>
1.9987

> <Gold.PLP.Chemscore.Hbond>
2.7080

> <Gold.PLP.Chemscore.CHOScore>
0.4114

> <Gold.PLP.Chemscore.Metal>
0.0000

> <Gold.Chemscore.Hbonds>
donor molecule, donor type, donor heavy atom, donor atom, acceptor molecule, acceptor atom, score
      L1  H    21    42       P1  7957  1.00
      P1  H  7954  7966       L1    21  0.63
      P1  H  7997  8009       L1    10  0.95
      L1  C    16    37       P1  8028  0.37

> <Gold.PLP.Chemscore.Internal.Correction>
0.8018

> <Gold.Rescore>
     Score         DG    S(hbond)    S(metal)    S(lipo)     H(rot)  DE(clash)    DE(int)     intcor
      3.75     -10.14       1.04        0.00      85.37       3.43       2.26       4.13       ----

> <Gold.Chemscore.Fitness>
3.7528

> <Gold.Chemscore.DG>
-10.1434

> <Gold.Chemscore.ZeroCoef>
-5.4800

> <Gold.Chemscore.Hbond>
1.0350

> <Gold.Chemscore.Metal>
0.0000

> <Gold.Chemscore.Lipo>
85.3673

> <Gold.Chemscore.Internal_Hbond>
0.0000

> <Gold.Chemscore.DEClash>
2.2596

> <Gold.Chemscore.DEInternal>
4.1310

> <Gold.Chemscore.Rot>
3.4303

> <Gold.Chemscore.Internal.Correction>
   9.000000E+99

> <Gold.Chemscore.Hbonds>
donor molecule, donor type, donor heavy atom, donor atom, acceptor molecule, acceptor atom, score
      L1  H    21    42       P1  7957  0.94
      P1  H  7954  7966       L1    21  0.05
      P1  H  7997  8009       L1    10  0.16

> <Gold.Chemscore.Hbond.Weighted>
-3.4571

> <Gold.Chemscore.Metal.Weighted>
-0.0000

> <Gold.Chemscore.Lipo.Weighted>
-9.9880

> <Gold.Chemscore.Internal_Hbond.Weighted>
0.0000

> <Gold.Chemscore.DEClash.Weighted>
2.2596

> <Gold.Chemscore.DEInternal.Weighted>
4.1310

> <Gold.Chemscore.Rot.Weighted>
8.7817

> <Gold.Chemscore.Internal.Correction.Weighted>
   9.000000E+99

> <Gold.Protein.RotatedTorsions>
[ 6907 6896 6895 6894 ] final   64.63 input  -60.11 | X-H torsion
[ 7974 7965 7964 7962 ] final -114.81 input  175.53 | X-H torsion
[ 8008 7997 7996 7995 ] final  163.02 input   59.86 | X-H torsion
[ 10167 10162 10161 10158 ] final  -87.65 input  -65.29 | X-H torsion
[ 10718 10713 10712 10709 ] final  -25.40 input   66.30 | X-H torsion
[ 10763 10752 10751 10750 ] final   20.36 input  -60.55 | X-H torsion
[ 11005 11000 10999 10996 ] final   66.09 input  -57.11 | X-H torsion

> <Gold.Protein.ActiveResidues>
 VAL166  LYS551  ARG553  GLY616  TRP617  ASP618  TYR619  PRO620  LYS621  CYS622 
 ASP623  PHE694  ASN695  SER759  ASP760  ASP761  ALA762  ILE779  LEU786  VAL792 
 PHE793  MET794  SER795  GLU796  ALA797  LYS798  CYS799  TRP800  GLU811  SER814 

> <Gold.Protein.RotatedAtoms>
  152.4346  134.5711  159.9921 H   0  0  0  0  0  0  0  0  0  0  0  0  # atno 6907 bound_to 6896
  151.5825  133.3370  159.3019 H   0  0  0  0  0  0  0  0  0  0  0  0  # atno 6908 bound_to 6896
  150.8243  134.7501  159.6864 H   0  0  0  0  0  0  0  0  0  0  0  0  # atno 6909 bound_to 6896
  145.1158  140.8639  143.3843 H   0  0  0  0  0  0  0  0  0  0  0  0  # atno 7974 bound_to 7965
  156.1988  140.1735  156.7942 H   0  0  0  0  0  0  0  0  0  0  0  0  # atno 8008 bound_to 7997
  154.5565  140.0707  156.8782 H   0  0  0  0  0  0  0  0  0  0  0  0  # atno 8009 bound_to 7997
  155.2929  140.3356  155.4254 H   0  0  0  0  0  0  0  0  0  0  0  0  # atno 8010 bound_to 7997
  140.3824  143.2742  151.9367 H   0  0  0  0  0  0  0  0  0  0  0  0  # atno 10167 bound_to 10162
  156.4648  130.4511  149.6906 H   0  0  0  0  0  0  0  0  0  0  0  0  # atno 10718 bound_to 10713
  153.1083  135.6690  153.9545 H   0  0  0  0  0  0  0  0  0  0  0  0  # atno 10763 bound_to 10752
  153.9096  135.3026  155.3450 H   0  0  0  0  0  0  0  0  0  0  0  0  # atno 10764 bound_to 10752
  154.7504  135.5037  153.9356 H   0  0  0  0  0  0  0  0  0  0  0  0  # atno 10765 bound_to 10752
  139.9853  134.6677  156.0187 H   0  0  0  0  0  0  0  0  0  0  0  0  # atno 11005 bound_to 11000
  145.0796  139.2970  143.5790 LP  0  0  0  0  0  0  0  0  0  0  0  0  # atno 17320 bound_to 7965
  146.3524  140.0297  142.8651 LP  0  0  0  0  0  0  0  0  0  0  0  0  # atno 17321 bound_to 7965
  139.4794  144.5806  151.7939 LP  0  0  0  0  0  0  0  0  0  0  0  0  # atno 17342 bound_to 10162
  140.4924  144.1291  150.5953 LP  0  0  0  0  0  0  0  0  0  0  0  0  # atno 17343 bound_to 10162
  156.3679  130.7515  151.2495 LP  0  0  0  0  0  0  0  0  0  0  0  0  # atno 17370 bound_to 10713
  157.7495  131.0331  150.4259 LP  0  0  0  0  0  0  0  0  0  0  0  0  # atno 17371 bound_to 10713
  141.1519  133.6547  156.4040 LP  0  0  0  0  0  0  0  0  0  0  0  0  # atno 17394 bound_to 11000
  140.5014  134.6482  157.5250 LP  0  0  0  0  0  0  0  0  0  0  0  0  # atno 17395 bound_to 11000

$$$$
