AV-unprocessed.smi:1|AV-procd|sdf|21|dock5
  -GOLD-   2262015123D 1   1.00000     0.00000
 Structure written by MMmdl.
 56 61  0  0  0  0  0  0  0  0  2 V2000
  153.8653  140.2712  158.7365 O   0  0  0  0  0  0  0  0  0  0  0  0
  152.7267  140.7349  158.8303 C   0  0  0  0  0  0  0  0  0  0  0  0
  151.5603  140.1650  158.4341 N   0  5  0  0  0  0  0  0  0  0  0  0
  151.5853  139.0490  157.6892 C   0  0  0  0  0  0  0  0  0  0  0  0
  152.3178  139.0021  156.5475 N   0  0  0  0  0  0  0  0  0  0  0  0
  152.3357  137.8919  155.8011 C   0  0  0  0  0  0  0  0  0  0  0  0
  151.7055  136.7316  156.0070 N   0  0  0  0  0  0  0  0  0  0  0  0
  150.9750  136.7594  157.1596 C   0  0  0  0  0  0  0  0  0  0  0  0
  150.8735  137.8708  158.0467 C   0  0  0  0  0  0  0  0  0  0  0  0
  150.0566  137.5669  159.1252 N   0  0  0  0  0  0  0  0  0  0  0  0
  149.7017  136.3147  158.8485 C   0  0  0  0  0  0  0  0  0  0  0  0
  150.1828  135.7660  157.7151 N   0  0  0  0  0  0  0  0  0  0  0  0
  149.9201  134.3861  157.2040 C   0  0  2  0  0  0  0  0  0  0  0  0
  150.6613  133.4680  157.9520 O   0  0  0  0  0  0  0  0  0  0  0  0
  151.6183  132.8053  157.1297 C   0  0  1  0  0  0  0  0  0  0  0  0
  151.8877  131.3836  157.6349 C   0  0  0  0  0  0  0  0  0  0  0  0
  153.1479  130.9556  157.1463 O   0  0  0  0  0  0  0  0  0  0  0  0
  154.2304  131.7434  157.2853 C   0  0  0  0  0  0  0  0  0  0  0  0
  154.3801  132.5393  158.2147 O   0  0  0  0  0  0  0  0  0  0  0  0
  155.2308  131.5498  156.1962 C   0  0  0  0  0  0  0  0  0  0  0  0
  154.9294  130.6753  155.1259 C   0  0  0  0  0  0  0  0  0  0  0  0
  155.8545  130.4719  154.0834 C   0  0  0  0  0  0  0  0  0  0  0  0
  157.0920  131.1415  154.0977 C   0  0  0  0  0  0  0  0  0  0  0  0
  157.4041  132.0139  155.1568 C   0  0  0  0  0  0  0  0  0  0  0  0
  156.4806  132.2179  156.2007 C   0  0  0  0  0  0  0  0  0  0  0  0
  151.0188  132.8788  155.7270 C   0  0  1  0  0  0  0  0  0  0  0  0
  150.0324  131.8784  155.5315 O   0  0  0  0  0  0  0  0  0  0  0  0
  148.7269  132.5723  154.7535 S   0  0  0  0  0  0  0  0  0  0  0  0
  148.7853  132.2013  153.3315 O   0  0  0  0  0  0  0  0  0  0  0  0
  147.5304  132.3572  155.5814 O   0  0  0  0  0  0  0  0  0  0  0  0
  149.1824  134.1741  154.8937 O   0  0  0  0  0  0  0  0  0  0  0  0
  150.3245  134.2432  155.7289 C   0  0  1  0  0  0  0  0  0  0  0  0
  152.5390  142.0641  159.5110 C   0  0  0  0  0  0  0  0  0  0  0  0
  151.7075  143.0423  158.9198 C   0  0  0  0  0  0  0  0  0  0  0  0
  151.4959  144.2815  159.5552 C   0  0  0  0  0  0  0  0  0  0  0  0
  152.1063  144.5519  160.7941 C   0  0  0  0  0  0  0  0  0  0  0  0
  152.9254  143.5806  161.3992 C   0  0  0  0  0  0  0  0  0  0  0  0
  153.1380  142.3413  160.7640 C   0  0  0  0  0  0  0  0  0  0  0  0
  152.9399  137.9413  154.9075 H   0  0  0  0  0  0  0  0  0  0  0  0
  149.0463  135.7651  159.5082 H   0  0  0  0  0  0  0  0  0  0  0  0
  148.8565  134.2188  157.3804 H   0  0  0  0  0  0  0  0  0  0  0  0
  152.5471  133.3751  157.1357 H   0  0  0  0  0  0  0  0  0  0  0  0
  151.8626  131.3500  158.7250 H   0  0  0  0  0  0  0  0  0  0  0  0
  151.1168  130.7066  157.2644 H   0  0  0  0  0  0  0  0  0  0  0  0
  153.9849  130.1512  155.0929 H   0  0  0  0  0  0  0  0  0  0  0  0
  155.6130  129.8016  153.2715 H   0  0  0  0  0  0  0  0  0  0  0  0
  157.8009  130.9863  153.2977 H   0  0  0  0  0  0  0  0  0  0  0  0
  158.3538  132.5283  155.1696 H   0  0  0  0  0  0  0  0  0  0  0  0
  156.7524  132.8940  156.9984 H   0  0  0  0  0  0  0  0  0  0  0  0
  151.7737  132.7950  154.9445 H   0  0  0  0  0  0  0  0  0  0  0  0
  151.0058  135.0386  155.4253 H   0  0  0  0  0  0  0  0  0  0  0  0
  151.2292  142.8486  157.9705 H   0  0  0  0  0  0  0  0  0  0  0  0
  150.8632  145.0239  159.0915 H   0  0  0  0  0  0  0  0  0  0  0  0
  151.9427  145.5013  161.2821 H   0  0  0  0  0  0  0  0  0  0  0  0
  153.3888  143.7836  162.3532 H   0  0  0  0  0  0  0  0  0  0  0  0
  153.7611  141.6048  161.2508 H   0  0  0  0  0  0  0  0  0  0  0  0
  1  2  2  0  0  0  0
  2  3  1  0  0  0  0
  2 33  1  0  0  0  0
  3  4  1  0  0  0  0
  4  9  1  0  0  0  0
  4  5  2  0  0  0  0
  5  6  1  0  0  0  0
  6  7  2  0  0  0  0
  6 39  1  0  0  0  0
  7  8  1  0  0  0  0
  8 12  1  0  0  0  0
  8  9  2  0  0  0  0
  9 10  1  0  0  0  0
 10 11  2  0  0  0  0
 11 12  1  0  0  0  0
 11 40  1  0  0  0  0
 12 13  1  0  0  0  0
 13 32  1  0  0  0  0
 13 14  1  0  0  0  0
 13 41  1  0  0  0  0
 14 15  1  0  0  0  0
 15 16  1  0  0  0  0
 15 26  1  0  0  0  0
 15 42  1  0  0  0  0
 16 17  1  0  0  0  0
 16 43  1  0  0  0  0
 16 44  1  0  0  0  0
 17 18  1  0  0  0  0
 18 19  2  0  0  0  0
 18 20  1  0  0  0  0
 20 25  1  0  0  0  0
 20 21  2  0  0  0  0
 21 22  1  0  0  0  0
 21 45  1  0  0  0  0
 22 23  2  0  0  0  0
 22 46  1  0  0  0  0
 23 24  1  0  0  0  0
 23 47  1  0  0  0  0
 24 25  2  0  0  0  0
 24 48  1  0  0  0  0
 25 49  1  0  0  0  0
 26 32  1  0  0  0  0
 26 27  1  0  0  0  0
 26 50  1  0  0  0  0
 27 28  1  0  0  0  0
 28 29  2  0  0  0  0
 28 30  2  0  0  0  0
 28 31  1  0  0  0  0
 31 32  1  0  0  0  0
 32 51  1  0  0  0  0
 33 38  1  0  0  0  0
 33 34  2  0  0  0  0
 34 35  1  0  0  0  0
 34 52  1  0  0  0  0
 35 36  2  0  0  0  0
 35 53  1  0  0  0  0
 36 37  1  0  0  0  0
 36 54  1  0  0  0  0
 37 38  2  0  0  0  0
 37 55  1  0  0  0  0
 38 56  1  0  0  0  0
M  CHG  1   3  -1
M  END
> <s_m_source_file>
AV-unprocessed.smi

> <i_m_source_file_index>
1

> <i_lp_mmshare_version>
43012

> <i_f3d_flags>
0

> <s_epik_input>
W2NIXTFbY0hdW2NIXVtjSF1bY0hdYzFDKD1PKVtOSF1jKG5bY0hdbjIpYyhjMjMpbltjSF1uM1tDQEBIXShbQ0BIXShbQ0BIXTQ1KU9TKE81KSg9Tyk9TylPW0NASF00W0NIMl1PQyg9TyljNltjSF1bY0hdW2NIXVtjSF1bY0hdNg==

> <s_epik_cmdline>
J2VwaWtfcHl0aG9uJywgJy1waCcsICc3LjAnLCAnLXRuJywgJzgnLCAnLW1hJywgJzIwMCcsICctbWV0YWxfYmluZGluZycsICctaW1hZScsICc8aW5maWxlLm1hZT4nLCAnLW9tYWUnLCAnPG91dGZpbGUubWFlPic=

> <r_lp_tautomer_probability>
1

> <r_epik_Ionization_Penalty>
4.39121

> <r_epik_Ionization_Penalty_Charging>
3.39398

> <r_epik_Ionization_Penalty_Neutral>
0.997232

> <r_epik_State_Penalty>
3.39839

> <r_epik_Charging_Adjusted_Penalty>
6.79237

> <i_epik_Tot_Q>
-1

> <i_epik_Tot_abs_Q>
1

> <r_epik_Metal_State_Penalty>
0.497663

> <b_epik_Metal_Only>
1

> <s_epik_Chemistry_Notes>
This compound has an ester and may undergo hydrolysis at high or low pH. This compound contains an acetal/aminal-like group ( X-CH(R)-Y where X, Y are N, S, or O) that may be acid/base labile, releasing an aldehyde.

> <s_lp_Force_Field>
OPLS_2005

> <r_lp_Energy>
42.9256

> <b_lp_Chiralities_Consistent>
1

> <s_lp_Variant>
AV-unprocessed.smi:1-21

> <Gold.Version>
5.8.1

> <Gold.Id.Protein>
6NUR|6NUR_protein|mol2

> <Gold.PLP.Fitness>
57.9184

> <Gold.PLP.PLP>
-52.3985

> <Gold.PLP.part.hbond>
-3.5364

> <Gold.PLP.part.metal>
0.0000

> <Gold.PLP.part.buried>
-10.2096

> <Gold.PLP.part.nonpolar>
-40.8586

> <Gold.PLP.part.repulsive>
2.4138

> <Gold.PLP.ligand.clash>
0.0000

> <Gold.PLP.ligand.torsion>
2.3693

> <Gold.PLP.Chemscore.Hbond>
3.3398

> <Gold.PLP.Chemscore.CHOScore>
0.0000

> <Gold.PLP.Chemscore.Metal>
0.0000

> <Gold.Chemscore.Hbonds>
donor molecule, donor type, donor heavy atom, donor atom, acceptor molecule, acceptor atom, score
      P1  H  6896  6907       L1    14  0.45
      P1  H  7997  8008       L1     1  0.88
      P1  H 10752 10763       L1     7  0.60

> <Gold.PLP.Chemscore.Internal.Correction>
0.2391

> <Gold.Rescore>
     Score         DG    S(hbond)    S(metal)    S(lipo)     H(rot)  DE(clash)    DE(int)     intcor
     15.85     -21.19       2.39        0.00     112.33       2.11       0.36       4.98       ----

> <Gold.Chemscore.Fitness>
15.8467

> <Gold.Chemscore.DG>
-21.1866

> <Gold.Chemscore.ZeroCoef>
-5.4800

> <Gold.Chemscore.Hbond>
2.3876

> <Gold.Chemscore.Metal>
0.0000

> <Gold.Chemscore.Lipo>
112.3324

> <Gold.Chemscore.Internal_Hbond>
0.0000

> <Gold.Chemscore.DEClash>
0.3632

> <Gold.Chemscore.DEInternal>
4.9767

> <Gold.Chemscore.Rot>
2.1136

> <Gold.Chemscore.Internal.Correction>
   9.000000E+99

> <Gold.Chemscore.Hbonds>
donor molecule, donor type, donor heavy atom, donor atom, acceptor molecule, acceptor atom, score
      P1  H  6896  6907       L1    14  0.25
      P1  H  7997  8008       L1     1  0.86
      P1  H 10752 10763       L1     7  0.09

> <Gold.Chemscore.Hbond.Weighted>
-7.9745

> <Gold.Chemscore.Metal.Weighted>
-0.0000

> <Gold.Chemscore.Lipo.Weighted>
-13.1429

> <Gold.Chemscore.Internal_Hbond.Weighted>
0.0000

> <Gold.Chemscore.DEClash.Weighted>
0.3632

> <Gold.Chemscore.DEInternal.Weighted>
4.9767

> <Gold.Chemscore.Rot.Weighted>
5.4107

> <Gold.Chemscore.Internal.Correction.Weighted>
   9.000000E+99

> <Gold.Protein.RotatedTorsions>
[ 6907 6896 6895 6894 ] final -103.68 input  -60.11 | X-H torsion
[ 7974 7965 7964 7962 ] final  150.90 input  175.53 | X-H torsion
[ 8008 7997 7996 7995 ] final  -97.51 input   59.86 | X-H torsion
[ 10167 10162 10161 10158 ] final  -95.95 input  -65.29 | X-H torsion
[ 10718 10713 10712 10709 ] final   31.81 input   66.30 | X-H torsion
[ 10763 10752 10751 10750 ] final   69.10 input  -60.55 | X-H torsion
[ 11005 11000 10999 10996 ] final   42.63 input  -57.11 | X-H torsion

> <Gold.Protein.ActiveResidues>
 VAL166  LYS551  ARG553  GLY616  TRP617  ASP618  TYR619  PRO620  LYS621  CYS622 
 ASP623  PHE694  ASN695  SER759  ASP760  ASP761  ALA762  ILE779  LEU786  VAL792 
 PHE793  MET794  SER795  GLU796  ALA797  LYS798  CYS799  TRP800  GLU811  SER814 

> <Gold.Protein.RotatedAtoms>
  150.7252  134.0392  159.3759 H   0  0  0  0  0  0  0  0  0  0  0  0  # atno 6907 bound_to 6896
  151.8364  135.0602  160.0452 H   0  0  0  0  0  0  0  0  0  0  0  0  # atno 6908 bound_to 6896
  152.2895  133.5511  159.5585 H   0  0  0  0  0  0  0  0  0  0  0  0  # atno 6909 bound_to 6896
  144.8331  139.6468  143.6050 H   0  0  0  0  0  0  0  0  0  0  0  0  # atno 7974 bound_to 7965
  154.7888  140.0462  157.1184 H   0  0  0  0  0  0  0  0  0  0  0  0  # atno 8008 bound_to 7997
  154.9616  140.3078  155.5008 H   0  0  0  0  0  0  0  0  0  0  0  0  # atno 8009 bound_to 7997
  156.2947  140.2269  156.4702 H   0  0  0  0  0  0  0  0  0  0  0  0  # atno 8010 bound_to 7997
  140.2989  143.3175  152.0269 H   0  0  0  0  0  0  0  0  0  0  0  0  # atno 10167 bound_to 10162
  157.2773  130.7237  149.6537 H   0  0  0  0  0  0  0  0  0  0  0  0  # atno 10718 bound_to 10713
  153.0269  135.5223  154.7236 H   0  0  0  0  0  0  0  0  0  0  0  0  # atno 10763 bound_to 10752
  154.6284  135.2897  155.0247 H   0  0  0  0  0  0  0  0  0  0  0  0  # atno 10764 bound_to 10752
  154.1208  135.6608  153.4955 H   0  0  0  0  0  0  0  0  0  0  0  0  # atno 10765 bound_to 10752
  140.1721  134.4209  155.8251 H   0  0  0  0  0  0  0  0  0  0  0  0  # atno 11005 bound_to 11000
  146.2632  139.6459  142.9347 LP  0  0  0  0  0  0  0  0  0  0  0  0  # atno 17320 bound_to 7965
  145.4853  141.0438  143.2623 LP  0  0  0  0  0  0  0  0  0  0  0  0  # atno 17321 bound_to 7965
  139.4920  144.6470  151.6756 LP  0  0  0  0  0  0  0  0  0  0  0  0  # atno 17342 bound_to 10162
  140.5668  144.0176  150.6196 LP  0  0  0  0  0  0  0  0  0  0  0  0  # atno 17343 bound_to 10162
  155.9664  130.4349  150.5069 LP  0  0  0  0  0  0  0  0  0  0  0  0  # atno 17370 bound_to 10713
  157.3005  131.0644  151.2071 LP  0  0  0  0  0  0  0  0  0  0  0  0  # atno 17371 bound_to 10713
  141.2218  133.6961  156.7781 LP  0  0  0  0  0  0  0  0  0  0  0  0  # atno 17394 bound_to 11000
  140.2365  134.8646  157.3530 LP  0  0  0  0  0  0  0  0  0  0  0  0  # atno 17395 bound_to 11000

$$$$
