AV-unprocessed.smi:1800|AV-procd|sdf|7266|dock10
  -GOLD-   22720 8523D 1   1.00000     0.00000
 Structure written by MMmdl.
 35 36  0  0  0  0  0  0  0  0  2 V2000
  152.2263  140.8295  158.9749 C   0  0  0  0  0  0  0  0  0  0  0  0
  151.5508  140.7590  157.5985 C   0  0  1  0  0  0  0  0  0  0  0  0
  151.1049  142.1583  157.1024 C   0  0  0  0  0  0  0  0  0  0  0  0
  151.3323  143.2387  158.0589 N   0  0  0  0  0  0  0  0  0  0  0  0
  152.0286  144.4198  157.8822 C   0  0  0  0  0  0  0  0  0  0  0  0
  151.9598  145.1162  159.0544 C   0  0  0  0  0  0  0  0  0  0  0  0
  151.1803  144.2785  159.8992 C   0  0  0  0  0  0  0  0  0  0  0  0
  150.7927  143.1660  159.2983 N   0  0  0  0  0  0  0  0  0  0  0  0
  152.4780  140.1618  156.6471 N   0  5  0  0  0  0  0  0  0  0  0  0
  151.9454  139.0474  155.5956 S   0  0  0  0  0  0  0  0  0  0  0  0
  150.9080  139.5852  154.7005 O   0  0  0  0  0  0  0  0  0  0  0  0
  153.0407  138.2931  154.9634 O   0  0  0  0  0  0  0  0  0  0  0  0
  151.0897  137.8754  156.7568 C   0  0  0  0  0  0  0  0  0  0  0  0
  151.6822  136.4627  156.6683 C   0  0  0  0  0  0  0  0  0  0  0  0
  150.8916  135.7268  155.5755 C   0  0  0  0  0  0  0  0  0  0  0  0
  149.6609  136.5933  155.2701 C   0  0  0  0  0  0  0  0  0  0  0  0
  149.6242  137.6626  156.3640 C   0  0  0  0  0  0  0  0  0  0  0  0
  151.5539  141.2594  159.7174 H   0  0  0  0  0  0  0  0  0  0  0  0
  153.1266  141.4449  158.9473 H   0  0  0  0  0  0  0  0  0  0  0  0
  152.5101  139.8366  159.3262 H   0  0  0  0  0  0  0  0  0  0  0  0
  150.6532  140.1503  157.7184 H   0  0  0  0  0  0  0  0  0  0  0  0
  151.6490  142.4116  156.1919 H   0  0  0  0  0  0  0  0  0  0  0  0
  150.0483  142.1439  156.8285 H   0  0  0  0  0  0  0  0  0  0  0  0
  152.5181  144.6565  156.9491 H   0  0  0  0  0  0  0  0  0  0  0  0
  152.4018  146.0759  159.2752 H   0  0  0  0  0  0  0  0  0  0  0  0
  150.8813  144.4471  160.9231 H   0  0  0  0  0  0  0  0  0  0  0  0
  151.1656  138.2926  157.7612 H   0  0  0  0  0  0  0  0  0  0  0  0
  152.7550  136.4689  156.4737 H   0  0  0  0  0  0  0  0  0  0  0  0
  151.5342  135.9531  157.6209 H   0  0  0  0  0  0  0  0  0  0  0  0
  151.4957  135.5959  154.6769 H   0  0  0  0  0  0  0  0  0  0  0  0
  150.6008  134.7335  155.9182 H   0  0  0  0  0  0  0  0  0  0  0  0
  149.7816  137.0700  154.2965 H   0  0  0  0  0  0  0  0  0  0  0  0
  148.7407  136.0100  155.2352 H   0  0  0  0  0  0  0  0  0  0  0  0
  149.0756  137.2774  157.2244 H   0  0  0  0  0  0  0  0  0  0  0  0
  149.1198  138.5739  156.0433 H   0  0  0  0  0  0  0  0  0  0  0  0
  1  2  1  0  0  0  0
  1 18  1  0  0  0  0
  1 19  1  0  0  0  0
  1 20  1  0  0  0  0
  2  3  1  0  0  0  0
  2  9  1  0  0  0  0
  2 21  1  0  0  0  0
  3  4  1  0  0  0  0
  3 22  1  0  0  0  0
  3 23  1  0  0  0  0
  4  8  1  0  0  0  0
  4  5  1  0  0  0  0
  5  6  2  0  0  0  0
  5 24  1  0  0  0  0
  6  7  1  0  0  0  0
  6 25  1  0  0  0  0
  7  8  2  0  0  0  0
  7 26  1  0  0  0  0
  9 10  1  0  0  0  0
 10 11  2  0  0  0  0
 10 12  2  0  0  0  0
 10 13  1  0  0  0  0
 13 17  1  0  0  0  0
 13 14  1  0  0  0  0
 13 27  1  0  0  0  0
 14 15  1  0  0  0  0
 14 28  1  0  0  0  0
 14 29  1  0  0  0  0
 15 16  1  0  0  0  0
 15 30  1  0  0  0  0
 15 31  1  0  0  0  0
 16 17  1  0  0  0  0
 16 32  1  0  0  0  0
 16 33  1  0  0  0  0
 17 34  1  0  0  0  0
 17 35  1  0  0  0  0
M  CHG  1   9  -1
M  END
> <s_m_source_file>
AV-unprocessed.smi

> <i_m_source_file_index>
1800

> <i_lp_mmshare_version>
43012

> <i_f3d_flags>
0

> <s_epik_input>
bjFbY0hdW2NIXVtjSF1uMVtDSDJdW0NAQEhdKFtDSDNdKVtOSF1TKD1PKSg9TylbQ0hdMltDSDJdW0NIMl1bQ0gyXVtDSDJdMg==

> <s_epik_cmdline>
J2VwaWtfcHl0aG9uJywgJy1waCcsICc3LjAnLCAnLXRuJywgJzgnLCAnLW1hJywgJzIwMCcsICctbWV0YWxfYmluZGluZycsICctaW1hZScsICc8aW5maWxlLm1hZT4nLCAnLW9tYWUnLCAnPG91dGZpbGUubWFlPic=

> <r_lp_tautomer_probability>
1

> <r_epik_Ionization_Penalty>
6.58538

> <r_epik_Ionization_Penalty_Charging>
6.58536

> <r_epik_Ionization_Penalty_Neutral>
2.3841e-05

> <r_epik_State_Penalty>
6.58535

> <r_epik_Charging_Adjusted_Penalty>
13.1707

> <i_epik_Tot_Q>
-1

> <i_epik_Tot_abs_Q>
1

> <r_epik_Metal_State_Penalty>
2.50999

> <b_epik_Metal_Only>
1

> <s_lp_Force_Field>
OPLS_2005

> <r_lp_Energy>
15.5507

> <b_lp_Chiralities_Consistent>
1

> <s_lp_Variant>
AV-unprocessed.smi:1800-4

> <Gold.Version>
5.8.1

> <Gold.Id.Protein>
6NUR|6NUR_protein|mol2

> <Gold.PLP.Fitness>
39.5283

> <Gold.PLP.PLP>
-32.6263

> <Gold.PLP.part.hbond>
-2.5073

> <Gold.PLP.part.metal>
0.0000

> <Gold.PLP.part.buried>
-4.8836

> <Gold.PLP.part.nonpolar>
-24.5278

> <Gold.PLP.part.repulsive>
0.1454

> <Gold.PLP.ligand.clash>
0.0000

> <Gold.PLP.ligand.torsion>
1.5913

> <Gold.PLP.Chemscore.Hbond>
3.0000

> <Gold.PLP.Chemscore.CHOScore>
0.0000

> <Gold.PLP.Chemscore.Metal>
0.0000

> <Gold.Chemscore.Hbonds>
donor molecule, donor type, donor heavy atom, donor atom, acceptor molecule, acceptor atom, score
      P1  H  7989  7998       L1    11  1.00
      P1  H  7997  8009       L1     9  2.00

> <Gold.PLP.Chemscore.Internal.Correction>
1.0845

> <Gold.Rescore>
     Score         DG    S(hbond)    S(metal)    S(lipo)     H(rot)  DE(clash)    DE(int)     intcor
     14.04     -17.01       1.88        0.00      78.12       1.51       0.02       2.94       ----

> <Gold.Chemscore.Fitness>
14.0445

> <Gold.Chemscore.DG>
-17.0126

> <Gold.Chemscore.ZeroCoef>
-5.4800

> <Gold.Chemscore.Hbond>
1.8773

> <Gold.Chemscore.Metal>
0.0000

> <Gold.Chemscore.Lipo>
78.1173

> <Gold.Chemscore.Internal_Hbond>
0.0000

> <Gold.Chemscore.DEClash>
0.0246

> <Gold.Chemscore.DEInternal>
2.9436

> <Gold.Chemscore.Rot>
1.5146

> <Gold.Chemscore.Internal.Correction>
   9.000000E+99

> <Gold.Chemscore.Hbonds>
donor molecule, donor type, donor heavy atom, donor atom, acceptor molecule, acceptor atom, score
      P1  H  7989  7998       L1    11  0.78
      P1  H  7997  8009       L1     9  0.39

> <Gold.Chemscore.Hbond.Weighted>
-6.2702

> <Gold.Chemscore.Metal.Weighted>
-0.0000

> <Gold.Chemscore.Lipo.Weighted>
-9.1397

> <Gold.Chemscore.Internal_Hbond.Weighted>
0.0000

> <Gold.Chemscore.DEClash.Weighted>
0.0246

> <Gold.Chemscore.DEInternal.Weighted>
2.9436

> <Gold.Chemscore.Rot.Weighted>
3.8773

> <Gold.Chemscore.Internal.Correction.Weighted>
   9.000000E+99

> <Gold.Protein.RotatedTorsions>
[ 6907 6896 6895 6894 ] final   43.99 input  -60.11 | X-H torsion
[ 7974 7965 7964 7962 ] final  -98.79 input  175.53 | X-H torsion
[ 8008 7997 7996 7995 ] final -165.79 input   59.86 | X-H torsion
[ 10167 10162 10161 10158 ] final -150.85 input  -65.29 | X-H torsion
[ 10718 10713 10712 10709 ] final   39.16 input   66.30 | X-H torsion
[ 10763 10752 10751 10750 ] final -158.92 input  -60.55 | X-H torsion
[ 11005 11000 10999 10996 ] final -102.28 input  -57.11 | X-H torsion

> <Gold.Protein.ActiveResidues>
 VAL166  LYS551  ARG553  GLY616  TRP617  ASP618  TYR619  PRO620  LYS621  CYS622 
 ASP623  PHE694  ASN695  SER759  ASP760  ASP761  ALA762  ILE779  LEU786  VAL792 
 PHE793  MET794  SER795  GLU796  ALA797  LYS798  CYS799  TRP800  GLU811  SER814 

> <Gold.Protein.RotatedAtoms>
  152.2270  134.8358  160.0478 H   0  0  0  0  0  0  0  0  0  0  0  0  # atno 6907 bound_to 6896
  151.9121  133.3558  159.3875 H   0  0  0  0  0  0  0  0  0  0  0  0  # atno 6908 bound_to 6896
  150.7015  134.4647  159.5441 H   0  0  0  0  0  0  0  0  0  0  0  0  # atno 6909 bound_to 6896
  145.3160  140.9411  143.2742 H   0  0  0  0  0  0  0  0  0  0  0  0  # atno 7974 bound_to 7965
  155.8548  140.0968  157.1652 H   0  0  0  0  0  0  0  0  0  0  0  0  # atno 8008 bound_to 7997
  154.3987  140.1376  156.3950 H   0  0  0  0  0  0  0  0  0  0  0  0  # atno 8009 bound_to 7997
  155.7922  140.3455  155.5358 H   0  0  0  0  0  0  0  0  0  0  0  0  # atno 8010 bound_to 7997
  139.7318  143.8796  152.2537 H   0  0  0  0  0  0  0  0  0  0  0  0  # atno 10167 bound_to 10162
  157.3673  130.7682  149.7093 H   0  0  0  0  0  0  0  0  0  0  0  0  # atno 10718 bound_to 10713
  154.7517  135.3094  154.8545 H   0  0  0  0  0  0  0  0  0  0  0  0  # atno 10763 bound_to 10752
  153.9331  135.6783  153.4749 H   0  0  0  0  0  0  0  0  0  0  0  0  # atno 10764 bound_to 10752
  153.1113  135.4865  154.8968 H   0  0  0  0  0  0  0  0  0  0  0  0  # atno 10765 bound_to 10752
  141.1196  133.8545  157.1339 H   0  0  0  0  0  0  0  0  0  0  0  0  # atno 11005 bound_to 11000
  144.8977  139.4690  143.6647 LP  0  0  0  0  0  0  0  0  0  0  0  0  # atno 17320 bound_to 7965
  146.3100  139.7713  142.9027 LP  0  0  0  0  0  0  0  0  0  0  0  0  # atno 17321 bound_to 7965
  139.8722  144.7062  150.8975 LP  0  0  0  0  0  0  0  0  0  0  0  0  # atno 17342 bound_to 10162
  140.7772  143.3729  151.1616 LP  0  0  0  0  0  0  0  0  0  0  0  0  # atno 17343 bound_to 10162
  155.9749  130.4097  150.3891 LP  0  0  0  0  0  0  0  0  0  0  0  0  # atno 17370 bound_to 10713
  157.1977  131.0430  151.2667 LP  0  0  0  0  0  0  0  0  0  0  0  0  # atno 17371 bound_to 10713
  140.0143  134.9974  157.0460 LP  0  0  0  0  0  0  0  0  0  0  0  0  # atno 17394 bound_to 11000
  140.4547  134.1546  155.7185 LP  0  0  0  0  0  0  0  0  0  0  0  0  # atno 17395 bound_to 11000

$$$$
