AV-unprocessed.smi:1866|AV-procd|sdf|7556|dock4
  -GOLD-   22720 9273D 1   1.00000     0.00000
 Structure written by MMmdl.
 30 31  0  0  0  0  0  0  0  0  1 V2000
  147.6106  141.6699  155.5665 C   0  0  0  0  0  0  0  0  0  0  0  0
  147.1211  140.4120  154.9340 C   0  0  0  0  0  0  0  0  0  0  0  0
  145.8777  139.9480  155.1096 N   0  0  0  0  0  0  0  0  0  0  0  0
  145.6571  138.7620  154.4234 N   0  0  0  0  0  0  0  0  0  0  0  0
  146.7448  138.3653  153.7484 C   0  0  0  0  0  0  0  0  0  0  0  0
  146.7981  137.1842  152.9617 N   0  0  0  0  0  0  0  0  0  0  0  0
  145.9125  136.1734  152.9153 C   0  0  0  0  0  0  0  0  0  0  0  0
  144.8712  136.1080  153.5694 O   0  0  0  0  0  0  0  0  0  0  0  0
  146.3058  135.2236  152.0544 N   0  0  0  0  0  0  0  0  0  0  0  0
  145.5625  134.0053  151.7387 C   0  0  2  0  0  0  0  0  0  0  0  0
  146.3993  133.0605  150.8553 C   0  0  0  0  0  0  0  0  0  0  0  0
  145.5431  131.8852  150.3749 C   0  0  0  0  0  0  0  0  0  0  0  0
  144.3177  132.3947  149.5988 C   0  0  0  0  0  0  0  0  0  0  0  0
  143.6342  133.5061  150.2620 N   0  0  0  0  0  0  0  0  0  0  0  0
  144.1619  134.3270  151.1874 C   0  0  0  0  0  0  0  0  0  0  0  0
  143.5333  135.2921  151.6195 O   0  0  0  0  0  0  0  0  0  0  0  0
  148.1407  139.4188  153.8998 S   0  0  0  0  0  0  0  0  0  0  0  0
  146.7766  142.2536  155.9579 H   0  0  0  0  0  0  0  0  0  0  0  0
  148.1445  142.2741  154.8328 H   0  0  0  0  0  0  0  0  0  0  0  0
  148.2885  141.4340  156.3870 H   0  0  0  0  0  0  0  0  0  0  0  0
  147.6056  137.1000  152.3624 H   0  0  0  0  0  0  0  0  0  0  0  0
  147.1724  135.3623  151.5557 H   0  0  0  0  0  0  0  0  0  0  0  0
  145.3654  133.4818  152.6764 H   0  0  0  0  0  0  0  0  0  0  0  0
  146.7913  133.6018  149.9926 H   0  0  0  0  0  0  0  0  0  0  0  0
  147.2626  132.6886  151.4083 H   0  0  0  0  0  0  0  0  0  0  0  0
  146.1325  131.2140  149.7498 H   0  0  0  0  0  0  0  0  0  0  0  0
  145.2154  131.3006  151.2356 H   0  0  0  0  0  0  0  0  0  0  0  0
  144.6275  132.7388  148.6114 H   0  0  0  0  0  0  0  0  0  0  0  0
  143.6088  131.5822  149.4386 H   0  0  0  0  0  0  0  0  0  0  0  0
  142.6981  133.7108  149.9433 H   0  0  0  0  0  0  0  0  0  0  0  0
  1  2  1  0  0  0  0
  1 18  1  0  0  0  0
  1 19  1  0  0  0  0
  1 20  1  0  0  0  0
  2 17  1  0  0  0  0
  2  3  2  0  0  0  0
  3  4  1  0  0  0  0
  4  5  2  0  0  0  0
  5  6  1  0  0  0  0
  5 17  1  0  0  0  0
  6  7  1  0  0  0  0
  6 21  1  0  0  0  0
  7  8  2  0  0  0  0
  7  9  1  0  0  0  0
  9 10  1  0  0  0  0
  9 22  1  0  0  0  0
 10 15  1  0  0  0  0
 10 11  1  0  0  0  0
 10 23  1  0  0  0  0
 11 12  1  0  0  0  0
 11 24  1  0  0  0  0
 11 25  1  0  0  0  0
 12 13  1  0  0  0  0
 12 26  1  0  0  0  0
 12 27  1  0  0  0  0
 13 14  1  0  0  0  0
 13 28  1  0  0  0  0
 13 29  1  0  0  0  0
 14 15  1  0  0  0  0
 14 30  1  0  0  0  0
 15 16  2  0  0  0  0
M  END
> <s_m_source_file>
AV-unprocessed.smi

> <i_m_source_file_index>
1866

> <i_lp_mmshare_version>
43012

> <i_f3d_flags>
0

> <s_epik_input>
W0NIM11jMW5uYyhzMSlbTkhdQyg9TylbTkhdW0NAQEhdMltDSDJdW0NIMl1bQ0gyXVtOSF1DMj1P

> <s_epik_cmdline>
J2VwaWtfcHl0aG9uJywgJy1waCcsICc3LjAnLCAnLXRuJywgJzgnLCAnLW1hJywgJzIwMCcsICctbWV0YWxfYmluZGluZycsICctaW1hZScsICc8aW5maWxlLm1hZT4nLCAnLW9tYWUnLCAnPG91dGZpbGUubWFlPic=

> <r_lp_tautomer_probability>
1

> <r_epik_Ionization_Penalty>
0.00093002

> <r_epik_Ionization_Penalty_Charging>
0

> <r_epik_Ionization_Penalty_Neutral>
0.00093002

> <r_epik_State_Penalty>
-0

> <r_epik_Charging_Adjusted_Penalty>
0

> <i_epik_Tot_Q>
0

> <i_epik_Tot_abs_Q>
0

> <r_epik_Metal_State_Penalty>
0.280775

> <b_epik_Metal_Only>
0

> <s_lp_Force_Field>
OPLS_2005

> <r_lp_Energy>
8.18213

> <b_lp_Chiralities_Consistent>
1

> <s_lp_Variant>
AV-unprocessed.smi:1866-1

> <Gold.Version>
5.8.1

> <Gold.Id.Protein>
6NUR|6NUR_protein|mol2

> <Gold.PLP.Fitness>
31.1171

> <Gold.PLP.PLP>
-22.8193

> <Gold.PLP.part.hbond>
-3.0000

> <Gold.PLP.part.metal>
0.0000

> <Gold.PLP.part.buried>
-3.7565

> <Gold.PLP.part.nonpolar>
-16.4209

> <Gold.PLP.part.repulsive>
0.5273

> <Gold.PLP.ligand.clash>
0.0000

> <Gold.PLP.ligand.torsion>
0.0603

> <Gold.PLP.Chemscore.Hbond>
2.7920

> <Gold.PLP.Chemscore.CHOScore>
0.0000

> <Gold.PLP.Chemscore.Metal>
0.0000

> <Gold.Chemscore.Hbonds>
donor molecule, donor type, donor heavy atom, donor atom, acceptor molecule, acceptor atom, score
      L1  H     6    21       P1  7948  1.00
      L1  H     9    22       P1  7948  0.80
      L1  H    14    30       P1 10186  1.00

> <Gold.PLP.Chemscore.Internal.Correction>
0.0424

> <Gold.Rescore>
     Score         DG    S(hbond)    S(metal)    S(lipo)     H(rot)  DE(clash)    DE(int)     intcor
     13.53     -17.70       2.89        0.00      43.78       1.00       0.00       4.17       ----

> <Gold.Chemscore.Fitness>
13.5309

> <Gold.Chemscore.DG>
-17.7014

> <Gold.Chemscore.ZeroCoef>
-5.4800

> <Gold.Chemscore.Hbond>
2.8918

> <Gold.Chemscore.Metal>
0.0000

> <Gold.Chemscore.Lipo>
43.7843

> <Gold.Chemscore.Internal_Hbond>
0.0000

> <Gold.Chemscore.DEClash>
0.0009

> <Gold.Chemscore.DEInternal>
4.1696

> <Gold.Chemscore.Rot>
1.0000

> <Gold.Chemscore.Internal.Correction>
   9.000000E+99

> <Gold.Chemscore.Hbonds>
donor molecule, donor type, donor heavy atom, donor atom, acceptor molecule, acceptor atom, score
      L1  H     6    21       P1  7948  0.95
      L1  H     9    22       P1  7948  0.76
      L1  H    14    30       P1 10186  1.00

> <Gold.Chemscore.Hbond.Weighted>
-9.6586

> <Gold.Chemscore.Metal.Weighted>
-0.0000

> <Gold.Chemscore.Lipo.Weighted>
-5.1228

> <Gold.Chemscore.Internal_Hbond.Weighted>
0.0000

> <Gold.Chemscore.DEClash.Weighted>
0.0009

> <Gold.Chemscore.DEInternal.Weighted>
4.1696

> <Gold.Chemscore.Rot.Weighted>
2.5600

> <Gold.Chemscore.Internal.Correction.Weighted>
   9.000000E+99

> <Gold.Protein.RotatedTorsions>
[ 6907 6896 6895 6894 ] final -134.80 input  -60.11 | X-H torsion
[ 7974 7965 7964 7962 ] final -138.55 input  175.53 | X-H torsion
[ 8008 7997 7996 7995 ] final -102.65 input   59.86 | X-H torsion
[ 10167 10162 10161 10158 ] final  155.48 input  -65.29 | X-H torsion
[ 10718 10713 10712 10709 ] final  -60.33 input   66.30 | X-H torsion
[ 10763 10752 10751 10750 ] final -121.23 input  -60.55 | X-H torsion
[ 11005 11000 10999 10996 ] final  -72.10 input  -57.11 | X-H torsion

> <Gold.Protein.ActiveResidues>
 VAL166  LYS551  ARG553  GLY616  TRP617  ASP618  TYR619  PRO620  LYS621  CYS622 
 ASP623  PHE694  ASN695  SER759  ASP760  ASP761  ALA762  ILE779  LEU786  VAL792 
 PHE793  MET794  SER795  GLU796  ALA797  LYS798  CYS799  TRP800  GLU811  SER814 

> <Gold.Protein.RotatedAtoms>
  150.9901  133.6158  159.2709 H   0  0  0  0  0  0  0  0  0  0  0  0  # atno 6907 bound_to 6896
  151.3381  135.0856  159.9371 H   0  0  0  0  0  0  0  0  0  0  0  0  # atno 6908 bound_to 6896
  152.5243  133.9518  159.7730 H   0  0  0  0  0  0  0  0  0  0  0  0  # atno 6909 bound_to 6896
  144.8749  140.6422  143.5243 H   0  0  0  0  0  0  0  0  0  0  0  0  # atno 7974 bound_to 7965
  154.8597  140.0427  157.1657 H   0  0  0  0  0  0  0  0  0  0  0  0  # atno 8008 bound_to 7997
  154.8853  140.2978  155.5381 H   0  0  0  0  0  0  0  0  0  0  0  0  # atno 8009 bound_to 7997
  156.2998  140.2403  156.3861 H   0  0  0  0  0  0  0  0  0  0  0  0  # atno 8010 bound_to 7997
  139.4821  144.5095  151.8046 H   0  0  0  0  0  0  0  0  0  0  0  0  # atno 10167 bound_to 10162
  156.0998  130.4188  150.0838 H   0  0  0  0  0  0  0  0  0  0  0  0  # atno 10718 bound_to 10713
  154.8663  135.4175  154.2587 H   0  0  0  0  0  0  0  0  0  0  0  0  # atno 10763 bound_to 10752
  153.3519  135.6999  153.6787 H   0  0  0  0  0  0  0  0  0  0  0  0  # atno 10764 bound_to 10752
  153.5723  135.3589  155.2815 H   0  0  0  0  0  0  0  0  0  0  0  0  # atno 10765 bound_to 10752
  141.1603  133.6837  156.7007 H   0  0  0  0  0  0  0  0  0  0  0  0  # atno 11005 bound_to 11000
  145.4061  139.1588  143.4151 LP  0  0  0  0  0  0  0  0  0  0  0  0  # atno 17320 bound_to 7965
  146.2956  140.4162  142.8723 LP  0  0  0  0  0  0  0  0  0  0  0  0  # atno 17321 bound_to 7965
  140.4596  144.1740  150.5905 LP  0  0  0  0  0  0  0  0  0  0  0  0  # atno 17342 bound_to 10162
  140.4498  143.2491  151.9362 LP  0  0  0  0  0  0  0  0  0  0  0  0  # atno 17343 bound_to 10162
  156.8828  130.9562  151.3597 LP  0  0  0  0  0  0  0  0  0  0  0  0  # atno 17370 bound_to 10713
  157.6166  130.8623  149.9039 LP  0  0  0  0  0  0  0  0  0  0  0  0  # atno 17371 bound_to 10713
  140.2961  134.8202  157.4058 LP  0  0  0  0  0  0  0  0  0  0  0  0  # atno 17394 bound_to 11000
  140.1304  134.5103  155.8110 LP  0  0  0  0  0  0  0  0  0  0  0  0  # atno 17395 bound_to 11000

$$$$
