AV-unprocessed.smi:447|AV-procd|sdf|2599|dock10
  -GOLD-   2262022593D 1   1.00000     0.00000
 Structure written by MMmdl.
 45 47  0  0  0  0  0  0  0  0  1 V2000
  154.1883  136.5833  162.9647 C   0  0  0  0  0  0  0  0  0  0  0  0
  154.0409  136.7855  161.4602 C   0  0  0  0  0  0  0  0  0  0  0  0
  154.0647  135.8123  160.7077 O   0  0  0  0  0  0  0  0  0  0  0  0
  153.8864  138.0494  161.0349 N   0  0  0  0  0  0  0  0  0  0  0  0
  153.7080  138.4585  159.6419 C   0  0  2  0  0  0  0  0  0  0  0  0
  155.0177  138.2701  158.8656 C   0  0  0  0  0  0  0  0  0  0  0  0
  153.2324  139.8910  159.6040 C   0  0  0  0  0  0  0  0  0  0  0  0
  153.6931  140.8199  160.4471 N   0  0  0  0  0  0  0  0  0  0  0  0
  153.0096  141.9545  160.0600 C   0  0  0  0  0  0  0  0  0  0  0  0
  153.0492  143.2699  160.5750 C   0  0  0  0  0  0  0  0  0  0  0  0
  152.2492  144.2830  160.0073 C   0  0  0  0  0  0  0  0  0  0  0  0
  151.4001  143.9954  158.9191 C   0  0  0  0  0  0  0  0  0  0  0  0
  151.3470  142.6912  158.3905 C   0  0  0  0  0  0  0  0  0  0  0  0
  152.1477  141.6834  158.9610 C   0  0  0  0  0  0  0  0  0  0  0  0
  152.3307  140.3308  158.6883 N   0  0  0  0  0  0  0  0  0  0  0  0
  151.6768  139.5739  157.6287 C   0  0  0  0  0  0  0  0  0  0  0  0
  151.9151  140.1763  156.2294 C   0  0  1  0  0  0  0  0  0  0  0  0
  152.9099  139.4374  155.5477 O   0  0  0  0  0  0  0  0  0  0  0  0
  150.6196  140.2659  155.4390 C   0  0  0  0  0  0  0  0  0  0  0  0
  149.9428  141.4979  155.3010 C   0  0  0  0  0  0  0  0  0  0  0  0
  148.7469  141.5714  154.5603 C   0  0  0  0  0  0  0  0  0  0  0  0
  148.2230  140.4149  153.9514 C   0  0  0  0  0  0  0  0  0  0  0  0
  148.8962  139.1852  154.0820 C   0  0  0  0  0  0  0  0  0  0  0  0
  150.0919  139.1110  154.8225 C   0  0  0  0  0  0  0  0  0  0  0  0
  154.0615  137.5190  163.5104 H   0  0  0  0  0  0  0  0  0  0  0  0
  155.1760  136.1834  163.1950 H   0  0  0  0  0  0  0  0  0  0  0  0
  153.4406  135.8759  163.3241 H   0  0  0  0  0  0  0  0  0  0  0  0
  153.8692  138.7831  161.7282 H   0  0  0  0  0  0  0  0  0  0  0  0
  152.9595  137.8042  159.1955 H   0  0  0  0  0  0  0  0  0  0  0  0
  154.8909  138.5434  157.8177 H   0  0  0  0  0  0  0  0  0  0  0  0
  155.3476  137.2315  158.8980 H   0  0  0  0  0  0  0  0  0  0  0  0
  155.8166  138.8884  159.2761 H   0  0  0  0  0  0  0  0  0  0  0  0
  153.6959  143.4992  161.4089 H   0  0  0  0  0  0  0  0  0  0  0  0
  152.2865  145.2848  160.4097 H   0  0  0  0  0  0  0  0  0  0  0  0
  150.7884  144.7760  158.4910 H   0  0  0  0  0  0  0  0  0  0  0  0
  150.6947  142.4663  157.5598 H   0  0  0  0  0  0  0  0  0  0  0  0
  152.0366  138.5450  157.6627 H   0  0  0  0  0  0  0  0  0  0  0  0
  150.6098  139.5203  157.8462 H   0  0  0  0  0  0  0  0  0  0  0  0
  152.3095  141.1858  156.3388 H   0  0  0  0  0  0  0  0  0  0  0  0
  152.9365  138.5660  155.9123 H   0  0  0  0  0  0  0  0  0  0  0  0
  150.3397  142.3909  155.7616 H   0  0  0  0  0  0  0  0  0  0  0  0
  148.2321  142.5154  154.4584 H   0  0  0  0  0  0  0  0  0  0  0  0
  147.3062  140.4714  153.3832 H   0  0  0  0  0  0  0  0  0  0  0  0
  148.4958  138.2982  153.6132 H   0  0  0  0  0  0  0  0  0  0  0  0
  150.6031  138.1637  154.9153 H   0  0  0  0  0  0  0  0  0  0  0  0
  1  2  1  0  0  0  0
  1 25  1  0  0  0  0
  1 26  1  0  0  0  0
  1 27  1  0  0  0  0
  2  3  2  0  0  0  0
  2  4  1  0  0  0  0
  4  5  1  0  0  0  0
  4 28  1  0  0  0  0
  5  6  1  0  0  0  0
  5  7  1  0  0  0  0
  5 29  1  0  0  0  0
  6 30  1  0  0  0  0
  6 31  1  0  0  0  0
  6 32  1  0  0  0  0
  7 15  1  0  0  0  0
  7  8  2  0  0  0  0
  8  9  1  0  0  0  0
  9 14  2  0  0  0  0
  9 10  1  0  0  0  0
 10 11  2  0  0  0  0
 10 33  1  0  0  0  0
 11 12  1  0  0  0  0
 11 34  1  0  0  0  0
 12 13  2  0  0  0  0
 12 35  1  0  0  0  0
 13 14  1  0  0  0  0
 13 36  1  0  0  0  0
 14 15  1  0  0  0  0
 15 16  1  0  0  0  0
 16 17  1  0  0  0  0
 16 37  1  0  0  0  0
 16 38  1  0  0  0  0
 17 18  1  0  0  0  0
 17 19  1  0  0  0  0
 17 39  1  0  0  0  0
 18 40  1  0  0  0  0
 19 24  1  0  0  0  0
 19 20  2  0  0  0  0
 20 21  1  0  0  0  0
 20 41  1  0  0  0  0
 21 22  2  0  0  0  0
 21 42  1  0  0  0  0
 22 23  1  0  0  0  0
 22 43  1  0  0  0  0
 23 24  2  0  0  0  0
 23 44  1  0  0  0  0
 24 45  1  0  0  0  0
M  END
> <s_m_source_file>
AV-unprocessed.smi

> <i_m_source_file_index>
447

> <i_lp_mmshare_version>
43012

> <i_f3d_flags>
0

> <s_epik_input>
W0NIM11DKD1PKVtOSF1bQ0BIXShbQ0gzXSljKG4xKW4oYyhjMTIpW2NIXVtjSF1bY0hdW2NIXTIpW0NIMl1bQ0BIXShbT0hdKWMzW2NIXVtjSF1bY0hdW2NIXVtjSF0z

> <s_epik_cmdline>
J2VwaWtfcHl0aG9uJywgJy1waCcsICc3LjAnLCAnLXRuJywgJzgnLCAnLW1hJywgJzIwMCcsICctbWV0YWxfYmluZGluZycsICctaW1hZScsICc8aW5maWxlLm1hZT4nLCAnLW9tYWUnLCAnPG91dGZpbGUubWFlPic=

> <r_epik_Ionization_Penalty>
0.13301

> <r_epik_Ionization_Penalty_Charging>
0

> <r_epik_Ionization_Penalty_Neutral>
0.13301

> <r_epik_State_Penalty>
0.122384

> <r_epik_Charging_Adjusted_Penalty>
0.122384

> <i_epik_Tot_Q>
0

> <i_epik_Tot_abs_Q>
0

> <r_epik_Metal_State_Penalty>
0.0997374

> <b_epik_Metal_Only>
0

> <s_lp_Force_Field>
OPLS_2005

> <r_lp_Energy>
6.23771

> <b_lp_Chiralities_Consistent>
1

> <s_lp_Variant>
AV-unprocessed.smi:447-3

> <Gold.Version>
5.8.1

> <Gold.Id.Protein>
6NUR|6NUR_protein|mol2

> <Gold.PLP.Fitness>
52.6792

> <Gold.PLP.PLP>
-50.3694

> <Gold.PLP.part.hbond>
-2.0000

> <Gold.PLP.part.metal>
0.0000

> <Gold.PLP.part.buried>
-5.1072

> <Gold.PLP.part.nonpolar>
-43.6090

> <Gold.PLP.part.repulsive>
0.0389

> <Gold.PLP.ligand.clash>
0.0000

> <Gold.PLP.ligand.torsion>
1.8504

> <Gold.PLP.Chemscore.Hbond>
1.9913

> <Gold.PLP.Chemscore.CHOScore>
0.0000

> <Gold.PLP.Chemscore.Metal>
0.0000

> <Gold.Chemscore.Hbonds>
donor molecule, donor type, donor heavy atom, donor atom, acceptor molecule, acceptor atom, score
      P1  H  6896  6908       L1     3  0.81
      P1  H  7997  8008       L1    18  1.00

> <Gold.PLP.Chemscore.Internal.Correction>
0.0368

> <Gold.Rescore>
     Score         DG    S(hbond)    S(metal)    S(lipo)     H(rot)  DE(clash)    DE(int)     intcor
     19.32     -21.20       1.81        0.00     134.03       2.35       0.17       1.71       ----

> <Gold.Chemscore.Fitness>
19.3215

> <Gold.Chemscore.DG>
-21.1986

> <Gold.Chemscore.ZeroCoef>
-5.4800

> <Gold.Chemscore.Hbond>
1.8145

> <Gold.Chemscore.Metal>
0.0000

> <Gold.Chemscore.Lipo>
134.0271

> <Gold.Chemscore.Internal_Hbond>
0.0000

> <Gold.Chemscore.DEClash>
0.1663

> <Gold.Chemscore.DEInternal>
1.7107

> <Gold.Chemscore.Rot>
2.3528

> <Gold.Chemscore.Internal.Correction>
   9.000000E+99

> <Gold.Chemscore.Hbonds>
donor molecule, donor type, donor heavy atom, donor atom, acceptor molecule, acceptor atom, score
      P1  H  6896  6908       L1     3  0.79
      P1  H  7997  8008       L1    18  0.42

> <Gold.Chemscore.Hbond.Weighted>
-6.0605

> <Gold.Chemscore.Metal.Weighted>
-0.0000

> <Gold.Chemscore.Lipo.Weighted>
-15.6812

> <Gold.Chemscore.Internal_Hbond.Weighted>
0.0000

> <Gold.Chemscore.DEClash.Weighted>
0.1663

> <Gold.Chemscore.DEInternal.Weighted>
1.7107

> <Gold.Chemscore.Rot.Weighted>
6.0231

> <Gold.Chemscore.Internal.Correction.Weighted>
   9.000000E+99

> <Gold.Protein.RotatedTorsions>
[ 6907 6896 6895 6894 ] final  -73.82 input  -60.11 | X-H torsion
[ 7974 7965 7964 7962 ] final   95.51 input  175.53 | X-H torsion
[ 8008 7997 7996 7995 ] final  -12.15 input   59.86 | X-H torsion
[ 10167 10162 10161 10158 ] final   -6.25 input  -65.29 | X-H torsion
[ 10718 10713 10712 10709 ] final  -50.84 input   66.30 | X-H torsion
[ 10763 10752 10751 10750 ] final -151.79 input  -60.55 | X-H torsion
[ 11005 11000 10999 10996 ] final  149.10 input  -57.11 | X-H torsion

> <Gold.Protein.ActiveResidues>
 VAL166  LYS551  ARG553  GLY616  TRP617  ASP618  TYR619  PRO620  LYS621  CYS622 
 ASP623  PHE694  ASN695  SER759  ASP760  ASP761  ALA762  ILE779  LEU786  VAL792 
 PHE793  MET794  SER795  GLU796  ALA797  LYS798  CYS799  TRP800  GLU811  SER814 

> <Gold.Protein.RotatedAtoms>
  150.7116  134.4960  159.5538 H   0  0  0  0  0  0  0  0  0  0  0  0  # atno 6907 bound_to 6896
  152.2568  134.8073  160.0446 H   0  0  0  0  0  0  0  0  0  0  0  0  # atno 6908 bound_to 6896
  151.8801  133.3458  159.3800 H   0  0  0  0  0  0  0  0  0  0  0  0  # atno 6909 bound_to 6896
  145.4512  139.2293  143.3039 H   0  0  0  0  0  0  0  0  0  0  0  0  # atno 7974 bound_to 7965
  154.5402  140.2283  155.8654 H   0  0  0  0  0  0  0  0  0  0  0  0  # atno 8008 bound_to 7997
  156.1851  140.3091  155.9185 H   0  0  0  0  0  0  0  0  0  0  0  0  # atno 8009 bound_to 7997
  155.3273  140.0443  157.3032 H   0  0  0  0  0  0  0  0  0  0  0  0  # atno 8010 bound_to 7997
  140.6991  143.6215  150.8608 H   0  0  0  0  0  0  0  0  0  0  0  0  # atno 10167 bound_to 10162
  156.1764  130.4150  149.9570 H   0  0  0  0  0  0  0  0  0  0  0  0  # atno 10718 bound_to 10713
  154.8035  135.3251  154.7489 H   0  0  0  0  0  0  0  0  0  0  0  0  # atno 10763 bound_to 10752
  153.8153  135.6892  153.4839 H   0  0  0  0  0  0  0  0  0  0  0  0  # atno 10764 bound_to 10752
  153.1766  135.4602  154.9918 H   0  0  0  0  0  0  0  0  0  0  0  0  # atno 10765 bound_to 10752
  140.1016  134.8980  157.1804 H   0  0  0  0  0  0  0  0  0  0  0  0  # atno 11005 bound_to 11000
  146.2503  140.5271  142.8896 LP  0  0  0  0  0  0  0  0  0  0  0  0  # atno 17320 bound_to 7965
  144.8060  140.6301  143.6446 LP  0  0  0  0  0  0  0  0  0  0  0  0  # atno 17321 bound_to 7965
  139.9936  143.5820  152.2901 LP  0  0  0  0  0  0  0  0  0  0  0  0  # atno 17342 bound_to 10162
  139.6484  144.7659  151.2196 LP  0  0  0  0  0  0  0  0  0  0  0  0  # atno 17343 bound_to 10162
  156.7355  130.9059  151.3628 LP  0  0  0  0  0  0  0  0  0  0  0  0  # atno 17370 bound_to 10713
  157.6839  130.9166  150.0335 LP  0  0  0  0  0  0  0  0  0  0  0  0  # atno 17371 bound_to 10713
  140.3212  134.2914  155.7246 LP  0  0  0  0  0  0  0  0  0  0  0  0  # atno 17394 bound_to 11000
  141.2107  133.7711  156.9914 LP  0  0  0  0  0  0  0  0  0  0  0  0  # atno 17395 bound_to 11000

$$$$
