AV-unprocessed.smi:1406|AV-procd|sdf|5720|dock5
  -GOLD-   22720 5353D 1   1.00000     0.00000
 Structure written by MMmdl.
 41 43  0  0  0  0  0  0  0  0  2 V2000
  147.7590  137.0589  155.1837 C   0  0  0  0  0  0  0  0  0  0  0  0
  149.2137  136.6087  155.4275 C   0  0  1  0  0  0  0  0  0  0  0  0
  149.5138  135.2169  154.8477 C   0  0  0  0  0  0  0  0  0  0  0  0
  150.5497  134.6202  155.1436 O   0  0  0  0  0  0  0  0  0  0  0  0
  148.5918  134.7096  154.0140 N   0  0  0  0  0  0  0  0  0  0  0  0
  148.6651  133.3998  153.3741 C   0  0  1  0  0  0  0  0  0  0  0  0
  148.9112  132.2579  154.3759 C   0  0  0  0  0  0  0  0  0  0  0  0
  148.0713  131.0729  153.8592 C   0  0  0  0  0  0  0  0  0  0  0  0
  147.4836  131.5350  152.5875 N   0  3  1  0  0  0  0  0  0  0  0  0
  146.2383  130.8738  152.1406 C   0  0  0  0  0  0  0  0  0  0  0  0
  145.8357  131.4299  150.7600 C   0  0  0  0  0  0  0  0  0  0  0  0
  145.7477  132.9696  150.7673 C   0  0  0  0  0  0  0  0  0  0  0  0
  147.0364  133.5987  151.3309 C   0  0  0  0  0  0  0  0  0  0  0  0
  147.3457  132.9941  152.7114 C   0  0  2  0  0  0  0  0  0  0  0  0
  150.1779  137.5827  154.9309 N   0  0  0  0  0  0  0  0  0  0  0  0
  149.9846  138.8101  154.4427 C   0  0  0  0  0  0  0  0  0  0  0  0
  151.1032  139.4445  154.1214 N   0  0  0  0  0  0  0  0  0  0  0  0
  152.0153  138.4879  154.4668 C   0  0  0  0  0  0  0  0  0  0  0  0
  151.5151  137.3577  154.9661 N   0  0  0  0  0  0  0  0  0  0  0  0
  147.0503  136.3473  155.6089 H   0  0  0  0  0  0  0  0  0  0  0  0
  147.5323  137.1563  154.1211 H   0  0  0  0  0  0  0  0  0  0  0  0
  147.5689  138.0259  155.6505 H   0  0  0  0  0  0  0  0  0  0  0  0
  149.3530  136.5427  156.5079 H   0  0  0  0  0  0  0  0  0  0  0  0
  147.7701  135.2653  153.8248 H   0  0  0  0  0  0  0  0  0  0  0  0
  149.4659  133.3805  152.6317 H   0  0  0  0  0  0  0  0  0  0  0  0
  149.9716  132.0098  154.4348 H   0  0  0  0  0  0  0  0  0  0  0  0
  148.5832  132.5303  155.3802 H   0  0  0  0  0  0  0  0  0  0  0  0
  148.6696  130.1747  153.7038 H   0  0  0  0  0  0  0  0  0  0  0  0
  147.2816  130.8347  154.5735 H   0  0  0  0  0  0  0  0  0  0  0  0
  146.3963  129.7963  152.0808 H   0  0  0  0  0  0  0  0  0  0  0  0
  145.4439  131.0445  152.8687 H   0  0  0  0  0  0  0  0  0  0  0  0
  146.5709  131.1165  150.0174 H   0  0  0  0  0  0  0  0  0  0  0  0
  144.8825  131.0023  150.4477 H   0  0  0  0  0  0  0  0  0  0  0  0
  145.5587  133.3403  149.7592 H   0  0  0  0  0  0  0  0  0  0  0  0
  144.8968  133.2805  151.3752 H   0  0  0  0  0  0  0  0  0  0  0  0
  147.8677  133.4214  150.6470 H   0  0  0  0  0  0  0  0  0  0  0  0
  146.9171  134.6798  151.4063 H   0  0  0  0  0  0  0  0  0  0  0  0
  146.5205  133.2088  153.3949 H   0  0  0  0  0  0  0  0  0  0  0  0
  149.0055  139.2507  154.3239 H   0  0  0  0  0  0  0  0  0  0  0  0
  153.0797  138.6315  154.3534 H   0  0  0  0  0  0  0  0  0  0  0  0
  148.1813  131.3750  151.8747 H   0  0  0  0  0  0  0  0  0  0  0  0
  1  2  1  0  0  0  0
  1 20  1  0  0  0  0
  1 21  1  0  0  0  0
  1 22  1  0  0  0  0
  2  3  1  0  0  0  0
  2 15  1  0  0  0  0
  2 23  1  0  0  0  0
  3  4  2  0  0  0  0
  3  5  1  0  0  0  0
  5  6  1  0  0  0  0
  5 24  1  0  0  0  0
  6 14  1  0  0  0  0
  6  7  1  0  0  0  0
  6 25  1  0  0  0  0
  7  8  1  0  0  0  0
  7 26  1  0  0  0  0
  7 27  1  0  0  0  0
  8  9  1  0  0  0  0
  8 28  1  0  0  0  0
  8 29  1  0  0  0  0
  9 14  1  0  0  0  0
  9 10  1  0  0  0  0
  9 41  1  0  0  0  0
 10 11  1  0  0  0  0
 10 30  1  0  0  0  0
 10 31  1  0  0  0  0
 11 12  1  0  0  0  0
 11 32  1  0  0  0  0
 11 33  1  0  0  0  0
 12 13  1  0  0  0  0
 12 34  1  0  0  0  0
 12 35  1  0  0  0  0
 13 14  1  0  0  0  0
 13 36  1  0  0  0  0
 13 37  1  0  0  0  0
 14 38  1  0  0  0  0
 15 19  1  0  0  0  0
 15 16  1  0  0  0  0
 16 17  2  0  0  0  0
 16 39  1  0  0  0  0
 17 18  1  0  0  0  0
 18 19  2  0  0  0  0
 18 40  1  0  0  0  0
M  CHG  1   9   1
M  END
> <s_m_source_file>
AV-unprocessed.smi

> <i_m_source_file_index>
1406

> <i_lp_mmshare_version>
43012

> <i_f3d_flags>
0

> <s_epik_input>
bjFbY0hdbltjSF1uMVtDQEhdKFtDSDNdKUMoPU8pW05IXVtDQEhdKFtDSDJdW0NIMl0yKVtDQEBIXShOMjMpW0NIMl1bQ0gyXVtDSDJdW0NIMl0z

> <s_epik_cmdline>
J2VwaWtfcHl0aG9uJywgJy1waCcsICc3LjAnLCAnLXRuJywgJzgnLCAnLW1hJywgJzIwMCcsICctbWV0YWxfYmluZGluZycsICctaW1hZScsICc8aW5maWxlLm1hZT4nLCAnLW9tYWUnLCAnPG91dGZpbGUubWFlPic=

> <r_lp_tautomer_probability>
1

> <r_epik_Ionization_Penalty>
0.00197066

> <r_epik_Ionization_Penalty_Charging>
0.00196223

> <r_epik_Ionization_Penalty_Neutral>
8.43107e-06

> <r_epik_State_Penalty>
0.00133866

> <r_epik_Charging_Adjusted_Penalty>
0.00330089

> <i_epik_Tot_Q>
1

> <i_epik_Tot_abs_Q>
1

> <r_epik_Metal_State_Penalty>
-0

> <b_epik_Metal_Only>
0

> <s_lp_Force_Field>
OPLS_2005

> <r_lp_Energy>
39.8871

> <b_lp_Chiralities_Consistent>
1

> <s_lp_Variant>
AV-unprocessed.smi:1406-12

> <Gold.Version>
5.8.1

> <Gold.Id.Protein>
6NUR|6NUR_protein|mol2

> <Gold.PLP.Fitness>
41.7008

> <Gold.PLP.PLP>
-33.4478

> <Gold.PLP.part.hbond>
-4.0000

> <Gold.PLP.part.metal>
0.0000

> <Gold.PLP.part.buried>
-3.1071

> <Gold.PLP.part.nonpolar>
-25.3587

> <Gold.PLP.part.repulsive>
0.3220

> <Gold.PLP.ligand.clash>
0.0000

> <Gold.PLP.ligand.torsion>
0.4273

> <Gold.PLP.Chemscore.Hbond>
3.0000

> <Gold.PLP.Chemscore.CHOScore>
0.0000

> <Gold.PLP.Chemscore.Metal>
0.0000

> <Gold.Chemscore.Hbonds>
donor molecule, donor type, donor heavy atom, donor atom, acceptor molecule, acceptor atom, score
      L1  H     9    41       P1 10747  1.00
      P1  H  7989  7998       L1    17  1.00
      P1  H 10752 10763       L1    19  0.36

> <Gold.PLP.Chemscore.Internal.Correction>
0.1075

> <Gold.Rescore>
     Score         DG    S(hbond)    S(metal)    S(lipo)     H(rot)  DE(clash)    DE(int)     intcor
     13.40     -15.07       2.35        0.00      56.28       1.89       0.12       1.55       ----

> <Gold.Chemscore.Fitness>
13.4016

> <Gold.Chemscore.DG>
-15.0731

> <Gold.Chemscore.ZeroCoef>
-5.4800

> <Gold.Chemscore.Hbond>
2.3467

> <Gold.Chemscore.Metal>
0.0000

> <Gold.Chemscore.Lipo>
56.2785

> <Gold.Chemscore.Internal_Hbond>
0.0000

> <Gold.Chemscore.DEClash>
0.1214

> <Gold.Chemscore.DEInternal>
1.5501

> <Gold.Chemscore.Rot>
1.8865

> <Gold.Chemscore.Internal.Correction>
   9.000000E+99

> <Gold.Chemscore.Hbonds>
donor molecule, donor type, donor heavy atom, donor atom, acceptor molecule, acceptor atom, score
      L1  H     9    41       P1 10747  1.00
      P1  H  7989  7998       L1    17  0.96
      P1  H 10752 10763       L1    19  0.25

> <Gold.Chemscore.Hbond.Weighted>
-7.8381

> <Gold.Chemscore.Metal.Weighted>
-0.0000

> <Gold.Chemscore.Lipo.Weighted>
-6.5846

> <Gold.Chemscore.Internal_Hbond.Weighted>
0.0000

> <Gold.Chemscore.DEClash.Weighted>
0.1214

> <Gold.Chemscore.DEInternal.Weighted>
1.5501

> <Gold.Chemscore.Rot.Weighted>
4.8295

> <Gold.Chemscore.Internal.Correction.Weighted>
   9.000000E+99

> <Gold.Protein.RotatedTorsions>
[ 6907 6896 6895 6894 ] final  133.25 input  -60.11 | X-H torsion
[ 7974 7965 7964 7962 ] final   53.42 input  175.53 | X-H torsion
[ 8008 7997 7996 7995 ] final  -33.66 input   59.86 | X-H torsion
[ 10167 10162 10161 10158 ] final  -55.12 input  -65.29 | X-H torsion
[ 10718 10713 10712 10709 ] final   55.77 input   66.30 | X-H torsion
[ 10763 10752 10751 10750 ] final   56.25 input  -60.55 | X-H torsion
[ 11005 11000 10999 10996 ] final   55.68 input  -57.11 | X-H torsion

> <Gold.Protein.ActiveResidues>
 VAL166  LYS551  ARG553  GLY616  TRP617  ASP618  TYR619  PRO620  LYS621  CYS622 
 ASP623  PHE694  ASN695  SER759  ASP760  ASP761  ALA762  ILE779  LEU786  VAL792 
 PHE793  MET794  SER795  GLU796  ALA797  LYS798  CYS799  TRP800  GLU811  SER814 

> <Gold.Protein.RotatedAtoms>
  152.3239  133.5883  159.5762 H   0  0  0  0  0  0  0  0  0  0  0  0  # atno 6907 bound_to 6896
  150.7386  133.9970  159.3634 H   0  0  0  0  0  0  0  0  0  0  0  0  # atno 6908 bound_to 6896
  151.7852  135.0751  160.0430 H   0  0  0  0  0  0  0  0  0  0  0  0  # atno 6909 bound_to 6896
  145.9713  139.4152  143.0188 H   0  0  0  0  0  0  0  0  0  0  0  0  # atno 7974 bound_to 7965
  154.4142  140.1705  156.1923 H   0  0  0  0  0  0  0  0  0  0  0  0  # atno 8008 bound_to 7997
  155.9593  140.3395  155.6452 H   0  0  0  0  0  0  0  0  0  0  0  0  # atno 8009 bound_to 7997
  155.6769  140.0718  157.2490 H   0  0  0  0  0  0  0  0  0  0  0  0  # atno 8010 bound_to 7997
  140.6392  143.2499  151.5034 H   0  0  0  0  0  0  0  0  0  0  0  0  # atno 10167 bound_to 10162
  157.5374  130.8673  149.8773 H   0  0  0  0  0  0  0  0  0  0  0  0  # atno 10718 bound_to 10713
  152.9829  135.5683  154.5198 H   0  0  0  0  0  0  0  0  0  0  0  0  # atno 10763 bound_to 10752
  154.4688  135.2784  155.1660 H   0  0  0  0  0  0  0  0  0  0  0  0  # atno 10764 bound_to 10752
  154.3217  135.6267  153.5564 H   0  0  0  0  0  0  0  0  0  0  0  0  # atno 10765 bound_to 10752
  140.0588  134.5631  155.9176 H   0  0  0  0  0  0  0  0  0  0  0  0  # atno 11005 bound_to 11000
  145.7902  140.9818  143.1053 LP  0  0  0  0  0  0  0  0  0  0  0  0  # atno 17320 bound_to 7965
  144.6837  139.9673  143.7481 LP  0  0  0  0  0  0  0  0  0  0  0  0  # atno 17321 bound_to 7965
  139.5602  144.2176  152.1678 LP  0  0  0  0  0  0  0  0  0  0  0  0  # atno 17342 bound_to 10162
  140.1441  144.5175  150.6726 LP  0  0  0  0  0  0  0  0  0  0  0  0  # atno 17343 bound_to 10162
  156.0469  130.3726  150.1295 LP  0  0  0  0  0  0  0  0  0  0  0  0  # atno 17370 bound_to 10713
  156.9476  130.9764  151.3504 LP  0  0  0  0  0  0  0  0  0  0  0  0  # atno 17371 bound_to 10713
  141.1964  133.6591  156.5690 LP  0  0  0  0  0  0  0  0  0  0  0  0  # atno 17394 bound_to 11000
  140.3802  134.7530  157.4656 LP  0  0  0  0  0  0  0  0  0  0  0  0  # atno 17395 bound_to 11000

$$$$
