AV-unprocessed.smi:1082|AV-procd|sdf|4713|dock2
  -GOLD-   22720 3233D 1   1.00000     0.00000
 Structure written by MMmdl.
 49 51  0  0  0  0  0  0  0  0  3 V2000
  146.6011  137.1328  153.5993 O   0  0  0  0  0  0  0  0  0  0  0  0
  145.8542  138.0183  153.1837 C   0  0  0  0  0  0  0  0  0  0  0  0
  144.7019  137.7730  152.5463 N   0  0  0  0  0  0  0  0  0  0  0  0
  144.1888  136.4400  152.2603 C   0  0  0  0  0  0  0  0  0  0  0  0
  144.9509  135.8118  151.0827 C   0  0  0  0  0  0  0  0  0  0  0  0
  144.9778  134.3314  151.1531 N   0  3  0  0  0  0  0  0  0  0  0  0
  143.6356  133.7037  151.2247 C   0  0  0  0  0  0  0  0  0  0  0  0
  143.6120  132.5781  150.1843 C   0  0  0  0  0  0  0  0  0  0  0  0
  145.0833  132.2903  149.9137 C   0  0  0  0  0  0  0  0  0  0  0  0
  145.7252  133.6660  150.0625 C   0  0  0  0  0  0  0  0  0  0  0  0
  146.0848  139.3380  153.2844 N   0  0  0  0  0  0  0  0  0  0  0  0
  147.2119  139.9916  153.8586 C   0  0  0  0  0  0  0  0  0  0  0  0
  148.4972  139.3944  153.9118 C   0  0  0  0  0  0  0  0  0  0  0  0
  149.5657  140.0892  154.5128 C   0  0  0  0  0  0  0  0  0  0  0  0
  149.3332  141.3655  155.0581 C   0  0  0  0  0  0  0  0  0  0  0  0
  148.0956  141.9006  155.0041 N   0  3  0  0  0  0  0  0  0  0  0  0
  147.0342  141.2725  154.4408 C   0  0  0  0  0  0  0  0  0  0  0  0
  145.7882  141.9235  154.4357 N   0  0  0  0  0  0  0  0  0  0  0  0
  145.2040  142.1417  155.7561 C   0  0  0  0  0  0  0  0  0  0  0  0
  144.4809  143.4862  155.6830 C   0  0  0  0  0  0  0  0  0  0  0  0
  145.3228  144.2627  154.6791 C   0  0  0  0  0  0  0  0  0  0  0  0
  145.7604  143.1796  153.6919 C   0  0  0  0  0  0  0  0  0  0  0  0
  144.1481  138.5572  152.2340 H   0  0  0  0  0  0  0  0  0  0  0  0
  144.2895  135.8252  153.1560 H   0  0  0  0  0  0  0  0  0  0  0  0
  143.1243  136.5022  152.0279 H   0  0  0  0  0  0  0  0  0  0  0  0
  144.4637  136.1045  150.1512 H   0  0  0  0  0  0  0  0  0  0  0  0
  145.9717  136.1951  151.0378 H   0  0  0  0  0  0  0  0  0  0  0  0
  143.4984  133.3025  152.2293 H   0  0  0  0  0  0  0  0  0  0  0  0
  142.8293  134.4158  151.0422 H   0  0  0  0  0  0  0  0  0  0  0  0
  143.0636  131.6990  150.5240 H   0  0  0  0  0  0  0  0  0  0  0  0
  143.1364  132.9345  149.2695 H   0  0  0  0  0  0  0  0  0  0  0  0
  145.4755  131.6100  150.6710 H   0  0  0  0  0  0  0  0  0  0  0  0
  145.2574  131.8443  148.9341 H   0  0  0  0  0  0  0  0  0  0  0  0
  145.6040  134.2243  149.1326 H   0  0  0  0  0  0  0  0  0  0  0  0
  146.7915  133.6055  150.2825 H   0  0  0  0  0  0  0  0  0  0  0  0
  145.4262  139.9422  152.8152 H   0  0  0  0  0  0  0  0  0  0  0  0
  148.6798  138.4079  153.5135 H   0  0  0  0  0  0  0  0  0  0  0  0
  150.5497  139.6458  154.5583 H   0  0  0  0  0  0  0  0  0  0  0  0
  150.0919  141.9677  155.5370 H   0  0  0  0  0  0  0  0  0  0  0  0
  144.5167  141.3350  156.0122 H   0  0  0  0  0  0  0  0  0  0  0  0
  145.9746  142.1748  156.5278 H   0  0  0  0  0  0  0  0  0  0  0  0
  143.4723  143.3469  155.2907 H   0  0  0  0  0  0  0  0  0  0  0  0
  144.4031  143.9814  156.6514 H   0  0  0  0  0  0  0  0  0  0  0  0
  144.7780  145.0776  154.2020 H   0  0  0  0  0  0  0  0  0  0  0  0
  146.1964  144.6851  155.1779 H   0  0  0  0  0  0  0  0  0  0  0  0
  146.7162  143.4245  153.2263 H   0  0  0  0  0  0  0  0  0  0  0  0
  145.0252  143.0805  152.8928 H   0  0  0  0  0  0  0  0  0  0  0  0
  145.4431  134.0806  152.0141 H   0  0  0  0  0  0  0  0  0  0  0  0
  147.9517  142.8254  155.4102 H   0  0  0  0  0  0  0  0  0  0  0  0
  1  2  2  0  0  0  0
  2  3  1  0  0  0  0
  2 11  1  0  0  0  0
  3  4  1  0  0  0  0
  3 23  1  0  0  0  0
  4  5  1  0  0  0  0
  4 24  1  0  0  0  0
  4 25  1  0  0  0  0
  5  6  1  0  0  0  0
  5 26  1  0  0  0  0
  5 27  1  0  0  0  0
  6 10  1  0  0  0  0
  6  7  1  0  0  0  0
  6 48  1  0  0  0  0
  7  8  1  0  0  0  0
  7 28  1  0  0  0  0
  7 29  1  0  0  0  0
  8  9  1  0  0  0  0
  8 30  1  0  0  0  0
  8 31  1  0  0  0  0
  9 10  1  0  0  0  0
  9 32  1  0  0  0  0
  9 33  1  0  0  0  0
 10 34  1  0  0  0  0
 10 35  1  0  0  0  0
 11 12  1  0  0  0  0
 11 36  1  0  0  0  0
 12 17  1  0  0  0  0
 12 13  2  0  0  0  0
 13 14  1  0  0  0  0
 13 37  1  0  0  0  0
 14 15  2  0  0  0  0
 14 38  1  0  0  0  0
 15 16  1  0  0  0  0
 15 39  1  0  0  0  0
 16 17  2  0  0  0  0
 16 49  1  0  0  0  0
 17 18  1  0  0  0  0
 18 22  1  0  0  0  0
 18 19  1  0  0  0  0
 19 20  1  0  0  0  0
 19 40  1  0  0  0  0
 19 41  1  0  0  0  0
 20 21  1  0  0  0  0
 20 42  1  0  0  0  0
 20 43  1  0  0  0  0
 21 22  1  0  0  0  0
 21 44  1  0  0  0  0
 21 45  1  0  0  0  0
 22 46  1  0  0  0  0
 22 47  1  0  0  0  0
M  CHG  1   6   1
M  CHG  1  16   1
M  END
> <s_m_source_file>
AV-unprocessed.smi

> <i_m_source_file_index>
1082

> <i_lp_mmshare_version>
43012

> <i_f3d_flags>
0

> <s_epik_input>
W0NIMl0xW0NIMl1bQ0gyXVtDSDJdTjFbQ0gyXVtDSDJdW05IXUMoPU8pW05IXWMyW2NIXVtjSF1bY0hdbmMyTjNbQ0gyXVtDSDJdW0NIMl1bQ0gyXTM=

> <s_epik_cmdline>
J2VwaWtfcHl0aG9uJywgJy1waCcsICc3LjAnLCAnLXRuJywgJzgnLCAnLW1hJywgJzIwMCcsICctbWV0YWxfYmluZGluZycsICctaW1hZScsICc8aW5maWxlLm1hZT4nLCAnLW9tYWUnLCAnPG91dGZpbGUubWFlPic=

> <r_lp_tautomer_probability>
0.999994

> <r_epik_Ionization_Penalty>
1.21588

> <r_epik_Ionization_Penalty_Charging>
1.21586

> <r_epik_Ionization_Penalty_Neutral>
1.99004e-05

> <r_epik_State_Penalty>
1.28011

> <r_epik_Charging_Adjusted_Penalty>
2.49596

> <i_epik_Tot_Q>
2

> <i_epik_Tot_abs_Q>
2

> <r_epik_Metal_State_Penalty>
1.35385

> <b_epik_Metal_Only>
0

> <s_lp_Force_Field>
OPLS_2005

> <r_lp_Energy>
65.6653

> <b_lp_Chiralities_Consistent>
1

> <s_lp_Variant>
AV-unprocessed.smi:1082-2

> <Gold.Version>
5.8.1

> <Gold.Id.Protein>
6NUR|6NUR_protein|mol2

> <Gold.PLP.Fitness>
49.5707

> <Gold.PLP.PLP>
-38.4396

> <Gold.PLP.part.hbond>
-3.6743

> <Gold.PLP.part.metal>
0.0000

> <Gold.PLP.part.buried>
-6.8607

> <Gold.PLP.part.nonpolar>
-28.2076

> <Gold.PLP.part.repulsive>
0.4687

> <Gold.PLP.ligand.clash>
0.0000

> <Gold.PLP.ligand.torsion>
0.4786

> <Gold.PLP.Chemscore.Hbond>
3.9920

> <Gold.PLP.Chemscore.CHOScore>
0.0000

> <Gold.PLP.Chemscore.Metal>
0.0000

> <Gold.Chemscore.Hbonds>
donor molecule, donor type, donor heavy atom, donor atom, acceptor molecule, acceptor atom, score
      L1  H     3    23       P1 10175  0.98
      L1  H    11    36       P1 10175  1.00
      L1  H    16    49       P1  8028  1.40

> <Gold.PLP.Chemscore.Internal.Correction>
0.1124

> <Gold.Rescore>
     Score         DG    S(hbond)    S(metal)    S(lipo)     H(rot)  DE(clash)    DE(int)     intcor
     17.89     -21.31       2.81        0.00      90.78       1.63       1.51       1.92       ----

> <Gold.Chemscore.Fitness>
17.8874

> <Gold.Chemscore.DG>
-21.3118

> <Gold.Chemscore.ZeroCoef>
-5.4800

> <Gold.Chemscore.Hbond>
2.8111

> <Gold.Chemscore.Metal>
0.0000

> <Gold.Chemscore.Lipo>
90.7807

> <Gold.Chemscore.Internal_Hbond>
0.0000

> <Gold.Chemscore.DEClash>
1.5088

> <Gold.Chemscore.DEInternal>
1.9155

> <Gold.Chemscore.Rot>
1.6323

> <Gold.Chemscore.Internal.Correction>
   9.000000E+99

> <Gold.Chemscore.Hbonds>
donor molecule, donor type, donor heavy atom, donor atom, acceptor molecule, acceptor atom, score
      L1  H     3    23       P1 10175  0.92
      L1  H    11    36       P1 10175  0.95
      L1  H    16    49       P1  8028  0.58

> <Gold.Chemscore.Hbond.Weighted>
-9.3890

> <Gold.Chemscore.Metal.Weighted>
-0.0000

> <Gold.Chemscore.Lipo.Weighted>
-10.6213

> <Gold.Chemscore.Internal_Hbond.Weighted>
0.0000

> <Gold.Chemscore.DEClash.Weighted>
1.5088

> <Gold.Chemscore.DEInternal.Weighted>
1.9155

> <Gold.Chemscore.Rot.Weighted>
4.1786

> <Gold.Chemscore.Internal.Correction.Weighted>
   9.000000E+99

> <Gold.Protein.RotatedTorsions>
[ 6907 6896 6895 6894 ] final  -14.84 input  -60.11 | X-H torsion
[ 7974 7965 7964 7962 ] final -174.93 input  175.53 | X-H torsion
[ 8008 7997 7996 7995 ] final   -1.01 input   59.86 | X-H torsion
[ 10167 10162 10161 10158 ] final  138.94 input  -65.29 | X-H torsion
[ 10718 10713 10712 10709 ] final -122.13 input   66.30 | X-H torsion
[ 10763 10752 10751 10750 ] final -153.51 input  -60.55 | X-H torsion
[ 11005 11000 10999 10996 ] final  116.98 input  -57.11 | X-H torsion

> <Gold.Protein.ActiveResidues>
 VAL166  LYS551  ARG553  GLY616  TRP617  ASP618  TYR619  PRO620  LYS621  CYS622 
 ASP623  PHE694  ASN695  SER759  ASP760  ASP761  ALA762  ILE779  LEU786  VAL792 
 PHE793  MET794  SER795  GLU796  ALA797  LYS798  CYS799  TRP800  GLU811  SER814 

> <Gold.Protein.RotatedAtoms>
  151.3331  135.0846  159.9345 H   0  0  0  0  0  0  0  0  0  0  0  0  # atno 6907 bound_to 6896
  152.5230  133.9522  159.7688 H   0  0  0  0  0  0  0  0  0  0  0  0  # atno 6908 bound_to 6896
  150.9865  133.6140  159.2744 H   0  0  0  0  0  0  0  0  0  0  0  0  # atno 6909 bound_to 6896
  144.7130  140.1397  143.6392 H   0  0  0  0  0  0  0  0  0  0  0  0  # atno 7974 bound_to 7965
  154.6515  140.2570  155.7208 H   0  0  0  0  0  0  0  0  0  0  0  0  # atno 8008 bound_to 7997
  156.2577  140.2867  156.0872 H   0  0  0  0  0  0  0  0  0  0  0  0  # atno 8009 bound_to 7997
  155.1443  140.0381  157.2796 H   0  0  0  0  0  0  0  0  0  0  0  0  # atno 8010 bound_to 7997
  139.5094  144.6324  151.5784 H   0  0  0  0  0  0  0  0  0  0  0  0  # atno 10167 bound_to 10162
  156.1393  130.6454  150.9746 H   0  0  0  0  0  0  0  0  0  0  0  0  # atno 10718 bound_to 10713
  154.7923  135.3211  154.7749 H   0  0  0  0  0  0  0  0  0  0  0  0  # atno 10763 bound_to 10752
  153.8436  135.6868  153.4804 H   0  0  0  0  0  0  0  0  0  0  0  0  # atno 10764 bound_to 10752
  153.1598  135.4665  154.9696 H   0  0  0  0  0  0  0  0  0  0  0  0  # atno 10765 bound_to 10752
  139.9059  134.9605  156.7281 H   0  0  0  0  0  0  0  0  0  0  0  0  # atno 11005 bound_to 11000
  145.9213  139.2547  143.1380 LP  0  0  0  0  0  0  0  0  0  0  0  0  # atno 17320 bound_to 7965
  145.9617  140.8830  143.0207 LP  0  0  0  0  0  0  0  0  0  0  0  0  # atno 17321 bound_to 7965
  140.6061  143.9521  150.6420 LP  0  0  0  0  0  0  0  0  0  0  0  0  # atno 17342 bound_to 10162
  140.2749  143.3430  152.1204 LP  0  0  0  0  0  0  0  0  0  0  0  0  # atno 17343 bound_to 10162
  157.6561  131.0889  150.7943 LP  0  0  0  0  0  0  0  0  0  0  0  0  # atno 17370 bound_to 10713
  156.8020  130.4924  149.5368 LP  0  0  0  0  0  0  0  0  0  0  0  0  # atno 17371 bound_to 10713
  140.6947  133.9359  155.7987 LP  0  0  0  0  0  0  0  0  0  0  0  0  # atno 17394 bound_to 11000
  141.0416  134.0613  157.3895 LP  0  0  0  0  0  0  0  0  0  0  0  0  # atno 17395 bound_to 11000

$$$$
