AV-unprocessed.smi:844|AV-procd|sdf|3924|dock8
  -GOLD-   22720 1383D 1   1.00000     0.00000
 Structure written by MMmdl.
 32 34  0  0  0  0  0  0  0  0  1 V2000
  152.5715  139.2930  159.4875 O   0  0  0  0  0  0  0  0  0  0  0  0
  152.0763  140.1323  158.4637 C   0  0  1  0  0  0  0  0  0  0  0  0
  150.6996  139.5935  158.0262 C   0  0  0  0  0  0  0  0  0  0  0  0
  150.3558  139.9972  156.6744 N   0  0  0  0  0  0  0  0  0  0  0  0
  151.0717  139.7737  155.5557 C   0  0  0  0  0  0  0  0  0  0  0  0
  150.5800  140.2438  154.4128 N   0  0  0  0  0  0  0  0  0  0  0  0
  149.4073  140.8434  154.8392 C   0  0  0  0  0  0  0  0  0  0  0  0
  148.4152  141.5382  154.1111 C   0  0  0  0  0  0  0  0  0  0  0  0
  147.2903  142.0763  154.7706 C   0  0  0  0  0  0  0  0  0  0  0  0
  147.1391  141.9272  156.1646 C   0  0  0  0  0  0  0  0  0  0  0  0
  148.1135  141.2372  156.9107 C   0  0  0  0  0  0  0  0  0  0  0  0
  149.2355  140.7036  156.2495 C   0  0  0  0  0  0  0  0  0  0  0  0
  152.0170  141.5945  158.8933 C   0  0  0  0  0  0  0  0  0  0  0  0
  151.1321  142.4901  158.2518 C   0  0  0  0  0  0  0  0  0  0  0  0
  151.0930  143.8461  158.6287 C   0  0  0  0  0  0  0  0  0  0  0  0
  151.9394  144.3179  159.6493 C   0  0  0  0  0  0  0  0  0  0  0  0
  151.9029  145.6223  160.0107 F   0  0  0  0  0  0  0  0  0  0  0  0
  152.8252  143.4326  160.2923 C   0  0  0  0  0  0  0  0  0  0  0  0
  152.8665  142.0757  159.9165 C   0  0  0  0  0  0  0  0  0  0  0  0
  153.7352  141.2415  160.5369 F   0  0  0  0  0  0  0  0  0  0  0  0
  151.8778  138.7118  159.7597 H   0  0  0  0  0  0  0  0  0  0  0  0
  152.7741  140.0335  157.6315 H   0  0  0  0  0  0  0  0  0  0  0  0
  150.6959  138.5029  158.0591 H   0  0  0  0  0  0  0  0  0  0  0  0
  149.9152  139.9274  158.7067 H   0  0  0  0  0  0  0  0  0  0  0  0
  152.0102  139.2393  155.5828 H   0  0  0  0  0  0  0  0  0  0  0  0
  148.5209  141.6591  153.0431 H   0  0  0  0  0  0  0  0  0  0  0  0
  146.5395  142.6069  154.2036 H   0  0  0  0  0  0  0  0  0  0  0  0
  146.2747  142.3434  156.6608 H   0  0  0  0  0  0  0  0  0  0  0  0
  148.0024  141.1242  157.9788 H   0  0  0  0  0  0  0  0  0  0  0  0
  150.4844  142.1418  157.4605 H   0  0  0  0  0  0  0  0  0  0  0  0
  150.4153  144.5250  158.1324 H   0  0  0  0  0  0  0  0  0  0  0  0
  153.4770  143.7955  161.0729 H   0  0  0  0  0  0  0  0  0  0  0  0
  1  2  1  0  0  0  0
  1 21  1  0  0  0  0
  2  3  1  0  0  0  0
  2 13  1  0  0  0  0
  2 22  1  0  0  0  0
  3  4  1  0  0  0  0
  3 23  1  0  0  0  0
  3 24  1  0  0  0  0
  4 12  1  0  0  0  0
  4  5  1  0  0  0  0
  5  6  2  0  0  0  0
  5 25  1  0  0  0  0
  6  7  1  0  0  0  0
  7 12  2  0  0  0  0
  7  8  1  0  0  0  0
  8  9  2  0  0  0  0
  8 26  1  0  0  0  0
  9 10  1  0  0  0  0
  9 27  1  0  0  0  0
 10 11  2  0  0  0  0
 10 28  1  0  0  0  0
 11 12  1  0  0  0  0
 11 29  1  0  0  0  0
 13 19  1  0  0  0  0
 13 14  2  0  0  0  0
 14 15  1  0  0  0  0
 14 30  1  0  0  0  0
 15 16  2  0  0  0  0
 15 31  1  0  0  0  0
 16 17  1  0  0  0  0
 16 18  1  0  0  0  0
 18 19  2  0  0  0  0
 18 32  1  0  0  0  0
 19 20  1  0  0  0  0
M  END
> <s_m_source_file>
AV-unprocessed.smi

> <i_m_source_file_index>
844

> <i_lp_mmshare_version>
43012

> <i_f3d_flags>
0

> <s_epik_input>
RmMxW2NIXWMoRilbY0hdW2NIXWMxW0NASF0oW09IXSlbQ0gyXW4oW2NIXW4yKWMoYzIzKVtjSF1bY0hdW2NIXVtjSF0z

> <s_epik_cmdline>
J2VwaWtfcHl0aG9uJywgJy1waCcsICc3LjAnLCAnLXRuJywgJzgnLCAnLW1hJywgJzIwMCcsICctbWV0YWxfYmluZGluZycsICctaW1hZScsICc8aW5maWxlLm1hZT4nLCAnLW9tYWUnLCAnPG91dGZpbGUubWFlPic=

> <r_epik_Ionization_Penalty>
0.0696514

> <r_epik_Ionization_Penalty_Charging>
0

> <r_epik_Ionization_Penalty_Neutral>
0.0696514

> <r_epik_State_Penalty>
0.0610247

> <r_epik_Charging_Adjusted_Penalty>
0.0610247

> <i_epik_Tot_Q>
0

> <i_epik_Tot_abs_Q>
0

> <r_epik_Metal_State_Penalty>
6.42746e-05

> <b_epik_Metal_Only>
0

> <s_lp_Force_Field>
OPLS_2005

> <r_lp_Energy>
12.0275

> <b_lp_Chiralities_Consistent>
1

> <s_lp_Variant>
AV-unprocessed.smi:844-2

> <Gold.Version>
5.8.1

> <Gold.Id.Protein>
6NUR|6NUR_protein|mol2

> <Gold.PLP.Fitness>
47.6591

> <Gold.PLP.PLP>
-46.4994

> <Gold.PLP.part.hbond>
-0.8978

> <Gold.PLP.part.metal>
0.0000

> <Gold.PLP.part.buried>
-5.7185

> <Gold.PLP.part.nonpolar>
-40.7651

> <Gold.PLP.part.repulsive>
0.1107

> <Gold.PLP.ligand.clash>
0.0000

> <Gold.PLP.ligand.torsion>
0.9269

> <Gold.PLP.Chemscore.Hbond>
1.0000

> <Gold.PLP.Chemscore.CHOScore>
0.0000

> <Gold.PLP.Chemscore.Metal>
0.0000

> <Gold.Chemscore.Hbonds>
donor molecule, donor type, donor heavy atom, donor atom, acceptor molecule, acceptor atom, score
      P1  H  7989  7998       L1     6  0.99

> <Gold.PLP.Chemscore.Internal.Correction>
0.0135

> <Gold.Rescore>
     Score         DG    S(hbond)    S(metal)    S(lipo)     H(rot)  DE(clash)    DE(int)     intcor
     12.57     -15.31       0.90        0.00     102.21       2.00       0.00       2.74       ----

> <Gold.Chemscore.Fitness>
12.5704

> <Gold.Chemscore.DG>
-15.3127

> <Gold.Chemscore.ZeroCoef>
-5.4800

> <Gold.Chemscore.Hbond>
0.8996

> <Gold.Chemscore.Metal>
0.0000

> <Gold.Chemscore.Lipo>
102.2072

> <Gold.Chemscore.Internal_Hbond>
0.0000

> <Gold.Chemscore.DEClash>
0.0000

> <Gold.Chemscore.DEInternal>
2.7423

> <Gold.Chemscore.Rot>
2.0040

> <Gold.Chemscore.Internal.Correction>
   9.000000E+99

> <Gold.Chemscore.Hbonds>
donor molecule, donor type, donor heavy atom, donor atom, acceptor molecule, acceptor atom, score
      P1  H  7989  7998       L1     6  0.83

> <Gold.Chemscore.Hbond.Weighted>
-3.0048

> <Gold.Chemscore.Metal.Weighted>
-0.0000

> <Gold.Chemscore.Lipo.Weighted>
-11.9582

> <Gold.Chemscore.Internal_Hbond.Weighted>
0.0000

> <Gold.Chemscore.DEClash.Weighted>
0.0000

> <Gold.Chemscore.DEInternal.Weighted>
2.7423

> <Gold.Chemscore.Rot.Weighted>
5.1303

> <Gold.Chemscore.Internal.Correction.Weighted>
   9.000000E+99

> <Gold.Protein.RotatedTorsions>
[ 6907 6896 6895 6894 ] final -109.66 input  -60.11 | X-H torsion
[ 7974 7965 7964 7962 ] final  -47.53 input  175.53 | X-H torsion
[ 8008 7997 7996 7995 ] final  155.30 input   59.86 | X-H torsion
[ 10167 10162 10161 10158 ] final  145.75 input  -65.29 | X-H torsion
[ 10718 10713 10712 10709 ] final  -34.08 input   66.30 | X-H torsion
[ 10763 10752 10751 10750 ] final   68.62 input  -60.55 | X-H torsion
[ 11005 11000 10999 10996 ] final -128.07 input  -57.11 | X-H torsion

> <Gold.Protein.ActiveResidues>
 VAL166  LYS551  ARG553  GLY616  TRP617  ASP618  TYR619  PRO620  LYS621  CYS622 
 ASP623  PHE694  ASN695  SER759  ASP760  ASP761  ALA762  ILE779  LEU786  VAL792 
 PHE793  MET794  SER795  GLU796  ALA797  LYS798  CYS799  TRP800  GLU811  SER814 

> <Gold.Protein.RotatedAtoms>
  150.7576  133.9496  159.3481 H   0  0  0  0  0  0  0  0  0  0  0  0  # atno 6907 bound_to 6896
  151.7412  135.0852  160.0325 H   0  0  0  0  0  0  0  0  0  0  0  0  # atno 6908 bound_to 6896
  152.3527  133.6162  159.5992 H   0  0  0  0  0  0  0  0  0  0  0  0  # atno 6909 bound_to 6896
  145.9606  140.7483  142.9459 H   0  0  0  0  0  0  0  0  0  0  0  0  # atno 7974 bound_to 7965
  156.2485  140.1943  156.6780 H   0  0  0  0  0  0  0  0  0  0  0  0  # atno 8008 bound_to 7997
  154.6343  140.0591  156.9796 H   0  0  0  0  0  0  0  0  0  0  0  0  # atno 8009 bound_to 7997
  155.1661  140.3264  155.4404 H   0  0  0  0  0  0  0  0  0  0  0  0  # atno 8010 bound_to 7997
  139.4920  144.5879  151.6741 H   0  0  0  0  0  0  0  0  0  0  0  0  # atno 10167 bound_to 10162
  156.3549  130.4314  149.7673 H   0  0  0  0  0  0  0  0  0  0  0  0  # atno 10718 bound_to 10713
  153.0244  135.5241  154.7162 H   0  0  0  0  0  0  0  0  0  0  0  0  # atno 10763 bound_to 10752
  154.6230  135.2891  155.0306 H   0  0  0  0  0  0  0  0  0  0  0  0  # atno 10764 bound_to 10752
  154.1286  135.6596  153.4970 H   0  0  0  0  0  0  0  0  0  0  0  0  # atno 10765 bound_to 10752
  140.9546  134.1019  157.4028 H   0  0  0  0  0  0  0  0  0  0  0  0  # atno 11005 bound_to 11000
  144.6814  140.2585  143.7322 LP  0  0  0  0  0  0  0  0  0  0  0  0  # atno 17320 bound_to 7965
  145.8045  139.1977  143.2029 LP  0  0  0  0  0  0  0  0  0  0  0  0  # atno 17321 bound_to 7965
  140.5499  144.0442  150.6123 LP  0  0  0  0  0  0  0  0  0  0  0  0  # atno 17342 bound_to 10162
  140.3492  143.2973  152.0505 LP  0  0  0  0  0  0  0  0  0  0  0  0  # atno 17343 bound_to 10162
  156.4859  130.8062  151.3074 LP  0  0  0  0  0  0  0  0  0  0  0  0  # atno 17370 bound_to 10713
  157.7466  130.9991  150.2876 LP  0  0  0  0  0  0  0  0  0  0  0  0  # atno 17371 bound_to 10713
  139.8858  135.0076  156.6459 LP  0  0  0  0  0  0  0  0  0  0  0  0  # atno 17394 bound_to 11000
  140.7554  133.8862  155.8378 LP  0  0  0  0  0  0  0  0  0  0  0  0  # atno 17395 bound_to 11000

$$$$
