AV-unprocessed.smi:837|AV-procd|sdf|3902|dock9
  -GOLD-   22720 1363D 1   1.00000     0.00000
 Structure written by MMmdl.
 48 50  0  0  0  0  0  0  0  0  2 V2000
  150.4378  141.7468  157.4954 C   0  0  0  0  0  0  0  0  0  0  0  0
  149.8536  141.4368  156.0991 C   0  0  2  0  0  0  0  0  0  0  0  0
  148.3151  141.5776  156.1309 C   0  0  0  0  0  0  0  0  0  0  0  0
  147.6883  141.3522  154.7475 C   0  0  0  0  0  0  0  0  0  0  0  0
  148.0809  139.9843  154.1758 C   0  0  0  0  0  0  0  0  0  0  0  0
  149.6105  139.8286  154.1213 C   0  0  0  0  0  0  0  0  0  0  0  0
  150.3059  140.0674  155.4889 C   0  0  1  0  0  0  0  0  0  0  0  0
  151.7438  140.0581  155.2814 N   0  5  0  0  0  0  0  0  0  0  0  0
  152.2881  139.0413  155.9890 C   0  0  0  0  0  0  0  0  0  0  0  0
  153.4813  138.7470  156.0546 O   0  0  0  0  0  0  0  0  0  0  0  0
  151.3406  138.3525  156.6524 N   0  0  0  0  0  0  0  0  0  0  0  0
  151.5978  137.2089  157.5383 C   0  0  0  0  0  0  0  0  0  0  0  0
  151.9746  137.6192  158.9693 C   0  0  0  0  0  0  0  0  0  0  0  0
  151.4265  137.1037  159.9452 O   0  0  0  0  0  0  0  0  0  0  0  0
  152.9358  138.5491  159.0761 N   0  0  0  0  0  0  0  0  0  0  0  0
  153.4513  139.0814  160.3315 C   0  0  0  0  0  0  0  0  0  0  0  0
  154.0815  140.4708  160.1421 C   0  0  0  0  0  0  0  0  0  0  0  0
  153.2735  141.5598  160.8206 C   0  0  0  0  0  0  0  0  0  0  0  0
  153.2200  141.6496  162.2269 C   0  0  0  0  0  0  0  0  0  0  0  0
  152.4601  142.6811  162.8119 C   0  0  0  0  0  0  0  0  0  0  0  0
  151.7854  143.5812  161.9629 C   0  0  0  0  0  0  0  0  0  0  0  0
  151.8300  143.5048  160.6151 N   0  0  0  0  0  0  0  0  0  0  0  0
  152.5601  142.5124  160.0623 C   0  0  0  0  0  0  0  0  0  0  0  0
  150.1304  138.8766  156.4297 C   0  0  0  0  0  0  0  0  0  0  0  0
  149.0572  138.4927  156.8968 O   0  0  0  0  0  0  0  0  0  0  0  0
  150.0835  141.0439  158.2500 H   0  0  0  0  0  0  0  0  0  0  0  0
  150.1502  142.7461  157.8226 H   0  0  0  0  0  0  0  0  0  0  0  0
  151.5274  141.7116  157.4936 H   0  0  0  0  0  0  0  0  0  0  0  0
  150.2233  142.2189  155.4333 H   0  0  0  0  0  0  0  0  0  0  0  0
  147.8852  140.8759  156.8458 H   0  0  0  0  0  0  0  0  0  0  0  0
  148.0438  142.5720  156.4864 H   0  0  0  0  0  0  0  0  0  0  0  0
  146.6028  141.4291  154.8139 H   0  0  0  0  0  0  0  0  0  0  0  0
  148.0136  142.1400  154.0667 H   0  0  0  0  0  0  0  0  0  0  0  0
  147.6393  139.1909  154.7784 H   0  0  0  0  0  0  0  0  0  0  0  0
  147.6649  139.8709  153.1745 H   0  0  0  0  0  0  0  0  0  0  0  0
  149.8550  138.8371  153.7365 H   0  0  0  0  0  0  0  0  0  0  0  0
  150.0028  140.5347  153.3875 H   0  0  0  0  0  0  0  0  0  0  0  0
  150.7193  136.5635  157.5856 H   0  0  0  0  0  0  0  0  0  0  0  0
  152.3941  136.5918  157.1185 H   0  0  0  0  0  0  0  0  0  0  0  0
  153.3360  138.9160  158.2246 H   0  0  0  0  0  0  0  0  0  0  0  0
  152.6543  139.1200  161.0760 H   0  0  0  0  0  0  0  0  0  0  0  0
  154.1980  138.3837  160.7114 H   0  0  0  0  0  0  0  0  0  0  0  0
  155.0966  140.4799  160.5413 H   0  0  0  0  0  0  0  0  0  0  0  0
  154.1672  140.7067  159.0805 H   0  0  0  0  0  0  0  0  0  0  0  0
  153.7518  140.9425  162.8469 H   0  0  0  0  0  0  0  0  0  0  0  0
  152.3964  142.7805  163.8855 H   0  0  0  0  0  0  0  0  0  0  0  0
  151.1940  144.3840  162.3775 H   0  0  0  0  0  0  0  0  0  0  0  0
  152.5779  142.4802  158.9827 H   0  0  0  0  0  0  0  0  0  0  0  0
  1  2  1  0  0  0  0
  1 26  1  0  0  0  0
  1 27  1  0  0  0  0
  1 28  1  0  0  0  0
  2  7  1  0  0  0  0
  2  3  1  0  0  0  0
  2 29  1  0  0  0  0
  3  4  1  0  0  0  0
  3 30  1  0  0  0  0
  3 31  1  0  0  0  0
  4  5  1  0  0  0  0
  4 32  1  0  0  0  0
  4 33  1  0  0  0  0
  5  6  1  0  0  0  0
  5 34  1  0  0  0  0
  5 35  1  0  0  0  0
  6  7  1  0  0  0  0
  6 36  1  0  0  0  0
  6 37  1  0  0  0  0
  7 24  1  0  0  0  0
  7  8  1  0  0  0  0
  8  9  1  0  0  0  0
  9 10  2  0  0  0  0
  9 11  1  0  0  0  0
 11 12  1  0  0  0  0
 11 24  1  0  0  0  0
 12 13  1  0  0  0  0
 12 38  1  0  0  0  0
 12 39  1  0  0  0  0
 13 14  2  0  0  0  0
 13 15  1  0  0  0  0
 15 16  1  0  0  0  0
 15 40  1  0  0  0  0
 16 17  1  0  0  0  0
 16 41  1  0  0  0  0
 16 42  1  0  0  0  0
 17 18  1  0  0  0  0
 17 43  1  0  0  0  0
 17 44  1  0  0  0  0
 18 23  1  0  0  0  0
 18 19  2  0  0  0  0
 19 20  1  0  0  0  0
 19 45  1  0  0  0  0
 20 21  2  0  0  0  0
 20 46  1  0  0  0  0
 21 22  1  0  0  0  0
 21 47  1  0  0  0  0
 22 23  2  0  0  0  0
 23 48  1  0  0  0  0
 24 25  2  0  0  0  0
M  CHG  1   8  -1
M  END
> <s_m_source_file>
AV-unprocessed.smi

> <i_m_source_file_index>
837

> <i_lp_mmshare_version>
43012

> <i_f3d_flags>
0

> <s_epik_input>
W0NIMl0xW0NIMl1bQ0gyXVtDSDJdW0NAQEhdKFtDSDNdKVtDQEBdMTJbTkhdQyg9TylOKEMyPU8pW0NIMl1DKD1PKVtOSF1bQ0gyXVtDSDJdYzNbY0hdW2NIXVtjSF1uW2NIXTM=

> <s_epik_cmdline>
J2VwaWtfcHl0aG9uJywgJy1waCcsICc3LjAnLCAnLXRuJywgJzgnLCAnLW1hJywgJzIwMCcsICctbWV0YWxfYmluZGluZycsICctaW1hZScsICc8aW5maWxlLm1hZT4nLCAnLW9tYWUnLCAnPG91dGZpbGUubWFlPic=

> <r_lp_tautomer_probability>
1

> <r_epik_Ionization_Penalty>
6.03002

> <r_epik_Ionization_Penalty_Charging>
6.01728

> <r_epik_Ionization_Penalty_Neutral>
0.0127382

> <r_epik_State_Penalty>
6.02713

> <r_epik_Charging_Adjusted_Penalty>
12.0444

> <i_epik_Tot_Q>
-1

> <i_epik_Tot_abs_Q>
1

> <r_epik_Metal_State_Penalty>
1.99078

> <b_epik_Metal_Only>
1

> <s_lp_Force_Field>
OPLS_2005

> <r_lp_Energy>
14.9732

> <b_lp_Chiralities_Consistent>
1

> <s_lp_Variant>
AV-unprocessed.smi:837-11

> <Gold.Version>
5.8.1

> <Gold.Id.Protein>
6NUR|6NUR_protein|mol2

> <Gold.PLP.Fitness>
53.1274

> <Gold.PLP.PLP>
-47.6179

> <Gold.PLP.part.hbond>
-2.9724

> <Gold.PLP.part.metal>
0.0000

> <Gold.PLP.part.buried>
-4.2603

> <Gold.PLP.part.nonpolar>
-41.0984

> <Gold.PLP.part.repulsive>
0.1539

> <Gold.PLP.ligand.clash>
0.0000

> <Gold.PLP.ligand.torsion>
1.0742

> <Gold.PLP.Chemscore.Hbond>
2.5473

> <Gold.PLP.Chemscore.CHOScore>
0.0000

> <Gold.PLP.Chemscore.Metal>
0.0000

> <Gold.Chemscore.Hbonds>
donor molecule, donor type, donor heavy atom, donor atom, acceptor molecule, acceptor atom, score
      P1  H  6896  6909       L1    14  1.00
      P1  H  7989  7998       L1     8  0.70
      P1  H  7997  8010       L1    10  0.86

> <Gold.PLP.Chemscore.Internal.Correction>
0.0162

> <Gold.Rescore>
     Score         DG    S(hbond)    S(metal)    S(lipo)     H(rot)  DE(clash)    DE(int)     intcor
     21.89     -23.16       2.91        0.00     107.67       1.81       0.07       1.20       ----

> <Gold.Chemscore.Fitness>
21.8874

> <Gold.Chemscore.DG>
-23.1584

> <Gold.Chemscore.ZeroCoef>
-5.4800

> <Gold.Chemscore.Hbond>
2.9078

> <Gold.Chemscore.Metal>
0.0000

> <Gold.Chemscore.Lipo>
107.6710

> <Gold.Chemscore.Internal_Hbond>
0.0000

> <Gold.Chemscore.DEClash>
0.0727

> <Gold.Chemscore.DEInternal>
1.1983

> <Gold.Chemscore.Rot>
1.8090

> <Gold.Chemscore.Internal.Correction>
   9.000000E+99

> <Gold.Chemscore.Hbonds>
donor molecule, donor type, donor heavy atom, donor atom, acceptor molecule, acceptor atom, score
      P1  H  6896  6909       L1    14  0.88
      P1  H  7989  7998       L1     8  0.08
      P1  H  7997  8010       L1    10  0.63

> <Gold.Chemscore.Hbond.Weighted>
-9.7119

> <Gold.Chemscore.Metal.Weighted>
-0.0000

> <Gold.Chemscore.Lipo.Weighted>
-12.5975

> <Gold.Chemscore.Internal_Hbond.Weighted>
0.0000

> <Gold.Chemscore.DEClash.Weighted>
0.0727

> <Gold.Chemscore.DEInternal.Weighted>
1.1983

> <Gold.Chemscore.Rot.Weighted>
4.6310

> <Gold.Chemscore.Internal.Correction.Weighted>
   9.000000E+99

> <Gold.Protein.RotatedTorsions>
[ 6907 6896 6895 6894 ] final  120.17 input  -60.11 | X-H torsion
[ 7974 7965 7964 7962 ] final  -96.49 input  175.53 | X-H torsion
[ 8008 7997 7996 7995 ] final   89.53 input   59.86 | X-H torsion
[ 10167 10162 10161 10158 ] final  -29.86 input  -65.29 | X-H torsion
[ 10718 10713 10712 10709 ] final   25.62 input   66.30 | X-H torsion
[ 10763 10752 10751 10750 ] final  163.55 input  -60.55 | X-H torsion
[ 11005 11000 10999 10996 ] final  172.94 input  -57.11 | X-H torsion

> <Gold.Protein.ActiveResidues>
 VAL166  LYS551  ARG553  GLY616  TRP617  ASP618  TYR619  PRO620  LYS621  CYS622 
 ASP623  PHE694  ASN695  SER759  ASP760  ASP761  ALA762  ILE779  LEU786  VAL792 
 PHE793  MET794  SER795  GLU796  ALA797  LYS798  CYS799  TRP800  GLU811  SER814 

> <Gold.Protein.RotatedAtoms>
  152.4418  133.7461  159.6667 H   0  0  0  0  0  0  0  0  0  0  0  0  # atno 6907 bound_to 6896
  150.8310  133.8081  159.3105 H   0  0  0  0  0  0  0  0  0  0  0  0  # atno 6908 bound_to 6896
  151.5735  135.1064  160.0052 H   0  0  0  0  0  0  0  0  0  0  0  0  # atno 6909 bound_to 6896
  145.3462  140.9468  143.2580 H   0  0  0  0  0  0  0  0  0  0  0  0  # atno 7974 bound_to 7965
  156.0011  140.3359  155.6846 H   0  0  0  0  0  0  0  0  0  0  0  0  # atno 8008 bound_to 7997
  155.6289  140.0683  157.2673 H   0  0  0  0  0  0  0  0  0  0  0  0  # atno 8009 bound_to 7997
  154.4249  140.1763  156.1439 H   0  0  0  0  0  0  0  0  0  0  0  0  # atno 8010 bound_to 7997
  140.7256  143.3894  151.1456 H   0  0  0  0  0  0  0  0  0  0  0  0  # atno 10167 bound_to 10162
  157.1959  130.6867  149.6168 H   0  0  0  0  0  0  0  0  0  0  0  0  # atno 10718 bound_to 10713
  154.2954  135.2760  155.2636 H   0  0  0  0  0  0  0  0  0  0  0  0  # atno 10763 bound_to 10752
  154.5096  135.5786  153.6598 H   0  0  0  0  0  0  0  0  0  0  0  0  # atno 10764 bound_to 10752
  152.9908  135.6178  154.3121 H   0  0  0  0  0  0  0  0  0  0  0  0  # atno 10765 bound_to 10752
  140.3351  134.7324  157.4162 H   0  0  0  0  0  0  0  0  0  0  0  0  # atno 11005 bound_to 11000
  144.8752  139.4981  143.6749 LP  0  0  0  0  0  0  0  0  0  0  0  0  # atno 17320 bound_to 7965
  146.2987  139.7358  142.9107 LP  0  0  0  0  0  0  0  0  0  0  0  0  # atno 17321 bound_to 7965
  139.7497  143.8797  152.3073 LP  0  0  0  0  0  0  0  0  0  0  0  0  # atno 17342 bound_to 10162
  139.8647  144.7099  150.9058 LP  0  0  0  0  0  0  0  0  0  0  0  0  # atno 17343 bound_to 10162
  155.9706  130.4599  150.6053 LP  0  0  0  0  0  0  0  0  0  0  0  0  # atno 17370 bound_to 10713
  157.3815  131.0781  151.1472 LP  0  0  0  0  0  0  0  0  0  0  0  0  # atno 17371 bound_to 10713
  140.0828  134.5708  155.8523 LP  0  0  0  0  0  0  0  0  0  0  0  0  # atno 17394 bound_to 11000
  141.2053  133.6646  156.6174 LP  0  0  0  0  0  0  0  0  0  0  0  0  # atno 17395 bound_to 11000

$$$$
