AV-unprocessed.smi:224|AV-procd|sdf|1715|dock5
  -GOLD-   2262020183D 1   1.00000     0.00000
 Structure written by MMmdl.
 56 59  0  0  0  0  0  0  0  0  2 V2000
  145.6811  130.7423  151.4008 C   0  0  0  0  0  0  0  0  0  0  0  0
  145.7735  131.7299  150.2304 C   0  0  2  0  0  0  0  0  0  0  0  0
  146.6599  131.1851  149.2733 O   0  0  0  0  0  0  0  0  0  0  0  0
  146.2908  133.1090  150.6905 C   0  0  0  0  0  0  0  0  0  0  0  0
  145.2222  134.0366  151.1546 N   0  3  2  0  0  0  0  0  0  0  0  0
  145.5621  135.4571  150.8762 C   0  0  0  0  0  0  0  0  0  0  0  0
  144.3891  136.3926  151.2185 C   0  0  0  0  0  0  0  0  0  0  0  0
  143.9236  136.1770  152.5863 N   0  0  0  0  0  0  0  0  0  0  0  0
  144.4659  136.9047  153.6003 C   0  0  0  0  0  0  0  0  0  0  0  0
  143.9736  136.7714  154.8612 N   0  0  0  0  0  0  0  0  0  0  0  0
  144.4711  137.4979  155.8654 C   0  0  0  0  0  0  0  0  0  0  0  0
  145.4515  138.4008  155.8337 N   0  0  0  0  0  0  0  0  0  0  0  0
  145.9680  138.5262  154.5784 C   0  0  0  0  0  0  0  0  0  0  0  0
  145.5393  137.8238  153.4158 C   0  0  0  0  0  0  0  0  0  0  0  0
  146.3092  138.2105  152.3244 N   0  0  0  0  0  0  0  0  0  0  0  0
  147.1329  139.0983  152.8097 C   0  0  0  0  0  0  0  0  0  0  0  0
  147.0011  139.3451  154.1572 N   0  0  0  0  0  0  0  0  0  0  0  0
  147.7845  140.2779  154.9524 C   0  0  0  0  0  0  0  0  0  0  0  0
  149.3003  140.2228  154.6513 C   0  0  1  0  0  0  0  0  0  0  0  0
  149.5423  140.8179  153.3884 O   0  0  0  0  0  0  0  0  0  0  0  0
  150.1700  140.9246  155.6906 C   0  0  0  0  0  0  0  0  0  0  0  0
  151.4504  140.1017  155.6733 C   0  0  0  0  0  0  0  0  0  0  0  0
  150.9627  138.7778  155.5410 O   0  0  0  0  0  0  0  0  0  0  0  0
  149.8662  138.7887  154.6324 C   0  0  0  0  0  0  0  0  0  0  0  0
  143.5668  134.7902  152.8777 C   0  0  0  0  0  0  0  0  0  0  0  0
  144.7183  133.8131  152.5469 C   0  0  2  0  0  0  0  0  0  0  0  0
  145.8296  133.8399  153.6182 C   0  0  0  0  0  0  0  0  0  0  0  0
  144.9930  131.1049  152.1653 H   0  0  0  0  0  0  0  0  0  0  0  0
  146.6524  130.5902  151.8734 H   0  0  0  0  0  0  0  0  0  0  0  0
  145.3176  129.7698  151.0668 H   0  0  0  0  0  0  0  0  0  0  0  0
  144.7827  131.8112  149.7852 H   0  0  0  0  0  0  0  0  0  0  0  0
  147.5400  131.2164  149.6151 H   0  0  0  0  0  0  0  0  0  0  0  0
  147.0393  132.9900  151.4744 H   0  0  0  0  0  0  0  0  0  0  0  0
  146.8152  133.5735  149.8538 H   0  0  0  0  0  0  0  0  0  0  0  0
  146.4527  135.7377  151.4390 H   0  0  0  0  0  0  0  0  0  0  0  0
  145.8127  135.5755  149.8216 H   0  0  0  0  0  0  0  0  0  0  0  0
  144.6628  137.4352  151.0528 H   0  0  0  0  0  0  0  0  0  0  0  0
  143.5554  136.1926  150.5444 H   0  0  0  0  0  0  0  0  0  0  0  0
  144.0174  137.3342  156.8319 H   0  0  0  0  0  0  0  0  0  0  0  0
  147.8672  139.5974  152.1942 H   0  0  0  0  0  0  0  0  0  0  0  0
  147.4029  141.2823  154.7642 H   0  0  0  0  0  0  0  0  0  0  0  0
  147.5996  140.0742  156.0080 H   0  0  0  0  0  0  0  0  0  0  0  0
  149.3779  140.1742  152.7165 H   0  0  0  0  0  0  0  0  0  0  0  0
  150.3343  141.9838  155.4874 H   0  0  0  0  0  0  0  0  0  0  0  0
  149.7167  140.8423  156.6793 H   0  0  0  0  0  0  0  0  0  0  0  0
  152.0711  140.3556  154.8126 H   0  0  0  0  0  0  0  0  0  0  0  0
  152.0443  140.2243  156.5791 H   0  0  0  0  0  0  0  0  0  0  0  0
  149.1324  138.0486  154.9537 H   0  0  0  0  0  0  0  0  0  0  0  0
  150.2107  138.4951  153.6394 H   0  0  0  0  0  0  0  0  0  0  0  0
  143.2506  134.6487  153.9097 H   0  0  0  0  0  0  0  0  0  0  0  0
  142.6983  134.5422  152.2666 H   0  0  0  0  0  0  0  0  0  0  0  0
  144.2722  132.8202  152.5831 H   0  0  0  0  0  0  0  0  0  0  0  0
  145.4051  133.7366  154.6170 H   0  0  0  0  0  0  0  0  0  0  0  0
  146.3978  134.7691  153.6017 H   0  0  0  0  0  0  0  0  0  0  0  0
  146.5340  133.0183  153.4907 H   0  0  0  0  0  0  0  0  0  0  0  0
  144.4312  133.8444  150.5570 H   0  0  0  0  0  0  0  0  0  0  0  0
  1  2  1  0  0  0  0
  1 28  1  0  0  0  0
  1 29  1  0  0  0  0
  1 30  1  0  0  0  0
  2  3  1  0  0  0  0
  2  4  1  0  0  0  0
  2 31  1  0  0  0  0
  3 32  1  0  0  0  0
  4  5  1  0  0  0  0
  4 33  1  0  0  0  0
  4 34  1  0  0  0  0
  5 26  1  0  0  0  0
  5  6  1  0  0  0  0
  5 56  1  0  0  0  0
  6  7  1  0  0  0  0
  6 35  1  0  0  0  0
  6 36  1  0  0  0  0
  7  8  1  0  0  0  0
  7 37  1  0  0  0  0
  7 38  1  0  0  0  0
  8  9  1  0  0  0  0
  8 25  1  0  0  0  0
  9 14  1  0  0  0  0
  9 10  2  0  0  0  0
 10 11  1  0  0  0  0
 11 12  2  0  0  0  0
 11 39  1  0  0  0  0
 12 13  1  0  0  0  0
 13 17  1  0  0  0  0
 13 14  2  0  0  0  0
 14 15  1  0  0  0  0
 15 16  2  0  0  0  0
 16 17  1  0  0  0  0
 16 40  1  0  0  0  0
 17 18  1  0  0  0  0
 18 19  1  0  0  0  0
 18 41  1  0  0  0  0
 18 42  1  0  0  0  0
 19 24  1  0  0  0  0
 19 20  1  0  0  0  0
 19 21  1  0  0  0  0
 20 43  1  0  0  0  0
 21 22  1  0  0  0  0
 21 44  1  0  0  0  0
 21 45  1  0  0  0  0
 22 23  1  0  0  0  0
 22 46  1  0  0  0  0
 22 47  1  0  0  0  0
 23 24  1  0  0  0  0
 24 48  1  0  0  0  0
 24 49  1  0  0  0  0
 25 26  1  0  0  0  0
 25 50  1  0  0  0  0
 25 51  1  0  0  0  0
 26 27  1  0  0  0  0
 26 52  1  0  0  0  0
 27 53  1  0  0  0  0
 27 54  1  0  0  0  0
 27 55  1  0  0  0  0
M  CHG  1   5   1
M  END
> <s_m_source_file>
AV-unprocessed.smi

> <i_m_source_file_index>
224

> <i_lp_mmshare_version>
43012

> <i_f3d_flags>
0

> <s_epik_input>
W0NIM11bQ0BIXShbT0hdKVtDSDJdTjFbQ0gyXVtDSDJdTihbQ0gyXVtDQEhdMVtDSDNdKWMobltjSF1uMiljKGMyMyluW2NIXW4zW0NIMl1bQ0BAXTQoW09IXSlbQ0gyXVtDSDJdT1tDSDJdNA==

> <s_epik_cmdline>
J2VwaWtfcHl0aG9uJywgJy1waCcsICc3LjAnLCAnLXRuJywgJzgnLCAnLW1hJywgJzIwMCcsICctbWV0YWxfYmluZGluZycsICctaW1hZScsICc8aW5maWxlLm1hZT4nLCAnLW9tYWUnLCAnPG91dGZpbGUubWFlPic=

> <r_lp_tautomer_probability>
1

> <r_epik_Ionization_Penalty>
0.00516958

> <r_epik_Ionization_Penalty_Charging>
0.00509693

> <r_epik_Ionization_Penalty_Neutral>
7.26542e-05

> <r_epik_State_Penalty>
-0

> <r_epik_Charging_Adjusted_Penalty>
0.00509693

> <i_epik_Tot_Q>
1

> <i_epik_Tot_abs_Q>
1

> <r_epik_Metal_State_Penalty>
-0

> <b_epik_Metal_Only>
0

> <s_lp_Force_Field>
OPLS_2005

> <r_lp_Energy>
50.3788

> <b_lp_Chiralities_Consistent>
1

> <s_lp_Variant>
AV-unprocessed.smi:224-9

> <Gold.Version>
5.8.1

> <Gold.Id.Protein>
6NUR|6NUR_protein|mol2

> <Gold.PLP.Fitness>
47.9734

> <Gold.PLP.PLP>
-38.4158

> <Gold.PLP.part.hbond>
-3.5706

> <Gold.PLP.part.metal>
0.0000

> <Gold.PLP.part.buried>
-1.2367

> <Gold.PLP.part.nonpolar>
-32.6694

> <Gold.PLP.part.repulsive>
0.4166

> <Gold.PLP.ligand.clash>
0.0000

> <Gold.PLP.ligand.torsion>
1.2709

> <Gold.PLP.Chemscore.Hbond>
2.9102

> <Gold.PLP.Chemscore.CHOScore>
1.0000

> <Gold.PLP.Chemscore.Metal>
0.0000

> <Gold.Chemscore.Hbonds>
donor molecule, donor type, donor heavy atom, donor atom, acceptor molecule, acceptor atom, score
      L1  H     3    32       P1 10747  1.00
      L1  H    20    43       P1  7957  0.74
      P1  H  7989  7998       L1    20  0.26
      P1  H  8011  8017       L1    20  1.00
      L1  C    16    40       P1  7957  1.00

> <Gold.PLP.Chemscore.Internal.Correction>
0.3686

> <Gold.Rescore>
     Score         DG    S(hbond)    S(metal)    S(lipo)     H(rot)  DE(clash)    DE(int)     intcor
     10.29     -14.38       1.97        0.00      85.81       3.02       1.38       2.71       ----

> <Gold.Chemscore.Fitness>
10.2900

> <Gold.Chemscore.DG>
-14.3771

> <Gold.Chemscore.ZeroCoef>
-5.4800

> <Gold.Chemscore.Hbond>
1.9750

> <Gold.Chemscore.Metal>
0.0000

> <Gold.Chemscore.Lipo>
85.8095

> <Gold.Chemscore.Internal_Hbond>
0.0000

> <Gold.Chemscore.DEClash>
1.3798

> <Gold.Chemscore.DEInternal>
2.7073

> <Gold.Chemscore.Rot>
3.0231

> <Gold.Chemscore.Internal.Correction>
   9.000000E+99

> <Gold.Chemscore.Hbonds>
donor molecule, donor type, donor heavy atom, donor atom, acceptor molecule, acceptor atom, score
      L1  H     3    32       P1 10747  0.98
      L1  H    20    43       P1  7957  0.72
      P1  H  7989  7998       L1    20  0.02
      P1  H  8011  8017       L1    20  0.30

> <Gold.Chemscore.Hbond.Weighted>
-6.5965

> <Gold.Chemscore.Metal.Weighted>
-0.0000

> <Gold.Chemscore.Lipo.Weighted>
-10.0397

> <Gold.Chemscore.Internal_Hbond.Weighted>
0.0000

> <Gold.Chemscore.DEClash.Weighted>
1.3798

> <Gold.Chemscore.DEInternal.Weighted>
2.7073

> <Gold.Chemscore.Rot.Weighted>
7.7391

> <Gold.Chemscore.Internal.Correction.Weighted>
   9.000000E+99

> <Gold.Protein.RotatedTorsions>
[ 6907 6896 6895 6894 ] final -147.87 input  -60.11 | X-H torsion
[ 7974 7965 7964 7962 ] final  -21.42 input  175.53 | X-H torsion
[ 8008 7997 7996 7995 ] final   55.62 input   59.86 | X-H torsion
[ 10167 10162 10161 10158 ] final  174.88 input  -65.29 | X-H torsion
[ 10718 10713 10712 10709 ] final   43.15 input   66.30 | X-H torsion
[ 10763 10752 10751 10750 ] final  173.19 input  -60.55 | X-H torsion
[ 11005 11000 10999 10996 ] final   -0.21 input  -57.11 | X-H torsion

> <Gold.Protein.ActiveResidues>
 VAL166  LYS551  ARG553  GLY616  TRP617  ASP618  TYR619  PRO620  LYS621  CYS622 
 ASP623  PHE694  ASN695  SER759  ASP760  ASP761  ALA762  ILE779  LEU786  VAL792 
 PHE793  MET794  SER795  GLU796  ALA797  LYS798  CYS799  TRP800  GLU811  SER814 

> <Gold.Protein.RotatedAtoms>
  151.1618  133.4840  159.2594 H   0  0  0  0  0  0  0  0  0  0  0  0  # atno 6907 bound_to 6896
  151.1446  135.0197  159.8651 H   0  0  0  0  0  0  0  0  0  0  0  0  # atno 6908 bound_to 6896
  152.5463  134.1508  159.8571 H   0  0  0  0  0  0  0  0  0  0  0  0  # atno 6909 bound_to 6896
  146.1734  140.4339  142.8523 H   0  0  0  0  0  0  0  0  0  0  0  0  # atno 7974 bound_to 7965
  155.5041  140.3475  155.4376 H   0  0  0  0  0  0  0  0  0  0  0  0  # atno 8008 bound_to 7997
  156.0894  140.1406  156.9639 H   0  0  0  0  0  0  0  0  0  0  0  0  # atno 8009 bound_to 7997
  154.4626  140.0929  156.6910 H   0  0  0  0  0  0  0  0  0  0  0  0  # atno 8010 bound_to 7997
  139.5157  144.3096  152.0304 H   0  0  0  0  0  0  0  0  0  0  0  0  # atno 10167 bound_to 10162
  157.4127  130.7923  149.7445 H   0  0  0  0  0  0  0  0  0  0  0  0  # atno 10718 bound_to 10713
  154.4366  135.2761  155.1876 H   0  0  0  0  0  0  0  0  0  0  0  0  # atno 10763 bound_to 10752
  154.3760  135.6098  153.5768 H   0  0  0  0  0  0  0  0  0  0  0  0  # atno 10764 bound_to 10752
  152.9838  135.5869  154.4687 H   0  0  0  0  0  0  0  0  0  0  0  0  # atno 10765 bound_to 10752
  140.6337  133.9551  155.8288 H   0  0  0  0  0  0  0  0  0  0  0  0  # atno 11005 bound_to 11000
  144.8197  140.6529  143.6361 LP  0  0  0  0  0  0  0  0  0  0  0  0  # atno 17320 bound_to 7965
  145.4279  139.1553  143.4038 LP  0  0  0  0  0  0  0  0  0  0  0  0  # atno 17321 bound_to 7965
  140.2541  144.4137  150.6210 LP  0  0  0  0  0  0  0  0  0  0  0  0  # atno 17342 bound_to 10162
  140.6204  143.2176  151.6706 LP  0  0  0  0  0  0  0  0  0  0  0  0  # atno 17343 bound_to 10162
  155.9855  130.3982  150.3256 LP  0  0  0  0  0  0  0  0  0  0  0  0  # atno 17370 bound_to 10713
  157.1395  131.0293  151.2934 LP  0  0  0  0  0  0  0  0  0  0  0  0  # atno 17371 bound_to 10713
  141.0656  134.0281  157.3598 LP  0  0  0  0  0  0  0  0  0  0  0  0  # atno 17394 bound_to 11000
  139.9106  135.0189  156.7675 LP  0  0  0  0  0  0  0  0  0  0  0  0  # atno 17395 bound_to 11000

$$$$
