AV-unprocessed.smi:2298|AV-procd|sdf|9225|dock8
  -GOLD-   2272012443D 1   1.00000     0.00000
 Structure written by MMmdl.
 37 38  0  0  0  0  0  0  0  0  1 V2000
  152.5350  144.1342  161.8710 C   0  0  0  0  0  0  0  0  0  0  0  0
  152.5165  143.0996  160.7614 C   0  0  0  0  0  0  0  0  0  0  0  0
  153.4081  142.0928  160.8866 N   0  0  0  0  0  0  0  0  0  0  0  0
  153.4388  141.1497  159.9231 C   0  0  0  0  0  0  0  0  0  0  0  0
  152.5882  141.1595  158.8013 C   0  0  0  0  0  0  0  0  0  0  0  0
  151.6418  142.2051  158.6731 C   0  0  0  0  0  0  0  0  0  0  0  0
  150.7412  142.3271  157.5768 N   0  0  0  0  0  0  0  0  0  0  0  0
  150.4855  141.4580  156.5837 C   0  0  0  0  0  0  0  0  0  0  0  0
  151.0195  140.3589  156.4381 O   0  0  0  0  0  0  0  0  0  0  0  0
  149.5452  141.9372  155.7566 N   0  0  0  0  0  0  0  0  0  0  0  0
  149.0231  141.2481  154.5801 C   0  0  1  0  0  0  0  0  0  0  0  0
  148.7638  139.7697  154.9218 C   0  0  0  0  0  0  0  0  0  0  0  0
  148.1610  139.0103  153.7269 C   0  0  0  0  0  0  0  0  0  0  0  0
  146.8865  139.6869  153.1882 C   0  0  1  0  0  0  0  0  0  0  0  0
  145.8304  139.5390  154.1169 O   0  0  0  0  0  0  0  0  0  0  0  0
  147.1221  141.1791  152.8864 C   0  0  0  0  0  0  0  0  0  0  0  0
  147.7317  141.9286  154.0841 C   0  0  0  0  0  0  0  0  0  0  0  0
  151.6165  143.2046  159.6749 C   0  0  0  0  0  0  0  0  0  0  0  0
  150.5035  144.5287  159.5775 Cl  0  0  0  0  0  0  0  0  0  0  0  0
  149.7689  141.2838  153.7834 H   0  0  0  0  0  0  0  0  0  0  0  0
  146.5759  139.1826  152.2724 H   0  0  0  0  0  0  0  0  0  0  0  0
  151.5538  144.2034  162.3417 H   0  0  0  0  0  0  0  0  0  0  0  0
  152.7958  145.1144  161.4706 H   0  0  0  0  0  0  0  0  0  0  0  0
  153.2616  143.8808  162.6445 H   0  0  0  0  0  0  0  0  0  0  0  0
  154.1693  140.3641  160.0465 H   0  0  0  0  0  0  0  0  0  0  0  0
  152.6901  140.3769  158.0663 H   0  0  0  0  0  0  0  0  0  0  0  0
  150.1706  143.1598  157.5872 H   0  0  0  0  0  0  0  0  0  0  0  0
  149.1584  142.8483  155.9547 H   0  0  0  0  0  0  0  0  0  0  0  0
  149.6939  139.2888  155.2271 H   0  0  0  0  0  0  0  0  0  0  0  0
  148.0878  139.6995  155.7753 H   0  0  0  0  0  0  0  0  0  0  0  0
  148.9028  138.9645  152.9284 H   0  0  0  0  0  0  0  0  0  0  0  0
  147.9521  137.9768  154.0060 H   0  0  0  0  0  0  0  0  0  0  0  0
  145.0136  139.7097  153.6732 H   0  0  0  0  0  0  0  0  0  0  0  0
  147.7999  141.2656  152.0362 H   0  0  0  0  0  0  0  0  0  0  0  0
  146.1903  141.6559  152.5800 H   0  0  0  0  0  0  0  0  0  0  0  0
  147.0026  141.9737  154.8943 H   0  0  0  0  0  0  0  0  0  0  0  0
  147.9368  142.9611  153.7991 H   0  0  0  0  0  0  0  0  0  0  0  0
  1  2  1  0  0  0  0
  1 22  1  0  0  0  0
  1 23  1  0  0  0  0
  1 24  1  0  0  0  0
  2 18  1  0  0  0  0
  2  3  2  0  0  0  0
  3  4  1  0  0  0  0
  4  5  2  0  0  0  0
  4 25  1  0  0  0  0
  5  6  1  0  0  0  0
  5 26  1  0  0  0  0
  6  7  1  0  0  0  0
  6 18  2  0  0  0  0
  7  8  1  0  0  0  0
  7 27  1  0  0  0  0
  8  9  2  0  0  0  0
  8 10  1  0  0  0  0
 10 11  1  0  0  0  0
 10 28  1  0  0  0  0
 11 20  1  0  0  0  0
 11 17  1  0  0  0  0
 11 12  1  0  0  0  0
 12 13  1  0  0  0  0
 12 29  1  0  0  0  0
 12 30  1  0  0  0  0
 13 14  1  0  0  0  0
 13 31  1  0  0  0  0
 13 32  1  0  0  0  0
 14 21  1  0  0  0  0
 14 15  1  0  0  0  0
 14 16  1  0  0  0  0
 15 33  1  0  0  0  0
 16 17  1  0  0  0  0
 16 34  1  0  0  0  0
 16 35  1  0  0  0  0
 17 36  1  0  0  0  0
 17 37  1  0  0  0  0
 18 19  1  0  0  0  0
M  END
> <s_m_source_file>
AV-unprocessed.smi

> <i_m_source_file_index>
2298

> <i_lp_mmshare_version>
43012

> <i_f3d_flags>
0

> <s_epik_input>
W0NIM11jMW5bY0hdW2NIXWMoYzFDbClbTkhdQyg9TylbTkhdW0NASF0yW0NIMl1bQ0gyXVtDQEhdKFtPSF0pW0NIMl1bQ0gyXTI=

> <s_epik_cmdline>
J2VwaWtfcHl0aG9uJywgJy1waCcsICc3LjAnLCAnLXRuJywgJzgnLCAnLW1hJywgJzIwMCcsICctbWV0YWxfYmluZGluZycsICctaW1hZScsICc8aW5maWxlLm1hZT4nLCAnLW9tYWUnLCAnPG91dGZpbGUubWFlPic=

> <r_epik_Ionization_Penalty>
0.00999805

> <r_epik_Ionization_Penalty_Charging>
0

> <r_epik_Ionization_Penalty_Neutral>
0.00999805

> <r_epik_State_Penalty>
0.00759022

> <r_epik_Charging_Adjusted_Penalty>
0.00759022

> <i_epik_Tot_Q>
0

> <i_epik_Tot_abs_Q>
0

> <r_epik_Metal_State_Penalty>
0.00746447

> <b_epik_Metal_Only>
0

> <s_lp_Force_Field>
OPLS_2005

> <r_lp_Energy>
16.8241

> <b_lp_Chiralities_Consistent>
1

> <s_lp_Variant>
AV-unprocessed.smi:2298-2

> <Gold.Version>
5.8.1

> <Gold.Id.Protein>
6NUR|6NUR_protein|mol2

> <Gold.PLP.Fitness>
43.4797

> <Gold.PLP.PLP>
-37.8904

> <Gold.PLP.part.hbond>
-2.0000

> <Gold.PLP.part.metal>
0.0000

> <Gold.PLP.part.buried>
-6.4888

> <Gold.PLP.part.nonpolar>
-29.1780

> <Gold.PLP.part.repulsive>
0.1514

> <Gold.PLP.ligand.clash>
0.0000

> <Gold.PLP.ligand.torsion>
0.2069

> <Gold.PLP.Chemscore.Hbond>
2.0000

> <Gold.PLP.Chemscore.CHOScore>
0.0000

> <Gold.PLP.Chemscore.Metal>
0.0000

> <Gold.Chemscore.Hbonds>
donor molecule, donor type, donor heavy atom, donor atom, acceptor molecule, acceptor atom, score
      L1  H    10    28       P1  8028  1.00
      L1  H    15    33       P1 10175  1.00

> <Gold.PLP.Chemscore.Internal.Correction>
0.0031

> <Gold.Rescore>
     Score         DG    S(hbond)    S(metal)    S(lipo)     H(rot)  DE(clash)    DE(int)     intcor
     17.86     -20.73       1.86        0.00     108.22       1.42       0.30       2.57       ----

> <Gold.Chemscore.Fitness>
17.8593

> <Gold.Chemscore.DG>
-20.7271

> <Gold.Chemscore.ZeroCoef>
-5.4800

> <Gold.Chemscore.Hbond>
1.8622

> <Gold.Chemscore.Metal>
0.0000

> <Gold.Chemscore.Lipo>
108.2240

> <Gold.Chemscore.Internal_Hbond>
0.0000

> <Gold.Chemscore.DEClash>
0.2975

> <Gold.Chemscore.DEInternal>
2.5704

> <Gold.Chemscore.Rot>
1.4199

> <Gold.Chemscore.Internal.Correction>
   9.000000E+99

> <Gold.Chemscore.Hbonds>
donor molecule, donor type, donor heavy atom, donor atom, acceptor molecule, acceptor atom, score
      L1  H    10    28       P1  8028  0.98
      L1  H    15    33       P1 10175  0.99

> <Gold.Chemscore.Hbond.Weighted>
-6.2198

> <Gold.Chemscore.Metal.Weighted>
-0.0000

> <Gold.Chemscore.Lipo.Weighted>
-12.6622

> <Gold.Chemscore.Internal_Hbond.Weighted>
0.0000

> <Gold.Chemscore.DEClash.Weighted>
0.2975

> <Gold.Chemscore.DEInternal.Weighted>
2.5704

> <Gold.Chemscore.Rot.Weighted>
3.6349

> <Gold.Chemscore.Internal.Correction.Weighted>
   9.000000E+99

> <Gold.Protein.RotatedTorsions>
[ 6907 6896 6895 6894 ] final  124.14 input  -60.11 | X-H torsion
[ 7974 7965 7964 7962 ] final   34.32 input  175.53 | X-H torsion
[ 8008 7997 7996 7995 ] final    8.58 input   59.86 | X-H torsion
[ 10167 10162 10161 10158 ] final   69.40 input  -65.29 | X-H torsion
[ 10718 10713 10712 10709 ] final  109.78 input   66.30 | X-H torsion
[ 10763 10752 10751 10750 ] final   -1.90 input  -60.55 | X-H torsion
[ 11005 11000 10999 10996 ] final  120.62 input  -57.11 | X-H torsion

> <Gold.Protein.ActiveResidues>
 VAL166  LYS551  ARG553  GLY616  TRP617  ASP618  TYR619  PRO620  LYS621  CYS622 
 ASP623  PHE694  ASN695  SER759  ASP760  ASP761  ALA762  ILE779  LEU786  VAL792 
 PHE793  MET794  SER795  GLU796  ALA797  LYS798  CYS799  TRP800  GLU811  SER814 

> <Gold.Protein.RotatedAtoms>
  152.4103  133.6953  159.6391 H   0  0  0  0  0  0  0  0  0  0  0  0  # atno 6907 bound_to 6896
  150.7984  133.8636  159.3247 H   0  0  0  0  0  0  0  0  0  0  0  0  # atno 6908 bound_to 6896
  151.6380  135.1017  160.0187 H   0  0  0  0  0  0  0  0  0  0  0  0  # atno 6909 bound_to 6896
  146.1361  139.6284  142.9194 H   0  0  0  0  0  0  0  0  0  0  0  0  # atno 7974 bound_to 7965
  154.7687  140.2798  155.6155 H   0  0  0  0  0  0  0  0  0  0  0  0  # atno 8008 bound_to 7997
  156.2929  140.2645  156.2412 H   0  0  0  0  0  0  0  0  0  0  0  0  # atno 8009 bound_to 7997
  154.9927  140.0373  157.2316 H   0  0  0  0  0  0  0  0  0  0  0  0  # atno 8010 bound_to 7997
  140.0682  144.5175  150.7246 H   0  0  0  0  0  0  0  0  0  0  0  0  # atno 10167 bound_to 10162
  157.6525  131.0920  150.6505 H   0  0  0  0  0  0  0  0  0  0  0  0  # atno 10718 bound_to 10713
  153.3510  135.6985  153.6789 H   0  0  0  0  0  0  0  0  0  0  0  0  # atno 10763 bound_to 10752
  153.5516  135.3552  155.2762 H   0  0  0  0  0  0  0  0  0  0  0  0  # atno 10764 bound_to 10752
  154.8653  135.4228  154.2745 H   0  0  0  0  0  0  0  0  0  0  0  0  # atno 10765 bound_to 10752
  139.9192  134.9635  156.7834 H   0  0  0  0  0  0  0  0  0  0  0  0  # atno 11005 bound_to 11000
  145.5153  141.0434  143.2465 LP  0  0  0  0  0  0  0  0  0  0  0  0  # atno 17320 bound_to 7965
  144.7741  139.6668  143.7182 LP  0  0  0  0  0  0  0  0  0  0  0  0  # atno 17321 bound_to 7965
  140.7138  143.2527  151.4497 LP  0  0  0  0  0  0  0  0  0  0  0  0  # atno 17342 bound_to 10162
  139.5852  144.1621  152.2019 LP  0  0  0  0  0  0  0  0  0  0  0  0  # atno 17343 bound_to 10162
  156.6815  130.4568  149.5626 LP  0  0  0  0  0  0  0  0  0  0  0  0  # atno 17370 bound_to 10713
  156.1926  130.6569  151.1078 LP  0  0  0  0  0  0  0  0  0  0  0  0  # atno 17371 bound_to 10713
  140.6526  133.9718  155.7763 LP  0  0  0  0  0  0  0  0  0  0  0  0  # atno 17394 bound_to 11000
  141.0698  134.0223  157.3542 LP  0  0  0  0  0  0  0  0  0  0  0  0  # atno 17395 bound_to 11000

$$$$
