AV-unprocessed.smi:1726|AV-procd|sdf|6964|dock3
  -GOLD-   22720 8173D 1   1.00000     0.00000
 Structure written by MMmdl.
 42 43  0  0  0  0  0  0  0  0  3 V2000
  141.7958  135.2729  153.2996 C   0  0  0  0  0  0  0  0  0  0  0  0
  141.9132  133.9684  152.4978 C   0  0  0  0  0  0  0  0  0  0  0  0
  143.1142  133.9392  151.6247 N   0  3  2  0  0  0  0  0  0  0  0  0
  143.1754  132.7032  150.8017 C   0  0  0  0  0  0  0  0  0  0  0  0
  144.3496  132.7499  149.8098 C   0  0  0  0  0  0  0  0  0  0  0  0
  145.6782  132.9834  150.5396 C   0  0  0  0  0  0  0  0  0  0  0  0
  145.5863  134.2521  151.4010 C   0  0  2  0  0  0  0  0  0  0  0  0
  146.8306  134.4435  152.1398 N   0  0  0  0  0  0  0  0  0  0  0  0
  147.3427  133.5754  153.0243 C   0  0  0  0  0  0  0  0  0  0  0  0
  146.8018  132.5055  153.3045 O   0  0  0  0  0  0  0  0  0  0  0  0
  148.5085  134.0269  153.5200 N   0  0  0  0  0  0  0  0  0  0  0  0
  149.3547  133.4407  154.4765 C   0  0  0  0  0  0  0  0  0  0  0  0
  149.6601  132.1148  154.5343 C   0  0  0  0  0  0  0  0  0  0  0  0
  150.5357  131.5604  155.5591 C   0  0  0  0  0  0  0  0  0  0  0  0
  150.8394  130.0791  155.6981 C   0  0  0  0  0  0  0  0  0  0  0  0
  152.1484  129.8469  155.5955 F   0  0  0  0  0  0  0  0  0  0  0  0
  150.4207  129.6129  156.8746 F   0  0  0  0  0  0  0  0  0  0  0  0
  150.2201  129.3969  154.7361 F   0  0  0  0  0  0  0  0  0  0  0  0
  150.9709  132.5200  156.4523 C   0  0  0  0  0  0  0  0  0  0  0  0
  150.7213  133.8478  156.4629 N   0  5  0  0  0  0  0  0  0  0  0  0
  149.9103  134.3575  155.4933 C   0  0  0  0  0  0  0  0  0  0  0  0
  149.6350  135.5571  155.4476 O   0  0  0  0  0  0  0  0  0  0  0  0
  144.3841  134.1641  152.3654 C   0  0  0  0  0  0  0  0  0  0  0  0
  140.8505  135.3037  153.8419 H   0  0  0  0  0  0  0  0  0  0  0  0
  141.8272  136.1433  152.6434 H   0  0  0  0  0  0  0  0  0  0  0  0
  142.5915  135.3763  154.0368 H   0  0  0  0  0  0  0  0  0  0  0  0
  141.9127  133.1046  153.1643 H   0  0  0  0  0  0  0  0  0  0  0  0
  141.0198  133.8802  151.8784 H   0  0  0  0  0  0  0  0  0  0  0  0
  143.2690  131.8345  151.4553 H   0  0  0  0  0  0  0  0  0  0  0  0
  142.2446  132.5829  150.2459 H   0  0  0  0  0  0  0  0  0  0  0  0
  144.3951  131.8201  149.2421 H   0  0  0  0  0  0  0  0  0  0  0  0
  144.1847  133.5474  149.0840 H   0  0  0  0  0  0  0  0  0  0  0  0
  145.9089  132.1203  151.1660 H   0  0  0  0  0  0  0  0  0  0  0  0
  146.4902  133.0722  149.8168 H   0  0  0  0  0  0  0  0  0  0  0  0
  145.4422  135.1046  150.7338 H   0  0  0  0  0  0  0  0  0  0  0  0
  147.3403  135.2975  151.9650 H   0  0  0  0  0  0  0  0  0  0  0  0
  148.8597  134.8908  153.1327 H   0  0  0  0  0  0  0  0  0  0  0  0
  149.2440  131.4204  153.8234 H   0  0  0  0  0  0  0  0  0  0  0  0
  151.6142  132.1667  157.2862 H   0  0  0  0  0  0  0  0  0  0  0  0
  144.3183  135.0879  152.9393 H   0  0  0  0  0  0  0  0  0  0  0  0
  144.5333  133.3570  153.0848 H   0  0  0  0  0  0  0  0  0  0  0  0
  143.0142  134.7062  150.9750 H   0  0  0  0  0  0  0  0  0  0  0  0
  1  2  1  0  0  0  0
  1 24  1  0  0  0  0
  1 25  1  0  0  0  0
  1 26  1  0  0  0  0
  2  3  1  0  0  0  0
  2 27  1  0  0  0  0
  2 28  1  0  0  0  0
  3 23  1  0  0  0  0
  3  4  1  0  0  0  0
  3 42  1  0  0  0  0
  4  5  1  0  0  0  0
  4 29  1  0  0  0  0
  4 30  1  0  0  0  0
  5  6  1  0  0  0  0
  5 31  1  0  0  0  0
  5 32  1  0  0  0  0
  6  7  1  0  0  0  0
  6 33  1  0  0  0  0
  6 34  1  0  0  0  0
  7  8  1  0  0  0  0
  7 23  1  0  0  0  0
  7 35  1  0  0  0  0
  8  9  1  0  0  0  0
  8 36  1  0  0  0  0
  9 10  2  0  0  0  0
  9 11  1  0  0  0  0
 11 12  1  0  0  0  0
 11 37  1  0  0  0  0
 12 21  1  0  0  0  0
 12 13  2  0  0  0  0
 13 14  1  0  0  0  0
 13 38  1  0  0  0  0
 14 15  1  0  0  0  0
 14 19  2  0  0  0  0
 15 16  1  0  0  0  0
 15 17  1  0  0  0  0
 15 18  1  0  0  0  0
 19 20  1  0  0  0  0
 19 39  1  0  0  0  0
 20 21  1  0  0  0  0
 21 22  2  0  0  0  0
 23 40  1  0  0  0  0
 23 41  1  0  0  0  0
M  CHG  1   3   1
M  CHG  1  20  -1
M  END
> <s_m_source_file>
AV-unprocessed.smi

> <i_m_source_file_index>
1726

> <i_lp_mmshare_version>
43012

> <i_f3d_flags>
0

> <s_epik_input>
W0NIM11bQ0gyXU4xW0NIMl1bQ0gyXVtDSDJdW0NASF0oW0NIMl0xKVtOSF1DKD1PKVtOSF1jMltjSF1jKEMoRikoRilGKVtjSF1bbkhdYzI9Tw==

> <s_epik_cmdline>
J2VwaWtfcHl0aG9uJywgJy1waCcsICc3LjAnLCAnLXRuJywgJzgnLCAnLW1hJywgJzIwMCcsICctbWV0YWxfYmluZGluZycsICctaW1hZScsICc8aW5maWxlLm1hZT4nLCAnLW9tYWUnLCAnPG91dGZpbGUubWFlPic=

> <r_lp_tautomer_probability>
1

> <r_epik_Ionization_Penalty>
3.01007

> <r_epik_Ionization_Penalty_Charging>
0.14897

> <r_epik_Ionization_Penalty_Neutral>
2.8611

> <r_epik_State_Penalty>
2.85632

> <r_epik_Charging_Adjusted_Penalty>
3.00529

> <i_epik_Tot_Q>
0

> <i_epik_Tot_abs_Q>
2

> <r_epik_Metal_State_Penalty>
0.443826

> <b_epik_Metal_Only>
1

> <s_lp_Force_Field>
OPLS_2005

> <r_lp_Energy>
27.5552

> <b_lp_Chiralities_Consistent>
1

> <s_lp_Variant>
AV-unprocessed.smi:1726-8

> <Gold.Version>
5.8.1

> <Gold.Id.Protein>
6NUR|6NUR_protein|mol2

> <Gold.PLP.Fitness>
45.3416

> <Gold.PLP.PLP>
-40.4633

> <Gold.PLP.part.hbond>
-2.8989

> <Gold.PLP.part.metal>
0.0000

> <Gold.PLP.part.buried>
-3.1198

> <Gold.PLP.part.nonpolar>
-33.7682

> <Gold.PLP.part.repulsive>
0.2459

> <Gold.PLP.ligand.clash>
0.0000

> <Gold.PLP.ligand.torsion>
0.3720

> <Gold.PLP.Chemscore.Hbond>
1.8500

> <Gold.PLP.Chemscore.CHOScore>
0.0000

> <Gold.PLP.Chemscore.Metal>
0.0000

> <Gold.Chemscore.Hbonds>
donor molecule, donor type, donor heavy atom, donor atom, acceptor molecule, acceptor atom, score
      L1  H     8    36       P1  7948  0.99
      L1  H    11    37       P1  7948  0.95

> <Gold.PLP.Chemscore.Internal.Correction>
0.0724

> <Gold.Rescore>
     Score         DG    S(hbond)    S(metal)    S(lipo)     H(rot)  DE(clash)    DE(int)     intcor
     13.73     -15.61       1.19        0.00      80.63       1.28       0.36       1.52       ----

> <Gold.Chemscore.Fitness>
13.7326

> <Gold.Chemscore.DG>
-15.6113

> <Gold.Chemscore.ZeroCoef>
-5.4800

> <Gold.Chemscore.Hbond>
1.1895

> <Gold.Chemscore.Metal>
0.0000

> <Gold.Chemscore.Lipo>
80.6343

> <Gold.Chemscore.Internal_Hbond>
0.0000

> <Gold.Chemscore.DEClash>
0.3604

> <Gold.Chemscore.DEInternal>
1.5183

> <Gold.Chemscore.Rot>
1.2796

> <Gold.Chemscore.Internal.Correction>
   9.000000E+99

> <Gold.Chemscore.Hbonds>
donor molecule, donor type, donor heavy atom, donor atom, acceptor molecule, acceptor atom, score
      L1  H     8    36       P1  7948  0.94
      L1  H    11    37       P1  7948  0.21

> <Gold.Chemscore.Hbond.Weighted>
-3.9730

> <Gold.Chemscore.Metal.Weighted>
-0.0000

> <Gold.Chemscore.Lipo.Weighted>
-9.4342

> <Gold.Chemscore.Internal_Hbond.Weighted>
0.0000

> <Gold.Chemscore.DEClash.Weighted>
0.3604

> <Gold.Chemscore.DEInternal.Weighted>
1.5183

> <Gold.Chemscore.Rot.Weighted>
3.2759

> <Gold.Chemscore.Internal.Correction.Weighted>
   9.000000E+99

> <Gold.Protein.RotatedTorsions>
[ 6907 6896 6895 6894 ] final  107.93 input  -60.11 | X-H torsion
[ 7974 7965 7964 7962 ] final  -95.27 input  175.53 | X-H torsion
[ 8008 7997 7996 7995 ] final  106.38 input   59.86 | X-H torsion
[ 10167 10162 10161 10158 ] final  -30.62 input  -65.29 | X-H torsion
[ 10718 10713 10712 10709 ] final  -58.35 input   66.30 | X-H torsion
[ 10763 10752 10751 10750 ] final -167.86 input  -60.55 | X-H torsion
[ 11005 11000 10999 10996 ] final  133.29 input  -57.11 | X-H torsion

> <Gold.Protein.ActiveResidues>
 VAL166  LYS551  ARG553  GLY616  TRP617  ASP618  TYR619  PRO620  LYS621  CYS622 
 ASP623  PHE694  ASN695  SER759  ASP760  ASP761  ALA762  ILE779  LEU786  VAL792 
 PHE793  MET794  SER795  GLU796  ALA797  LYS798  CYS799  TRP800  GLU811  SER814 

> <Gold.Protein.RotatedAtoms>
  152.5134  133.9163  159.7512 H   0  0  0  0  0  0  0  0  0  0  0  0  # atno 6907 bound_to 6896
  150.9545  133.6504  159.2772 H   0  0  0  0  0  0  0  0  0  0  0  0  # atno 6908 bound_to 6896
  151.3771  135.0938  159.9537 H   0  0  0  0  0  0  0  0  0  0  0  0  # atno 6909 bound_to 6896
  145.3623  140.9493  143.2494 H   0  0  0  0  0  0  0  0  0  0  0  0  # atno 7974 bound_to 7965
  156.1738  140.3114  155.9022 H   0  0  0  0  0  0  0  0  0  0  0  0  # atno 8008 bound_to 7997
  155.3530  140.0472  157.3063 H   0  0  0  0  0  0  0  0  0  0  0  0  # atno 8009 bound_to 7997
  154.5269  140.2217  155.8884 H   0  0  0  0  0  0  0  0  0  0  0  0  # atno 8010 bound_to 7997
  140.7247  143.3835  151.1558 H   0  0  0  0  0  0  0  0  0  0  0  0  # atno 10167 bound_to 10162
  156.1141  130.4172  150.0566 H   0  0  0  0  0  0  0  0  0  0  0  0  # atno 10718 bound_to 10713
  154.6689  135.2936  154.9768 H   0  0  0  0  0  0  0  0  0  0  0  0  # atno 10763 bound_to 10752
  154.0802  135.6605  153.4841 H   0  0  0  0  0  0  0  0  0  0  0  0  # atno 10764 bound_to 10752
  153.0474  135.5195  154.7675 H   0  0  0  0  0  0  0  0  0  0  0  0  # atno 10765 bound_to 10752
  139.9842  134.9538  156.9703 H   0  0  0  0  0  0  0  0  0  0  0  0  # atno 11005 bound_to 11000
  144.8637  139.5139  143.6800 LP  0  0  0  0  0  0  0  0  0  0  0  0  # atno 17320 bound_to 7965
  146.2922  139.7172  142.9153 LP  0  0  0  0  0  0  0  0  0  0  0  0  # atno 17321 bound_to 7965
  139.7428  143.8899  152.3055 LP  0  0  0  0  0  0  0  0  0  0  0  0  # atno 17342 bound_to 10162
  139.8725  144.7060  150.8970 LP  0  0  0  0  0  0  0  0  0  0  0  0  # atno 17343 bound_to 10162
  156.8521  130.9462  151.3624 LP  0  0  0  0  0  0  0  0  0  0  0  0  # atno 17370 bound_to 10713
  157.6324  130.8740  149.9297 LP  0  0  0  0  0  0  0  0  0  0  0  0  # atno 17371 bound_to 10713
  140.5035  134.1074  155.7255 LP  0  0  0  0  0  0  0  0  0  0  0  0  # atno 17394 bound_to 11000
  141.1510  133.8969  157.2098 LP  0  0  0  0  0  0  0  0  0  0  0  0  # atno 17395 bound_to 11000

$$$$
