AV-unprocessed.smi:3284|AV-procd|sdf|12578|dock7
  -GOLD-   2272018503D 1   1.00000     0.00000
 Structure written by MMmdl.
 45 46  0  0  0  0  0  0  0  0  3 V2000
  147.0904  141.4632  153.7171 C   0  0  0  0  0  0  0  0  0  0  0  0
  147.9116  140.3041  154.2575 C   0  0  0  0  0  0  0  0  0  0  0  0
  147.3038  139.1452  154.5756 C   0  0  0  0  0  0  0  0  0  0  0  0
  148.0273  137.9061  155.0496 C   0  0  0  0  0  0  0  0  0  0  0  0
  149.5020  137.9439  154.6422 C   0  0  0  0  0  0  0  0  0  0  0  0
  150.1576  139.2785  155.0330 C   0  0  1  0  0  0  0  0  0  0  0  0
  151.6576  139.2340  154.6823 C   0  0  0  0  0  0  0  0  0  0  0  0
  149.4345  140.5067  154.3984 C   0  0  2  0  0  0  0  0  0  0  0  0
  149.7950  141.7968  155.1814 C   0  0  0  0  0  0  0  0  0  0  0  0
  148.8811  142.0580  156.3127 N   0  3  0  0  0  0  0  0  0  0  0  0
  149.3445  141.5072  157.6012 C   0  0  0  0  0  0  0  0  0  0  0  0
  150.8696  141.6186  157.7340 C   0  0  0  0  0  0  0  0  0  0  0  0
  151.3117  142.9445  158.2735 C   0  0  0  0  0  0  0  0  0  0  0  0
  150.8899  144.1406  157.8451 N   0  3  0  0  0  0  0  0  0  0  0  0
  151.5054  145.1427  158.5453 C   0  0  0  0  0  0  0  0  0  0  0  0
  152.3449  144.5313  159.4392 C   0  0  0  0  0  0  0  0  0  0  0  0
  152.2069  143.1803  159.2474 N   0  0  0  0  0  0  0  0  0  0  0  0
  152.9075  142.1208  159.9765 C   0  0  0  0  0  0  0  0  0  0  0  0
  147.5298  141.8472  152.7961 H   0  0  0  0  0  0  0  0  0  0  0  0
  147.0280  142.2708  154.4461 H   0  0  0  0  0  0  0  0  0  0  0  0
  146.0699  141.1529  153.4900 H   0  0  0  0  0  0  0  0  0  0  0  0
  146.2309  139.0557  154.4839 H   0  0  0  0  0  0  0  0  0  0  0  0
  147.9241  137.8326  156.1327 H   0  0  0  0  0  0  0  0  0  0  0  0
  147.5488  137.0255  154.6204 H   0  0  0  0  0  0  0  0  0  0  0  0
  150.0270  137.1090  155.1080 H   0  0  0  0  0  0  0  0  0  0  0  0
  149.5857  137.7976  153.5641 H   0  0  0  0  0  0  0  0  0  0  0  0
  150.0745  139.3617  156.1181 H   0  0  0  0  0  0  0  0  0  0  0  0
  151.8089  139.1553  153.6052 H   0  0  0  0  0  0  0  0  0  0  0  0
  152.1399  138.3714  155.1434 H   0  0  0  0  0  0  0  0  0  0  0  0
  152.1929  140.1172  155.0274 H   0  0  0  0  0  0  0  0  0  0  0  0
  149.8086  140.6083  153.3783 H   0  0  0  0  0  0  0  0  0  0  0  0
  150.8216  141.7276  155.5446 H   0  0  0  0  0  0  0  0  0  0  0  0
  149.7588  142.6734  154.5364 H   0  0  0  0  0  0  0  0  0  0  0  0
  148.7630  143.0570  156.4046 H   0  0  0  0  0  0  0  0  0  0  0  0
  148.8569  142.0477  158.4135 H   0  0  0  0  0  0  0  0  0  0  0  0
  149.0380  140.4630  157.6785 H   0  0  0  0  0  0  0  0  0  0  0  0
  151.2561  140.8556  158.4110 H   0  0  0  0  0  0  0  0  0  0  0  0
  151.3615  141.4738  156.7715 H   0  0  0  0  0  0  0  0  0  0  0  0
  151.3056  146.1884  158.3598 H   0  0  0  0  0  0  0  0  0  0  0  0
  153.0134  144.9485  160.1788 H   0  0  0  0  0  0  0  0  0  0  0  0
  153.6579  142.5631  160.6326 H   0  0  0  0  0  0  0  0  0  0  0  0
  153.3990  141.4531  159.2685 H   0  0  0  0  0  0  0  0  0  0  0  0
  152.1891  141.5615  160.5765 H   0  0  0  0  0  0  0  0  0  0  0  0
  147.9848  141.6465  156.0933 H   0  0  0  0  0  0  0  0  0  0  0  0
  150.2085  144.2841  157.1101 H   0  0  0  0  0  0  0  0  0  0  0  0
  1  2  1  0  0  0  0
  1 19  1  0  0  0  0
  1 20  1  0  0  0  0
  1 21  1  0  0  0  0
  2  8  1  0  0  0  0
  2  3  2  0  0  0  0
  3  4  1  0  0  0  0
  3 22  1  0  0  0  0
  4  5  1  0  0  0  0
  4 23  1  0  0  0  0
  4 24  1  0  0  0  0
  5  6  1  0  0  0  0
  5 25  1  0  0  0  0
  5 26  1  0  0  0  0
  6  7  1  0  0  0  0
  6  8  1  0  0  0  0
  6 27  1  0  0  0  0
  7 28  1  0  0  0  0
  7 29  1  0  0  0  0
  7 30  1  0  0  0  0
  8  9  1  0  0  0  0
  8 31  1  0  0  0  0
  9 10  1  0  0  0  0
  9 32  1  0  0  0  0
  9 33  1  0  0  0  0
 10 11  1  0  0  0  0
 10 34  1  0  0  0  0
 10 44  1  0  0  0  0
 11 12  1  0  0  0  0
 11 35  1  0  0  0  0
 11 36  1  0  0  0  0
 12 13  1  0  0  0  0
 12 37  1  0  0  0  0
 12 38  1  0  0  0  0
 13 17  1  0  0  0  0
 13 14  2  0  0  0  0
 14 15  1  0  0  0  0
 14 45  1  0  0  0  0
 15 16  2  0  0  0  0
 15 39  1  0  0  0  0
 16 17  1  0  0  0  0
 16 40  1  0  0  0  0
 17 18  1  0  0  0  0
 18 41  1  0  0  0  0
 18 42  1  0  0  0  0
 18 43  1  0  0  0  0
M  CHG  1  10   1
M  CHG  1  14   1
M  END
> <s_m_source_file>
AV-unprocessed.smi

> <i_m_source_file_index>
3284

> <i_lp_mmshare_version>
43012

> <i_f3d_flags>
0

> <s_epik_input>
W0NIM11DMT1bQ0hdW0NIMl1bQ0gyXVtDQEBIXShbQ0gzXSlbQ0BIXTFbQ0gyXVtOSF1bQ0gyXVtDSDJdYzJuW2NIXVtjSF1uMltDSDNd

> <s_epik_cmdline>
J2VwaWtfcHl0aG9uJywgJy1waCcsICc3LjAnLCAnLXRuJywgJzgnLCAnLW1hJywgJzIwMCcsICctbWV0YWxfYmluZGluZycsICctaW1hZScsICc8aW5maWxlLm1hZT4nLCAnLW9tYWUnLCAnPG91dGZpbGUubWFlPic=

> <r_lp_tautomer_probability>
1

> <r_epik_Ionization_Penalty>
0.892846

> <r_epik_Ionization_Penalty_Charging>
0.00275802

> <r_epik_Ionization_Penalty_Neutral>
0.890088

> <r_epik_State_Penalty>
0.485211

> <r_epik_Charging_Adjusted_Penalty>
0.487969

> <i_epik_Tot_Q>
2

> <i_epik_Tot_abs_Q>
2

> <r_epik_Metal_State_Penalty>
4.22898

> <b_epik_Metal_Only>
0

> <s_lp_Force_Field>
OPLS_2005

> <r_lp_Energy>
22.9484

> <b_lp_Chiralities_Consistent>
1

> <s_lp_Variant>
AV-unprocessed.smi:3284-7

> <Gold.Version>
5.8.1

> <Gold.Id.Protein>
6NUR|6NUR_protein|mol2

> <Gold.PLP.Fitness>
50.1201

> <Gold.PLP.PLP>
-39.8691

> <Gold.PLP.part.hbond>
-1.9900

> <Gold.PLP.part.metal>
0.0000

> <Gold.PLP.part.buried>
-3.5771

> <Gold.PLP.part.nonpolar>
-33.0529

> <Gold.PLP.part.repulsive>
0.0720

> <Gold.PLP.ligand.clash>
0.0000

> <Gold.PLP.ligand.torsion>
0.9107

> <Gold.PLP.Chemscore.Hbond>
4.0000

> <Gold.PLP.Chemscore.CHOScore>
0.0000

> <Gold.PLP.Chemscore.Metal>
0.0000

> <Gold.Chemscore.Hbonds>
donor molecule, donor type, donor heavy atom, donor atom, acceptor molecule, acceptor atom, score
      L1  H    10    34       P1  8028  1.98
      L1  H    14    45       P1  8028  2.00

> <Gold.PLP.Chemscore.Internal.Correction>
0.0724

> <Gold.Rescore>
     Score         DG    S(hbond)    S(metal)    S(lipo)     H(rot)  DE(clash)    DE(int)     intcor
     17.98     -18.96       1.96        0.00      96.52       1.70       0.10       0.87       ----

> <Gold.Chemscore.Fitness>
17.9828

> <Gold.Chemscore.DG>
-18.9576

> <Gold.Chemscore.ZeroCoef>
-5.4800

> <Gold.Chemscore.Hbond>
1.9567

> <Gold.Chemscore.Metal>
0.0000

> <Gold.Chemscore.Lipo>
96.5249

> <Gold.Chemscore.Internal_Hbond>
0.0000

> <Gold.Chemscore.DEClash>
0.1038

> <Gold.Chemscore.DEInternal>
0.8710

> <Gold.Chemscore.Rot>
1.6997

> <Gold.Chemscore.Internal.Correction>
   9.000000E+99

> <Gold.Chemscore.Hbonds>
donor molecule, donor type, donor heavy atom, donor atom, acceptor molecule, acceptor atom, score
      L1  H    10    34       P1  8028  0.90
      L1  H    14    45       P1  8028  0.80

> <Gold.Chemscore.Hbond.Weighted>
-6.5354

> <Gold.Chemscore.Metal.Weighted>
-0.0000

> <Gold.Chemscore.Lipo.Weighted>
-11.2934

> <Gold.Chemscore.Internal_Hbond.Weighted>
0.0000

> <Gold.Chemscore.DEClash.Weighted>
0.1038

> <Gold.Chemscore.DEInternal.Weighted>
0.8710

> <Gold.Chemscore.Rot.Weighted>
4.3512

> <Gold.Chemscore.Internal.Correction.Weighted>
   9.000000E+99

> <Gold.Protein.RotatedTorsions>
[ 6907 6896 6895 6894 ] final   67.86 input  -60.11 | X-H torsion
[ 7974 7965 7964 7962 ] final   -6.75 input  175.53 | X-H torsion
[ 8008 7997 7996 7995 ] final   67.36 input   59.86 | X-H torsion
[ 10167 10162 10161 10158 ] final -146.80 input  -65.29 | X-H torsion
[ 10718 10713 10712 10709 ] final -113.73 input   66.30 | X-H torsion
[ 10763 10752 10751 10750 ] final  160.48 input  -60.55 | X-H torsion
[ 11005 11000 10999 10996 ] final  128.56 input  -57.11 | X-H torsion

> <Gold.Protein.ActiveResidues>
 VAL166  LYS551  ARG553  GLY616  TRP617  ASP618  TYR619  PRO620  LYS621  CYS622 
 ASP623  PHE694  ASN695  SER759  ASP760  ASP761  ALA762  ILE779  LEU786  VAL792 
 PHE793  MET794  SER795  GLU796  ALA797  LYS798  CYS799  TRP800  GLU811  SER814 

> <Gold.Protein.RotatedAtoms>
  152.4581  134.5246  159.9792 H   0  0  0  0  0  0  0  0  0  0  0  0  # atno 6907 bound_to 6896
  151.5302  133.3445  159.2924 H   0  0  0  0  0  0  0  0  0  0  0  0  # atno 6908 bound_to 6896
  150.8533  134.7894  159.7088 H   0  0  0  0  0  0  0  0  0  0  0  0  # atno 6909 bound_to 6896
  146.2323  140.2217  142.8337 H   0  0  0  0  0  0  0  0  0  0  0  0  # atno 7974 bound_to 7965
  155.6916  140.3496  155.4896 H   0  0  0  0  0  0  0  0  0  0  0  0  # atno 8008 bound_to 7997
  155.9519  140.1121  157.0992 H   0  0  0  0  0  0  0  0  0  0  0  0  # atno 8009 bound_to 7997
  154.4124  140.1192  156.5050 H   0  0  0  0  0  0  0  0  0  0  0  0  # atno 8010 bound_to 7997
  139.7680  143.8279  152.2619 H   0  0  0  0  0  0  0  0  0  0  0  0  # atno 10167 bound_to 10162
  156.0785  130.5988  150.8680 H   0  0  0  0  0  0  0  0  0  0  0  0  # atno 10718 bound_to 10713
  154.2480  135.2772  155.2828 H   0  0  0  0  0  0  0  0  0  0  0  0  # atno 10763 bound_to 10752
  154.5489  135.5681  153.6908 H   0  0  0  0  0  0  0  0  0  0  0  0  # atno 10764 bound_to 10752
  152.9986  135.6269  154.2626 H   0  0  0  0  0  0  0  0  0  0  0  0  # atno 10765 bound_to 10752
  139.9567  134.9611  156.9020 H   0  0  0  0  0  0  0  0  0  0  0  0  # atno 11005 bound_to 11000
  144.9626  140.8290  143.5504 LP  0  0  0  0  0  0  0  0  0  0  0  0  # atno 17320 bound_to 7965
  145.2190  139.2168  143.5103 LP  0  0  0  0  0  0  0  0  0  0  0  0  # atno 17321 bound_to 7965
  139.8305  144.7256  150.9457 LP  0  0  0  0  0  0  0  0  0  0  0  0  # atno 17342 bound_to 10162
  140.7812  143.4075  151.1048 LP  0  0  0  0  0  0  0  0  0  0  0  0  # atno 17343 bound_to 10162
  157.5891  131.0945  150.9148 LP  0  0  0  0  0  0  0  0  0  0  0  0  # atno 17370 bound_to 10713
  156.9328  130.5356  149.5279 LP  0  0  0  0  0  0  0  0  0  0  0  0  # atno 17371 bound_to 10713
  140.5592  134.0551  155.7393 LP  0  0  0  0  0  0  0  0  0  0  0  0  # atno 17394 bound_to 11000
  141.1240  133.9414  157.2673 LP  0  0  0  0  0  0  0  0  0  0  0  0  # atno 17395 bound_to 11000

$$$$
