AV-unprocessed.smi:2412|AV-procd|sdf|9532|dock2
  -GOLD-   2272013163D 1   1.00000     0.00000
 Structure written by MMmdl.
 37 38  0  0  0  0  0  0  0  0  1 V2000
  145.5250  135.7589  151.4560 C   0  0  0  0  0  0  0  0  0  0  0  0
  145.3458  134.2548  151.3449 C   0  0  0  0  0  0  0  0  0  0  0  0
  144.2417  133.7284  150.6400 C   0  0  0  0  0  0  0  0  0  0  0  0
  144.0120  132.4076  150.4914 N   0  0  0  0  0  0  0  0  0  0  0  0
  144.8935  131.5505  151.0455 C   0  0  0  0  0  0  0  0  0  0  0  0
  146.0286  131.9651  151.7688 C   0  0  0  0  0  0  0  0  0  0  0  0
  146.2612  133.3516  151.9382 C   0  0  0  0  0  0  0  0  0  0  0  0
  147.3884  133.8759  152.6326 N   0  0  0  0  0  0  0  0  0  0  0  0
  148.1632  133.2793  153.5552 C   0  0  0  0  0  0  0  0  0  0  0  0
  148.0012  132.1421  153.9978 O   0  0  0  0  0  0  0  0  0  0  0  0
  149.1489  134.0943  153.9599 N   0  0  0  0  0  0  0  0  0  0  0  0
  150.1803  133.7459  154.9357 C   0  0  0  0  0  0  0  0  0  0  0  0
  150.1773  134.6553  156.1788 C   0  0  0  0  0  0  0  0  0  0  0  0
  149.9257  134.1807  157.2881 O   0  0  0  0  0  0  0  0  0  0  0  0
  150.4682  135.9622  156.0118 N   0  0  0  0  0  0  0  0  0  0  0  0
  150.5130  136.9716  157.0697 C   0  0  0  0  0  0  0  0  0  0  0  0
  151.0782  138.2332  156.4156 C   0  0  0  0  0  0  0  0  0  0  0  0
  150.7403  138.0743  154.9401 C   0  0  0  0  0  0  0  0  0  0  0  0
  150.7633  136.5629  154.7124 C   0  0  0  0  0  0  0  0  0  0  0  0
  144.7090  136.2927  150.9681 H   0  0  0  0  0  0  0  0  0  0  0  0
  146.4586  136.0668  150.9845 H   0  0  0  0  0  0  0  0  0  0  0  0
  145.5477  136.0637  152.5026 H   0  0  0  0  0  0  0  0  0  0  0  0
  143.5200  134.3856  150.1774 H   0  0  0  0  0  0  0  0  0  0  0  0
  144.6928  130.4991  150.9019 H   0  0  0  0  0  0  0  0  0  0  0  0
  146.6981  131.2164  152.1626 H   0  0  0  0  0  0  0  0  0  0  0  0
  147.6004  134.8431  152.4376 H   0  0  0  0  0  0  0  0  0  0  0  0
  149.2084  135.0129  153.5458 H   0  0  0  0  0  0  0  0  0  0  0  0
  150.0108  132.7167  155.2527 H   0  0  0  0  0  0  0  0  0  0  0  0
  151.1596  133.7723  154.4557 H   0  0  0  0  0  0  0  0  0  0  0  0
  149.5006  137.1514  157.4343 H   0  0  0  0  0  0  0  0  0  0  0  0
  151.1314  136.6647  157.9142 H   0  0  0  0  0  0  0  0  0  0  0  0
  150.6744  139.1501  156.8459 H   0  0  0  0  0  0  0  0  0  0  0  0
  152.1617  138.2551  156.5401 H   0  0  0  0  0  0  0  0  0  0  0  0
  149.7362  138.4575  154.7532 H   0  0  0  0  0  0  0  0  0  0  0  0
  151.4297  138.6107  154.2874 H   0  0  0  0  0  0  0  0  0  0  0  0
  151.7538  136.2384  154.3901 H   0  0  0  0  0  0  0  0  0  0  0  0
  150.0438  136.2670  153.9471 H   0  0  0  0  0  0  0  0  0  0  0  0
  1  2  1  0  0  0  0
  1 20  1  0  0  0  0
  1 21  1  0  0  0  0
  1 22  1  0  0  0  0
  2  7  1  0  0  0  0
  2  3  2  0  0  0  0
  3  4  1  0  0  0  0
  3 23  1  0  0  0  0
  4  5  2  0  0  0  0
  5  6  1  0  0  0  0
  5 24  1  0  0  0  0
  6  7  2  0  0  0  0
  6 25  1  0  0  0  0
  7  8  1  0  0  0  0
  8  9  1  0  0  0  0
  8 26  1  0  0  0  0
  9 10  2  0  0  0  0
  9 11  1  0  0  0  0
 11 12  1  0  0  0  0
 11 27  1  0  0  0  0
 12 13  1  0  0  0  0
 12 28  1  0  0  0  0
 12 29  1  0  0  0  0
 13 14  2  0  0  0  0
 13 15  1  0  0  0  0
 15 19  1  0  0  0  0
 15 16  1  0  0  0  0
 16 17  1  0  0  0  0
 16 30  1  0  0  0  0
 16 31  1  0  0  0  0
 17 18  1  0  0  0  0
 17 32  1  0  0  0  0
 17 33  1  0  0  0  0
 18 19  1  0  0  0  0
 18 34  1  0  0  0  0
 18 35  1  0  0  0  0
 19 36  1  0  0  0  0
 19 37  1  0  0  0  0
M  END
> <s_m_source_file>
AV-unprocessed.smi

> <i_m_source_file_index>
2412

> <i_lp_mmshare_version>
43012

> <i_f3d_flags>
0

> <s_epik_input>
W0NIM11jMVtjSF1uW2NIXVtjSF1jMVtOSF1DKD1PKVtOSF1bQ0gyXUMoPU8pTjJbQ0gyXVtDSDJdW0NIMl1bQ0gyXTI=

> <s_epik_cmdline>
J2VwaWtfcHl0aG9uJywgJy1waCcsICc3LjAnLCAnLXRuJywgJzgnLCAnLW1hJywgJzIwMCcsICctbWV0YWxfYmluZGluZycsICctaW1hZScsICc8aW5maWxlLm1hZT4nLCAnLW9tYWUnLCAnPG91dGZpbGUubWFlPic=

> <r_epik_Ionization_Penalty>
0.157619

> <r_epik_Ionization_Penalty_Charging>
0

> <r_epik_Ionization_Penalty_Neutral>
0.157619

> <r_epik_State_Penalty>
0.146889

> <r_epik_Charging_Adjusted_Penalty>
0.146889

> <i_epik_Tot_Q>
0

> <i_epik_Tot_abs_Q>
0

> <r_epik_Metal_State_Penalty>
0.115729

> <b_epik_Metal_Only>
0

> <s_lp_Force_Field>
OPLS_2005

> <r_lp_Energy>
29.7149

> <b_lp_Chiralities_Consistent>
1

> <s_lp_Variant>
AV-unprocessed.smi:2412-1

> <Gold.Version>
5.8.1

> <Gold.Id.Protein>
6NUR|6NUR_protein|mol2

> <Gold.PLP.Fitness>
39.9774

> <Gold.PLP.PLP>
-30.0022

> <Gold.PLP.part.hbond>
-2.7851

> <Gold.PLP.part.metal>
0.0000

> <Gold.PLP.part.buried>
-6.9279

> <Gold.PLP.part.nonpolar>
-21.9947

> <Gold.PLP.part.repulsive>
0.2506

> <Gold.PLP.ligand.clash>
0.0000

> <Gold.PLP.ligand.torsion>
0.1161

> <Gold.PLP.Chemscore.Hbond>
2.4972

> <Gold.PLP.Chemscore.CHOScore>
0.9048

> <Gold.PLP.Chemscore.Metal>
0.0000

> <Gold.Chemscore.Hbonds>
donor molecule, donor type, donor heavy atom, donor atom, acceptor molecule, acceptor atom, score
      L1  H     8    26       P1  7948  0.94
      L1  H    11    27       P1  7948  0.81
      P1  H  6896  6908       L1    14  0.62
      L1  C     3    23       P1 10186  0.87

> <Gold.PLP.Chemscore.Internal.Correction>
0.0014

> <Gold.Rescore>
     Score         DG    S(hbond)    S(metal)    S(lipo)     H(rot)  DE(clash)    DE(int)     intcor
     14.41     -15.72       1.96        0.00      59.16       1.26       0.00       1.31       ----

> <Gold.Chemscore.Fitness>
14.4057

> <Gold.Chemscore.DG>
-15.7179

> <Gold.Chemscore.ZeroCoef>
-5.4800

> <Gold.Chemscore.Hbond>
1.9613

> <Gold.Chemscore.Metal>
0.0000

> <Gold.Chemscore.Lipo>
59.1568

> <Gold.Chemscore.Internal_Hbond>
0.0000

> <Gold.Chemscore.DEClash>
0.0000

> <Gold.Chemscore.DEInternal>
1.3121

> <Gold.Chemscore.Rot>
1.2633

> <Gold.Chemscore.Internal.Correction>
   9.000000E+99

> <Gold.Chemscore.Hbonds>
donor molecule, donor type, donor heavy atom, donor atom, acceptor molecule, acceptor atom, score
      L1  H     8    26       P1  7948  0.82
      L1  H    11    27       P1  7948  0.15
      P1  H  6896  6908       L1    14  0.61

> <Gold.Chemscore.Hbond.Weighted>
-6.5506

> <Gold.Chemscore.Metal.Weighted>
-0.0000

> <Gold.Chemscore.Lipo.Weighted>
-6.9213

> <Gold.Chemscore.Internal_Hbond.Weighted>
0.0000

> <Gold.Chemscore.DEClash.Weighted>
0.0000

> <Gold.Chemscore.DEInternal.Weighted>
1.3121

> <Gold.Chemscore.Rot.Weighted>
3.2341

> <Gold.Chemscore.Internal.Correction.Weighted>
   9.000000E+99

> <Gold.Protein.RotatedTorsions>
[ 6907 6896 6895 6894 ] final  132.32 input  -60.11 | X-H torsion
[ 7974 7965 7964 7962 ] final    8.92 input  175.53 | X-H torsion
[ 8008 7997 7996 7995 ] final    3.81 input   59.86 | X-H torsion
[ 10167 10162 10161 10158 ] final  141.58 input  -65.29 | X-H torsion
[ 10718 10713 10712 10709 ] final -121.55 input   66.30 | X-H torsion
[ 10763 10752 10751 10750 ] final -149.18 input  -60.55 | X-H torsion
[ 11005 11000 10999 10996 ] final   89.21 input  -57.11 | X-H torsion

> <Gold.Protein.ActiveResidues>
 VAL166  LYS551  ARG553  GLY616  TRP617  ASP618  TYR619  PRO620  LYS621  CYS622 
 ASP623  PHE694  ASN695  SER759  ASP760  ASP761  ALA762  ILE779  LEU786  VAL792 
 PHE793  MET794  SER795  GLU796  ALA797  LYS798  CYS799  TRP800  GLU811  SER814 

> <Gold.Protein.RotatedAtoms>
  152.3335  133.5985  159.5826 H   0  0  0  0  0  0  0  0  0  0  0  0  # atno 6907 bound_to 6896
  150.7437  133.9831  159.3591 H   0  0  0  0  0  0  0  0  0  0  0  0  # atno 6908 bound_to 6896
  151.7703  135.0788  160.0410 H   0  0  0  0  0  0  0  0  0  0  0  0  # atno 6909 bound_to 6896
  146.2410  139.9861  142.8431 H   0  0  0  0  0  0  0  0  0  0  0  0  # atno 7974 bound_to 7965
  154.7082  140.2687  155.6654 H   0  0  0  0  0  0  0  0  0  0  0  0  # atno 8008 bound_to 7997
  156.2787  140.2758  156.1639 H   0  0  0  0  0  0  0  0  0  0  0  0  # atno 8009 bound_to 7997
  155.0671  140.0372  157.2586 H   0  0  0  0  0  0  0  0  0  0  0  0  # atno 8010 bound_to 7997
  139.5017  144.6162  151.6158 H   0  0  0  0  0  0  0  0  0  0  0  0  # atno 10167 bound_to 10162
  156.1346  130.6421  150.9675 H   0  0  0  0  0  0  0  0  0  0  0  0  # atno 10718 bound_to 10713
  154.8192  135.3316  154.7088 H   0  0  0  0  0  0  0  0  0  0  0  0  # atno 10763 bound_to 10752
  153.7724  135.6924  153.4908 H   0  0  0  0  0  0  0  0  0  0  0  0  # atno 10764 bound_to 10752
  153.2036  135.4507  155.0244 H   0  0  0  0  0  0  0  0  0  0  0  0  # atno 10765 bound_to 10752
  139.8880  134.8537  156.3110 H   0  0  0  0  0  0  0  0  0  0  0  0  # atno 11005 bound_to 11000
  145.1546  140.9641  143.4412 LP  0  0  0  0  0  0  0  0  0  0  0  0  # atno 17320 bound_to 7965
  145.0173  139.3456  143.6090 LP  0  0  0  0  0  0  0  0  0  0  0  0  # atno 17321 bound_to 7965
  140.5851  143.9878  150.6291 LP  0  0  0  0  0  0  0  0  0  0  0  0  # atno 17342 bound_to 10162
  140.3040  143.3241  152.0944 LP  0  0  0  0  0  0  0  0  0  0  0  0  # atno 17343 bound_to 10162
  157.6520  131.0895  150.8030 LP  0  0  0  0  0  0  0  0  0  0  0  0  # atno 17370 bound_to 10713
  156.8111  130.4953  149.5356 LP  0  0  0  0  0  0  0  0  0  0  0  0  # atno 17371 bound_to 10713
  140.9850  133.7243  156.0729 LP  0  0  0  0  0  0  0  0  0  0  0  0  # atno 17394 bound_to 11000
  140.7699  134.3844  157.5509 LP  0  0  0  0  0  0  0  0  0  0  0  0  # atno 17395 bound_to 11000

$$$$
