AV-unprocessed.smi:249|AV-procd|sdf|1907|dock2
  -GOLD-   2262020593D 1   1.00000     0.00000
 Structure written by MMmdl.
 64 67  0  0  0  0  0  0  0  0  2 V2000
  147.9169  141.8691  157.8951 C   0  0  0  0  0  0  0  0  0  0  0  0
  148.2232  141.0004  156.6654 C   0  0  0  0  0  0  0  0  0  0  0  0
  149.1563  141.6552  155.7017 N   0  3  1  0  0  0  0  0  0  0  0  0
  150.5119  141.9299  156.2576 C   0  0  0  0  0  0  0  0  0  0  0  0
  151.3442  140.6419  156.4096 C   0  0  0  0  0  0  0  0  0  0  0  0
  151.4451  139.8953  155.0662 C   0  0  1  0  0  0  0  0  0  0  0  0
  152.2156  138.6544  155.1790 N   0  0  0  0  0  0  0  0  0  0  0  0
  153.5621  138.5441  154.6223 C   0  0  0  0  0  0  0  0  0  0  0  0
  151.6202  137.5289  155.6540 C   0  0  0  0  0  0  0  0  0  0  0  0
  151.7603  136.3758  154.9480 N   0  0  0  0  0  0  0  0  0  0  0  0
  151.1800  135.2483  155.3681 C   0  0  0  0  0  0  0  0  0  0  0  0
  150.4336  135.0500  156.4552 N   0  0  0  0  0  0  0  0  0  0  0  0
  150.3049  136.1958  157.1822 C   0  0  0  0  0  0  0  0  0  0  0  0
  150.8577  137.4683  156.8583 C   0  0  0  0  0  0  0  0  0  0  0  0
  150.5184  138.3892  157.8444 N   0  0  0  0  0  0  0  0  0  0  0  0
  149.7960  137.7066  158.6896 C   0  0  0  0  0  0  0  0  0  0  0  0
  149.6328  136.3761  158.3789 N   0  0  0  0  0  0  0  0  0  0  0  0
  148.8722  135.3968  159.1360 C   0  0  0  0  0  0  0  0  0  0  0  0
  147.3294  135.5842  159.0952 C   0  0  2  0  0  0  0  0  0  0  0  0
  146.9855  137.0345  159.5136 C   0  0  0  0  0  0  0  0  0  0  0  0
  147.5712  137.3659  160.7560 O   0  0  0  0  0  0  0  0  0  0  0  0
  146.5615  134.5425  159.9633 C   0  0  1  0  0  0  0  0  0  0  0  0
  147.0217  134.4440  161.4107 C   0  0  0  0  0  0  0  0  0  0  0  0
  145.8455  133.7500  162.0807 C   0  0  0  0  0  0  0  0  0  0  0  0
  144.7036  134.3077  161.4513 O   0  0  0  0  0  0  0  0  0  0  0  0
  145.0625  134.8210  160.1720 C   0  0  0  0  0  0  0  0  0  0  0  0
  150.0444  139.6588  154.4693 C   0  0  0  0  0  0  0  0  0  0  0  0
  149.2652  140.9864  154.3685 C   0  0  1  0  0  0  0  0  0  0  0  0
  147.9161  140.8267  153.6453 C   0  0  0  0  0  0  0  0  0  0  0  0
  147.1180  141.4215  158.4869 H   0  0  0  0  0  0  0  0  0  0  0  0
  147.5896  142.8675  157.6039 H   0  0  0  0  0  0  0  0  0  0  0  0
  148.7788  141.9703  158.5538 H   0  0  0  0  0  0  0  0  0  0  0  0
  148.6033  140.0284  156.9790 H   0  0  0  0  0  0  0  0  0  0  0  0
  147.2681  140.8096  156.1802 H   0  0  0  0  0  0  0  0  0  0  0  0
  151.0276  142.6107  155.5788 H   0  0  0  0  0  0  0  0  0  0  0  0
  150.4539  142.4614  157.2060 H   0  0  0  0  0  0  0  0  0  0  0  0
  152.3437  140.8938  156.7660 H   0  0  0  0  0  0  0  0  0  0  0  0
  150.9018  140.0056  157.1760 H   0  0  0  0  0  0  0  0  0  0  0  0
  151.9724  140.5772  154.4003 H   0  0  0  0  0  0  0  0  0  0  0  0
  154.1970  137.9331  155.2650 H   0  0  0  0  0  0  0  0  0  0  0  0
  154.0339  139.5211  154.5232 H   0  0  0  0  0  0  0  0  0  0  0  0
  153.5291  138.0850  153.6337 H   0  0  0  0  0  0  0  0  0  0  0  0
  151.3366  134.3809  154.7440 H   0  0  0  0  0  0  0  0  0  0  0  0
  149.3700  138.1555  159.5752 H   0  0  0  0  0  0  0  0  0  0  0  0
  149.1324  134.4016  158.7732 H   0  0  0  0  0  0  0  0  0  0  0  0
  149.2362  135.4476  160.1623 H   0  0  0  0  0  0  0  0  0  0  0  0
  146.9913  135.4651  158.0651 H   0  0  0  0  0  0  0  0  0  0  0  0
  147.3638  137.7598  158.7946 H   0  0  0  0  0  0  0  0  0  0  0  0
  145.9059  137.1756  159.5744 H   0  0  0  0  0  0  0  0  0  0  0  0
  147.0182  137.0362  161.4478 H   0  0  0  0  0  0  0  0  0  0  0  0
  146.6705  133.5541  159.5133 H   0  0  0  0  0  0  0  0  0  0  0  0
  147.9487  133.8832  161.5328 H   0  0  0  0  0  0  0  0  0  0  0  0
  147.1609  135.4384  161.8379 H   0  0  0  0  0  0  0  0  0  0  0  0
  145.8709  132.6773  161.8843 H   0  0  0  0  0  0  0  0  0  0  0  0
  145.8235  133.9010  163.1600 H   0  0  0  0  0  0  0  0  0  0  0  0
  144.8545  135.8913  160.1725 H   0  0  0  0  0  0  0  0  0  0  0  0
  144.4472  134.3562  159.4028 H   0  0  0  0  0  0  0  0  0  0  0  0
  150.1431  139.2155  153.4776 H   0  0  0  0  0  0  0  0  0  0  0  0
  149.4834  138.9409  155.0676 H   0  0  0  0  0  0  0  0  0  0  0  0
  149.8542  141.6600  153.7436 H   0  0  0  0  0  0  0  0  0  0  0  0
  148.0720  140.5365  152.6059 H   0  0  0  0  0  0  0  0  0  0  0  0
  147.3549  141.7616  153.6420 H   0  0  0  0  0  0  0  0  0  0  0  0
  147.2927  140.0555  154.0976 H   0  0  0  0  0  0  0  0  0  0  0  0
  148.7469  142.5598  155.5158 H   0  0  0  0  0  0  0  0  0  0  0  0
  1  2  1  0  0  0  0
  1 30  1  0  0  0  0
  1 31  1  0  0  0  0
  1 32  1  0  0  0  0
  2  3  1  0  0  0  0
  2 33  1  0  0  0  0
  2 34  1  0  0  0  0
  3 28  1  0  0  0  0
  3  4  1  0  0  0  0
  3 64  1  0  0  0  0
  4  5  1  0  0  0  0
  4 35  1  0  0  0  0
  4 36  1  0  0  0  0
  5  6  1  0  0  0  0
  5 37  1  0  0  0  0
  5 38  1  0  0  0  0
  6  7  1  0  0  0  0
  6 27  1  0  0  0  0
  6 39  1  0  0  0  0
  7  8  1  0  0  0  0
  7  9  1  0  0  0  0
  8 40  1  0  0  0  0
  8 41  1  0  0  0  0
  8 42  1  0  0  0  0
  9 14  1  0  0  0  0
  9 10  2  0  0  0  0
 10 11  1  0  0  0  0
 11 12  2  0  0  0  0
 11 43  1  0  0  0  0
 12 13  1  0  0  0  0
 13 17  1  0  0  0  0
 13 14  2  0  0  0  0
 14 15  1  0  0  0  0
 15 16  2  0  0  0  0
 16 17  1  0  0  0  0
 16 44  1  0  0  0  0
 17 18  1  0  0  0  0
 18 19  1  0  0  0  0
 18 45  1  0  0  0  0
 18 46  1  0  0  0  0
 19 20  1  0  0  0  0
 19 22  1  0  0  0  0
 19 47  1  0  0  0  0
 20 21  1  0  0  0  0
 20 48  1  0  0  0  0
 20 49  1  0  0  0  0
 21 50  1  0  0  0  0
 22 26  1  0  0  0  0
 22 23  1  0  0  0  0
 22 51  1  0  0  0  0
 23 24  1  0  0  0  0
 23 52  1  0  0  0  0
 23 53  1  0  0  0  0
 24 25  1  0  0  0  0
 24 54  1  0  0  0  0
 24 55  1  0  0  0  0
 25 26  1  0  0  0  0
 26 56  1  0  0  0  0
 26 57  1  0  0  0  0
 27 28  1  0  0  0  0
 27 58  1  0  0  0  0
 27 59  1  0  0  0  0
 28 29  1  0  0  0  0
 28 60  1  0  0  0  0
 29 61  1  0  0  0  0
 29 62  1  0  0  0  0
 29 63  1  0  0  0  0
M  CHG  1   3   1
M  END
> <s_m_source_file>
AV-unprocessed.smi

> <i_m_source_file_index>
249

> <i_lp_mmshare_version>
43012

> <i_f3d_flags>
0

> <s_epik_input>
W0NIM11bQ0gyXU4xW0NIMl1bQ0gyXVtDQEhdKFtDSDJdW0NASF0xW0NIM10pTihbQ0gzXSljKG5bY0hdbjIpYyhjMjMpbltjSF1uM1tDSDJdW0NASF0oW0NIMl1bT0hdKVtDQEBIXTRbQ0gyXVtDSDJdT1tDSDJdNA==

> <s_epik_cmdline>
J2VwaWtfcHl0aG9uJywgJy1waCcsICc3LjAnLCAnLXRuJywgJzgnLCAnLW1hJywgJzIwMCcsICctbWV0YWxfYmluZGluZycsICctaW1hZScsICc8aW5maWxlLm1hZT4nLCAnLW9tYWUnLCAnPG91dGZpbGUubWFlPic=

> <r_lp_tautomer_probability>
1

> <r_epik_Ionization_Penalty>
0.00294688

> <r_epik_Ionization_Penalty_Charging>
0.00169971

> <r_epik_Ionization_Penalty_Neutral>
0.00124717

> <r_epik_State_Penalty>
-0

> <r_epik_Charging_Adjusted_Penalty>
0.00169971

> <i_epik_Tot_Q>
1

> <i_epik_Tot_abs_Q>
1

> <r_epik_Metal_State_Penalty>
-0

> <b_epik_Metal_Only>
0

> <s_lp_Force_Field>
OPLS_2005

> <r_lp_Energy>
54.7906

> <b_lp_Chiralities_Consistent>
1

> <s_lp_Variant>
AV-unprocessed.smi:249-10

> <Gold.Version>
5.8.1

> <Gold.Id.Protein>
6NUR|6NUR_protein|mol2

> <Gold.PLP.Fitness>
51.2051

> <Gold.PLP.PLP>
-40.1992

> <Gold.PLP.part.hbond>
-3.8394

> <Gold.PLP.part.metal>
0.0000

> <Gold.PLP.part.buried>
-0.8398

> <Gold.PLP.part.nonpolar>
-35.5852

> <Gold.PLP.part.repulsive>
0.2735

> <Gold.PLP.ligand.clash>
0.0000

> <Gold.PLP.ligand.torsion>
1.4539

> <Gold.PLP.Chemscore.Hbond>
4.4334

> <Gold.PLP.Chemscore.CHOScore>
0.0000

> <Gold.PLP.Chemscore.Metal>
0.0000

> <Gold.Chemscore.Hbonds>
donor molecule, donor type, donor heavy atom, donor atom, acceptor molecule, acceptor atom, score
      L1  H     3    64       P1  8028  1.32
      P1  H  6931  6943       L1    21  0.66
      P1  H  6934  6947       L1    21  0.88
      P1  H 10752 10765       L1    10  0.26

> <Gold.PLP.Chemscore.Internal.Correction>
0.6137

> <Gold.Rescore>
     Score         DG    S(hbond)    S(metal)    S(lipo)     H(rot)  DE(clash)    DE(int)     intcor
      9.29     -14.40       1.67        0.00      86.66       2.65       0.67       4.45       ----

> <Gold.Chemscore.Fitness>
9.2851

> <Gold.Chemscore.DG>
-14.4013

> <Gold.Chemscore.ZeroCoef>
-5.4800

> <Gold.Chemscore.Hbond>
1.6679

> <Gold.Chemscore.Metal>
0.0000

> <Gold.Chemscore.Lipo>
86.6551

> <Gold.Chemscore.Internal_Hbond>
0.0000

> <Gold.Chemscore.DEClash>
0.6690

> <Gold.Chemscore.DEInternal>
4.4473

> <Gold.Chemscore.Rot>
2.6515

> <Gold.Chemscore.Internal.Correction>
   9.000000E+99

> <Gold.Chemscore.Hbonds>
donor molecule, donor type, donor heavy atom, donor atom, acceptor molecule, acceptor atom, score
      L1  H     3    64       P1  8028  0.62
      P1  H  6931  6943       L1    21  0.14
      P1  H  6934  6947       L1    21  0.07

> <Gold.Chemscore.Hbond.Weighted>
-5.5706

> <Gold.Chemscore.Metal.Weighted>
-0.0000

> <Gold.Chemscore.Lipo.Weighted>
-10.1386

> <Gold.Chemscore.Internal_Hbond.Weighted>
0.0000

> <Gold.Chemscore.DEClash.Weighted>
0.6690

> <Gold.Chemscore.DEInternal.Weighted>
4.4473

> <Gold.Chemscore.Rot.Weighted>
6.7880

> <Gold.Chemscore.Internal.Correction.Weighted>
   9.000000E+99

> <Gold.Protein.RotatedTorsions>
[ 6907 6896 6895 6894 ] final  -98.78 input  -60.11 | X-H torsion
[ 7974 7965 7964 7962 ] final -129.02 input  175.53 | X-H torsion
[ 8008 7997 7996 7995 ] final  158.86 input   59.86 | X-H torsion
[ 10167 10162 10161 10158 ] final  -99.21 input  -65.29 | X-H torsion
[ 10718 10713 10712 10709 ] final -102.63 input   66.30 | X-H torsion
[ 10763 10752 10751 10750 ] final -168.78 input  -60.55 | X-H torsion
[ 11005 11000 10999 10996 ] final  -45.59 input  -57.11 | X-H torsion

> <Gold.Protein.ActiveResidues>
 VAL166  LYS551  ARG553  GLY616  TRP617  ASP618  TYR619  PRO620  LYS621  CYS622 
 ASP623  PHE694  ASN695  SER759  ASP760  ASP761  ALA762  ILE779  LEU786  VAL792 
 PHE793  MET794  SER795  GLU796  ALA797  LYS798  CYS799  TRP800  GLU811  SER814 

> <Gold.Protein.RotatedAtoms>
  150.7058  134.1141  159.4010 H   0  0  0  0  0  0  0  0  0  0  0  0  # atno 6907 bound_to 6896
  151.9128  135.0329  160.0525 H   0  0  0  0  0  0  0  0  0  0  0  0  # atno 6908 bound_to 6896
  152.2322  133.5032  159.5259 H   0  0  0  0  0  0  0  0  0  0  0  0  # atno 6909 bound_to 6896
  144.9613  140.7450  143.4727 H   0  0  0  0  0  0  0  0  0  0  0  0  # atno 7974 bound_to 7965
  156.2276  140.1847  156.7324 H   0  0  0  0  0  0  0  0  0  0  0  0  # atno 8008 bound_to 7997
  154.5967  140.0642  156.9341 H   0  0  0  0  0  0  0  0  0  0  0  0  # atno 8009 bound_to 7997
  155.2243  140.3310  155.4314 H   0  0  0  0  0  0  0  0  0  0  0  0  # atno 8010 bound_to 7997
  140.2648  143.3383  152.0591 H   0  0  0  0  0  0  0  0  0  0  0  0  # atno 10167 bound_to 10162
  156.0236  130.5429  150.7137 H   0  0  0  0  0  0  0  0  0  0  0  0  # atno 10718 bound_to 10713
  154.6593  135.2922  154.9887 H   0  0  0  0  0  0  0  0  0  0  0  0  # atno 10763 bound_to 10752
  154.0953  135.6585  153.4863 H   0  0  0  0  0  0  0  0  0  0  0  0  # atno 10764 bound_to 10752
  153.0420  135.5229  154.7536 H   0  0  0  0  0  0  0  0  0  0  0  0  # atno 10765 bound_to 10752
  141.0525  133.6737  156.3035 H   0  0  0  0  0  0  0  0  0  0  0  0  # atno 11005 bound_to 11000
  145.2696  139.1960  143.4849 LP  0  0  0  0  0  0  0  0  0  0  0  0  # atno 17320 bound_to 7965
  146.3354  140.2640  142.8603 LP  0  0  0  0  0  0  0  0  0  0  0  0  # atno 17321 bound_to 7965
  139.5006  144.6695  151.6277 LP  0  0  0  0  0  0  0  0  0  0  0  0  # atno 17342 bound_to 10162
  140.5937  143.9735  150.6340 LP  0  0  0  0  0  0  0  0  0  0  0  0  # atno 17343 bound_to 10162
  157.4769  131.0898  151.0580 LP  0  0  0  0  0  0  0  0  0  0  0  0  # atno 17370 bound_to 10713
  157.1024  130.5987  149.5463 LP  0  0  0  0  0  0  0  0  0  0  0  0  # atno 17371 bound_to 10713
  140.6027  134.5538  157.5520 LP  0  0  0  0  0  0  0  0  0  0  0  0  # atno 17394 bound_to 11000
  139.9362  134.7870  156.0796 LP  0  0  0  0  0  0  0  0  0  0  0  0  # atno 17395 bound_to 11000

$$$$
