AV-unprocessed.smi:774|AV-procd|sdf|3693|dock8
  -GOLD-   22720 1113D 1   1.00000     0.00000
 Structure written by MMmdl.
 37 38  0  0  0  0  0  0  0  0  1 V2000
  146.6317  129.4811  151.8667 C   0  0  0  0  0  0  0  0  0  0  0  0
  145.4690  130.4713  151.7604 C   0  0  0  0  0  0  0  0  0  0  0  0
  145.7287  131.6570  150.4125 S   0  0  0  0  0  0  0  0  0  0  0  0
  144.7932  133.0802  151.0434 C   0  0  2  0  0  0  0  0  0  0  0  0
  144.6257  134.1966  150.0143 C   0  0  0  0  0  0  0  0  0  0  0  0
  144.2961  135.4317  150.8532 C   0  0  0  0  0  0  0  0  0  0  0  0
  145.0064  135.2296  152.2068 C   0  0  2  0  0  0  0  0  0  0  0  0
  146.1268  136.1528  152.3686 N   0  0  0  0  0  0  0  0  0  0  0  0
  146.0252  137.4204  152.7930 C   0  0  0  0  0  0  0  0  0  0  0  0
  144.9556  137.9532  153.0884 O   0  0  0  0  0  0  0  0  0  0  0  0
  147.2283  138.0188  152.8270 N   0  0  0  0  0  0  0  0  0  0  0  0
  147.5443  139.3449  153.2282 C   0  0  0  0  0  0  0  0  0  0  0  0
  148.7656  139.5593  153.9000 C   0  0  0  0  0  0  0  0  0  0  0  0
  149.0963  140.8601  154.3249 C   0  0  0  0  0  0  0  0  0  0  0  0
  148.1825  141.9005  154.0684 C   0  0  0  0  0  0  0  0  0  0  0  0
  147.0027  141.7111  153.4411 N   0  0  0  0  0  0  0  0  0  0  0  0
  146.6926  140.4610  153.0343 C   0  0  0  0  0  0  0  0  0  0  0  0
  145.4931  133.7682  152.2193 C   0  0  0  0  0  0  0  0  0  0  0  0
  146.4665  128.7739  152.6796 H   0  0  0  0  0  0  0  0  0  0  0  0
  147.5718  129.9981  152.0610 H   0  0  0  0  0  0  0  0  0  0  0  0
  146.7467  128.9092  150.9455 H   0  0  0  0  0  0  0  0  0  0  0  0
  144.5373  129.9323  151.5887 H   0  0  0  0  0  0  0  0  0  0  0  0
  145.3587  131.0179  152.6973 H   0  0  0  0  0  0  0  0  0  0  0  0
  143.8094  132.7405  151.3703 H   0  0  0  0  0  0  0  0  0  0  0  0
  145.5631  134.3576  149.4799 H   0  0  0  0  0  0  0  0  0  0  0  0
  143.8532  133.9797  149.2761 H   0  0  0  0  0  0  0  0  0  0  0  0
  144.5794  136.3546  150.3451 H   0  0  0  0  0  0  0  0  0  0  0  0
  143.2188  135.4772  151.0181 H   0  0  0  0  0  0  0  0  0  0  0  0
  144.2898  135.3774  153.0172 H   0  0  0  0  0  0  0  0  0  0  0  0
  147.0443  135.7985  152.1404 H   0  0  0  0  0  0  0  0  0  0  0  0
  148.0034  137.4776  152.4733 H   0  0  0  0  0  0  0  0  0  0  0  0
  149.4446  138.7395  154.0852 H   0  0  0  0  0  0  0  0  0  0  0  0
  150.0271  141.0555  154.8363 H   0  0  0  0  0  0  0  0  0  0  0  0
  148.4025  142.9109  154.3802 H   0  0  0  0  0  0  0  0  0  0  0  0
  145.7263  140.3684  152.5637 H   0  0  0  0  0  0  0  0  0  0  0  0
  145.2800  133.2721  153.1668 H   0  0  0  0  0  0  0  0  0  0  0  0
  146.5741  133.7275  152.0729 H   0  0  0  0  0  0  0  0  0  0  0  0
  1  2  1  0  0  0  0
  1 19  1  0  0  0  0
  1 20  1  0  0  0  0
  1 21  1  0  0  0  0
  2  3  1  0  0  0  0
  2 22  1  0  0  0  0
  2 23  1  0  0  0  0
  3  4  1  0  0  0  0
  4 18  1  0  0  0  0
  4  5  1  0  0  0  0
  4 24  1  0  0  0  0
  5  6  1  0  0  0  0
  5 25  1  0  0  0  0
  5 26  1  0  0  0  0
  6  7  1  0  0  0  0
  6 27  1  0  0  0  0
  6 28  1  0  0  0  0
  7  8  1  0  0  0  0
  7 18  1  0  0  0  0
  7 29  1  0  0  0  0
  8  9  1  0  0  0  0
  8 30  1  0  0  0  0
  9 10  2  0  0  0  0
  9 11  1  0  0  0  0
 11 12  1  0  0  0  0
 11 31  1  0  0  0  0
 12 17  1  0  0  0  0
 12 13  2  0  0  0  0
 13 14  1  0  0  0  0
 13 32  1  0  0  0  0
 14 15  2  0  0  0  0
 14 33  1  0  0  0  0
 15 16  1  0  0  0  0
 15 34  1  0  0  0  0
 16 17  2  0  0  0  0
 17 35  1  0  0  0  0
 18 36  1  0  0  0  0
 18 37  1  0  0  0  0
M  END
> <s_m_source_file>
AV-unprocessed.smi

> <i_m_source_file_index>
774

> <i_lp_mmshare_version>
43012

> <i_f3d_flags>
0

> <s_epik_input>
W0NIM11bQ0gyXVNbQ0BASF0xW0NIMl1bQ0gyXVtDQEhdKFtDSDJdMSlbTkhdQyg9TylbTkhdYzJbY0hdW2NIXVtjSF1uW2NIXTI=

> <s_epik_cmdline>
J2VwaWtfcHl0aG9uJywgJy1waCcsICc3LjAnLCAnLXRuJywgJzgnLCAnLW1hJywgJzIwMCcsICctbWV0YWxfYmluZGluZycsICctaW1hZScsICc8aW5maWxlLm1hZT4nLCAnLW9tYWUnLCAnPG91dGZpbGUubWFlPic=

> <r_epik_Ionization_Penalty>
0.00485718

> <r_epik_Ionization_Penalty_Charging>
0

> <r_epik_Ionization_Penalty_Neutral>
0.00485718

> <r_epik_State_Penalty>
0.00349461

> <r_epik_Charging_Adjusted_Penalty>
0.00349461

> <i_epik_Tot_Q>
0

> <i_epik_Tot_abs_Q>
0

> <r_epik_Metal_State_Penalty>
-0

> <b_epik_Metal_Only>
0

> <s_lp_Force_Field>
OPLS_2005

> <r_lp_Energy>
20.2727

> <b_lp_Chiralities_Consistent>
1

> <s_lp_Variant>
AV-unprocessed.smi:774-3

> <Gold.Version>
5.8.1

> <Gold.Id.Protein>
6NUR|6NUR_protein|mol2

> <Gold.PLP.Fitness>
43.1960

> <Gold.PLP.PLP>
-33.1094

> <Gold.PLP.part.hbond>
-2.0000

> <Gold.PLP.part.metal>
0.0000

> <Gold.PLP.part.buried>
-2.1269

> <Gold.PLP.part.nonpolar>
-29.3150

> <Gold.PLP.part.repulsive>
0.4442

> <Gold.PLP.ligand.clash>
0.0000

> <Gold.PLP.ligand.torsion>
0.7800

> <Gold.PLP.Chemscore.Hbond>
1.8800

> <Gold.PLP.Chemscore.CHOScore>
2.0000

> <Gold.PLP.Chemscore.Metal>
0.0000

> <Gold.Chemscore.Hbonds>
donor molecule, donor type, donor heavy atom, donor atom, acceptor molecule, acceptor atom, score
      L1  H     8    30       P1  7948  0.94
      L1  H    11    31       P1  7948  1.00
      L1  C    15    34       P1  8028  1.00
      L1  C    17    35       P1 10175  1.00

> <Gold.PLP.Chemscore.Internal.Correction>
0.0066

> <Gold.Rescore>
     Score         DG    S(hbond)    S(metal)    S(lipo)     H(rot)  DE(clash)    DE(int)     intcor
     17.38     -19.12       1.89        0.00      91.03       1.30       0.20       1.53       ----

> <Gold.Chemscore.Fitness>
17.3833

> <Gold.Chemscore.DG>
-19.1178

> <Gold.Chemscore.ZeroCoef>
-5.4800

> <Gold.Chemscore.Hbond>
1.8938

> <Gold.Chemscore.Metal>
0.0000

> <Gold.Chemscore.Lipo>
91.0326

> <Gold.Chemscore.Internal_Hbond>
0.0000

> <Gold.Chemscore.DEClash>
0.2025

> <Gold.Chemscore.DEInternal>
1.5320

> <Gold.Chemscore.Rot>
1.3041

> <Gold.Chemscore.Internal.Correction>
   9.000000E+99

> <Gold.Chemscore.Hbonds>
donor molecule, donor type, donor heavy atom, donor atom, acceptor molecule, acceptor atom, score
      L1  H     8    30       P1  7948  0.90
      L1  H    11    31       P1  7948  1.00

> <Gold.Chemscore.Hbond.Weighted>
-6.3254

> <Gold.Chemscore.Metal.Weighted>
-0.0000

> <Gold.Chemscore.Lipo.Weighted>
-10.6508

> <Gold.Chemscore.Internal_Hbond.Weighted>
0.0000

> <Gold.Chemscore.DEClash.Weighted>
0.2025

> <Gold.Chemscore.DEInternal.Weighted>
1.5320

> <Gold.Chemscore.Rot.Weighted>
3.3384

> <Gold.Chemscore.Internal.Correction.Weighted>
   9.000000E+99

> <Gold.Protein.RotatedTorsions>
[ 6907 6896 6895 6894 ] final -124.53 input  -60.11 | X-H torsion
[ 7974 7965 7964 7962 ] final  139.91 input  175.53 | X-H torsion
[ 8008 7997 7996 7995 ] final  -78.23 input   59.86 | X-H torsion
[ 10167 10162 10161 10158 ] final  -21.07 input  -65.29 | X-H torsion
[ 10718 10713 10712 10709 ] final -128.00 input   66.30 | X-H torsion
[ 10763 10752 10751 10750 ] final  -42.48 input  -60.55 | X-H torsion
[ 11005 11000 10999 10996 ] final -151.45 input  -57.11 | X-H torsion

> <Gold.Protein.ActiveResidues>
 VAL166  LYS551  ARG553  GLY616  TRP617  ASP618  TYR619  PRO620  LYS621  CYS622 
 ASP623  PHE694  ASN695  SER759  ASP760  ASP761  ALA762  ILE779  LEU786  VAL792 
 PHE793  MET794  SER795  GLU796  ALA797  LYS798  CYS799  TRP800  GLU811  SER814 

> <Gold.Protein.RotatedAtoms>
  150.8778  133.7415  159.2941 H   0  0  0  0  0  0  0  0  0  0  0  0  # atno 6907 bound_to 6896
  151.5006  135.1060  159.9837 H   0  0  0  0  0  0  0  0  0  0  0  0  # atno 6908 bound_to 6896
  152.4739  133.8047  159.7027 H   0  0  0  0  0  0  0  0  0  0  0  0  # atno 6909 bound_to 6896
  144.9235  139.5137  143.5652 H   0  0  0  0  0  0  0  0  0  0  0  0  # atno 7974 bound_to 7965
  154.5669  140.0697  156.8906 H   0  0  0  0  0  0  0  0  0  0  0  0  # atno 8008 bound_to 7997
  155.2705  140.3365  155.4247 H   0  0  0  0  0  0  0  0  0  0  0  0  # atno 8009 bound_to 7997
  156.2088  140.1751  156.7727 H   0  0  0  0  0  0  0  0  0  0  0  0  # atno 8010 bound_to 7997
  140.7280  143.4663  151.0309 H   0  0  0  0  0  0  0  0  0  0  0  0  # atno 10167 bound_to 10162
  156.1909  130.6795  151.0423 H   0  0  0  0  0  0  0  0  0  0  0  0  # atno 10718 bound_to 10713
  153.9798  135.6718  153.4749 H   0  0  0  0  0  0  0  0  0  0  0  0  # atno 10763 bound_to 10752
  153.0754  135.4952  154.8389 H   0  0  0  0  0  0  0  0  0  0  0  0  # atno 10764 bound_to 10752
  154.7171  135.3109  154.9068 H   0  0  0  0  0  0  0  0  0  0  0  0  # atno 10765 bound_to 10752
  140.7294  134.3638  157.5169 H   0  0  0  0  0  0  0  0  0  0  0  0  # atno 11005 bound_to 11000
  146.3215  139.8133  142.8941 LP  0  0  0  0  0  0  0  0  0  0  0  0  # atno 17320 bound_to 7965
  145.3257  141.0254  143.3475 LP  0  0  0  0  0  0  0  0  0  0  0  0  # atno 17321 bound_to 7965
  139.8351  143.7638  152.3180 LP  0  0  0  0  0  0  0  0  0  0  0  0  # atno 17342 bound_to 10162
  139.7767  144.7458  151.0146 LP  0  0  0  0  0  0  0  0  0  0  0  0  # atno 17343 bound_to 10162
  157.6928  131.0804  150.7056 LP  0  0  0  0  0  0  0  0  0  0  0  0  # atno 17370 bound_to 10713
  156.7113  130.4652  149.5546 LP  0  0  0  0  0  0  0  0  0  0  0  0  # atno 17371 bound_to 10713
  139.8829  134.9008  156.2797 LP  0  0  0  0  0  0  0  0  0  0  0  0  # atno 17394 bound_to 11000
  140.9934  133.7195  156.0848 LP  0  0  0  0  0  0  0  0  0  0  0  0  # atno 17395 bound_to 11000

$$$$
