AV-unprocessed.smi:434|AV-procd|sdf|2552|dock4
  -GOLD-   2262022513D 1   1.00000     0.00000
 Structure written by MMmdl.
 39 41  0  0  0  0  0  0  0  0  1 V2000
  151.3252  139.4883  155.5808 C   0  0  0  0  0  0  0  0  0  0  0  0
  151.6781  140.3727  156.7343 C   0  0  0  0  0  0  0  0  0  0  0  0
  151.4583  141.6874  156.7159 N   0  0  0  0  0  0  0  0  0  0  0  0
  151.9323  142.0910  157.9494 C   0  0  0  0  0  0  0  0  0  0  0  0
  151.9814  143.3745  158.5396 C   0  0  0  0  0  0  0  0  0  0  0  0
  152.5186  143.5454  159.8324 C   0  0  0  0  0  0  0  0  0  0  0  0
  153.0133  142.4385  160.5521 C   0  0  0  0  0  0  0  0  0  0  0  0
  152.9736  141.1511  159.9830 C   0  0  0  0  0  0  0  0  0  0  0  0
  152.4360  140.9854  158.6924 C   0  0  0  0  0  0  0  0  0  0  0  0
  152.2466  139.8833  157.8636 N   0  0  0  0  0  0  0  0  0  0  0  0
  152.5943  138.5004  158.1638 C   0  0  0  0  0  0  0  0  0  0  0  0
  151.4050  137.6959  158.7261 C   0  0  2  0  0  0  0  0  0  0  0  0
  151.5260  136.3464  158.3204 O   0  0  0  0  0  0  0  0  0  0  0  0
  150.0568  138.2355  158.2233 C   0  0  0  0  0  0  0  0  0  0  0  0
  149.0542  137.9320  159.1789 O   0  0  0  0  0  0  0  0  0  0  0  0
  148.5866  136.5986  159.0781 C   0  0  0  0  0  0  0  0  0  0  0  0
  147.8175  136.3236  160.3255 C   0  0  0  0  0  0  0  0  0  0  0  0
  147.1565  135.2249  160.8013 C   0  0  0  0  0  0  0  0  0  0  0  0
  146.6194  135.5961  162.0650 C   0  0  0  0  0  0  0  0  0  0  0  0
  146.9927  136.8945  162.2658 C   0  0  0  0  0  0  0  0  0  0  0  0
  147.7243  137.3536  161.2138 O   0  0  0  0  0  0  0  0  0  0  0  0
  150.8259  140.0612  154.7985 H   0  0  0  0  0  0  0  0  0  0  0  0
  150.6538  138.6922  155.9015 H   0  0  0  0  0  0  0  0  0  0  0  0
  152.2260  139.0434  155.1576 H   0  0  0  0  0  0  0  0  0  0  0  0
  151.6044  144.2286  157.9970 H   0  0  0  0  0  0  0  0  0  0  0  0
  152.5508  144.5306  160.2744 H   0  0  0  0  0  0  0  0  0  0  0  0
  153.4224  142.5779  161.5422 H   0  0  0  0  0  0  0  0  0  0  0  0
  153.3487  140.3011  160.5335 H   0  0  0  0  0  0  0  0  0  0  0  0
  152.9738  138.0311  157.2558 H   0  0  0  0  0  0  0  0  0  0  0  0
  153.4232  138.4957  158.8730 H   0  0  0  0  0  0  0  0  0  0  0  0
  151.4281  137.7375  159.8154 H   0  0  0  0  0  0  0  0  0  0  0  0
  152.1255  136.3056  157.5909 H   0  0  0  0  0  0  0  0  0  0  0  0
  150.1087  139.3205  158.1199 H   0  0  0  0  0  0  0  0  0  0  0  0
  149.8105  137.8293  157.2405 H   0  0  0  0  0  0  0  0  0  0  0  0
  147.9468  136.4776  158.2026 H   0  0  0  0  0  0  0  0  0  0  0  0
  149.4223  135.9037  158.9852 H   0  0  0  0  0  0  0  0  0  0  0  0
  147.0721  134.2711  160.3019 H   0  0  0  0  0  0  0  0  0  0  0  0
  146.0346  134.9903  162.7412 H   0  0  0  0  0  0  0  0  0  0  0  0
  146.8317  137.6068  163.0617 H   0  0  0  0  0  0  0  0  0  0  0  0
  1  2  1  0  0  0  0
  1 22  1  0  0  0  0
  1 23  1  0  0  0  0
  1 24  1  0  0  0  0
  2 10  1  0  0  0  0
  2  3  2  0  0  0  0
  3  4  1  0  0  0  0
  4  9  2  0  0  0  0
  4  5  1  0  0  0  0
  5  6  2  0  0  0  0
  5 25  1  0  0  0  0
  6  7  1  0  0  0  0
  6 26  1  0  0  0  0
  7  8  2  0  0  0  0
  7 27  1  0  0  0  0
  8  9  1  0  0  0  0
  8 28  1  0  0  0  0
  9 10  1  0  0  0  0
 10 11  1  0  0  0  0
 11 12  1  0  0  0  0
 11 29  1  0  0  0  0
 11 30  1  0  0  0  0
 12 13  1  0  0  0  0
 12 14  1  0  0  0  0
 12 31  1  0  0  0  0
 13 32  1  0  0  0  0
 14 15  1  0  0  0  0
 14 33  1  0  0  0  0
 14 34  1  0  0  0  0
 15 16  1  0  0  0  0
 16 17  1  0  0  0  0
 16 35  1  0  0  0  0
 16 36  1  0  0  0  0
 17 21  1  0  0  0  0
 17 18  2  0  0  0  0
 18 19  1  0  0  0  0
 18 37  1  0  0  0  0
 19 20  2  0  0  0  0
 19 38  1  0  0  0  0
 20 21  1  0  0  0  0
 20 39  1  0  0  0  0
M  END
> <s_m_source_file>
AV-unprocessed.smi

> <i_m_source_file_index>
434

> <i_lp_mmshare_version>
43012

> <i_f3d_flags>
0

> <s_epik_input>
W2NIXTFbY0hdW2NIXVtjSF1jKGMxMiluKGMobjIpW0NIM10pW0NIMl1bQ0BIXShbT0hdKVtDSDJdT1tDSDJdYzNbY0hdW2NIXVtjSF1vMw==

> <s_epik_cmdline>
J2VwaWtfcHl0aG9uJywgJy1waCcsICc3LjAnLCAnLXRuJywgJzgnLCAnLW1hJywgJzIwMCcsICctbWV0YWxfYmluZGluZycsICctaW1hZScsICc8aW5maWxlLm1hZT4nLCAnLW9tYWUnLCAnPG91dGZpbGUubWFlPic=

> <r_epik_Ionization_Penalty>
0.126634

> <r_epik_Ionization_Penalty_Charging>
0

> <r_epik_Ionization_Penalty_Neutral>
0.126634

> <r_epik_State_Penalty>
0.116082

> <r_epik_Charging_Adjusted_Penalty>
0.116082

> <i_epik_Tot_Q>
0

> <i_epik_Tot_abs_Q>
0

> <r_epik_Metal_State_Penalty>
0.00012822

> <b_epik_Metal_Only>
0

> <s_lp_Force_Field>
OPLS_2005

> <r_lp_Energy>
9.40114

> <b_lp_Chiralities_Consistent>
1

> <s_lp_Variant>
AV-unprocessed.smi:434-1

> <Gold.Version>
5.8.1

> <Gold.Id.Protein>
6NUR|6NUR_protein|mol2

> <Gold.PLP.Fitness>
49.8887

> <Gold.PLP.PLP>
-47.7778

> <Gold.PLP.part.hbond>
-3.9870

> <Gold.PLP.part.metal>
0.0000

> <Gold.PLP.part.buried>
-5.8034

> <Gold.PLP.part.nonpolar>
-38.5319

> <Gold.PLP.part.repulsive>
0.0435

> <Gold.PLP.ligand.clash>
0.0487

> <Gold.PLP.ligand.torsion>
1.2157

> <Gold.PLP.Chemscore.Hbond>
1.5075

> <Gold.PLP.Chemscore.CHOScore>
0.0000

> <Gold.PLP.Chemscore.Metal>
0.0000

> <Gold.Chemscore.Hbonds>
donor molecule, donor type, donor heavy atom, donor atom, acceptor molecule, acceptor atom, score
      P1  H  6896  6907       L1    13  0.54
      P1  H  6931  6943       L1    21  0.88
      P1  H  6934  6947       L1    21  0.80

> <Gold.PLP.Chemscore.Internal.Correction>
0.0684

> <Gold.Rescore>
     Score         DG    S(hbond)    S(metal)    S(lipo)     H(rot)  DE(clash)    DE(int)     intcor
     17.17     -19.33       1.91        0.00     115.60       2.36       0.21       1.95       ----

> <Gold.Chemscore.Fitness>
17.1698

> <Gold.Chemscore.DG>
-19.3337

> <Gold.Chemscore.ZeroCoef>
-5.4800

> <Gold.Chemscore.Hbond>
1.9065

> <Gold.Chemscore.Metal>
0.0000

> <Gold.Chemscore.Lipo>
115.5993

> <Gold.Chemscore.Internal_Hbond>
0.0000

> <Gold.Chemscore.DEClash>
0.2121

> <Gold.Chemscore.DEInternal>
1.9518

> <Gold.Chemscore.Rot>
2.3591

> <Gold.Chemscore.Internal.Correction>
   9.000000E+99

> <Gold.Chemscore.Hbonds>
donor molecule, donor type, donor heavy atom, donor atom, acceptor molecule, acceptor atom, score
      P1  H  6896  6907       L1    13  0.43
      P1  H  6931  6943       L1    21  0.48
      P1  H  6934  6947       L1    21  0.44

> <Gold.Chemscore.Hbond.Weighted>
-6.3678

> <Gold.Chemscore.Metal.Weighted>
-0.0000

> <Gold.Chemscore.Lipo.Weighted>
-13.5251

> <Gold.Chemscore.Internal_Hbond.Weighted>
0.0000

> <Gold.Chemscore.DEClash.Weighted>
0.2121

> <Gold.Chemscore.DEInternal.Weighted>
1.9518

> <Gold.Chemscore.Rot.Weighted>
6.0393

> <Gold.Chemscore.Internal.Correction.Weighted>
   9.000000E+99

> <Gold.Protein.RotatedTorsions>
[ 6907 6896 6895 6894 ] final  -22.63 input  -60.11 | X-H torsion
[ 7974 7965 7964 7962 ] final  -68.38 input  175.53 | X-H torsion
[ 8008 7997 7996 7995 ] final   94.95 input   59.86 | X-H torsion
[ 10167 10162 10161 10158 ] final  -12.43 input  -65.29 | X-H torsion
[ 10718 10713 10712 10709 ] final -112.38 input   66.30 | X-H torsion
[ 10763 10752 10751 10750 ] final   -2.29 input  -60.55 | X-H torsion
[ 11005 11000 10999 10996 ] final   30.25 input  -57.11 | X-H torsion

> <Gold.Protein.ActiveResidues>
 VAL166  LYS551  ARG553  GLY616  TRP617  ASP618  TYR619  PRO620  LYS621  CYS622 
 ASP623  PHE694  ASN695  SER759  ASP760  ASP761  ALA762  ILE779  LEU786  VAL792 
 PHE793  MET794  SER795  GLU796  ALA797  LYS798  CYS799  TRP800  GLU811  SER814 

> <Gold.Protein.RotatedAtoms>
  151.2158  135.0499  159.8929 H   0  0  0  0  0  0  0  0  0  0  0  0  # atno 6907 bound_to 6896
  152.5420  134.0695  159.8198 H   0  0  0  0  0  0  0  0  0  0  0  0  # atno 6908 bound_to 6896
  151.0854  133.5309  159.2650 H   0  0  0  0  0  0  0  0  0  0  0  0  # atno 6909 bound_to 6896
  145.7173  140.9053  143.0649 H   0  0  0  0  0  0  0  0  0  0  0  0  # atno 7974 bound_to 7965
  156.0636  140.3293  155.7491 H   0  0  0  0  0  0  0  0  0  0  0  0  # atno 8008 bound_to 7997
  155.5416  140.0602  157.2886 H   0  0  0  0  0  0  0  0  0  0  0  0  # atno 8009 bound_to 7997
  154.4494  140.1909  156.0585 H   0  0  0  0  0  0  0  0  0  0  0  0  # atno 8010 bound_to 7997
  140.7161  143.5533  150.9276 H   0  0  0  0  0  0  0  0  0  0  0  0  # atno 10167 bound_to 10162
  156.0702  130.5917  150.8500 H   0  0  0  0  0  0  0  0  0  0  0  0  # atno 10718 bound_to 10713
  153.3561  135.6988  153.6750 H   0  0  0  0  0  0  0  0  0  0  0  0  # atno 10763 bound_to 10752
  153.5457  135.3564  155.2738 H   0  0  0  0  0  0  0  0  0  0  0  0  # atno 10764 bound_to 10752
  154.8661  135.4214  154.2807 H   0  0  0  0  0  0  0  0  0  0  0  0  # atno 10765 bound_to 10752
  140.2964  134.2806  155.7764 H   0  0  0  0  0  0  0  0  0  0  0  0  # atno 11005 bound_to 11000
  144.6926  139.9155  143.7465 LP  0  0  0  0  0  0  0  0  0  0  0  0  # atno 17320 bound_to 7965
  146.0658  139.3649  143.0553 LP  0  0  0  0  0  0  0  0  0  0  0  0  # atno 17321 bound_to 7965
  139.9258  143.6552  152.3087 LP  0  0  0  0  0  0  0  0  0  0  0  0  # atno 17342 bound_to 10162
  139.6985  144.7638  151.1314 LP  0  0  0  0  0  0  0  0  0  0  0  0  # atno 17343 bound_to 10162
  157.5768  131.0946  150.9333 LP  0  0  0  0  0  0  0  0  0  0  0  0  # atno 17370 bound_to 10713
  156.9537  130.5429  149.5283 LP  0  0  0  0  0  0  0  0  0  0  0  0  # atno 17371 bound_to 10713
  141.2136  133.7618  156.9702 LP  0  0  0  0  0  0  0  0  0  0  0  0  # atno 17394 bound_to 11000
  140.1149  134.9454  157.2119 LP  0  0  0  0  0  0  0  0  0  0  0  0  # atno 17395 bound_to 11000

$$$$
