AV-unprocessed.smi:246|AV-procd|sdf|1881|dock9
  -GOLD-   2262020523D 1   1.00000     0.00000
 Structure written by MMmdl.
 57 60  0  0  0  0  0  0  0  0  1 V2000
  146.9026  129.1980  151.8831 C   0  0  0  0  0  0  0  0  0  0  0  0
  146.1592  130.4626  152.3344 C   0  0  0  0  0  0  0  0  0  0  0  0
  147.0584  131.4767  152.7597 O   0  0  0  0  0  0  0  0  0  0  0  0
  148.0662  131.0273  153.6539 C   0  0  0  0  0  0  0  0  0  0  0  0
  148.9816  132.2058  153.9976 C   0  0  0  0  0  0  0  0  0  0  0  0
  148.3585  132.9977  154.9975 O   0  0  0  0  0  0  0  0  0  0  0  0
  149.2770  133.7149  155.8084 C   0  0  2  0  0  0  0  0  0  0  0  0
  148.5500  134.4355  156.9442 C   0  0  0  0  0  0  0  0  0  0  0  0
  149.4744  135.6069  157.2940 C   0  0  0  0  0  0  0  0  0  0  0  0
  150.2865  135.8326  156.1068 N   0  0  0  0  0  0  0  0  0  0  0  0
  150.8493  137.0362  155.8263 C   0  0  0  0  0  0  0  0  0  0  0  0
  151.7288  137.1159  154.7925 N   0  0  0  0  0  0  0  0  0  0  0  0
  152.3110  138.2776  154.4830 C   0  0  0  0  0  0  0  0  0  0  0  0
  152.1678  139.4645  155.0733 N   0  0  0  0  0  0  0  0  0  0  0  0
  151.2969  139.3938  156.1201 C   0  0  0  0  0  0  0  0  0  0  0  0
  150.5970  138.2331  156.5608 C   0  0  0  0  0  0  0  0  0  0  0  0
  149.8069  138.5562  157.6592 N   0  0  0  0  0  0  0  0  0  0  0  0
  150.0216  139.8285  157.8510 C   0  0  0  0  0  0  0  0  0  0  0  0
  150.9205  140.4070  156.9848 N   0  0  0  0  0  0  0  0  0  0  0  0
  151.3441  141.7970  156.9739 C   0  0  0  0  0  0  0  0  0  0  0  0
  150.9175  142.5871  158.2324 C   0  0  2  0  0  0  0  0  0  0  0  0
  150.6853  143.9102  157.7944 O   0  0  0  0  0  0  0  0  0  0  0  0
  151.9731  142.6653  159.3592 C   0  0  2  0  0  0  0  0  0  0  0  0
  152.5096  141.3282  159.8787 C   0  0  0  0  0  0  0  0  0  0  0  0
  152.9357  141.6290  161.3064 C   0  0  0  0  0  0  0  0  0  0  0  0
  152.2569  142.9627  161.6187 C   0  0  0  0  0  0  0  0  0  0  0  0
  151.3634  143.1769  160.5360 O   0  0  0  0  0  0  0  0  0  0  0  0
  149.9583  134.8685  155.0671 C   0  0  0  0  0  0  0  0  0  0  0  0
  150.0264  133.0471  156.2379 H   0  0  0  0  0  0  0  0  0  0  0  0
  146.1978  128.3987  151.6537 H   0  0  0  0  0  0  0  0  0  0  0  0
  147.5697  128.8377  152.6665 H   0  0  0  0  0  0  0  0  0  0  0  0
  147.4987  129.3739  150.9882 H   0  0  0  0  0  0  0  0  0  0  0  0
  145.4950  130.8300  151.5507 H   0  0  0  0  0  0  0  0  0  0  0  0
  145.5247  130.2113  153.1844 H   0  0  0  0  0  0  0  0  0  0  0  0
  147.6424  130.6024  154.5639 H   0  0  0  0  0  0  0  0  0  0  0  0
  148.6508  130.2449  153.1678 H   0  0  0  0  0  0  0  0  0  0  0  0
  149.9306  131.8299  154.3827 H   0  0  0  0  0  0  0  0  0  0  0  0
  149.1994  132.7883  153.1014 H   0  0  0  0  0  0  0  0  0  0  0  0
  147.5977  134.8248  156.5811 H   0  0  0  0  0  0  0  0  0  0  0  0
  148.3427  133.7878  157.7965 H   0  0  0  0  0  0  0  0  0  0  0  0
  148.8966  136.4893  157.5718 H   0  0  0  0  0  0  0  0  0  0  0  0
  150.1296  135.3466  158.1259 H   0  0  0  0  0  0  0  0  0  0  0  0
  152.9909  138.2509  153.6444 H   0  0  0  0  0  0  0  0  0  0  0  0
  149.5344  140.3805  158.6417 H   0  0  0  0  0  0  0  0  0  0  0  0
  152.4263  141.8448  156.8457 H   0  0  0  0  0  0  0  0  0  0  0  0
  150.9095  142.2527  156.0830 H   0  0  0  0  0  0  0  0  0  0  0  0
  149.9803  142.1895  158.6234 H   0  0  0  0  0  0  0  0  0  0  0  0
  150.2165  143.8728  156.9744 H   0  0  0  0  0  0  0  0  0  0  0  0
  152.8073  143.3075  159.0684 H   0  0  0  0  0  0  0  0  0  0  0  0
  151.7157  140.5804  159.8906 H   0  0  0  0  0  0  0  0  0  0  0  0
  153.3324  140.9421  159.2776 H   0  0  0  0  0  0  0  0  0  0  0  0
  152.6098  140.8394  161.9845 H   0  0  0  0  0  0  0  0  0  0  0  0
  154.0191  141.7205  161.3905 H   0  0  0  0  0  0  0  0  0  0  0  0
  151.7257  142.9510  162.5708 H   0  0  0  0  0  0  0  0  0  0  0  0
  152.9899  143.7704  161.6461 H   0  0  0  0  0  0  0  0  0  0  0  0
  150.8463  134.5356  154.5284 H   0  0  0  0  0  0  0  0  0  0  0  0
  149.2713  135.3270  154.3543 H   0  0  0  0  0  0  0  0  0  0  0  0
  1  2  1  0  0  0  0
  1 30  1  0  0  0  0
  1 31  1  0  0  0  0
  1 32  1  0  0  0  0
  2  3  1  0  0  0  0
  2 33  1  0  0  0  0
  2 34  1  0  0  0  0
  3  4  1  0  0  0  0
  4  5  1  0  0  0  0
  4 35  1  0  0  0  0
  4 36  1  0  0  0  0
  5  6  1  0  0  0  0
  5 37  1  0  0  0  0
  5 38  1  0  0  0  0
  6  7  1  0  0  0  0
  7 29  1  0  0  0  0
  7 28  1  0  0  0  0
  7  8  1  0  0  0  0
  8  9  1  0  0  0  0
  8 39  1  0  0  0  0
  8 40  1  0  0  0  0
  9 10  1  0  0  0  0
  9 41  1  0  0  0  0
  9 42  1  0  0  0  0
 10 11  1  0  0  0  0
 10 28  1  0  0  0  0
 11 16  1  0  0  0  0
 11 12  2  0  0  0  0
 12 13  1  0  0  0  0
 13 14  2  0  0  0  0
 13 43  1  0  0  0  0
 14 15  1  0  0  0  0
 15 19  1  0  0  0  0
 15 16  2  0  0  0  0
 16 17  1  0  0  0  0
 17 18  2  0  0  0  0
 18 19  1  0  0  0  0
 18 44  1  0  0  0  0
 19 20  1  0  0  0  0
 20 21  1  0  0  0  0
 20 45  1  0  0  0  0
 20 46  1  0  0  0  0
 21 22  1  0  0  0  0
 21 23  1  0  0  0  0
 21 47  1  0  0  0  0
 22 48  1  0  0  0  0
 23 27  1  0  0  0  0
 23 24  1  0  0  0  0
 23 49  1  0  0  0  0
 24 25  1  0  0  0  0
 24 50  1  0  0  0  0
 24 51  1  0  0  0  0
 25 26  1  0  0  0  0
 25 52  1  0  0  0  0
 25 53  1  0  0  0  0
 26 27  1  0  0  0  0
 26 54  1  0  0  0  0
 26 55  1  0  0  0  0
 28 56  1  0  0  0  0
 28 57  1  0  0  0  0
M  END
> <s_m_source_file>
AV-unprocessed.smi

> <i_m_source_file_index>
246

> <i_lp_mmshare_version>
43012

> <i_f3d_flags>
0

> <s_epik_input>
W0NIM11bQ0gyXU9bQ0gyXVtDSDJdT1tDQEhdMVtDSDJdW0NIMl1OKFtDSDJdMSljKG5bY0hdbjIpYyhjMjMpbltjSF1uM1tDSDJdW0NASF0oW09IXSlbQ0BASF00W0NIMl1bQ0gyXVtDSDJdTzQ=

> <s_epik_cmdline>
J2VwaWtfcHl0aG9uJywgJy1waCcsICc3LjAnLCAnLXRuJywgJzgnLCAnLW1hJywgJzIwMCcsICctbWV0YWxfYmluZGluZycsICctaW1hZScsICc8aW5maWxlLm1hZT4nLCAnLW9tYWUnLCAnPG91dGZpbGUubWFlPic=

> <r_lp_tautomer_probability>
1

> <r_epik_Ionization_Penalty>
0.0024631

> <r_epik_Ionization_Penalty_Charging>
0

> <r_epik_Ionization_Penalty_Neutral>
0.0024631

> <r_epik_State_Penalty>
0.00162428

> <r_epik_Charging_Adjusted_Penalty>
0.00162428

> <i_epik_Tot_Q>
0

> <i_epik_Tot_abs_Q>
0

> <r_epik_Metal_State_Penalty>
-0

> <b_epik_Metal_Only>
0

> <s_lp_Force_Field>
OPLS_2005

> <r_lp_Energy>
52.7106

> <b_lp_Chiralities_Consistent>
1

> <s_lp_Variant>
AV-unprocessed.smi:246-2

> <Gold.Version>
5.8.1

> <Gold.Id.Protein>
6NUR|6NUR_protein|mol2

> <Gold.PLP.Fitness>
54.4841

> <Gold.PLP.PLP>
-47.8755

> <Gold.PLP.part.hbond>
-3.5341

> <Gold.PLP.part.metal>
0.0000

> <Gold.PLP.part.buried>
-8.4875

> <Gold.PLP.part.nonpolar>
-36.2725

> <Gold.PLP.part.repulsive>
0.3724

> <Gold.PLP.ligand.clash>
0.0000

> <Gold.PLP.ligand.torsion>
1.2374

> <Gold.PLP.Chemscore.Hbond>
2.8960

> <Gold.PLP.Chemscore.CHOScore>
0.0000

> <Gold.PLP.Chemscore.Metal>
0.0000

> <Gold.Chemscore.Hbonds>
donor molecule, donor type, donor heavy atom, donor atom, acceptor molecule, acceptor atom, score
      L1  H    22    48       P1  8028  0.95
      P1  H  7989  7998       L1    14  0.58
      P1  H 10752 10763       L1    12  1.00

> <Gold.PLP.Chemscore.Internal.Correction>
0.3954

> <Gold.Rescore>
     Score         DG    S(hbond)    S(metal)    S(lipo)     H(rot)  DE(clash)    DE(int)     intcor
     15.49     -17.84       2.50        0.00     102.19       3.10       0.11       2.24       ----

> <Gold.Chemscore.Fitness>
15.4897

> <Gold.Chemscore.DG>
-17.8435

> <Gold.Chemscore.ZeroCoef>
-5.4800

> <Gold.Chemscore.Hbond>
2.5002

> <Gold.Chemscore.Metal>
0.0000

> <Gold.Chemscore.Lipo>
102.1850

> <Gold.Chemscore.Internal_Hbond>
0.0000

> <Gold.Chemscore.DEClash>
0.1090

> <Gold.Chemscore.DEInternal>
2.2448

> <Gold.Chemscore.Rot>
3.1026

> <Gold.Chemscore.Internal.Correction>
   9.000000E+99

> <Gold.Chemscore.Hbonds>
donor molecule, donor type, donor heavy atom, donor atom, acceptor molecule, acceptor atom, score
      L1  H    22    48       P1  8028  0.84
      P1  H  7989  7998       L1    14  0.29
      P1  H 10752 10763       L1    12  0.70

> <Gold.Chemscore.Hbond.Weighted>
-8.3505

> <Gold.Chemscore.Metal.Weighted>
-0.0000

> <Gold.Chemscore.Lipo.Weighted>
-11.9556

> <Gold.Chemscore.Internal_Hbond.Weighted>
0.0000

> <Gold.Chemscore.DEClash.Weighted>
0.1090

> <Gold.Chemscore.DEInternal.Weighted>
2.2448

> <Gold.Chemscore.Rot.Weighted>
7.9426

> <Gold.Chemscore.Internal.Correction.Weighted>
   9.000000E+99

> <Gold.Protein.RotatedTorsions>
[ 6907 6896 6895 6894 ] final  143.23 input  -60.11 | X-H torsion
[ 7974 7965 7964 7962 ] final    1.50 input  175.53 | X-H torsion
[ 8008 7997 7996 7995 ] final   15.31 input   59.86 | X-H torsion
[ 10167 10162 10161 10158 ] final  149.86 input  -65.29 | X-H torsion
[ 10718 10713 10712 10709 ] final   12.79 input   66.30 | X-H torsion
[ 10763 10752 10751 10750 ] final   50.29 input  -60.55 | X-H torsion
[ 11005 11000 10999 10996 ] final -155.90 input  -57.11 | X-H torsion

> <Gold.Protein.ActiveResidues>
 VAL166  LYS551  ARG553  GLY616  TRP617  ASP618  TYR619  PRO620  LYS621  CYS622 
 ASP623  PHE694  ASN695  SER759  ASP760  ASP761  ALA762  ILE779  LEU786  VAL792 
 PHE793  MET794  SER795  GLU796  ALA797  LYS798  CYS799  TRP800  GLU811  SER814 

> <Gold.Protein.RotatedAtoms>
  152.2088  133.4896  159.5098 H   0  0  0  0  0  0  0  0  0  0  0  0  # atno 6907 bound_to 6896
  150.6985  134.1494  159.4144 H   0  0  0  0  0  0  0  0  0  0  0  0  # atno 6908 bound_to 6896
  151.9413  135.0212  160.0586 H   0  0  0  0  0  0  0  0  0  0  0  0  # atno 6909 bound_to 6896
  146.2440  140.0977  142.8349 H   0  0  0  0  0  0  0  0  0  0  0  0  # atno 7974 bound_to 7965
  154.8609  140.2944  155.5540 H   0  0  0  0  0  0  0  0  0  0  0  0  # atno 8008 bound_to 7997
  156.3019  140.2478  156.3515 H   0  0  0  0  0  0  0  0  0  0  0  0  # atno 8009 bound_to 7997
  154.8920  140.0394  157.1833 H   0  0  0  0  0  0  0  0  0  0  0  0  # atno 8010 bound_to 7997
  139.4856  144.5568  151.7302 H   0  0  0  0  0  0  0  0  0  0  0  0  # atno 10167 bound_to 10162
  157.0152  130.6133  149.5713 H   0  0  0  0  0  0  0  0  0  0  0  0  # atno 10718 bound_to 10713
  152.9785  135.5883  154.4229 H   0  0  0  0  0  0  0  0  0  0  0  0  # atno 10763 bound_to 10752
  154.3851  135.2767  155.2190 H   0  0  0  0  0  0  0  0  0  0  0  0  # atno 10764 bound_to 10752
  154.4087  135.6086  153.5994 H   0  0  0  0  0  0  0  0  0  0  0  0  # atno 10765 bound_to 10752
  140.6815  134.4140  157.5226 H   0  0  0  0  0  0  0  0  0  0  0  0  # atno 11005 bound_to 11000
  145.0595  140.9077  143.4947 LP  0  0  0  0  0  0  0  0  0  0  0  0  # atno 17320 bound_to 7965
  145.1090  139.2770  143.5647 LP  0  0  0  0  0  0  0  0  0  0  0  0  # atno 17321 bound_to 7965
  140.5132  144.0994  150.6001 LP  0  0  0  0  0  0  0  0  0  0  0  0  # atno 17342 bound_to 10162
  140.3926  143.2744  152.0042 LP  0  0  0  0  0  0  0  0  0  0  0  0  # atno 17343 bound_to 10162
  156.0122  130.5214  150.8023 LP  0  0  0  0  0  0  0  0  0  0  0  0  # atno 17370 bound_to 10713
  157.5291  131.0935  150.9979 LP  0  0  0  0  0  0  0  0  0  0  0  0  # atno 17371 bound_to 10713
  139.8950  134.8692  156.2150 LP  0  0  0  0  0  0  0  0  0  0  0  0  # atno 17394 bound_to 11000
  141.0314  133.6987  156.1436 LP  0  0  0  0  0  0  0  0  0  0  0  0  # atno 17395 bound_to 11000

$$$$
