AV-unprocessed.smi:1144|AV-procd|sdf|4879|dock5
  -GOLD-   22720 3453D 1   1.00000     0.00000
 Structure written by MMmdl.
 35 36  0  0  0  0  0  0  0  0  2 V2000
  146.1670  137.9384  152.2908 C   0  0  0  0  0  0  0  0  0  0  0  0
  147.2748  138.2498  153.2189 N   0  3  2  0  0  0  0  0  0  0  0  0
  147.0754  137.6610  154.5626 C   0  0  0  0  0  0  0  0  0  0  0  0
  148.2697  137.9926  155.4721 C   0  0  0  0  0  0  0  0  0  0  0  0
  148.4424  139.4032  155.5306 O   0  0  0  0  0  0  0  0  0  0  0  0
  148.7395  139.9684  154.2568 C   0  0  2  0  0  0  0  0  0  0  0  0
  148.9874  141.4714  154.4436 C   0  0  0  0  0  0  0  0  0  0  0  0
  148.9166  141.8576  155.8448 N   0  0  0  0  0  0  0  0  0  0  0  0
  149.9478  141.6793  156.7470 C   0  0  0  0  0  0  0  0  0  0  0  0
  150.4145  140.4330  156.8461 N   0  0  0  0  0  0  0  0  0  0  0  0
  151.4188  140.2220  157.7243 C   0  0  0  0  0  0  0  0  0  0  0  0
  151.9565  141.2660  158.5027 C   0  0  0  0  0  0  0  0  0  0  0  0
  151.3872  142.5453  158.3138 C   0  0  0  0  0  0  0  0  0  0  0  0
  151.8682  143.7673  159.0816 C   0  0  0  0  0  0  0  0  0  0  0  0
  152.8452  143.4569  159.9348 F   0  0  0  0  0  0  0  0  0  0  0  0
  152.3272  144.6816  158.2271 F   0  0  0  0  0  0  0  0  0  0  0  0
  150.8550  144.2928  159.7706 F   0  0  0  0  0  0  0  0  0  0  0  0
  150.3799  142.7438  157.4320 N   0  0  0  0  0  0  0  0  0  0  0  0
  147.5493  139.7023  153.3137 C   0  0  0  0  0  0  0  0  0  0  0  0
  145.2277  138.3670  152.6431 H   0  0  0  0  0  0  0  0  0  0  0  0
  146.0368  136.8598  152.1961 H   0  0  0  0  0  0  0  0  0  0  0  0
  146.3740  138.3379  151.2974 H   0  0  0  0  0  0  0  0  0  0  0  0
  146.1545  138.0494  155.0009 H   0  0  0  0  0  0  0  0  0  0  0  0
  146.9603  136.5797  154.4791 H   0  0  0  0  0  0  0  0  0  0  0  0
  148.0910  137.6158  156.4792 H   0  0  0  0  0  0  0  0  0  0  0  0
  149.1819  137.5150  155.1106 H   0  0  0  0  0  0  0  0  0  0  0  0
  149.6391  139.5041  153.8471 H   0  0  0  0  0  0  0  0  0  0  0  0
  149.9774  141.7304  154.0664 H   0  0  0  0  0  0  0  0  0  0  0  0
  148.2629  142.0488  153.8679 H   0  0  0  0  0  0  0  0  0  0  0  0
  148.1218  142.3976  156.1551 H   0  0  0  0  0  0  0  0  0  0  0  0
  151.7956  139.2133  157.8068 H   0  0  0  0  0  0  0  0  0  0  0  0
  152.7595  141.0869  159.2021 H   0  0  0  0  0  0  0  0  0  0  0  0
  147.7666  140.0972  152.3204 H   0  0  0  0  0  0  0  0  0  0  0  0
  146.6589  140.2188  153.6763 H   0  0  0  0  0  0  0  0  0  0  0  0
  148.1048  137.8213  152.8344 H   0  0  0  0  0  0  0  0  0  0  0  0
  1  2  1  0  0  0  0
  1 20  1  0  0  0  0
  1 21  1  0  0  0  0
  1 22  1  0  0  0  0
  2 19  1  0  0  0  0
  2  3  1  0  0  0  0
  2 35  1  0  0  0  0
  3  4  1  0  0  0  0
  3 23  1  0  0  0  0
  3 24  1  0  0  0  0
  4  5  1  0  0  0  0
  4 25  1  0  0  0  0
  4 26  1  0  0  0  0
  5  6  1  0  0  0  0
  6  7  1  0  0  0  0
  6 19  1  0  0  0  0
  6 27  1  0  0  0  0
  7  8  1  0  0  0  0
  7 28  1  0  0  0  0
  7 29  1  0  0  0  0
  8  9  1  0  0  0  0
  8 30  1  0  0  0  0
  9 18  1  0  0  0  0
  9 10  2  0  0  0  0
 10 11  1  0  0  0  0
 11 12  2  0  0  0  0
 11 31  1  0  0  0  0
 12 13  1  0  0  0  0
 12 32  1  0  0  0  0
 13 14  1  0  0  0  0
 13 18  2  0  0  0  0
 14 15  1  0  0  0  0
 14 16  1  0  0  0  0
 14 17  1  0  0  0  0
 19 33  1  0  0  0  0
 19 34  1  0  0  0  0
M  CHG  1   2   1
M  END
> <s_m_source_file>
AV-unprocessed.smi

> <i_m_source_file_index>
1144

> <i_lp_mmshare_version>
43012

> <i_f3d_flags>
0

> <s_epik_input>
W0NIM11OMVtDSDJdW0NIMl1PW0NASF0oW0NIMl0xKVtDSDJdW05IXWMybltjSF1bY0hdYyhuMilDKEYpKEYpRg==

> <s_epik_cmdline>
J2VwaWtfcHl0aG9uJywgJy1waCcsICc3LjAnLCAnLXRuJywgJzgnLCAnLW1hJywgJzIwMCcsICctbWV0YWxfYmluZGluZycsICctaW1hZScsICc8aW5maWxlLm1hZT4nLCAnLW9tYWUnLCAnPG91dGZpbGUubWFlPic=

> <r_lp_tautomer_probability>
1

> <r_epik_Ionization_Penalty>
0.178506

> <r_epik_Ionization_Penalty_Charging>
0.178504

> <r_epik_Ionization_Penalty_Neutral>
2.47225e-06

> <r_epik_State_Penalty>
0.167974

> <r_epik_Charging_Adjusted_Penalty>
0.346478

> <i_epik_Tot_Q>
1

> <i_epik_Tot_abs_Q>
1

> <r_epik_Metal_State_Penalty>
0.167974

> <b_epik_Metal_Only>
0

> <s_lp_Force_Field>
OPLS_2005

> <r_lp_Energy>
9.23753

> <b_lp_Chiralities_Consistent>
1

> <s_lp_Variant>
AV-unprocessed.smi:1144-4

> <Gold.Version>
5.8.1

> <Gold.Id.Protein>
6NUR|6NUR_protein|mol2

> <Gold.PLP.Fitness>
38.8451

> <Gold.PLP.PLP>
-35.6186

> <Gold.PLP.part.hbond>
-2.0000

> <Gold.PLP.part.metal>
0.0000

> <Gold.PLP.part.buried>
-2.0389

> <Gold.PLP.part.nonpolar>
-32.4088

> <Gold.PLP.part.repulsive>
0.7470

> <Gold.PLP.ligand.clash>
0.0000

> <Gold.PLP.ligand.torsion>
1.3903

> <Gold.PLP.Chemscore.Hbond>
2.0000

> <Gold.PLP.Chemscore.CHOScore>
0.0000

> <Gold.PLP.Chemscore.Metal>
0.0000

> <Gold.Chemscore.Hbonds>
donor molecule, donor type, donor heavy atom, donor atom, acceptor molecule, acceptor atom, score
      L1  H     2    35       P1  7948  1.93

> <Gold.PLP.Chemscore.Internal.Correction>
0.0072

> <Gold.Rescore>
     Score         DG    S(hbond)    S(metal)    S(lipo)     H(rot)  DE(clash)    DE(int)     intcor
     10.36     -13.02       0.95        0.00      66.45       1.34       0.06       2.60       ----

> <Gold.Chemscore.Fitness>
10.3591

> <Gold.Chemscore.DG>
-13.0173

> <Gold.Chemscore.ZeroCoef>
-5.4800

> <Gold.Chemscore.Hbond>
0.9544

> <Gold.Chemscore.Metal>
0.0000

> <Gold.Chemscore.Lipo>
66.4487

> <Gold.Chemscore.Internal_Hbond>
0.0000

> <Gold.Chemscore.DEClash>
0.0629

> <Gold.Chemscore.DEInternal>
2.5954

> <Gold.Chemscore.Rot>
1.3379

> <Gold.Chemscore.Internal.Correction>
   9.000000E+99

> <Gold.Chemscore.Hbonds>
donor molecule, donor type, donor heavy atom, donor atom, acceptor molecule, acceptor atom, score
      L1  H     2    35       P1  7948  0.86

> <Gold.Chemscore.Hbond.Weighted>
-3.1878

> <Gold.Chemscore.Metal.Weighted>
-0.0000

> <Gold.Chemscore.Lipo.Weighted>
-7.7745

> <Gold.Chemscore.Internal_Hbond.Weighted>
0.0000

> <Gold.Chemscore.DEClash.Weighted>
0.0629

> <Gold.Chemscore.DEInternal.Weighted>
2.5954

> <Gold.Chemscore.Rot.Weighted>
3.4250

> <Gold.Chemscore.Internal.Correction.Weighted>
   9.000000E+99

> <Gold.Protein.RotatedTorsions>
[ 6907 6896 6895 6894 ] final -141.10 input  -60.11 | X-H torsion
[ 7974 7965 7964 7962 ] final -147.07 input  175.53 | X-H torsion
[ 8008 7997 7996 7995 ] final    1.87 input   59.86 | X-H torsion
[ 10167 10162 10161 10158 ] final -105.46 input  -65.29 | X-H torsion
[ 10718 10713 10712 10709 ] final  -80.46 input   66.30 | X-H torsion
[ 10763 10752 10751 10750 ] final  116.44 input  -60.55 | X-H torsion
[ 11005 11000 10999 10996 ] final  163.28 input  -57.11 | X-H torsion

> <Gold.Protein.ActiveResidues>
 VAL166  LYS551  ARG553  GLY616  TRP617  ASP618  TYR619  PRO620  LYS621  CYS622 
 ASP623  PHE694  ASN695  SER759  ASP760  ASP761  ALA762  ILE779  LEU786  VAL792 
 PHE793  MET794  SER795  GLU796  ALA797  LYS798  CYS799  TRP800  GLU811  SER814 

> <Gold.Protein.RotatedAtoms>
  151.0694  133.5479  159.2628 H   0  0  0  0  0  0  0  0  0  0  0  0  # atno 6907 bound_to 6896
  151.2424  135.0593  159.9040 H   0  0  0  0  0  0  0  0  0  0  0  0  # atno 6908 bound_to 6896
  152.5409  134.0466  159.8145 H   0  0  0  0  0  0  0  0  0  0  0  0  # atno 6909 bound_to 6896
  144.8117  140.5374  143.5638 H   0  0  0  0  0  0  0  0  0  0  0  0  # atno 7974 bound_to 7965
  154.6848  140.2640  155.6872 H   0  0  0  0  0  0  0  0  0  0  0  0  # atno 8008 bound_to 7997
  156.2710  140.2803  156.1328 H   0  0  0  0  0  0  0  0  0  0  0  0  # atno 8009 bound_to 7997
  155.0980  140.0374  157.2678 H   0  0  0  0  0  0  0  0  0  0  0  0  # atno 8010 bound_to 7997
  140.1983  143.3838  152.1150 H   0  0  0  0  0  0  0  0  0  0  0  0  # atno 10167 bound_to 10162
  156.0070  130.4575  150.3803 H   0  0  0  0  0  0  0  0  0  0  0  0  # atno 10718 bound_to 10713
  153.5373  135.3566  155.2703 H   0  0  0  0  0  0  0  0  0  0  0  0  # atno 10763 bound_to 10752
  154.8721  135.4082  154.3083 H   0  0  0  0  0  0  0  0  0  0  0  0  # atno 10764 bound_to 10752
  153.3784  135.7067  153.6652 H   0  0  0  0  0  0  0  0  0  0  0  0  # atno 10765 bound_to 10752
  140.2342  134.8100  157.3347 H   0  0  0  0  0  0  0  0  0  0  0  0  # atno 11005 bound_to 11000
  145.5308  139.1475  143.3500 LP  0  0  0  0  0  0  0  0  0  0  0  0  # atno 17320 bound_to 7965
  146.2416  140.5449  142.8931 LP  0  0  0  0  0  0  0  0  0  0  0  0  # atno 17321 bound_to 7965
  139.5227  144.7063  151.5345 LP  0  0  0  0  0  0  0  0  0  0  0  0  # atno 17342 bound_to 10162
  140.6408  143.8892  150.6690 LP  0  0  0  0  0  0  0  0  0  0  0  0  # atno 17343 bound_to 10162
  157.1883  131.0409  151.2713 LP  0  0  0  0  0  0  0  0  0  0  0  0  # atno 17370 bound_to 10713
  157.4084  130.7371  149.6820 LP  0  0  0  0  0  0  0  0  0  0  0  0  # atno 17371 bound_to 10713
  140.1719  134.4598  155.7826 LP  0  0  0  0  0  0  0  0  0  0  0  0  # atno 17394 bound_to 11000
  141.2215  133.6945  156.7722 LP  0  0  0  0  0  0  0  0  0  0  0  0  # atno 17395 bound_to 11000

$$$$
