AV-unprocessed.smi:1852|AV-procd|sdf|7525|dock4
  -GOLD-   22720 9233D 1   1.00000     0.00000
 Structure written by MMmdl.
 45 47  0  0  0  0  0  0  0  0  1 V2000
  154.1207  139.4494  160.4540 C   0  0  0  0  0  0  0  0  0  0  0  0
  153.5533  140.8465  160.3085 C   0  0  0  0  0  0  0  0  0  0  0  0
  153.8232  141.8293  161.2807 C   0  0  0  0  0  0  0  0  0  0  0  0
  153.2925  143.1239  161.1367 C   0  0  0  0  0  0  0  0  0  0  0  0
  152.4908  143.4444  160.0216 C   0  0  0  0  0  0  0  0  0  0  0  0
  151.9301  144.8470  159.8793 C   0  0  0  0  0  0  0  0  0  0  0  0
  152.2135  142.4676  159.0376 C   0  0  0  0  0  0  0  0  0  0  0  0
  151.4220  142.8469  157.9739 O   0  0  0  0  0  0  0  0  0  0  0  0
  150.7320  141.8414  157.2441 C   0  0  0  0  0  0  0  0  0  0  0  0
  151.7044  141.1740  156.2606 C   0  0  0  0  0  0  0  0  0  0  0  0
  151.0100  140.3807  155.2561 N   0  0  0  0  0  0  0  0  0  0  0  0
  151.3320  139.1491  154.7857 C   0  0  0  0  0  0  0  0  0  0  0  0
  152.5244  138.3853  155.2844 C   0  0  0  0  0  0  0  0  0  0  0  0
  152.3746  138.1377  156.7150 N   0  0  0  0  0  0  0  0  0  0  0  0
  152.3518  136.9272  157.2907 C   0  0  0  0  0  0  0  0  0  0  0  0
  152.4627  135.8640  156.6827 O   0  0  0  0  0  0  0  0  0  0  0  0
  150.5214  138.6566  153.8483 N   0  0  0  0  0  0  0  0  0  0  0  0
  149.5842  139.6596  153.6980 C   0  0  0  0  0  0  0  0  0  0  0  0
  148.4571  139.7436  152.8498 C   0  0  0  0  0  0  0  0  0  0  0  0
  147.6339  140.8887  152.8679 C   0  0  0  0  0  0  0  0  0  0  0  0
  147.9245  141.9632  153.7332 C   0  0  0  0  0  0  0  0  0  0  0  0
  149.0408  141.8979  154.5887 C   0  0  0  0  0  0  0  0  0  0  0  0
  149.8605  140.7535  154.5658 C   0  0  0  0  0  0  0  0  0  0  0  0
  152.7533  141.1653  159.1927 C   0  0  0  0  0  0  0  0  0  0  0  0
  154.6216  139.3208  161.4139 H   0  0  0  0  0  0  0  0  0  0  0  0
  154.8437  139.2525  159.6622 H   0  0  0  0  0  0  0  0  0  0  0  0
  153.3250  138.7070  160.3854 H   0  0  0  0  0  0  0  0  0  0  0  0
  154.4367  141.5957  162.1386 H   0  0  0  0  0  0  0  0  0  0  0  0
  153.5056  143.8711  161.8871 H   0  0  0  0  0  0  0  0  0  0  0  0
  150.8411  144.8173  159.8326 H   0  0  0  0  0  0  0  0  0  0  0  0
  152.3011  145.3114  158.9649 H   0  0  0  0  0  0  0  0  0  0  0  0
  152.2154  145.4794  160.7204 H   0  0  0  0  0  0  0  0  0  0  0  0
  150.3276  141.0929  157.9271 H   0  0  0  0  0  0  0  0  0  0  0  0
  149.9001  142.2792  156.6909 H   0  0  0  0  0  0  0  0  0  0  0  0
  152.3240  141.9240  155.7697 H   0  0  0  0  0  0  0  0  0  0  0  0
  152.3896  140.5213  156.8022 H   0  0  0  0  0  0  0  0  0  0  0  0
  152.6230  137.4482  154.7337 H   0  0  0  0  0  0  0  0  0  0  0  0
  153.4363  138.9537  155.1042 H   0  0  0  0  0  0  0  0  0  0  0  0
  152.2740  138.9469  157.3099 H   0  0  0  0  0  0  0  0  0  0  0  0
  152.2201  137.0144  158.3802 H   0  0  0  0  0  0  0  0  0  0  0  0
  148.2265  138.9261  152.1830 H   0  0  0  0  0  0  0  0  0  0  0  0
  146.7756  140.9430  152.2144 H   0  0  0  0  0  0  0  0  0  0  0  0
  147.2910  142.8378  153.7395 H   0  0  0  0  0  0  0  0  0  0  0  0
  149.2686  142.7206  155.2499 H   0  0  0  0  0  0  0  0  0  0  0  0
  152.5647  140.3900  158.4657 H   0  0  0  0  0  0  0  0  0  0  0  0
  1  2  1  0  0  0  0
  1 25  1  0  0  0  0
  1 26  1  0  0  0  0
  1 27  1  0  0  0  0
  2 24  1  0  0  0  0
  2  3  2  0  0  0  0
  3  4  1  0  0  0  0
  3 28  1  0  0  0  0
  4  5  2  0  0  0  0
  4 29  1  0  0  0  0
  5  6  1  0  0  0  0
  5  7  1  0  0  0  0
  6 30  1  0  0  0  0
  6 31  1  0  0  0  0
  6 32  1  0  0  0  0
  7  8  1  0  0  0  0
  7 24  2  0  0  0  0
  8  9  1  0  0  0  0
  9 10  1  0  0  0  0
  9 33  1  0  0  0  0
  9 34  1  0  0  0  0
 10 11  1  0  0  0  0
 10 35  1  0  0  0  0
 10 36  1  0  0  0  0
 11 23  1  0  0  0  0
 11 12  1  0  0  0  0
 12 13  1  0  0  0  0
 12 17  2  0  0  0  0
 13 14  1  0  0  0  0
 13 37  1  0  0  0  0
 13 38  1  0  0  0  0
 14 15  1  0  0  0  0
 14 39  1  0  0  0  0
 15 16  2  0  0  0  0
 15 40  1  0  0  0  0
 17 18  1  0  0  0  0
 18 23  2  0  0  0  0
 18 19  1  0  0  0  0
 19 20  2  0  0  0  0
 19 41  1  0  0  0  0
 20 21  1  0  0  0  0
 20 42  1  0  0  0  0
 21 22  2  0  0  0  0
 21 43  1  0  0  0  0
 22 23  1  0  0  0  0
 22 44  1  0  0  0  0
 24 45  1  0  0  0  0
M  END
> <s_m_source_file>
AV-unprocessed.smi

> <i_m_source_file_index>
1852

> <i_lp_mmshare_version>
43012

> <i_f3d_flags>
0

> <s_epik_input>
W0NIM11jMVtjSF1bY0hdYyhbQ0gzXSljKFtjSF0xKU9bQ0gyXVtDSDJdbihjKG4yKVtDSDJdW05IXVtDSF09TyljKGMyMylbY0hdW2NIXVtjSF1bY0hdMw==

> <s_epik_cmdline>
J2VwaWtfcHl0aG9uJywgJy1waCcsICc3LjAnLCAnLXRuJywgJzgnLCAnLW1hJywgJzIwMCcsICctbWV0YWxfYmluZGluZycsICctaW1hZScsICc8aW5maWxlLm1hZT4nLCAnLW9tYWUnLCAnPG91dGZpbGUubWFlPic=

> <r_lp_tautomer_probability>
1

> <r_epik_Ionization_Penalty>
0.0587233

> <r_epik_Ionization_Penalty_Charging>
0

> <r_epik_Ionization_Penalty_Neutral>
0.0587233

> <r_epik_State_Penalty>
0.0508012

> <r_epik_Charging_Adjusted_Penalty>
0.0508012

> <i_epik_Tot_Q>
0

> <i_epik_Tot_abs_Q>
0

> <r_epik_Metal_State_Penalty>
0.0461886

> <b_epik_Metal_Only>
0

> <s_lp_Force_Field>
OPLS_2005

> <r_lp_Energy>
11.3216

> <b_lp_Chiralities_Consistent>
1

> <s_lp_Variant>
AV-unprocessed.smi:1852-1

> <Gold.Version>
5.8.1

> <Gold.Id.Protein>
6NUR|6NUR_protein|mol2

> <Gold.PLP.Fitness>
51.1441

> <Gold.PLP.PLP>
-49.4362

> <Gold.PLP.part.hbond>
-1.0000

> <Gold.PLP.part.metal>
0.0000

> <Gold.PLP.part.buried>
-0.2559

> <Gold.PLP.part.nonpolar>
-48.8426

> <Gold.PLP.part.repulsive>
0.4241

> <Gold.PLP.ligand.clash>
0.0000

> <Gold.PLP.ligand.torsion>
0.6880

> <Gold.PLP.Chemscore.Hbond>
1.0000

> <Gold.PLP.Chemscore.CHOScore>
0.0000

> <Gold.PLP.Chemscore.Metal>
0.0000

> <Gold.Chemscore.Hbonds>
donor molecule, donor type, donor heavy atom, donor atom, acceptor molecule, acceptor atom, score
      P1  H 10752 10763       L1    16  1.00

> <Gold.PLP.Chemscore.Internal.Correction>
0.0839

> <Gold.Rescore>
     Score         DG    S(hbond)    S(metal)    S(lipo)     H(rot)  DE(clash)    DE(int)     intcor
     17.35     -18.29       1.00        0.00     133.08       2.38       0.19       0.75       ----

> <Gold.Chemscore.Fitness>
17.3514

> <Gold.Chemscore.DG>
-18.2945

> <Gold.Chemscore.ZeroCoef>
-5.4800

> <Gold.Chemscore.Hbond>
0.9986

> <Gold.Chemscore.Metal>
0.0000

> <Gold.Chemscore.Lipo>
133.0751

> <Gold.Chemscore.Internal_Hbond>
0.0000

> <Gold.Chemscore.DEClash>
0.1947

> <Gold.Chemscore.DEInternal>
0.7483

> <Gold.Chemscore.Rot>
2.3791

> <Gold.Chemscore.Internal.Correction>
   9.000000E+99

> <Gold.Chemscore.Hbonds>
donor molecule, donor type, donor heavy atom, donor atom, acceptor molecule, acceptor atom, score
      P1  H 10752 10763       L1    16  1.00

> <Gold.Chemscore.Hbond.Weighted>
-3.3353

> <Gold.Chemscore.Metal.Weighted>
-0.0000

> <Gold.Chemscore.Lipo.Weighted>
-15.5698

> <Gold.Chemscore.Internal_Hbond.Weighted>
0.0000

> <Gold.Chemscore.DEClash.Weighted>
0.1947

> <Gold.Chemscore.DEInternal.Weighted>
0.7483

> <Gold.Chemscore.Rot.Weighted>
6.0906

> <Gold.Chemscore.Internal.Correction.Weighted>
   9.000000E+99

> <Gold.Protein.RotatedTorsions>
[ 6907 6896 6895 6894 ] final   73.09 input  -60.11 | X-H torsion
[ 7974 7965 7964 7962 ] final   44.45 input  175.53 | X-H torsion
[ 8008 7997 7996 7995 ] final  -45.57 input   59.86 | X-H torsion
[ 10167 10162 10161 10158 ] final  -24.27 input  -65.29 | X-H torsion
[ 10718 10713 10712 10709 ] final  132.97 input   66.30 | X-H torsion
[ 10763 10752 10751 10750 ] final  114.57 input  -60.55 | X-H torsion
[ 11005 11000 10999 10996 ] final  -66.25 input  -57.11 | X-H torsion

> <Gold.Protein.ActiveResidues>
 VAL166  LYS551  ARG553  GLY616  TRP617  ASP618  TYR619  PRO620  LYS621  CYS622 
 ASP623  PHE694  ASN695  SER759  ASP760  ASP761  ALA762  ILE779  LEU786  VAL792 
 PHE793  MET794  SER795  GLU796  ALA797  LYS798  CYS799  TRP800  GLU811  SER814 

> <Gold.Protein.RotatedAtoms>
  152.4904  134.4474  159.9563 H   0  0  0  0  0  0  0  0  0  0  0  0  # atno 6907 bound_to 6896
  151.4462  133.3624  159.2796 H   0  0  0  0  0  0  0  0  0  0  0  0  # atno 6908 bound_to 6896
  150.9053  134.8491  159.7448 H   0  0  0  0  0  0  0  0  0  0  0  0  # atno 6909 bound_to 6896
  146.0567  139.5073  142.9684 H   0  0  0  0  0  0  0  0  0  0  0  0  # atno 7974 bound_to 7965
  154.4002  140.1393  156.3868 H   0  0  0  0  0  0  0  0  0  0  0  0  # atno 8008 bound_to 7997
  155.7951  140.3477  155.5351 H   0  0  0  0  0  0  0  0  0  0  0  0  # atno 8009 bound_to 7997
  155.8540  140.0946  157.1647 H   0  0  0  0  0  0  0  0  0  0  0  0  # atno 8010 bound_to 7997
  140.7288  143.4368  151.0718 H   0  0  0  0  0  0  0  0  0  0  0  0  # atno 10167 bound_to 10162
  157.4819  131.1086  150.9670 H   0  0  0  0  0  0  0  0  0  0  0  0  # atno 10718 bound_to 10713
  153.5093  135.3621  155.2578 H   0  0  0  0  0  0  0  0  0  0  0  0  # atno 10763 bound_to 10752
  154.8743  135.4019  154.3388 H   0  0  0  0  0  0  0  0  0  0  0  0  # atno 10764 bound_to 10752
  153.4038  135.7076  153.6474 H   0  0  0  0  0  0  0  0  0  0  0  0  # atno 10765 bound_to 10752
  141.1477  133.6696  156.6111 H   0  0  0  0  0  0  0  0  0  0  0  0  # atno 11005 bound_to 11000
  145.6631  141.0235  143.1698 LP  0  0  0  0  0  0  0  0  0  0  0  0  # atno 17320 bound_to 7965
  144.7152  139.8223  143.7401 LP  0  0  0  0  0  0  0  0  0  0  0  0  # atno 17321 bound_to 7965
  139.8031  143.8056  152.3165 LP  0  0  0  0  0  0  0  0  0  0  0  0  # atno 17342 bound_to 10162
  139.8080  144.7347  150.9736 LP  0  0  0  0  0  0  0  0  0  0  0  0  # atno 17343 bound_to 10162
  157.0400  130.5745  149.5355 LP  0  0  0  0  0  0  0  0  0  0  0  0  # atno 17370 bound_to 10713
  156.0126  130.5219  150.8036 LP  0  0  0  0  0  0  0  0  0  0  0  0  # atno 17371 bound_to 10713
  140.3614  134.7684  157.4536 LP  0  0  0  0  0  0  0  0  0  0  0  0  # atno 17394 bound_to 11000
  140.0782  134.5767  155.8568 LP  0  0  0  0  0  0  0  0  0  0  0  0  # atno 17395 bound_to 11000

$$$$
