AV-unprocessed.smi:212|AV-procd|sdf|1632|dock7
  -GOLD-   2262019583D 1   1.00000     0.00000
 Structure written by MMmdl.
 65 68  0  0  0  0  0  0  0  0  2 V2000
  147.0598  136.2771  157.0371 C   0  0  0  0  0  0  0  0  0  0  0  0
  147.6074  135.0161  156.3407 C   0  0  1  0  0  0  0  0  0  0  0  0
  147.0433  134.8384  154.9167 C   0  0  0  0  0  0  0  0  0  0  0  0
  147.5313  133.5728  154.3077 N   0  3  1  0  0  0  0  0  0  0  0  0
  146.9289  133.2885  152.9777 C   0  0  0  0  0  0  0  0  0  0  0  0
  145.6678  132.3951  153.0632 C   0  0  0  0  0  0  0  0  0  0  0  0
  144.8283  132.5459  151.7833 C   0  0  0  0  0  0  0  0  0  0  0  0
  146.0149  130.9137  153.3003 C   0  0  0  0  0  0  0  0  0  0  0  0
  144.8507  132.8361  154.1292 O   0  0  0  0  0  0  0  0  0  0  0  0
  149.0145  133.4886  154.3020 C   0  0  0  0  0  0  0  0  0  0  0  0
  149.6027  133.7196  155.7095 C   0  0  0  0  0  0  0  0  0  0  0  0
  149.0711  134.9248  156.3407 N   0  0  0  0  0  0  0  0  0  0  0  0
  149.7747  136.0569  156.1012 C   0  0  0  0  0  0  0  0  0  0  0  0
  149.9013  136.5316  154.8348 N   0  0  0  0  0  0  0  0  0  0  0  0
  150.5870  137.6566  154.6087 C   0  0  0  0  0  0  0  0  0  0  0  0
  151.2106  138.4451  155.4871 N   0  0  0  0  0  0  0  0  0  0  0  0
  151.0841  137.9675  156.7586 C   0  0  0  0  0  0  0  0  0  0  0  0
  150.3897  136.7896  157.1496 C   0  0  0  0  0  0  0  0  0  0  0  0
  150.4733  136.6182  158.5253 N   0  0  0  0  0  0  0  0  0  0  0  0
  151.1839  137.6373  158.9267 C   0  0  0  0  0  0  0  0  0  0  0  0
  151.5942  138.4955  157.9315 N   0  0  0  0  0  0  0  0  0  0  0  0
  152.3897  139.6981  158.0997 C   0  0  0  0  0  0  0  0  0  0  0  0
  153.0218  139.8442  159.5093 C   0  0  1  0  0  0  0  0  0  0  0  0
  154.2909  138.9707  159.6836 C   0  0  0  0  0  0  0  0  0  0  0  0
  155.3446  139.3941  158.8425 O   0  0  0  0  0  0  0  0  0  0  0  0
  153.3304  141.3346  159.8085 C   0  0  1  0  0  0  0  0  0  0  0  0
  152.1736  142.2912  159.5689 C   0  0  0  0  0  0  0  0  0  0  0  0
  152.6027  143.5147  160.3665 C   0  0  0  0  0  0  0  0  0  0  0  0
  153.2459  142.9902  161.5194 O   0  0  0  0  0  0  0  0  0  0  0  0
  153.6562  141.6470  161.2768 C   0  0  0  0  0  0  0  0  0  0  0  0
  145.9724  136.2388  157.1075 H   0  0  0  0  0  0  0  0  0  0  0  0
  147.3183  137.1877  156.4956 H   0  0  0  0  0  0  0  0  0  0  0  0
  147.4490  136.3663  158.0519 H   0  0  0  0  0  0  0  0  0  0  0  0
  147.2624  134.1669  156.9322 H   0  0  0  0  0  0  0  0  0  0  0  0
  145.9546  134.8321  154.9586 H   0  0  0  0  0  0  0  0  0  0  0  0
  147.3243  135.6818  154.2847 H   0  0  0  0  0  0  0  0  0  0  0  0
  146.7094  134.2223  152.4568 H   0  0  0  0  0  0  0  0  0  0  0  0
  147.6598  132.7749  152.3507 H   0  0  0  0  0  0  0  0  0  0  0  0
  145.3849  132.2153  150.9055 H   0  0  0  0  0  0  0  0  0  0  0  0
  144.5386  133.5841  151.6162 H   0  0  0  0  0  0  0  0  0  0  0  0
  143.9134  131.9535  151.8321 H   0  0  0  0  0  0  0  0  0  0  0  0
  146.6534  130.5274  152.5053 H   0  0  0  0  0  0  0  0  0  0  0  0
  145.1162  130.2960  153.3276 H   0  0  0  0  0  0  0  0  0  0  0  0
  146.5377  130.7643  154.2455 H   0  0  0  0  0  0  0  0  0  0  0  0
  144.1592  133.3762  153.7766 H   0  0  0  0  0  0  0  0  0  0  0  0
  149.3233  132.5062  153.9430 H   0  0  0  0  0  0  0  0  0  0  0  0
  149.4127  134.2175  153.5957 H   0  0  0  0  0  0  0  0  0  0  0  0
  149.3600  132.8714  156.3505 H   0  0  0  0  0  0  0  0  0  0  0  0
  150.6918  133.7650  155.6610 H   0  0  0  0  0  0  0  0  0  0  0  0
  150.6434  137.9713  153.5769 H   0  0  0  0  0  0  0  0  0  0  0  0
  151.4347  137.7912  159.9662 H   0  0  0  0  0  0  0  0  0  0  0  0
  153.1692  139.7083  157.3368 H   0  0  0  0  0  0  0  0  0  0  0  0
  151.7382  140.5441  157.8817 H   0  0  0  0  0  0  0  0  0  0  0  0
  152.2854  139.5149  160.2445 H   0  0  0  0  0  0  0  0  0  0  0  0
  154.6256  138.9749  160.7216 H   0  0  0  0  0  0  0  0  0  0  0  0
  154.0957  137.9313  159.4241 H   0  0  0  0  0  0  0  0  0  0  0  0
  156.1065  138.8664  159.0275 H   0  0  0  0  0  0  0  0  0  0  0  0
  154.1712  141.6584  159.1924 H   0  0  0  0  0  0  0  0  0  0  0  0
  152.0136  142.5218  158.5152 H   0  0  0  0  0  0  0  0  0  0  0  0
  151.2472  141.8842  159.9771 H   0  0  0  0  0  0  0  0  0  0  0  0
  153.3238  144.1049  159.7997 H   0  0  0  0  0  0  0  0  0  0  0  0
  151.7658  144.1610  160.6312 H   0  0  0  0  0  0  0  0  0  0  0  0
  153.0965  140.9959  161.9497 H   0  0  0  0  0  0  0  0  0  0  0  0
  154.7168  141.5253  161.4976 H   0  0  0  0  0  0  0  0  0  0  0  0
  147.2195  132.8291  154.9156 H   0  0  0  0  0  0  0  0  0  0  0  0
  1  2  1  0  0  0  0
  1 31  1  0  0  0  0
  1 32  1  0  0  0  0
  1 33  1  0  0  0  0
  2 12  1  0  0  0  0
  2  3  1  0  0  0  0
  2 34  1  0  0  0  0
  3  4  1  0  0  0  0
  3 35  1  0  0  0  0
  3 36  1  0  0  0  0
  4  5  1  0  0  0  0
  4 10  1  0  0  0  0
  4 65  1  0  0  0  0
  5  6  1  0  0  0  0
  5 37  1  0  0  0  0
  5 38  1  0  0  0  0
  6  7  1  0  0  0  0
  6  8  1  0  0  0  0
  6  9  1  0  0  0  0
  7 39  1  0  0  0  0
  7 40  1  0  0  0  0
  7 41  1  0  0  0  0
  8 42  1  0  0  0  0
  8 43  1  0  0  0  0
  8 44  1  0  0  0  0
  9 45  1  0  0  0  0
 10 11  1  0  0  0  0
 10 46  1  0  0  0  0
 10 47  1  0  0  0  0
 11 12  1  0  0  0  0
 11 48  1  0  0  0  0
 11 49  1  0  0  0  0
 12 13  1  0  0  0  0
 13 18  1  0  0  0  0
 13 14  2  0  0  0  0
 14 15  1  0  0  0  0
 15 16  2  0  0  0  0
 15 50  1  0  0  0  0
 16 17  1  0  0  0  0
 17 21  1  0  0  0  0
 17 18  2  0  0  0  0
 18 19  1  0  0  0  0
 19 20  2  0  0  0  0
 20 21  1  0  0  0  0
 20 51  1  0  0  0  0
 21 22  1  0  0  0  0
 22 23  1  0  0  0  0
 22 52  1  0  0  0  0
 22 53  1  0  0  0  0
 23 24  1  0  0  0  0
 23 26  1  0  0  0  0
 23 54  1  0  0  0  0
 24 25  1  0  0  0  0
 24 55  1  0  0  0  0
 24 56  1  0  0  0  0
 25 57  1  0  0  0  0
 26 30  1  0  0  0  0
 26 27  1  0  0  0  0
 26 58  1  0  0  0  0
 27 28  1  0  0  0  0
 27 59  1  0  0  0  0
 27 60  1  0  0  0  0
 28 29  1  0  0  0  0
 28 61  1  0  0  0  0
 28 62  1  0  0  0  0
 29 30  1  0  0  0  0
 30 63  1  0  0  0  0
 30 64  1  0  0  0  0
M  CHG  1   4   1
M  END
> <s_m_source_file>
AV-unprocessed.smi

> <i_m_source_file_index>
212

> <i_lp_mmshare_version>
43012

> <i_f3d_flags>
0

> <s_epik_input>
W0NIM11bQ0BASF0xW0NIMl1OKFtDSDJdQyhbQ0gzXSkoW0NIM10pW09IXSlbQ0gyXVtDSDJdTjFjKG5bY0hdbjIpYyhjMjMpbltjSF1uM1tDSDJdW0NASF0oW0NIMl1bT0hdKVtDQEBIXTRbQ0gyXVtDSDJdT1tDSDJdNA==

> <s_epik_cmdline>
J2VwaWtfcHl0aG9uJywgJy1waCcsICc3LjAnLCAnLXRuJywgJzgnLCAnLW1hJywgJzIwMCcsICctbWV0YWxfYmluZGluZycsICctaW1hZScsICc8aW5maWxlLm1hZT4nLCAnLW9tYWUnLCAnPG91dGZpbGUubWFlPic=

> <r_lp_tautomer_probability>
1

> <r_epik_Ionization_Penalty>
0.00182193

> <r_epik_Ionization_Penalty_Charging>
0.00173996

> <r_epik_Ionization_Penalty_Neutral>
8.19718e-05

> <r_epik_State_Penalty>
-0

> <r_epik_Charging_Adjusted_Penalty>
0.00173996

> <i_epik_Tot_Q>
1

> <i_epik_Tot_abs_Q>
1

> <r_epik_Metal_State_Penalty>
-0

> <b_epik_Metal_Only>
0

> <s_lp_Force_Field>
OPLS_2005

> <r_lp_Energy>
59.0262

> <b_lp_Chiralities_Consistent>
1

> <s_lp_Variant>
AV-unprocessed.smi:212-16

> <Gold.Version>
5.8.1

> <Gold.Id.Protein>
6NUR|6NUR_protein|mol2

> <Gold.PLP.Fitness>
49.1943

> <Gold.PLP.PLP>
-43.4734

> <Gold.PLP.part.hbond>
-2.3242

> <Gold.PLP.part.metal>
0.0000

> <Gold.PLP.part.buried>
-7.5627

> <Gold.PLP.part.nonpolar>
-34.4574

> <Gold.PLP.part.repulsive>
0.3093

> <Gold.PLP.ligand.clash>
0.0000

> <Gold.PLP.ligand.torsion>
1.4170

> <Gold.PLP.Chemscore.Hbond>
1.7301

> <Gold.PLP.Chemscore.CHOScore>
0.7608

> <Gold.PLP.Chemscore.Metal>
0.0000

> <Gold.Chemscore.Hbonds>
donor molecule, donor type, donor heavy atom, donor atom, acceptor molecule, acceptor atom, score
      P1  H  6896  6909       L1    19  0.76
      P1  H  7997  8010       L1    25  1.00
      L1  C    15    50       P1  7948  0.02
      L1  C    15    50       P1  7949  0.01

> <Gold.PLP.Chemscore.Internal.Correction>
1.0825

> <Gold.Rescore>
     Score         DG    S(hbond)    S(metal)    S(lipo)     H(rot)  DE(clash)    DE(int)     intcor
     11.63     -13.89       1.90        0.00      98.18       3.68       0.01       2.25       ----

> <Gold.Chemscore.Fitness>
11.6343

> <Gold.Chemscore.DG>
-13.8871

> <Gold.Chemscore.ZeroCoef>
-5.4800

> <Gold.Chemscore.Hbond>
1.8995

> <Gold.Chemscore.Metal>
0.0000

> <Gold.Chemscore.Lipo>
98.1781

> <Gold.Chemscore.Internal_Hbond>
0.0000

> <Gold.Chemscore.DEClash>
0.0060

> <Gold.Chemscore.DEInternal>
2.2468

> <Gold.Chemscore.Rot>
3.6812

> <Gold.Chemscore.Internal.Correction>
   9.000000E+99

> <Gold.Chemscore.Hbonds>
donor molecule, donor type, donor heavy atom, donor atom, acceptor molecule, acceptor atom, score
      P1  H  6896  6909       L1    19  0.53
      P1  H  7997  8010       L1    25  0.78

> <Gold.Chemscore.Hbond.Weighted>
-6.3442

> <Gold.Chemscore.Metal.Weighted>
-0.0000

> <Gold.Chemscore.Lipo.Weighted>
-11.4868

> <Gold.Chemscore.Internal_Hbond.Weighted>
0.0000

> <Gold.Chemscore.DEClash.Weighted>
0.0060

> <Gold.Chemscore.DEInternal.Weighted>
2.2468

> <Gold.Chemscore.Rot.Weighted>
9.4239

> <Gold.Chemscore.Internal.Correction.Weighted>
   9.000000E+99

> <Gold.Protein.RotatedTorsions>
[ 6907 6896 6895 6894 ] final   74.72 input  -60.11 | X-H torsion
[ 7974 7965 7964 7962 ] final  124.26 input  175.53 | X-H torsion
[ 8008 7997 7996 7995 ] final  -18.98 input   59.86 | X-H torsion
[ 10167 10162 10161 10158 ] final  -24.49 input  -65.29 | X-H torsion
[ 10718 10713 10712 10709 ] final -142.17 input   66.30 | X-H torsion
[ 10763 10752 10751 10750 ] final   29.09 input  -60.55 | X-H torsion
[ 11005 11000 10999 10996 ] final -100.73 input  -57.11 | X-H torsion

> <Gold.Protein.ActiveResidues>
 VAL166  LYS551  ARG553  GLY616  TRP617  ASP618  TYR619  PRO620  LYS621  CYS622 
 ASP623  PHE694  ASN695  SER759  ASP760  ASP761  ALA762  ILE779  LEU786  VAL792 
 PHE793  MET794  SER795  GLU796  ALA797  LYS798  CYS799  TRP800  GLU811  SER814 

> <Gold.Protein.RotatedAtoms>
  152.4990  134.4229  159.9486 H   0  0  0  0  0  0  0  0  0  0  0  0  # atno 6907 bound_to 6896
  151.4203  133.3694  159.2763 H   0  0  0  0  0  0  0  0  0  0  0  0  # atno 6908 bound_to 6896
  150.9227  134.8667  159.7559 H   0  0  0  0  0  0  0  0  0  0  0  0  # atno 6909 bound_to 6896
  145.0864  139.3619  143.4883 H   0  0  0  0  0  0  0  0  0  0  0  0  # atno 7974 bound_to 7965
  154.4868  140.2101  155.9637 H   0  0  0  0  0  0  0  0  0  0  0  0  # atno 8008 bound_to 7997
  156.1248  140.3207  155.8229 H   0  0  0  0  0  0  0  0  0  0  0  0  # atno 8009 bound_to 7997
  155.4404  140.0510  157.3001 H   0  0  0  0  0  0  0  0  0  0  0  0  # atno 8010 bound_to 7997
  140.7288  143.4348  151.0746 H   0  0  0  0  0  0  0  0  0  0  0  0  # atno 10167 bound_to 10162
  156.3428  130.7646  151.1785 H   0  0  0  0  0  0  0  0  0  0  0  0  # atno 10718 bound_to 10713
  153.0451  135.6497  154.0837 H   0  0  0  0  0  0  0  0  0  0  0  0  # atno 10763 bound_to 10752
  154.0536  135.2893  155.3338 H   0  0  0  0  0  0  0  0  0  0  0  0  # atno 10764 bound_to 10752
  154.6703  135.5358  153.8196 H   0  0  0  0  0  0  0  0  0  0  0  0  # atno 10765 bound_to 10752
  141.1259  133.8422  157.1140 H   0  0  0  0  0  0  0  0  0  0  0  0  # atno 11005 bound_to 11000
  146.3531  140.0678  142.8625 LP  0  0  0  0  0  0  0  0  0  0  0  0  # atno 17320 bound_to 7965
  145.1117  140.9409  143.4652 LP  0  0  0  0  0  0  0  0  0  0  0  0  # atno 17321 bound_to 7965
  139.8009  143.8085  152.3163 LP  0  0  0  0  0  0  0  0  0  0  0  0  # atno 17342 bound_to 10162
  139.8101  144.7339  150.9708 LP  0  0  0  0  0  0  0  0  0  0  0  0  # atno 17343 bound_to 10162
  157.7449  131.0450  150.4820 LP  0  0  0  0  0  0  0  0  0  0  0  0  # atno 17370 bound_to 10713
  156.5002  130.4115  149.6357 LP  0  0  0  0  0  0  0  0  0  0  0  0  # atno 17371 bound_to 10713
  140.0258  134.9925  157.0682 LP  0  0  0  0  0  0  0  0  0  0  0  0  # atno 17394 bound_to 11000
  140.4366  134.1725  155.7171 LP  0  0  0  0  0  0  0  0  0  0  0  0  # atno 17395 bound_to 11000

$$$$
