AV-unprocessed.smi:244|AV-procd|sdf|1867|dock6
  -GOLD-   2262020503D 1   1.00000     0.00000
 Structure written by MMmdl.
 57 61  0  0  0  0  0  0  0  0  2 V2000
  147.6145  139.4550  154.3679 C   0  0  0  0  0  0  0  0  0  0  0  0
  148.8897  139.3239  155.1043 N   0  3  2  0  0  0  0  0  0  0  0  0
  149.3148  140.5980  155.7345 C   0  0  0  0  0  0  0  0  0  0  0  0
  150.5502  140.3803  156.6212 C   0  0  0  0  0  0  0  0  0  0  0  0
  151.7012  139.7314  155.8214 C   0  0  1  0  0  0  0  0  0  0  0  0
  152.8566  139.4798  156.6241 O   0  0  0  0  0  0  0  0  0  0  0  0
  152.7012  138.4369  157.5846 C   0  0  0  0  0  0  0  0  0  0  0  0
  152.2663  137.1391  156.8889 C   0  0  0  0  0  0  0  0  0  0  0  0
  151.0645  137.3690  156.0956 N   0  0  0  0  0  0  0  0  0  0  0  0
  150.5289  136.2215  155.6267 C   0  0  0  0  0  0  0  0  0  0  0  0
  151.3730  135.1742  155.4616 N   0  0  0  0  0  0  0  0  0  0  0  0
  150.9030  134.0043  155.0178 C   0  0  0  0  0  0  0  0  0  0  0  0
  149.6504  133.6768  154.6936 N   0  0  0  0  0  0  0  0  0  0  0  0
  148.7994  134.7289  154.8665 C   0  0  0  0  0  0  0  0  0  0  0  0
  149.1515  136.0287  155.3250 C   0  0  0  0  0  0  0  0  0  0  0  0
  148.0225  136.8366  155.3779 N   0  0  0  0  0  0  0  0  0  0  0  0
  147.0581  136.0610  154.9629 C   0  0  0  0  0  0  0  0  0  0  0  0
  147.4340  134.7745  154.6471 N   0  0  0  0  0  0  0  0  0  0  0  0
  146.5701  133.7044  154.1722 C   0  0  0  0  0  0  0  0  0  0  0  0
  146.1188  133.8644  152.6988 C   0  0  0  0  0  0  0  0  0  0  0  0
  147.2803  133.8841  151.8869 O   0  0  0  0  0  0  0  0  0  0  0  0
  145.2144  132.7052  152.2253 C   0  0  0  0  0  0  0  0  0  0  0  0
  144.5971  132.9789  150.8421 C   0  0  0  0  0  0  0  0  0  0  0  0
  143.8972  134.2168  150.8536 O   0  0  0  0  0  0  0  0  0  0  0  0
  144.7490  135.3268  151.1092 C   0  0  0  0  0  0  0  0  0  0  0  0
  145.3706  135.1997  152.5112 C   0  0  0  0  0  0  0  0  0  0  0  0
  151.2375  138.4393  155.1088 C   0  0  1  0  0  0  0  0  0  0  0  0
  149.9681  138.7367  154.2704 C   0  0  0  0  0  0  0  0  0  0  0  0
  147.7154  140.1461  153.5300 H   0  0  0  0  0  0  0  0  0  0  0  0
  146.8269  139.8250  155.0250 H   0  0  0  0  0  0  0  0  0  0  0  0
  147.2938  138.4878  153.9794 H   0  0  0  0  0  0  0  0  0  0  0  0
  149.5284  141.3379  154.9615 H   0  0  0  0  0  0  0  0  0  0  0  0
  148.5001  140.9978  156.3397 H   0  0  0  0  0  0  0  0  0  0  0  0
  150.8793  141.3304  157.0425 H   0  0  0  0  0  0  0  0  0  0  0  0
  150.2571  139.7545  157.4635 H   0  0  0  0  0  0  0  0  0  0  0  0
  152.0119  140.4455  155.0577 H   0  0  0  0  0  0  0  0  0  0  0  0
  153.6548  138.2844  158.0903 H   0  0  0  0  0  0  0  0  0  0  0  0
  151.9882  138.7228  158.3575 H   0  0  0  0  0  0  0  0  0  0  0  0
  153.0730  136.7844  156.2464 H   0  0  0  0  0  0  0  0  0  0  0  0
  152.0827  136.3622  157.6323 H   0  0  0  0  0  0  0  0  0  0  0  0
  151.6338  133.2162  154.9093 H   0  0  0  0  0  0  0  0  0  0  0  0
  146.0368  136.4049  154.8849 H   0  0  0  0  0  0  0  0  0  0  0  0
  147.1051  132.7621  154.2982 H   0  0  0  0  0  0  0  0  0  0  0  0
  145.7015  133.6480  154.8302 H   0  0  0  0  0  0  0  0  0  0  0  0
  147.7250  134.7077  152.0180 H   0  0  0  0  0  0  0  0  0  0  0  0
  145.7673  131.7657  152.1971 H   0  0  0  0  0  0  0  0  0  0  0  0
  144.4064  132.5640  152.9444 H   0  0  0  0  0  0  0  0  0  0  0  0
  145.3625  132.9881  150.0648 H   0  0  0  0  0  0  0  0  0  0  0  0
  143.8975  132.1839  150.5841 H   0  0  0  0  0  0  0  0  0  0  0  0
  145.5196  135.3949  150.3398 H   0  0  0  0  0  0  0  0  0  0  0  0
  144.1595  136.2416  151.0455 H   0  0  0  0  0  0  0  0  0  0  0  0
  144.5697  135.2696  153.2484 H   0  0  0  0  0  0  0  0  0  0  0  0
  146.0361  136.0423  152.7039 H   0  0  0  0  0  0  0  0  0  0  0  0
  152.0287  138.1267  154.4256 H   0  0  0  0  0  0  0  0  0  0  0  0
  149.6082  137.8363  153.7711 H   0  0  0  0  0  0  0  0  0  0  0  0
  150.2161  139.4382  153.4721 H   0  0  0  0  0  0  0  0  0  0  0  0
  148.7185  138.6696  155.8552 H   0  0  0  0  0  0  0  0  0  0  0  0
  1  2  1  0  0  0  0
  1 29  1  0  0  0  0
  1 30  1  0  0  0  0
  1 31  1  0  0  0  0
  2 28  1  0  0  0  0
  2  3  1  0  0  0  0
  2 57  1  0  0  0  0
  3  4  1  0  0  0  0
  3 32  1  0  0  0  0
  3 33  1  0  0  0  0
  4  5  1  0  0  0  0
  4 34  1  0  0  0  0
  4 35  1  0  0  0  0
  5 27  1  0  0  0  0
  5  6  1  0  0  0  0
  5 36  1  0  0  0  0
  6  7  1  0  0  0  0
  7  8  1  0  0  0  0
  7 37  1  0  0  0  0
  7 38  1  0  0  0  0
  8  9  1  0  0  0  0
  8 39  1  0  0  0  0
  8 40  1  0  0  0  0
  9 10  1  0  0  0  0
  9 27  1  0  0  0  0
 10 15  1  0  0  0  0
 10 11  2  0  0  0  0
 11 12  1  0  0  0  0
 12 13  2  0  0  0  0
 12 41  1  0  0  0  0
 13 14  1  0  0  0  0
 14 18  1  0  0  0  0
 14 15  2  0  0  0  0
 15 16  1  0  0  0  0
 16 17  2  0  0  0  0
 17 18  1  0  0  0  0
 17 42  1  0  0  0  0
 18 19  1  0  0  0  0
 19 20  1  0  0  0  0
 19 43  1  0  0  0  0
 19 44  1  0  0  0  0
 20 26  1  0  0  0  0
 20 21  1  0  0  0  0
 20 22  1  0  0  0  0
 21 45  1  0  0  0  0
 22 23  1  0  0  0  0
 22 46  1  0  0  0  0
 22 47  1  0  0  0  0
 23 24  1  0  0  0  0
 23 48  1  0  0  0  0
 23 49  1  0  0  0  0
 24 25  1  0  0  0  0
 25 26  1  0  0  0  0
 25 50  1  0  0  0  0
 25 51  1  0  0  0  0
 26 52  1  0  0  0  0
 26 53  1  0  0  0  0
 27 28  1  0  0  0  0
 27 54  1  0  0  0  0
 28 55  1  0  0  0  0
 28 56  1  0  0  0  0
M  CHG  1   2   1
M  END
> <s_m_source_file>
AV-unprocessed.smi

> <i_m_source_file_index>
244

> <i_lp_mmshare_version>
43012

> <i_f3d_flags>
0

> <s_epik_input>
W0NIMl0xW0NIMl1OKFtDSDNdKVtDSDJdW0NAQEhdKFtDQEhdMTIpTihbQ0gyXVtDSDJdTzIpYyhuW2NIXW4zKWMoYzM0KW5bY0hdbjRbQ0gyXUM1KFtPSF0pW0NIMl1bQ0gyXU9bQ0gyXVtDSDJdNQ==

> <s_epik_cmdline>
J2VwaWtfcHl0aG9uJywgJy1waCcsICc3LjAnLCAnLXRuJywgJzgnLCAnLW1hJywgJzIwMCcsICctbWV0YWxfYmluZGluZycsICctaW1hZScsICc8aW5maWxlLm1hZT4nLCAnLW9tYWUnLCAnPG91dGZpbGUubWFlPic=

> <r_lp_tautomer_probability>
1

> <r_epik_Ionization_Penalty>
0.0136215

> <r_epik_Ionization_Penalty_Charging>
0.0131385

> <r_epik_Ionization_Penalty_Neutral>
0.000483022

> <r_epik_State_Penalty>
0.0104001

> <r_epik_Charging_Adjusted_Penalty>
0.0235387

> <i_epik_Tot_Q>
1

> <i_epik_Tot_abs_Q>
1

> <r_epik_Metal_State_Penalty>
0.0104469

> <b_epik_Metal_Only>
0

> <s_lp_Force_Field>
OPLS_2005

> <r_lp_Energy>
48.7962

> <b_lp_Chiralities_Consistent>
1

> <s_lp_Variant>
AV-unprocessed.smi:244-4

> <Gold.Version>
5.8.1

> <Gold.Id.Protein>
6NUR|6NUR_protein|mol2

> <Gold.PLP.Fitness>
43.1130

> <Gold.PLP.PLP>
-35.4357

> <Gold.PLP.part.hbond>
-3.0000

> <Gold.PLP.part.metal>
0.0000

> <Gold.PLP.part.buried>
-5.4752

> <Gold.PLP.part.nonpolar>
-27.4491

> <Gold.PLP.part.repulsive>
0.4585

> <Gold.PLP.ligand.clash>
0.0000

> <Gold.PLP.ligand.torsion>
0.7295

> <Gold.PLP.Chemscore.Hbond>
3.0000

> <Gold.PLP.Chemscore.CHOScore>
0.0000

> <Gold.PLP.Chemscore.Metal>
0.0000

> <Gold.Chemscore.Hbonds>
donor molecule, donor type, donor heavy atom, donor atom, acceptor molecule, acceptor atom, score
      L1  H    21    45       P1  7948  1.00
      P1  H  7997  8009       L1     6  1.00
      P1  H 10752 10765       L1    11  0.98

> <Gold.PLP.Chemscore.Internal.Correction>
0.1363

> <Gold.Rescore>
     Score         DG    S(hbond)    S(metal)    S(lipo)     H(rot)  DE(clash)    DE(int)     intcor
     14.57     -18.12       2.51        0.00      82.19       2.09       1.47       2.09       ----

> <Gold.Chemscore.Fitness>
14.5675

> <Gold.Chemscore.DG>
-18.1244

> <Gold.Chemscore.ZeroCoef>
-5.4800

> <Gold.Chemscore.Hbond>
2.5094

> <Gold.Chemscore.Metal>
0.0000

> <Gold.Chemscore.Lipo>
82.1879

> <Gold.Chemscore.Internal_Hbond>
0.0000

> <Gold.Chemscore.DEClash>
1.4666

> <Gold.Chemscore.DEInternal>
2.0902

> <Gold.Chemscore.Rot>
2.0911

> <Gold.Chemscore.Internal.Correction>
   9.000000E+99

> <Gold.Chemscore.Hbonds>
donor molecule, donor type, donor heavy atom, donor atom, acceptor molecule, acceptor atom, score
      L1  H    21    45       P1  7948  0.55
      P1  H  7997  8009       L1     6  0.85
      P1  H 10752 10765       L1    11  0.69

> <Gold.Chemscore.Hbond.Weighted>
-8.3815

> <Gold.Chemscore.Metal.Weighted>
-0.0000

> <Gold.Chemscore.Lipo.Weighted>
-9.6160

> <Gold.Chemscore.Internal_Hbond.Weighted>
0.0000

> <Gold.Chemscore.DEClash.Weighted>
1.4666

> <Gold.Chemscore.DEInternal.Weighted>
2.0902

> <Gold.Chemscore.Rot.Weighted>
5.3531

> <Gold.Chemscore.Internal.Correction.Weighted>
   9.000000E+99

> <Gold.Protein.RotatedTorsions>
[ 6907 6896 6895 6894 ] final   49.73 input  -60.11 | X-H torsion
[ 7974 7965 7964 7962 ] final   89.26 input  175.53 | X-H torsion
[ 8008 7997 7996 7995 ] final -176.94 input   59.86 | X-H torsion
[ 10167 10162 10161 10158 ] final -123.08 input  -65.29 | X-H torsion
[ 10718 10713 10712 10709 ] final   -2.91 input   66.30 | X-H torsion
[ 10763 10752 10751 10750 ] final -164.26 input  -60.55 | X-H torsion
[ 11005 11000 10999 10996 ] final   51.52 input  -57.11 | X-H torsion

> <Gold.Protein.ActiveResidues>
 VAL166  LYS551  ARG553  GLY616  TRP617  ASP618  TYR619  PRO620  LYS621  CYS622 
 ASP623  PHE694  ASN695  SER759  ASP760  ASP761  ALA762  ILE779  LEU786  VAL792 
 PHE793  MET794  SER795  GLU796  ALA797  LYS798  CYS799  TRP800  GLU811  SER814 

> <Gold.Protein.RotatedAtoms>
  152.2940  134.7688  160.0371 H   0  0  0  0  0  0  0  0  0  0  0  0  # atno 6907 bound_to 6896
  151.8224  133.3391  159.3596 H   0  0  0  0  0  0  0  0  0  0  0  0  # atno 6908 bound_to 6896
  150.7243  134.5490  159.5829 H   0  0  0  0  0  0  0  0  0  0  0  0  # atno 6909 bound_to 6896
  145.5347  139.2285  143.2599 H   0  0  0  0  0  0  0  0  0  0  0  0  # atno 7974 bound_to 7965
  156.0009  140.1220  157.0548 H   0  0  0  0  0  0  0  0  0  0  0  0  # atno 8008 bound_to 7997
  154.4242  140.1107  156.5764 H   0  0  0  0  0  0  0  0  0  0  0  0  # atno 8009 bound_to 7997
  155.6214  140.3472  155.4655 H   0  0  0  0  0  0  0  0  0  0  0  0  # atno 8010 bound_to 7997
  140.0073  143.5478  152.2278 H   0  0  0  0  0  0  0  0  0  0  0  0  # atno 10167 bound_to 10162
  156.7838  130.5339  149.5746 H   0  0  0  0  0  0  0  0  0  0  0  0  # atno 10718 bound_to 10713
  154.7045  135.2994  154.9291 H   0  0  0  0  0  0  0  0  0  0  0  0  # atno 10763 bound_to 10752
  154.0213  135.6682  153.4777 H   0  0  0  0  0  0  0  0  0  0  0  0  # atno 10764 bound_to 10752
  153.0706  135.5063  154.8208 H   0  0  0  0  0  0  0  0  0  0  0  0  # atno 10765 bound_to 10752
  140.0926  134.5189  155.8838 H   0  0  0  0  0  0  0  0  0  0  0  0  # atno 11005 bound_to 11000
  146.2021  140.6165  142.9098 LP  0  0  0  0  0  0  0  0  0  0  0  0  # atno 17320 bound_to 7965
  144.7608  140.5416  143.6737 LP  0  0  0  0  0  0  0  0  0  0  0  0  # atno 17321 bound_to 7965
  139.6229  144.7632  151.2701 LP  0  0  0  0  0  0  0  0  0  0  0  0  # atno 17342 bound_to 10162
  140.7395  143.6615  150.8160 LP  0  0  0  0  0  0  0  0  0  0  0  0  # atno 17343 bound_to 10162
  156.1201  130.6104  151.0181 LP  0  0  0  0  0  0  0  0  0  0  0  0  # atno 17370 bound_to 10713
  157.6634  131.0876  150.7786 LP  0  0  0  0  0  0  0  0  0  0  0  0  # atno 17371 bound_to 10713
  141.2082  133.6671  156.6357 LP  0  0  0  0  0  0  0  0  0  0  0  0  # atno 17394 bound_to 11000
  140.3331  134.7912  157.4341 LP  0  0  0  0  0  0  0  0  0  0  0  0  # atno 17395 bound_to 11000

$$$$
