AV-unprocessed.smi:3354|AV-procd|sdf|12961|dock6
  -GOLD-   2272019403D 1   1.00000     0.00000
 Structure written by MMmdl.
 38 40  0  0  0  0  0  0  0  0  1 V2000
  146.2494  131.6085  152.1090 C   0  0  0  0  0  0  0  0  0  0  0  0
  145.0078  131.3712  151.2717 C   0  0  2  0  0  0  0  0  0  0  0  0
  144.9467  131.8354  149.8349 C   0  0  0  0  0  0  0  0  0  0  0  0
  144.0677  132.4945  150.8796 C   0  0  2  0  0  0  0  0  0  0  0  0
  144.3343  133.8333  151.3189 N   0  0  0  0  0  0  0  0  0  0  0  0
  145.4423  134.6163  150.7888 C   0  0  0  0  0  0  0  0  0  0  0  0
  145.1383  136.0746  151.1749 C   0  0  2  0  0  0  0  0  0  0  0  0
  146.3279  136.7403  151.6988 N   0  0  0  0  0  0  0  0  0  0  0  0
  146.3172  137.8790  152.4054 C   0  0  0  0  0  0  0  0  0  0  0  0
  145.2872  138.4900  152.6893 O   0  0  0  0  0  0  0  0  0  0  0  0
  147.5597  138.2370  152.7714 N   0  0  0  0  0  0  0  0  0  0  0  0
  147.9656  139.3761  153.5176 C   0  0  0  0  0  0  0  0  0  0  0  0
  149.1780  139.4605  154.2444 C   0  0  0  0  0  0  0  0  0  0  0  0
  149.4592  140.6389  154.9622 C   0  0  0  0  0  0  0  0  0  0  0  0
  148.5171  141.6855  154.9333 C   0  0  0  0  0  0  0  0  0  0  0  0
  147.3519  141.6136  154.2559 N   0  0  0  0  0  0  0  0  0  0  0  0
  147.0885  140.4802  153.5711 C   0  0  0  0  0  0  0  0  0  0  0  0
  144.0045  135.9941  152.2088 C   0  0  0  0  0  0  0  0  0  0  0  0
  143.5128  134.5631  152.0817 C   0  0  0  0  0  0  0  0  0  0  0  0
  142.4769  134.1667  152.6138 O   0  0  0  0  0  0  0  0  0  0  0  0
  146.7570  132.5261  151.8125 H   0  0  0  0  0  0  0  0  0  0  0  0
  146.9446  130.7777  151.9879 H   0  0  0  0  0  0  0  0  0  0  0  0
  145.9795  131.6848  153.1625 H   0  0  0  0  0  0  0  0  0  0  0  0
  144.5260  130.4192  151.4852 H   0  0  0  0  0  0  0  0  0  0  0  0
  145.8092  132.3748  149.4499 H   0  0  0  0  0  0  0  0  0  0  0  0
  144.4615  131.1754  149.1186 H   0  0  0  0  0  0  0  0  0  0  0  0
  143.0128  132.2290  150.8274 H   0  0  0  0  0  0  0  0  0  0  0  0
  146.3724  134.2652  151.2382 H   0  0  0  0  0  0  0  0  0  0  0  0
  145.5257  134.5029  149.7071 H   0  0  0  0  0  0  0  0  0  0  0  0
  144.7801  136.6044  150.2898 H   0  0  0  0  0  0  0  0  0  0  0  0
  147.2173  136.2998  151.5143 H   0  0  0  0  0  0  0  0  0  0  0  0
  148.2967  137.5872  152.5389 H   0  0  0  0  0  0  0  0  0  0  0  0
  149.8857  138.6469  154.2783 H   0  0  0  0  0  0  0  0  0  0  0  0
  150.3749  140.7364  155.5265 H   0  0  0  0  0  0  0  0  0  0  0  0
  148.7019  142.6021  155.4737 H   0  0  0  0  0  0  0  0  0  0  0  0
  146.1461  140.4573  153.0430 H   0  0  0  0  0  0  0  0  0  0  0  0
  144.3592  136.1571  153.2274 H   0  0  0  0  0  0  0  0  0  0  0  0
  143.2085  136.7095  151.9996 H   0  0  0  0  0  0  0  0  0  0  0  0
  1  2  1  0  0  0  0
  1 21  1  0  0  0  0
  1 22  1  0  0  0  0
  1 23  1  0  0  0  0
  2  4  1  0  0  0  0
  2  3  1  0  0  0  0
  2 24  1  0  0  0  0
  3  4  1  0  0  0  0
  3 25  1  0  0  0  0
  3 26  1  0  0  0  0
  4  5  1  0  0  0  0
  4 27  1  0  0  0  0
  5 19  1  0  0  0  0
  5  6  1  0  0  0  0
  6  7  1  0  0  0  0
  6 28  1  0  0  0  0
  6 29  1  0  0  0  0
  7  8  1  0  0  0  0
  7 18  1  0  0  0  0
  7 30  1  0  0  0  0
  8  9  1  0  0  0  0
  8 31  1  0  0  0  0
  9 10  2  0  0  0  0
  9 11  1  0  0  0  0
 11 12  1  0  0  0  0
 11 32  1  0  0  0  0
 12 17  1  0  0  0  0
 12 13  2  0  0  0  0
 13 14  1  0  0  0  0
 13 33  1  0  0  0  0
 14 15  2  0  0  0  0
 14 34  1  0  0  0  0
 15 16  1  0  0  0  0
 15 35  1  0  0  0  0
 16 17  2  0  0  0  0
 17 36  1  0  0  0  0
 18 19  1  0  0  0  0
 18 37  1  0  0  0  0
 18 38  1  0  0  0  0
 19 20  2  0  0  0  0
M  END
> <s_m_source_file>
AV-unprocessed.smi

> <i_m_source_file_index>
3354

> <i_lp_mmshare_version>
43012

> <i_f3d_flags>
0

> <s_epik_input>
W0NIM11bQ0BASF0xW0NIMl1bQ0BIXTFOMltDSDJdW0NASF0oW0NIMl1DMj1PKVtOSF1DKD1PKVtOSF1jM1tjSF1bY0hdW2NIXW5bY0hdMw==

> <s_epik_cmdline>
J2VwaWtfcHl0aG9uJywgJy1waCcsICc3LjAnLCAnLXRuJywgJzgnLCAnLW1hJywgJzIwMCcsICctbWV0YWxfYmluZGluZycsICctaW1hZScsICc8aW5maWxlLm1hZT4nLCAnLW9tYWUnLCAnPG91dGZpbGUubWFlPic=

> <r_epik_Ionization_Penalty>
0.00456191

> <r_epik_Ionization_Penalty_Charging>
0

> <r_epik_Ionization_Penalty_Neutral>
0.00456191

> <r_epik_State_Penalty>
0.00327094

> <r_epik_Charging_Adjusted_Penalty>
0.00327094

> <i_epik_Tot_Q>
0

> <i_epik_Tot_abs_Q>
0

> <r_epik_Metal_State_Penalty>
-0

> <b_epik_Metal_Only>
0

> <s_lp_Force_Field>
OPLS_2005

> <r_lp_Energy>
41.6225

> <b_lp_Chiralities_Consistent>
1

> <s_lp_Variant>
AV-unprocessed.smi:3354-7

> <Gold.Version>
5.8.1

> <Gold.Id.Protein>
6NUR|6NUR_protein|mol2

> <Gold.PLP.Fitness>
44.9555

> <Gold.PLP.PLP>
-33.5880

> <Gold.PLP.part.hbond>
-2.7388

> <Gold.PLP.part.metal>
0.0000

> <Gold.PLP.part.buried>
-1.2997

> <Gold.PLP.part.nonpolar>
-34.2439

> <Gold.PLP.part.repulsive>
4.5495

> <Gold.PLP.ligand.clash>
0.0000

> <Gold.PLP.ligand.torsion>
0.4073

> <Gold.PLP.Chemscore.Hbond>
1.9920

> <Gold.PLP.Chemscore.CHOScore>
2.0000

> <Gold.PLP.Chemscore.Metal>
0.0000

> <Gold.Chemscore.Hbonds>
donor molecule, donor type, donor heavy atom, donor atom, acceptor molecule, acceptor atom, score
      L1  H     8    31       P1  7948  0.98
      L1  H    11    32       P1  7948  1.00
      L1  C    15    35       P1  8028  1.00
      L1  C    17    36       P1 10175  1.00

> <Gold.PLP.Chemscore.Internal.Correction>
0.2062

> <Gold.Rescore>
     Score         DG    S(hbond)    S(metal)    S(lipo)     H(rot)  DE(clash)    DE(int)     intcor
     13.68     -18.33       1.91        0.00      82.44       1.24       1.53       3.13       ----

> <Gold.Chemscore.Fitness>
13.6759

> <Gold.Chemscore.DG>
-18.3340

> <Gold.Chemscore.ZeroCoef>
-5.4800

> <Gold.Chemscore.Hbond>
1.9081

> <Gold.Chemscore.Metal>
0.0000

> <Gold.Chemscore.Lipo>
82.4390

> <Gold.Chemscore.Internal_Hbond>
0.0000

> <Gold.Chemscore.DEClash>
1.5286

> <Gold.Chemscore.DEInternal>
3.1294

> <Gold.Chemscore.Rot>
1.2361

> <Gold.Chemscore.Internal.Correction>
   9.000000E+99

> <Gold.Chemscore.Hbonds>
donor molecule, donor type, donor heavy atom, donor atom, acceptor molecule, acceptor atom, score
      L1  H     8    31       P1  7948  0.93
      L1  H    11    32       P1  7948  0.98

> <Gold.Chemscore.Hbond.Weighted>
-6.3729

> <Gold.Chemscore.Metal.Weighted>
-0.0000

> <Gold.Chemscore.Lipo.Weighted>
-9.6454

> <Gold.Chemscore.Internal_Hbond.Weighted>
0.0000

> <Gold.Chemscore.DEClash.Weighted>
1.5286

> <Gold.Chemscore.DEInternal.Weighted>
3.1294

> <Gold.Chemscore.Rot.Weighted>
3.1643

> <Gold.Chemscore.Internal.Correction.Weighted>
   9.000000E+99

> <Gold.Protein.RotatedTorsions>
[ 6907 6896 6895 6894 ] final  150.56 input  -60.11 | X-H torsion
[ 7974 7965 7964 7962 ] final  176.18 input  175.53 | X-H torsion
[ 8008 7997 7996 7995 ] final -143.87 input   59.86 | X-H torsion
[ 10167 10162 10161 10158 ] final -115.25 input  -65.29 | X-H torsion
[ 10718 10713 10712 10709 ] final  -47.61 input   66.30 | X-H torsion
[ 10763 10752 10751 10750 ] final   -6.73 input  -60.55 | X-H torsion
[ 11005 11000 10999 10996 ] final   80.20 input  -57.11 | X-H torsion

> <Gold.Protein.ActiveResidues>
 VAL166  LYS551  ARG553  GLY616  TRP617  ASP618  TYR619  PRO620  LYS621  CYS622 
 ASP623  PHE694  ASN695  SER759  ASP760  ASP761  ALA762  ILE779  LEU786  VAL792 
 PHE793  MET794  SER795  GLU796  ALA797  LYS798  CYS799  TRP800  GLU811  SER814 

> <Gold.Protein.RotatedAtoms>
  152.1128  133.4310  159.4638 H   0  0  0  0  0  0  0  0  0  0  0  0  # atno 6907 bound_to 6896
  150.6868  134.2628  159.4565 H   0  0  0  0  0  0  0  0  0  0  0  0  # atno 6908 bound_to 6896
  152.0498  134.9660  160.0625 H   0  0  0  0  0  0  0  0  0  0  0  0  # atno 6909 bound_to 6896
  144.7188  140.0058  143.6440 H   0  0  0  0  0  0  0  0  0  0  0  0  # atno 7974 bound_to 7965
  155.5177  140.0589  157.2912 H   0  0  0  0  0  0  0  0  0  0  0  0  # atno 8008 bound_to 7997
  154.4529  140.1958  156.0413 H   0  0  0  0  0  0  0  0  0  0  0  0  # atno 8009 bound_to 7997
  156.0740  140.3256  155.7615 H   0  0  0  0  0  0  0  0  0  0  0  0  # atno 8010 bound_to 7997
  140.0922  143.4689  152.1863 H   0  0  0  0  0  0  0  0  0  0  0  0  # atno 10167 bound_to 10162
  156.2067  130.4158  149.9168 H   0  0  0  0  0  0  0  0  0  0  0  0  # atno 10718 bound_to 10713
  153.4165  135.7009  153.6323 H   0  0  0  0  0  0  0  0  0  0  0  0  # atno 10763 bound_to 10752
  153.4796  135.3696  155.2435 H   0  0  0  0  0  0  0  0  0  0  0  0  # atno 10764 bound_to 10752
  154.8720  135.4063  154.3525 H   0  0  0  0  0  0  0  0  0  0  0  0  # atno 10765 bound_to 10752
  139.9143  134.7902  156.1878 H   0  0  0  0  0  0  0  0  0  0  0  0  # atno 11005 bound_to 11000
  146.0299  139.3325  143.0762 LP  0  0  0  0  0  0  0  0  0  0  0  0  # atno 17320 bound_to 7965
  145.8466  140.9552  143.0771 LP  0  0  0  0  0  0  0  0  0  0  0  0  # atno 17321 bound_to 7965
  139.5718  144.7467  151.3870 LP  0  0  0  0  0  0  0  0  0  0  0  0  # atno 17342 bound_to 10162
  140.7022  143.7602  150.7423 LP  0  0  0  0  0  0  0  0  0  0  0  0  # atno 17343 bound_to 10162
  156.6860  130.8877  151.3582 LP  0  0  0  0  0  0  0  0  0  0  0  0  # atno 17370 bound_to 10713
  157.7016  130.9339  150.0803 LP  0  0  0  0  0  0  0  0  0  0  0  0  # atno 17371 bound_to 10713
  141.0602  133.6845  156.1938 LP  0  0  0  0  0  0  0  0  0  0  0  0  # atno 17394 bound_to 11000
  140.6673  134.4905  157.5586 LP  0  0  0  0  0  0  0  0  0  0  0  0  # atno 17395 bound_to 11000

$$$$
