AV-unprocessed.smi:1421|AV-procd|sdf|5790|dock9
  -GOLD-   22720 5433D 1   1.00000     0.00000
 Structure written by MMmdl.
 45 46  0  0  0  0  0  0  0  0  1 V2000
  146.7910  144.5154  161.3848 C   0  0  0  0  0  0  0  0  0  0  0  0
  145.2153  143.5755  161.2805 S   0  0  0  0  0  0  0  0  0  0  0  0
  145.4966  142.1633  161.5798 O   0  0  0  0  0  0  0  0  0  0  0  0
  144.1769  144.2965  162.0320 O   0  0  0  0  0  0  0  0  0  0  0  0
  144.8210  143.7011  159.6041 N   0  0  0  0  0  0  0  0  0  0  0  0
  145.5997  142.9292  158.6338 C   0  0  0  0  0  0  0  0  0  0  0  0
  147.0658  143.4003  158.6006 C   0  0  0  0  0  0  0  0  0  0  0  0
  148.0385  142.2892  158.1949 C   0  0  0  0  0  0  0  0  0  0  0  0
  147.9926  141.1893  158.7461 O   0  0  0  0  0  0  0  0  0  0  0  0
  148.9054  142.5895  157.2152 N   0  0  0  0  0  0  0  0  0  0  0  0
  149.8801  141.6749  156.6273 C   0  0  0  0  0  0  0  0  0  0  0  0
  151.0552  141.4011  157.5575 C   0  0  0  0  0  0  0  0  0  0  0  0
  151.3814  142.3418  158.5580 C   0  0  0  0  0  0  0  0  0  0  0  0
  152.4749  142.0926  159.4071 C   0  0  0  0  0  0  0  0  0  0  0  0
  153.2053  140.9050  159.2217 C   0  0  0  0  0  0  0  0  0  0  0  0
  152.9064  139.9949  158.2720 N   0  0  0  0  0  0  0  0  0  0  0  0
  151.8536  140.2313  157.4514 C   0  0  0  0  0  0  0  0  0  0  0  0
  151.5540  139.2531  156.4886 N   0  0  0  0  0  0  0  0  0  0  0  0
  152.5254  139.1018  155.4120 C   0  0  0  0  0  0  0  0  0  0  0  0
  151.9776  138.1341  154.3497 C   0  0  0  0  0  0  0  0  0  0  0  0
  151.6563  136.8892  154.9636 O   0  0  0  0  0  0  0  0  0  0  0  0
  150.6555  137.0284  155.9689 C   0  0  0  0  0  0  0  0  0  0  0  0
  151.1508  137.9808  157.0717 C   0  0  0  0  0  0  0  0  0  0  0  0
  147.1477  144.5110  162.4145 H   0  0  0  0  0  0  0  0  0  0  0  0
  146.6258  145.5435  161.0642 H   0  0  0  0  0  0  0  0  0  0  0  0
  147.5373  144.0494  160.7417 H   0  0  0  0  0  0  0  0  0  0  0  0
  143.8215  143.5610  159.4573 H   0  0  0  0  0  0  0  0  0  0  0  0
  145.5315  141.8677  158.8764 H   0  0  0  0  0  0  0  0  0  0  0  0
  145.1421  143.0608  157.6528 H   0  0  0  0  0  0  0  0  0  0  0  0
  147.1753  144.2216  157.8916 H   0  0  0  0  0  0  0  0  0  0  0  0
  147.3589  143.7902  159.5754 H   0  0  0  0  0  0  0  0  0  0  0  0
  148.8700  143.5207  156.8265 H   0  0  0  0  0  0  0  0  0  0  0  0
  149.3659  140.7409  156.3997 H   0  0  0  0  0  0  0  0  0  0  0  0
  150.2629  142.0424  155.6743 H   0  0  0  0  0  0  0  0  0  0  0  0
  150.8042  143.2473  158.6744 H   0  0  0  0  0  0  0  0  0  0  0  0
  152.7479  142.7956  160.1801 H   0  0  0  0  0  0  0  0  0  0  0  0
  154.0519  140.6788  159.8531 H   0  0  0  0  0  0  0  0  0  0  0  0
  152.7326  140.0740  154.9635 H   0  0  0  0  0  0  0  0  0  0  0  0
  153.4661  138.7180  155.8096 H   0  0  0  0  0  0  0  0  0  0  0  0
  151.0955  138.5506  153.8602 H   0  0  0  0  0  0  0  0  0  0  0  0
  152.7240  137.9656  153.5735 H   0  0  0  0  0  0  0  0  0  0  0  0
  149.7298  137.3950  155.5236 H   0  0  0  0  0  0  0  0  0  0  0  0
  150.4369  136.0475  156.3908 H   0  0  0  0  0  0  0  0  0  0  0  0
  151.9999  137.5381  157.5940 H   0  0  0  0  0  0  0  0  0  0  0  0
  150.3643  138.1383  157.8106 H   0  0  0  0  0  0  0  0  0  0  0  0
  1  2  1  0  0  0  0
  1 24  1  0  0  0  0
  1 25  1  0  0  0  0
  1 26  1  0  0  0  0
  2  3  2  0  0  0  0
  2  4  2  0  0  0  0
  2  5  1  0  0  0  0
  5  6  1  0  0  0  0
  5 27  1  0  0  0  0
  6  7  1  0  0  0  0
  6 28  1  0  0  0  0
  6 29  1  0  0  0  0
  7  8  1  0  0  0  0
  7 30  1  0  0  0  0
  7 31  1  0  0  0  0
  8  9  2  0  0  0  0
  8 10  1  0  0  0  0
 10 11  1  0  0  0  0
 10 32  1  0  0  0  0
 11 12  1  0  0  0  0
 11 33  1  0  0  0  0
 11 34  1  0  0  0  0
 12 17  1  0  0  0  0
 12 13  2  0  0  0  0
 13 14  1  0  0  0  0
 13 35  1  0  0  0  0
 14 15  2  0  0  0  0
 14 36  1  0  0  0  0
 15 16  1  0  0  0  0
 15 37  1  0  0  0  0
 16 17  2  0  0  0  0
 17 18  1  0  0  0  0
 18 23  1  0  0  0  0
 18 19  1  0  0  0  0
 19 20  1  0  0  0  0
 19 38  1  0  0  0  0
 19 39  1  0  0  0  0
 20 21  1  0  0  0  0
 20 40  1  0  0  0  0
 20 41  1  0  0  0  0
 21 22  1  0  0  0  0
 22 23  1  0  0  0  0
 22 42  1  0  0  0  0
 22 43  1  0  0  0  0
 23 44  1  0  0  0  0
 23 45  1  0  0  0  0
M  END
> <s_m_source_file>
AV-unprocessed.smi

> <i_m_source_file_index>
1421

> <i_lp_mmshare_version>
43012

> <i_f3d_flags>
0

> <s_epik_input>
W0NIM11TKD1PKSg9TylbTkhdW0NIMl1bQ0gyXUMoPU8pW05IXVtDSDJdYzFbY0hdW2NIXVtjSF1uYzFOMltDSDJdW0NIMl1PW0NIMl1bQ0gyXTI=

> <s_epik_cmdline>
J2VwaWtfcHl0aG9uJywgJy1waCcsICc3LjAnLCAnLXRuJywgJzgnLCAnLW1hJywgJzIwMCcsICctbWV0YWxfYmluZGluZycsICctaW1hZScsICc8aW5maWxlLm1hZT4nLCAnLW9tYWUnLCAnPG91dGZpbGUubWFlPic=

> <r_lp_tautomer_probability>
1

> <r_epik_Ionization_Penalty>
0.00479902

> <r_epik_Ionization_Penalty_Charging>
0

> <r_epik_Ionization_Penalty_Neutral>
0.00479902

> <r_epik_State_Penalty>
0.00346804

> <r_epik_Charging_Adjusted_Penalty>
0.00346804

> <i_epik_Tot_Q>
0

> <i_epik_Tot_abs_Q>
0

> <r_epik_Metal_State_Penalty>
0.0135183

> <b_epik_Metal_Only>
0

> <s_lp_Force_Field>
OPLS_2005

> <r_lp_Energy>
16.2215

> <b_lp_Chiralities_Consistent>
1

> <s_lp_Variant>
AV-unprocessed.smi:1421-1

> <Gold.Version>
5.8.1

> <Gold.Id.Protein>
6NUR|6NUR_protein|mol2

> <Gold.PLP.Fitness>
43.9627

> <Gold.PLP.PLP>
-34.6305

> <Gold.PLP.part.hbond>
-6.0124

> <Gold.PLP.part.metal>
0.0000

> <Gold.PLP.part.buried>
-4.8032

> <Gold.PLP.part.nonpolar>
-24.0088

> <Gold.PLP.part.repulsive>
0.5830

> <Gold.PLP.ligand.clash>
0.0000

> <Gold.PLP.ligand.torsion>
1.0018

> <Gold.PLP.Chemscore.Hbond>
3.6880

> <Gold.PLP.Chemscore.CHOScore>
0.0000

> <Gold.PLP.Chemscore.Metal>
0.0000

> <Gold.Chemscore.Hbonds>
donor molecule, donor type, donor heavy atom, donor atom, acceptor molecule, acceptor atom, score
      L1  H    10    32       P1  8028  1.00
      P1  H  6934  6946       L1     3  0.65
      P1  H  7997  8008       L1    16  0.86
      P1  H 10752 10764       L1    21  0.98

> <Gold.PLP.Chemscore.Internal.Correction>
0.2718

> <Gold.Rescore>
     Score         DG    S(hbond)    S(metal)    S(lipo)     H(rot)  DE(clash)    DE(int)     intcor
     14.35     -16.08       2.80        0.00      74.14       2.90       0.68       1.06       ----

> <Gold.Chemscore.Fitness>
14.3481

> <Gold.Chemscore.DG>
-16.0834

> <Gold.Chemscore.ZeroCoef>
-5.4800

> <Gold.Chemscore.Hbond>
2.8015

> <Gold.Chemscore.Metal>
0.0000

> <Gold.Chemscore.Lipo>
74.1399

> <Gold.Chemscore.Internal_Hbond>
0.0000

> <Gold.Chemscore.DEClash>
0.6799

> <Gold.Chemscore.DEInternal>
1.0554

> <Gold.Chemscore.Rot>
2.9015

> <Gold.Chemscore.Internal.Correction>
   9.000000E+99

> <Gold.Chemscore.Hbonds>
donor molecule, donor type, donor heavy atom, donor atom, acceptor molecule, acceptor atom, score
      L1  H    10    32       P1  8028  0.65
      P1  H  6934  6946       L1     3  0.63
      P1  H  7997  8008       L1    16  0.15
      P1  H 10752 10764       L1    21  0.47

> <Gold.Chemscore.Hbond.Weighted>
-9.3569

> <Gold.Chemscore.Metal.Weighted>
-0.0000

> <Gold.Chemscore.Lipo.Weighted>
-8.6744

> <Gold.Chemscore.Internal_Hbond.Weighted>
0.0000

> <Gold.Chemscore.DEClash.Weighted>
0.6799

> <Gold.Chemscore.DEInternal.Weighted>
1.0554

> <Gold.Chemscore.Rot.Weighted>
7.4278

> <Gold.Chemscore.Internal.Correction.Weighted>
   9.000000E+99

> <Gold.Protein.RotatedTorsions>
[ 6907 6896 6895 6894 ] final  -52.59 input  -60.11 | X-H torsion
[ 7974 7965 7964 7962 ] final   37.21 input  175.53 | X-H torsion
[ 8008 7997 7996 7995 ] final  -81.81 input   59.86 | X-H torsion
[ 10167 10162 10161 10158 ] final -105.58 input  -65.29 | X-H torsion
[ 10718 10713 10712 10709 ] final  -64.30 input   66.30 | X-H torsion
[ 10763 10752 10751 10750 ] final  -79.62 input  -60.55 | X-H torsion
[ 11005 11000 10999 10996 ] final  -71.18 input  -57.11 | X-H torsion

> <Gold.Protein.ActiveResidues>
 VAL166  LYS551  ARG553  GLY616  TRP617  ASP618  TYR619  PRO620  LYS621  CYS622 
 ASP623  PHE694  ASN695  SER759  ASP760  ASP761  ALA762  ILE779  LEU786  VAL792 
 PHE793  MET794  SER795  GLU796  ALA797  LYS798  CYS799  TRP800  GLU811  SER814 

> <Gold.Protein.RotatedAtoms>
  150.8504  134.7826  159.7003 H   0  0  0  0  0  0  0  0  0  0  0  0  # atno 6907 bound_to 6896
  152.4570  134.5267  159.9808 H   0  0  0  0  0  0  0  0  0  0  0  0  # atno 6908 bound_to 6896
  151.5389  133.3398  159.2967 H   0  0  0  0  0  0  0  0  0  0  0  0  # atno 6909 bound_to 6896
  146.1154  139.5921  142.9325 H   0  0  0  0  0  0  0  0  0  0  0  0  # atno 7974 bound_to 7965
  154.6021  140.0642  156.9382 H   0  0  0  0  0  0  0  0  0  0  0  0  # atno 8008 bound_to 7997
  155.2114  140.3323  155.4310 H   0  0  0  0  0  0  0  0  0  0  0  0  # atno 8009 bound_to 7997
  156.2325  140.1847  156.7190 H   0  0  0  0  0  0  0  0  0  0  0  0  # atno 8010 bound_to 7997
  140.1969  143.3848  152.1161 H   0  0  0  0  0  0  0  0  0  0  0  0  # atno 10167 bound_to 10162
  156.0738  130.4231  150.1400 H   0  0  0  0  0  0  0  0  0  0  0  0  # atno 10718 bound_to 10713
  154.5409  135.5689  153.6838 H   0  0  0  0  0  0  0  0  0  0  0  0  # atno 10763 bound_to 10752
  152.9963  135.6227  154.2503 H   0  0  0  0  0  0  0  0  0  0  0  0  # atno 10764 bound_to 10752
  154.2434  135.2861  155.2824 H   0  0  0  0  0  0  0  0  0  0  0  0  # atno 10765 bound_to 10752
  141.1588  133.6810  156.6866 H   0  0  0  0  0  0  0  0  0  0  0  0  # atno 11005 bound_to 11000
  145.5577  141.0407  143.2243 LP  0  0  0  0  0  0  0  0  0  0  0  0  # atno 17320 bound_to 7965
  144.7548  139.7101  143.7258 LP  0  0  0  0  0  0  0  0  0  0  0  0  # atno 17321 bound_to 7965
  139.5233  144.7069  151.5326 LP  0  0  0  0  0  0  0  0  0  0  0  0  # atno 17342 bound_to 10162
  140.6417  143.8876  150.6698 LP  0  0  0  0  0  0  0  0  0  0  0  0  # atno 17343 bound_to 10162
  156.9445  130.9755  151.3510 LP  0  0  0  0  0  0  0  0  0  0  0  0  # atno 17370 bound_to 10713
  157.5823  130.8385  149.8539 LP  0  0  0  0  0  0  0  0  0  0  0  0  # atno 17371 bound_to 10713
  140.3062  134.8124  157.4138 LP  0  0  0  0  0  0  0  0  0  0  0  0  # atno 17394 bound_to 11000
  140.1219  134.5209  155.8177 LP  0  0  0  0  0  0  0  0  0  0  0  0  # atno 17395 bound_to 11000

$$$$
