AV-unprocessed.smi:299|AV-procd|sdf|2266|dock6
  -GOLD-   2262022153D 1   1.00000     0.00000
 Structure written by MMmdl.
 42 43  0  0  0  0  0  0  0  0  2 V2000
  145.1625  134.7660  151.3258 C   0  0  0  0  0  0  0  0  0  0  0  0
  144.2040  133.8097  152.0688 C   0  0  1  0  0  0  0  0  0  0  0  0
  143.3833  132.9323  151.1005 C   0  0  0  0  0  0  0  0  0  0  0  0
  144.2397  131.8364  150.4496 C   0  0  0  0  0  0  0  0  0  0  0  0
  144.9454  131.0089  151.5306 C   0  0  0  0  0  0  0  0  0  0  0  0
  145.7508  131.9068  152.4843 C   0  0  0  0  0  0  0  0  0  0  0  0
  144.8875  132.9588  153.0889 N   0  3  1  0  0  0  0  0  0  0  0  0
  145.5590  133.7392  154.1604 C   0  0  0  0  0  0  0  0  0  0  0  0
  146.9721  134.1983  153.7543 C   0  0  0  0  0  0  0  0  0  0  0  0
  147.8290  134.6742  154.9428 C   0  0  0  0  0  0  0  0  0  0  0  0
  148.7804  135.7188  154.5766 N   0  0  0  0  0  0  0  0  0  0  0  0
  149.7431  136.2048  155.3760 C   0  0  0  0  0  0  0  0  0  0  0  0
  149.9501  135.7920  156.5165 O   0  0  0  0  0  0  0  0  0  0  0  0
  150.6072  137.3275  154.8016 C   0  0  0  0  0  0  0  0  0  0  0  0
  151.6565  137.7028  155.7301 N   0  0  0  0  0  0  0  0  0  0  0  0
  152.0905  138.9016  156.1254 C   0  0  0  0  0  0  0  0  0  0  0  0
  153.0908  138.7990  156.9870 N   0  0  0  0  0  0  0  0  0  0  0  0
  153.2611  137.4299  157.1108 N   0  0  0  0  0  0  0  0  0  0  0  0
  152.4129  136.7742  156.3671 N   0  0  0  0  0  0  0  0  0  0  0  0
  144.6151  135.3754  150.6064 H   0  0  0  0  0  0  0  0  0  0  0  0
  145.9364  134.2336  150.7738 H   0  0  0  0  0  0  0  0  0  0  0  0
  145.6582  135.4547  152.0096 H   0  0  0  0  0  0  0  0  0  0  0  0
  143.4877  134.4342  152.6044 H   0  0  0  0  0  0  0  0  0  0  0  0
  142.5644  132.4639  151.6484 H   0  0  0  0  0  0  0  0  0  0  0  0
  142.9171  133.5495  150.3316 H   0  0  0  0  0  0  0  0  0  0  0  0
  143.6158  131.1910  149.8307 H   0  0  0  0  0  0  0  0  0  0  0  0
  144.9779  132.2824  149.7827 H   0  0  0  0  0  0  0  0  0  0  0  0
  144.2054  130.4439  152.0990 H   0  0  0  0  0  0  0  0  0  0  0  0
  145.6037  130.2742  151.0658 H   0  0  0  0  0  0  0  0  0  0  0  0
  146.1838  131.2812  153.2637 H   0  0  0  0  0  0  0  0  0  0  0  0
  146.5889  132.3641  151.9581 H   0  0  0  0  0  0  0  0  0  0  0  0
  144.9375  134.5911  154.4403 H   0  0  0  0  0  0  0  0  0  0  0  0
  145.6525  133.1165  155.0511 H   0  0  0  0  0  0  0  0  0  0  0  0
  147.4894  133.3726  153.2647 H   0  0  0  0  0  0  0  0  0  0  0  0
  146.9149  134.9962  153.0145 H   0  0  0  0  0  0  0  0  0  0  0  0
  147.1835  135.0663  155.7290 H   0  0  0  0  0  0  0  0  0  0  0  0
  148.3651  133.8306  155.3805 H   0  0  0  0  0  0  0  0  0  0  0  0
  148.6787  136.1269  153.6582 H   0  0  0  0  0  0  0  0  0  0  0  0
  151.0670  137.0049  153.8666 H   0  0  0  0  0  0  0  0  0  0  0  0
  149.9914  138.1993  154.5742 H   0  0  0  0  0  0  0  0  0  0  0  0
  151.6802  139.8396  155.7817 H   0  0  0  0  0  0  0  0  0  0  0  0
  144.1387  132.4630  153.5514 H   0  0  0  0  0  0  0  0  0  0  0  0
  1  2  1  0  0  0  0
  1 20  1  0  0  0  0
  1 21  1  0  0  0  0
  1 22  1  0  0  0  0
  2  7  1  0  0  0  0
  2  3  1  0  0  0  0
  2 23  1  0  0  0  0
  3  4  1  0  0  0  0
  3 24  1  0  0  0  0
  3 25  1  0  0  0  0
  4  5  1  0  0  0  0
  4 26  1  0  0  0  0
  4 27  1  0  0  0  0
  5  6  1  0  0  0  0
  5 28  1  0  0  0  0
  5 29  1  0  0  0  0
  6  7  1  0  0  0  0
  6 30  1  0  0  0  0
  6 31  1  0  0  0  0
  7  8  1  0  0  0  0
  7 42  1  0  0  0  0
  8  9  1  0  0  0  0
  8 32  1  0  0  0  0
  8 33  1  0  0  0  0
  9 10  1  0  0  0  0
  9 34  1  0  0  0  0
  9 35  1  0  0  0  0
 10 11  1  0  0  0  0
 10 36  1  0  0  0  0
 10 37  1  0  0  0  0
 11 12  1  0  0  0  0
 11 38  1  0  0  0  0
 12 13  2  0  0  0  0
 12 14  1  0  0  0  0
 14 15  1  0  0  0  0
 14 39  1  0  0  0  0
 14 40  1  0  0  0  0
 15 19  1  0  0  0  0
 15 16  1  0  0  0  0
 16 17  2  0  0  0  0
 16 41  1  0  0  0  0
 17 18  1  0  0  0  0
 18 19  2  0  0  0  0
M  CHG  1   7   1
M  END
> <s_m_source_file>
AV-unprocessed.smi

> <i_m_source_file_index>
299

> <i_lp_mmshare_version>
43012

> <i_f3d_flags>
0

> <s_epik_input>
W0NIM11bQ0BASF0xW0NIMl1bQ0gyXVtDSDJdW0NIMl1OMVtDSDJdW0NIMl1bQ0gyXVtOSF1DKD1PKVtDSDJdbjJbY0hdbm5uMg==

> <s_epik_cmdline>
J2VwaWtfcHl0aG9uJywgJy1waCcsICc3LjAnLCAnLXRuJywgJzgnLCAnLW1hJywgJzIwMCcsICctbWV0YWxfYmluZGluZycsICctaW1hZScsICc8aW5maWxlLm1hZT4nLCAnLW9tYWUnLCAnPG91dGZpbGUubWFlPic=

> <r_lp_tautomer_probability>
1

> <r_epik_Ionization_Penalty>
0.000544863

> <r_epik_Ionization_Penalty_Charging>
0.000543475

> <r_epik_Ionization_Penalty_Neutral>
1.38784e-06

> <r_epik_State_Penalty>
0.000340025

> <r_epik_Charging_Adjusted_Penalty>
0.0008835

> <i_epik_Tot_Q>
1

> <i_epik_Tot_abs_Q>
1

> <r_epik_Metal_State_Penalty>
-0

> <b_epik_Metal_Only>
0

> <s_lp_Force_Field>
OPLS_2005

> <r_lp_Energy>
24.6376

> <b_lp_Chiralities_Consistent>
1

> <s_lp_Variant>
AV-unprocessed.smi:299-2

> <Gold.Version>
5.8.1

> <Gold.Id.Protein>
6NUR|6NUR_protein|mol2

> <Gold.PLP.Fitness>
42.2310

> <Gold.PLP.PLP>
-28.5887

> <Gold.PLP.part.hbond>
-4.2895

> <Gold.PLP.part.metal>
0.0000

> <Gold.PLP.part.buried>
-4.9022

> <Gold.PLP.part.nonpolar>
-22.2319

> <Gold.PLP.part.repulsive>
0.0208

> <Gold.PLP.ligand.clash>
0.0000

> <Gold.PLP.ligand.torsion>
0.6522

> <Gold.PLP.Chemscore.Hbond>
4.9585

> <Gold.PLP.Chemscore.CHOScore>
0.0000

> <Gold.PLP.Chemscore.Metal>
0.0000

> <Gold.Chemscore.Hbonds>
donor molecule, donor type, donor heavy atom, donor atom, acceptor molecule, acceptor atom, score
      L1  H     7    42       P1 10957  2.00
      L1  H    11    38       P1  7948  1.00
      P1  H  7997  8008       L1    17  1.00
      P1  H 10752 10763       L1    19  1.00

> <Gold.PLP.Chemscore.Internal.Correction>
0.0713

> <Gold.Rescore>
     Score         DG    S(hbond)    S(metal)    S(lipo)     H(rot)  DE(clash)    DE(int)     intcor
     13.59     -15.60       3.42        0.00      53.84       2.97       0.01       2.00       ----

> <Gold.Chemscore.Fitness>
13.5881

> <Gold.Chemscore.DG>
-15.6006

> <Gold.Chemscore.ZeroCoef>
-5.4800

> <Gold.Chemscore.Hbond>
3.4191

> <Gold.Chemscore.Metal>
0.0000

> <Gold.Chemscore.Lipo>
53.8364

> <Gold.Chemscore.Internal_Hbond>
0.0000

> <Gold.Chemscore.DEClash>
0.0126

> <Gold.Chemscore.DEInternal>
1.9998

> <Gold.Chemscore.Rot>
2.9680

> <Gold.Chemscore.Internal.Correction>
   9.000000E+99

> <Gold.Chemscore.Hbonds>
donor molecule, donor type, donor heavy atom, donor atom, acceptor molecule, acceptor atom, score
      L1  H     7    42       P1 10957  0.24
      L1  H    11    38       P1  7948  0.98
      P1  H  7997  8008       L1    17  0.65
      P1  H 10752 10763       L1    19  0.66

> <Gold.Chemscore.Hbond.Weighted>
-11.4197

> <Gold.Chemscore.Metal.Weighted>
-0.0000

> <Gold.Chemscore.Lipo.Weighted>
-6.2989

> <Gold.Chemscore.Internal_Hbond.Weighted>
0.0000

> <Gold.Chemscore.DEClash.Weighted>
0.0126

> <Gold.Chemscore.DEInternal.Weighted>
1.9998

> <Gold.Chemscore.Rot.Weighted>
7.5980

> <Gold.Chemscore.Internal.Correction.Weighted>
   9.000000E+99

> <Gold.Protein.RotatedTorsions>
[ 6907 6896 6895 6894 ] final  -46.11 input  -60.11 | X-H torsion
[ 7974 7965 7964 7962 ] final  150.11 input  175.53 | X-H torsion
[ 8008 7997 7996 7995 ] final  -54.01 input   59.86 | X-H torsion
[ 10167 10162 10161 10158 ] final  122.21 input  -65.29 | X-H torsion
[ 10718 10713 10712 10709 ] final   42.61 input   66.30 | X-H torsion
[ 10763 10752 10751 10750 ] final   89.48 input  -60.55 | X-H torsion
[ 11005 11000 10999 10996 ] final  171.72 input  -57.11 | X-H torsion

> <Gold.Protein.ActiveResidues>
 VAL166  LYS551  ARG553  GLY616  TRP617  ASP618  TYR619  PRO620  LYS621  CYS622 
 ASP623  PHE694  ASN695  SER759  ASP760  ASP761  ALA762  ILE779  LEU786  VAL792 
 PHE793  MET794  SER795  GLU796  ALA797  LYS798  CYS799  TRP800  GLU811  SER814 

> <Gold.Protein.RotatedAtoms>
  150.9147  134.8564  159.7448 H   0  0  0  0  0  0  0  0  0  0  0  0  # atno 6907 bound_to 6896
  152.4962  134.4307  159.9521 H   0  0  0  0  0  0  0  0  0  0  0  0  # atno 6908 bound_to 6896
  151.4346  133.3621  159.2808 H   0  0  0  0  0  0  0  0  0  0  0  0  # atno 6909 bound_to 6896
  144.8388  139.6366  143.6026 H   0  0  0  0  0  0  0  0  0  0  0  0  # atno 7974 bound_to 7965
  154.4150  140.1186  156.5246 H   0  0  0  0  0  0  0  0  0  0  0  0  # atno 8008 bound_to 7997
  155.6667  140.3496  155.4784 H   0  0  0  0  0  0  0  0  0  0  0  0  # atno 8009 bound_to 7997
  155.9667  140.1133  157.0838 H   0  0  0  0  0  0  0  0  0  0  0  0  # atno 8010 bound_to 7997
  139.5872  144.7011  151.3379 H   0  0  0  0  0  0  0  0  0  0  0  0  # atno 10167 bound_to 10162
  157.4067  130.7891  149.7395 H   0  0  0  0  0  0  0  0  0  0  0  0  # atno 10718 bound_to 10713
  153.1876  135.4468  155.0108 H   0  0  0  0  0  0  0  0  0  0  0  0  # atno 10763 bound_to 10752
  154.8070  135.3278  154.7408 H   0  0  0  0  0  0  0  0  0  0  0  0  # atno 10764 bound_to 10752
  153.7865  135.6973  153.4934 H   0  0  0  0  0  0  0  0  0  0  0  0  # atno 10765 bound_to 10752
  140.3221  134.7429  157.4071 H   0  0  0  0  0  0  0  0  0  0  0  0  # atno 11005 bound_to 11000
  146.2683  139.6574  142.9313 LP  0  0  0  0  0  0  0  0  0  0  0  0  # atno 17320 bound_to 7965
  145.4738  141.0436  143.2684 LP  0  0  0  0  0  0  0  0  0  0  0  0  # atno 17321 bound_to 7965
  140.7142  143.7310  150.7623 LP  0  0  0  0  0  0  0  0  0  0  0  0  # atno 17342 bound_to 10162
  140.0858  143.4925  152.2506 LP  0  0  0  0  0  0  0  0  0  0  0  0  # atno 17343 bound_to 10162
  155.9838  130.3997  150.3342 LP  0  0  0  0  0  0  0  0  0  0  0  0  # atno 17370 bound_to 10713
  157.1476  131.0312  151.2900 LP  0  0  0  0  0  0  0  0  0  0  0  0  # atno 17371 bound_to 10713
  140.0933  134.5571  155.8423 LP  0  0  0  0  0  0  0  0  0  0  0  0  # atno 17394 bound_to 11000
  141.2084  133.6673  156.6369 LP  0  0  0  0  0  0  0  0  0  0  0  0  # atno 17395 bound_to 11000

$$$$
