AV-unprocessed.smi:738|AV-procd|sdf|3540|dock1
  -GOLD-   22720 0533D 1   1.00000     0.00000
 Structure written by MMmdl.
 35 37  0  0  0  0  0  0  0  0  1 V2000
  152.1149  144.7129  161.6568 N   0  0  0  0  0  0  0  0  0  0  0  0
  151.8446  145.0390  160.3892 C   0  0  0  0  0  0  0  0  0  0  0  0
  151.7704  146.2064  160.0105 O   0  0  0  0  0  0  0  0  0  0  0  0
  151.5663  143.8971  159.4550 C   0  0  0  0  0  0  0  0  0  0  0  0
  150.8581  144.1097  158.2520 C   0  0  0  0  0  0  0  0  0  0  0  0
  150.5921  143.1319  157.3604 N   0  0  0  0  0  0  0  0  0  0  0  0
  151.0354  141.8788  157.6221 C   0  0  0  0  0  0  0  0  0  0  0  0
  150.7493  140.8704  156.6868 N   0  0  0  0  0  0  0  0  0  0  0  0
  151.9517  140.2378  156.1426 C   0  0  0  0  0  0  0  0  0  0  0  0
  151.5890  139.1017  155.1546 C   0  0  0  0  0  0  0  0  0  0  0  0
  150.6835  139.5636  154.1468 O   0  0  0  0  0  0  0  0  0  0  0  0
  149.5047  140.0770  154.7517 C   0  0  2  0  0  0  0  0  0  0  0  0
  148.4469  140.6472  153.8107 C   0  0  0  0  0  0  0  0  0  0  0  0
  147.6675  141.6496  154.6891 C   0  0  0  0  0  0  0  0  0  0  0  0
  148.5070  141.8616  155.9662 C   0  0  0  0  0  0  0  0  0  0  0  0
  149.8757  141.2859  155.5973 C   0  0  1  0  0  0  0  0  0  0  0  0
  151.7645  141.5639  158.7924 C   0  0  0  0  0  0  0  0  0  0  0  0
  152.3215  139.9577  159.1066 Cl  0  0  0  0  0  0  0  0  0  0  0  0
  152.0355  142.5905  159.7176 C   0  0  0  0  0  0  0  0  0  0  0  0
  152.3042  145.4411  162.3303 H   0  0  0  0  0  0  0  0  0  0  0  0
  152.1241  143.7441  161.9400 H   0  0  0  0  0  0  0  0  0  0  0  0
  150.4858  145.0901  157.9928 H   0  0  0  0  0  0  0  0  0  0  0  0
  152.5561  140.9845  155.6253 H   0  0  0  0  0  0  0  0  0  0  0  0
  152.5606  139.8437  156.9573 H   0  0  0  0  0  0  0  0  0  0  0  0
  152.4905  138.7225  154.6735 H   0  0  0  0  0  0  0  0  0  0  0  0
  151.1432  138.2615  155.6894 H   0  0  0  0  0  0  0  0  0  0  0  0
  149.0404  139.3051  155.3704 H   0  0  0  0  0  0  0  0  0  0  0  0
  148.9282  141.1757  152.9867 H   0  0  0  0  0  0  0  0  0  0  0  0
  147.8086  139.8734  153.3835 H   0  0  0  0  0  0  0  0  0  0  0  0
  147.5224  142.5885  154.1535 H   0  0  0  0  0  0  0  0  0  0  0  0
  146.6798  141.2648  154.9446 H   0  0  0  0  0  0  0  0  0  0  0  0
  148.5601  142.9089  156.2648 H   0  0  0  0  0  0  0  0  0  0  0  0
  148.0700  141.2990  156.7928 H   0  0  0  0  0  0  0  0  0  0  0  0
  150.4039  142.0082  154.9713 H   0  0  0  0  0  0  0  0  0  0  0  0
  152.5991  142.3683  160.6119 H   0  0  0  0  0  0  0  0  0  0  0  0
  1  2  1  0  0  0  0
  1 20  1  0  0  0  0
  1 21  1  0  0  0  0
  2  3  2  0  0  0  0
  2  4  1  0  0  0  0
  4 19  1  0  0  0  0
  4  5  2  0  0  0  0
  5  6  1  0  0  0  0
  5 22  1  0  0  0  0
  6  7  2  0  0  0  0
  7  8  1  0  0  0  0
  7 17  1  0  0  0  0
  8 16  1  0  0  0  0
  8  9  1  0  0  0  0
  9 10  1  0  0  0  0
  9 23  1  0  0  0  0
  9 24  1  0  0  0  0
 10 11  1  0  0  0  0
 10 25  1  0  0  0  0
 10 26  1  0  0  0  0
 11 12  1  0  0  0  0
 12 16  1  0  0  0  0
 12 13  1  0  0  0  0
 12 27  1  0  0  0  0
 13 14  1  0  0  0  0
 13 28  1  0  0  0  0
 13 29  1  0  0  0  0
 14 15  1  0  0  0  0
 14 30  1  0  0  0  0
 14 31  1  0  0  0  0
 15 16  1  0  0  0  0
 15 32  1  0  0  0  0
 15 33  1  0  0  0  0
 16 34  1  0  0  0  0
 17 18  1  0  0  0  0
 17 19  2  0  0  0  0
 19 35  1  0  0  0  0
M  END
> <s_m_source_file>
AV-unprocessed.smi

> <i_m_source_file_index>
738

> <i_lp_mmshare_version>
43012

> <i_f3d_flags>
0

> <s_epik_input>
W05IMl1DKD1PKWMxW2NIXW5jKGMoQ2wpW2NIXTEpTihbQ0gyXVtDSDJdTzIpW0NASF0oW0NASF0yMylbQ0gyXVtDSDJdW0NIMl0z

> <s_epik_cmdline>
J2VwaWtfcHl0aG9uJywgJy1waCcsICc3LjAnLCAnLXRuJywgJzgnLCAnLW1hJywgJzIwMCcsICctbWV0YWxfYmluZGluZycsICctaW1hZScsICc8aW5maWxlLm1hZT4nLCAnLW9tYWUnLCAnPG91dGZpbGUubWFlPic=

> <r_lp_tautomer_probability>
1

> <r_epik_Ionization_Penalty>
6.75978e-06

> <r_epik_Ionization_Penalty_Charging>
0

> <r_epik_Ionization_Penalty_Neutral>
6.75978e-06

> <r_epik_State_Penalty>
-0

> <r_epik_Charging_Adjusted_Penalty>
0

> <i_epik_Tot_Q>
0

> <i_epik_Tot_abs_Q>
0

> <r_epik_Metal_State_Penalty>
-0

> <b_epik_Metal_Only>
0

> <s_lp_Force_Field>
OPLS_2005

> <r_lp_Energy>
40.6009

> <b_lp_Chiralities_Consistent>
1

> <s_lp_Variant>
AV-unprocessed.smi:738-3

> <Gold.Version>
5.8.1

> <Gold.Id.Protein>
6NUR|6NUR_protein|mol2

> <Gold.PLP.Fitness>
40.8775

> <Gold.PLP.PLP>
-37.3082

> <Gold.PLP.part.hbond>
-3.7270

> <Gold.PLP.part.metal>
0.0000

> <Gold.PLP.part.buried>
-2.1128

> <Gold.PLP.part.nonpolar>
-34.0678

> <Gold.PLP.part.repulsive>
2.2268

> <Gold.PLP.ligand.clash>
0.0000

> <Gold.PLP.ligand.torsion>
0.2212

> <Gold.PLP.Chemscore.Hbond>
1.0000

> <Gold.PLP.Chemscore.CHOScore>
0.3211

> <Gold.PLP.Chemscore.Metal>
0.0000

> <Gold.Chemscore.Hbonds>
donor molecule, donor type, donor heavy atom, donor atom, acceptor molecule, acceptor atom, score
      P1  H  7989  7998       L1    11  1.00
      L1  C     5    22       P1  8028  0.10
      L1  C     5    22       P1  8029  0.20

> <Gold.PLP.Chemscore.Internal.Correction>
0.0484

> <Gold.Rescore>
     Score         DG    S(hbond)    S(metal)    S(lipo)     H(rot)  DE(clash)    DE(int)     intcor
     11.38     -14.04       0.27        0.00      87.42       1.00       0.40       2.27       ----

> <Gold.Chemscore.Fitness>
11.3795

> <Gold.Chemscore.DG>
-14.0437

> <Gold.Chemscore.ZeroCoef>
-5.4800

> <Gold.Chemscore.Hbond>
0.2683

> <Gold.Chemscore.Metal>
0.0000

> <Gold.Chemscore.Lipo>
87.4154

> <Gold.Chemscore.Internal_Hbond>
0.0000

> <Gold.Chemscore.DEClash>
0.3958

> <Gold.Chemscore.DEInternal>
2.2684

> <Gold.Chemscore.Rot>
1.0000

> <Gold.Chemscore.Internal.Correction>
   9.000000E+99

> <Gold.Chemscore.Hbonds>
donor molecule, donor type, donor heavy atom, donor atom, acceptor molecule, acceptor atom, score
      P1  H  7989  7998       L1    11  0.19

> <Gold.Chemscore.Hbond.Weighted>
-0.8961

> <Gold.Chemscore.Metal.Weighted>
-0.0000

> <Gold.Chemscore.Lipo.Weighted>
-10.2276

> <Gold.Chemscore.Internal_Hbond.Weighted>
0.0000

> <Gold.Chemscore.DEClash.Weighted>
0.3958

> <Gold.Chemscore.DEInternal.Weighted>
2.2684

> <Gold.Chemscore.Rot.Weighted>
2.5600

> <Gold.Chemscore.Internal.Correction.Weighted>
   9.000000E+99

> <Gold.Protein.RotatedTorsions>
[ 6907 6896 6895 6894 ] final   47.44 input  -60.11 | X-H torsion
[ 7974 7965 7964 7962 ] final  -96.49 input  175.53 | X-H torsion
[ 8008 7997 7996 7995 ] final   92.92 input   59.86 | X-H torsion
[ 10167 10162 10161 10158 ] final   48.19 input  -65.29 | X-H torsion
[ 10718 10713 10712 10709 ] final  141.54 input   66.30 | X-H torsion
[ 10763 10752 10751 10750 ] final  130.87 input  -60.55 | X-H torsion
[ 11005 11000 10999 10996 ] final  -69.55 input  -57.11 | X-H torsion

> <Gold.Protein.ActiveResidues>
 VAL166  LYS551  ARG553  GLY616  TRP617  ASP618  TYR619  PRO620  LYS621  CYS622 
 ASP623  PHE694  ASN695  SER759  ASP760  ASP761  ALA762  ILE779  LEU786  VAL792 
 PHE793  MET794  SER795  GLU796  ALA797  LYS798  CYS799  TRP800  GLU811  SER814 

> <Gold.Protein.RotatedAtoms>
  152.2680  134.7963  160.0418 H   0  0  0  0  0  0  0  0  0  0  0  0  # atno 6907 bound_to 6896
  151.8585  133.3447  159.3704 H   0  0  0  0  0  0  0  0  0  0  0  0  # atno 6908 bound_to 6896
  150.7141  134.5157  159.5673 H   0  0  0  0  0  0  0  0  0  0  0  0  # atno 6909 bound_to 6896
  145.3461  140.9468  143.2580 H   0  0  0  0  0  0  0  0  0  0  0  0  # atno 7974 bound_to 7965
  156.0408  140.3319  155.7242 H   0  0  0  0  0  0  0  0  0  0  0  0  # atno 8008 bound_to 7997
  155.5746  140.0631  157.2816 H   0  0  0  0  0  0  0  0  0  0  0  0  # atno 8009 bound_to 7997
  154.4392  140.1854  156.0903 H   0  0  0  0  0  0  0  0  0  0  0  0  # atno 8010 bound_to 7997
  140.2958  144.2992  150.6230 H   0  0  0  0  0  0  0  0  0  0  0  0  # atno 10167 bound_to 10162
  157.3909  131.1004  151.0648 H   0  0  0  0  0  0  0  0  0  0  0  0  # atno 10718 bound_to 10713
  153.7651  135.3190  155.3343 H   0  0  0  0  0  0  0  0  0  0  0  0  # atno 10763 bound_to 10752
  154.8216  135.4599  154.0799 H   0  0  0  0  0  0  0  0  0  0  0  0  # atno 10764 bound_to 10752
  153.2042  135.6926  153.8278 H   0  0  0  0  0  0  0  0  0  0  0  0  # atno 10765 bound_to 10752
  141.1556  133.6767  156.6617 H   0  0  0  0  0  0  0  0  0  0  0  0  # atno 11005 bound_to 11000
  144.8753  139.4980  143.6748 LP  0  0  0  0  0  0  0  0  0  0  0  0  # atno 17320 bound_to 7965
  146.2987  139.7359  142.9107 LP  0  0  0  0  0  0  0  0  0  0  0  0  # atno 17321 bound_to 7965
  140.5693  143.2182  151.7627 LP  0  0  0  0  0  0  0  0  0  0  0  0  # atno 17342 bound_to 10162
  139.4927  144.4239  151.9947 LP  0  0  0  0  0  0  0  0  0  0  0  0  # atno 17343 bound_to 10162
  157.1682  130.6255  149.5632 LP  0  0  0  0  0  0  0  0  0  0  0  0  # atno 17370 bound_to 10713
  155.9798  130.4794  150.6736 LP  0  0  0  0  0  0  0  0  0  0  0  0  # atno 17371 bound_to 10713
  140.3242  134.7982  157.4276 LP  0  0  0  0  0  0  0  0  0  0  0  0  # atno 17394 bound_to 11000
  140.1071  134.5395  155.8300 LP  0  0  0  0  0  0  0  0  0  0  0  0  # atno 17395 bound_to 11000

$$$$
