AV-unprocessed.smi:2899|AV-procd|sdf|11143|dock2
  -GOLD-   2272016 23D 1   1.00000     0.00000
 Structure written by MMmdl.
 30 32  0  0  0  0  0  0  0  0  1 V2000
  152.4910  138.6641  156.2038 C   0  0  0  0  0  0  0  0  0  0  0  0
  151.4319  139.6696  155.8051 C   0  0  0  0  0  0  0  0  0  0  0  0
  150.5697  139.4402  154.7128 C   0  0  0  0  0  0  0  0  0  0  0  0
  149.6275  140.4528  154.4424 C   0  0  0  0  0  0  0  0  0  0  0  0
  149.5557  141.5763  155.1896 N   0  0  0  0  0  0  0  0  0  0  0  0
  150.4186  141.6891  156.2025 C   0  0  0  0  0  0  0  0  0  0  0  0
  150.3098  142.8484  156.9486 N   0  0  0  0  0  0  0  0  0  0  0  0
  150.6916  142.9708  158.3501 C   0  0  2  0  0  0  0  0  0  0  0  0
  150.4912  144.3865  158.9053 C   0  0  0  0  0  0  0  0  0  0  0  0
  151.8977  144.7303  159.4122 C   0  0  1  0  0  0  0  0  0  0  0  0
  152.2906  143.9035  160.6440 C   0  0  0  0  0  0  0  0  0  0  0  0
  152.5336  142.5248  160.0304 C   0  0  0  0  0  0  0  0  0  0  0  0
  152.2033  142.7736  158.5524 C   0  0  2  0  0  0  0  0  0  0  0  0
  152.6829  144.1018  158.4146 O   0  0  0  0  0  0  0  0  0  0  0  0
  151.3538  140.7955  156.5483 N   0  0  0  0  0  0  0  0  0  0  0  0
  152.5168  137.8237  155.5097 H   0  0  0  0  0  0  0  0  0  0  0  0
  152.2881  138.2761  157.2024 H   0  0  0  0  0  0  0  0  0  0  0  0
  153.4761  139.1316  156.2090 H   0  0  0  0  0  0  0  0  0  0  0  0
  150.6245  138.5425  154.1147 H   0  0  0  0  0  0  0  0  0  0  0  0
  148.9285  140.3614  153.6245 H   0  0  0  0  0  0  0  0  0  0  0  0
  149.8152  143.6206  156.5260 H   0  0  0  0  0  0  0  0  0  0  0  0
  150.1379  142.2328  158.9323 H   0  0  0  0  0  0  0  0  0  0  0  0
  150.1916  145.0875  158.1245 H   0  0  0  0  0  0  0  0  0  0  0  0
  149.7423  144.4239  159.6968 H   0  0  0  0  0  0  0  0  0  0  0  0
  152.0797  145.7999  159.5195 H   0  0  0  0  0  0  0  0  0  0  0  0
  153.2061  144.2880  161.0947 H   0  0  0  0  0  0  0  0  0  0  0  0
  151.5100  143.8985  161.4054 H   0  0  0  0  0  0  0  0  0  0  0  0
  153.5779  142.2331  160.1488 H   0  0  0  0  0  0  0  0  0  0  0  0
  151.9105  141.7467  160.4727 H   0  0  0  0  0  0  0  0  0  0  0  0
  152.6615  142.0509  157.8763 H   0  0  0  0  0  0  0  0  0  0  0  0
  1  2  1  0  0  0  0
  1 16  1  0  0  0  0
  1 17  1  0  0  0  0
  1 18  1  0  0  0  0
  2 15  1  0  0  0  0
  2  3  2  0  0  0  0
  3  4  1  0  0  0  0
  3 19  1  0  0  0  0
  4  5  2  0  0  0  0
  4 20  1  0  0  0  0
  5  6  1  0  0  0  0
  6  7  1  0  0  0  0
  6 15  2  0  0  0  0
  7  8  1  0  0  0  0
  7 21  1  0  0  0  0
  8 13  1  0  0  0  0
  8  9  1  0  0  0  0
  8 22  1  0  0  0  0
  9 10  1  0  0  0  0
  9 23  1  0  0  0  0
  9 24  1  0  0  0  0
 10 14  1  0  0  0  0
 10 11  1  0  0  0  0
 10 25  1  0  0  0  0
 11 12  1  0  0  0  0
 11 26  1  0  0  0  0
 11 27  1  0  0  0  0
 12 13  1  0  0  0  0
 12 28  1  0  0  0  0
 12 29  1  0  0  0  0
 13 14  1  0  0  0  0
 13 30  1  0  0  0  0
M  END
> <s_m_source_file>
AV-unprocessed.smi

> <i_m_source_file_index>
2899

> <i_lp_mmshare_version>
43012

> <i_f3d_flags>
0

> <s_epik_input>
W0NIM11jMVtjSF1bY0hdbmMobjEpW05IXVtDQEhdKFtDSDJdW0NAQEhdMjMpW0NAQEhdKE8zKVtDSDJdW0NIMl0y

> <s_epik_cmdline>
J2VwaWtfcHl0aG9uJywgJy1waCcsICc3LjAnLCAnLXRuJywgJzgnLCAnLW1hJywgJzIwMCcsICctbWV0YWxfYmluZGluZycsICctaW1hZScsICc8aW5maWxlLm1hZT4nLCAnLW9tYWUnLCAnPG91dGZpbGUubWFlPic=

> <r_lp_tautomer_probability>
1

> <r_epik_Ionization_Penalty>
0.00589655

> <r_epik_Ionization_Penalty_Charging>
0

> <r_epik_Ionization_Penalty_Neutral>
0.00589655

> <r_epik_State_Penalty>
0.00375391

> <r_epik_Charging_Adjusted_Penalty>
0.00375391

> <i_epik_Tot_Q>
0

> <i_epik_Tot_abs_Q>
0

> <r_epik_Metal_State_Penalty>
-0

> <b_epik_Metal_Only>
0

> <s_lp_Force_Field>
OPLS_2005

> <r_lp_Energy>
31.4606

> <b_lp_Chiralities_Consistent>
1

> <s_lp_Variant>
AV-unprocessed.smi:2899-1

> <Gold.Version>
5.8.1

> <Gold.Id.Protein>
6NUR|6NUR_protein|mol2

> <Gold.PLP.Fitness>
39.9028

> <Gold.PLP.PLP>
-34.4746

> <Gold.PLP.part.hbond>
-1.0000

> <Gold.PLP.part.metal>
0.0000

> <Gold.PLP.part.buried>
-3.4541

> <Gold.PLP.part.nonpolar>
-30.5220

> <Gold.PLP.part.repulsive>
0.1820

> <Gold.PLP.ligand.clash>
0.0000

> <Gold.PLP.ligand.torsion>
0.1664

> <Gold.PLP.Chemscore.Hbond>
1.0000

> <Gold.PLP.Chemscore.CHOScore>
0.9139

> <Gold.PLP.Chemscore.Metal>
0.0000

> <Gold.Chemscore.Hbonds>
donor molecule, donor type, donor heavy atom, donor atom, acceptor molecule, acceptor atom, score
      L1  H     7    21       P1  8028  1.00
      L1  C     4    20       P1  7957  0.79

> <Gold.PLP.Chemscore.Internal.Correction>
0.0195

> <Gold.Rescore>
     Score         DG    S(hbond)    S(metal)    S(lipo)     H(rot)  DE(clash)    DE(int)     intcor
     15.97     -17.38       1.00        0.00      95.08       1.00       0.01       1.39       ----

> <Gold.Chemscore.Fitness>
15.9734

> <Gold.Chemscore.DG>
-17.3784

> <Gold.Chemscore.ZeroCoef>
-5.4800

> <Gold.Chemscore.Hbond>
0.9983

> <Gold.Chemscore.Metal>
0.0000

> <Gold.Chemscore.Lipo>
95.0782

> <Gold.Chemscore.Internal_Hbond>
0.0000

> <Gold.Chemscore.DEClash>
0.0112

> <Gold.Chemscore.DEInternal>
1.3937

> <Gold.Chemscore.Rot>
1.0000

> <Gold.Chemscore.Internal.Correction>
   9.000000E+99

> <Gold.Chemscore.Hbonds>
donor molecule, donor type, donor heavy atom, donor atom, acceptor molecule, acceptor atom, score
      L1  H     7    21       P1  8028  1.00

> <Gold.Chemscore.Hbond.Weighted>
-3.3342

> <Gold.Chemscore.Metal.Weighted>
-0.0000

> <Gold.Chemscore.Lipo.Weighted>
-11.1241

> <Gold.Chemscore.Internal_Hbond.Weighted>
0.0000

> <Gold.Chemscore.DEClash.Weighted>
0.0112

> <Gold.Chemscore.DEInternal.Weighted>
1.3937

> <Gold.Chemscore.Rot.Weighted>
2.5600

> <Gold.Chemscore.Internal.Correction.Weighted>
   9.000000E+99

> <Gold.Protein.RotatedTorsions>
[ 6907 6896 6895 6894 ] final  -52.96 input  -60.11 | X-H torsion
[ 7974 7965 7964 7962 ] final    7.70 input  175.53 | X-H torsion
[ 8008 7997 7996 7995 ] final  166.63 input   59.86 | X-H torsion
[ 10167 10162 10161 10158 ] final    8.37 input  -65.29 | X-H torsion
[ 10718 10713 10712 10709 ] final  175.36 input   66.30 | X-H torsion
[ 10763 10752 10751 10750 ] final  -36.86 input  -60.55 | X-H torsion
[ 11005 11000 10999 10996 ] final  108.24 input  -57.11 | X-H torsion

> <Gold.Protein.ActiveResidues>
 VAL166  LYS551  ARG553  GLY616  TRP617  ASP618  TYR619  PRO620  LYS621  CYS622 
 ASP623  PHE694  ASN695  SER759  ASP760  ASP761  ALA762  ILE779  LEU786  VAL792 
 PHE793  MET794  SER795  GLU796  ALA797  LYS798  CYS799  TRP800  GLU811  SER814 

> <Gold.Protein.RotatedAtoms>
  150.8470  134.7783  159.6978 H   0  0  0  0  0  0  0  0  0  0  0  0  # atno 6907 bound_to 6896
  152.4545  134.5319  159.9823 H   0  0  0  0  0  0  0  0  0  0  0  0  # atno 6908 bound_to 6896
  151.5447  133.3389  159.2977 H   0  0  0  0  0  0  0  0  0  0  0  0  # atno 6909 bound_to 6896
  146.2424  140.0044  142.8413 H   0  0  0  0  0  0  0  0  0  0  0  0  # atno 7974 bound_to 7965
  156.1702  140.1638  156.8460 H   0  0  0  0  0  0  0  0  0  0  0  0  # atno 8008 bound_to 7997
  154.5249  140.0770  156.8275 H   0  0  0  0  0  0  0  0  0  0  0  0  # atno 8009 bound_to 7997
  155.3527  140.3391  155.4242 H   0  0  0  0  0  0  0  0  0  0  0  0  # atno 8010 bound_to 7997
  140.6318  143.7976  150.7306 H   0  0  0  0  0  0  0  0  0  0  0  0  # atno 10167 bound_to 10162
  156.9360  130.9986  151.2978 H   0  0  0  0  0  0  0  0  0  0  0  0  # atno 10718 bound_to 10713
  153.8868  135.6816  153.4763 H   0  0  0  0  0  0  0  0  0  0  0  0  # atno 10763 bound_to 10752
  153.1203  135.4743  154.9182 H   0  0  0  0  0  0  0  0  0  0  0  0  # atno 10764 bound_to 10752
  154.7642  135.3219  154.8272 H   0  0  0  0  0  0  0  0  0  0  0  0  # atno 10765 bound_to 10752
  139.8841  134.9425  156.5943 H   0  0  0  0  0  0  0  0  0  0  0  0  # atno 11005 bound_to 11000
  145.1386  140.9558  143.4502 LP  0  0  0  0  0  0  0  0  0  0  0  0  # atno 17320 bound_to 7965
  145.0318  139.3334  143.6021 LP  0  0  0  0  0  0  0  0  0  0  0  0  # atno 17321 bound_to 7965
  140.1589  143.4293  152.2081 LP  0  0  0  0  0  0  0  0  0  0  0  0  # atno 17342 bound_to 10162
  139.5532  144.7353  151.4373 LP  0  0  0  0  0  0  0  0  0  0  0  0  # atno 17343 bound_to 10162
  157.5816  130.8380  149.8530 LP  0  0  0  0  0  0  0  0  0  0  0  0  # atno 17370 bound_to 10713
  156.0426  130.3735  150.1398 LP  0  0  0  0  0  0  0  0  0  0  0  0  # atno 17371 bound_to 10713
  140.7932  133.8565  155.8663 LP  0  0  0  0  0  0  0  0  0  0  0  0  # atno 17394 bound_to 11000
  140.9659  134.1595  157.4617 LP  0  0  0  0  0  0  0  0  0  0  0  0  # atno 17395 bound_to 11000

$$$$
