AV-unprocessed.smi:79|AV-procd|sdf|781|dock3
  -GOLD-   2262017143D 1   1.00000     0.00000
 Structure written by MMmdl.
 56 59  0  0  0  0  0  0  0  0  2 V2000
  144.1537  132.3811  149.8838 C   0  0  0  0  0  0  0  0  0  0  0  0
  144.5103  133.3419  151.0257 C   0  0  2  0  0  0  0  0  0  0  0  0
  143.4910  134.3183  151.1041 O   0  0  0  0  0  0  0  0  0  0  0  0
  145.8677  134.0341  150.7851 C   0  0  0  0  0  0  0  0  0  0  0  0
  146.5878  134.3587  152.0437 N   0  3  2  0  0  0  0  0  0  0  0  0
  147.1572  133.1517  152.6913 C   0  0  0  0  0  0  0  0  0  0  0  0
  147.9763  133.5302  153.9338 C   0  0  0  0  0  0  0  0  0  0  0  0
  147.1881  134.3400  154.8583 N   0  0  0  0  0  0  0  0  0  0  0  0
  147.8461  134.5472  156.0212 C   0  0  0  0  0  0  0  0  0  0  0  0
  149.0643  135.1496  156.0152 N   0  0  0  0  0  0  0  0  0  0  0  0
  149.7032  135.3683  157.1689 C   0  0  0  0  0  0  0  0  0  0  0  0
  149.3100  135.0728  158.4102 N   0  0  0  0  0  0  0  0  0  0  0  0
  148.0876  134.4670  158.4140 C   0  0  0  0  0  0  0  0  0  0  0  0
  147.2951  134.1672  157.2721 C   0  0  0  0  0  0  0  0  0  0  0  0
  146.1109  133.5537  157.6577 N   0  0  0  0  0  0  0  0  0  0  0  0
  146.1971  133.4947  158.9594 C   0  0  0  0  0  0  0  0  0  0  0  0
  147.3539  134.0147  159.4972 N   0  0  0  0  0  0  0  0  0  0  0  0
  147.7070  134.0863  160.9070 C   0  0  0  0  0  0  0  0  0  0  0  0
  146.9265  135.1561  161.6926 C   0  0  0  0  0  0  0  0  0  0  0  0
  145.4977  134.6350  161.9484 C   0  0  0  0  0  0  0  0  0  0  0  0
  145.4772  133.5082  162.8022 O   0  0  0  0  0  0  0  0  0  0  0  0
  147.6680  135.7335  162.9068 C   0  0  0  0  0  0  0  0  0  0  0  0
  147.4791  137.0914  162.4511 O   0  0  0  0  0  0  0  0  0  0  0  0
  147.0336  136.5957  161.1692 C   0  0  0  0  0  0  0  0  0  0  0  0
  146.5850  135.5364  154.2590 C   0  0  2  0  0  0  0  0  0  0  0  0
  145.6869  136.3117  155.2448 C   0  0  0  0  0  0  0  0  0  0  0  0
  145.7750  135.1511  153.0030 C   0  0  0  0  0  0  0  0  0  0  0  0
  144.8990  131.5903  149.7918 H   0  0  0  0  0  0  0  0  0  0  0  0
  144.1010  132.9007  148.9263 H   0  0  0  0  0  0  0  0  0  0  0  0
  143.1887  131.9033  150.0573 H   0  0  0  0  0  0  0  0  0  0  0  0
  144.5170  132.7755  151.9560 H   0  0  0  0  0  0  0  0  0  0  0  0
  142.8216  134.1177  150.4682 H   0  0  0  0  0  0  0  0  0  0  0  0
  146.5084  133.4092  150.1609 H   0  0  0  0  0  0  0  0  0  0  0  0
  145.6912  134.9481  150.2152 H   0  0  0  0  0  0  0  0  0  0  0  0
  146.3492  132.4724  152.9681 H   0  0  0  0  0  0  0  0  0  0  0  0
  147.7968  132.6176  151.9877 H   0  0  0  0  0  0  0  0  0  0  0  0
  148.3213  132.6252  154.4362 H   0  0  0  0  0  0  0  0  0  0  0  0
  148.8654  134.0846  153.6296 H   0  0  0  0  0  0  0  0  0  0  0  0
  150.6658  135.8515  157.0865 H   0  0  0  0  0  0  0  0  0  0  0  0
  145.4108  133.0692  159.5656 H   0  0  0  0  0  0  0  0  0  0  0  0
  147.5579  133.1015  161.3514 H   0  0  0  0  0  0  0  0  0  0  0  0
  148.7796  134.2754  160.9674 H   0  0  0  0  0  0  0  0  0  0  0  0
  144.8772  135.4005  162.4141 H   0  0  0  0  0  0  0  0  0  0  0  0
  145.0117  134.3586  161.0123 H   0  0  0  0  0  0  0  0  0  0  0  0
  145.3207  132.7369  162.2791 H   0  0  0  0  0  0  0  0  0  0  0  0
  147.1856  135.5395  163.8654 H   0  0  0  0  0  0  0  0  0  0  0  0
  148.7252  135.4672  162.9487 H   0  0  0  0  0  0  0  0  0  0  0  0
  147.7946  136.7367  160.4011 H   0  0  0  0  0  0  0  0  0  0  0  0
  146.0832  137.0303  160.8574 H   0  0  0  0  0  0  0  0  0  0  0  0
  147.3953  136.1973  153.9465 H   0  0  0  0  0  0  0  0  0  0  0  0
  145.2178  137.1657  154.7553 H   0  0  0  0  0  0  0  0  0  0  0  0
  146.2516  136.7034  156.0912 H   0  0  0  0  0  0  0  0  0  0  0  0
  144.8917  135.6779  155.6385 H   0  0  0  0  0  0  0  0  0  0  0  0
  145.4058  136.0581  152.5263 H   0  0  0  0  0  0  0  0  0  0  0  0
  144.8984  134.5686  153.2920 H   0  0  0  0  0  0  0  0  0  0  0  0
  147.3776  134.9311  151.7823 H   0  0  0  0  0  0  0  0  0  0  0  0
  1  2  1  0  0  0  0
  1 28  1  0  0  0  0
  1 29  1  0  0  0  0
  1 30  1  0  0  0  0
  2  3  1  0  0  0  0
  2  4  1  0  0  0  0
  2 31  1  0  0  0  0
  3 32  1  0  0  0  0
  4  5  1  0  0  0  0
  4 33  1  0  0  0  0
  4 34  1  0  0  0  0
  5 27  1  0  0  0  0
  5  6  1  0  0  0  0
  5 56  1  0  0  0  0
  6  7  1  0  0  0  0
  6 35  1  0  0  0  0
  6 36  1  0  0  0  0
  7  8  1  0  0  0  0
  7 37  1  0  0  0  0
  7 38  1  0  0  0  0
  8  9  1  0  0  0  0
  8 25  1  0  0  0  0
  9 14  1  0  0  0  0
  9 10  2  0  0  0  0
 10 11  1  0  0  0  0
 11 12  2  0  0  0  0
 11 39  1  0  0  0  0
 12 13  1  0  0  0  0
 13 17  1  0  0  0  0
 13 14  2  0  0  0  0
 14 15  1  0  0  0  0
 15 16  2  0  0  0  0
 16 17  1  0  0  0  0
 16 40  1  0  0  0  0
 17 18  1  0  0  0  0
 18 19  1  0  0  0  0
 18 41  1  0  0  0  0
 18 42  1  0  0  0  0
 19 24  1  0  0  0  0
 19 20  1  0  0  0  0
 19 22  1  0  0  0  0
 20 21  1  0  0  0  0
 20 43  1  0  0  0  0
 20 44  1  0  0  0  0
 21 45  1  0  0  0  0
 22 23  1  0  0  0  0
 22 46  1  0  0  0  0
 22 47  1  0  0  0  0
 23 24  1  0  0  0  0
 24 48  1  0  0  0  0
 24 49  1  0  0  0  0
 25 26  1  0  0  0  0
 25 27  1  0  0  0  0
 25 50  1  0  0  0  0
 26 51  1  0  0  0  0
 26 52  1  0  0  0  0
 26 53  1  0  0  0  0
 27 54  1  0  0  0  0
 27 55  1  0  0  0  0
M  CHG  1   5   1
M  END
> <s_m_source_file>
AV-unprocessed.smi

> <i_m_source_file_index>
79

> <i_lp_mmshare_version>
43012

> <i_f3d_flags>
0

> <s_epik_input>
W0NIM11bQ0BIXShbT0hdKVtDSDJdTjFbQ0gyXVtDSDJdTihbQ0BASF0oW0NIM10pW0NIMl0xKWMobltjSF1uMiljKGMyMyluW2NIXW4zW0NIMl1DNChbQ0gyXVtPSF0pW0NIMl1PW0NIMl00

> <s_epik_cmdline>
J2VwaWtfcHl0aG9uJywgJy1waCcsICc3LjAnLCAnLXRuJywgJzgnLCAnLW1hJywgJzIwMCcsICctbWV0YWxfYmluZGluZycsICctaW1hZScsICc8aW5maWxlLm1hZT4nLCAnLW9tYWUnLCAnPG91dGZpbGUubWFlPic=

> <r_lp_tautomer_probability>
1

> <r_epik_Ionization_Penalty>
0.00515943

> <r_epik_Ionization_Penalty_Charging>
0.00509693

> <r_epik_Ionization_Penalty_Neutral>
6.25007e-05

> <r_epik_State_Penalty>
-0

> <r_epik_Charging_Adjusted_Penalty>
0.00509693

> <i_epik_Tot_Q>
1

> <i_epik_Tot_abs_Q>
1

> <r_epik_Metal_State_Penalty>
-0

> <b_epik_Metal_Only>
0

> <s_lp_Force_Field>
OPLS_2005

> <r_lp_Energy>
51.6894

> <b_lp_Chiralities_Consistent>
1

> <s_lp_Variant>
AV-unprocessed.smi:79-5

> <Gold.Version>
5.8.1

> <Gold.Id.Protein>
6NUR|6NUR_protein|mol2

> <Gold.PLP.Fitness>
48.4886

> <Gold.PLP.PLP>
-35.4950

> <Gold.PLP.part.hbond>
-5.0439

> <Gold.PLP.part.metal>
0.0000

> <Gold.PLP.part.buried>
-6.5034

> <Gold.PLP.part.nonpolar>
-24.4432

> <Gold.PLP.part.repulsive>
0.1229

> <Gold.PLP.ligand.clash>
0.0000

> <Gold.PLP.ligand.torsion>
1.1409

> <Gold.PLP.Chemscore.Hbond>
4.8548

> <Gold.PLP.Chemscore.CHOScore>
0.0000

> <Gold.PLP.Chemscore.Metal>
0.0000

> <Gold.Chemscore.Hbonds>
donor molecule, donor type, donor heavy atom, donor atom, acceptor molecule, acceptor atom, score
      L1  H     3    32       P1 10186  0.94
      L1  H     5    56       P1  7948  2.00
      P1  H  6896  6909       L1    12  1.00
      P1  H  6931  6943       L1    23  0.86

> <Gold.PLP.Chemscore.Internal.Correction>
0.7111

> <Gold.Rescore>
     Score         DG    S(hbond)    S(metal)    S(lipo)     H(rot)  DE(clash)    DE(int)     intcor
     14.57     -15.97       3.36        0.00      75.30       3.72       0.04       1.36       ----

> <Gold.Chemscore.Fitness>
14.5713

> <Gold.Chemscore.DG>
-15.9747

> <Gold.Chemscore.ZeroCoef>
-5.4800

> <Gold.Chemscore.Hbond>
3.3577

> <Gold.Chemscore.Metal>
0.0000

> <Gold.Chemscore.Lipo>
75.2978

> <Gold.Chemscore.Internal_Hbond>
0.0000

> <Gold.Chemscore.DEClash>
0.0402

> <Gold.Chemscore.DEInternal>
1.3631

> <Gold.Chemscore.Rot>
3.7226

> <Gold.Chemscore.Internal.Correction>
   9.000000E+99

> <Gold.Chemscore.Hbonds>
donor molecule, donor type, donor heavy atom, donor atom, acceptor molecule, acceptor atom, score
      L1  H     3    32       P1 10186  0.74
      L1  H     5    56       P1  7948  0.79
      P1  H  6896  6909       L1    12  0.85
      P1  H  6931  6943       L1    23  0.29

> <Gold.Chemscore.Hbond.Weighted>
-11.2146

> <Gold.Chemscore.Metal.Weighted>
-0.0000

> <Gold.Chemscore.Lipo.Weighted>
-8.8098

> <Gold.Chemscore.Internal_Hbond.Weighted>
0.0000

> <Gold.Chemscore.DEClash.Weighted>
0.0402

> <Gold.Chemscore.DEInternal.Weighted>
1.3631

> <Gold.Chemscore.Rot.Weighted>
9.5298

> <Gold.Chemscore.Internal.Correction.Weighted>
   9.000000E+99

> <Gold.Protein.RotatedTorsions>
[ 6907 6896 6895 6894 ] final   36.15 input  -60.11 | X-H torsion
[ 7974 7965 7964 7962 ] final  114.58 input  175.53 | X-H torsion
[ 8008 7997 7996 7995 ] final -154.40 input   59.86 | X-H torsion
[ 10167 10162 10161 10158 ] final   -8.37 input  -65.29 | X-H torsion
[ 10718 10713 10712 10709 ] final -116.81 input   66.30 | X-H torsion
[ 10763 10752 10751 10750 ] final -119.51 input  -60.55 | X-H torsion
[ 11005 11000 10999 10996 ] final  -39.92 input  -57.11 | X-H torsion

> <Gold.Protein.ActiveResidues>
 VAL166  LYS551  ARG553  GLY616  TRP617  ASP618  TYR619  PRO620  LYS621  CYS622 
 ASP623  PHE694  ASN695  SER759  ASP760  ASP761  ALA762  ILE779  LEU786  VAL792 
 PHE793  MET794  SER795  GLU796  ALA797  LYS798  CYS799  TRP800  GLU811  SER814 

> <Gold.Protein.RotatedAtoms>
  152.1258  134.9171  160.0560 H   0  0  0  0  0  0  0  0  0  0  0  0  # atno 6907 bound_to 6896
  152.0295  133.3926  159.4299 H   0  0  0  0  0  0  0  0  0  0  0  0  # atno 6908 bound_to 6896
  150.6852  134.3458  159.4931 H   0  0  0  0  0  0  0  0  0  0  0  0  # atno 6909 bound_to 6896
  145.2026  139.2945  143.4310 H   0  0  0  0  0  0  0  0  0  0  0  0  # atno 7974 bound_to 7965
  155.6858  140.0749  157.2467 H   0  0  0  0  0  0  0  0  0  0  0  0  # atno 8008 bound_to 7997
  154.4097  140.1673  156.2084 H   0  0  0  0  0  0  0  0  0  0  0  0  # atno 8009 bound_to 7997
  155.9495  140.3378  155.6399 H   0  0  0  0  0  0  0  0  0  0  0  0  # atno 8010 bound_to 7997
  140.7057  143.5976  150.8830 H   0  0  0  0  0  0  0  0  0  0  0  0  # atno 10167 bound_to 10162
  156.0990  130.6156  150.9084 H   0  0  0  0  0  0  0  0  0  0  0  0  # atno 10718 bound_to 10713
  154.8619  135.4236  154.2310 H   0  0  0  0  0  0  0  0  0  0  0  0  # atno 10763 bound_to 10752
  153.3295  135.6987  153.6966 H   0  0  0  0  0  0  0  0  0  0  0  0  # atno 10764 bound_to 10752
  153.5988  135.3541  155.2911 H   0  0  0  0  0  0  0  0  0  0  0  0  # atno 10765 bound_to 10752
  141.0137  133.6895  156.2251 H   0  0  0  0  0  0  0  0  0  0  0  0  # atno 11005 bound_to 11000
  146.3414  140.2276  142.8592 LP  0  0  0  0  0  0  0  0  0  0  0  0  # atno 17320 bound_to 7965
  144.9933  140.8566  143.5326 LP  0  0  0  0  0  0  0  0  0  0  0  0  # atno 17321 bound_to 7965
  139.9701  143.6067  152.2976 LP  0  0  0  0  0  0  0  0  0  0  0  0  # atno 17342 bound_to 10162
  139.6650  144.7662  151.1890 LP  0  0  0  0  0  0  0  0  0  0  0  0  # atno 17343 bound_to 10162
  157.6156  131.0933  150.8716 LP  0  0  0  0  0  0  0  0  0  0  0  0  # atno 17370 bound_to 10713
  156.8848  130.5192  149.5289 LP  0  0  0  0  0  0  0  0  0  0  0  0  # atno 17371 bound_to 10713
  140.6691  134.4887  157.5586 LP  0  0  0  0  0  0  0  0  0  0  0  0  # atno 17394 bound_to 11000
  139.9104  134.8356  156.1548 LP  0  0  0  0  0  0  0  0  0  0  0  0  # atno 17395 bound_to 11000

$$$$
