AV-unprocessed.smi:3274|AV-procd|sdf|12524|dock9
  -GOLD-   2272018443D 1   1.00000     0.00000
 Structure written by MMmdl.
 43 44  0  0  0  0  0  0  0  0  2 V2000
  153.8207  140.7465  160.4970 C   0  0  0  0  0  0  0  0  0  0  0  0
  153.0809  142.0712  160.5862 C   0  0  0  0  0  0  0  0  0  0  0  0
  153.1921  142.8244  161.6972 C   0  0  0  0  0  0  0  0  0  0  0  0
  152.5651  144.1887  161.8692 C   0  0  0  0  0  0  0  0  0  0  0  0
  152.2243  144.8128  160.5140 C   0  0  0  0  0  0  0  0  0  0  0  0
  151.4472  143.8295  159.6241 C   0  0  1  0  0  0  0  0  0  0  0  0
  151.0336  144.5363  158.3181 C   0  0  0  0  0  0  0  0  0  0  0  0
  152.2421  142.5113  159.3687 C   0  0  2  0  0  0  0  0  0  0  0  0
  151.2852  141.4010  158.8613 C   0  0  0  0  0  0  0  0  0  0  0  0
  151.9371  140.4652  157.9192 N   0  3  0  0  0  0  0  0  0  0  0  0
  151.1563  140.1592  156.6994 C   0  0  2  0  0  0  0  0  0  0  0  0
  152.0573  139.4413  155.6860 C   0  0  0  0  0  0  0  0  0  0  0  0
  150.5567  141.4428  156.0877 C   0  0  0  0  0  0  0  0  0  0  0  0
  149.4018  141.1815  155.2479 N   0  0  0  0  0  0  0  0  0  0  0  0
  148.1722  141.6979  155.2749 C   0  0  0  0  0  0  0  0  0  0  0  0
  147.3735  141.2244  154.3290 N   0  0  0  0  0  0  0  0  0  0  0  0
  148.2307  140.3528  153.7188 C   0  0  0  0  0  0  0  0  0  0  0  0
  149.4618  140.2942  154.2269 N   0  0  0  0  0  0  0  0  0  0  0  0
  154.4044  140.6959  159.5775 H   0  0  0  0  0  0  0  0  0  0  0  0
  153.1246  139.9083  160.5238 H   0  0  0  0  0  0  0  0  0  0  0  0
  154.5107  140.6212  161.3320 H   0  0  0  0  0  0  0  0  0  0  0  0
  153.7728  142.4669  162.5355 H   0  0  0  0  0  0  0  0  0  0  0  0
  151.6716  144.0879  162.4862 H   0  0  0  0  0  0  0  0  0  0  0  0
  153.2570  144.8355  162.4094 H   0  0  0  0  0  0  0  0  0  0  0  0
  151.6471  145.7246  160.6727 H   0  0  0  0  0  0  0  0  0  0  0  0
  153.1435  145.1136  160.0090 H   0  0  0  0  0  0  0  0  0  0  0  0
  150.5332  143.5739  160.1629 H   0  0  0  0  0  0  0  0  0  0  0  0
  151.9020  144.7741  157.7029 H   0  0  0  0  0  0  0  0  0  0  0  0
  150.5153  145.4723  158.5288 H   0  0  0  0  0  0  0  0  0  0  0  0
  150.3551  143.9344  157.7167 H   0  0  0  0  0  0  0  0  0  0  0  0
  152.9659  142.7214  158.5794 H   0  0  0  0  0  0  0  0  0  0  0  0
  150.8794  140.8434  159.7065 H   0  0  0  0  0  0  0  0  0  0  0  0
  150.4298  141.8349  158.3482 H   0  0  0  0  0  0  0  0  0  0  0  0
  152.8278  140.8507  157.6385 H   0  0  0  0  0  0  0  0  0  0  0  0
  150.3443  139.4752  156.9522 H   0  0  0  0  0  0  0  0  0  0  0  0
  151.5008  139.1718  154.7878 H   0  0  0  0  0  0  0  0  0  0  0  0
  152.4668  138.5221  156.1063 H   0  0  0  0  0  0  0  0  0  0  0  0
  152.8948  140.0703  155.3816 H   0  0  0  0  0  0  0  0  0  0  0  0
  150.2707  142.1454  156.8724 H   0  0  0  0  0  0  0  0  0  0  0  0
  151.3048  141.9493  155.4766 H   0  0  0  0  0  0  0  0  0  0  0  0
  147.8569  142.4389  155.9952 H   0  0  0  0  0  0  0  0  0  0  0  0
  147.9418  139.7511  152.8697 H   0  0  0  0  0  0  0  0  0  0  0  0
  152.1049  139.6010  158.4143 H   0  0  0  0  0  0  0  0  0  0  0  0
  1  2  1  0  0  0  0
  1 19  1  0  0  0  0
  1 20  1  0  0  0  0
  1 21  1  0  0  0  0
  2  8  1  0  0  0  0
  2  3  2  0  0  0  0
  3  4  1  0  0  0  0
  3 22  1  0  0  0  0
  4  5  1  0  0  0  0
  4 23  1  0  0  0  0
  4 24  1  0  0  0  0
  5  6  1  0  0  0  0
  5 25  1  0  0  0  0
  5 26  1  0  0  0  0
  6  7  1  0  0  0  0
  6  8  1  0  0  0  0
  6 27  1  0  0  0  0
  7 28  1  0  0  0  0
  7 29  1  0  0  0  0
  7 30  1  0  0  0  0
  8  9  1  0  0  0  0
  8 31  1  0  0  0  0
  9 10  1  0  0  0  0
  9 32  1  0  0  0  0
  9 33  1  0  0  0  0
 10 11  1  0  0  0  0
 10 34  1  0  0  0  0
 10 43  1  0  0  0  0
 11 12  1  0  0  0  0
 11 13  1  0  0  0  0
 11 35  1  0  0  0  0
 12 36  1  0  0  0  0
 12 37  1  0  0  0  0
 12 38  1  0  0  0  0
 13 14  1  0  0  0  0
 13 39  1  0  0  0  0
 13 40  1  0  0  0  0
 14 18  1  0  0  0  0
 14 15  1  0  0  0  0
 15 16  2  0  0  0  0
 15 41  1  0  0  0  0
 16 17  1  0  0  0  0
 17 18  2  0  0  0  0
 17 42  1  0  0  0  0
M  CHG  1  10   1
M  END
> <s_m_source_file>
AV-unprocessed.smi

> <i_m_source_file_index>
3274

> <i_lp_mmshare_version>
43012

> <i_f3d_flags>
0

> <s_epik_input>
W0NIM11DMT1bQ0hdW0NIMl1bQ0gyXVtDQEBIXShbQ0gzXSlbQ0BIXTFbQ0gyXVtOSF1bQ0BIXShbQ0gzXSlbQ0gyXW4yW2NIXW5bY0hdbjI=

> <s_epik_cmdline>
J2VwaWtfcHl0aG9uJywgJy1waCcsICc3LjAnLCAnLXRuJywgJzgnLCAnLW1hJywgJzIwMCcsICctbWV0YWxfYmluZGluZycsICctaW1hZScsICc8aW5maWxlLm1hZT4nLCAnLW9tYWUnLCAnPG91dGZpbGUubWFlPic=

> <r_lp_tautomer_probability>
1

> <r_epik_Ionization_Penalty>
0.0017527

> <r_epik_Ionization_Penalty_Charging>
0.00175191

> <r_epik_Ionization_Penalty_Neutral>
7.94565e-07

> <r_epik_State_Penalty>
0.00118605

> <r_epik_Charging_Adjusted_Penalty>
0.00293796

> <i_epik_Tot_Q>
1

> <i_epik_Tot_abs_Q>
1

> <r_epik_Metal_State_Penalty>
-0

> <b_epik_Metal_Only>
0

> <s_lp_Force_Field>
OPLS_2005

> <r_lp_Energy>
18.1094

> <b_lp_Chiralities_Consistent>
1

> <s_lp_Variant>
AV-unprocessed.smi:3274-3

> <Gold.Version>
5.8.1

> <Gold.Id.Protein>
6NUR|6NUR_protein|mol2

> <Gold.PLP.Fitness>
47.3826

> <Gold.PLP.PLP>
-43.2521

> <Gold.PLP.part.hbond>
-1.0000

> <Gold.PLP.part.metal>
0.0000

> <Gold.PLP.part.buried>
-1.4440

> <Gold.PLP.part.nonpolar>
-40.9789

> <Gold.PLP.part.repulsive>
1.6354

> <Gold.PLP.ligand.clash>
0.0000

> <Gold.PLP.ligand.torsion>
1.0322

> <Gold.PLP.Chemscore.Hbond>
0.5970

> <Gold.PLP.Chemscore.CHOScore>
1.4385

> <Gold.PLP.Chemscore.Metal>
0.0000

> <Gold.Chemscore.Hbonds>
donor molecule, donor type, donor heavy atom, donor atom, acceptor molecule, acceptor atom, score
      P1  H  7989  7998       L1    18  0.14
      L1  C    15    41       P1  8028  0.70
      L1  C    17    42       P1  7957  0.57

> <Gold.PLP.Chemscore.Internal.Correction>
0.0887

> <Gold.Rescore>
     Score         DG    S(hbond)    S(metal)    S(lipo)     H(rot)  DE(clash)    DE(int)     intcor
     12.05     -13.33       0.05        0.00     117.23       2.36       0.11       1.17       ----

> <Gold.Chemscore.Fitness>
12.0510

> <Gold.Chemscore.DG>
-13.3314

> <Gold.Chemscore.ZeroCoef>
-5.4800

> <Gold.Chemscore.Hbond>
0.0540

> <Gold.Chemscore.Metal>
0.0000

> <Gold.Chemscore.Lipo>
117.2343

> <Gold.Chemscore.Internal_Hbond>
0.0000

> <Gold.Chemscore.DEClash>
0.1077

> <Gold.Chemscore.DEInternal>
1.1727

> <Gold.Chemscore.Rot>
2.3615

> <Gold.Chemscore.Internal.Correction>
   9.000000E+99

> <Gold.Chemscore.Hbonds>
donor molecule, donor type, donor heavy atom, donor atom, acceptor molecule, acceptor atom, score
      P1  H  7989  7998       L1    18  0.03

> <Gold.Chemscore.Hbond.Weighted>
-0.1804

> <Gold.Chemscore.Metal.Weighted>
-0.0000

> <Gold.Chemscore.Lipo.Weighted>
-13.7164

> <Gold.Chemscore.Internal_Hbond.Weighted>
0.0000

> <Gold.Chemscore.DEClash.Weighted>
0.1077

> <Gold.Chemscore.DEInternal.Weighted>
1.1727

> <Gold.Chemscore.Rot.Weighted>
6.0454

> <Gold.Chemscore.Internal.Correction.Weighted>
   9.000000E+99

> <Gold.Protein.RotatedTorsions>
[ 6907 6896 6895 6894 ] final   12.39 input  -60.11 | X-H torsion
[ 7974 7965 7964 7962 ] final  162.20 input  175.53 | X-H torsion
[ 8008 7997 7996 7995 ] final   82.56 input   59.86 | X-H torsion
[ 10167 10162 10161 10158 ] final  144.95 input  -65.29 | X-H torsion
[ 10718 10713 10712 10709 ] final  -19.17 input   66.30 | X-H torsion
[ 10763 10752 10751 10750 ] final -160.10 input  -60.55 | X-H torsion
[ 11005 11000 10999 10996 ] final   80.13 input  -57.11 | X-H torsion

> <Gold.Protein.ActiveResidues>
 VAL166  LYS551  ARG553  GLY616  TRP617  ASP618  TYR619  PRO620  LYS621  CYS622 
 ASP623  PHE694  ASN695  SER759  ASP760  ASP761  ALA762  ILE779  LEU786  VAL792 
 PHE793  MET794  SER795  GLU796  ALA797  LYS798  CYS799  TRP800  GLU811  SER814 

> <Gold.Protein.RotatedAtoms>
  151.7696  135.0789  160.0357 H   0  0  0  0  0  0  0  0  0  0  0  0  # atno 6907 bound_to 6896
  152.3297  133.5941  159.5810 H   0  0  0  0  0  0  0  0  0  0  0  0  # atno 6908 bound_to 6896
  150.7416  133.9802  159.3615 H   0  0  0  0  0  0  0  0  0  0  0  0  # atno 6909 bound_to 6896
  144.7648  139.8005  143.6319 H   0  0  0  0  0  0  0  0  0  0  0  0  # atno 7974 bound_to 7965
  155.9122  140.3426  155.6107 H   0  0  0  0  0  0  0  0  0  0  0  0  # atno 8008 bound_to 7997
  155.7374  140.0803  157.2280 H   0  0  0  0  0  0  0  0  0  0  0  0  # atno 8009 bound_to 7997
  154.4057  140.1577  156.2564 H   0  0  0  0  0  0  0  0  0  0  0  0  # atno 8010 bound_to 7997
  139.4936  144.5936  151.6629 H   0  0  0  0  0  0  0  0  0  0  0  0  # atno 10167 bound_to 10162
  156.5494  130.4698  149.6459 H   0  0  0  0  0  0  0  0  0  0  0  0  # atno 10718 bound_to 10713
  154.7419  135.3070  154.8714 H   0  0  0  0  0  0  0  0  0  0  0  0  # atno 10763 bound_to 10752
  153.9526  135.6762  153.4748 H   0  0  0  0  0  0  0  0  0  0  0  0  # atno 10764 bound_to 10752
  153.1017  135.4909  154.8804 H   0  0  0  0  0  0  0  0  0  0  0  0  # atno 10765 bound_to 10752
  139.9146  134.7896  156.1869 H   0  0  0  0  0  0  0  0  0  0  0  0  # atno 11005 bound_to 11000
  146.1746  139.4911  142.9906 LP  0  0  0  0  0  0  0  0  0  0  0  0  # atno 17320 bound_to 7965
  145.6504  141.0264  143.1763 LP  0  0  0  0  0  0  0  0  0  0  0  0  # atno 17321 bound_to 7965
  140.5569  144.0334  150.6151 LP  0  0  0  0  0  0  0  0  0  0  0  0  # atno 17342 bound_to 10162
  140.3406  143.3022  152.0592 LP  0  0  0  0  0  0  0  0  0  0  0  0  # atno 17343 bound_to 10162
  156.2898  130.7118  151.1964 LP  0  0  0  0  0  0  0  0  0  0  0  0  # atno 17370 bound_to 10713
  157.7390  131.0534  150.5257 LP  0  0  0  0  0  0  0  0  0  0  0  0  # atno 17371 bound_to 10713
  141.0608  133.6843  156.1948 LP  0  0  0  0  0  0  0  0  0  0  0  0  # atno 17394 bound_to 11000
  140.6664  134.4913  157.5585 LP  0  0  0  0  0  0  0  0  0  0  0  0  # atno 17395 bound_to 11000

$$$$
