AV-unprocessed.smi:1446|AV-procd|sdf|5890|dock5
  -GOLD-   22720 5573D 1   1.00000     0.00000
 Structure written by MMmdl.
 47 48  0  0  0  0  0  0  0  0  1 V2000
  147.3824  128.1283  151.0008 C   0  0  0  0  0  0  0  0  0  0  0  0
  146.6155  129.1272  151.8600 C   0  0  0  0  0  0  0  0  0  0  0  0
  145.6563  128.7550  152.5353 O   0  0  0  0  0  0  0  0  0  0  0  0
  147.0494  130.3968  151.8233 N   0  0  0  0  0  0  0  0  0  0  0  0
  146.4709  131.5153  152.5716 C   0  0  1  0  0  0  0  0  0  0  0  0
  147.6120  132.4088  153.0966 C   0  0  0  0  0  0  0  0  0  0  0  0
  148.7853  132.0982  152.8822 O   0  0  0  0  0  0  0  0  0  0  0  0
  147.2240  133.5142  153.7602 N   0  0  0  0  0  0  0  0  0  0  0  0
  148.0347  134.5394  154.3147 C   0  0  0  0  0  0  0  0  0  0  0  0
  149.3676  134.1664  154.5869 C   0  0  0  0  0  0  0  0  0  0  0  0
  150.2488  135.1076  155.1517 C   0  0  0  0  0  0  0  0  0  0  0  0
  149.7882  136.4118  155.4415 C   0  0  0  0  0  0  0  0  0  0  0  0
  150.6544  137.3686  156.0142 N   0  0  0  0  0  0  0  0  0  0  0  0
  151.3425  137.0208  157.2539 C   0  0  0  0  0  0  0  0  0  0  0  0
  151.9887  138.2699  157.8771 C   0  0  0  0  0  0  0  0  0  0  0  0
  152.8496  138.8886  156.9269 O   0  0  0  0  0  0  0  0  0  0  0  0
  152.1378  139.3210  155.7721 C   0  0  0  0  0  0  0  0  0  0  0  0
  151.4904  138.1119  155.0742 C   0  0  0  0  0  0  0  0  0  0  0  0
  148.4370  136.6917  155.1226 C   0  0  0  0  0  0  0  0  0  0  0  0
  147.5902  135.7903  154.5824 N   0  0  0  0  0  0  0  0  0  0  0  0
  145.5485  132.3333  151.6191 C   0  0  0  0  0  0  0  0  0  0  0  0
  144.3555  131.5164  151.0802 C   0  0  0  0  0  0  0  0  0  0  0  0
  146.3319  132.9225  150.4293 C   0  0  0  0  0  0  0  0  0  0  0  0
  148.4355  128.1125  151.2828 H   0  0  0  0  0  0  0  0  0  0  0  0
  147.3101  128.3984  149.9470 H   0  0  0  0  0  0  0  0  0  0  0  0
  146.9810  127.1219  151.1239 H   0  0  0  0  0  0  0  0  0  0  0  0
  147.8497  130.6066  151.2445 H   0  0  0  0  0  0  0  0  0  0  0  0
  145.8806  131.1324  153.4070 H   0  0  0  0  0  0  0  0  0  0  0  0
  146.2284  133.6401  153.8705 H   0  0  0  0  0  0  0  0  0  0  0  0
  149.7180  133.1685  154.3668 H   0  0  0  0  0  0  0  0  0  0  0  0
  151.2716  134.8205  155.3452 H   0  0  0  0  0  0  0  0  0  0  0  0
  150.6411  136.5853  157.9660 H   0  0  0  0  0  0  0  0  0  0  0  0
  152.1085  136.2730  157.0449 H   0  0  0  0  0  0  0  0  0  0  0  0
  151.2271  138.9773  158.2098 H   0  0  0  0  0  0  0  0  0  0  0  0
  152.5710  137.9925  158.7558 H   0  0  0  0  0  0  0  0  0  0  0  0
  151.3831  140.0580  156.0515 H   0  0  0  0  0  0  0  0  0  0  0  0
  152.8311  139.8184  155.0938 H   0  0  0  0  0  0  0  0  0  0  0  0
  152.2644  137.4461  154.6900 H   0  0  0  0  0  0  0  0  0  0  0  0
  150.9201  138.4632  154.2153 H   0  0  0  0  0  0  0  0  0  0  0  0
  147.9968  137.6588  155.3122 H   0  0  0  0  0  0  0  0  0  0  0  0
  145.1354  133.1756  152.1773 H   0  0  0  0  0  0  0  0  0  0  0  0
  144.6944  130.6249  150.5516 H   0  0  0  0  0  0  0  0  0  0  0  0
  143.7600  132.1068  150.3833 H   0  0  0  0  0  0  0  0  0  0  0  0
  143.6803  131.1978  151.8745 H   0  0  0  0  0  0  0  0  0  0  0  0
  146.8072  132.1359  149.8424 H   0  0  0  0  0  0  0  0  0  0  0  0
  147.1108  133.6124  150.7538 H   0  0  0  0  0  0  0  0  0  0  0  0
  145.6737  133.4804  149.7626 H   0  0  0  0  0  0  0  0  0  0  0  0
  1  2  1  0  0  0  0
  1 24  1  0  0  0  0
  1 25  1  0  0  0  0
  1 26  1  0  0  0  0
  2  3  2  0  0  0  0
  2  4  1  0  0  0  0
  4  5  1  0  0  0  0
  4 27  1  0  0  0  0
  5  6  1  0  0  0  0
  5 21  1  0  0  0  0
  5 28  1  0  0  0  0
  6  7  2  0  0  0  0
  6  8  1  0  0  0  0
  8  9  1  0  0  0  0
  8 29  1  0  0  0  0
  9 20  1  0  0  0  0
  9 10  2  0  0  0  0
 10 11  1  0  0  0  0
 10 30  1  0  0  0  0
 11 12  2  0  0  0  0
 11 31  1  0  0  0  0
 12 13  1  0  0  0  0
 12 19  1  0  0  0  0
 13 18  1  0  0  0  0
 13 14  1  0  0  0  0
 14 15  1  0  0  0  0
 14 32  1  0  0  0  0
 14 33  1  0  0  0  0
 15 16  1  0  0  0  0
 15 34  1  0  0  0  0
 15 35  1  0  0  0  0
 16 17  1  0  0  0  0
 17 18  1  0  0  0  0
 17 36  1  0  0  0  0
 17 37  1  0  0  0  0
 18 38  1  0  0  0  0
 18 39  1  0  0  0  0
 19 20  2  0  0  0  0
 19 40  1  0  0  0  0
 21 22  1  0  0  0  0
 21 23  1  0  0  0  0
 21 41  1  0  0  0  0
 22 42  1  0  0  0  0
 22 43  1  0  0  0  0
 22 44  1  0  0  0  0
 23 45  1  0  0  0  0
 23 46  1  0  0  0  0
 23 47  1  0  0  0  0
M  END
> <s_m_source_file>
AV-unprocessed.smi

> <i_m_source_file_index>
1446

> <i_lp_mmshare_version>
43012

> <i_f3d_flags>
0

> <s_epik_input>
W0NIM11DKD1PKVtOSF1bQ0BASF0oW0NIXShbQ0gzXSlbQ0gzXSlDKD1PKVtOSF1jMVtjSF1bY0hdYyhbY0hdbjEpTjJbQ0gyXVtDSDJdT1tDSDJdW0NIMl0y

> <s_epik_cmdline>
J2VwaWtfcHl0aG9uJywgJy1waCcsICc3LjAnLCAnLXRuJywgJzgnLCAnLW1hJywgJzIwMCcsICctbWV0YWxfYmluZGluZycsICctaW1hZScsICc8aW5maWxlLm1hZT4nLCAnLW9tYWUnLCAnPG91dGZpbGUubWFlPic=

> <r_lp_tautomer_probability>
1

> <r_epik_Ionization_Penalty>
0.00298315

> <r_epik_Ionization_Penalty_Charging>
0

> <r_epik_Ionization_Penalty_Neutral>
0.00298315

> <r_epik_State_Penalty>
0.0038483

> <r_epik_Charging_Adjusted_Penalty>
0.0038483

> <i_epik_Tot_Q>
0

> <i_epik_Tot_abs_Q>
0

> <r_epik_Metal_State_Penalty>
-0

> <b_epik_Metal_Only>
0

> <s_lp_Force_Field>
OPLS_2005

> <r_lp_Energy>
27.8209

> <b_lp_Chiralities_Consistent>
1

> <s_lp_Variant>
AV-unprocessed.smi:1446-2

> <Gold.Version>
5.8.1

> <Gold.Id.Protein>
6NUR|6NUR_protein|mol2

> <Gold.PLP.Fitness>
38.3961

> <Gold.PLP.PLP>
-33.8333

> <Gold.PLP.part.hbond>
-2.0000

> <Gold.PLP.part.metal>
0.0000

> <Gold.PLP.part.buried>
-4.1156

> <Gold.PLP.part.nonpolar>
-29.5483

> <Gold.PLP.part.repulsive>
2.3213

> <Gold.PLP.ligand.clash>
0.2605

> <Gold.PLP.ligand.torsion>
0.7767

> <Gold.PLP.Chemscore.Hbond>
2.0000

> <Gold.PLP.Chemscore.CHOScore>
0.0000

> <Gold.PLP.Chemscore.Metal>
0.0000

> <Gold.Chemscore.Hbonds>
donor molecule, donor type, donor heavy atom, donor atom, acceptor molecule, acceptor atom, score
      L1  H     4    27       P1 10747  0.93
      P1  H  7997  8008       L1    16  1.00

> <Gold.PLP.Chemscore.Internal.Correction>
0.3767

> <Gold.Rescore>
     Score         DG    S(hbond)    S(metal)    S(lipo)     H(rot)  DE(clash)    DE(int)     intcor
     14.45     -16.69       1.93        0.00      78.68       1.74       0.11       2.13       ----

> <Gold.Chemscore.Fitness>
14.4483

> <Gold.Chemscore.DG>
-16.6922

> <Gold.Chemscore.ZeroCoef>
-5.4800

> <Gold.Chemscore.Hbond>
1.9340

> <Gold.Chemscore.Metal>
0.0000

> <Gold.Chemscore.Lipo>
78.6780

> <Gold.Chemscore.Internal_Hbond>
0.0000

> <Gold.Chemscore.DEClash>
0.1113

> <Gold.Chemscore.DEInternal>
2.1325

> <Gold.Chemscore.Rot>
1.7394

> <Gold.Chemscore.Internal.Correction>
   9.000000E+99

> <Gold.Chemscore.Hbonds>
donor molecule, donor type, donor heavy atom, donor atom, acceptor molecule, acceptor atom, score
      L1  H     4    27       P1 10747  0.89
      P1  H  7997  8008       L1    16  0.25

> <Gold.Chemscore.Hbond.Weighted>
-6.4596

> <Gold.Chemscore.Metal.Weighted>
-0.0000

> <Gold.Chemscore.Lipo.Weighted>
-9.2053

> <Gold.Chemscore.Internal_Hbond.Weighted>
0.0000

> <Gold.Chemscore.DEClash.Weighted>
0.1113

> <Gold.Chemscore.DEInternal.Weighted>
2.1325

> <Gold.Chemscore.Rot.Weighted>
4.4528

> <Gold.Chemscore.Internal.Correction.Weighted>
   9.000000E+99

> <Gold.Protein.RotatedTorsions>
[ 6907 6896 6895 6894 ] final  -54.50 input  -60.11 | X-H torsion
[ 7974 7965 7964 7962 ] final   51.06 input  175.53 | X-H torsion
[ 8008 7997 7996 7995 ] final  -70.91 input   59.86 | X-H torsion
[ 10167 10162 10161 10158 ] final -147.43 input  -65.29 | X-H torsion
[ 10718 10713 10712 10709 ] final -179.99 input   66.30 | X-H torsion
[ 10763 10752 10751 10750 ] final  -16.13 input  -60.55 | X-H torsion
[ 11005 11000 10999 10996 ] final  -13.66 input  -57.11 | X-H torsion

> <Gold.Protein.ActiveResidues>
 VAL166  LYS551  ARG553  GLY616  TRP617  ASP618  TYR619  PRO620  LYS621  CYS622 
 ASP623  PHE694  ASN695  SER759  ASP760  ASP761  ALA762  ILE779  LEU786  VAL792 
 PHE793  MET794  SER795  GLU796  ALA797  LYS798  CYS799  TRP800  GLU811  SER814 

> <Gold.Protein.RotatedAtoms>
  150.8332  134.7595  159.6871 H   0  0  0  0  0  0  0  0  0  0  0  0  # atno 6907 bound_to 6896
  152.4433  134.5542  159.9885 H   0  0  0  0  0  0  0  0  0  0  0  0  # atno 6908 bound_to 6896
  151.5698  133.3354  159.3023 H   0  0  0  0  0  0  0  0  0  0  0  0  # atno 6909 bound_to 6896
  145.9951  139.4379  143.0050 H   0  0  0  0  0  0  0  0  0  0  0  0  # atno 7974 bound_to 7965
  154.5047  140.0825  156.7870 H   0  0  0  0  0  0  0  0  0  0  0  0  # atno 8008 bound_to 7997
  155.3920  140.3433  155.4234 H   0  0  0  0  0  0  0  0  0  0  0  0  # atno 8009 bound_to 7997
  156.1501  140.1556  156.8771 H   0  0  0  0  0  0  0  0  0  0  0  0  # atno 8010 bound_to 7997
  139.7623  143.8359  152.2609 H   0  0  0  0  0  0  0  0  0  0  0  0  # atno 10167 bound_to 10162
  156.8673  130.9772  151.3077 H   0  0  0  0  0  0  0  0  0  0  0  0  # atno 10718 bound_to 10713
  153.5539  135.7011  153.5578 H   0  0  0  0  0  0  0  0  0  0  0  0  # atno 10763 bound_to 10752
  153.3490  135.4000  155.1631 H   0  0  0  0  0  0  0  0  0  0  0  0  # atno 10764 bound_to 10752
  154.8657  135.3761  154.5052 H   0  0  0  0  0  0  0  0  0  0  0  0  # atno 10765 bound_to 10752
  140.7784  133.8382  155.9270 H   0  0  0  0  0  0  0  0  0  0  0  0  # atno 11005 bound_to 11000
  145.7572  140.9949  143.1219 LP  0  0  0  0  0  0  0  0  0  0  0  0  # atno 17320 bound_to 7965
  144.6901  139.9286  143.7471 LP  0  0  0  0  0  0  0  0  0  0  0  0  # atno 17321 bound_to 7965
  139.8368  144.7228  150.9380 LP  0  0  0  0  0  0  0  0  0  0  0  0  # atno 17342 bound_to 10162
  140.7808  143.4019  151.1135 LP  0  0  0  0  0  0  0  0  0  0  0  0  # atno 17343 bound_to 10162
  157.6216  130.8659  149.9118 LP  0  0  0  0  0  0  0  0  0  0  0  0  # atno 17370 bound_to 10713
  156.0745  130.3680  150.0707 LP  0  0  0  0  0  0  0  0  0  0  0  0  # atno 17371 bound_to 10713
  140.9506  134.1783  157.4730 LP  0  0  0  0  0  0  0  0  0  0  0  0  # atno 17394 bound_to 11000
  139.8746  134.9907  156.5517 LP  0  0  0  0  0  0  0  0  0  0  0  0  # atno 17395 bound_to 11000

$$$$
