AV-unprocessed.smi:1795|AV-procd|sdf|7249|dock9
  -GOLD-   22720 8503D 1   1.00000     0.00000
 Structure written by MMmdl.
 48 49  0  0  0  0  0  0  0  0  2 V2000
  152.3023  131.7757  163.8928 C   0  0  0  0  0  0  0  0  0  0  0  0
  153.3011  132.5718  164.7403 C   0  0  2  0  0  0  0  0  0  0  0  0
  153.8832  133.7743  163.9757 C   0  0  0  0  0  0  0  0  0  0  0  0
  154.8924  134.4952  164.7980 N   0  3  2  0  0  0  0  0  0  0  0  0
  155.3910  135.7430  164.1311 C   0  0  1  0  0  0  0  0  0  0  0  0
  156.1951  135.3716  162.8640 C   0  0  0  0  0  0  0  0  0  0  0  0
  154.2696  136.7662  163.7959 C   0  0  0  0  0  0  0  0  0  0  0  0
  154.7576  137.9091  163.0283 N   0  0  0  0  0  0  0  0  0  0  0  0
  154.2952  138.2971  161.8295 C   0  0  0  0  0  0  0  0  0  0  0  0
  153.3668  137.7341  161.2485 O   0  0  0  0  0  0  0  0  0  0  0  0
  154.9913  139.5097  161.1971 C   0  0  0  0  0  0  0  0  0  0  0  0
  154.1011  140.6753  161.0670 N   0  0  0  0  0  0  0  0  0  0  0  0
  153.8726  141.4441  162.2258 C   0  0  0  0  0  0  0  0  0  0  0  0
  153.0774  142.5256  162.2148 C   0  0  0  0  0  0  0  0  0  0  0  0
  152.4470  142.8969  160.9700 C   0  0  0  0  0  0  0  0  0  0  0  0
  152.6559  142.1668  159.8563 C   0  0  0  0  0  0  0  0  0  0  0  0
  153.5223  140.9824  159.8644 C   0  0  0  0  0  0  0  0  0  0  0  0
  153.7158  140.3067  158.8526 O   0  0  0  0  0  0  0  0  0  0  0  0
  155.9351  133.5343  165.2518 C   0  0  0  0  0  0  0  0  0  0  0  0
  155.3012  132.3266  165.9696 C   0  0  2  0  0  0  0  0  0  0  0  0
  156.3468  131.2813  166.3739 C   0  0  0  0  0  0  0  0  0  0  0  0
  154.3645  131.7011  165.1027 O   0  0  0  0  0  0  0  0  0  0  0  0
  151.4622  132.3994  163.5861 H   0  0  0  0  0  0  0  0  0  0  0  0
  151.9005  130.9316  164.4542 H   0  0  0  0  0  0  0  0  0  0  0  0
  152.7732  131.3816  162.9918 H   0  0  0  0  0  0  0  0  0  0  0  0
  152.7920  132.9185  165.6415 H   0  0  0  0  0  0  0  0  0  0  0  0
  154.3483  133.4351  163.0484 H   0  0  0  0  0  0  0  0  0  0  0  0
  153.0659  134.4349  163.6923 H   0  0  0  0  0  0  0  0  0  0  0  0
  156.0678  136.2396  164.8286 H   0  0  0  0  0  0  0  0  0  0  0  0
  156.6657  136.2450  162.4138 H   0  0  0  0  0  0  0  0  0  0  0  0
  155.5505  134.9195  162.1097 H   0  0  0  0  0  0  0  0  0  0  0  0
  157.0038  134.6720  163.0660 H   0  0  0  0  0  0  0  0  0  0  0  0
  153.4460  136.2726  163.2769 H   0  0  0  0  0  0  0  0  0  0  0  0
  153.8525  137.1891  164.7095 H   0  0  0  0  0  0  0  0  0  0  0  0
  155.5185  138.4363  163.4318 H   0  0  0  0  0  0  0  0  0  0  0  0
  155.8649  139.7528  161.8036 H   0  0  0  0  0  0  0  0  0  0  0  0
  155.3893  139.2395  160.2168 H   0  0  0  0  0  0  0  0  0  0  0  0
  154.3754  141.0971  163.1170 H   0  0  0  0  0  0  0  0  0  0  0  0
  152.9111  143.1010  163.1135 H   0  0  0  0  0  0  0  0  0  0  0  0
  151.8037  143.7638  160.9323 H   0  0  0  0  0  0  0  0  0  0  0  0
  152.1751  142.4597  158.9344 H   0  0  0  0  0  0  0  0  0  0  0  0
  156.5220  133.2014  164.3940 H   0  0  0  0  0  0  0  0  0  0  0  0
  156.6189  134.0087  165.9551 H   0  0  0  0  0  0  0  0  0  0  0  0
  154.7855  132.6646  166.8704 H   0  0  0  0  0  0  0  0  0  0  0  0
  157.0830  131.7053  167.0573 H   0  0  0  0  0  0  0  0  0  0  0  0
  156.8800  130.8980  165.5032 H   0  0  0  0  0  0  0  0  0  0  0  0
  155.8776  130.4347  166.8757 H   0  0  0  0  0  0  0  0  0  0  0  0
  154.4221  134.8003  165.6385 H   0  0  0  0  0  0  0  0  0  0  0  0
  1  2  1  0  0  0  0
  1 23  1  0  0  0  0
  1 24  1  0  0  0  0
  1 25  1  0  0  0  0
  2 22  1  0  0  0  0
  2  3  1  0  0  0  0
  2 26  1  0  0  0  0
  3  4  1  0  0  0  0
  3 27  1  0  0  0  0
  3 28  1  0  0  0  0
  4  5  1  0  0  0  0
  4 19  1  0  0  0  0
  4 48  1  0  0  0  0
  5  6  1  0  0  0  0
  5  7  1  0  0  0  0
  5 29  1  0  0  0  0
  6 30  1  0  0  0  0
  6 31  1  0  0  0  0
  6 32  1  0  0  0  0
  7  8  1  0  0  0  0
  7 33  1  0  0  0  0
  7 34  1  0  0  0  0
  8  9  1  0  0  0  0
  8 35  1  0  0  0  0
  9 10  2  0  0  0  0
  9 11  1  0  0  0  0
 11 12  1  0  0  0  0
 11 36  1  0  0  0  0
 11 37  1  0  0  0  0
 12 17  1  0  0  0  0
 12 13  1  0  0  0  0
 13 14  2  0  0  0  0
 13 38  1  0  0  0  0
 14 15  1  0  0  0  0
 14 39  1  0  0  0  0
 15 16  2  0  0  0  0
 15 40  1  0  0  0  0
 16 17  1  0  0  0  0
 16 41  1  0  0  0  0
 17 18  2  0  0  0  0
 19 20  1  0  0  0  0
 19 42  1  0  0  0  0
 19 43  1  0  0  0  0
 20 21  1  0  0  0  0
 20 22  1  0  0  0  0
 20 44  1  0  0  0  0
 21 45  1  0  0  0  0
 21 46  1  0  0  0  0
 21 47  1  0  0  0  0
M  CHG  1   4   1
M  END
> <s_m_source_file>
AV-unprocessed.smi

> <i_m_source_file_index>
1795

> <i_lp_mmshare_version>
43012

> <i_f3d_flags>
0

> <s_epik_input>
W0NIM11bQ0BASF0xW0NIMl1OKFtDSDJdW0NASF0oTzEpW0NIM10pW0NASF0oW0NIM10pW0NIMl1bTkhdQyg9TylbQ0gyXW4yW2NIXVtjSF1bY0hdW2NIXWMyPU8=

> <s_epik_cmdline>
J2VwaWtfcHl0aG9uJywgJy1waCcsICc3LjAnLCAnLXRuJywgJzgnLCAnLW1hJywgJzIwMCcsICctbWV0YWxfYmluZGluZycsICctaW1hZScsICc8aW5maWxlLm1hZT4nLCAnLW9tYWUnLCAnPG91dGZpbGUubWFlPic=

> <r_lp_tautomer_probability>
1

> <r_epik_Ionization_Penalty>
0.656654

> <r_epik_Ionization_Penalty_Charging>
0.656654

> <r_epik_Ionization_Penalty_Neutral>
8.90321e-08

> <r_epik_State_Penalty>
0.675641

> <r_epik_Charging_Adjusted_Penalty>
1.33229

> <i_epik_Tot_Q>
1

> <i_epik_Tot_abs_Q>
1

> <r_epik_Metal_State_Penalty>
0.675691

> <b_epik_Metal_Only>
0

> <s_lp_Force_Field>
OPLS_2005

> <r_lp_Energy>
27.2799

> <b_lp_Chiralities_Consistent>
1

> <s_lp_Variant>
AV-unprocessed.smi:1795-13

> <Gold.Version>
5.8.1

> <Gold.Id.Protein>
6NUR|6NUR_protein|mol2

> <Gold.PLP.Fitness>
46.0883

> <Gold.PLP.PLP>
-43.7921

> <Gold.PLP.part.hbond>
-2.0000

> <Gold.PLP.part.metal>
0.0000

> <Gold.PLP.part.buried>
-3.9990

> <Gold.PLP.part.nonpolar>
-36.7626

> <Gold.PLP.part.repulsive>
0.0562

> <Gold.PLP.ligand.clash>
0.0000

> <Gold.PLP.ligand.torsion>
0.3459

> <Gold.PLP.Chemscore.Hbond>
0.9760

> <Gold.PLP.Chemscore.CHOScore>
0.0000

> <Gold.PLP.Chemscore.Metal>
0.0000

> <Gold.Chemscore.Hbonds>
donor molecule, donor type, donor heavy atom, donor atom, acceptor molecule, acceptor atom, score
      P1  H  7997  8008       L1    18  0.86

> <Gold.PLP.Chemscore.Internal.Correction>
0.0600

> <Gold.Rescore>
     Score         DG    S(hbond)    S(metal)    S(lipo)     H(rot)  DE(clash)    DE(int)     intcor
     14.69     -16.13       0.96        0.00     104.87       1.89       1.13       0.32       ----

> <Gold.Chemscore.Fitness>
14.6881

> <Gold.Chemscore.DG>
-16.1324

> <Gold.Chemscore.ZeroCoef>
-5.4800

> <Gold.Chemscore.Hbond>
0.9621

> <Gold.Chemscore.Metal>
0.0000

> <Gold.Chemscore.Lipo>
104.8706

> <Gold.Chemscore.Internal_Hbond>
0.0000

> <Gold.Chemscore.DEClash>
1.1281

> <Gold.Chemscore.DEInternal>
0.3162

> <Gold.Chemscore.Rot>
1.8870

> <Gold.Chemscore.Internal.Correction>
   9.000000E+99

> <Gold.Chemscore.Hbonds>
donor molecule, donor type, donor heavy atom, donor atom, acceptor molecule, acceptor atom, score
      P1  H  7997  8008       L1    18  0.82

> <Gold.Chemscore.Hbond.Weighted>
-3.2133

> <Gold.Chemscore.Metal.Weighted>
-0.0000

> <Gold.Chemscore.Lipo.Weighted>
-12.2699

> <Gold.Chemscore.Internal_Hbond.Weighted>
0.0000

> <Gold.Chemscore.DEClash.Weighted>
1.1281

> <Gold.Chemscore.DEInternal.Weighted>
0.3162

> <Gold.Chemscore.Rot.Weighted>
4.8308

> <Gold.Chemscore.Internal.Correction.Weighted>
   9.000000E+99

> <Gold.Protein.RotatedTorsions>
[ 6907 6896 6895 6894 ] final  -57.53 input  -60.11 | X-H torsion
[ 7974 7965 7964 7962 ] final  115.31 input  175.53 | X-H torsion
[ 8008 7997 7996 7995 ] final -106.72 input   59.86 | X-H torsion
[ 10167 10162 10161 10158 ] final   97.88 input  -65.29 | X-H torsion
[ 10718 10713 10712 10709 ] final    0.47 input   66.30 | X-H torsion
[ 10763 10752 10751 10750 ] final   36.07 input  -60.55 | X-H torsion
[ 11005 11000 10999 10996 ] final   88.37 input  -57.11 | X-H torsion

> <Gold.Protein.ActiveResidues>
 VAL166  LYS551  ARG553  GLY616  TRP617  ASP618  TYR619  PRO620  LYS621  CYS622 
 ASP623  PHE694  ASN695  SER759  ASP760  ASP761  ALA762  ILE779  LEU786  VAL792 
 PHE793  MET794  SER795  GLU796  ALA797  LYS798  CYS799  TRP800  GLU811  SER814 

> <Gold.Protein.RotatedAtoms>
  150.8078  134.7215  159.6660 H   0  0  0  0  0  0  0  0  0  0  0  0  # atno 6907 bound_to 6896
  152.4198  134.5972  160.0000 H   0  0  0  0  0  0  0  0  0  0  0  0  # atno 6908 bound_to 6896
  151.6191  133.3303  159.3120 H   0  0  0  0  0  0  0  0  0  0  0  0  # atno 6909 bound_to 6896
  145.1936  139.2987  143.4355 H   0  0  0  0  0  0  0  0  0  0  0  0  # atno 7974 bound_to 7965
  154.9186  140.0408  157.1986 H   0  0  0  0  0  0  0  0  0  0  0  0  # atno 8008 bound_to 7997
  154.8276  140.2894  155.5723 H   0  0  0  0  0  0  0  0  0  0  0  0  # atno 8009 bound_to 7997
  156.2984  140.2507  156.3195 H   0  0  0  0  0  0  0  0  0  0  0  0  # atno 8010 bound_to 7997
  139.7760  144.6905  151.0089 H   0  0  0  0  0  0  0  0  0  0  0  0  # atno 10167 bound_to 10162
  156.8338  130.5497  149.5684 H   0  0  0  0  0  0  0  0  0  0  0  0  # atno 10718 bound_to 10713
  153.0092  135.6316  154.1927 H   0  0  0  0  0  0  0  0  0  0  0  0  # atno 10763 bound_to 10752
  154.1670  135.2820  155.3094 H   0  0  0  0  0  0  0  0  0  0  0  0  # atno 10764 bound_to 10752
  154.5938  135.5609  153.7365 H   0  0  0  0  0  0  0  0  0  0  0  0  # atno 10765 bound_to 10752
  139.8898  134.8483  156.2990 H   0  0  0  0  0  0  0  0  0  0  0  0  # atno 11005 bound_to 11000
  146.3431  140.2157  142.8590 LP  0  0  0  0  0  0  0  0  0  0  0  0  # atno 17320 bound_to 7965
  145.0017  140.8637  143.5278 LP  0  0  0  0  0  0  0  0  0  0  0  0  # atno 17321 bound_to 7965
  140.7816  143.4535  151.0379 LP  0  0  0  0  0  0  0  0  0  0  0  0  # atno 17342 bound_to 10162
  139.8217  143.7811  152.3177 LP  0  0  0  0  0  0  0  0  0  0  0  0  # atno 17343 bound_to 10162
  156.0919  130.5902  150.9747 LP  0  0  0  0  0  0  0  0  0  0  0  0  # atno 17370 bound_to 10713
  157.6392  131.0912  150.8285 LP  0  0  0  0  0  0  0  0  0  0  0  0  # atno 17371 bound_to 10713
  140.9926  133.7200  156.0836 LP  0  0  0  0  0  0  0  0  0  0  0  0  # atno 17394 bound_to 11000
  140.7605  134.3944  157.5526 LP  0  0  0  0  0  0  0  0  0  0  0  0  # atno 17395 bound_to 11000

$$$$
