AV-unprocessed.smi:2807|AV-procd|sdf|10822|dock7
  -GOLD-   2272015263D 1   1.00000     0.00000
 Structure written by MMmdl.
 31 32  0  0  0  0  0  0  0  0  2 V2000
  148.9108  142.1291  157.2972 O   0  0  0  0  0  0  0  0  0  0  0  0
  149.5393  141.1798  156.8152 C   0  0  0  0  0  0  0  0  0  0  0  0
  149.1410  140.2392  155.9118 N   0  5  0  0  0  0  0  0  0  0  0  0
  149.1397  140.4318  154.4570 C   0  0  2  0  0  0  0  0  0  0  0  0
  148.2682  141.6466  154.1040 C   0  0  0  0  0  0  0  0  0  0  0  0
  146.8286  141.1269  153.9307 C   0  0  0  0  0  0  0  0  0  0  0  0
  146.9173  139.5948  153.8557 C   0  0  0  0  0  0  0  0  0  0  0  0
  148.4139  139.2819  153.7328 C   0  0  2  0  0  0  0  0  0  0  0  0
  148.7415  137.9891  154.2055 O   0  0  0  0  0  0  0  0  0  0  0  0
  150.9987  140.9597  157.2672 C   0  0  0  0  0  0  0  0  0  0  0  0
  151.1123  139.7681  157.8640 F   0  0  0  0  0  0  0  0  0  0  0  0
  151.7855  140.9406  156.1881 F   0  0  0  0  0  0  0  0  0  0  0  0
  151.4578  142.0871  158.1911 C   0  0  0  0  0  0  0  0  0  0  0  0
  151.4670  143.4269  157.7402 C   0  0  0  0  0  0  0  0  0  0  0  0
  151.8830  144.4369  158.6284 C   0  0  0  0  0  0  0  0  0  0  0  0
  152.2756  144.0754  159.9309 C   0  0  0  0  0  0  0  0  0  0  0  0
  152.2330  142.7134  160.2884 C   0  0  0  0  0  0  0  0  0  0  0  0
  151.8370  141.7376  159.4443 N   0  0  0  0  0  0  0  0  0  0  0  0
  150.1444  140.5594  154.0508 H   0  0  0  0  0  0  0  0  0  0  0  0
  148.3352  142.4506  154.8388 H   0  0  0  0  0  0  0  0  0  0  0  0
  148.6091  142.0606  153.1542 H   0  0  0  0  0  0  0  0  0  0  0  0
  146.2009  141.4270  154.7712 H   0  0  0  0  0  0  0  0  0  0  0  0
  146.3785  141.5419  153.0281 H   0  0  0  0  0  0  0  0  0  0  0  0
  146.5053  139.1617  154.7701 H   0  0  0  0  0  0  0  0  0  0  0  0
  146.3453  139.1873  153.0216 H   0  0  0  0  0  0  0  0  0  0  0  0
  148.6889  139.3244  152.6780 H   0  0  0  0  0  0  0  0  0  0  0  0
  148.9021  137.4370  153.4554 H   0  0  0  0  0  0  0  0  0  0  0  0
  151.1528  143.6747  156.7370 H   0  0  0  0  0  0  0  0  0  0  0  0
  151.8989  145.4707  158.3165 H   0  0  0  0  0  0  0  0  0  0  0  0
  152.5995  144.8228  160.6397 H   0  0  0  0  0  0  0  0  0  0  0  0
  152.5266  142.3990  161.2789 H   0  0  0  0  0  0  0  0  0  0  0  0
  1  2  2  0  0  0  0
  2  3  1  0  0  0  0
  2 10  1  0  0  0  0
  3  4  1  0  0  0  0
  4  8  1  0  0  0  0
  4  5  1  0  0  0  0
  4 19  1  0  0  0  0
  5  6  1  0  0  0  0
  5 20  1  0  0  0  0
  5 21  1  0  0  0  0
  6  7  1  0  0  0  0
  6 22  1  0  0  0  0
  6 23  1  0  0  0  0
  7  8  1  0  0  0  0
  7 24  1  0  0  0  0
  7 25  1  0  0  0  0
  8  9  1  0  0  0  0
  8 26  1  0  0  0  0
  9 27  1  0  0  0  0
 10 11  1  0  0  0  0
 10 12  1  0  0  0  0
 10 13  1  0  0  0  0
 13 18  1  0  0  0  0
 13 14  2  0  0  0  0
 14 15  1  0  0  0  0
 14 28  1  0  0  0  0
 15 16  2  0  0  0  0
 15 29  1  0  0  0  0
 16 17  1  0  0  0  0
 16 30  1  0  0  0  0
 17 18  2  0  0  0  0
 17 31  1  0  0  0  0
M  CHG  1   3  -1
M  END
> <s_m_source_file>
AV-unprocessed.smi

> <i_m_source_file_index>
2807

> <i_lp_mmshare_version>
43012

> <i_f3d_flags>
0

> <s_epik_input>
bjFbY0hdW2NIXVtjSF1bY0hdYzFDKEYpKEYpQyg9TylbTkhdW0NAQEhdMltDSDJdW0NIMl1bQ0gyXVtDQEhdMltPSF0=

> <s_epik_cmdline>
J2VwaWtfcHl0aG9uJywgJy1waCcsICc3LjAnLCAnLXRuJywgJzgnLCAnLW1hJywgJzIwMCcsICctbWV0YWxfYmluZGluZycsICctaW1hZScsICc8aW5maWxlLm1hZT4nLCAnLW9tYWUnLCAnPG91dGZpbGUubWFlPic=

> <r_lp_tautomer_probability>
1

> <r_epik_Ionization_Penalty>
5.72231

> <r_epik_Ionization_Penalty_Charging>
5.72231

> <r_epik_Ionization_Penalty_Neutral>
5.49816e-06

> <r_epik_State_Penalty>
5.72227

> <r_epik_Charging_Adjusted_Penalty>
11.4446

> <i_epik_Tot_Q>
-1

> <i_epik_Tot_abs_Q>
1

> <r_epik_Metal_State_Penalty>
1.70075

> <b_epik_Metal_Only>
1

> <s_lp_Force_Field>
OPLS_2005

> <r_lp_Energy>
37.6883

> <b_lp_Chiralities_Consistent>
1

> <s_lp_Variant>
AV-unprocessed.smi:2807-7

> <Gold.Version>
5.8.1

> <Gold.Id.Protein>
6NUR|6NUR_protein|mol2

> <Gold.PLP.Fitness>
36.2718

> <Gold.PLP.PLP>
-34.8779

> <Gold.PLP.part.hbond>
-1.0000

> <Gold.PLP.part.metal>
0.0000

> <Gold.PLP.part.buried>
-3.1069

> <Gold.PLP.part.nonpolar>
-31.6557

> <Gold.PLP.part.repulsive>
0.9834

> <Gold.PLP.ligand.clash>
0.0056

> <Gold.PLP.ligand.torsion>
0.8367

> <Gold.PLP.Chemscore.Hbond>
1.0000

> <Gold.PLP.Chemscore.CHOScore>
0.0000

> <Gold.PLP.Chemscore.Metal>
0.0000

> <Gold.Chemscore.Hbonds>
donor molecule, donor type, donor heavy atom, donor atom, acceptor molecule, acceptor atom, score
      L1  H     9    27       P1  7948  1.00

> <Gold.PLP.Chemscore.Internal.Correction>
0.0729

> <Gold.Rescore>
     Score         DG    S(hbond)    S(metal)    S(lipo)     H(rot)  DE(clash)    DE(int)     intcor
     12.44     -14.77       0.99        0.00      94.74       2.00       0.22       2.11       ----

> <Gold.Chemscore.Fitness>
12.4365

> <Gold.Chemscore.DG>
-14.7659

> <Gold.Chemscore.ZeroCoef>
-5.4800

> <Gold.Chemscore.Hbond>
0.9918

> <Gold.Chemscore.Metal>
0.0000

> <Gold.Chemscore.Lipo>
94.7367

> <Gold.Chemscore.Internal_Hbond>
0.0000

> <Gold.Chemscore.DEClash>
0.2176

> <Gold.Chemscore.DEInternal>
2.1118

> <Gold.Chemscore.Rot>
1.9964

> <Gold.Chemscore.Internal.Correction>
   9.000000E+99

> <Gold.Chemscore.Hbonds>
donor molecule, donor type, donor heavy atom, donor atom, acceptor molecule, acceptor atom, score
      L1  H     9    27       P1  7948  0.97

> <Gold.Chemscore.Hbond.Weighted>
-3.3125

> <Gold.Chemscore.Metal.Weighted>
-0.0000

> <Gold.Chemscore.Lipo.Weighted>
-11.0842

> <Gold.Chemscore.Internal_Hbond.Weighted>
0.0000

> <Gold.Chemscore.DEClash.Weighted>
0.2176

> <Gold.Chemscore.DEInternal.Weighted>
2.1118

> <Gold.Chemscore.Rot.Weighted>
5.1108

> <Gold.Chemscore.Internal.Correction.Weighted>
   9.000000E+99

> <Gold.Protein.RotatedTorsions>
[ 6907 6896 6895 6894 ] final  105.07 input  -60.11 | X-H torsion
[ 7974 7965 7964 7962 ] final  -24.21 input  175.53 | X-H torsion
[ 8008 7997 7996 7995 ] final  -88.45 input   59.86 | X-H torsion
[ 10167 10162 10161 10158 ] final -160.34 input  -65.29 | X-H torsion
[ 10718 10713 10712 10709 ] final  -14.20 input   66.30 | X-H torsion
[ 10763 10752 10751 10750 ] final   35.36 input  -60.55 | X-H torsion
[ 11005 11000 10999 10996 ] final  100.21 input  -57.11 | X-H torsion

> <Gold.Protein.ActiveResidues>
 VAL166  LYS551  ARG553  GLY616  TRP617  ASP618  TYR619  PRO620  LYS621  CYS622 
 ASP623  PHE694  ASN695  SER759  ASP760  ASP761  ALA762  ILE779  LEU786  VAL792 
 PHE793  MET794  SER795  GLU796  ALA797  LYS798  CYS799  TRP800  GLU811  SER814 

> <Gold.Protein.RotatedAtoms>
  152.5243  133.9583  159.7704 H   0  0  0  0  0  0  0  0  0  0  0  0  # atno 6907 bound_to 6896
  150.9879  133.6171  159.2719 H   0  0  0  0  0  0  0  0  0  0  0  0  # atno 6908 bound_to 6896
  151.3324  135.0851  159.9396 H   0  0  0  0  0  0  0  0  0  0  0  0  # atno 6909 bound_to 6896
  146.1569  140.4720  142.8588 H   0  0  0  0  0  0  0  0  0  0  0  0  # atno 7974 bound_to 7965
  154.6750  140.0553  157.0206 H   0  0  0  0  0  0  0  0  0  0  0  0  # atno 8008 bound_to 7997
  155.1034  140.3231  155.4522 H   0  0  0  0  0  0  0  0  0  0  0  0  # atno 8009 bound_to 7997
  156.2672  140.2027  156.6159 H   0  0  0  0  0  0  0  0  0  0  0  0  # atno 8010 bound_to 7997
  139.6547  144.0021  152.2185 H   0  0  0  0  0  0  0  0  0  0  0  0  # atno 10167 bound_to 10162
  156.6193  130.4871  149.6171 H   0  0  0  0  0  0  0  0  0  0  0  0  # atno 10718 bound_to 10713
  153.0122  135.6335  154.1815 H   0  0  0  0  0  0  0  0  0  0  0  0  # atno 10763 bound_to 10752
  154.1556  135.2826  155.3125 H   0  0  0  0  0  0  0  0  0  0  0  0  # atno 10764 bound_to 10752
  154.6020  135.5584  153.7445 H   0  0  0  0  0  0  0  0  0  0  0  0  # atno 10765 bound_to 10752
  139.8771  134.9130  156.4722 H   0  0  0  0  0  0  0  0  0  0  0  0  # atno 11005 bound_to 11000
  144.7975  140.6150  143.6500 LP  0  0  0  0  0  0  0  0  0  0  0  0  # atno 17320 bound_to 7965
  145.4686  139.1505  143.3826 LP  0  0  0  0  0  0  0  0  0  0  0  0  # atno 17321 bound_to 7965
  139.9744  144.6471  150.7959 LP  0  0  0  0  0  0  0  0  0  0  0  0  # atno 17342 bound_to 10162
  140.7553  143.3044  151.2998 LP  0  0  0  0  0  0  0  0  0  0  0  0  # atno 17343 bound_to 10162
  156.2325  130.6803  151.1477 LP  0  0  0  0  0  0  0  0  0  0  0  0  # atno 17370 bound_to 10713
  157.7232  131.0668  150.6046 LP  0  0  0  0  0  0  0  0  0  0  0  0  # atno 17371 bound_to 10713
  140.8788  133.7933  155.9444 LP  0  0  0  0  0  0  0  0  0  0  0  0  # atno 17394 bound_to 11000
  140.8876  134.2535  157.5111 LP  0  0  0  0  0  0  0  0  0  0  0  0  # atno 17395 bound_to 11000

$$$$
