AV-unprocessed.smi:1557|AV-procd|sdf|6270|dock7
  -GOLD-   22720 6463D 1   1.00000     0.00000
 Structure written by MMmdl.
 41 42  0  0  0  0  0  0  0  0  1 V2000
  147.7487  141.5184  154.7970 C   0  0  0  0  0  0  0  0  0  0  0  0
  149.1138  140.8919  154.5034 C   0  0  0  0  0  0  0  0  0  0  0  0
  149.3258  139.8161  155.4120 O   0  0  0  0  0  0  0  0  0  0  0  0
  150.5546  139.1840  155.4194 C   0  0  0  0  0  0  0  0  0  0  0  0
  151.5217  139.6391  154.5837 N   0  0  0  0  0  0  0  0  0  0  0  0
  152.7195  139.0186  154.5892 C   0  0  0  0  0  0  0  0  0  0  0  0
  153.0132  137.9171  155.4139 C   0  0  0  0  0  0  0  0  0  0  0  0
  152.0119  137.4436  156.2819 C   0  0  0  0  0  0  0  0  0  0  0  0
  150.7549  138.0949  156.2988 C   0  0  0  0  0  0  0  0  0  0  0  0
  149.6702  137.6874  157.1222 N   0  0  0  0  0  0  0  0  0  0  0  0
  149.7050  136.9369  158.2356 C   0  0  0  0  0  0  0  0  0  0  0  0
  150.7178  136.4412  158.7298 O   0  0  0  0  0  0  0  0  0  0  0  0
  148.4811  136.8091  158.7692 N   0  0  0  0  0  0  0  0  0  0  0  0
  148.1696  136.1250  160.0252 C   0  0  2  0  0  0  0  0  0  0  0  0
  147.5997  134.7258  159.6809 C   0  0  0  0  0  0  0  0  0  0  0  0
  146.8415  133.9957  160.8121 C   0  0  0  0  0  0  0  0  0  0  0  0
  147.5137  134.0588  162.1990 C   0  0  0  0  0  0  0  0  0  0  0  0
  147.6996  135.4679  162.8198 C   0  0  0  0  0  0  0  0  0  0  0  0
  146.9689  136.5407  162.1443 N   0  0  0  0  0  0  0  0  0  0  0  0
  147.1412  136.9153  160.8654 C   0  0  0  0  0  0  0  0  0  0  0  0
  146.4854  137.8323  160.3720 O   0  0  0  0  0  0  0  0  0  0  0  0
  147.5472  142.3484  154.1195 H   0  0  0  0  0  0  0  0  0  0  0  0
  147.7048  141.9010  155.8170 H   0  0  0  0  0  0  0  0  0  0  0  0
  146.9486  140.7873  154.6780 H   0  0  0  0  0  0  0  0  0  0  0  0
  149.1365  140.5316  153.4736 H   0  0  0  0  0  0  0  0  0  0  0  0
  149.8943  141.6458  154.6166 H   0  0  0  0  0  0  0  0  0  0  0  0
  153.4640  139.4077  153.9106 H   0  0  0  0  0  0  0  0  0  0  0  0
  153.9828  137.4431  155.3787 H   0  0  0  0  0  0  0  0  0  0  0  0
  152.2205  136.5863  156.9032 H   0  0  0  0  0  0  0  0  0  0  0  0
  148.7765  138.0958  156.8902 H   0  0  0  0  0  0  0  0  0  0  0  0
  147.7099  137.2569  158.2965 H   0  0  0  0  0  0  0  0  0  0  0  0
  149.0932  136.0102  160.5944 H   0  0  0  0  0  0  0  0  0  0  0  0
  146.9291  134.7978  158.8229 H   0  0  0  0  0  0  0  0  0  0  0  0
  148.4272  134.0955  159.3525 H   0  0  0  0  0  0  0  0  0  0  0  0
  145.8274  134.3910  160.8872 H   0  0  0  0  0  0  0  0  0  0  0  0
  146.7149  132.9509  160.5267 H   0  0  0  0  0  0  0  0  0  0  0  0
  146.9114  133.4626  162.8853 H   0  0  0  0  0  0  0  0  0  0  0  0
  148.4818  133.5579  162.1558 H   0  0  0  0  0  0  0  0  0  0  0  0
  147.3837  135.4492  163.8631 H   0  0  0  0  0  0  0  0  0  0  0  0
  148.7588  135.7277  162.8439 H   0  0  0  0  0  0  0  0  0  0  0  0
  146.2869  137.0438  162.6933 H   0  0  0  0  0  0  0  0  0  0  0  0
  1  2  1  0  0  0  0
  1 22  1  0  0  0  0
  1 23  1  0  0  0  0
  1 24  1  0  0  0  0
  2  3  1  0  0  0  0
  2 25  1  0  0  0  0
  2 26  1  0  0  0  0
  3  4  1  0  0  0  0
  4  9  1  0  0  0  0
  4  5  2  0  0  0  0
  5  6  1  0  0  0  0
  6  7  2  0  0  0  0
  6 27  1  0  0  0  0
  7  8  1  0  0  0  0
  7 28  1  0  0  0  0
  8  9  2  0  0  0  0
  8 29  1  0  0  0  0
  9 10  1  0  0  0  0
 10 11  1  0  0  0  0
 10 30  1  0  0  0  0
 11 12  2  0  0  0  0
 11 13  1  0  0  0  0
 13 14  1  0  0  0  0
 13 31  1  0  0  0  0
 14 20  1  0  0  0  0
 14 15  1  0  0  0  0
 14 32  1  0  0  0  0
 15 16  1  0  0  0  0
 15 33  1  0  0  0  0
 15 34  1  0  0  0  0
 16 17  1  0  0  0  0
 16 35  1  0  0  0  0
 16 36  1  0  0  0  0
 17 18  1  0  0  0  0
 17 37  1  0  0  0  0
 17 38  1  0  0  0  0
 18 19  1  0  0  0  0
 18 39  1  0  0  0  0
 18 40  1  0  0  0  0
 19 20  1  0  0  0  0
 19 41  1  0  0  0  0
 20 21  2  0  0  0  0
M  END
> <s_m_source_file>
AV-unprocessed.smi

> <i_m_source_file_index>
1557

> <i_lp_mmshare_version>
43012

> <i_f3d_flags>
0

> <s_epik_input>
W0NIM11bQ0gyXU9jMW5bY0hdW2NIXVtjSF1jMVtOSF1DKD1PKVtOSF1bQ0BASF0yW0NIMl1bQ0gyXVtDSDJdW0NIMl1bTkhdQzI9Tw==

> <s_epik_cmdline>
J2VwaWtfcHl0aG9uJywgJy1waCcsICc3LjAnLCAnLXRuJywgJzgnLCAnLW1hJywgJzIwMCcsICctbWV0YWxfYmluZGluZycsICctaW1hZScsICc8aW5maWxlLm1hZT4nLCAnLW9tYWUnLCAnPG91dGZpbGUubWFlPic=

> <r_lp_tautomer_probability>
1

> <r_epik_Ionization_Penalty>
0.000101084

> <r_epik_Ionization_Penalty_Charging>
0

> <r_epik_Ionization_Penalty_Neutral>
0.000101084

> <r_epik_State_Penalty>
-0

> <r_epik_Charging_Adjusted_Penalty>
0

> <i_epik_Tot_Q>
0

> <i_epik_Tot_abs_Q>
0

> <r_epik_Metal_State_Penalty>
-0

> <b_epik_Metal_Only>
0

> <s_lp_Force_Field>
OPLS_2005

> <r_lp_Energy>
17.7694

> <b_lp_Chiralities_Consistent>
1

> <s_lp_Variant>
AV-unprocessed.smi:1557-1

> <Gold.Version>
5.8.1

> <Gold.Id.Protein>
6NUR|6NUR_protein|mol2

> <Gold.PLP.Fitness>
40.0425

> <Gold.PLP.PLP>
-31.7234

> <Gold.PLP.part.hbond>
-3.0000

> <Gold.PLP.part.metal>
0.0000

> <Gold.PLP.part.buried>
-2.2437

> <Gold.PLP.part.nonpolar>
-26.1993

> <Gold.PLP.part.repulsive>
0.3941

> <Gold.PLP.ligand.clash>
0.0000

> <Gold.PLP.ligand.torsion>
0.3437

> <Gold.PLP.Chemscore.Hbond>
3.0000

> <Gold.PLP.Chemscore.CHOScore>
0.0000

> <Gold.PLP.Chemscore.Metal>
0.0000

> <Gold.Chemscore.Hbonds>
donor molecule, donor type, donor heavy atom, donor atom, acceptor molecule, acceptor atom, score
      P1  H  6896  6907       L1    12  0.98
      P1  H  6934  6947       L1    21  0.86
      P1  H  7989  7998       L1     5  1.00

> <Gold.PLP.Chemscore.Internal.Correction>
0.0066

> <Gold.Rescore>
     Score         DG    S(hbond)    S(metal)    S(lipo)     H(rot)  DE(clash)    DE(int)     intcor
     16.44     -18.27       2.37        0.00      74.42       1.49       0.27       1.56       ----

> <Gold.Chemscore.Fitness>
16.4444

> <Gold.Chemscore.DG>
-18.2700

> <Gold.Chemscore.ZeroCoef>
-5.4800

> <Gold.Chemscore.Hbond>
2.3681

> <Gold.Chemscore.Metal>
0.0000

> <Gold.Chemscore.Lipo>
74.4215

> <Gold.Chemscore.Internal_Hbond>
0.0000

> <Gold.Chemscore.DEClash>
0.2662

> <Gold.Chemscore.DEInternal>
1.5594

> <Gold.Chemscore.Rot>
1.4948

> <Gold.Chemscore.Internal.Correction>
   9.000000E+99

> <Gold.Chemscore.Hbonds>
donor molecule, donor type, donor heavy atom, donor atom, acceptor molecule, acceptor atom, score
      P1  H  6896  6907       L1    12  0.93
      P1  H  6934  6947       L1    21  0.33
      P1  H  7989  7998       L1     5  0.55

> <Gold.Chemscore.Hbond.Weighted>
-7.9094

> <Gold.Chemscore.Metal.Weighted>
-0.0000

> <Gold.Chemscore.Lipo.Weighted>
-8.7073

> <Gold.Chemscore.Internal_Hbond.Weighted>
0.0000

> <Gold.Chemscore.DEClash.Weighted>
0.2662

> <Gold.Chemscore.DEInternal.Weighted>
1.5594

> <Gold.Chemscore.Rot.Weighted>
3.8268

> <Gold.Chemscore.Internal.Correction.Weighted>
   9.000000E+99

> <Gold.Protein.RotatedTorsions>
[ 6907 6896 6895 6894 ] final  -31.61 input  -60.11 | X-H torsion
[ 7974 7965 7964 7962 ] final  176.47 input  175.53 | X-H torsion
[ 8008 7997 7996 7995 ] final   46.89 input   59.86 | X-H torsion
[ 10167 10162 10161 10158 ] final   -0.27 input  -65.29 | X-H torsion
[ 10718 10713 10712 10709 ] final  115.27 input   66.30 | X-H torsion
[ 10763 10752 10751 10750 ] final   -0.59 input  -60.55 | X-H torsion
[ 11005 11000 10999 10996 ] final    4.93 input  -57.11 | X-H torsion

> <Gold.Protein.ActiveResidues>
 VAL166  LYS551  ARG553  GLY616  TRP617  ASP618  TYR619  PRO620  LYS621  CYS622 
 ASP623  PHE694  ASN695  SER759  ASP760  ASP761  ALA762  ILE779  LEU786  VAL792 
 PHE793  MET794  SER795  GLU796  ALA797  LYS798  CYS799  TRP800  GLU811  SER814 

> <Gold.Protein.RotatedAtoms>
  151.0897  134.9909  159.8396 H   0  0  0  0  0  0  0  0  0  0  0  0  # atno 6907 bound_to 6896
  152.5428  134.2080  159.8749 H   0  0  0  0  0  0  0  0  0  0  0  0  # atno 6908 bound_to 6896
  151.2116  133.4509  159.2632 H   0  0  0  0  0  0  0  0  0  0  0  0  # atno 6909 bound_to 6896
  144.7184  140.0101  143.6440 H   0  0  0  0  0  0  0  0  0  0  0  0  # atno 7974 bound_to 7965
  155.3600  140.3418  155.4240 H   0  0  0  0  0  0  0  0  0  0  0  0  # atno 8008 bound_to 7997
  156.1719  140.1634  156.8467 H   0  0  0  0  0  0  0  0  0  0  0  0  # atno 8009 bound_to 7997
  154.5242  140.0760  156.8210 H   0  0  0  0  0  0  0  0  0  0  0  0  # atno 8010 bound_to 7997
  140.6760  143.6914  150.8025 H   0  0  0  0  0  0  0  0  0  0  0  0  # atno 10167 bound_to 10162
  157.6232  131.1010  150.7305 H   0  0  0  0  0  0  0  0  0  0  0  0  # atno 10718 bound_to 10713
  153.3338  135.6976  153.6925 H   0  0  0  0  0  0  0  0  0  0  0  0  # atno 10763 bound_to 10752
  153.5716  135.3515  155.2841 H   0  0  0  0  0  0  0  0  0  0  0  0  # atno 10764 bound_to 10752
  154.8623  135.4273  154.2534 H   0  0  0  0  0  0  0  0  0  0  0  0  # atno 10765 bound_to 10752
  140.5764  134.0054  155.8029 H   0  0  0  0  0  0  0  0  0  0  0  0  # atno 11005 bound_to 11000
  146.0265  139.3297  143.0781 LP  0  0  0  0  0  0  0  0  0  0  0  0  # atno 17320 bound_to 7965
  145.8505  140.9531  143.0752 LP  0  0  0  0  0  0  0  0  0  0  0  0  # atno 17321 bound_to 7965
  140.0607  143.5158  152.2629 LP  0  0  0  0  0  0  0  0  0  0  0  0  # atno 17342 bound_to 10162
  139.6053  144.7594  151.3076 LP  0  0  0  0  0  0  0  0  0  0  0  0  # atno 17343 bound_to 10162
  156.7658  130.4813  149.5428 LP  0  0  0  0  0  0  0  0  0  0  0  0  # atno 17370 bound_to 10713
  156.1389  130.6230  151.0439 LP  0  0  0  0  0  0  0  0  0  0  0  0  # atno 17371 bound_to 10713
  141.1024  133.9747  157.3056 LP  0  0  0  0  0  0  0  0  0  0  0  0  # atno 17394 bound_to 11000
  139.9337  135.0198  156.8487 LP  0  0  0  0  0  0  0  0  0  0  0  0  # atno 17395 bound_to 11000

$$$$
