AV-unprocessed.smi:2560|AV-procd|sdf|10038|dock5
  -GOLD-   2272014 83D 1   1.00000     0.00000
 Structure written by MMmdl.
 31 32  0  0  0  0  0  0  0  0  1 V2000
  149.2346  133.6400  154.5260 C   0  0  0  0  0  0  0  0  0  0  0  0
  150.2585  133.9772  155.9849 S   0  0  0  0  0  0  0  0  0  0  0  0
  150.7120  135.6778  155.8748 C   0  0  0  0  0  0  0  0  0  0  0  0
  151.2708  136.1678  154.7533 N   0  0  0  0  0  0  0  0  0  0  0  0
  151.5790  137.8147  154.9807 S   0  0  0  0  0  0  0  0  0  0  0  0
  150.9296  137.7451  156.5926 C   0  0  0  0  0  0  0  0  0  0  0  0
  150.8711  138.8857  157.4454 N   0  0  0  0  0  0  0  0  0  0  0  0
  151.7725  139.8623  157.6858 C   0  0  0  0  0  0  0  0  0  0  0  0
  152.8676  139.8676  157.1265 O   0  0  0  0  0  0  0  0  0  0  0  0
  151.3984  140.8095  158.5617 N   0  0  0  0  0  0  0  0  0  0  0  0
  152.1919  141.9613  158.9726 C   0  0  2  0  0  0  0  0  0  0  0  0
  152.7519  141.7032  160.3628 C   0  0  0  0  0  0  0  0  0  0  0  0
  152.7414  142.6093  161.3554 C   0  0  0  0  0  0  0  0  0  0  0  0
  152.1831  144.0113  161.2017 C   0  0  0  0  0  0  0  0  0  0  0  0
  151.9894  144.3963  159.7248 C   0  0  0  0  0  0  0  0  0  0  0  0
  151.3466  143.2559  158.9209 C   0  0  0  0  0  0  0  0  0  0  0  0
  150.5107  136.5188  156.9044 N   0  0  0  0  0  0  0  0  0  0  0  0
  148.9120  132.5991  154.5254 H   0  0  0  0  0  0  0  0  0  0  0  0
  149.7989  133.8277  153.6123 H   0  0  0  0  0  0  0  0  0  0  0  0
  148.3494  134.2764  154.5251 H   0  0  0  0  0  0  0  0  0  0  0  0
  150.0060  138.9800  157.9576 H   0  0  0  0  0  0  0  0  0  0  0  0
  150.4796  140.7250  158.9730 H   0  0  0  0  0  0  0  0  0  0  0  0
  153.0503  142.0596  158.3060 H   0  0  0  0  0  0  0  0  0  0  0  0
  153.1740  140.7252  160.5433 H   0  0  0  0  0  0  0  0  0  0  0  0
  153.1358  142.3464  162.3258 H   0  0  0  0  0  0  0  0  0  0  0  0
  151.2320  144.0574  161.7329 H   0  0  0  0  0  0  0  0  0  0  0  0
  152.8539  144.7214  161.6857 H   0  0  0  0  0  0  0  0  0  0  0  0
  151.3832  145.2996  159.6527 H   0  0  0  0  0  0  0  0  0  0  0  0
  152.9572  144.6391  159.2841 H   0  0  0  0  0  0  0  0  0  0  0  0
  151.1984  143.5656  157.8858 H   0  0  0  0  0  0  0  0  0  0  0  0
  150.3525  143.0636  159.3276 H   0  0  0  0  0  0  0  0  0  0  0  0
  1  2  1  0  0  0  0
  1 18  1  0  0  0  0
  1 19  1  0  0  0  0
  1 20  1  0  0  0  0
  2  3  1  0  0  0  0
  3 17  1  0  0  0  0
  3  4  2  0  0  0  0
  4  5  1  0  0  0  0
  5  6  1  0  0  0  0
  6  7  1  0  0  0  0
  6 17  2  0  0  0  0
  7  8  1  0  0  0  0
  7 21  1  0  0  0  0
  8  9  2  0  0  0  0
  8 10  1  0  0  0  0
 10 11  1  0  0  0  0
 10 22  1  0  0  0  0
 11 16  1  0  0  0  0
 11 12  1  0  0  0  0
 11 23  1  0  0  0  0
 12 13  2  0  0  0  0
 12 24  1  0  0  0  0
 13 14  1  0  0  0  0
 13 25  1  0  0  0  0
 14 15  1  0  0  0  0
 14 26  1  0  0  0  0
 14 27  1  0  0  0  0
 15 16  1  0  0  0  0
 15 28  1  0  0  0  0
 15 29  1  0  0  0  0
 16 30  1  0  0  0  0
 16 31  1  0  0  0  0
M  END
> <s_m_source_file>
AV-unprocessed.smi

> <i_m_source_file_index>
2560

> <i_lp_mmshare_version>
43012

> <i_f3d_flags>
0

> <s_epik_input>
W0NIM11TYzFuc2MobjEpW05IXUMoPU8pW05IXVtDQEBIXTJbQ0hdPVtDSF1bQ0gyXVtDSDJdW0NIMl0y

> <s_epik_cmdline>
J2VwaWtfcHl0aG9uJywgJy1waCcsICc3LjAnLCAnLXRuJywgJzgnLCAnLW1hJywgJzIwMCcsICctbWV0YWxfYmluZGluZycsICctaW1hZScsICc8aW5maWxlLm1hZT4nLCAnLW9tYWUnLCAnPG91dGZpbGUubWFlPic=

> <r_lp_tautomer_probability>
1

> <r_epik_Ionization_Penalty>
2.65559e-05

> <r_epik_Ionization_Penalty_Charging>
0

> <r_epik_Ionization_Penalty_Neutral>
2.65559e-05

> <r_epik_State_Penalty>
-0

> <r_epik_Charging_Adjusted_Penalty>
0

> <i_epik_Tot_Q>
0

> <i_epik_Tot_abs_Q>
0

> <r_epik_Metal_State_Penalty>
-0

> <b_epik_Metal_Only>
0

> <s_lp_Force_Field>
OPLS_2005

> <r_lp_Energy>
8.21818

> <b_lp_Chiralities_Consistent>
1

> <s_lp_Variant>
AV-unprocessed.smi:2560-1

> <Gold.Version>
5.8.1

> <Gold.Id.Protein>
6NUR|6NUR_protein|mol2

> <Gold.PLP.Fitness>
37.5134

> <Gold.PLP.PLP>
-32.6669

> <Gold.PLP.part.hbond>
-2.0000

> <Gold.PLP.part.metal>
0.0000

> <Gold.PLP.part.buried>
-4.1448

> <Gold.PLP.part.nonpolar>
-27.0111

> <Gold.PLP.part.repulsive>
0.3277

> <Gold.PLP.ligand.clash>
0.0000

> <Gold.PLP.ligand.torsion>
0.5800

> <Gold.PLP.Chemscore.Hbond>
2.0000

> <Gold.PLP.Chemscore.CHOScore>
0.0000

> <Gold.PLP.Chemscore.Metal>
0.0000

> <Gold.Chemscore.Hbonds>
donor molecule, donor type, donor heavy atom, donor atom, acceptor molecule, acceptor atom, score
      P1  H  7997  8010       L1     9  0.99
      P1  H 10752 10763       L1     4  0.95

> <Gold.PLP.Chemscore.Internal.Correction>
0.0065

> <Gold.Rescore>
     Score         DG    S(hbond)    S(metal)    S(lipo)     H(rot)  DE(clash)    DE(int)     intcor
     16.47     -17.02       1.63        0.00      79.60       1.25       0.07       0.47       ----

> <Gold.Chemscore.Fitness>
16.4690

> <Gold.Chemscore.DG>
-17.0170

> <Gold.Chemscore.ZeroCoef>
-5.4800

> <Gold.Chemscore.Hbond>
1.6257

> <Gold.Chemscore.Metal>
0.0000

> <Gold.Chemscore.Lipo>
79.5999

> <Gold.Chemscore.Internal_Hbond>
0.0000

> <Gold.Chemscore.DEClash>
0.0742

> <Gold.Chemscore.DEInternal>
0.4739

> <Gold.Chemscore.Rot>
1.2524

> <Gold.Chemscore.Internal.Correction>
   9.000000E+99

> <Gold.Chemscore.Hbonds>
donor molecule, donor type, donor heavy atom, donor atom, acceptor molecule, acceptor atom, score
      P1  H  7997  8010       L1     9  0.93
      P1  H 10752 10763       L1     4  0.19

> <Gold.Chemscore.Hbond.Weighted>
-5.4300

> <Gold.Chemscore.Metal.Weighted>
-0.0000

> <Gold.Chemscore.Lipo.Weighted>
-9.3132

> <Gold.Chemscore.Internal_Hbond.Weighted>
0.0000

> <Gold.Chemscore.DEClash.Weighted>
0.0742

> <Gold.Chemscore.DEInternal.Weighted>
0.4739

> <Gold.Chemscore.Rot.Weighted>
3.2062

> <Gold.Chemscore.Internal.Correction.Weighted>
   9.000000E+99

> <Gold.Protein.RotatedTorsions>
[ 6907 6896 6895 6894 ] final -157.00 input  -60.11 | X-H torsion
[ 7974 7965 7964 7962 ] final    8.85 input  175.53 | X-H torsion
[ 8008 7997 7996 7995 ] final   75.27 input   59.86 | X-H torsion
[ 10167 10162 10161 10158 ] final   10.34 input  -65.29 | X-H torsion
[ 10718 10713 10712 10709 ] final  154.76 input   66.30 | X-H torsion
[ 10763 10752 10751 10750 ] final   51.39 input  -60.55 | X-H torsion
[ 11005 11000 10999 10996 ] final -148.32 input  -57.11 | X-H torsion

> <Gold.Protein.ActiveResidues>
 VAL166  LYS551  ARG553  GLY616  TRP617  ASP618  TYR619  PRO620  LYS621  CYS622 
 ASP623  PHE694  ASN695  SER759  ASP760  ASP761  ALA762  ILE779  LEU786  VAL792 
 PHE793  MET794  SER795  GLU796  ALA797  LYS798  CYS799  TRP800  GLU811  SER814 

> <Gold.Protein.RotatedAtoms>
  151.2963  133.4142  159.2636 H   0  0  0  0  0  0  0  0  0  0  0  0  # atno 6907 bound_to 6896
  151.0234  134.9486  159.8082 H   0  0  0  0  0  0  0  0  0  0  0  0  # atno 6908 bound_to 6896
  152.5329  134.2925  159.9101 H   0  0  0  0  0  0  0  0  0  0  0  0  # atno 6909 bound_to 6896
  146.2411  139.9872  142.8429 H   0  0  0  0  0  0  0  0  0  0  0  0  # atno 7974 bound_to 7965
  155.8104  140.3473  155.5454 H   0  0  0  0  0  0  0  0  0  0  0  0  # atno 8008 bound_to 7997
  155.8446  140.0947  157.1733 H   0  0  0  0  0  0  0  0  0  0  0  0  # atno 8009 bound_to 7997
  154.4006  140.1388  156.3757 H   0  0  0  0  0  0  0  0  0  0  0  0  # atno 8010 bound_to 7997
  140.6200  143.8225  150.7164 H   0  0  0  0  0  0  0  0  0  0  0  0  # atno 10167 bound_to 10162
  157.2274  131.0731  151.1874 H   0  0  0  0  0  0  0  0  0  0  0  0  # atno 10718 bound_to 10713
  152.9785  135.5847  154.4408 H   0  0  0  0  0  0  0  0  0  0  0  0  # atno 10763 bound_to 10752
  154.4009  135.2769  155.2099 H   0  0  0  0  0  0  0  0  0  0  0  0  # atno 10764 bound_to 10752
  154.3930  135.6121  153.5908 H   0  0  0  0  0  0  0  0  0  0  0  0  # atno 10765 bound_to 10752
  140.7624  134.3283  157.5098 H   0  0  0  0  0  0  0  0  0  0  0  0  # atno 11005 bound_to 11000
  145.1537  140.9636  143.4418 LP  0  0  0  0  0  0  0  0  0  0  0  0  # atno 17320 bound_to 7965
  145.0181  139.3449  143.6086 LP  0  0  0  0  0  0  0  0  0  0  0  0  # atno 17321 bound_to 7965
  140.1813  143.4113  152.1931 LP  0  0  0  0  0  0  0  0  0  0  0  0  # atno 17342 bound_to 10162
  139.5431  144.7274  151.4671 LP  0  0  0  0  0  0  0  0  0  0  0  0  # atno 17343 bound_to 10162
  157.3513  130.7084  149.6443 LP  0  0  0  0  0  0  0  0  0  0  0  0  # atno 17370 bound_to 10713
  155.9678  130.4251  150.4641 LP  0  0  0  0  0  0  0  0  0  0  0  0  # atno 17371 bound_to 10713
  139.8768  134.9210  156.3265 LP  0  0  0  0  0  0  0  0  0  0  0  0  # atno 17394 bound_to 11000
  140.9651  133.7363  156.0455 LP  0  0  0  0  0  0  0  0  0  0  0  0  # atno 17395 bound_to 11000

$$$$
