AV-unprocessed.smi:3214|AV-procd|sdf|12283|dock8
  -GOLD-   2272018123D 1   1.00000     0.00000
 Structure written by MMmdl.
 37 37  0  0  0  0  0  0  0  0  2 V2000
  146.9037  133.0468  152.0562 C   0  0  0  0  0  0  0  0  0  0  0  0
  145.8194  134.1225  152.2018 C   0  0  0  0  0  0  0  0  0  0  0  0
  146.3426  135.4519  151.9083 N   0  0  0  0  0  0  0  0  0  0  0  0
  145.6106  136.5755  151.8556 C   0  0  0  0  0  0  0  0  0  0  0  0
  144.3964  136.6005  152.0576 O   0  0  0  0  0  0  0  0  0  0  0  0
  146.3715  137.8616  151.5167 C   0  0  0  0  0  0  0  0  0  0  0  0
  146.6516  138.7420  152.7472 C   0  0  0  0  0  0  0  0  0  0  0  0
  148.1050  138.8538  152.9928 N   0  3  0  0  0  0  0  0  0  0  0  0
  148.4900  139.5955  154.2148 C   0  0  2  0  0  0  0  0  0  0  0  0
  147.8141  140.9772  154.2008 C   0  0  0  0  0  0  0  0  0  0  0  0
  150.0285  139.6904  154.3499 C   0  0  0  0  0  0  0  0  0  0  0  0
  150.4539  140.4556  155.5085 N   0  0  0  0  0  0  0  0  0  0  0  0
  150.2504  141.7931  155.7767 C   0  0  0  0  0  0  0  0  0  0  0  0
  150.8432  142.0610  156.9772 C   0  0  0  0  0  0  0  0  0  0  0  0
  151.3975  140.8100  157.3676 C   0  0  0  0  0  0  0  0  0  0  0  0
  151.1662  139.8521  156.4842 N   0  0  0  0  0  0  0  0  0  0  0  0
  146.5070  132.0623  152.3045 H   0  0  0  0  0  0  0  0  0  0  0  0
  147.7451  133.2423  152.7220 H   0  0  0  0  0  0  0  0  0  0  0  0
  147.2860  133.0018  151.0357 H   0  0  0  0  0  0  0  0  0  0  0  0
  144.9700  133.8953  151.5554 H   0  0  0  0  0  0  0  0  0  0  0  0
  145.4387  134.1243  153.2235 H   0  0  0  0  0  0  0  0  0  0  0  0
  147.3335  135.5194  151.7258 H   0  0  0  0  0  0  0  0  0  0  0  0
  147.3143  137.5969  151.0353 H   0  0  0  0  0  0  0  0  0  0  0  0
  145.7895  138.4200  150.7826 H   0  0  0  0  0  0  0  0  0  0  0  0
  146.2400  139.7413  152.5963 H   0  0  0  0  0  0  0  0  0  0  0  0
  146.1612  138.3180  153.6237 H   0  0  0  0  0  0  0  0  0  0  0  0
  148.5096  137.9291  153.0301 H   0  0  0  0  0  0  0  0  0  0  0  0
  148.0926  139.0510  155.0727 H   0  0  0  0  0  0  0  0  0  0  0  0
  147.9888  141.5210  155.1296 H   0  0  0  0  0  0  0  0  0  0  0  0
  146.7339  140.8839  154.0840 H   0  0  0  0  0  0  0  0  0  0  0  0
  148.1856  141.5923  153.3806 H   0  0  0  0  0  0  0  0  0  0  0  0
  150.4760  138.6995  154.4277 H   0  0  0  0  0  0  0  0  0  0  0  0
  150.4543  140.1551  153.4594 H   0  0  0  0  0  0  0  0  0  0  0  0
  149.7060  142.4360  155.1008 H   0  0  0  0  0  0  0  0  0  0  0  0
  150.8780  143.0074  157.4965 H   0  0  0  0  0  0  0  0  0  0  0  0
  151.9581  140.5717  158.2594 H   0  0  0  0  0  0  0  0  0  0  0  0
  148.5024  139.3443  152.2043 H   0  0  0  0  0  0  0  0  0  0  0  0
  1  2  1  0  0  0  0
  1 17  1  0  0  0  0
  1 18  1  0  0  0  0
  1 19  1  0  0  0  0
  2  3  1  0  0  0  0
  2 20  1  0  0  0  0
  2 21  1  0  0  0  0
  3  4  1  0  0  0  0
  3 22  1  0  0  0  0
  4  5  2  0  0  0  0
  4  6  1  0  0  0  0
  6  7  1  0  0  0  0
  6 23  1  0  0  0  0
  6 24  1  0  0  0  0
  7  8  1  0  0  0  0
  7 25  1  0  0  0  0
  7 26  1  0  0  0  0
  8  9  1  0  0  0  0
  8 27  1  0  0  0  0
  8 37  1  0  0  0  0
  9 10  1  0  0  0  0
  9 11  1  0  0  0  0
  9 28  1  0  0  0  0
 10 29  1  0  0  0  0
 10 30  1  0  0  0  0
 10 31  1  0  0  0  0
 11 12  1  0  0  0  0
 11 32  1  0  0  0  0
 11 33  1  0  0  0  0
 12 16  1  0  0  0  0
 12 13  1  0  0  0  0
 13 14  2  0  0  0  0
 13 34  1  0  0  0  0
 14 15  1  0  0  0  0
 14 35  1  0  0  0  0
 15 16  2  0  0  0  0
 15 36  1  0  0  0  0
M  CHG  1   8   1
M  END
> <s_m_source_file>
AV-unprocessed.smi

> <i_m_source_file_index>
3214

> <i_lp_mmshare_version>
43012

> <i_f3d_flags>
0

> <s_epik_input>
W0NIM11bQ0gyXVtOSF1DKD1PKVtDSDJdW0NIMl1bTkhdW0NASF0oW0NIM10pW0NIMl1uMVtjSF1bY0hdW2NIXW4x

> <s_epik_cmdline>
J2VwaWtfcHl0aG9uJywgJy1waCcsICc3LjAnLCAnLXRuJywgJzgnLCAnLW1hJywgJzIwMCcsICctbWV0YWxfYmluZGluZycsICctaW1hZScsICc8aW5maWxlLm1hZT4nLCAnLW9tYWUnLCAnPG91dGZpbGUubWFlPic=

> <r_lp_tautomer_probability>
1

> <r_epik_Ionization_Penalty>
0.00598156

> <r_epik_Ionization_Penalty_Charging>
0.00597743

> <r_epik_Ionization_Penalty_Neutral>
4.12922e-06

> <r_epik_State_Penalty>
0.00439883

> <r_epik_Charging_Adjusted_Penalty>
0.0103763

> <i_epik_Tot_Q>
1

> <i_epik_Tot_abs_Q>
1

> <r_epik_Metal_State_Penalty>
-0

> <b_epik_Metal_Only>
0

> <s_lp_Force_Field>
OPLS_2005

> <r_lp_Energy>
5.54296

> <b_lp_Chiralities_Consistent>
1

> <s_lp_Variant>
AV-unprocessed.smi:3214-1

> <Gold.Version>
5.8.1

> <Gold.Id.Protein>
6NUR|6NUR_protein|mol2

> <Gold.PLP.Fitness>
44.1102

> <Gold.PLP.PLP>
-30.4393

> <Gold.PLP.part.hbond>
-3.0000

> <Gold.PLP.part.metal>
0.0000

> <Gold.PLP.part.buried>
0.5791

> <Gold.PLP.part.nonpolar>
-28.9403

> <Gold.PLP.part.repulsive>
1.0552

> <Gold.PLP.ligand.clash>
0.0000

> <Gold.PLP.ligand.torsion>
0.6644

> <Gold.PLP.Chemscore.Hbond>
3.9840

> <Gold.PLP.Chemscore.CHOScore>
0.9657

> <Gold.PLP.Chemscore.Metal>
0.0000

> <Gold.Chemscore.Hbonds>
donor molecule, donor type, donor heavy atom, donor atom, acceptor molecule, acceptor atom, score
      L1  H     3    22       P1  7948  1.00
      L1  H     8    27       P1  7948  1.43
      L1  H     8    37       P1  7957  1.00
      L1  C    13    34       P1  8028  0.91

> <Gold.PLP.Chemscore.Internal.Correction>
0.1505

> <Gold.Rescore>
     Score         DG    S(hbond)    S(metal)    S(lipo)     H(rot)  DE(clash)    DE(int)     intcor
     15.32     -16.52       2.85        0.00      65.39       2.39       0.51       0.69       ----

> <Gold.Chemscore.Fitness>
15.3195

> <Gold.Chemscore.DG>
-16.5172

> <Gold.Chemscore.ZeroCoef>
-5.4800

> <Gold.Chemscore.Hbond>
2.8493

> <Gold.Chemscore.Metal>
0.0000

> <Gold.Chemscore.Lipo>
65.3939

> <Gold.Chemscore.Internal_Hbond>
0.0000

> <Gold.Chemscore.DEClash>
0.5119

> <Gold.Chemscore.DEInternal>
0.6858

> <Gold.Chemscore.Rot>
2.3948

> <Gold.Chemscore.Internal.Correction>
   9.000000E+99

> <Gold.Chemscore.Hbonds>
donor molecule, donor type, donor heavy atom, donor atom, acceptor molecule, acceptor atom, score
      L1  H     3    22       P1  7948  0.98
      L1  H     8    27       P1  7948  0.71
      L1  H     8    37       P1  7957  1.00

> <Gold.Chemscore.Hbond.Weighted>
-9.5167

> <Gold.Chemscore.Metal.Weighted>
-0.0000

> <Gold.Chemscore.Lipo.Weighted>
-7.6511

> <Gold.Chemscore.Internal_Hbond.Weighted>
0.0000

> <Gold.Chemscore.DEClash.Weighted>
0.5119

> <Gold.Chemscore.DEInternal.Weighted>
0.6858

> <Gold.Chemscore.Rot.Weighted>
6.1306

> <Gold.Chemscore.Internal.Correction.Weighted>
   9.000000E+99

> <Gold.Protein.RotatedTorsions>
[ 6907 6896 6895 6894 ] final  105.87 input  -60.11 | X-H torsion
[ 7974 7965 7964 7962 ] final -172.20 input  175.53 | X-H torsion
[ 8008 7997 7996 7995 ] final  142.10 input   59.86 | X-H torsion
[ 10167 10162 10161 10158 ] final  -69.79 input  -65.29 | X-H torsion
[ 10718 10713 10712 10709 ] final   84.35 input   66.30 | X-H torsion
[ 10763 10752 10751 10750 ] final  -58.67 input  -60.55 | X-H torsion
[ 11005 11000 10999 10996 ] final   -7.93 input  -57.11 | X-H torsion

> <Gold.Protein.ActiveResidues>
 VAL166  LYS551  ARG553  GLY616  TRP617  ASP618  TYR619  PRO620  LYS621  CYS622 
 ASP623  PHE694  ASN695  SER759  ASP760  ASP761  ALA762  ILE779  LEU786  VAL792 
 PHE793  MET794  SER795  GLU796  ALA797  LYS798  CYS799  TRP800  GLU811  SER814 

> <Gold.Protein.RotatedAtoms>
  152.5215  133.9464  159.7650 H   0  0  0  0  0  0  0  0  0  0  0  0  # atno 6907 bound_to 6896
  150.9783  133.6263  159.2733 H   0  0  0  0  0  0  0  0  0  0  0  0  # atno 6908 bound_to 6896
  151.3450  135.0878  159.9437 H   0  0  0  0  0  0  0  0  0  0  0  0  # atno 6909 bound_to 6896
  144.7149  140.1808  143.6358 H   0  0  0  0  0  0  0  0  0  0  0  0  # atno 7974 bound_to 7965
  156.2955  140.2297  156.4673 H   0  0  0  0  0  0  0  0  0  0  0  0  # atno 8008 bound_to 7997
  154.7966  140.0451  157.1262 H   0  0  0  0  0  0  0  0  0  0  0  0  # atno 8009 bound_to 7997
  154.9583  140.3051  155.5046 H   0  0  0  0  0  0  0  0  0  0  0  0  # atno 8010 bound_to 7997
  140.5403  143.2315  151.7102 H   0  0  0  0  0  0  0  0  0  0  0  0  # atno 10167 bound_to 10162
  157.6896  131.0129  150.2659 H   0  0  0  0  0  0  0  0  0  0  0  0  # atno 10718 bound_to 10713
  154.2417  135.6342  153.5209 H   0  0  0  0  0  0  0  0  0  0  0  0  # atno 10763 bound_to 10752
  152.9929  135.5543  154.5903 H   0  0  0  0  0  0  0  0  0  0  0  0  # atno 10764 bound_to 10752
  154.5410  135.2895  155.1070 H   0  0  0  0  0  0  0  0  0  0  0  0  # atno 10765 bound_to 10752
  140.7180  133.8852  155.8799 H   0  0  0  0  0  0  0  0  0  0  0  0  # atno 11005 bound_to 11000
  145.8858  139.2348  143.1578 LP  0  0  0  0  0  0  0  0  0  0  0  0  # atno 17320 bound_to 7965
  145.9951  140.8569  143.0047 LP  0  0  0  0  0  0  0  0  0  0  0  0  # atno 17321 bound_to 7965
  139.4986  144.3979  152.0212 LP  0  0  0  0  0  0  0  0  0  0  0  0  # atno 17342 bound_to 10162
  140.3088  144.3562  150.6039 LP  0  0  0  0  0  0  0  0  0  0  0  0  # atno 17343 bound_to 10162
  156.3231  130.3789  149.7558 LP  0  0  0  0  0  0  0  0  0  0  0  0  # atno 17370 bound_to 10713
  156.5121  130.8177  151.3173 LP  0  0  0  0  0  0  0  0  0  0  0  0  # atno 17371 bound_to 10713
  141.0028  134.1127  157.4300 LP  0  0  0  0  0  0  0  0  0  0  0  0  # atno 17394 bound_to 11000
  139.8855  135.0073  156.6439 LP  0  0  0  0  0  0  0  0  0  0  0  0  # atno 17395 bound_to 11000

$$$$
