AV-unprocessed.smi:810|AV-procd|sdf|3809|dock2
  -GOLD-   22720 1243D 1   1.00000     0.00000
 Structure written by MMmdl.
 34 35  0  0  0  0  0  0  0  0  1 V2000
  149.4112  140.6399  157.0157 O   0  0  0  0  0  0  0  0  0  0  0  0
  149.3210  141.7402  156.4721 C   0  0  0  0  0  0  0  0  0  0  0  0
  150.0767  142.8136  156.7600 N   0  0  0  0  0  0  0  0  0  0  0  0
  151.1267  142.9265  157.7110 C   0  0  0  0  0  0  0  0  0  0  0  0
  151.8135  144.1303  158.0017 C   0  0  0  0  0  0  0  0  0  0  0  0
  152.8266  144.1150  158.9796 C   0  0  0  0  0  0  0  0  0  0  0  0
  153.1112  142.9016  159.6353 C   0  0  0  0  0  0  0  0  0  0  0  0
  152.4550  141.7505  159.3787 N   0  0  0  0  0  0  0  0  0  0  0  0
  151.4846  141.7727  158.4406 C   0  0  0  0  0  0  0  0  0  0  0  0
  148.4248  142.0231  155.5159 N   0  0  0  0  0  0  0  0  0  0  0  0
  147.4286  141.0946  154.9868 C   0  0  2  0  0  0  0  0  0  0  0  0
  148.0568  140.2460  153.8642 C   0  0  0  0  0  0  0  0  0  0  0  0
  147.0370  139.4020  153.0817 C   0  0  0  0  0  0  0  0  0  0  0  0
  147.6868  138.7284  152.0255 O   0  0  0  0  0  0  0  0  0  0  0  0
  146.1730  141.7949  154.4948 C   0  0  0  0  0  0  0  0  0  0  0  0
  146.2428  143.1231  153.7789 C   0  0  0  0  0  0  0  0  0  0  0  0
  145.6624  143.0446  155.1725 C   0  0  0  0  0  0  0  0  0  0  0  0
  149.8293  143.6700  156.2862 H   0  0  0  0  0  0  0  0  0  0  0  0
  151.5781  145.0608  157.5093 H   0  0  0  0  0  0  0  0  0  0  0  0
  153.3713  145.0149  159.2241 H   0  0  0  0  0  0  0  0  0  0  0  0
  153.8821  142.8559  160.3903 H   0  0  0  0  0  0  0  0  0  0  0  0
  150.9796  140.8343  158.2632 H   0  0  0  0  0  0  0  0  0  0  0  0
  148.4214  142.9565  155.1315 H   0  0  0  0  0  0  0  0  0  0  0  0
  147.1322  140.4073  155.7820 H   0  0  0  0  0  0  0  0  0  0  0  0
  148.5699  140.9080  153.1649 H   0  0  0  0  0  0  0  0  0  0  0  0
  148.8259  139.5956  154.2834 H   0  0  0  0  0  0  0  0  0  0  0  0
  146.5579  138.6635  153.7249 H   0  0  0  0  0  0  0  0  0  0  0  0
  146.2514  140.0351  152.6685 H   0  0  0  0  0  0  0  0  0  0  0  0
  148.3768  139.2825  151.6939 H   0  0  0  0  0  0  0  0  0  0  0  0
  145.4051  141.1087  154.1422 H   0  0  0  0  0  0  0  0  0  0  0  0
  147.2188  143.5918  153.6687 H   0  0  0  0  0  0  0  0  0  0  0  0
  145.5529  143.2837  152.9530 H   0  0  0  0  0  0  0  0  0  0  0  0
  144.5851  143.1554  155.2765 H   0  0  0  0  0  0  0  0  0  0  0  0
  146.2548  143.4601  155.9854 H   0  0  0  0  0  0  0  0  0  0  0  0
  1  2  2  0  0  0  0
  2  3  1  0  0  0  0
  2 10  1  0  0  0  0
  3  4  1  0  0  0  0
  3 18  1  0  0  0  0
  4  9  1  0  0  0  0
  4  5  2  0  0  0  0
  5  6  1  0  0  0  0
  5 19  1  0  0  0  0
  6  7  2  0  0  0  0
  6 20  1  0  0  0  0
  7  8  1  0  0  0  0
  7 21  1  0  0  0  0
  8  9  2  0  0  0  0
  9 22  1  0  0  0  0
 10 11  1  0  0  0  0
 10 23  1  0  0  0  0
 11 12  1  0  0  0  0
 11 15  1  0  0  0  0
 11 24  1  0  0  0  0
 12 13  1  0  0  0  0
 12 25  1  0  0  0  0
 12 26  1  0  0  0  0
 13 14  1  0  0  0  0
 13 27  1  0  0  0  0
 13 28  1  0  0  0  0
 14 29  1  0  0  0  0
 15 17  1  0  0  0  0
 15 16  1  0  0  0  0
 15 30  1  0  0  0  0
 16 17  1  0  0  0  0
 16 31  1  0  0  0  0
 16 32  1  0  0  0  0
 17 33  1  0  0  0  0
 17 34  1  0  0  0  0
M  END
> <s_m_source_file>
AV-unprocessed.smi

> <i_m_source_file_index>
810

> <i_lp_mmshare_version>
43012

> <i_f3d_flags>
0

> <s_epik_input>
W09IXVtDSDJdW0NIMl1bQ0BIXShbQ0hdMVtDSDJdW0NIMl0xKVtOSF1DKD1PKVtOSF1jMltjSF1bY0hdW2NIXW5bY0hdMg==

> <s_epik_cmdline>
J2VwaWtfcHl0aG9uJywgJy1waCcsICc3LjAnLCAnLXRuJywgJzgnLCAnLW1hJywgJzIwMCcsICctbWV0YWxfYmluZGluZycsICctaW1hZScsICc8aW5maWxlLm1hZT4nLCAnLW9tYWUnLCAnPG91dGZpbGUubWFlPic=

> <r_epik_Ionization_Penalty>
0.00486911

> <r_epik_Ionization_Penalty_Charging>
0

> <r_epik_Ionization_Penalty_Neutral>
0.00486911

> <r_epik_State_Penalty>
0.00350304

> <r_epik_Charging_Adjusted_Penalty>
0.00350304

> <i_epik_Tot_Q>
0

> <i_epik_Tot_abs_Q>
0

> <r_epik_Metal_State_Penalty>
-0

> <b_epik_Metal_Only>
0

> <s_lp_Force_Field>
OPLS_2005

> <r_lp_Energy>
17.5915

> <b_lp_Chiralities_Consistent>
1

> <s_lp_Variant>
AV-unprocessed.smi:810-1

> <Gold.Version>
5.8.1

> <Gold.Id.Protein>
6NUR|6NUR_protein|mol2

> <Gold.PLP.Fitness>
45.5206

> <Gold.PLP.PLP>
-37.9077

> <Gold.PLP.part.hbond>
-4.1702

> <Gold.PLP.part.metal>
0.0000

> <Gold.PLP.part.buried>
-4.3731

> <Gold.PLP.part.nonpolar>
-29.5132

> <Gold.PLP.part.repulsive>
0.1807

> <Gold.PLP.ligand.clash>
0.0000

> <Gold.PLP.ligand.torsion>
0.9706

> <Gold.PLP.Chemscore.Hbond>
2.8160

> <Gold.PLP.Chemscore.CHOScore>
0.0000

> <Gold.PLP.Chemscore.Metal>
0.0000

> <Gold.Chemscore.Hbonds>
donor molecule, donor type, donor heavy atom, donor atom, acceptor molecule, acceptor atom, score
      L1  H     3    18       P1  8028  1.00
      L1  H    10    23       P1  8028  0.80
      L1  H    14    29       P1  7957  0.94

> <Gold.PLP.Chemscore.Internal.Correction>
1.1063

> <Gold.Rescore>
     Score         DG    S(hbond)    S(metal)    S(lipo)     H(rot)  DE(clash)    DE(int)     intcor
     17.68     -20.00       2.94        0.00      90.66       2.31       0.00       2.31       ----

> <Gold.Chemscore.Fitness>
17.6832

> <Gold.Chemscore.DG>
-19.9970

> <Gold.Chemscore.ZeroCoef>
-5.4800

> <Gold.Chemscore.Hbond>
2.9410

> <Gold.Chemscore.Metal>
0.0000

> <Gold.Chemscore.Lipo>
90.6560

> <Gold.Chemscore.Internal_Hbond>
0.0000

> <Gold.Chemscore.DEClash>
0.0048

> <Gold.Chemscore.DEInternal>
2.3090

> <Gold.Chemscore.Rot>
2.3097

> <Gold.Chemscore.Internal.Correction>
   9.000000E+99

> <Gold.Chemscore.Hbonds>
donor molecule, donor type, donor heavy atom, donor atom, acceptor molecule, acceptor atom, score
      L1  H     3    18       P1  8028  0.93
      L1  H    10    23       P1  8028  0.79
      L1  H    14    29       P1  7957  0.88

> <Gold.Chemscore.Hbond.Weighted>
-9.8229

> <Gold.Chemscore.Metal.Weighted>
-0.0000

> <Gold.Chemscore.Lipo.Weighted>
-10.6068

> <Gold.Chemscore.Internal_Hbond.Weighted>
0.0000

> <Gold.Chemscore.DEClash.Weighted>
0.0048

> <Gold.Chemscore.DEInternal.Weighted>
2.3090

> <Gold.Chemscore.Rot.Weighted>
5.9127

> <Gold.Chemscore.Internal.Correction.Weighted>
   9.000000E+99

> <Gold.Protein.RotatedTorsions>
[ 6907 6896 6895 6894 ] final  132.29 input  -60.11 | X-H torsion
[ 7974 7965 7964 7962 ] final   -6.25 input  175.53 | X-H torsion
[ 8008 7997 7996 7995 ] final  105.46 input   59.86 | X-H torsion
[ 10167 10162 10161 10158 ] final  -57.39 input  -65.29 | X-H torsion
[ 10718 10713 10712 10709 ] final   31.33 input   66.30 | X-H torsion
[ 10763 10752 10751 10750 ] final  -22.39 input  -60.55 | X-H torsion
[ 11005 11000 10999 10996 ] final  -14.93 input  -57.11 | X-H torsion

> <Gold.Protein.ActiveResidues>
 VAL166  LYS551  ARG553  GLY616  TRP617  ASP618  TYR619  PRO620  LYS621  CYS622 
 ASP623  PHE694  ASN695  SER759  ASP760  ASP761  ALA762  ILE779  LEU786  VAL792 
 PHE793  MET794  SER795  GLU796  ALA797  LYS798  CYS799  TRP800  GLU811  SER814 

> <Gold.Protein.RotatedAtoms>
  152.3339  133.5990  159.5828 H   0  0  0  0  0  0  0  0  0  0  0  0  # atno 6907 bound_to 6896
  150.7439  133.9825  159.3590 H   0  0  0  0  0  0  0  0  0  0  0  0  # atno 6908 bound_to 6896
  151.7697  135.0790  160.0409 H   0  0  0  0  0  0  0  0  0  0  0  0  # atno 6909 bound_to 6896
  146.2335  140.2143  142.8336 H   0  0  0  0  0  0  0  0  0  0  0  0  # atno 7974 bound_to 7965
  156.1661  140.3130  155.8891 H   0  0  0  0  0  0  0  0  0  0  0  0  # atno 8008 bound_to 7997
  155.3683  140.0480  157.3063 H   0  0  0  0  0  0  0  0  0  0  0  0  # atno 8009 bound_to 7997
  154.5194  140.2193  155.9015 H   0  0  0  0  0  0  0  0  0  0  0  0  # atno 8010 bound_to 7997
  140.6261  143.2439  151.5361 H   0  0  0  0  0  0  0  0  0  0  0  0  # atno 10167 bound_to 10162
  157.2711  130.7208  149.6505 H   0  0  0  0  0  0  0  0  0  0  0  0  # atno 10718 bound_to 10713
  153.6512  135.6981  153.5208 H   0  0  0  0  0  0  0  0  0  0  0  0  # atno 10763 bound_to 10752
  153.2705  135.4216  155.0983 H   0  0  0  0  0  0  0  0  0  0  0  0  # atno 10764 bound_to 10752
  154.8476  135.3577  154.6056 H   0  0  0  0  0  0  0  0  0  0  0  0  # atno 10765 bound_to 10752
  140.7915  133.8284  155.9384 H   0  0  0  0  0  0  0  0  0  0  0  0  # atno 11005 bound_to 11000
  144.9682  140.8342  143.5472 LP  0  0  0  0  0  0  0  0  0  0  0  0  # atno 17320 bound_to 7965
  145.2121  139.2199  143.5137 LP  0  0  0  0  0  0  0  0  0  0  0  0  # atno 17321 bound_to 7965
  139.5481  144.2468  152.1480 LP  0  0  0  0  0  0  0  0  0  0  0  0  # atno 17342 bound_to 10162
  140.1700  144.4945  150.6585 LP  0  0  0  0  0  0  0  0  0  0  0  0  # atno 17343 bound_to 10162
  155.9663  130.4367  150.5146 LP  0  0  0  0  0  0  0  0  0  0  0  0  # atno 17370 bound_to 10713
  157.3070  131.0656  151.2028 LP  0  0  0  0  0  0  0  0  0  0  0  0  # atno 17371 bound_to 10713
  140.9385  134.1931  157.4814 LP  0  0  0  0  0  0  0  0  0  0  0  0  # atno 17394 bound_to 11000
  139.8731  134.9862  156.5314 LP  0  0  0  0  0  0  0  0  0  0  0  0  # atno 17395 bound_to 11000

$$$$
