AV-unprocessed.smi:99|AV-procd|sdf|869|dock1
  -GOLD-   2262017323D 1   1.00000     0.00000
 Structure written by MMmdl.
 53 56  0  0  0  0  0  0  0  0  1 V2000
  149.4647  137.5395  159.9914 O   0  0  0  0  0  0  0  0  0  0  0  0
  148.8926  136.5021  159.6503 C   0  0  0  0  0  0  0  0  0  0  0  0
  148.8435  136.0627  158.3772 O   0  0  0  0  0  0  0  0  0  0  0  0
  149.8189  136.4931  157.4424 C   0  0  0  0  0  0  0  0  0  0  0  0
  149.7416  138.0202  157.2887 C   0  0  2  0  0  0  0  0  0  0  0  0
  148.5631  138.3591  156.5677 O   0  0  0  0  0  0  0  0  0  0  0  0
  148.8296  138.3861  155.2006 C   0  0  1  0  0  0  0  0  0  0  0  0
  148.0398  139.5406  154.6156 N   0  0  0  0  0  0  0  0  0  0  0  0
  148.5890  140.8146  154.5242 C   0  0  0  0  0  0  0  0  0  0  0  0
  147.8982  141.8954  154.0915 C   0  0  0  0  0  0  0  0  0  0  0  0
  146.4947  141.7732  153.7156 C   0  0  0  0  0  0  0  0  0  0  0  0
  145.7891  142.6891  153.2983 O   0  0  0  0  0  0  0  0  0  0  0  0
  145.9642  140.4903  153.8741 N   0  0  0  0  0  0  0  0  0  0  0  0
  146.6636  139.3725  154.3329 C   0  0  0  0  0  0  0  0  0  0  0  0
  146.0731  138.3013  154.4669 O   0  0  0  0  0  0  0  0  0  0  0  0
  150.3532  138.5192  155.0029 C   0  0  2  0  0  0  0  0  0  0  0  0
  150.9095  137.3980  154.3451 O   0  0  0  0  0  0  0  0  0  0  0  0
  150.8845  138.5785  156.4344 C   0  0  1  0  0  0  0  0  0  0  0  0
  151.1461  139.9181  156.8346 O   0  0  0  0  0  0  0  0  0  0  0  0
  151.6549  140.1937  158.0544 C   0  0  0  0  0  0  0  0  0  0  0  0
  152.0957  139.3355  158.8213 O   0  0  0  0  0  0  0  0  0  0  0  0
  151.6363  141.6506  158.3702 C   0  0  0  0  0  0  0  0  0  0  0  0
  152.3627  142.1279  159.4860 C   0  0  0  0  0  0  0  0  0  0  0  0
  152.3658  143.4995  159.8060 C   0  0  0  0  0  0  0  0  0  0  0  0
  151.6434  144.4107  159.0137 C   0  0  0  0  0  0  0  0  0  0  0  0
  150.9181  143.9486  157.9000 C   0  0  0  0  0  0  0  0  0  0  0  0
  150.9134  142.5774  157.5784 C   0  0  0  0  0  0  0  0  0  0  0  0
  148.1819  135.6025  160.6042 C   0  0  0  0  0  0  0  0  0  0  0  0
  147.9039  134.2692  160.2226 C   0  0  0  0  0  0  0  0  0  0  0  0
  147.2346  133.3958  161.1018 C   0  0  0  0  0  0  0  0  0  0  0  0
  146.8353  133.8451  162.3738 C   0  0  0  0  0  0  0  0  0  0  0  0
  147.1052  135.1693  162.7654 C   0  0  0  0  0  0  0  0  0  0  0  0
  147.7743  136.0444  161.8873 C   0  0  0  0  0  0  0  0  0  0  0  0
  144.9877  140.3640  153.6501 H   0  0  0  0  0  0  0  0  0  0  0  0
  150.8054  136.2097  157.8118 H   0  0  0  0  0  0  0  0  0  0  0  0
  149.6738  135.9962  156.4822 H   0  0  0  0  0  0  0  0  0  0  0  0
  149.7301  138.4814  158.2775 H   0  0  0  0  0  0  0  0  0  0  0  0
  148.4575  137.4674  154.7449 H   0  0  0  0  0  0  0  0  0  0  0  0
  149.6139  140.9770  154.8160 H   0  0  0  0  0  0  0  0  0  0  0  0
  148.3849  142.8584  154.0321 H   0  0  0  0  0  0  0  0  0  0  0  0
  150.6143  139.3992  154.4153 H   0  0  0  0  0  0  0  0  0  0  0  0
  150.3796  137.1970  153.5891 H   0  0  0  0  0  0  0  0  0  0  0  0
  151.7888  137.9816  156.5667 H   0  0  0  0  0  0  0  0  0  0  0  0
  152.9249  141.4471  160.1092 H   0  0  0  0  0  0  0  0  0  0  0  0
  152.9232  143.8524  160.6611 H   0  0  0  0  0  0  0  0  0  0  0  0
  151.6456  145.4624  159.2595 H   0  0  0  0  0  0  0  0  0  0  0  0
  150.3641  144.6473  157.2903 H   0  0  0  0  0  0  0  0  0  0  0  0
  150.3475  142.2574  156.7155 H   0  0  0  0  0  0  0  0  0  0  0  0
  148.2015  133.9013  159.2511 H   0  0  0  0  0  0  0  0  0  0  0  0
  147.0280  132.3798  160.7993 H   0  0  0  0  0  0  0  0  0  0  0  0
  146.3231  133.1745  163.0483 H   0  0  0  0  0  0  0  0  0  0  0  0
  146.7989  135.5154  163.7416 H   0  0  0  0  0  0  0  0  0  0  0  0
  147.9659  137.0542  162.2194 H   0  0  0  0  0  0  0  0  0  0  0  0
  1  2  2  0  0  0  0
  2  3  1  0  0  0  0
  2 28  1  0  0  0  0
  3  4  1  0  0  0  0
  4  5  1  0  0  0  0
  4 35  1  0  0  0  0
  4 36  1  0  0  0  0
  5 18  1  0  0  0  0
  5  6  1  0  0  0  0
  5 37  1  0  0  0  0
  6  7  1  0  0  0  0
  7  8  1  0  0  0  0
  7 16  1  0  0  0  0
  7 38  1  0  0  0  0
  8 14  1  0  0  0  0
  8  9  1  0  0  0  0
  9 10  2  0  0  0  0
  9 39  1  0  0  0  0
 10 11  1  0  0  0  0
 10 40  1  0  0  0  0
 11 12  2  0  0  0  0
 11 13  1  0  0  0  0
 13 34  1  0  0  0  0
 13 14  1  0  0  0  0
 14 15  2  0  0  0  0
 16 17  1  0  0  0  0
 16 18  1  0  0  0  0
 16 41  1  0  0  0  0
 17 42  1  0  0  0  0
 18 19  1  0  0  0  0
 18 43  1  0  0  0  0
 19 20  1  0  0  0  0
 20 21  2  0  0  0  0
 20 22  1  0  0  0  0
 22 27  1  0  0  0  0
 22 23  2  0  0  0  0
 23 24  1  0  0  0  0
 23 44  1  0  0  0  0
 24 25  2  0  0  0  0
 24 45  1  0  0  0  0
 25 26  1  0  0  0  0
 25 46  1  0  0  0  0
 26 27  2  0  0  0  0
 26 47  1  0  0  0  0
 27 48  1  0  0  0  0
 28 33  1  0  0  0  0
 28 29  2  0  0  0  0
 29 30  1  0  0  0  0
 29 49  1  0  0  0  0
 30 31  2  0  0  0  0
 30 50  1  0  0  0  0
 31 32  1  0  0  0  0
 31 51  1  0  0  0  0
 32 33  2  0  0  0  0
 32 52  1  0  0  0  0
 33 53  1  0  0  0  0
M  END
> <s_m_source_file>
AV-unprocessed.smi

> <i_m_source_file_index>
99

> <i_lp_mmshare_version>
43012

> <i_f3d_flags>
0

> <s_epik_input>
W2NIXTFbY0hdW2NIXVtjSF1bY0hdYzFDKD1PKU9bQ0gyXVtDQEBIXTJPW0NAQEhdKG4zW2NIXVtjSF1jKD1PKVtuSF1jMz1PKVtDQEBIXShbT0hdKVtDQEhdMk9DKD1PKWM0W2NIXVtjSF1bY0hdW2NIXVtjSF00

> <s_epik_cmdline>
J2VwaWtfcHl0aG9uJywgJy1waCcsICc3LjAnLCAnLXRuJywgJzgnLCAnLW1hJywgJzIwMCcsICctbWV0YWxfYmluZGluZycsICctaW1hZScsICc8aW5maWxlLm1hZT4nLCAnLW9tYWUnLCAnPG91dGZpbGUubWFlPic=

> <r_lp_tautomer_probability>
1

> <r_epik_Ionization_Penalty>
0.00454555

> <r_epik_Ionization_Penalty_Charging>
0.0045191

> <r_epik_Ionization_Penalty_Neutral>
2.64449e-05

> <r_epik_State_Penalty>
-0

> <r_epik_Charging_Adjusted_Penalty>
0.0045191

> <i_epik_Tot_Q>
0

> <i_epik_Tot_abs_Q>
0

> <r_epik_Metal_State_Penalty>
1.27877

> <b_epik_Metal_Only>
0

> <s_epik_Chemistry_Notes>
This compound has an ester and may undergo hydrolysis at high or low pH. This compound contains an acetal/aminal-like group ( X-CH(R)-Y where X, Y are N, S, or O) that may be acid/base labile, releasing an aldehyde.

> <s_lp_Force_Field>
OPLS_2005

> <r_lp_Energy>
32.4523

> <b_lp_Chiralities_Consistent>
1

> <s_lp_Variant>
AV-unprocessed.smi:99-5

> <Gold.Version>
5.8.1

> <Gold.Id.Protein>
6NUR|6NUR_protein|mol2

> <Gold.PLP.Fitness>
63.0351

> <Gold.PLP.PLP>
-59.5303

> <Gold.PLP.part.hbond>
-4.0000

> <Gold.PLP.part.metal>
0.0000

> <Gold.PLP.part.buried>
-7.5428

> <Gold.PLP.part.nonpolar>
-48.8490

> <Gold.PLP.part.repulsive>
0.2973

> <Gold.PLP.ligand.clash>
0.0000

> <Gold.PLP.ligand.torsion>
1.3555

> <Gold.PLP.Chemscore.Hbond>
1.9062

> <Gold.PLP.Chemscore.CHOScore>
0.0000

> <Gold.PLP.Chemscore.Metal>
0.0000

> <Gold.Chemscore.Hbonds>
donor molecule, donor type, donor heavy atom, donor atom, acceptor molecule, acceptor atom, score
      L1  H    13    34       P1 10175  0.98
      L1  H    17    42       P1  7948  0.07
      P1  H  6931  6943       L1     1  0.20

> <Gold.PLP.Chemscore.Internal.Correction>
0.4971

> <Gold.Rescore>
     Score         DG    S(hbond)    S(metal)    S(lipo)     H(rot)  DE(clash)    DE(int)     intcor
     15.91     -18.71       1.48        0.00     140.55       3.19       0.04       2.76       ----

> <Gold.Chemscore.Fitness>
15.9093

> <Gold.Chemscore.DG>
-18.7073

> <Gold.Chemscore.ZeroCoef>
-5.4800

> <Gold.Chemscore.Hbond>
1.4822

> <Gold.Chemscore.Metal>
0.0000

> <Gold.Chemscore.Lipo>
140.5465

> <Gold.Chemscore.Internal_Hbond>
0.0000

> <Gold.Chemscore.DEClash>
0.0366

> <Gold.Chemscore.DEInternal>
2.7614

> <Gold.Chemscore.Rot>
3.1903

> <Gold.Chemscore.Internal.Correction>
   9.000000E+99

> <Gold.Chemscore.Hbonds>
donor molecule, donor type, donor heavy atom, donor atom, acceptor molecule, acceptor atom, score
      L1  H    13    34       P1 10175  0.93
      L1  H    17    42       P1  7948  0.01
      P1  H  6931  6943       L1     1  0.18

> <Gold.Chemscore.Hbond.Weighted>
-4.9504

> <Gold.Chemscore.Metal.Weighted>
-0.0000

> <Gold.Chemscore.Lipo.Weighted>
-16.4439

> <Gold.Chemscore.Internal_Hbond.Weighted>
0.0000

> <Gold.Chemscore.DEClash.Weighted>
0.0366

> <Gold.Chemscore.DEInternal.Weighted>
2.7614

> <Gold.Chemscore.Rot.Weighted>
8.1671

> <Gold.Chemscore.Internal.Correction.Weighted>
   9.000000E+99

> <Gold.Protein.RotatedTorsions>
[ 6907 6896 6895 6894 ] final    3.45 input  -60.11 | X-H torsion
[ 7974 7965 7964 7962 ] final  -56.46 input  175.53 | X-H torsion
[ 8008 7997 7996 7995 ] final -149.33 input   59.86 | X-H torsion
[ 10167 10162 10161 10158 ] final  101.54 input  -65.29 | X-H torsion
[ 10718 10713 10712 10709 ] final -108.93 input   66.30 | X-H torsion
[ 10763 10752 10751 10750 ] final -125.24 input  -60.55 | X-H torsion
[ 11005 11000 10999 10996 ] final  -90.02 input  -57.11 | X-H torsion

> <Gold.Protein.ActiveResidues>
 VAL166  LYS551  ARG553  GLY616  TRP617  ASP618  TYR619  PRO620  LYS621  CYS622 
 ASP623  PHE694  ASN695  SER759  ASP760  ASP761  ALA762  ILE779  LEU786  VAL792 
 PHE793  MET794  SER795  GLU796  ALA797  LYS798  CYS799  TRP800  GLU811  SER814 

> <Gold.Protein.RotatedAtoms>
  151.6253  135.1028  160.0110 H   0  0  0  0  0  0  0  0  0  0  0  0  # atno 6907 bound_to 6896
  152.4136  133.6998  159.6427 H   0  0  0  0  0  0  0  0  0  0  0  0  # atno 6908 bound_to 6896
  150.8025  133.8498  159.3243 H   0  0  0  0  0  0  0  0  0  0  0  0  # atno 6909 bound_to 6896
  145.8624  140.8276  142.9930 H   0  0  0  0  0  0  0  0  0  0  0  0  # atno 7974 bound_to 7965
  155.6059  140.0667  157.2720 H   0  0  0  0  0  0  0  0  0  0  0  0  # atno 8008 bound_to 7997
  154.4266  140.1810  156.1269 H   0  0  0  0  0  0  0  0  0  0  0  0  # atno 8009 bound_to 7997
  156.0123  140.3325  155.6957 H   0  0  0  0  0  0  0  0  0  0  0  0  # atno 8010 bound_to 7997
  139.7429  144.7006  151.0549 H   0  0  0  0  0  0  0  0  0  0  0  0  # atno 10167 bound_to 10162
  156.0511  130.5738  150.8030 H   0  0  0  0  0  0  0  0  0  0  0  0  # atno 10718 bound_to 10713
  154.8733  135.4036  154.3236 H   0  0  0  0  0  0  0  0  0  0  0  0  # atno 10763 bound_to 10752
  153.4060  135.7019  153.6398 H   0  0  0  0  0  0  0  0  0  0  0  0  # atno 10764 bound_to 10752
  153.5120  135.3705  155.2562 H   0  0  0  0  0  0  0  0  0  0  0  0  # atno 10765 bound_to 10752
  141.1574  133.7666  156.9678 H   0  0  0  0  0  0  0  0  0  0  0  0  # atno 11005 bound_to 11000
  144.6726  140.1115  143.7455 LP  0  0  0  0  0  0  0  0  0  0  0  0  # atno 17320 bound_to 7965
  145.9233  139.2559  143.1368 LP  0  0  0  0  0  0  0  0  0  0  0  0  # atno 17321 bound_to 7965
  140.7788  143.4903  150.9902 LP  0  0  0  0  0  0  0  0  0  0  0  0  # atno 17342 bound_to 10162
  139.8591  143.7338  152.3174 LP  0  0  0  0  0  0  0  0  0  0  0  0  # atno 17343 bound_to 10162
  157.5437  131.0941  150.9792 LP  0  0  0  0  0  0  0  0  0  0  0  0  # atno 17370 bound_to 10713
  157.0068  130.5621  149.5317 LP  0  0  0  0  0  0  0  0  0  0  0  0  # atno 17371 bound_to 10713
  140.1150  134.9453  157.2121 LP  0  0  0  0  0  0  0  0  0  0  0  0  # atno 17394 bound_to 11000
  140.3145  134.2986  155.7259 LP  0  0  0  0  0  0  0  0  0  0  0  0  # atno 17395 bound_to 11000

$$$$
