AV-unprocessed.smi:240|AV-procd|sdf|1824|dock9
  -GOLD-   2262020423D 1   1.00000     0.00000
 Structure written by MMmdl.
 55 59  0  0  0  0  0  0  0  0  1 V2000
  154.2985  132.6323  158.4337 O   0  0  0  0  0  0  0  0  0  0  0  0
  154.1929  131.3224  157.9150 C   0  0  2  0  0  0  0  0  0  0  0  0
  155.0052  131.1618  156.6286 C   0  0  0  0  0  0  0  0  0  0  0  0
  154.3460  129.9942  155.8822 C   0  0  0  0  0  0  0  0  0  0  0  0
  152.9494  129.8131  156.4993 C   0  0  0  0  0  0  0  0  0  0  0  0
  152.7619  130.9859  157.4771 C   0  0  1  0  0  0  0  0  0  0  0  0
  151.7264  130.7682  158.6230 C   0  0  2  0  0  0  0  0  0  0  0  0
  152.0361  129.5443  159.5225 C   0  0  0  0  0  0  0  0  0  0  0  0
  151.0618  129.4306  160.5535 O   0  0  0  0  0  0  0  0  0  0  0  0
  149.7571  129.2237  160.0297 C   0  0  0  0  0  0  0  0  0  0  0  0
  149.3620  130.4403  159.1827 C   0  0  0  0  0  0  0  0  0  0  0  0
  150.3452  130.6666  158.1298 N   0  0  0  0  0  0  0  0  0  0  0  0
  149.9233  131.6317  157.2818 C   0  0  0  0  0  0  0  0  0  0  0  0
  149.8530  132.8933  157.7725 N   0  0  0  0  0  0  0  0  0  0  0  0
  149.4252  133.8905  156.9926 C   0  0  0  0  0  0  0  0  0  0  0  0
  149.0301  133.8435  155.7184 N   0  0  0  0  0  0  0  0  0  0  0  0
  149.1109  132.5766  155.2191 C   0  0  0  0  0  0  0  0  0  0  0  0
  149.5501  131.4208  155.9237 C   0  0  0  0  0  0  0  0  0  0  0  0
  149.5066  130.3117  155.0878 N   0  0  0  0  0  0  0  0  0  0  0  0
  149.0584  130.7830  153.9566 C   0  0  0  0  0  0  0  0  0  0  0  0
  148.7848  132.1322  153.9496 N   0  0  0  0  0  0  0  0  0  0  0  0
  148.2691  132.9094  152.8333 C   0  0  0  0  0  0  0  0  0  0  0  0
  146.7260  132.8868  152.7343 C   0  0  1  0  0  0  0  0  0  0  0  0
  146.1816  133.4984  153.8914 O   0  0  0  0  0  0  0  0  0  0  0  0
  146.1680  133.5962  151.5035 C   0  0  0  0  0  0  0  0  0  0  0  0
  144.9056  132.8027  151.1977 C   0  0  0  0  0  0  0  0  0  0  0  0
  145.3100  131.4694  151.4577 O   0  0  0  0  0  0  0  0  0  0  0  0
  146.1403  131.4655  152.6151 C   0  0  0  0  0  0  0  0  0  0  0  0
  154.5531  133.2139  157.7336 H   0  0  0  0  0  0  0  0  0  0  0  0
  154.5605  130.6093  158.6523 H   0  0  0  0  0  0  0  0  0  0  0  0
  154.9244  132.0640  156.0199 H   0  0  0  0  0  0  0  0  0  0  0  0
  156.0647  130.9908  156.8223 H   0  0  0  0  0  0  0  0  0  0  0  0
  154.2877  130.2009  154.8130 H   0  0  0  0  0  0  0  0  0  0  0  0
  154.9291  129.0810  156.0057 H   0  0  0  0  0  0  0  0  0  0  0  0
  152.1692  129.7967  155.7377 H   0  0  0  0  0  0  0  0  0  0  0  0
  152.9119  128.8548  157.0150 H   0  0  0  0  0  0  0  0  0  0  0  0
  152.4348  131.8358  156.8762 H   0  0  0  0  0  0  0  0  0  0  0  0
  151.7739  131.6427  159.2722 H   0  0  0  0  0  0  0  0  0  0  0  0
  152.0643  128.6155  158.9530 H   0  0  0  0  0  0  0  0  0  0  0  0
  153.0056  129.6515  160.0063 H   0  0  0  0  0  0  0  0  0  0  0  0
  149.7258  128.3069  159.4387 H   0  0  0  0  0  0  0  0  0  0  0  0
  149.0573  129.0969  160.8557 H   0  0  0  0  0  0  0  0  0  0  0  0
  148.3752  130.2793  158.7458 H   0  0  0  0  0  0  0  0  0  0  0  0
  149.2935  131.3260  159.8162 H   0  0  0  0  0  0  0  0  0  0  0  0
  149.3915  134.8651  157.4570 H   0  0  0  0  0  0  0  0  0  0  0  0
  148.9065  130.1538  153.0915 H   0  0  0  0  0  0  0  0  0  0  0  0
  148.6224  133.9357  152.9403 H   0  0  0  0  0  0  0  0  0  0  0  0
  148.7142  132.5278  151.9134 H   0  0  0  0  0  0  0  0  0  0  0  0
  146.3814  132.9554  154.6387 H   0  0  0  0  0  0  0  0  0  0  0  0
  145.9848  134.6614  151.6514 H   0  0  0  0  0  0  0  0  0  0  0  0
  146.8557  133.4911  150.6635 H   0  0  0  0  0  0  0  0  0  0  0  0
  144.0920  133.0808  151.8695 H   0  0  0  0  0  0  0  0  0  0  0  0
  144.5661  132.9281  150.1693 H   0  0  0  0  0  0  0  0  0  0  0  0
  146.9134  130.7059  152.4952 H   0  0  0  0  0  0  0  0  0  0  0  0
  145.5473  131.1903  153.4889 H   0  0  0  0  0  0  0  0  0  0  0  0
  1  2  1  0  0  0  0
  1 29  1  0  0  0  0
  2  6  1  0  0  0  0
  2  3  1  0  0  0  0
  2 30  1  0  0  0  0
  3  4  1  0  0  0  0
  3 31  1  0  0  0  0
  3 32  1  0  0  0  0
  4  5  1  0  0  0  0
  4 33  1  0  0  0  0
  4 34  1  0  0  0  0
  5  6  1  0  0  0  0
  5 35  1  0  0  0  0
  5 36  1  0  0  0  0
  6  7  1  0  0  0  0
  6 37  1  0  0  0  0
  7 12  1  0  0  0  0
  7  8  1  0  0  0  0
  7 38  1  0  0  0  0
  8  9  1  0  0  0  0
  8 39  1  0  0  0  0
  8 40  1  0  0  0  0
  9 10  1  0  0  0  0
 10 11  1  0  0  0  0
 10 41  1  0  0  0  0
 10 42  1  0  0  0  0
 11 12  1  0  0  0  0
 11 43  1  0  0  0  0
 11 44  1  0  0  0  0
 12 13  1  0  0  0  0
 13 18  1  0  0  0  0
 13 14  2  0  0  0  0
 14 15  1  0  0  0  0
 15 16  2  0  0  0  0
 15 45  1  0  0  0  0
 16 17  1  0  0  0  0
 17 21  1  0  0  0  0
 17 18  2  0  0  0  0
 18 19  1  0  0  0  0
 19 20  2  0  0  0  0
 20 21  1  0  0  0  0
 20 46  1  0  0  0  0
 21 22  1  0  0  0  0
 22 23  1  0  0  0  0
 22 47  1  0  0  0  0
 22 48  1  0  0  0  0
 23 28  1  0  0  0  0
 23 24  1  0  0  0  0
 23 25  1  0  0  0  0
 24 49  1  0  0  0  0
 25 26  1  0  0  0  0
 25 50  1  0  0  0  0
 25 51  1  0  0  0  0
 26 27  1  0  0  0  0
 26 52  1  0  0  0  0
 26 53  1  0  0  0  0
 27 28  1  0  0  0  0
 28 54  1  0  0  0  0
 28 55  1  0  0  0  0
M  END
> <s_m_source_file>
AV-unprocessed.smi

> <i_m_source_file_index>
240

> <i_lp_mmshare_version>
43012

> <i_f3d_flags>
0

> <s_epik_input>
W09IXVtDQEBIXTFbQ0gyXVtDSDJdW0NIMl1bQ0BIXTFbQ0BASF0yW0NIMl1PW0NIMl1bQ0gyXU4yYyhuW2NIXW4zKWMoYzM0KW5bY0hdbjRbQ0gyXVtDQEBdNShbT0hdKVtDSDJdW0NIMl1PW0NIMl01

> <s_epik_cmdline>
J2VwaWtfcHl0aG9uJywgJy1waCcsICc3LjAnLCAnLXRuJywgJzgnLCAnLW1hJywgJzIwMCcsICctbWV0YWxfYmluZGluZycsICctaW1hZScsICc8aW5maWxlLm1hZT4nLCAnLW9tYWUnLCAnPG91dGZpbGUubWFlPic=

> <r_lp_tautomer_probability>
1

> <r_epik_Ionization_Penalty>
0.000130618

> <r_epik_Ionization_Penalty_Charging>
0

> <r_epik_Ionization_Penalty_Neutral>
0.000130618

> <r_epik_State_Penalty>
-0

> <r_epik_Charging_Adjusted_Penalty>
0

> <i_epik_Tot_Q>
0

> <i_epik_Tot_abs_Q>
0

> <r_epik_Metal_State_Penalty>
-0

> <b_epik_Metal_Only>
0

> <s_lp_Force_Field>
OPLS_2005

> <r_lp_Energy>
60.7436

> <b_lp_Chiralities_Consistent>
1

> <s_lp_Variant>
AV-unprocessed.smi:240-1

> <Gold.Version>
5.8.1

> <Gold.Id.Protein>
6NUR|6NUR_protein|mol2

> <Gold.PLP.Fitness>
36.5590

> <Gold.PLP.PLP>
-30.2906

> <Gold.PLP.part.hbond>
-2.0000

> <Gold.PLP.part.metal>
0.0000

> <Gold.PLP.part.buried>
-4.3459

> <Gold.PLP.part.nonpolar>
-24.3217

> <Gold.PLP.part.repulsive>
0.1626

> <Gold.PLP.ligand.clash>
0.0000

> <Gold.PLP.ligand.torsion>
0.4900

> <Gold.PLP.Chemscore.Hbond>
2.0000

> <Gold.PLP.Chemscore.CHOScore>
0.3565

> <Gold.PLP.Chemscore.Metal>
0.0000

> <Gold.Chemscore.Hbonds>
donor molecule, donor type, donor heavy atom, donor atom, acceptor molecule, acceptor atom, score
      P1  H  6896  6908       L1    14  1.00
      L1  C    20    46       P1 10747  0.16

> <Gold.PLP.Chemscore.Internal.Correction>
0.1789

> <Gold.Rescore>
     Score         DG    S(hbond)    S(metal)    S(lipo)     H(rot)  DE(clash)    DE(int)     intcor
     10.65     -11.18       1.77        0.00      63.81       3.00       0.02       0.50       ----

> <Gold.Chemscore.Fitness>
10.6546

> <Gold.Chemscore.DG>
-11.1831

> <Gold.Chemscore.ZeroCoef>
-5.4800

> <Gold.Chemscore.Hbond>
1.7746

> <Gold.Chemscore.Metal>
0.0000

> <Gold.Chemscore.Lipo>
63.8107

> <Gold.Chemscore.Internal_Hbond>
0.0000

> <Gold.Chemscore.DEClash>
0.0243

> <Gold.Chemscore.DEInternal>
0.5042

> <Gold.Chemscore.Rot>
3.0039

> <Gold.Chemscore.Internal.Correction>
   9.000000E+99

> <Gold.Chemscore.Hbonds>
donor molecule, donor type, donor heavy atom, donor atom, acceptor molecule, acceptor atom, score
      P1  H  6896  6907       L1     1  0.01
      P1  H  6896  6908       L1    14  0.69

> <Gold.Chemscore.Hbond.Weighted>
-5.9272

> <Gold.Chemscore.Metal.Weighted>
-0.0000

> <Gold.Chemscore.Lipo.Weighted>
-7.4658

> <Gold.Chemscore.Internal_Hbond.Weighted>
0.0000

> <Gold.Chemscore.DEClash.Weighted>
0.0243

> <Gold.Chemscore.DEInternal.Weighted>
0.5042

> <Gold.Chemscore.Rot.Weighted>
7.6899

> <Gold.Chemscore.Internal.Correction.Weighted>
   9.000000E+99

> <Gold.Protein.RotatedTorsions>
[ 6907 6896 6895 6894 ] final  107.84 input  -60.11 | X-H torsion
[ 7974 7965 7964 7962 ] final  -99.63 input  175.53 | X-H torsion
[ 8008 7997 7996 7995 ] final    7.97 input   59.86 | X-H torsion
[ 10167 10162 10161 10158 ] final -126.67 input  -65.29 | X-H torsion
[ 10718 10713 10712 10709 ] final -177.82 input   66.30 | X-H torsion
[ 10763 10752 10751 10750 ] final  -11.99 input  -60.55 | X-H torsion
[ 11005 11000 10999 10996 ] final -177.18 input  -57.11 | X-H torsion

> <Gold.Protein.ActiveResidues>
 VAL166  LYS551  ARG553  GLY616  TRP617  ASP618  TYR619  PRO620  LYS621  CYS622 
 ASP623  PHE694  ASN695  SER759  ASP760  ASP761  ALA762  ILE779  LEU786  VAL792 
 PHE793  MET794  SER795  GLU796  ALA797  LYS798  CYS799  TRP800  GLU811  SER814 

> <Gold.Protein.RotatedAtoms>
  152.5138  133.9176  159.7518 H   0  0  0  0  0  0  0  0  0  0  0  0  # atno 6907 bound_to 6896
  150.9555  133.6493  159.2771 H   0  0  0  0  0  0  0  0  0  0  0  0  # atno 6908 bound_to 6896
  151.3757  135.0936  159.9532 H   0  0  0  0  0  0  0  0  0  0  0  0  # atno 6909 bound_to 6896
  145.3051  140.9387  143.2801 H   0  0  0  0  0  0  0  0  0  0  0  0  # atno 7974 bound_to 7965
  154.7608  140.2784  155.6216 H   0  0  0  0  0  0  0  0  0  0  0  0  # atno 8008 bound_to 7997
  156.2915  140.2660  156.2313 H   0  0  0  0  0  0  0  0  0  0  0  0  # atno 8009 bound_to 7997
  155.0020  140.0372  157.2354 H   0  0  0  0  0  0  0  0  0  0  0  0  # atno 8010 bound_to 7997
  139.9690  143.5867  152.2419 H   0  0  0  0  0  0  0  0  0  0  0  0  # atno 10167 bound_to 10162
  156.8351  130.9667  151.3104 H   0  0  0  0  0  0  0  0  0  0  0  0  # atno 10718 bound_to 10713
  153.4918  135.7017  153.5880 H   0  0  0  0  0  0  0  0  0  0  0  0  # atno 10763 bound_to 10752
  153.4049  135.3863  155.2012 H   0  0  0  0  0  0  0  0  0  0  0  0  # atno 10764 bound_to 10752
  154.8716  135.3890  154.4379 H   0  0  0  0  0  0  0  0  0  0  0  0  # atno 10765 bound_to 10752
  140.4438  134.6407  157.4770 H   0  0  0  0  0  0  0  0  0  0  0  0  # atno 11005 bound_to 11000
  144.9061  139.4587  143.6609 LP  0  0  0  0  0  0  0  0  0  0  0  0  # atno 17320 bound_to 7965
  146.3138  139.7843  142.8999 LP  0  0  0  0  0  0  0  0  0  0  0  0  # atno 17321 bound_to 7965
  139.6496  144.7660  151.2175 LP  0  0  0  0  0  0  0  0  0  0  0  0  # atno 17342 bound_to 10162
  140.7528  143.6183  150.8538 LP  0  0  0  0  0  0  0  0  0  0  0  0  # atno 17343 bound_to 10162
  157.6386  130.8787  149.9405 LP  0  0  0  0  0  0  0  0  0  0  0  0  # atno 17370 bound_to 10713
  156.0912  130.3663  150.0392 LP  0  0  0  0  0  0  0  0  0  0  0  0  # atno 17371 bound_to 10713
  140.0052  134.6774  155.9466 LP  0  0  0  0  0  0  0  0  0  0  0  0  # atno 17394 bound_to 11000
  141.1694  133.6537  156.4597 LP  0  0  0  0  0  0  0  0  0  0  0  0  # atno 17395 bound_to 11000

$$$$
