AV-unprocessed.smi:1274|AV-procd|sdf|5340|dock6
  -GOLD-   22720 4473D 1   1.00000     0.00000
 Structure written by MMmdl.
 37 38  0  0  0  0  0  0  0  0  1 V2000
  150.8972  140.4247  155.1589 O   0  0  0  0  0  0  0  0  0  0  0  0
  151.8950  139.4806  155.6841 S   0  0  0  0  0  0  0  0  0  0  0  0
  153.1925  139.3014  155.0144 O   0  0  0  0  0  0  0  0  0  0  0  0
  152.2018  139.8427  157.3432 N   0  0  0  0  0  0  0  0  0  0  0  0
  151.7921  141.1343  157.8986 C   0  0  0  0  0  0  0  0  0  0  0  0
  152.7822  141.6361  158.9651 C   0  0  0  0  0  0  0  0  0  0  0  0
  152.5178  143.0707  159.3870 C   0  0  0  0  0  0  0  0  0  0  0  0
  152.1914  143.3839  160.7223 C   0  0  0  0  0  0  0  0  0  0  0  0
  151.9357  144.7267  161.0608 C   0  0  0  0  0  0  0  0  0  0  0  0
  152.0174  145.7014  160.0462 C   0  0  0  0  0  0  0  0  0  0  0  0
  152.3307  145.4137  158.7645 N   0  0  0  0  0  0  0  0  0  0  0  0
  152.5767  144.1241  158.4491 C   0  0  0  0  0  0  0  0  0  0  0  0
  151.1366  137.9343  155.8713 N   0  0  0  0  0  0  0  0  0  0  0  0
  150.4166  137.3911  154.6985 C   0  0  0  0  0  0  0  0  0  0  0  0
  149.5093  136.2122  155.0864 C   0  0  0  0  0  0  0  0  0  0  0  0
  150.3005  135.1214  155.8127 C   0  0  0  0  0  0  0  0  0  0  0  0
  150.9931  135.7312  157.0342 C   0  0  0  0  0  0  0  0  0  0  0  0
  151.8867  136.9185  156.6369 C   0  0  0  0  0  0  0  0  0  0  0  0
  153.1435  139.5718  157.6258 H   0  0  0  0  0  0  0  0  0  0  0  0
  151.7343  141.8557  157.0831 H   0  0  0  0  0  0  0  0  0  0  0  0
  150.7879  141.0474  158.3145 H   0  0  0  0  0  0  0  0  0  0  0  0
  152.7171  140.9979  159.8471 H   0  0  0  0  0  0  0  0  0  0  0  0
  153.8085  141.5442  158.6103 H   0  0  0  0  0  0  0  0  0  0  0  0
  152.1329  142.6094  161.4730 H   0  0  0  0  0  0  0  0  0  0  0  0
  151.6807  145.0035  162.0731 H   0  0  0  0  0  0  0  0  0  0  0  0
  151.8256  146.7403  160.2702 H   0  0  0  0  0  0  0  0  0  0  0  0
  152.8180  143.9278  157.4149 H   0  0  0  0  0  0  0  0  0  0  0  0
  149.8120  138.1701  154.2355 H   0  0  0  0  0  0  0  0  0  0  0  0
  151.1458  137.0763  153.9509 H   0  0  0  0  0  0  0  0  0  0  0  0
  148.7007  136.5682  155.7262 H   0  0  0  0  0  0  0  0  0  0  0  0
  149.0380  135.7989  154.1946 H   0  0  0  0  0  0  0  0  0  0  0  0
  149.6368  134.3120  156.1181 H   0  0  0  0  0  0  0  0  0  0  0  0
  151.0416  134.6871  155.1406 H   0  0  0  0  0  0  0  0  0  0  0  0
  150.2426  136.0636  157.7526 H   0  0  0  0  0  0  0  0  0  0  0  0
  151.5899  134.9718  157.5402 H   0  0  0  0  0  0  0  0  0  0  0  0
  152.7305  136.5754  156.0366 H   0  0  0  0  0  0  0  0  0  0  0  0
  152.3034  137.3716  157.5366 H   0  0  0  0  0  0  0  0  0  0  0  0
  1  2  2  0  0  0  0
  2  3  2  0  0  0  0
  2  4  1  0  0  0  0
  2 13  1  0  0  0  0
  4  5  1  0  0  0  0
  4 19  1  0  0  0  0
  5  6  1  0  0  0  0
  5 20  1  0  0  0  0
  5 21  1  0  0  0  0
  6  7  1  0  0  0  0
  6 22  1  0  0  0  0
  6 23  1  0  0  0  0
  7 12  1  0  0  0  0
  7  8  2  0  0  0  0
  8  9  1  0  0  0  0
  8 24  1  0  0  0  0
  9 10  2  0  0  0  0
  9 25  1  0  0  0  0
 10 11  1  0  0  0  0
 10 26  1  0  0  0  0
 11 12  2  0  0  0  0
 12 27  1  0  0  0  0
 13 18  1  0  0  0  0
 13 14  1  0  0  0  0
 14 15  1  0  0  0  0
 14 28  1  0  0  0  0
 14 29  1  0  0  0  0
 15 16  1  0  0  0  0
 15 30  1  0  0  0  0
 15 31  1  0  0  0  0
 16 17  1  0  0  0  0
 16 32  1  0  0  0  0
 16 33  1  0  0  0  0
 17 18  1  0  0  0  0
 17 34  1  0  0  0  0
 17 35  1  0  0  0  0
 18 36  1  0  0  0  0
 18 37  1  0  0  0  0
M  END
> <s_m_source_file>
AV-unprocessed.smi

> <i_m_source_file_index>
1274

> <i_lp_mmshare_version>
43012

> <i_f3d_flags>
0

> <s_epik_input>
W0NIMl0xW0NIMl1bQ0gyXVtDSDJdW0NIMl1OMVMoPU8pKD1PKVtOSF1bQ0gyXVtDSDJdYzJbY0hdW2NIXVtjSF1uW2NIXTI=

> <s_epik_cmdline>
J2VwaWtfcHl0aG9uJywgJy1waCcsICc3LjAnLCAnLXRuJywgJzgnLCAnLW1hJywgJzIwMCcsICctbWV0YWxfYmluZGluZycsICctaW1hZScsICc8aW5maWxlLm1hZT4nLCAnLW9tYWUnLCAnPG91dGZpbGUubWFlPic=

> <r_epik_Ionization_Penalty>
0.0259724

> <r_epik_Ionization_Penalty_Charging>
0

> <r_epik_Ionization_Penalty_Neutral>
0.0259724

> <r_epik_State_Penalty>
0.0167858

> <r_epik_Charging_Adjusted_Penalty>
0.0167858

> <i_epik_Tot_Q>
0

> <i_epik_Tot_abs_Q>
0

> <r_epik_Metal_State_Penalty>
0.268382

> <b_epik_Metal_Only>
0

> <s_lp_Force_Field>
OPLS_2005

> <r_lp_Energy>
7.33886

> <b_lp_Chiralities_Consistent>
1

> <s_lp_Variant>
AV-unprocessed.smi:1274-1

> <Gold.Version>
5.8.1

> <Gold.Id.Protein>
6NUR|6NUR_protein|mol2

> <Gold.PLP.Fitness>
43.6295

> <Gold.PLP.PLP>
-38.3929

> <Gold.PLP.part.hbond>
-3.5216

> <Gold.PLP.part.metal>
0.0000

> <Gold.PLP.part.buried>
-3.1977

> <Gold.PLP.part.nonpolar>
-31.4999

> <Gold.PLP.part.repulsive>
0.1423

> <Gold.PLP.ligand.clash>
0.0000

> <Gold.PLP.ligand.torsion>
0.7615

> <Gold.PLP.Chemscore.Hbond>
2.0000

> <Gold.PLP.Chemscore.CHOScore>
0.0000

> <Gold.PLP.Chemscore.Metal>
0.0000

> <Gold.Chemscore.Hbonds>
donor molecule, donor type, donor heavy atom, donor atom, acceptor molecule, acceptor atom, score
      P1  H  7989  7998       L1     1  1.00
      P1  H  7997  8008       L1     3  1.00

> <Gold.PLP.Chemscore.Internal.Correction>
0.7595

> <Gold.Rescore>
     Score         DG    S(hbond)    S(metal)    S(lipo)     H(rot)  DE(clash)    DE(int)     intcor
     17.79     -18.67       1.70        0.00     101.04       1.69       0.00       0.87       ----

> <Gold.Chemscore.Fitness>
17.7935

> <Gold.Chemscore.DG>
-18.6695

> <Gold.Chemscore.ZeroCoef>
-5.4800

> <Gold.Chemscore.Hbond>
1.7040

> <Gold.Chemscore.Metal>
0.0000

> <Gold.Chemscore.Lipo>
101.0446

> <Gold.Chemscore.Internal_Hbond>
0.0000

> <Gold.Chemscore.DEClash>
0.0015

> <Gold.Chemscore.DEInternal>
0.8745

> <Gold.Chemscore.Rot>
1.6891

> <Gold.Chemscore.Internal.Correction>
   9.000000E+99

> <Gold.Chemscore.Hbonds>
donor molecule, donor type, donor heavy atom, donor atom, acceptor molecule, acceptor atom, score
      P1  H  7989  7998       L1     1  0.33
      P1  H  7997  8008       L1     3  0.74

> <Gold.Chemscore.Hbond.Weighted>
-5.6914

> <Gold.Chemscore.Metal.Weighted>
-0.0000

> <Gold.Chemscore.Lipo.Weighted>
-11.8222

> <Gold.Chemscore.Internal_Hbond.Weighted>
0.0000

> <Gold.Chemscore.DEClash.Weighted>
0.0015

> <Gold.Chemscore.DEInternal.Weighted>
0.8745

> <Gold.Chemscore.Rot.Weighted>
4.3241

> <Gold.Chemscore.Internal.Correction.Weighted>
   9.000000E+99

> <Gold.Protein.RotatedTorsions>
[ 6907 6896 6895 6894 ] final  -28.25 input  -60.11 | X-H torsion
[ 7974 7965 7964 7962 ] final  126.96 input  175.53 | X-H torsion
[ 8008 7997 7996 7995 ] final  -16.41 input   59.86 | X-H torsion
[ 10167 10162 10161 10158 ] final  -84.59 input  -65.29 | X-H torsion
[ 10718 10713 10712 10709 ] final -129.00 input   66.30 | X-H torsion
[ 10763 10752 10751 10750 ] final   22.63 input  -60.55 | X-H torsion
[ 11005 11000 10999 10996 ] final -144.42 input  -57.11 | X-H torsion

> <Gold.Protein.ActiveResidues>
 VAL166  LYS551  ARG553  GLY616  TRP617  ASP618  TYR619  PRO620  LYS621  CYS622 
 ASP623  PHE694  ASN695  SER759  ASP760  ASP761  ALA762  ILE779  LEU786  VAL792 
 PHE793  MET794  SER795  GLU796  ALA797  LYS798  CYS799  TRP800  GLU811  SER814 

> <Gold.Protein.RotatedAtoms>
  151.1356  135.0153  159.8602 H   0  0  0  0  0  0  0  0  0  0  0  0  # atno 6907 bound_to 6896
  152.5452  134.1559  159.8548 H   0  0  0  0  0  0  0  0  0  0  0  0  # atno 6908 bound_to 6896
  151.1630  133.4788  159.2627 H   0  0  0  0  0  0  0  0  0  0  0  0  # atno 6909 bound_to 6896
  145.0558  139.3845  143.5030 H   0  0  0  0  0  0  0  0  0  0  0  0  # atno 7974 bound_to 7965
  154.5055  140.2170  155.9259 H   0  0  0  0  0  0  0  0  0  0  0  0  # atno 8008 bound_to 7997
  156.1489  140.3165  155.8581 H   0  0  0  0  0  0  0  0  0  0  0  0  # atno 8009 bound_to 7997
  155.3978  140.0482  157.3029 H   0  0  0  0  0  0  0  0  0  0  0  0  # atno 8010 bound_to 7997
  140.4118  143.2619  151.9007 H   0  0  0  0  0  0  0  0  0  0  0  0  # atno 10167 bound_to 10162
  156.2004  130.6854  151.0532 H   0  0  0  0  0  0  0  0  0  0  0  0  # atno 10718 bound_to 10713
  153.0900  135.6644  153.9872 H   0  0  0  0  0  0  0  0  0  0  0  0  # atno 10763 bound_to 10752
  153.9471  135.2988  155.3441 H   0  0  0  0  0  0  0  0  0  0  0  0  # atno 10764 bound_to 10752
  154.7314  135.5121  153.9042 H   0  0  0  0  0  0  0  0  0  0  0  0  # atno 10765 bound_to 10752
  140.8026  134.2838  157.4972 H   0  0  0  0  0  0  0  0  0  0  0  0  # atno 11005 bound_to 11000
  146.3521  140.0232  142.8657 LP  0  0  0  0  0  0  0  0  0  0  0  0  # atno 17320 bound_to 7965
  145.1470  140.9602  143.4455 LP  0  0  0  0  0  0  0  0  0  0  0  0  # atno 17321 bound_to 7965
  139.4782  144.5529  151.8358 LP  0  0  0  0  0  0  0  0  0  0  0  0  # atno 17342 bound_to 10162
  140.4629  144.1696  150.5908 LP  0  0  0  0  0  0  0  0  0  0  0  0  # atno 17343 bound_to 10162
  157.6982  131.0786  150.6902 LP  0  0  0  0  0  0  0  0  0  0  0  0  # atno 17370 bound_to 10713
  156.6960  130.4609  149.5586 LP  0  0  0  0  0  0  0  0  0  0  0  0  # atno 17371 bound_to 10713
  139.8720  134.9438  156.3864 LP  0  0  0  0  0  0  0  0  0  0  0  0  # atno 17394 bound_to 11000
  140.9279  133.7600  155.9987 LP  0  0  0  0  0  0  0  0  0  0  0  0  # atno 17395 bound_to 11000

$$$$
