AV-unprocessed.smi:2958|AV-procd|sdf|11308|dock5
  -GOLD-   2272016203D 1   1.00000     0.00000
 Structure written by MMmdl.
 40 42  0  0  0  0  0  0  0  0  2 V2000
  153.5752  141.7238  161.4168 C   0  0  0  0  0  0  0  0  0  0  0  0
  152.7281  142.6601  160.5799 C   0  0  0  0  0  0  0  0  0  0  0  0
  152.5046  143.9865  161.0005 C   0  0  0  0  0  0  0  0  0  0  0  0
  151.7165  144.8483  160.2160 C   0  0  0  0  0  0  0  0  0  0  0  0
  151.1522  144.3863  159.0118 C   0  0  0  0  0  0  0  0  0  0  0  0
  151.3669  143.0631  158.5755 C   0  0  0  0  0  0  0  0  0  0  0  0
  150.7797  142.6953  157.3839 O   0  0  0  0  0  0  0  0  0  0  0  0
  150.5010  141.3197  157.1684 C   0  0  0  0  0  0  0  0  0  0  0  0
  151.2378  140.8668  155.9025 C   0  0  0  0  0  0  0  0  0  0  0  0
  150.3760  140.0624  155.0273 N   0  0  0  0  0  0  0  0  0  0  0  0
  150.5397  138.7943  154.5526 C   0  0  0  0  0  0  0  0  0  0  0  0
  151.6885  137.8794  154.8208 C   0  0  0  0  0  0  0  0  0  0  0  0
  151.5052  136.6052  154.2448 O   0  0  0  0  0  0  0  0  0  0  0  0
  149.4553  138.5111  153.7768 N   0  3  0  0  0  0  0  0  0  0  0  0
  148.5878  139.6044  153.7604 C   0  0  0  0  0  0  0  0  0  0  0  0
  147.3666  139.7901  153.1197 C   0  0  0  0  0  0  0  0  0  0  0  0
  146.7320  141.0344  153.3161 C   0  0  0  0  0  0  0  0  0  0  0  0
  147.3112  142.0351  154.1234 C   0  0  0  0  0  0  0  0  0  0  0  0
  148.5502  141.8356  154.7674 C   0  0  0  0  0  0  0  0  0  0  0  0
  149.1718  140.6038  154.5656 C   0  0  0  0  0  0  0  0  0  0  0  0
  152.1617  142.2006  159.3730 C   0  0  0  0  0  0  0  0  0  0  0  0
  153.9576  142.2217  162.3081 H   0  0  0  0  0  0  0  0  0  0  0  0
  154.4251  141.3640  160.8364 H   0  0  0  0  0  0  0  0  0  0  0  0
  152.9861  140.8630  161.7344 H   0  0  0  0  0  0  0  0  0  0  0  0
  152.9349  144.3480  161.9230 H   0  0  0  0  0  0  0  0  0  0  0  0
  151.5445  145.8649  160.5372 H   0  0  0  0  0  0  0  0  0  0  0  0
  150.5489  145.0553  158.4157 H   0  0  0  0  0  0  0  0  0  0  0  0
  150.8393  140.7271  158.0201 H   0  0  0  0  0  0  0  0  0  0  0  0
  149.4270  141.1676  157.0502 H   0  0  0  0  0  0  0  0  0  0  0  0
  151.6195  141.7197  155.3406 H   0  0  0  0  0  0  0  0  0  0  0  0
  152.1037  140.2591  156.1681 H   0  0  0  0  0  0  0  0  0  0  0  0
  152.6044  138.3225  154.4287 H   0  0  0  0  0  0  0  0  0  0  0  0
  151.8210  137.7675  155.8972 H   0  0  0  0  0  0  0  0  0  0  0  0
  151.3595  136.7123  153.3169 H   0  0  0  0  0  0  0  0  0  0  0  0
  146.9203  139.0247  152.5018 H   0  0  0  0  0  0  0  0  0  0  0  0
  145.7815  141.2249  152.8387 H   0  0  0  0  0  0  0  0  0  0  0  0
  146.7948  142.9754  154.2514 H   0  0  0  0  0  0  0  0  0  0  0  0
  148.9851  142.6076  155.3848 H   0  0  0  0  0  0  0  0  0  0  0  0
  152.3520  141.1796  159.0787 H   0  0  0  0  0  0  0  0  0  0  0  0
  149.3224  137.6322  153.2932 H   0  0  0  0  0  0  0  0  0  0  0  0
  1  2  1  0  0  0  0
  1 22  1  0  0  0  0
  1 23  1  0  0  0  0
  1 24  1  0  0  0  0
  2 21  1  0  0  0  0
  2  3  2  0  0  0  0
  3  4  1  0  0  0  0
  3 25  1  0  0  0  0
  4  5  2  0  0  0  0
  4 26  1  0  0  0  0
  5  6  1  0  0  0  0
  5 27  1  0  0  0  0
  6  7  1  0  0  0  0
  6 21  2  0  0  0  0
  7  8  1  0  0  0  0
  8  9  1  0  0  0  0
  8 28  1  0  0  0  0
  8 29  1  0  0  0  0
  9 10  1  0  0  0  0
  9 30  1  0  0  0  0
  9 31  1  0  0  0  0
 10 20  1  0  0  0  0
 10 11  1  0  0  0  0
 11 12  1  0  0  0  0
 11 14  2  0  0  0  0
 12 13  1  0  0  0  0
 12 32  1  0  0  0  0
 12 33  1  0  0  0  0
 13 34  1  0  0  0  0
 14 15  1  0  0  0  0
 14 40  1  0  0  0  0
 15 20  2  0  0  0  0
 15 16  1  0  0  0  0
 16 17  2  0  0  0  0
 16 35  1  0  0  0  0
 17 18  1  0  0  0  0
 17 36  1  0  0  0  0
 18 19  2  0  0  0  0
 18 37  1  0  0  0  0
 19 20  1  0  0  0  0
 19 38  1  0  0  0  0
 21 39  1  0  0  0  0
M  CHG  1  14   1
M  END
> <s_m_source_file>
AV-unprocessed.smi

> <i_m_source_file_index>
2958

> <i_lp_mmshare_version>
43012

> <i_f3d_flags>
0

> <s_epik_input>
W0NIM11jMVtjSF1bY0hdW2NIXWMoW2NIXTEpT1tDSDJdW0NIMl1uKGMobjIpW0NIMl1bT0hdKWMoYzIzKVtjSF1bY0hdW2NIXVtjSF0z

> <s_epik_cmdline>
J2VwaWtfcHl0aG9uJywgJy1waCcsICc3LjAnLCAnLXRuJywgJzgnLCAnLW1hJywgJzIwMCcsICctbWV0YWxfYmluZGluZycsICctaW1hZScsICc8aW5maWxlLm1hZT4nLCAnLW9tYWUnLCAnPG91dGZpbGUubWFlPic=

> <r_lp_tautomer_probability>
1

> <r_epik_Ionization_Penalty>
1.51131

> <r_epik_Ionization_Penalty_Charging>
1.51045

> <r_epik_Ionization_Penalty_Neutral>
0.000855784

> <r_epik_State_Penalty>
1.60143

> <r_epik_Charging_Adjusted_Penalty>
3.11188

> <i_epik_Tot_Q>
1

> <i_epik_Tot_abs_Q>
1

> <r_epik_Metal_State_Penalty>
5.65313

> <b_epik_Metal_Only>
0

> <s_lp_Force_Field>
OPLS_2005

> <r_lp_Energy>
18.3571

> <b_lp_Chiralities_Consistent>
1

> <s_lp_Variant>
AV-unprocessed.smi:2958-2

> <Gold.Version>
5.8.1

> <Gold.Id.Protein>
6NUR|6NUR_protein|mol2

> <Gold.PLP.Fitness>
62.0930

> <Gold.PLP.PLP>
-52.1873

> <Gold.PLP.part.hbond>
-4.0000

> <Gold.PLP.part.metal>
0.0000

> <Gold.PLP.part.buried>
0.0448

> <Gold.PLP.part.nonpolar>
-48.6258

> <Gold.PLP.part.repulsive>
0.1922

> <Gold.PLP.ligand.clash>
0.0000

> <Gold.PLP.ligand.torsion>
1.0700

> <Gold.PLP.Chemscore.Hbond>
4.0000

> <Gold.PLP.Chemscore.CHOScore>
0.0000

> <Gold.PLP.Chemscore.Metal>
0.0000

> <Gold.Chemscore.Hbonds>
donor molecule, donor type, donor heavy atom, donor atom, acceptor molecule, acceptor atom, score
      L1  H    13    34       P1  7949  1.00
      L1  H    14    40       P1  7948  2.00
      P1  H 10752 10763       L1    13  1.00

> <Gold.PLP.Chemscore.Internal.Correction>
0.0458

> <Gold.Rescore>
     Score         DG    S(hbond)    S(metal)    S(lipo)     H(rot)  DE(clash)    DE(int)     intcor
     21.52     -24.78       2.65        0.00     138.01       2.23       1.52       1.74       ----

> <Gold.Chemscore.Fitness>
21.5182

> <Gold.Chemscore.DG>
-24.7832

> <Gold.Chemscore.ZeroCoef>
-5.4800

> <Gold.Chemscore.Hbond>
2.6510

> <Gold.Chemscore.Metal>
0.0000

> <Gold.Chemscore.Lipo>
138.0073

> <Gold.Chemscore.Internal_Hbond>
0.0000

> <Gold.Chemscore.DEClash>
1.5223

> <Gold.Chemscore.DEInternal>
1.7427

> <Gold.Chemscore.Rot>
2.2258

> <Gold.Chemscore.Internal.Correction>
   9.000000E+99

> <Gold.Chemscore.Hbonds>
donor molecule, donor type, donor heavy atom, donor atom, acceptor molecule, acceptor atom, score
      L1  H    13    34       P1  7949  0.70
      L1  H    14    40       P1  7948  0.93
      P1  H 10752 10763       L1    13  0.37

> <Gold.Chemscore.Hbond.Weighted>
-8.8545

> <Gold.Chemscore.Metal.Weighted>
-0.0000

> <Gold.Chemscore.Lipo.Weighted>
-16.1469

> <Gold.Chemscore.Internal_Hbond.Weighted>
0.0000

> <Gold.Chemscore.DEClash.Weighted>
1.5223

> <Gold.Chemscore.DEInternal.Weighted>
1.7427

> <Gold.Chemscore.Rot.Weighted>
5.6982

> <Gold.Chemscore.Internal.Correction.Weighted>
   9.000000E+99

> <Gold.Protein.RotatedTorsions>
[ 6907 6896 6895 6894 ] final  168.48 input  -60.11 | X-H torsion
[ 7974 7965 7964 7962 ] final    1.00 input  175.53 | X-H torsion
[ 8008 7997 7996 7995 ] final -113.90 input   59.86 | X-H torsion
[ 10167 10162 10161 10158 ] final  163.26 input  -65.29 | X-H torsion
[ 10718 10713 10712 10709 ] final  -12.54 input   66.30 | X-H torsion
[ 10763 10752 10751 10750 ] final   44.52 input  -60.55 | X-H torsion
[ 11005 11000 10999 10996 ] final  113.44 input  -57.11 | X-H torsion

> <Gold.Protein.ActiveResidues>
 VAL166  LYS551  ARG553  GLY616  TRP617  ASP618  TYR619  PRO620  LYS621  CYS622 
 ASP623  PHE694  ASN695  SER759  ASP760  ASP761  ALA762  ILE779  LEU786  VAL792 
 PHE793  MET794  SER795  GLU796  ALA797  LYS798  CYS799  TRP800  GLU811  SER814 

> <Gold.Protein.RotatedAtoms>
  151.8469  133.3433  159.3660 H   0  0  0  0  0  0  0  0  0  0  0  0  # atno 6907 bound_to 6896
  150.7218  134.5337  159.5722 H   0  0  0  0  0  0  0  0  0  0  0  0  # atno 6908 bound_to 6896
  152.2822  134.7816  160.0445 H   0  0  0  0  0  0  0  0  0  0  0  0  # atno 6909 bound_to 6896
  146.2438  140.1053  142.8346 H   0  0  0  0  0  0  0  0  0  0  0  0  # atno 7974 bound_to 7965
  155.0280  140.0393  157.2463 H   0  0  0  0  0  0  0  0  0  0  0  0  # atno 8008 bound_to 7997
  154.7321  140.2732  155.6423 H   0  0  0  0  0  0  0  0  0  0  0  0  # atno 8009 bound_to 7997
  156.2844  140.2682  156.2024 H   0  0  0  0  0  0  0  0  0  0  0  0  # atno 8010 bound_to 7997
  139.4871  144.4355  151.9017 H   0  0  0  0  0  0  0  0  0  0  0  0  # atno 10167 bound_to 10162
  156.6432  130.4934  149.6087 H   0  0  0  0  0  0  0  0  0  0  0  0  # atno 10718 bound_to 10713
  152.9840  135.6068  154.3287 H   0  0  0  0  0  0  0  0  0  0  0  0  # atno 10763 bound_to 10752
  154.2991  135.2773  155.2621 H   0  0  0  0  0  0  0  0  0  0  0  0  # atno 10764 bound_to 10752
  154.4881  135.5899  153.6495 H   0  0  0  0  0  0  0  0  0  0  0  0  # atno 10765 bound_to 10752
  139.8953  134.9550  156.6739 H   0  0  0  0  0  0  0  0  0  0  0  0  # atno 11005 bound_to 11000
  145.0533  140.9034  143.4982 LP  0  0  0  0  0  0  0  0  0  0  0  0  # atno 17320 bound_to 7965
  145.1155  139.2728  143.5615 LP  0  0  0  0  0  0  0  0  0  0  0  0  # atno 17321 bound_to 7965
  140.3804  144.2743  150.5909 LP  0  0  0  0  0  0  0  0  0  0  0  0  # atno 17342 bound_to 10162
  140.5238  143.2259  151.8347 LP  0  0  0  0  0  0  0  0  0  0  0  0  # atno 17343 bound_to 10162
  156.2142  130.6698  151.1302 LP  0  0  0  0  0  0  0  0  0  0  0  0  # atno 17370 bound_to 10713
  157.7164  131.0707  150.6309 LP  0  0  0  0  0  0  0  0  0  0  0  0  # atno 17371 bound_to 10713
  140.7351  133.9025  155.8239 LP  0  0  0  0  0  0  0  0  0  0  0  0  # atno 17394 bound_to 11000
  141.0122  134.1005  157.4209 LP  0  0  0  0  0  0  0  0  0  0  0  0  # atno 17395 bound_to 11000

$$$$
