AV-unprocessed.smi:203|AV-procd|sdf|1586|dock10
  -GOLD-   2262019483D 1   1.00000     0.00000
 Structure written by MMmdl.
 57 61  0  0  0  0  0  0  0  0  1 V2000
  149.3537  144.8550  159.5552 O   0  0  0  0  0  0  0  0  0  0  0  0
  149.9491  143.9043  159.0535 C   0  0  0  0  0  0  0  0  0  0  0  0
  151.4614  143.8302  158.9333 C   0  0  0  0  0  0  0  0  0  0  0  0
  151.7194  142.3796  158.4761 C   0  0  1  0  0  0  0  0  0  0  0  0
  152.4039  141.4745  159.5494 C   0  0  2  0  0  0  0  0  0  0  0  0
  153.3301  142.2721  160.5060 C   0  0  0  0  0  0  0  0  0  0  0  0
  153.9887  141.3623  161.5510 C   0  0  0  0  0  0  0  0  0  0  0  0
  154.7451  140.2277  160.8521 C   0  0  0  0  0  0  0  0  0  0  0  0
  153.8032  139.4542  159.9200 C   0  0  0  0  0  0  0  0  0  0  0  0
  153.1492  140.3461  158.9626 N   0  0  0  0  0  0  0  0  0  0  0  0
  152.5012  139.6290  158.0174 C   0  0  0  0  0  0  0  0  0  0  0  0
  152.8153  139.8845  156.7239 N   0  0  0  0  0  0  0  0  0  0  0  0
  152.1999  139.2158  155.7440 C   0  0  0  0  0  0  0  0  0  0  0  0
  151.2651  138.2670  155.8384 N   0  0  0  0  0  0  0  0  0  0  0  0
  150.9539  138.0047  157.1403 C   0  0  0  0  0  0  0  0  0  0  0  0
  151.5185  138.6342  158.2846 C   0  0  0  0  0  0  0  0  0  0  0  0
  150.9546  138.1102  159.4420 N   0  0  0  0  0  0  0  0  0  0  0  0
  150.1050  137.2202  159.0060 C   0  0  0  0  0  0  0  0  0  0  0  0
  150.0411  137.0916  157.6373 N   0  0  0  0  0  0  0  0  0  0  0  0
  149.1899  136.1826  156.8906 C   0  0  0  0  0  0  0  0  0  0  0  0
  149.9636  134.9571  156.3596 C   0  0  1  0  0  0  0  0  0  0  0  0
  150.5900  134.2658  157.4217 O   0  0  0  0  0  0  0  0  0  0  0  0
  149.1011  133.9583  155.5607 C   0  0  2  0  0  0  0  0  0  0  0  0
  149.8839  132.7819  154.9640 C   0  0  0  0  0  0  0  0  0  0  0  0
  149.1701  132.4769  153.6534 C   0  0  0  0  0  0  0  0  0  0  0  0
  148.0534  133.5167  153.5838 C   0  0  0  0  0  0  0  0  0  0  0  0
  148.5119  134.5659  154.4198 O   0  0  0  0  0  0  0  0  0  0  0  0
  150.3394  141.8554  158.0237 C   0  0  0  0  0  0  0  0  0  0  0  0
  149.3825  142.8120  158.5448 N   0  0  0  0  0  0  0  0  0  0  0  0
  151.7965  144.5435  158.1796 H   0  0  0  0  0  0  0  0  0  0  0  0
  151.9493  144.0809  159.8754 H   0  0  0  0  0  0  0  0  0  0  0  0
  152.3453  142.4044  157.5835 H   0  0  0  0  0  0  0  0  0  0  0  0
  151.6110  141.0438  160.1622 H   0  0  0  0  0  0  0  0  0  0  0  0
  154.1138  142.7768  159.9408 H   0  0  0  0  0  0  0  0  0  0  0  0
  152.7753  143.0550  161.0216 H   0  0  0  0  0  0  0  0  0  0  0  0
  154.6700  141.9392  162.1771 H   0  0  0  0  0  0  0  0  0  0  0  0
  153.2275  140.9480  162.2130 H   0  0  0  0  0  0  0  0  0  0  0  0
  155.5772  140.6371  160.2775 H   0  0  0  0  0  0  0  0  0  0  0  0
  155.1773  139.5529  161.5912 H   0  0  0  0  0  0  0  0  0  0  0  0
  154.3686  138.6870  159.3883 H   0  0  0  0  0  0  0  0  0  0  0  0
  153.0456  138.9380  160.5113 H   0  0  0  0  0  0  0  0  0  0  0  0
  152.4982  139.4794  154.7400 H   0  0  0  0  0  0  0  0  0  0  0  0
  149.4958  136.6293  159.6745 H   0  0  0  0  0  0  0  0  0  0  0  0
  148.3679  135.8694  157.5353 H   0  0  0  0  0  0  0  0  0  0  0  0
  148.7418  136.7401  156.0683 H   0  0  0  0  0  0  0  0  0  0  0  0
  150.7701  135.3021  155.7112 H   0  0  0  0  0  0  0  0  0  0  0  0
  151.0647  133.5327  157.0600 H   0  0  0  0  0  0  0  0  0  0  0  0
  148.3062  133.5558  156.1925 H   0  0  0  0  0  0  0  0  0  0  0  0
  150.9200  133.0526  154.7603 H   0  0  0  0  0  0  0  0  0  0  0  0
  149.8960  131.9256  155.6390 H   0  0  0  0  0  0  0  0  0  0  0  0
  149.8591  132.6015  152.8173 H   0  0  0  0  0  0  0  0  0  0  0  0
  148.7779  131.4601  153.6161 H   0  0  0  0  0  0  0  0  0  0  0  0
  147.8645  133.8650  152.5682 H   0  0  0  0  0  0  0  0  0  0  0  0
  147.1228  133.1137  153.9869 H   0  0  0  0  0  0  0  0  0  0  0  0
  150.2663  141.8473  156.9352 H   0  0  0  0  0  0  0  0  0  0  0  0
  150.1242  140.8458  158.3737 H   0  0  0  0  0  0  0  0  0  0  0  0
  148.3858  142.6522  158.5199 H   0  0  0  0  0  0  0  0  0  0  0  0
  1  2  2  0  0  0  0
  2 29  1  0  0  0  0
  2  3  1  0  0  0  0
  3  4  1  0  0  0  0
  3 30  1  0  0  0  0
  3 31  1  0  0  0  0
  4  5  1  0  0  0  0
  4 28  1  0  0  0  0
  4 32  1  0  0  0  0
  5 10  1  0  0  0  0
  5  6  1  0  0  0  0
  5 33  1  0  0  0  0
  6  7  1  0  0  0  0
  6 34  1  0  0  0  0
  6 35  1  0  0  0  0
  7  8  1  0  0  0  0
  7 36  1  0  0  0  0
  7 37  1  0  0  0  0
  8  9  1  0  0  0  0
  8 38  1  0  0  0  0
  8 39  1  0  0  0  0
  9 10  1  0  0  0  0
  9 40  1  0  0  0  0
  9 41  1  0  0  0  0
 10 11  1  0  0  0  0
 11 16  1  0  0  0  0
 11 12  2  0  0  0  0
 12 13  1  0  0  0  0
 13 14  2  0  0  0  0
 13 42  1  0  0  0  0
 14 15  1  0  0  0  0
 15 19  1  0  0  0  0
 15 16  2  0  0  0  0
 16 17  1  0  0  0  0
 17 18  2  0  0  0  0
 18 19  1  0  0  0  0
 18 43  1  0  0  0  0
 19 20  1  0  0  0  0
 20 21  1  0  0  0  0
 20 44  1  0  0  0  0
 20 45  1  0  0  0  0
 21 22  1  0  0  0  0
 21 23  1  0  0  0  0
 21 46  1  0  0  0  0
 22 47  1  0  0  0  0
 23 27  1  0  0  0  0
 23 24  1  0  0  0  0
 23 48  1  0  0  0  0
 24 25  1  0  0  0  0
 24 49  1  0  0  0  0
 24 50  1  0  0  0  0
 25 26  1  0  0  0  0
 25 51  1  0  0  0  0
 25 52  1  0  0  0  0
 26 27  1  0  0  0  0
 26 53  1  0  0  0  0
 26 54  1  0  0  0  0
 28 29  1  0  0  0  0
 28 55  1  0  0  0  0
 28 56  1  0  0  0  0
 29 57  1  0  0  0  0
M  END
> <s_m_source_file>
AV-unprocessed.smi

> <i_m_source_file_index>
203

> <i_lp_mmshare_version>
43012

> <i_f3d_flags>
0

> <s_epik_input>
Tz1DMVtDSDJdW0NASF0oW0NIMl1bTkhdMSlbQ0BASF0yW0NIMl1bQ0gyXVtDSDJdW0NIMl1OMmMobltjSF1uMyljKGMzNCluW2NIXW40W0NIMl1bQ0BIXShbT0hdKVtDQEBIXTVbQ0gyXVtDSDJdW0NIMl1PNQ==

> <s_epik_cmdline>
J2VwaWtfcHl0aG9uJywgJy1waCcsICc3LjAnLCAnLXRuJywgJzgnLCAnLW1hJywgJzIwMCcsICctbWV0YWxfYmluZGluZycsICctaW1hZScsICc8aW5maWxlLm1hZT4nLCAnLW9tYWUnLCAnPG91dGZpbGUubWFlPic=

> <r_lp_tautomer_probability>
1

> <r_epik_Ionization_Penalty>
0.00175146

> <r_epik_Ionization_Penalty_Charging>
0

> <r_epik_Ionization_Penalty_Neutral>
0.00175146

> <r_epik_State_Penalty>
0.00109045

> <r_epik_Charging_Adjusted_Penalty>
0.00109045

> <i_epik_Tot_Q>
0

> <i_epik_Tot_abs_Q>
0

> <r_epik_Metal_State_Penalty>
-0

> <b_epik_Metal_Only>
0

> <s_lp_Force_Field>
OPLS_2005

> <r_lp_Energy>
58.3664

> <b_lp_Chiralities_Consistent>
1

> <s_lp_Variant>
AV-unprocessed.smi:203-5

> <Gold.Version>
5.8.1

> <Gold.Id.Protein>
6NUR|6NUR_protein|mol2

> <Gold.PLP.Fitness>
45.3456

> <Gold.PLP.PLP>
-42.5747

> <Gold.PLP.part.hbond>
-2.8018

> <Gold.PLP.part.metal>
0.0000

> <Gold.PLP.part.buried>
-5.4781

> <Gold.PLP.part.nonpolar>
-35.4759

> <Gold.PLP.part.repulsive>
2.0229

> <Gold.PLP.ligand.clash>
0.0000

> <Gold.PLP.ligand.torsion>
1.1696

> <Gold.PLP.Chemscore.Hbond>
1.6080

> <Gold.PLP.Chemscore.CHOScore>
0.0000

> <Gold.PLP.Chemscore.Metal>
0.0000

> <Gold.Chemscore.Hbonds>
donor molecule, donor type, donor heavy atom, donor atom, acceptor molecule, acceptor atom, score
      P1  H  6896  6907       L1    22  0.58
      P1  H  7997  8009       L1    12  1.00

> <Gold.PLP.Chemscore.Internal.Correction>
0.2861

> <Gold.Rescore>
     Score         DG    S(hbond)    S(metal)    S(lipo)     H(rot)  DE(clash)    DE(int)     intcor
     13.45     -14.69       1.52        0.00      94.85       2.72       0.03       1.21       ----

> <Gold.Chemscore.Fitness>
13.4497

> <Gold.Chemscore.DG>
-14.6895

> <Gold.Chemscore.ZeroCoef>
-5.4800

> <Gold.Chemscore.Hbond>
1.5174

> <Gold.Chemscore.Metal>
0.0000

> <Gold.Chemscore.Lipo>
94.8453

> <Gold.Chemscore.Internal_Hbond>
0.0000

> <Gold.Chemscore.DEClash>
0.0291

> <Gold.Chemscore.DEInternal>
1.2107

> <Gold.Chemscore.Rot>
2.7171

> <Gold.Chemscore.Internal.Correction>
   9.000000E+99

> <Gold.Chemscore.Hbonds>
donor molecule, donor type, donor heavy atom, donor atom, acceptor molecule, acceptor atom, score
      P1  H  6896  6907       L1    22  0.13
      P1  H  7997  8009       L1    12  0.66

> <Gold.Chemscore.Hbond.Weighted>
-5.0683

> <Gold.Chemscore.Metal.Weighted>
-0.0000

> <Gold.Chemscore.Lipo.Weighted>
-11.0969

> <Gold.Chemscore.Internal_Hbond.Weighted>
0.0000

> <Gold.Chemscore.DEClash.Weighted>
0.0291

> <Gold.Chemscore.DEInternal.Weighted>
1.2107

> <Gold.Chemscore.Rot.Weighted>
6.9557

> <Gold.Chemscore.Internal.Correction.Weighted>
   9.000000E+99

> <Gold.Protein.RotatedTorsions>
[ 6907 6896 6895 6894 ] final -115.84 input  -60.11 | X-H torsion
[ 7974 7965 7964 7962 ] final  122.17 input  175.53 | X-H torsion
[ 8008 7997 7996 7995 ] final -158.06 input   59.86 | X-H torsion
[ 10167 10162 10161 10158 ] final  -84.86 input  -65.29 | X-H torsion
[ 10718 10713 10712 10709 ] final -152.68 input   66.30 | X-H torsion
[ 10763 10752 10751 10750 ] final  -99.91 input  -60.55 | X-H torsion
[ 11005 11000 10999 10996 ] final  169.52 input  -57.11 | X-H torsion

> <Gold.Protein.ActiveResidues>
 VAL166  LYS551  ARG553  GLY616  TRP617  ASP618  TYR619  PRO620  LYS621  CYS622 
 ASP623  PHE694  ASN695  SER759  ASP760  ASP761  ALA762  ILE779  LEU786  VAL792 
 PHE793  MET794  SER795  GLU796  ALA797  LYS798  CYS799  TRP800  GLU811  SER814 

> <Gold.Protein.RotatedAtoms>
  150.8009  133.8601  159.3229 H   0  0  0  0  0  0  0  0  0  0  0  0  # atno 6907 bound_to 6896
  151.6413  135.1010  160.0151 H   0  0  0  0  0  0  0  0  0  0  0  0  # atno 6908 bound_to 6896
  152.4096  133.6903  159.6421 H   0  0  0  0  0  0  0  0  0  0  0  0  # atno 6909 bound_to 6896
  145.1107  139.3454  143.4764 H   0  0  0  0  0  0  0  0  0  0  0  0  # atno 7974 bound_to 7965
  155.7418  140.0815  157.2242 H   0  0  0  0  0  0  0  0  0  0  0  0  # atno 8008 bound_to 7997
  154.4021  140.1576  156.2680 H   0  0  0  0  0  0  0  0  0  0  0  0  # atno 8009 bound_to 7997
  155.9013  140.3409  155.6031 H   0  0  0  0  0  0  0  0  0  0  0  0  # atno 8010 bound_to 7997
  140.4093  143.2629  151.9039 H   0  0  0  0  0  0  0  0  0  0  0  0  # atno 10167 bound_to 10162
  156.4758  130.8280  151.2508 H   0  0  0  0  0  0  0  0  0  0  0  0  # atno 10718 bound_to 10713
  154.7536  135.4955  153.9334 H   0  0  0  0  0  0  0  0  0  0  0  0  # atno 10763 bound_to 10752
  153.1171  135.6723  153.9407 H   0  0  0  0  0  0  0  0  0  0  0  0  # atno 10764 bound_to 10752
  153.9150  135.3094  155.3427 H   0  0  0  0  0  0  0  0  0  0  0  0  # atno 10765 bound_to 10752
  140.2987  134.7613  157.3898 H   0  0  0  0  0  0  0  0  0  0  0  0  # atno 11005 bound_to 11000
  146.3526  140.1025  142.8607 LP  0  0  0  0  0  0  0  0  0  0  0  0  # atno 17320 bound_to 7965
  145.0850  140.9246  143.4803 LP  0  0  0  0  0  0  0  0  0  0  0  0  # atno 17321 bound_to 7965
  139.4783  144.5554  151.8322 LP  0  0  0  0  0  0  0  0  0  0  0  0  # atno 17342 bound_to 10162
  140.4655  144.1661  150.5911 LP  0  0  0  0  0  0  0  0  0  0  0  0  # atno 17343 bound_to 10162
  157.7487  131.0061  150.3140 LP  0  0  0  0  0  0  0  0  0  0  0  0  # atno 17370 bound_to 10713
  156.3572  130.3841  149.7281 LP  0  0  0  0  0  0  0  0  0  0  0  0  # atno 17371 bound_to 10713
  140.1129  134.5321  155.8250 LP  0  0  0  0  0  0  0  0  0  0  0  0  # atno 17394 bound_to 11000
  141.2132  133.6730  156.6723 LP  0  0  0  0  0  0  0  0  0  0  0  0  # atno 17395 bound_to 11000

$$$$
