AV-unprocessed.smi:1667|AV-procd|sdf|6679|dock6
  -GOLD-   22720 7393D 1   1.00000     0.00000
 Structure written by MMmdl.
 46 48  0  0  0  0  0  0  0  0  2 V2000
  146.2827  133.5374  151.7824 C   0  0  0  0  0  0  0  0  0  0  0  0
  146.8378  133.1101  153.1367 C   0  0  0  0  0  0  0  0  0  0  0  0
  146.3999  132.1006  153.6875 O   0  0  0  0  0  0  0  0  0  0  0  0
  147.7963  133.8897  153.6616 N   0  0  0  0  0  0  0  0  0  0  0  0
  148.4577  133.6736  154.9450 C   0  0  1  0  0  0  0  0  0  0  0  0
  149.0612  132.2601  154.9908 C   0  0  0  0  0  0  0  0  0  0  0  0
  149.4773  134.7427  155.2088 C   0  0  0  0  0  0  0  0  0  0  0  0
  150.0719  135.5414  154.2753 N   0  3  0  0  0  0  0  0  0  0  0  0
  150.9635  136.4166  154.8945 C   0  0  0  0  0  0  0  0  0  0  0  0
  151.7974  137.3955  154.3631 C   0  0  0  0  0  0  0  0  0  0  0  0
  152.5907  138.1165  155.2797 C   0  0  0  0  0  0  0  0  0  0  0  0
  152.5333  137.8555  156.6642 C   0  0  0  0  0  0  0  0  0  0  0  0
  151.6810  136.8624  157.1909 C   0  0  0  0  0  0  0  0  0  0  0  0
  150.9030  136.1522  156.2771 C   0  0  0  0  0  0  0  0  0  0  0  0
  149.9708  135.1194  156.4265 N   0  0  0  0  0  0  0  0  0  0  0  0
  149.6791  134.6175  157.7799 C   0  0  0  0  0  0  0  0  0  0  0  0
  148.2999  135.0688  158.3014 C   0  0  1  0  0  0  0  0  0  0  0  0
  147.3099  134.3007  157.6496 O   0  0  0  0  0  0  0  0  0  0  0  0
  148.2035  134.9730  159.8169 C   0  0  0  0  0  0  0  0  0  0  0  0
  149.1237  135.6567  160.6427 C   0  0  0  0  0  0  0  0  0  0  0  0
  149.0004  135.5954  162.0440 C   0  0  0  0  0  0  0  0  0  0  0  0
  147.9595  134.8485  162.6282 C   0  0  0  0  0  0  0  0  0  0  0  0
  147.0412  134.1630  161.8102 C   0  0  0  0  0  0  0  0  0  0  0  0
  146.0364  133.4491  162.3703 F   0  0  0  0  0  0  0  0  0  0  0  0
  147.1631  134.2247  160.4087 C   0  0  0  0  0  0  0  0  0  0  0  0
  147.7274  133.7319  155.7507 H   0  0  0  0  0  0  0  0  0  0  0  0
  147.0294  134.0822  151.2035 H   0  0  0  0  0  0  0  0  0  0  0  0
  145.4138  134.1812  151.9193 H   0  0  0  0  0  0  0  0  0  0  0  0
  145.9756  132.6657  151.2034 H   0  0  0  0  0  0  0  0  0  0  0  0
  148.0847  134.7003  153.1334 H   0  0  0  0  0  0  0  0  0  0  0  0
  149.5282  132.0640  155.9566 H   0  0  0  0  0  0  0  0  0  0  0  0
  149.8158  132.1177  154.2163 H   0  0  0  0  0  0  0  0  0  0  0  0
  148.2903  131.5030  154.8429 H   0  0  0  0  0  0  0  0  0  0  0  0
  151.8426  137.5976  153.3029 H   0  0  0  0  0  0  0  0  0  0  0  0
  153.2564  138.8847  154.9136 H   0  0  0  0  0  0  0  0  0  0  0  0
  153.1560  138.4283  157.3362 H   0  0  0  0  0  0  0  0  0  0  0  0
  151.6451  136.6689  158.2530 H   0  0  0  0  0  0  0  0  0  0  0  0
  149.7481  133.5292  157.7547 H   0  0  0  0  0  0  0  0  0  0  0  0
  150.4708  134.9539  158.4491 H   0  0  0  0  0  0  0  0  0  0  0  0
  148.1233  136.1041  158.0080 H   0  0  0  0  0  0  0  0  0  0  0  0
  146.7022  134.8894  157.2282 H   0  0  0  0  0  0  0  0  0  0  0  0
  149.9176  136.2444  160.2048 H   0  0  0  0  0  0  0  0  0  0  0  0
  149.7017  136.1265  162.6706 H   0  0  0  0  0  0  0  0  0  0  0  0
  147.8641  134.8035  163.7031 H   0  0  0  0  0  0  0  0  0  0  0  0
  146.4470  133.7054  159.7889 H   0  0  0  0  0  0  0  0  0  0  0  0
  149.8834  135.4822  153.2829 H   0  0  0  0  0  0  0  0  0  0  0  0
  1  2  1  0  0  0  0
  1 27  1  0  0  0  0
  1 28  1  0  0  0  0
  1 29  1  0  0  0  0
  2  3  2  0  0  0  0
  2  4  1  0  0  0  0
  4  5  1  0  0  0  0
  4 30  1  0  0  0  0
  5 26  1  0  0  0  0
  5  6  1  0  0  0  0
  5  7  1  0  0  0  0
  6 31  1  0  0  0  0
  6 32  1  0  0  0  0
  6 33  1  0  0  0  0
  7 15  1  0  0  0  0
  7  8  2  0  0  0  0
  8  9  1  0  0  0  0
  8 46  1  0  0  0  0
  9 14  2  0  0  0  0
  9 10  1  0  0  0  0
 10 11  2  0  0  0  0
 10 34  1  0  0  0  0
 11 12  1  0  0  0  0
 11 35  1  0  0  0  0
 12 13  2  0  0  0  0
 12 36  1  0  0  0  0
 13 14  1  0  0  0  0
 13 37  1  0  0  0  0
 14 15  1  0  0  0  0
 15 16  1  0  0  0  0
 16 17  1  0  0  0  0
 16 38  1  0  0  0  0
 16 39  1  0  0  0  0
 17 18  1  0  0  0  0
 17 19  1  0  0  0  0
 17 40  1  0  0  0  0
 18 41  1  0  0  0  0
 19 25  1  0  0  0  0
 19 20  2  0  0  0  0
 20 21  1  0  0  0  0
 20 42  1  0  0  0  0
 21 22  2  0  0  0  0
 21 43  1  0  0  0  0
 22 23  1  0  0  0  0
 22 44  1  0  0  0  0
 23 24  1  0  0  0  0
 23 25  2  0  0  0  0
 25 45  1  0  0  0  0
M  CHG  1   8   1
M  END
> <s_m_source_file>
AV-unprocessed.smi

> <i_m_source_file_index>
1667

> <i_lp_mmshare_version>
43012

> <i_f3d_flags>
0

> <s_epik_input>
W0NIM11DKD1PKVtOSF1bQ0BASF0oW0NIM10pYyhuMSluKGMoYzEyKVtjSF1bY0hdW2NIXVtjSF0yKVtDSDJdW0NASF0oW09IXSljM1tjSF1bY0hdW2NIXWMoRilbY0hdMw==

> <s_epik_cmdline>
J2VwaWtfcHl0aG9uJywgJy1waCcsICc3LjAnLCAnLXRuJywgJzgnLCAnLW1hJywgJzIwMCcsICctbWV0YWxfYmluZGluZycsICctaW1hZScsICc8aW5maWxlLm1hZT4nLCAnLW9tYWUnLCAnPG91dGZpbGUubWFlPic=

> <r_epik_Ionization_Penalty>
0.950383

> <r_epik_Ionization_Penalty_Charging>
0.950379

> <r_epik_Ionization_Penalty_Neutral>
3.60962e-06

> <r_epik_State_Penalty>
0.994584

> <r_epik_Charging_Adjusted_Penalty>
1.94496

> <i_epik_Tot_Q>
1

> <i_epik_Tot_abs_Q>
1

> <r_epik_Metal_State_Penalty>
1.10485

> <b_epik_Metal_Only>
0

> <s_lp_Force_Field>
OPLS_2005

> <r_lp_Energy>
12.894

> <b_lp_Chiralities_Consistent>
1

> <s_lp_Variant>
AV-unprocessed.smi:1667-7

> <Gold.Version>
5.8.1

> <Gold.Id.Protein>
6NUR|6NUR_protein|mol2

> <Gold.PLP.Fitness>
47.4001

> <Gold.PLP.PLP>
-40.1370

> <Gold.PLP.part.hbond>
-2.0015

> <Gold.PLP.part.metal>
0.0000

> <Gold.PLP.part.buried>
-4.8337

> <Gold.PLP.part.nonpolar>
-34.4591

> <Gold.PLP.part.repulsive>
0.1093

> <Gold.PLP.ligand.clash>
0.0000

> <Gold.PLP.ligand.torsion>
0.8988

> <Gold.PLP.Chemscore.Hbond>
3.0000

> <Gold.PLP.Chemscore.CHOScore>
0.0000

> <Gold.PLP.Chemscore.Metal>
0.0000

> <Gold.Chemscore.Hbonds>
donor molecule, donor type, donor heavy atom, donor atom, acceptor molecule, acceptor atom, score
      L1  H     4    30       P1  7948  0.73
      L1  H     8    46       P1  7948  0.38

> <Gold.PLP.Chemscore.Internal.Correction>
0.0607

> <Gold.Rescore>
     Score         DG    S(hbond)    S(metal)    S(lipo)     H(rot)  DE(clash)    DE(int)     intcor
     14.27     -15.76       1.88        0.00      89.56       2.53       0.00       1.48       ----

> <Gold.Chemscore.Fitness>
14.2744

> <Gold.Chemscore.DG>
-15.7550

> <Gold.Chemscore.ZeroCoef>
-5.4800

> <Gold.Chemscore.Hbond>
1.8809

> <Gold.Chemscore.Metal>
0.0000

> <Gold.Chemscore.Lipo>
89.5597

> <Gold.Chemscore.Internal_Hbond>
0.0000

> <Gold.Chemscore.DEClash>
0.0000

> <Gold.Chemscore.DEInternal>
1.4806

> <Gold.Chemscore.Rot>
2.5335

> <Gold.Chemscore.Internal.Correction>
   9.000000E+99

> <Gold.Chemscore.Hbonds>
donor molecule, donor type, donor heavy atom, donor atom, acceptor molecule, acceptor atom, score
      L1  H     4    30       P1  7948  0.60

> <Gold.Chemscore.Hbond.Weighted>
-6.2822

> <Gold.Chemscore.Metal.Weighted>
-0.0000

> <Gold.Chemscore.Lipo.Weighted>
-10.4785

> <Gold.Chemscore.Internal_Hbond.Weighted>
0.0000

> <Gold.Chemscore.DEClash.Weighted>
0.0000

> <Gold.Chemscore.DEInternal.Weighted>
1.4806

> <Gold.Chemscore.Rot.Weighted>
6.4856

> <Gold.Chemscore.Internal.Correction.Weighted>
   9.000000E+99

> <Gold.Protein.RotatedTorsions>
[ 6907 6896 6895 6894 ] final   39.17 input  -60.11 | X-H torsion
[ 7974 7965 7964 7962 ] final  -75.97 input  175.53 | X-H torsion
[ 8008 7997 7996 7995 ] final -120.94 input   59.86 | X-H torsion
[ 10167 10162 10161 10158 ] final  -34.74 input  -65.29 | X-H torsion
[ 10718 10713 10712 10709 ] final -147.10 input   66.30 | X-H torsion
[ 10763 10752 10751 10750 ] final -138.13 input  -60.55 | X-H torsion
[ 11005 11000 10999 10996 ] final -113.02 input  -57.11 | X-H torsion

> <Gold.Protein.ActiveResidues>
 VAL166  LYS551  ARG553  GLY616  TRP617  ASP618  TYR619  PRO620  LYS621  CYS622 
 ASP623  PHE694  ASN695  SER759  ASP760  ASP761  ALA762  ILE779  LEU786  VAL792 
 PHE793  MET794  SER795  GLU796  ALA797  LYS798  CYS799  TRP800  GLU811  SER814 

> <Gold.Protein.RotatedAtoms>
  152.1661  134.8873  160.0537 H   0  0  0  0  0  0  0  0  0  0  0  0  # atno 6907 bound_to 6896
  151.9850  133.3766  159.4130 H   0  0  0  0  0  0  0  0  0  0  0  0  # atno 6908 bound_to 6896
  150.6894  134.3920  159.5124 H   0  0  0  0  0  0  0  0  0  0  0  0  # atno 6909 bound_to 6896
  145.6190  140.9368  143.1148 H   0  0  0  0  0  0  0  0  0  0  0  0  # atno 7974 bound_to 7965
  155.1400  140.0401  157.2796 H   0  0  0  0  0  0  0  0  0  0  0  0  # atno 8008 bound_to 7997
  154.6480  140.2562  155.7220 H   0  0  0  0  0  0  0  0  0  0  0  0  # atno 8009 bound_to 7997
  156.2564  140.2842  156.0902 H   0  0  0  0  0  0  0  0  0  0  0  0  # atno 8010 bound_to 7997
  140.7179  143.3526  151.2124 H   0  0  0  0  0  0  0  0  0  0  0  0  # atno 10167 bound_to 10162
  156.4032  130.7944  151.2157 H   0  0  0  0  0  0  0  0  0  0  0  0  # atno 10718 bound_to 10713
  154.8645  135.3621  154.5335 H   0  0  0  0  0  0  0  0  0  0  0  0  # atno 10763 bound_to 10752
  153.5960  135.7014  153.5408 H   0  0  0  0  0  0  0  0  0  0  0  0  # atno 10764 bound_to 10752
  153.3332  135.4118  155.1474 H   0  0  0  0  0  0  0  0  0  0  0  0  # atno 10765 bound_to 10752
  141.0640  133.9489  157.2614 H   0  0  0  0  0  0  0  0  0  0  0  0  # atno 11005 bound_to 11000
  144.7239  139.7940  143.7372 LP  0  0  0  0  0  0  0  0  0  0  0  0  # atno 17320 bound_to 7965
  146.1446  139.4512  143.0087 LP  0  0  0  0  0  0  0  0  0  0  0  0  # atno 17321 bound_to 7965
  139.7060  143.9454  152.2927 LP  0  0  0  0  0  0  0  0  0  0  0  0  # atno 17342 bound_to 10162
  139.9163  144.6826  150.8508 LP  0  0  0  0  0  0  0  0  0  0  0  0  # atno 17343 bound_to 10162
  157.7504  131.0280  150.4030 LP  0  0  0  0  0  0  0  0  0  0  0  0  # atno 17370 bound_to 10713
  156.4314  130.3973  149.6758 LP  0  0  0  0  0  0  0  0  0  0  0  0  # atno 17371 bound_to 10713
  139.9459  135.0184  156.8849 LP  0  0  0  0  0  0  0  0  0  0  0  0  # atno 17394 bound_to 11000
  140.5811  134.0351  155.7464 LP  0  0  0  0  0  0  0  0  0  0  0  0  # atno 17395 bound_to 11000

$$$$
