AV-unprocessed.smi:1475|AV-procd|sdf|5977|dock8
  -GOLD-   22720 6 73D 1   1.00000     0.00000
 Structure written by MMmdl.
 50 51  0  0  0  0  0  0  0  0  2 V2000
  150.4636  142.9411  158.0097 C   0  0  0  0  0  0  0  0  0  0  0  0
  150.8334  141.8510  157.0478 C   0  0  0  0  0  0  0  0  0  0  0  0
  151.8409  140.8565  157.1881 C   0  0  0  0  0  0  0  0  0  0  0  0
  151.7548  140.1229  156.0385 C   0  0  0  0  0  0  0  0  0  0  0  0
  152.5458  138.9369  155.5922 C   0  0  0  0  0  0  0  0  0  0  0  0
  150.7414  140.6833  155.2805 N   0  0  0  0  0  0  0  0  0  0  0  0
  150.2367  140.2782  153.9783 C   0  0  0  0  0  0  0  0  0  0  0  0
  148.8253  139.7014  154.0941 C   0  0  0  0  0  0  0  0  0  0  0  0
  148.2777  139.6253  155.1937 O   0  0  0  0  0  0  0  0  0  0  0  0
  148.2450  139.3037  152.9512 N   0  0  0  0  0  0  0  0  0  0  0  0
  146.8930  138.7697  152.8410 C   0  0  0  0  0  0  0  0  0  0  0  0
  146.6865  137.5438  153.7534 C   0  0  0  0  0  0  0  0  0  0  0  0
  146.5752  136.2756  152.9900 N   0  3  1  0  0  0  0  0  0  0  0  0
  146.3452  135.1085  153.8814 C   0  0  0  0  0  0  0  0  0  0  0  0
  146.3789  133.7782  153.1038 C   0  0  2  0  0  0  0  0  0  0  0  0
  147.8045  133.3947  152.6701 C   0  0  0  0  0  0  0  0  0  0  0  0
  145.3825  133.8124  151.9303 C   0  0  0  0  0  0  0  0  0  0  0  0
  145.5904  135.0523  151.0422 C   0  0  1  0  0  0  0  0  0  0  0  0
  144.5504  135.1128  149.9143 C   0  0  0  0  0  0  0  0  0  0  0  0
  145.5662  136.3334  151.8985 C   0  0  0  0  0  0  0  0  0  0  0  0
  150.1781  141.7418  155.9036 N   0  0  0  0  0  0  0  0  0  0  0  0
  151.1121  142.9296  158.8861 H   0  0  0  0  0  0  0  0  0  0  0  0
  149.4361  142.8273  158.3561 H   0  0  0  0  0  0  0  0  0  0  0  0
  150.5528  143.9230  157.5444 H   0  0  0  0  0  0  0  0  0  0  0  0
  152.5240  140.7036  158.0106 H   0  0  0  0  0  0  0  0  0  0  0  0
  153.2618  138.6362  156.3571 H   0  0  0  0  0  0  0  0  0  0  0  0
  153.1030  139.1611  154.6826 H   0  0  0  0  0  0  0  0  0  0  0  0
  151.8951  138.0857  155.3923 H   0  0  0  0  0  0  0  0  0  0  0  0
  150.2410  141.1367  153.3045 H   0  0  0  0  0  0  0  0  0  0  0  0
  150.9088  139.5358  153.5465 H   0  0  0  0  0  0  0  0  0  0  0  0
  148.7676  139.4125  152.0934 H   0  0  0  0  0  0  0  0  0  0  0  0
  146.1852  139.5672  153.0674 H   0  0  0  0  0  0  0  0  0  0  0  0
  146.7244  138.4910  151.8003 H   0  0  0  0  0  0  0  0  0  0  0  0
  147.5409  137.4822  154.4291 H   0  0  0  0  0  0  0  0  0  0  0  0
  145.8047  137.6628  154.3847 H   0  0  0  0  0  0  0  0  0  0  0  0
  147.0974  135.0854  154.6710 H   0  0  0  0  0  0  0  0  0  0  0  0
  145.3792  135.2250  154.3755 H   0  0  0  0  0  0  0  0  0  0  0  0
  146.0472  132.9940  153.7856 H   0  0  0  0  0  0  0  0  0  0  0  0
  148.2451  134.1407  152.0089 H   0  0  0  0  0  0  0  0  0  0  0  0
  147.8106  132.4394  152.1443 H   0  0  0  0  0  0  0  0  0  0  0  0
  148.4611  133.2945  153.5350 H   0  0  0  0  0  0  0  0  0  0  0  0
  145.4673  132.9008  151.3377 H   0  0  0  0  0  0  0  0  0  0  0  0
  144.3665  133.8220  152.3278 H   0  0  0  0  0  0  0  0  0  0  0  0
  146.5716  134.9787  150.5713 H   0  0  0  0  0  0  0  0  0  0  0  0
  143.5377  135.1928  150.3113 H   0  0  0  0  0  0  0  0  0  0  0  0
  144.5940  134.2184  149.2920 H   0  0  0  0  0  0  0  0  0  0  0  0
  144.7224  135.9728  149.2662 H   0  0  0  0  0  0  0  0  0  0  0  0
  144.5745  136.4845  152.3285 H   0  0  0  0  0  0  0  0  0  0  0  0
  145.7588  137.1885  151.2520 H   0  0  0  0  0  0  0  0  0  0  0  0
  147.4738  136.1244  152.5544 H   0  0  0  0  0  0  0  0  0  0  0  0
  1  2  1  0  0  0  0
  1 22  1  0  0  0  0
  1 23  1  0  0  0  0
  1 24  1  0  0  0  0
  2 21  2  0  0  0  0
  2  3  1  0  0  0  0
  3  4  2  0  0  0  0
  3 25  1  0  0  0  0
  4  5  1  0  0  0  0
  4  6  1  0  0  0  0
  5 26  1  0  0  0  0
  5 27  1  0  0  0  0
  5 28  1  0  0  0  0
  6  7  1  0  0  0  0
  6 21  1  0  0  0  0
  7  8  1  0  0  0  0
  7 29  1  0  0  0  0
  7 30  1  0  0  0  0
  8  9  2  0  0  0  0
  8 10  1  0  0  0  0
 10 11  1  0  0  0  0
 10 31  1  0  0  0  0
 11 12  1  0  0  0  0
 11 32  1  0  0  0  0
 11 33  1  0  0  0  0
 12 13  1  0  0  0  0
 12 34  1  0  0  0  0
 12 35  1  0  0  0  0
 13 20  1  0  0  0  0
 13 14  1  0  0  0  0
 13 50  1  0  0  0  0
 14 15  1  0  0  0  0
 14 36  1  0  0  0  0
 14 37  1  0  0  0  0
 15 16  1  0  0  0  0
 15 17  1  0  0  0  0
 15 38  1  0  0  0  0
 16 39  1  0  0  0  0
 16 40  1  0  0  0  0
 16 41  1  0  0  0  0
 17 18  1  0  0  0  0
 17 42  1  0  0  0  0
 17 43  1  0  0  0  0
 18 19  1  0  0  0  0
 18 20  1  0  0  0  0
 18 44  1  0  0  0  0
 19 45  1  0  0  0  0
 19 46  1  0  0  0  0
 19 47  1  0  0  0  0
 20 48  1  0  0  0  0
 20 49  1  0  0  0  0
M  CHG  1  13   1
M  END
> <s_m_source_file>
AV-unprocessed.smi

> <i_m_source_file_index>
1475

> <i_lp_mmshare_version>
43012

> <i_f3d_flags>
0

> <s_epik_input>
W0NIM11jMVtjSF1jKFtDSDNdKW4objEpW0NIMl1DKD1PKVtOSF1bQ0gyXVtDSDJdTjJbQ0gyXVtDQEBIXShbQ0gzXSlbQ0gyXVtDQEBIXShbQ0gzXSlbQ0gyXTI=

> <s_epik_cmdline>
J2VwaWtfcHl0aG9uJywgJy1waCcsICc3LjAnLCAnLXRuJywgJzgnLCAnLW1hJywgJzIwMCcsICctbWV0YWxfYmluZGluZycsICctaW1hZScsICc8aW5maWxlLm1hZT4nLCAnLW9tYWUnLCAnPG91dGZpbGUubWFlPic=

> <r_lp_tautomer_probability>
1

> <r_epik_Ionization_Penalty>
0.00206431

> <r_epik_Ionization_Penalty_Charging>
0.00187095

> <r_epik_Ionization_Penalty_Neutral>
0.000193364

> <r_epik_State_Penalty>
-0

> <r_epik_Charging_Adjusted_Penalty>
0.00187095

> <i_epik_Tot_Q>
1

> <i_epik_Tot_abs_Q>
1

> <r_epik_Metal_State_Penalty>
-0

> <b_epik_Metal_Only>
0

> <s_lp_Force_Field>
OPLS_2005

> <r_lp_Energy>
16.4698

> <b_lp_Chiralities_Consistent>
1

> <s_lp_Variant>
AV-unprocessed.smi:1475-2

> <Gold.Version>
5.8.1

> <Gold.Id.Protein>
6NUR|6NUR_protein|mol2

> <Gold.PLP.Fitness>
41.4688

> <Gold.PLP.PLP>
-33.3265

> <Gold.PLP.part.hbond>
-2.1982

> <Gold.PLP.part.metal>
0.0000

> <Gold.PLP.part.buried>
1.5158

> <Gold.PLP.part.nonpolar>
-31.7636

> <Gold.PLP.part.repulsive>
0.1538

> <Gold.PLP.ligand.clash>
0.0000

> <Gold.PLP.ligand.torsion>
0.4466

> <Gold.PLP.Chemscore.Hbond>
3.0000

> <Gold.PLP.Chemscore.CHOScore>
0.0000

> <Gold.PLP.Chemscore.Metal>
0.0000

> <Gold.Chemscore.Hbonds>
donor molecule, donor type, donor heavy atom, donor atom, acceptor molecule, acceptor atom, score
      L1  H    10    31       P1  7957  0.65
      L1  H    13    50       P1  7948  2.00

> <Gold.PLP.Chemscore.Internal.Correction>
0.0355

> <Gold.Rescore>
     Score         DG    S(hbond)    S(metal)    S(lipo)     H(rot)  DE(clash)    DE(int)     intcor
     15.62     -17.23       1.97        0.00      80.17       1.64       0.30       1.31       ----

> <Gold.Chemscore.Fitness>
15.6244

> <Gold.Chemscore.DG>
-17.2340

> <Gold.Chemscore.ZeroCoef>
-5.4800

> <Gold.Chemscore.Hbond>
1.9679

> <Gold.Chemscore.Metal>
0.0000

> <Gold.Chemscore.Lipo>
80.1652

> <Gold.Chemscore.Internal_Hbond>
0.0000

> <Gold.Chemscore.DEClash>
0.3022

> <Gold.Chemscore.DEInternal>
1.3074

> <Gold.Chemscore.Rot>
1.6399

> <Gold.Chemscore.Internal.Correction>
   9.000000E+99

> <Gold.Chemscore.Hbonds>
donor molecule, donor type, donor heavy atom, donor atom, acceptor molecule, acceptor atom, score
      L1  H    10    31       P1  7957  0.64
      L1  H    13    50       P1  7948  0.99

> <Gold.Chemscore.Hbond.Weighted>
-6.5728

> <Gold.Chemscore.Metal.Weighted>
-0.0000

> <Gold.Chemscore.Lipo.Weighted>
-9.3793

> <Gold.Chemscore.Internal_Hbond.Weighted>
0.0000

> <Gold.Chemscore.DEClash.Weighted>
0.3022

> <Gold.Chemscore.DEInternal.Weighted>
1.3074

> <Gold.Chemscore.Rot.Weighted>
4.1982

> <Gold.Chemscore.Internal.Correction.Weighted>
   9.000000E+99

> <Gold.Protein.RotatedTorsions>
[ 6907 6896 6895 6894 ] final -128.52 input  -60.11 | X-H torsion
[ 7974 7965 7964 7962 ] final -121.06 input  175.53 | X-H torsion
[ 8008 7997 7996 7995 ] final  141.95 input   59.86 | X-H torsion
[ 10167 10162 10161 10158 ] final   88.23 input  -65.29 | X-H torsion
[ 10718 10713 10712 10709 ] final -127.96 input   66.30 | X-H torsion
[ 10763 10752 10751 10750 ] final  -70.98 input  -60.55 | X-H torsion
[ 11005 11000 10999 10996 ] final   87.91 input  -57.11 | X-H torsion

> <Gold.Protein.ActiveResidues>
 VAL166  LYS551  ARG553  GLY616  TRP617  ASP618  TYR619  PRO620  LYS621  CYS622 
 ASP623  PHE694  ASN695  SER759  ASP760  ASP761  ALA762  ILE779  LEU786  VAL792 
 PHE793  MET794  SER795  GLU796  ALA797  LYS798  CYS799  TRP800  GLU811  SER814 

> <Gold.Protein.RotatedAtoms>
  150.9187  133.6906  159.2836 H   0  0  0  0  0  0  0  0  0  0  0  0  # atno 6907 bound_to 6896
  151.4368  135.1014  159.9668 H   0  0  0  0  0  0  0  0  0  0  0  0  # atno 6908 bound_to 6896
  152.4968  133.8605  159.7303 H   0  0  0  0  0  0  0  0  0  0  0  0  # atno 6909 bound_to 6896
  145.0445  140.8171  143.4246 H   0  0  0  0  0  0  0  0  0  0  0  0  # atno 7974 bound_to 7965
  156.2957  140.2301  156.4648 H   0  0  0  0  0  0  0  0  0  0  0  0  # atno 8008 bound_to 7997
  154.7987  140.0450  157.1277 H   0  0  0  0  0  0  0  0  0  0  0  0  # atno 8009 bound_to 7997
  154.9559  140.3048  155.5056 H   0  0  0  0  0  0  0  0  0  0  0  0  # atno 8010 bound_to 7997
  139.8693  144.6501  150.8967 H   0  0  0  0  0  0  0  0  0  0  0  0  # atno 10167 bound_to 10162
  156.1905  130.6792  151.0419 H   0  0  0  0  0  0  0  0  0  0  0  0  # atno 10718 bound_to 10713
  154.4252  135.5977  153.6035 H   0  0  0  0  0  0  0  0  0  0  0  0  # atno 10763 bound_to 10752
  152.9796  135.5962  154.3906 H   0  0  0  0  0  0  0  0  0  0  0  0  # atno 10764 bound_to 10752
  154.3737  135.2841  155.2230 H   0  0  0  0  0  0  0  0  0  0  0  0  # atno 10765 bound_to 10752
  139.8908  134.8453  156.2927 H   0  0  0  0  0  0  0  0  0  0  0  0  # atno 11005 bound_to 11000
  145.1605  139.2461  143.5394 LP  0  0  0  0  0  0  0  0  0  0  0  0  # atno 17320 bound_to 7965
  146.3512  140.1331  142.8596 LP  0  0  0  0  0  0  0  0  0  0  0  0  # atno 17321 bound_to 7965
  140.7763  143.3677  151.1708 LP  0  0  0  0  0  0  0  0  0  0  0  0  # atno 17342 bound_to 10162
  139.7299  143.9089  152.3016 LP  0  0  0  0  0  0  0  0  0  0  0  0  # atno 17343 bound_to 10162
  157.6926  131.0805  150.7063 LP  0  0  0  0  0  0  0  0  0  0  0  0  # atno 17370 bound_to 10713
  156.7119  130.4654  149.5545 LP  0  0  0  0  0  0  0  0  0  0  0  0  # atno 17371 bound_to 10713
  140.9966  133.7177  156.0895 LP  0  0  0  0  0  0  0  0  0  0  0  0  # atno 17394 bound_to 11000
  140.7554  134.3998  157.5534 LP  0  0  0  0  0  0  0  0  0  0  0  0  # atno 17395 bound_to 11000

$$$$
