AV-unprocessed.smi:3234|AV-procd|sdf|12354|dock4
  -GOLD-   2272018213D 1   1.00000     0.00000
 Structure written by MMmdl.
 38 40  0  0  0  0  0  0  0  0  3 V2000
  145.2296  138.5044  152.8795 O   0  0  0  0  0  0  0  0  0  0  0  0
  146.2841  137.9815  152.5204 C   0  0  0  0  0  0  0  0  0  0  0  0
  147.5144  138.4683  152.7604 N   0  0  0  0  0  0  0  0  0  0  0  0
  147.8749  139.6670  153.4355 C   0  0  0  0  0  0  0  0  0  0  0  0
  149.1090  139.6850  154.1228 C   0  0  0  0  0  0  0  0  0  0  0  0
  149.5152  140.8566  154.7938 C   0  0  0  0  0  0  0  0  0  0  0  0
  148.7292  141.9541  154.7659 N   0  3  0  0  0  0  0  0  0  0  0  0
  147.5489  141.9902  154.1108 C   0  0  0  0  0  0  0  0  0  0  0  0
  147.0899  140.8485  153.4224 C   0  0  0  0  0  0  0  0  0  0  0  0
  146.3384  136.8231  151.8471 N   0  0  0  0  0  0  0  0  0  0  0  0
  145.1715  136.0410  151.4498 C   0  0  2  0  0  0  0  0  0  0  0  0
  144.2743  135.6072  152.6125 C   0  0  0  0  0  0  0  0  0  0  0  0
  143.6483  134.2820  152.1441 C   0  0  0  0  0  0  0  0  0  0  0  0
  144.3326  133.9048  150.8851 N   0  3  2  0  0  0  0  0  0  0  0  0
  144.5482  132.4516  150.7199 C   0  0  0  0  0  0  0  0  0  0  0  0
  145.9132  131.9887  151.1705 C   0  0  0  0  0  0  0  0  0  0  0  0
  145.6024  132.1098  149.6943 C   0  0  0  0  0  0  0  0  0  0  0  0
  145.5655  134.7092  150.8185 C   0  0  0  0  0  0  0  0  0  0  0  0
  148.2864  137.8824  152.4776 H   0  0  0  0  0  0  0  0  0  0  0  0
  149.7403  138.8082  154.1438 H   0  0  0  0  0  0  0  0  0  0  0  0
  150.4390  140.9485  155.3461 H   0  0  0  0  0  0  0  0  0  0  0  0
  147.0124  142.9269  154.1514 H   0  0  0  0  0  0  0  0  0  0  0  0
  146.1532  140.9067  152.8896 H   0  0  0  0  0  0  0  0  0  0  0  0
  147.2448  136.4580  151.5928 H   0  0  0  0  0  0  0  0  0  0  0  0
  144.5784  136.6057  150.7273 H   0  0  0  0  0  0  0  0  0  0  0  0
  144.8701  135.4308  153.5094 H   0  0  0  0  0  0  0  0  0  0  0  0
  143.5238  136.3597  152.8566 H   0  0  0  0  0  0  0  0  0  0  0  0
  143.7759  133.5154  152.9101 H   0  0  0  0  0  0  0  0  0  0  0  0
  142.5795  134.3869  151.9562 H   0  0  0  0  0  0  0  0  0  0  0  0
  143.6765  131.8125  150.8499 H   0  0  0  0  0  0  0  0  0  0  0  0
  146.5905  132.7229  151.6031 H   0  0  0  0  0  0  0  0  0  0  0  0
  145.9925  130.9843  151.5819 H   0  0  0  0  0  0  0  0  0  0  0  0
  145.4779  131.1851  149.1345 H   0  0  0  0  0  0  0  0  0  0  0  0
  146.0731  132.9247  149.1467 H   0  0  0  0  0  0  0  0  0  0  0  0
  145.9175  134.8186  149.7921 H   0  0  0  0  0  0  0  0  0  0  0  0
  146.3525  134.2258  151.4010 H   0  0  0  0  0  0  0  0  0  0  0  0
  143.7412  134.2198  150.1292 H   0  0  0  0  0  0  0  0  0  0  0  0
  149.0421  142.7926  155.2562 H   0  0  0  0  0  0  0  0  0  0  0  0
  1  2  2  0  0  0  0
  2  3  1  0  0  0  0
  2 10  1  0  0  0  0
  3  4  1  0  0  0  0
  3 19  1  0  0  0  0
  4  9  1  0  0  0  0
  4  5  2  0  0  0  0
  5  6  1  0  0  0  0
  5 20  1  0  0  0  0
  6  7  2  0  0  0  0
  6 21  1  0  0  0  0
  7  8  1  0  0  0  0
  7 38  1  0  0  0  0
  8  9  2  0  0  0  0
  8 22  1  0  0  0  0
  9 23  1  0  0  0  0
 10 11  1  0  0  0  0
 10 24  1  0  0  0  0
 11 18  1  0  0  0  0
 11 12  1  0  0  0  0
 11 25  1  0  0  0  0
 12 13  1  0  0  0  0
 12 26  1  0  0  0  0
 12 27  1  0  0  0  0
 13 14  1  0  0  0  0
 13 28  1  0  0  0  0
 13 29  1  0  0  0  0
 14 15  1  0  0  0  0
 14 18  1  0  0  0  0
 14 37  1  0  0  0  0
 15 17  1  0  0  0  0
 15 16  1  0  0  0  0
 15 30  1  0  0  0  0
 16 17  1  0  0  0  0
 16 31  1  0  0  0  0
 16 32  1  0  0  0  0
 17 33  1  0  0  0  0
 17 34  1  0  0  0  0
 18 35  1  0  0  0  0
 18 36  1  0  0  0  0
M  CHG  1   7   1
M  CHG  1  14   1
M  END
> <s_m_source_file>
AV-unprocessed.smi

> <i_m_source_file_index>
3234

> <i_lp_mmshare_version>
43012

> <i_f3d_flags>
0

> <s_epik_input>
W2NIXTFbY0hdbltjSF1bY0hdYzFbTkhdQyg9TylbTkhdW0NAQEhdMltDSDJdW0NIMl1OKFtDSDJdMilbQ0hdM1tDSDJdW0NIMl0z

> <s_epik_cmdline>
J2VwaWtfcHl0aG9uJywgJy1waCcsICc3LjAnLCAnLXRuJywgJzgnLCAnLW1hJywgJzIwMCcsICctbWV0YWxfYmluZGluZycsICctaW1hZScsICc8aW5maWxlLm1hZT4nLCAnLW9tYWUnLCAnPG91dGZpbGUubWFlPic=

> <r_epik_Ionization_Penalty>
1.14489

> <r_epik_Ionization_Penalty_Charging>
1.14487

> <r_epik_Ionization_Penalty_Neutral>
1.95212e-05

> <r_epik_State_Penalty>
1.205

> <r_epik_Charging_Adjusted_Penalty>
2.34987

> <i_epik_Tot_Q>
2

> <i_epik_Tot_abs_Q>
2

> <r_epik_Metal_State_Penalty>
1.28709

> <b_epik_Metal_Only>
0

> <s_lp_Force_Field>
OPLS_2005

> <r_lp_Energy>
48.7284

> <b_lp_Chiralities_Consistent>
1

> <s_lp_Variant>
AV-unprocessed.smi:3234-7

> <Gold.Version>
5.8.1

> <Gold.Id.Protein>
6NUR|6NUR_protein|mol2

> <Gold.PLP.Fitness>
45.2757

> <Gold.PLP.PLP>
-33.7122

> <Gold.PLP.part.hbond>
-3.9587

> <Gold.PLP.part.metal>
0.0000

> <Gold.PLP.part.buried>
-2.7392

> <Gold.PLP.part.nonpolar>
-31.2914

> <Gold.PLP.part.repulsive>
4.3913

> <Gold.PLP.ligand.clash>
0.0000

> <Gold.PLP.ligand.torsion>
0.8499

> <Gold.PLP.Chemscore.Hbond>
4.0000

> <Gold.PLP.Chemscore.CHOScore>
0.0000

> <Gold.PLP.Chemscore.Metal>
0.0000

> <Gold.Chemscore.Hbonds>
donor molecule, donor type, donor heavy atom, donor atom, acceptor molecule, acceptor atom, score
      L1  H     3    19       P1  7948  1.00
      L1  H     7    38       P1  8028  2.00
      L1  H    10    24       P1  7948  1.00

> <Gold.PLP.Chemscore.Internal.Correction>
1.2632

> <Gold.Rescore>
     Score         DG    S(hbond)    S(metal)    S(lipo)     H(rot)  DE(clash)    DE(int)     intcor
     17.94     -22.01       2.93        0.00      84.38       1.22       2.22       1.84       ----

> <Gold.Chemscore.Fitness>
17.9430

> <Gold.Chemscore.DG>
-22.0070

> <Gold.Chemscore.ZeroCoef>
-5.4800

> <Gold.Chemscore.Hbond>
2.9311

> <Gold.Chemscore.Metal>
0.0000

> <Gold.Chemscore.Lipo>
84.3822

> <Gold.Chemscore.Internal_Hbond>
0.0000

> <Gold.Chemscore.DEClash>
2.2210

> <Gold.Chemscore.DEInternal>
1.8430

> <Gold.Chemscore.Rot>
1.2248

> <Gold.Chemscore.Internal.Correction>
   9.000000E+99

> <Gold.Chemscore.Hbonds>
donor molecule, donor type, donor heavy atom, donor atom, acceptor molecule, acceptor atom, score
      L1  H     3    19       P1  7948  0.96
      L1  H     7    38       P1  8028  0.93
      L1  H    10    24       P1  7948  0.98

> <Gold.Chemscore.Hbond.Weighted>
-9.7898

> <Gold.Chemscore.Metal.Weighted>
-0.0000

> <Gold.Chemscore.Lipo.Weighted>
-9.8727

> <Gold.Chemscore.Internal_Hbond.Weighted>
0.0000

> <Gold.Chemscore.DEClash.Weighted>
2.2210

> <Gold.Chemscore.DEInternal.Weighted>
1.8430

> <Gold.Chemscore.Rot.Weighted>
3.1355

> <Gold.Chemscore.Internal.Correction.Weighted>
   9.000000E+99

> <Gold.Protein.RotatedTorsions>
[ 6907 6896 6895 6894 ] final  -92.21 input  -60.11 | X-H torsion
[ 7974 7965 7964 7962 ] final   -0.36 input  175.53 | X-H torsion
[ 8008 7997 7996 7995 ] final  -85.83 input   59.86 | X-H torsion
[ 10167 10162 10161 10158 ] final  -67.08 input  -65.29 | X-H torsion
[ 10718 10713 10712 10709 ] final  173.12 input   66.30 | X-H torsion
[ 10763 10752 10751 10750 ] final  -78.97 input  -60.55 | X-H torsion
[ 11005 11000 10999 10996 ] final  -89.88 input  -57.11 | X-H torsion

> <Gold.Protein.ActiveResidues>
 VAL166  LYS551  ARG553  GLY616  TRP617  ASP618  TYR619  PRO620  LYS621  CYS622 
 ASP623  PHE694  ASN695  SER759  ASP760  ASP761  ALA762  ILE779  LEU786  VAL792 
 PHE793  MET794  SER795  GLU796  ALA797  LYS798  CYS799  TRP800  GLU811  SER814 

> <Gold.Protein.RotatedAtoms>
  150.6903  134.2158  159.4376 H   0  0  0  0  0  0  0  0  0  0  0  0  # atno 6907 bound_to 6896
  152.0117  134.9870  160.0577 H   0  0  0  0  0  0  0  0  0  0  0  0  # atno 6908 bound_to 6896
  152.1482  133.4470  159.4837 H   0  0  0  0  0  0  0  0  0  0  0  0  # atno 6909 bound_to 6896
  146.2428  140.1257  142.8339 H   0  0  0  0  0  0  0  0  0  0  0  0  # atno 7974 bound_to 7965
  154.6451  140.0586  156.9891 H   0  0  0  0  0  0  0  0  0  0  0  0  # atno 8008 bound_to 7997
  155.1457  140.3269  155.4423 H   0  0  0  0  0  0  0  0  0  0  0  0  # atno 8009 bound_to 7997
  156.2550  140.1956  156.6571 H   0  0  0  0  0  0  0  0  0  0  0  0  # atno 8010 bound_to 7997
  140.5609  143.2313  151.6729 H   0  0  0  0  0  0  0  0  0  0  0  0  # atno 10167 bound_to 10162
  156.9689  131.0084  151.2910 H   0  0  0  0  0  0  0  0  0  0  0  0  # atno 10718 bound_to 10713
  154.5327  135.5711  153.6772 H   0  0  0  0  0  0  0  0  0  0  0  0  # atno 10763 bound_to 10752
  152.9943  135.6208  154.2607 H   0  0  0  0  0  0  0  0  0  0  0  0  # atno 10764 bound_to 10752
  154.2535  135.2858  155.2787 H   0  0  0  0  0  0  0  0  0  0  0  0  # atno 10765 bound_to 10752
  141.1576  133.7657  156.9658 H   0  0  0  0  0  0  0  0  0  0  0  0  # atno 11005 bound_to 11000
  145.0368  140.8914  143.5076 LP  0  0  0  0  0  0  0  0  0  0  0  0  # atno 17320 bound_to 7965
  145.1331  139.2619  143.5529 LP  0  0  0  0  0  0  0  0  0  0  0  0  # atno 17321 bound_to 7965
  139.5070  144.3662  152.0514 LP  0  0  0  0  0  0  0  0  0  0  0  0  # atno 17342 bound_to 10162
  140.2789  144.3882  150.6126 LP  0  0  0  0  0  0  0  0  0  0  0  0  # atno 17343 bound_to 10162
  157.5606  130.8243  149.8261 LP  0  0  0  0  0  0  0  0  0  0  0  0  # atno 17370 bound_to 10713
  156.0291  130.3770  150.1738 LP  0  0  0  0  0  0  0  0  0  0  0  0  # atno 17371 bound_to 10713
  140.1162  134.9445  157.2138 LP  0  0  0  0  0  0  0  0  0  0  0  0  # atno 17394 bound_to 11000
  140.3130  134.3002  155.7262 LP  0  0  0  0  0  0  0  0  0  0  0  0  # atno 17395 bound_to 11000

$$$$
