AV-unprocessed.smi:3193|AV-procd|sdf|12205|dock2
  -GOLD-   2272018 43D 1   1.00000     0.00000
 Structure written by MMmdl.
 41 42  0  0  0  0  0  0  0  0  3 V2000
  151.3869  144.9107  159.4239 C   0  0  0  0  0  0  0  0  0  0  0  0
  151.6265  143.4522  159.8543 C   0  0  2  0  0  0  0  0  0  0  0  0
  153.0078  143.3370  160.5336 C   0  0  0  0  0  0  0  0  0  0  0  0
  153.2862  141.9147  161.0371 C   0  0  0  0  0  0  0  0  0  0  0  0
  153.1658  140.9004  159.8949 C   0  0  0  0  0  0  0  0  0  0  0  0
  151.7907  140.9991  159.2197 C   0  0  0  0  0  0  0  0  0  0  0  0
  151.4967  142.4218  158.6929 C   0  0  1  0  0  0  0  0  0  0  0  0
  150.1135  142.4367  158.0026 C   0  0  0  0  0  0  0  0  0  0  0  0
  150.2253  142.4081  156.5300 N   0  3  0  0  0  0  0  0  0  0  0  0
  149.9128  141.0981  155.9263 C   0  0  0  0  0  0  0  0  0  0  0  0
  149.5787  141.2429  154.4347 C   0  0  0  0  0  0  0  0  0  0  0  0
  148.1548  141.5099  154.2165 N   0  0  0  0  0  0  0  0  0  0  0  0
  147.3567  142.3856  154.9075 C   0  0  0  0  0  0  0  0  0  0  0  0
  146.1064  142.2977  154.3513 C   0  0  0  0  0  0  0  0  0  0  0  0
  146.1934  141.3718  153.3464 N   0  3  0  0  0  0  0  0  0  0  0  0
  147.4397  140.8940  153.2655 C   0  0  0  0  0  0  0  0  0  0  0  0
  152.0414  145.1958  158.5996 H   0  0  0  0  0  0  0  0  0  0  0  0
  151.5784  145.5976  160.2490 H   0  0  0  0  0  0  0  0  0  0  0  0
  150.3555  145.0771  159.1156 H   0  0  0  0  0  0  0  0  0  0  0  0
  150.8730  143.2108  160.6058 H   0  0  0  0  0  0  0  0  0  0  0  0
  153.7891  143.6331  159.8319 H   0  0  0  0  0  0  0  0  0  0  0  0
  153.0713  144.0306  161.3729 H   0  0  0  0  0  0  0  0  0  0  0  0
  154.2823  141.8632  161.4778 H   0  0  0  0  0  0  0  0  0  0  0  0
  152.5820  141.6609  161.8304 H   0  0  0  0  0  0  0  0  0  0  0  0
  153.9515  141.0785  159.1597 H   0  0  0  0  0  0  0  0  0  0  0  0
  153.3218  139.8910  160.2767 H   0  0  0  0  0  0  0  0  0  0  0  0
  151.7477  140.2797  158.4008 H   0  0  0  0  0  0  0  0  0  0  0  0
  151.0175  140.7018  159.9295 H   0  0  0  0  0  0  0  0  0  0  0  0
  152.2562  142.6472  157.9420 H   0  0  0  0  0  0  0  0  0  0  0  0
  149.5359  141.5591  158.2966 H   0  0  0  0  0  0  0  0  0  0  0  0
  149.5409  143.3086  158.3221 H   0  0  0  0  0  0  0  0  0  0  0  0
  149.5861  143.0943  156.1544 H   0  0  0  0  0  0  0  0  0  0  0  0
  150.7641  140.4286  156.0572 H   0  0  0  0  0  0  0  0  0  0  0  0
  149.0681  140.6548  156.4553 H   0  0  0  0  0  0  0  0  0  0  0  0
  150.1497  142.0573  153.9858 H   0  0  0  0  0  0  0  0  0  0  0  0
  149.8354  140.3325  153.8911 H   0  0  0  0  0  0  0  0  0  0  0  0
  147.7255  142.9905  155.7234 H   0  0  0  0  0  0  0  0  0  0  0  0
  145.1852  142.8095  154.5898 H   0  0  0  0  0  0  0  0  0  0  0  0
  147.7956  140.1558  152.5686 H   0  0  0  0  0  0  0  0  0  0  0  0
  151.1668  142.6713  156.2747 H   0  0  0  0  0  0  0  0  0  0  0  0
  145.4257  141.0865  152.7506 H   0  0  0  0  0  0  0  0  0  0  0  0
  1  2  1  0  0  0  0
  1 17  1  0  0  0  0
  1 18  1  0  0  0  0
  1 19  1  0  0  0  0
  2  7  1  0  0  0  0
  2  3  1  0  0  0  0
  2 20  1  0  0  0  0
  3  4  1  0  0  0  0
  3 21  1  0  0  0  0
  3 22  1  0  0  0  0
  4  5  1  0  0  0  0
  4 23  1  0  0  0  0
  4 24  1  0  0  0  0
  5  6  1  0  0  0  0
  5 25  1  0  0  0  0
  5 26  1  0  0  0  0
  6  7  1  0  0  0  0
  6 27  1  0  0  0  0
  6 28  1  0  0  0  0
  7  8  1  0  0  0  0
  7 29  1  0  0  0  0
  8  9  1  0  0  0  0
  8 30  1  0  0  0  0
  8 31  1  0  0  0  0
  9 10  1  0  0  0  0
  9 32  1  0  0  0  0
  9 40  1  0  0  0  0
 10 11  1  0  0  0  0
 10 33  1  0  0  0  0
 10 34  1  0  0  0  0
 11 12  1  0  0  0  0
 11 35  1  0  0  0  0
 11 36  1  0  0  0  0
 12 16  1  0  0  0  0
 12 13  1  0  0  0  0
 13 14  2  0  0  0  0
 13 37  1  0  0  0  0
 14 15  1  0  0  0  0
 14 38  1  0  0  0  0
 15 16  2  0  0  0  0
 15 41  1  0  0  0  0
 16 39  1  0  0  0  0
M  CHG  1   9   1
M  CHG  1  15   1
M  END
> <s_m_source_file>
AV-unprocessed.smi

> <i_m_source_file_index>
3193

> <i_lp_mmshare_version>
43012

> <i_f3d_flags>
0

> <s_epik_input>
W0NIM11bQ0BASF0xW0NIMl1bQ0gyXVtDSDJdW0NIMl1bQ0BIXTFbQ0gyXVtOSF1bQ0gyXVtDSDJdbjJbY0hdW2NIXW5bY0hdMg==

> <s_epik_cmdline>
J2VwaWtfcHl0aG9uJywgJy1waCcsICc3LjAnLCAnLXRuJywgJzgnLCAnLW1hJywgJzIwMCcsICctbWV0YWxfYmluZGluZycsICctaW1hZScsICc8aW5maWxlLm1hZT4nLCAnLW9tYWUnLCAnPG91dGZpbGUubWFlPic=

> <r_lp_tautomer_probability>
1

> <r_epik_Ionization_Penalty>
1.50262

> <r_epik_Ionization_Penalty_Charging>
0.00193432

> <r_epik_Ionization_Penalty_Neutral>
1.50068

> <r_epik_State_Penalty>
1.11854

> <r_epik_Charging_Adjusted_Penalty>
1.12048

> <i_epik_Tot_Q>
2

> <i_epik_Tot_abs_Q>
2

> <r_epik_Metal_State_Penalty>
5.11322

> <b_epik_Metal_Only>
0

> <s_lp_Force_Field>
OPLS_2005

> <r_lp_Energy>
26.3387

> <b_lp_Chiralities_Consistent>
1

> <s_lp_Variant>
AV-unprocessed.smi:3193-5

> <Gold.Version>
5.8.1

> <Gold.Id.Protein>
6NUR|6NUR_protein|mol2

> <Gold.PLP.Fitness>
53.0539

> <Gold.PLP.PLP>
-37.8506

> <Gold.PLP.part.hbond>
-2.0000

> <Gold.PLP.part.metal>
0.0000

> <Gold.PLP.part.buried>
-1.0611

> <Gold.PLP.part.nonpolar>
-34.8812

> <Gold.PLP.part.repulsive>
0.0865

> <Gold.PLP.ligand.clash>
0.0000

> <Gold.PLP.ligand.torsion>
1.3979

> <Gold.PLP.Chemscore.Hbond>
4.0000

> <Gold.PLP.Chemscore.CHOScore>
1.9812

> <Gold.PLP.Chemscore.Metal>
0.0000

> <Gold.Chemscore.Hbonds>
donor molecule, donor type, donor heavy atom, donor atom, acceptor molecule, acceptor atom, score
      L1  H     9    32       P1  8028  2.00
      L1  H    15    41       P1 10175  1.50
      L1  C    13    37       P1  8028  0.98
      L1  C    16    39       P1  7957  1.00

> <Gold.PLP.Chemscore.Internal.Correction>
0.0556

> <Gold.Rescore>
     Score         DG    S(hbond)    S(metal)    S(lipo)     H(rot)  DE(clash)    DE(int)     intcor
     17.54     -18.98       1.90        0.00     104.34       1.98       0.16       1.27       ----

> <Gold.Chemscore.Fitness>
17.5448

> <Gold.Chemscore.DG>
-18.9769

> <Gold.Chemscore.ZeroCoef>
-5.4800

> <Gold.Chemscore.Hbond>
1.9016

> <Gold.Chemscore.Metal>
0.0000

> <Gold.Chemscore.Lipo>
104.3397

> <Gold.Chemscore.Internal_Hbond>
0.0000

> <Gold.Chemscore.DEClash>
0.1635

> <Gold.Chemscore.DEInternal>
1.2685

> <Gold.Chemscore.Rot>
1.9774

> <Gold.Chemscore.Internal.Correction>
   9.000000E+99

> <Gold.Chemscore.Hbonds>
donor molecule, donor type, donor heavy atom, donor atom, acceptor molecule, acceptor atom, score
      L1  H     9    32       P1  8028  1.00
      L1  H    15    41       P1 10175  0.09

> <Gold.Chemscore.Hbond.Weighted>
-6.3513

> <Gold.Chemscore.Metal.Weighted>
-0.0000

> <Gold.Chemscore.Lipo.Weighted>
-12.2077

> <Gold.Chemscore.Internal_Hbond.Weighted>
0.0000

> <Gold.Chemscore.DEClash.Weighted>
0.1635

> <Gold.Chemscore.DEInternal.Weighted>
1.2685

> <Gold.Chemscore.Rot.Weighted>
5.0622

> <Gold.Chemscore.Internal.Correction.Weighted>
   9.000000E+99

> <Gold.Protein.RotatedTorsions>
[ 6907 6896 6895 6894 ] final   66.59 input  -60.11 | X-H torsion
[ 7974 7965 7964 7962 ] final -122.09 input  175.53 | X-H torsion
[ 8008 7997 7996 7995 ] final  -91.53 input   59.86 | X-H torsion
[ 10167 10162 10161 10158 ] final -111.62 input  -65.29 | X-H torsion
[ 10718 10713 10712 10709 ] final  -91.74 input   66.30 | X-H torsion
[ 10763 10752 10751 10750 ] final    3.48 input  -60.55 | X-H torsion
[ 11005 11000 10999 10996 ] final -155.02 input  -57.11 | X-H torsion

> <Gold.Protein.ActiveResidues>
 VAL166  LYS551  ARG553  GLY616  TRP617  ASP618  TYR619  PRO620  LYS621  CYS622 
 ASP623  PHE694  ASN695  SER759  ASP760  ASP761  ALA762  ILE779  LEU786  VAL792 
 PHE793  MET794  SER795  GLU796  ALA797  LYS798  CYS799  TRP800  GLU811  SER814 

> <Gold.Protein.RotatedAtoms>
  152.4491  134.5431  159.9844 H   0  0  0  0  0  0  0  0  0  0  0  0  # atno 6907 bound_to 6896
  151.5508  133.3412  159.2960 H   0  0  0  0  0  0  0  0  0  0  0  0  # atno 6908 bound_to 6896
  150.8416  134.7741  159.7000 H   0  0  0  0  0  0  0  0  0  0  0  0  # atno 6909 bound_to 6896
  145.0332  140.8085  143.4311 H   0  0  0  0  0  0  0  0  0  0  0  0  # atno 7974 bound_to 7965
  154.7119  140.0518  157.0558 H   0  0  0  0  0  0  0  0  0  0  0  0  # atno 8008 bound_to 7997
  155.0543  140.3182  155.4662 H   0  0  0  0  0  0  0  0  0  0  0  0  # atno 8009 bound_to 7997
  156.2792  140.2110  156.5669 H   0  0  0  0  0  0  0  0  0  0  0  0  # atno 8010 bound_to 7997
  140.1316  143.4356  152.1623 H   0  0  0  0  0  0  0  0  0  0  0  0  # atno 10167 bound_to 10162
  155.9996  130.4960  150.5520 H   0  0  0  0  0  0  0  0  0  0  0  0  # atno 10718 bound_to 10713
  153.2828  135.6942  153.7369 H   0  0  0  0  0  0  0  0  0  0  0  0  # atno 10763 bound_to 10752
  153.6350  135.3403  155.3054 H   0  0  0  0  0  0  0  0  0  0  0  0  # atno 10764 bound_to 10752
  154.8500  135.4418  154.1886 H   0  0  0  0  0  0  0  0  0  0  0  0  # atno 10765 bound_to 10752
  140.6910  134.4041  157.5219 H   0  0  0  0  0  0  0  0  0  0  0  0  # atno 11005 bound_to 11000
  145.1743  139.2387  143.5325 LP  0  0  0  0  0  0  0  0  0  0  0  0  # atno 17320 bound_to 7965
  146.3501  140.1501  142.8592 LP  0  0  0  0  0  0  0  0  0  0  0  0  # atno 17321 bound_to 7965
  139.5517  144.7342  151.4416 LP  0  0  0  0  0  0  0  0  0  0  0  0  # atno 17342 bound_to 10162
  140.6814  143.8074  150.7126 LP  0  0  0  0  0  0  0  0  0  0  0  0  # atno 17343 bound_to 10162
  157.3441  131.0722  151.1765 LP  0  0  0  0  0  0  0  0  0  0  0  0  # atno 17370 bound_to 10713
  157.2603  130.6656  149.5971 LP  0  0  0  0  0  0  0  0  0  0  0  0  # atno 17371 bound_to 10713
  139.8923  134.8757  156.2275 LP  0  0  0  0  0  0  0  0  0  0  0  0  # atno 17394 bound_to 11000
  141.0241  133.7025  156.1318 LP  0  0  0  0  0  0  0  0  0  0  0  0  # atno 17395 bound_to 11000

$$$$
