AV-unprocessed.smi:20|AV-procd|sdf|117|dock4
  -GOLD-   2262015283D 1   1.00000     0.00000
 Structure written by MMmdl.
 57 61  0  0  0  0  0  0  0  0  1 V2000
  145.0763  132.9577  157.6956 O   0  0  0  0  0  0  0  0  0  0  0  0
  145.6318  133.4240  156.7038 C   0  0  0  0  0  0  0  0  0  0  0  0
  146.9328  134.2067  156.7545 C   0  0  0  0  0  0  0  0  0  0  0  0
  147.3929  134.2351  155.2768 C   0  0  2  0  0  0  0  0  0  0  0  0
  148.3812  133.0800  154.9619 C   0  0  0  0  0  0  0  0  0  0  0  0
  149.7704  133.3209  155.5782 C   0  0  0  0  0  0  0  0  0  0  0  0
  150.3213  134.6971  155.1791 C   0  0  0  0  0  0  0  0  0  0  0  0
  149.3586  135.7505  155.4927 N   0  0  0  0  0  0  0  0  0  0  0  0
  149.8831  137.0018  155.5250 C   0  0  0  0  0  0  0  0  0  0  0  0
  149.7811  137.8097  154.4353 N   0  0  0  0  0  0  0  0  0  0  0  0
  150.3011  139.0404  154.4560 C   0  0  0  0  0  0  0  0  0  0  0  0
  150.9514  139.6554  155.4454 N   0  0  0  0  0  0  0  0  0  0  0  0
  151.0527  138.8521  156.5424 C   0  0  0  0  0  0  0  0  0  0  0  0
  150.5520  137.5255  156.6672 C   0  0  0  0  0  0  0  0  0  0  0  0
  150.8329  137.0324  157.9366 N   0  0  0  0  0  0  0  0  0  0  0  0
  151.4703  138.0081  158.5246 C   0  0  0  0  0  0  0  0  0  0  0  0
  151.6506  139.1365  157.7568 N   0  0  0  0  0  0  0  0  0  0  0  0
  152.3131  140.3669  158.1513 C   0  0  0  0  0  0  0  0  0  0  0  0
  151.3643  141.5916  158.2442 C   0  0  2  0  0  0  0  0  0  0  0  0
  150.8313  142.0280  156.8554 C   0  0  0  0  0  0  0  0  0  0  0  0
  149.5253  142.5610  156.9331 O   0  0  0  0  0  0  0  0  0  0  0  0
  152.0688  142.7716  158.9637 C   0  0  1  0  0  0  0  0  0  0  0  0
  151.3303  144.1066  158.8806 C   0  0  0  0  0  0  0  0  0  0  0  0
  151.6359  144.8087  160.2075 C   0  0  0  0  0  0  0  0  0  0  0  0
  152.4904  143.9278  160.9211 O   0  0  0  0  0  0  0  0  0  0  0  0
  152.2196  142.6099  160.4782 C   0  0  0  0  0  0  0  0  0  0  0  0
  148.0389  135.5824  154.8811 C   0  0  0  0  0  0  0  0  0  0  0  0
  146.0692  134.0097  154.5079 C   0  0  0  0  0  0  0  0  0  0  0  0
  145.2020  133.3271  155.4482 N   0  0  0  0  0  0  0  0  0  0  0  0
  146.7191  135.2078  157.1308 H   0  0  0  0  0  0  0  0  0  0  0  0
  147.6493  133.7388  157.4289 H   0  0  0  0  0  0  0  0  0  0  0  0
  147.9828  132.1243  155.3054 H   0  0  0  0  0  0  0  0  0  0  0  0
  148.4986  132.9883  153.8812 H   0  0  0  0  0  0  0  0  0  0  0  0
  149.7210  133.2502  156.6647 H   0  0  0  0  0  0  0  0  0  0  0  0
  150.4593  132.5400  155.2558 H   0  0  0  0  0  0  0  0  0  0  0  0
  151.2754  134.8628  155.6783 H   0  0  0  0  0  0  0  0  0  0  0  0
  150.5229  134.7177  154.1073 H   0  0  0  0  0  0  0  0  0  0  0  0
  150.1789  139.6147  153.5495 H   0  0  0  0  0  0  0  0  0  0  0  0
  151.8328  137.9294  159.5392 H   0  0  0  0  0  0  0  0  0  0  0  0
  152.7890  140.1738  159.1122 H   0  0  0  0  0  0  0  0  0  0  0  0
  153.1191  140.5694  157.4450 H   0  0  0  0  0  0  0  0  0  0  0  0
  150.5080  141.3104  158.8592 H   0  0  0  0  0  0  0  0  0  0  0  0
  151.4528  142.8090  156.4195 H   0  0  0  0  0  0  0  0  0  0  0  0
  150.8445  141.1922  156.1554 H   0  0  0  0  0  0  0  0  0  0  0  0
  149.4268  143.2161  156.2589 H   0  0  0  0  0  0  0  0  0  0  0  0
  153.0660  142.9070  158.5412 H   0  0  0  0  0  0  0  0  0  0  0  0
  151.6627  144.6964  158.0258 H   0  0  0  0  0  0  0  0  0  0  0  0
  150.2538  143.9592  158.7841 H   0  0  0  0  0  0  0  0  0  0  0  0
  152.1202  145.7750  160.0637 H   0  0  0  0  0  0  0  0  0  0  0  0
  150.7201  144.9693  160.7775 H   0  0  0  0  0  0  0  0  0  0  0  0
  151.2954  142.2513  160.9352 H   0  0  0  0  0  0  0  0  0  0  0  0
  153.0296  141.9358  160.7572 H   0  0  0  0  0  0  0  0  0  0  0  0
  148.1473  135.6347  153.7967 H   0  0  0  0  0  0  0  0  0  0  0  0
  147.3824  136.4039  155.1729 H   0  0  0  0  0  0  0  0  0  0  0  0
  145.5983  134.9555  154.2353 H   0  0  0  0  0  0  0  0  0  0  0  0
  146.1971  133.4280  153.5946 H   0  0  0  0  0  0  0  0  0  0  0  0
  144.3565  132.8507  155.1690 H   0  0  0  0  0  0  0  0  0  0  0  0
  1  2  2  0  0  0  0
  2 29  1  0  0  0  0
  2  3  1  0  0  0  0
  3  4  1  0  0  0  0
  3 30  1  0  0  0  0
  3 31  1  0  0  0  0
  4 27  1  0  0  0  0
  4  5  1  0  0  0  0
  4 28  1  0  0  0  0
  5  6  1  0  0  0  0
  5 32  1  0  0  0  0
  5 33  1  0  0  0  0
  6  7  1  0  0  0  0
  6 34  1  0  0  0  0
  6 35  1  0  0  0  0
  7  8  1  0  0  0  0
  7 36  1  0  0  0  0
  7 37  1  0  0  0  0
  8  9  1  0  0  0  0
  8 27  1  0  0  0  0
  9 14  1  0  0  0  0
  9 10  2  0  0  0  0
 10 11  1  0  0  0  0
 11 12  2  0  0  0  0
 11 38  1  0  0  0  0
 12 13  1  0  0  0  0
 13 17  1  0  0  0  0
 13 14  2  0  0  0  0
 14 15  1  0  0  0  0
 15 16  2  0  0  0  0
 16 17  1  0  0  0  0
 16 39  1  0  0  0  0
 17 18  1  0  0  0  0
 18 19  1  0  0  0  0
 18 40  1  0  0  0  0
 18 41  1  0  0  0  0
 19 20  1  0  0  0  0
 19 22  1  0  0  0  0
 19 42  1  0  0  0  0
 20 21  1  0  0  0  0
 20 43  1  0  0  0  0
 20 44  1  0  0  0  0
 21 45  1  0  0  0  0
 22 26  1  0  0  0  0
 22 23  1  0  0  0  0
 22 46  1  0  0  0  0
 23 24  1  0  0  0  0
 23 47  1  0  0  0  0
 23 48  1  0  0  0  0
 24 25  1  0  0  0  0
 24 49  1  0  0  0  0
 24 50  1  0  0  0  0
 25 26  1  0  0  0  0
 26 51  1  0  0  0  0
 26 52  1  0  0  0  0
 27 53  1  0  0  0  0
 27 54  1  0  0  0  0
 28 29  1  0  0  0  0
 28 55  1  0  0  0  0
 28 56  1  0  0  0  0
 29 57  1  0  0  0  0
M  END
> <s_m_source_file>
AV-unprocessed.smi

> <i_m_source_file_index>
20

> <i_lp_mmshare_version>
43012

> <i_f3d_flags>
0

> <s_epik_input>
W0NIMl0xW05IXUMoPU8pW0NIMl1bQ0BAXTEyW0NIMl1bQ0gyXVtDSDJdTihbQ0gyXTIpYyhuW2NIXW4zKWMoYzM0KW5bY0hdbjRbQ0gyXVtDQEhdKFtDSDJdW09IXSlbQ0BASF01W0NIMl1bQ0gyXU9bQ0gyXTU=

> <s_epik_cmdline>
J2VwaWtfcHl0aG9uJywgJy1waCcsICc3LjAnLCAnLXRuJywgJzgnLCAnLW1hJywgJzIwMCcsICctbWV0YWxfYmluZGluZycsICctaW1hZScsICc8aW5maWxlLm1hZT4nLCAnLW9tYWUnLCAnPG91dGZpbGUubWFlPic=

> <r_lp_tautomer_probability>
1

> <r_epik_Ionization_Penalty>
0.0019697

> <r_epik_Ionization_Penalty_Charging>
0

> <r_epik_Ionization_Penalty_Neutral>
0.0019697

> <r_epik_State_Penalty>
0.00113613

> <r_epik_Charging_Adjusted_Penalty>
0.00113613

> <i_epik_Tot_Q>
0

> <i_epik_Tot_abs_Q>
0

> <r_epik_Metal_State_Penalty>
-0

> <b_epik_Metal_Only>
0

> <s_lp_Force_Field>
OPLS_2005

> <r_lp_Energy>
58.6133

> <b_lp_Chiralities_Consistent>
1

> <s_lp_Variant>
AV-unprocessed.smi:20-5

> <Gold.Version>
5.8.1

> <Gold.Id.Protein>
6NUR|6NUR_protein|mol2

> <Gold.PLP.Fitness>
43.6817

> <Gold.PLP.PLP>
-36.8100

> <Gold.PLP.part.hbond>
-1.9670

> <Gold.PLP.part.metal>
0.0000

> <Gold.PLP.part.buried>
-6.6723

> <Gold.PLP.part.nonpolar>
-30.0063

> <Gold.PLP.part.repulsive>
0.8670

> <Gold.PLP.ligand.clash>
0.0000

> <Gold.PLP.ligand.torsion>
1.2685

> <Gold.PLP.Chemscore.Hbond>
1.9833

> <Gold.PLP.Chemscore.CHOScore>
1.0000

> <Gold.PLP.Chemscore.Metal>
0.0000

> <Gold.Chemscore.Hbonds>
donor molecule, donor type, donor heavy atom, donor atom, acceptor molecule, acceptor atom, score
      L1  H    21    45       P1  8028  1.00
      L1  H    29    57       P1 10957  0.99
      L1  C    11    38       P1  7957  1.00

> <Gold.PLP.Chemscore.Internal.Correction>
0.4589

> <Gold.Rescore>
     Score         DG    S(hbond)    S(metal)    S(lipo)     H(rot)  DE(clash)    DE(int)     intcor
     12.56     -15.11       1.96        0.00      86.19       2.74       0.00       2.55       ----

> <Gold.Chemscore.Fitness>
12.5575

> <Gold.Chemscore.DG>
-15.1086

> <Gold.Chemscore.ZeroCoef>
-5.4800

> <Gold.Chemscore.Hbond>
1.9648

> <Gold.Chemscore.Metal>
0.0000

> <Gold.Chemscore.Lipo>
86.1914

> <Gold.Chemscore.Internal_Hbond>
0.0000

> <Gold.Chemscore.DEClash>
0.0000

> <Gold.Chemscore.DEInternal>
2.5511

> <Gold.Chemscore.Rot>
2.7415

> <Gold.Chemscore.Internal.Correction>
   9.000000E+99

> <Gold.Chemscore.Hbonds>
donor molecule, donor type, donor heavy atom, donor atom, acceptor molecule, acceptor atom, score
      L1  H    21    45       P1  8028  0.97
      L1  H    29    57       P1 10957  0.93

> <Gold.Chemscore.Hbond.Weighted>
-6.5624

> <Gold.Chemscore.Metal.Weighted>
-0.0000

> <Gold.Chemscore.Lipo.Weighted>
-10.0844

> <Gold.Chemscore.Internal_Hbond.Weighted>
0.0000

> <Gold.Chemscore.DEClash.Weighted>
0.0000

> <Gold.Chemscore.DEInternal.Weighted>
2.5511

> <Gold.Chemscore.Rot.Weighted>
7.0182

> <Gold.Chemscore.Internal.Correction.Weighted>
   9.000000E+99

> <Gold.Protein.RotatedTorsions>
[ 6907 6896 6895 6894 ] final    3.28 input  -60.11 | X-H torsion
[ 7974 7965 7964 7962 ] final   39.58 input  175.53 | X-H torsion
[ 8008 7997 7996 7995 ] final  166.37 input   59.86 | X-H torsion
[ 10167 10162 10161 10158 ] final  -88.16 input  -65.29 | X-H torsion
[ 10718 10713 10712 10709 ] final   27.06 input   66.30 | X-H torsion
[ 10763 10752 10751 10750 ] final -134.17 input  -60.55 | X-H torsion
[ 11005 11000 10999 10996 ] final -168.39 input  -57.11 | X-H torsion

> <Gold.Protein.ActiveResidues>
 VAL166  LYS551  ARG553  GLY616  TRP617  ASP618  TYR619  PRO620  LYS621  CYS622 
 ASP623  PHE694  ASN695  SER759  ASP760  ASP761  ALA762  ILE779  LEU786  VAL792 
 PHE793  MET794  SER795  GLU796  ALA797  LYS798  CYS799  TRP800  GLU811  SER814 

> <Gold.Protein.RotatedAtoms>
  151.6225  135.1030  160.0104 H   0  0  0  0  0  0  0  0  0  0  0  0  # atno 6907 bound_to 6896
  152.4150  133.7019  159.6439 H   0  0  0  0  0  0  0  0  0  0  0  0  # atno 6908 bound_to 6896
  150.8038  133.8474  159.3236 H   0  0  0  0  0  0  0  0  0  0  0  0  # atno 6909 bound_to 6896
  146.0973  139.5634  142.9437 H   0  0  0  0  0  0  0  0  0  0  0  0  # atno 7974 bound_to 7965
  156.1724  140.1645  156.8423 H   0  0  0  0  0  0  0  0  0  0  0  0  # atno 8008 bound_to 7997
  154.5271  140.0765  156.8312 H   0  0  0  0  0  0  0  0  0  0  0  0  # atno 8009 bound_to 7997
  155.3484  140.3388  155.4241 H   0  0  0  0  0  0  0  0  0  0  0  0  # atno 8010 bound_to 7997
  140.3774  143.2765  151.9425 H   0  0  0  0  0  0  0  0  0  0  0  0  # atno 10167 bound_to 10162
  157.2152  130.6953  149.6246 H   0  0  0  0  0  0  0  0  0  0  0  0  # atno 10718 bound_to 10713
  154.8723  135.3743  154.4692 H   0  0  0  0  0  0  0  0  0  0  0  0  # atno 10763 bound_to 10752
  153.5354  135.7027  153.5668 H   0  0  0  0  0  0  0  0  0  0  0  0  # atno 10764 bound_to 10752
  153.3854  135.3986  155.1851 H   0  0  0  0  0  0  0  0  0  0  0  0  # atno 10765 bound_to 10752
  140.5426  134.5508  157.5103 H   0  0  0  0  0  0  0  0  0  0  0  0  # atno 11005 bound_to 11000
  145.5924  141.0367  143.2063 LP  0  0  0  0  0  0  0  0  0  0  0  0  # atno 17320 bound_to 7965
  144.7405  139.7463  143.7312 LP  0  0  0  0  0  0  0  0  0  0  0  0  # atno 17321 bound_to 7965
  139.4798  144.5850  151.7868 LP  0  0  0  0  0  0  0  0  0  0  0  0  # atno 17342 bound_to 10162
  140.4972  144.1223  150.5963 LP  0  0  0  0  0  0  0  0  0  0  0  0  # atno 17343 bound_to 10162
  155.9687  130.4538  150.5825 LP  0  0  0  0  0  0  0  0  0  0  0  0  # atno 17370 bound_to 10713
  157.3632  131.0753  151.1619 LP  0  0  0  0  0  0  0  0  0  0  0  0  # atno 17371 bound_to 10713
  139.9496  134.7640  156.0479 LP  0  0  0  0  0  0  0  0  0  0  0  0  # atno 17394 bound_to 11000
  141.1218  133.6610  156.3235 LP  0  0  0  0  0  0  0  0  0  0  0  0  # atno 17395 bound_to 11000

$$$$
