AV-unprocessed.smi:287|AV-procd|sdf|2183|dock4
  -GOLD-   2262021563D 1   1.00000     0.00000
 Structure written by MMmdl.
 55 58  0  0  0  0  0  0  0  0  1 V2000
  151.7450  142.9858  157.9279 C   0  0  0  0  0  0  0  0  0  0  0  0
  150.6438  142.3628  157.1405 C   0  0  0  0  0  0  0  0  0  0  0  0
  150.5594  141.8454  155.8811 C   0  0  0  0  0  0  0  0  0  0  0  0
  149.2167  141.4005  155.6913 C   0  0  0  0  0  0  0  0  0  0  0  0
  148.6536  140.7515  154.4341 C   0  0  1  0  0  0  0  0  0  0  0  0
  147.4154  141.5291  153.9591 C   0  0  0  0  0  0  0  0  0  0  0  0
  149.5596  140.7862  153.3481 O   0  0  0  0  0  0  0  0  0  0  0  0
  148.2986  139.2610  154.6423 C   0  0  0  0  0  0  0  0  0  0  0  0
  147.3909  138.7474  153.6243 N   0  0  0  0  0  0  0  0  0  0  0  0
  146.7837  137.5521  153.7746 C   0  0  0  0  0  0  0  0  0  0  0  0
  146.7293  137.0816  155.0436 N   0  0  0  0  0  0  0  0  0  0  0  0
  146.1478  135.9069  155.3012 C   0  0  0  0  0  0  0  0  0  0  0  0
  145.5701  135.0577  154.4498 N   0  0  0  0  0  0  0  0  0  0  0  0
  145.6232  135.5241  153.1687 C   0  0  0  0  0  0  0  0  0  0  0  0
  146.2076  136.7513  152.7438 C   0  0  0  0  0  0  0  0  0  0  0  0
  146.0692  136.8687  151.3644 N   0  0  0  0  0  0  0  0  0  0  0  0
  145.4443  135.7801  151.0059 C   0  0  0  0  0  0  0  0  0  0  0  0
  145.1407  134.9133  152.0325 N   0  0  0  0  0  0  0  0  0  0  0  0
  144.4391  133.5912  151.9796 C   0  0  1  0  0  0  0  0  0  0  0  0
  143.7260  133.5411  150.7795 O   0  0  0  0  0  0  0  0  0  0  0  0
  144.1400  132.4308  149.9835 C   0  0  1  0  0  0  0  0  0  0  0  0
  144.0276  132.7527  148.4828 C   0  0  0  0  0  0  0  0  0  0  0  0
  142.6719  132.9098  148.1224 O   0  0  0  0  0  0  0  0  0  0  0  0
  145.5501  132.0907  150.4862 C   0  0  1  0  0  0  0  0  0  0  0  0
  146.5358  132.8751  149.8351 O   0  0  0  0  0  0  0  0  0  0  0  0
  145.4315  132.4133  151.9690 C   0  0  1  0  0  0  0  0  0  0  0  0
  146.6843  132.6532  152.5883 O   0  0  0  0  0  0  0  0  0  0  0  0
  148.5874  141.6701  156.8829 C   0  0  0  0  0  0  0  0  0  0  0  0
  147.2025  141.4523  157.3966 C   0  0  0  0  0  0  0  0  0  0  0  0
  149.4434  142.2595  157.7637 O   0  0  0  0  0  0  0  0  0  0  0  0
  143.7702  133.5970  152.8409 H   0  0  0  0  0  0  0  0  0  0  0  0
  143.4925  131.5877  150.2317 H   0  0  0  0  0  0  0  0  0  0  0  0
  145.7937  131.0403  150.3228 H   0  0  0  0  0  0  0  0  0  0  0  0
  144.9443  131.5796  152.4760 H   0  0  0  0  0  0  0  0  0  0  0  0
  152.6142  143.1758  157.2980 H   0  0  0  0  0  0  0  0  0  0  0  0
  152.0540  142.3319  158.7434 H   0  0  0  0  0  0  0  0  0  0  0  0
  151.4256  143.9358  158.3570 H   0  0  0  0  0  0  0  0  0  0  0  0
  151.3700  141.7979  155.1689 H   0  0  0  0  0  0  0  0  0  0  0  0
  146.6338  141.5305  154.7198 H   0  0  0  0  0  0  0  0  0  0  0  0
  146.9905  141.0919  153.0547 H   0  0  0  0  0  0  0  0  0  0  0  0
  147.6610  142.5692  153.7399 H   0  0  0  0  0  0  0  0  0  0  0  0
  149.2373  140.2108  152.6712 H   0  0  0  0  0  0  0  0  0  0  0  0
  149.2169  138.6753  154.5818 H   0  0  0  0  0  0  0  0  0  0  0  0
  147.8834  139.0977  155.6378 H   0  0  0  0  0  0  0  0  0  0  0  0
  147.3280  139.2977  152.7797 H   0  0  0  0  0  0  0  0  0  0  0  0
  146.1463  135.6042  156.3379 H   0  0  0  0  0  0  0  0  0  0  0  0
  145.1895  135.5803  149.9754 H   0  0  0  0  0  0  0  0  0  0  0  0
  144.5938  133.6478  148.2235 H   0  0  0  0  0  0  0  0  0  0  0  0
  144.4286  131.9298  147.8900 H   0  0  0  0  0  0  0  0  0  0  0  0
  142.2786  133.5430  148.7032 H   0  0  0  0  0  0  0  0  0  0  0  0
  147.3239  132.3580  149.7611 H   0  0  0  0  0  0  0  0  0  0  0  0
  147.1804  131.8485  152.5804 H   0  0  0  0  0  0  0  0  0  0  0  0
  146.8813  140.4259  157.2190 H   0  0  0  0  0  0  0  0  0  0  0  0
  146.4974  142.1194  156.9006 H   0  0  0  0  0  0  0  0  0  0  0  0
  147.1453  141.6393  158.4691 H   0  0  0  0  0  0  0  0  0  0  0  0
  1  2  1  0  0  0  0
  1 35  1  0  0  0  0
  1 36  1  0  0  0  0
  1 37  1  0  0  0  0
  2 30  1  0  0  0  0
  2  3  2  0  0  0  0
  3  4  1  0  0  0  0
  3 38  1  0  0  0  0
  4  5  1  0  0  0  0
  4 28  2  0  0  0  0
  5  6  1  0  0  0  0
  5  7  1  0  0  0  0
  5  8  1  0  0  0  0
  6 39  1  0  0  0  0
  6 40  1  0  0  0  0
  6 41  1  0  0  0  0
  7 42  1  0  0  0  0
  8  9  1  0  0  0  0
  8 43  1  0  0  0  0
  8 44  1  0  0  0  0
  9 10  1  0  0  0  0
  9 45  1  0  0  0  0
 10 15  1  0  0  0  0
 10 11  2  0  0  0  0
 11 12  1  0  0  0  0
 12 13  2  0  0  0  0
 12 46  1  0  0  0  0
 13 14  1  0  0  0  0
 14 18  1  0  0  0  0
 14 15  2  0  0  0  0
 15 16  1  0  0  0  0
 16 17  2  0  0  0  0
 17 18  1  0  0  0  0
 17 47  1  0  0  0  0
 18 19  1  0  0  0  0
 19 31  1  0  0  0  0
 19 26  1  0  0  0  0
 19 20  1  0  0  0  0
 20 21  1  0  0  0  0
 21 32  1  0  0  0  0
 21 22  1  0  0  0  0
 21 24  1  0  0  0  0
 22 23  1  0  0  0  0
 22 48  1  0  0  0  0
 22 49  1  0  0  0  0
 23 50  1  0  0  0  0
 24 33  1  0  0  0  0
 24 25  1  0  0  0  0
 24 26  1  0  0  0  0
 25 51  1  0  0  0  0
 26 34  1  0  0  0  0
 26 27  1  0  0  0  0
 27 52  1  0  0  0  0
 28 29  1  0  0  0  0
 28 30  1  0  0  0  0
 29 53  1  0  0  0  0
 29 54  1  0  0  0  0
 29 55  1  0  0  0  0
M  END
> <s_m_source_file>
AV-unprocessed.smi

> <i_m_source_file_index>
287

> <i_lp_mmshare_version>
43012

> <i_f3d_flags>
0

> <s_epik_input>
W0NIM11jMVtjSF1jKGMobzEpW0NIM10pW0NAQF0oW0NIM10pKFtPSF0pW0NIMl1bTkhdYyhuW2NIXW4yKWMoYzIzKW5bY0hdbjNbQ0BASF00T1tDQEhdKFtDSDJdW09IXSlbQ0BASF0oW09IXSlbQ0BIXTRbT0hd

> <s_epik_cmdline>
J2VwaWtfcHl0aG9uJywgJy1waCcsICc3LjAnLCAnLXRuJywgJzgnLCAnLW1hJywgJzIwMCcsICctbWV0YWxfYmluZGluZycsICctaW1hZScsICc8aW5maWxlLm1hZT4nLCAnLW9tYWUnLCAnPG91dGZpbGUubWFlPic=

> <r_lp_tautomer_probability>
1

> <r_epik_Ionization_Penalty>
0.000992612

> <r_epik_Ionization_Penalty_Charging>
0

> <r_epik_Ionization_Penalty_Neutral>
0.000992612

> <r_epik_State_Penalty>
-0

> <r_epik_Charging_Adjusted_Penalty>
0

> <i_epik_Tot_Q>
0

> <i_epik_Tot_abs_Q>
0

> <r_epik_Metal_State_Penalty>
-0

> <b_epik_Metal_Only>
0

> <s_epik_Chemistry_Notes>
This compound contains an acetal/aminal-like group ( X-CH(R)-Y where X, Y are N, S, or O) that may be acid/base labile, releasing an aldehyde.

> <s_lp_Force_Field>
OPLS_2005

> <r_lp_Energy>
47.3874

> <b_lp_Chiralities_Consistent>
1

> <s_lp_Variant>
AV-unprocessed.smi:287-7

> <Gold.Version>
5.8.1

> <Gold.Id.Protein>
6NUR|6NUR_protein|mol2

> <Gold.PLP.Fitness>
55.6473

> <Gold.PLP.PLP>
-43.0070

> <Gold.PLP.part.hbond>
-6.5479

> <Gold.PLP.part.metal>
0.0000

> <Gold.PLP.part.buried>
-5.2807

> <Gold.PLP.part.nonpolar>
-32.9560

> <Gold.PLP.part.repulsive>
2.3560

> <Gold.PLP.ligand.clash>
0.0000

> <Gold.PLP.ligand.torsion>
1.1479

> <Gold.PLP.Chemscore.Hbond>
3.7883

> <Gold.PLP.Chemscore.CHOScore>
0.9439

> <Gold.PLP.Chemscore.Metal>
0.0000

> <Gold.Chemscore.Hbonds>
donor molecule, donor type, donor heavy atom, donor atom, acceptor molecule, acceptor atom, score
      L1  H     7    42       P1  7957  0.66
      L1  H    23    50       P1 10186  1.00
      L1  H    25    51       P1 10747  0.41
      P1  H  7989  7998       L1     7  0.28
      P1  H  8011  8017       L1     7  1.00
      L1  C    17    47       P1  7921  0.75

> <Gold.PLP.Chemscore.Internal.Correction>
0.7398

> <Gold.Rescore>
     Score         DG    S(hbond)    S(metal)    S(lipo)     H(rot)  DE(clash)    DE(int)     intcor
     10.57     -14.51       3.25        0.00      99.77       5.27       2.89       1.05       ----

> <Gold.Chemscore.Fitness>
10.5680

> <Gold.Chemscore.DG>
-14.5116

> <Gold.Chemscore.ZeroCoef>
-5.4800

> <Gold.Chemscore.Hbond>
3.2461

> <Gold.Chemscore.Metal>
0.0000

> <Gold.Chemscore.Lipo>
99.7743

> <Gold.Chemscore.Internal_Hbond>
0.0000

> <Gold.Chemscore.DEClash>
2.8917

> <Gold.Chemscore.DEInternal>
1.0519

> <Gold.Chemscore.Rot>
5.2672

> <Gold.Chemscore.Internal.Correction>
   9.000000E+99

> <Gold.Chemscore.Hbonds>
donor molecule, donor type, donor heavy atom, donor atom, acceptor molecule, acceptor atom, score
      L1  H     7    42       P1  7957  0.62
      L1  H    23    50       P1 10186  0.99
      L1  H    25    51       P1 10747  0.39
      P1  H  7989  7998       L1     7  0.23
      P1  H  8011  8017       L1     7  0.25

> <Gold.Chemscore.Hbond.Weighted>
-10.8420

> <Gold.Chemscore.Metal.Weighted>
-0.0000

> <Gold.Chemscore.Lipo.Weighted>
-11.6736

> <Gold.Chemscore.Internal_Hbond.Weighted>
0.0000

> <Gold.Chemscore.DEClash.Weighted>
2.8917

> <Gold.Chemscore.DEInternal.Weighted>
1.0519

> <Gold.Chemscore.Rot.Weighted>
13.4839

> <Gold.Chemscore.Internal.Correction.Weighted>
   9.000000E+99

> <Gold.Protein.RotatedTorsions>
[ 6907 6896 6895 6894 ] final  132.89 input  -60.11 | X-H torsion
[ 7974 7965 7964 7962 ] final  -19.48 input  175.53 | X-H torsion
[ 8008 7997 7996 7995 ] final -101.74 input   59.86 | X-H torsion
[ 10167 10162 10161 10158 ] final  116.98 input  -65.29 | X-H torsion
[ 10718 10713 10712 10709 ] final   15.05 input   66.30 | X-H torsion
[ 10763 10752 10751 10750 ] final   72.71 input  -60.55 | X-H torsion
[ 11005 11000 10999 10996 ] final -125.29 input  -57.11 | X-H torsion

> <Gold.Protein.ActiveResidues>
 VAL166  LYS551  ARG553  GLY616  TRP617  ASP618  TYR619  PRO620  LYS621  CYS622 
 ASP623  PHE694  ASN695  SER759  ASP760  ASP761  ALA762  ILE779  LEU786  VAL792 
 PHE793  MET794  SER795  GLU796  ALA797  LYS798  CYS799  TRP800  GLU811  SER814 

> <Gold.Protein.RotatedAtoms>
  152.3277  133.5923  159.5787 H   0  0  0  0  0  0  0  0  0  0  0  0  # atno 6907 bound_to 6896
  150.7406  133.9915  159.3617 H   0  0  0  0  0  0  0  0  0  0  0  0  # atno 6908 bound_to 6896
  151.7793  135.0766  160.0422 H   0  0  0  0  0  0  0  0  0  0  0  0  # atno 6909 bound_to 6896
  146.1839  140.4068  142.8484 H   0  0  0  0  0  0  0  0  0  0  0  0  # atno 7974 bound_to 7965
  154.8468  140.0432  157.1578 H   0  0  0  0  0  0  0  0  0  0  0  0  # atno 8008 bound_to 7997
  154.8986  140.2997  155.5310 H   0  0  0  0  0  0  0  0  0  0  0  0  # atno 8009 bound_to 7997
  156.2994  140.2380  156.4011 H   0  0  0  0  0  0  0  0  0  0  0  0  # atno 8010 bound_to 7997
  139.6210  144.7101  151.2634 H   0  0  0  0  0  0  0  0  0  0  0  0  # atno 10167 bound_to 10162
  157.0479  130.6258  149.5762 H   0  0  0  0  0  0  0  0  0  0  0  0  # atno 10718 bound_to 10713
  153.0476  135.5090  154.7785 H   0  0  0  0  0  0  0  0  0  0  0  0  # atno 10763 bound_to 10752
  154.6673  135.2947  154.9791 H   0  0  0  0  0  0  0  0  0  0  0  0  # atno 10764 bound_to 10752
  154.0622  135.6689  153.4866 H   0  0  0  0  0  0  0  0  0  0  0  0  # atno 10765 bound_to 10752
  140.9774  134.0721  157.3803 H   0  0  0  0  0  0  0  0  0  0  0  0  # atno 11005 bound_to 11000
  144.8362  140.6786  143.6259 LP  0  0  0  0  0  0  0  0  0  0  0  0  # atno 17320 bound_to 7965
  145.3997  139.1600  143.4184 LP  0  0  0  0  0  0  0  0  0  0  0  0  # atno 17321 bound_to 7965
  140.7382  143.6656  150.8126 LP  0  0  0  0  0  0  0  0  0  0  0  0  # atno 17342 bound_to 10162
  140.0266  143.5486  152.2778 LP  0  0  0  0  0  0  0  0  0  0  0  0  # atno 17343 bound_to 10162
  156.0017  130.5097  150.7686 LP  0  0  0  0  0  0  0  0  0  0  0  0  # atno 17370 bound_to 10713
  157.5053  131.0921  151.0264 LP  0  0  0  0  0  0  0  0  0  0  0  0  # atno 17371 bound_to 10713
  139.8936  135.0131  156.6907 LP  0  0  0  0  0  0  0  0  0  0  0  0  # atno 17394 bound_to 11000
  140.7239  133.9117  155.8165 LP  0  0  0  0  0  0  0  0  0  0  0  0  # atno 17395 bound_to 11000

$$$$
