AV-unprocessed.smi:2567|AV-procd|sdf|10077|dock1
  -GOLD-   2272014103D 1   1.00000     0.00000
 Structure written by MMmdl.
 34 35  0  0  0  0  0  0  0  0  2 V2000
  152.4426  142.6789  159.7488 C   0  0  0  0  0  0  0  0  0  0  0  0
  151.5758  143.2532  158.6112 C   0  0  0  0  0  0  0  0  0  0  0  0
  150.2928  143.8421  159.2397 C   0  0  0  0  0  0  0  0  0  0  0  0
  152.3334  144.3937  157.9049 C   0  0  0  0  0  0  0  0  0  0  0  0
  151.2597  142.1633  157.6146 C   0  0  0  0  0  0  0  0  0  0  0  0
  151.6980  140.9048  157.7312 N   0  0  0  0  0  0  0  0  0  0  0  0
  151.2348  140.1638  156.7032 N   0  0  0  0  0  0  0  0  0  0  0  0
  150.5373  141.0600  156.0087 C   0  0  0  0  0  0  0  0  0  0  0  0
  149.7890  140.6617  154.7752 C   0  0  1  0  0  0  0  0  0  0  0  0
  149.9450  139.1620  154.4594 C   0  0  0  0  0  0  0  0  0  0  0  0
  149.1074  138.8040  153.2984 N   0  3  0  0  0  0  0  0  0  0  0  0
  147.6979  139.1887  153.5102 C   0  0  0  0  0  0  0  0  0  0  0  0
  147.6033  140.6827  153.8681 C   0  0  0  0  0  0  0  0  0  0  0  0
  148.4132  140.9580  155.0065 O   0  0  0  0  0  0  0  0  0  0  0  0
  150.4948  142.3211  156.5364 N   0  0  0  0  0  0  0  0  0  0  0  0
  152.6814  143.4414  160.4911 H   0  0  0  0  0  0  0  0  0  0  0  0
  153.3877  142.2851  159.3731 H   0  0  0  0  0  0  0  0  0  0  0  0
  151.9308  141.8661  160.2654 H   0  0  0  0  0  0  0  0  0  0  0  0
  149.7168  143.0786  159.7643 H   0  0  0  0  0  0  0  0  0  0  0  0
  149.6443  144.2891  158.4854 H   0  0  0  0  0  0  0  0  0  0  0  0
  150.5293  144.6227  159.9640 H   0  0  0  0  0  0  0  0  0  0  0  0
  152.5720  145.2020  158.5972 H   0  0  0  0  0  0  0  0  0  0  0  0
  151.7414  144.8196  157.0940 H   0  0  0  0  0  0  0  0  0  0  0  0
  153.2735  144.0444  157.4762 H   0  0  0  0  0  0  0  0  0  0  0  0
  150.1492  141.2623  153.9374 H   0  0  0  0  0  0  0  0  0  0  0  0
  150.9857  138.9181  154.2443 H   0  0  0  0  0  0  0  0  0  0  0  0
  149.6423  138.5582  155.3164 H   0  0  0  0  0  0  0  0  0  0  0  0
  149.4570  139.2911  152.4854 H   0  0  0  0  0  0  0  0  0  0  0  0
  147.1241  138.9720  152.6089 H   0  0  0  0  0  0  0  0  0  0  0  0
  147.2776  138.5822  154.3134 H   0  0  0  0  0  0  0  0  0  0  0  0
  147.9155  141.3048  153.0278 H   0  0  0  0  0  0  0  0  0  0  0  0
  146.5714  140.9505  154.0956 H   0  0  0  0  0  0  0  0  0  0  0  0
  149.1646  137.8086  153.1362 H   0  0  0  0  0  0  0  0  0  0  0  0
  152.2815  140.5265  158.4643 H   0  0  0  0  0  0  0  0  0  0  0  0
  1  2  1  0  0  0  0
  1 16  1  0  0  0  0
  1 17  1  0  0  0  0
  1 18  1  0  0  0  0
  2  3  1  0  0  0  0
  2  4  1  0  0  0  0
  2  5  1  0  0  0  0
  3 19  1  0  0  0  0
  3 20  1  0  0  0  0
  3 21  1  0  0  0  0
  4 22  1  0  0  0  0
  4 23  1  0  0  0  0
  4 24  1  0  0  0  0
  5 15  2  0  0  0  0
  5  6  1  0  0  0  0
  6  7  1  0  0  0  0
  6 34  1  0  0  0  0
  7  8  2  0  0  0  0
  8  9  1  0  0  0  0
  8 15  1  0  0  0  0
  9 14  1  0  0  0  0
  9 10  1  0  0  0  0
  9 25  1  0  0  0  0
 10 11  1  0  0  0  0
 10 26  1  0  0  0  0
 10 27  1  0  0  0  0
 11 12  1  0  0  0  0
 11 28  1  0  0  0  0
 11 33  1  0  0  0  0
 12 13  1  0  0  0  0
 12 29  1  0  0  0  0
 12 30  1  0  0  0  0
 13 14  1  0  0  0  0
 13 31  1  0  0  0  0
 13 32  1  0  0  0  0
M  CHG  1  11   1
M  END
> <s_m_source_file>
AV-unprocessed.smi

> <i_m_source_file_index>
2567

> <i_lp_mmshare_version>
43012

> <i_f3d_flags>
0

> <s_epik_input>
W0NIM11DKFtDSDNdKShbQ0gzXSljMW5bbkhdYyhuMSlbQ0BASF0yW0NIMl1bTkhdW0NIMl1bQ0gyXU8y

> <s_epik_cmdline>
J2VwaWtfcHl0aG9uJywgJy1waCcsICc3LjAnLCAnLXRuJywgJzgnLCAnLW1hJywgJzIwMCcsICctbWV0YWxfYmluZGluZycsICctaW1hZScsICc8aW5maWxlLm1hZT4nLCAnLW9tYWUnLCAnPG91dGZpbGUubWFlPic=

> <r_lp_tautomer_probability>
0.948284

> <r_epik_Ionization_Penalty>
0.108767

> <r_epik_Ionization_Penalty_Charging>
0.100865

> <r_epik_Ionization_Penalty_Neutral>
0.00790271

> <r_epik_State_Penalty>
0.197684

> <r_epik_Charging_Adjusted_Penalty>
0.298549

> <i_epik_Tot_Q>
1

> <i_epik_Tot_abs_Q>
1

> <r_epik_Metal_State_Penalty>
0.508163

> <b_epik_Metal_Only>
0

> <s_lp_Force_Field>
OPLS_2005

> <r_lp_Energy>
13.5153

> <b_lp_Chiralities_Consistent>
1

> <s_lp_Variant>
AV-unprocessed.smi:2567-2

> <Gold.Version>
5.8.1

> <Gold.Id.Protein>
6NUR|6NUR_protein|mol2

> <Gold.PLP.Fitness>
38.7032

> <Gold.PLP.PLP>
-29.8944

> <Gold.PLP.part.hbond>
-1.9445

> <Gold.PLP.part.metal>
0.0000

> <Gold.PLP.part.buried>
-3.9636

> <Gold.PLP.part.nonpolar>
-25.6507

> <Gold.PLP.part.repulsive>
1.0986

> <Gold.PLP.ligand.clash>
0.0000

> <Gold.PLP.ligand.torsion>
0.0199

> <Gold.PLP.Chemscore.Hbond>
2.9433

> <Gold.PLP.Chemscore.CHOScore>
0.0000

> <Gold.PLP.Chemscore.Metal>
0.0000

> <Gold.Chemscore.Hbonds>
donor molecule, donor type, donor heavy atom, donor atom, acceptor molecule, acceptor atom, score
      L1  H    11    28       P1  7957  0.98
      L1  H    11    33       P1  7948  1.95

> <Gold.PLP.Chemscore.Internal.Correction>
0.0188

> <Gold.Rescore>
     Score         DG    S(hbond)    S(metal)    S(lipo)     H(rot)  DE(clash)    DE(int)     intcor
     16.70     -16.74       1.85        0.00      71.13       1.26       0.03       0.01       ----

> <Gold.Chemscore.Fitness>
16.7001

> <Gold.Chemscore.DG>
-16.7375

> <Gold.Chemscore.ZeroCoef>
-5.4800

> <Gold.Chemscore.Hbond>
1.8483

> <Gold.Chemscore.Metal>
0.0000

> <Gold.Chemscore.Lipo>
71.1262

> <Gold.Chemscore.Internal_Hbond>
0.0000

> <Gold.Chemscore.DEClash>
0.0280

> <Gold.Chemscore.DEInternal>
0.0093

> <Gold.Chemscore.Rot>
1.2647

> <Gold.Chemscore.Internal.Correction>
   9.000000E+99

> <Gold.Chemscore.Hbonds>
donor molecule, donor type, donor heavy atom, donor atom, acceptor molecule, acceptor atom, score
      L1  H    11    28       P1  7957  0.92
      L1  H    11    33       P1  7948  0.87

> <Gold.Chemscore.Hbond.Weighted>
-6.1732

> <Gold.Chemscore.Metal.Weighted>
-0.0000

> <Gold.Chemscore.Lipo.Weighted>
-8.3218

> <Gold.Chemscore.Internal_Hbond.Weighted>
0.0000

> <Gold.Chemscore.DEClash.Weighted>
0.0280

> <Gold.Chemscore.DEInternal.Weighted>
0.0093

> <Gold.Chemscore.Rot.Weighted>
3.2375

> <Gold.Chemscore.Internal.Correction.Weighted>
   9.000000E+99

> <Gold.Protein.RotatedTorsions>
[ 6907 6896 6895 6894 ] final  -49.47 input  -60.11 | X-H torsion
[ 7974 7965 7964 7962 ] final  101.95 input  175.53 | X-H torsion
[ 8008 7997 7996 7995 ] final  128.41 input   59.86 | X-H torsion
[ 10167 10162 10161 10158 ] final   96.67 input  -65.29 | X-H torsion
[ 10718 10713 10712 10709 ] final   88.80 input   66.30 | X-H torsion
[ 10763 10752 10751 10750 ] final   84.10 input  -60.55 | X-H torsion
[ 11005 11000 10999 10996 ] final  118.70 input  -57.11 | X-H torsion

> <Gold.Protein.ActiveResidues>
 VAL166  LYS551  ARG553  GLY616  TRP617  ASP618  TYR619  PRO620  LYS621  CYS622 
 ASP623  PHE694  ASN695  SER759  ASP760  ASP761  ALA762  ILE779  LEU786  VAL792 
 PHE793  MET794  SER795  GLU796  ALA797  LYS798  CYS799  TRP800  GLU811  SER814 

> <Gold.Protein.RotatedAtoms>
  150.8802  134.8191  159.7218 H   0  0  0  0  0  0  0  0  0  0  0  0  # atno 6907 bound_to 6896
  152.4772  134.4809  159.9675 H   0  0  0  0  0  0  0  0  0  0  0  0  # atno 6908 bound_to 6896
  151.4885  133.3491  159.2885 H   0  0  0  0  0  0  0  0  0  0  0  0  # atno 6909 bound_to 6896
  145.3655  139.2409  143.3483 H   0  0  0  0  0  0  0  0  0  0  0  0  # atno 7974 bound_to 7965
  156.2914  140.2645  156.2431 H   0  0  0  0  0  0  0  0  0  0  0  0  # atno 8008 bound_to 7997
  154.9957  140.0388  157.2357 H   0  0  0  0  0  0  0  0  0  0  0  0  # atno 8009 bound_to 7997
  154.7646  140.2767  155.6191 H   0  0  0  0  0  0  0  0  0  0  0  0  # atno 8010 bound_to 7997
  139.7872  144.6866  150.9941 H   0  0  0  0  0  0  0  0  0  0  0  0  # atno 10167 bound_to 10162
  157.6951  131.0309  150.3329 H   0  0  0  0  0  0  0  0  0  0  0  0  # atno 10718 bound_to 10713
  153.1351  135.4667  154.9409 H   0  0  0  0  0  0  0  0  0  0  0  0  # atno 10763 bound_to 10752
  154.7698  135.3155  154.8214 H   0  0  0  0  0  0  0  0  0  0  0  0  # atno 10764 bound_to 10752
  153.8748  135.6900  153.4825 H   0  0  0  0  0  0  0  0  0  0  0  0  # atno 10765 bound_to 10752
  139.9119  134.9622  156.7543 H   0  0  0  0  0  0  0  0  0  0  0  0  # atno 11005 bound_to 11000
  146.2908  140.4297  142.8740 LP  0  0  0  0  0  0  0  0  0  0  0  0  # atno 17320 bound_to 7965
  144.8614  140.7145  143.6105 LP  0  0  0  0  0  0  0  0  0  0  0  0  # atno 17321 bound_to 7965
  140.7820  143.4419  151.0539 LP  0  0  0  0  0  0  0  0  0  0  0  0  # atno 17342 bound_to 10162
  139.8097  143.7968  152.3170 LP  0  0  0  0  0  0  0  0  0  0  0  0  # atno 17343 bound_to 10162
  156.3801  130.3879  149.7108 LP  0  0  0  0  0  0  0  0  0  0  0  0  # atno 17370 bound_to 10713
  156.4494  130.7899  151.2920 LP  0  0  0  0  0  0  0  0  0  0  0  0  # atno 17371 bound_to 10713
  140.6749  133.9526  155.7877 LP  0  0  0  0  0  0  0  0  0  0  0  0  # atno 17394 bound_to 11000
  141.0551  134.0427  157.3732 LP  0  0  0  0  0  0  0  0  0  0  0  0  # atno 17395 bound_to 11000

$$$$
