AV-unprocessed.smi:113|AV-procd|sdf|1102|dock3
  -GOLD-   2262018213D 1   1.00000     0.00000
 Structure written by MMmdl.
 53 56  0  0  0  0  0  0  0  0  2 V2000
  151.5769  137.5895  158.3470 C   0  0  0  0  0  0  0  0  0  0  0  0
  151.5175  139.0900  158.1547 C   0  0  0  0  0  0  0  0  0  0  0  0
  150.8621  139.6813  157.0571 C   0  0  0  0  0  0  0  0  0  0  0  0
  150.8335  141.0922  156.9266 C   0  0  0  0  0  0  0  0  0  0  0  0
  150.1264  141.7647  155.7447 C   0  0  0  0  0  0  0  0  0  0  0  0
  148.8093  141.2564  155.3885 N   0  0  0  0  0  0  0  0  0  0  0  0
  148.6345  140.7230  154.0878 C   0  0  0  0  0  0  0  0  0  0  0  0
  149.5634  140.6828  153.2783 O   0  0  0  0  0  0  0  0  0  0  0  0
  147.2790  140.2574  153.7823 C   0  0  0  0  0  0  0  0  0  0  0  0
  147.0145  139.6754  152.4028 C   0  0  0  0  0  0  0  0  0  0  0  0
  146.3056  140.3622  154.7184 C   0  0  0  0  0  0  0  0  0  0  0  0
  146.5073  140.8886  155.9827 N   0  0  0  0  0  0  0  0  0  0  0  0
  145.3681  140.9899  156.9668 C   0  0  1  0  0  0  0  0  0  0  0  0
  145.0499  142.4451  157.2834 C   0  0  0  0  0  0  0  0  0  0  0  0
  143.5818  142.3566  157.6501 C   0  0  2  0  0  0  0  0  0  0  0  0
  143.4343  142.1154  159.0363 O   0  0  0  0  0  0  0  0  0  0  0  0
  143.0676  141.1493  156.8408 C   0  0  1  0  0  0  0  0  0  0  0  0
  142.2615  141.5470  155.5940 C   0  0  0  0  0  0  0  0  0  0  0  0
  141.9381  140.4036  154.8317 O   0  0  0  0  0  0  0  0  0  0  0  0
  144.2245  140.4431  156.3923 O   0  0  0  0  0  0  0  0  0  0  0  0
  147.7779  141.3760  156.3466 C   0  0  0  0  0  0  0  0  0  0  0  0
  147.9678  141.9037  157.4450 O   0  0  0  0  0  0  0  0  0  0  0  0
  151.4791  141.8745  157.9235 C   0  0  0  0  0  0  0  0  0  0  0  0
  151.5042  143.2890  157.8735 C   0  0  0  0  0  0  0  0  0  0  0  0
  152.1549  144.0292  158.8800 C   0  0  0  0  0  0  0  0  0  0  0  0
  152.7878  143.3692  159.9499 C   0  0  0  0  0  0  0  0  0  0  0  0
  152.7719  141.9637  160.0157 C   0  0  0  0  0  0  0  0  0  0  0  0
  152.1226  141.2213  159.0092 C   0  0  0  0  0  0  0  0  0  0  0  0
  152.1128  139.8733  159.0770 N   0  3  0  0  0  0  0  0  0  0  0  0
  151.3485  137.0674  157.4173 H   0  0  0  0  0  0  0  0  0  0  0  0
  150.8549  137.2772  159.1017 H   0  0  0  0  0  0  0  0  0  0  0  0
  152.5713  137.2816  158.6720 H   0  0  0  0  0  0  0  0  0  0  0  0
  150.3879  139.0421  156.3273 H   0  0  0  0  0  0  0  0  0  0  0  0
  150.0233  142.8355  155.9275 H   0  0  0  0  0  0  0  0  0  0  0  0
  150.7487  141.7038  154.8504 H   0  0  0  0  0  0  0  0  0  0  0  0
  145.9786  139.3538  152.2900 H   0  0  0  0  0  0  0  0  0  0  0  0
  147.6526  138.8088  152.2253 H   0  0  0  0  0  0  0  0  0  0  0  0
  147.2199  140.4167  151.6297 H   0  0  0  0  0  0  0  0  0  0  0  0
  145.3128  140.0236  154.4579 H   0  0  0  0  0  0  0  0  0  0  0  0
  145.6241  140.3982  157.8468 H   0  0  0  0  0  0  0  0  0  0  0  0
  145.6974  142.8377  158.0684 H   0  0  0  0  0  0  0  0  0  0  0  0
  145.1743  143.0486  156.3831 H   0  0  0  0  0  0  0  0  0  0  0  0
  143.0547  143.2807  157.4096 H   0  0  0  0  0  0  0  0  0  0  0  0
  142.7943  141.4310  159.1583 H   0  0  0  0  0  0  0  0  0  0  0  0
  142.4713  140.4789  157.4624 H   0  0  0  0  0  0  0  0  0  0  0  0
  141.3494  142.0770  155.8698 H   0  0  0  0  0  0  0  0  0  0  0  0
  142.8482  142.2185  154.9667 H   0  0  0  0  0  0  0  0  0  0  0  0
  142.4627  140.4068  154.0457 H   0  0  0  0  0  0  0  0  0  0  0  0
  151.0302  143.8303  157.0687 H   0  0  0  0  0  0  0  0  0  0  0  0
  152.1680  145.1084  158.8309 H   0  0  0  0  0  0  0  0  0  0  0  0
  153.2850  143.9417  160.7195 H   0  0  0  0  0  0  0  0  0  0  0  0
  153.2596  141.4624  160.8394 H   0  0  0  0  0  0  0  0  0  0  0  0
  152.5797  139.4245  159.8648 H   0  0  0  0  0  0  0  0  0  0  0  0
  1  2  1  0  0  0  0
  1 30  1  0  0  0  0
  1 31  1  0  0  0  0
  1 32  1  0  0  0  0
  2 29  1  0  0  0  0
  2  3  2  0  0  0  0
  3  4  1  0  0  0  0
  3 33  1  0  0  0  0
  4  5  1  0  0  0  0
  4 23  2  0  0  0  0
  5  6  1  0  0  0  0
  5 34  1  0  0  0  0
  5 35  1  0  0  0  0
  6 21  1  0  0  0  0
  6  7  1  0  0  0  0
  7  8  2  0  0  0  0
  7  9  1  0  0  0  0
  9 10  1  0  0  0  0
  9 11  2  0  0  0  0
 10 36  1  0  0  0  0
 10 37  1  0  0  0  0
 10 38  1  0  0  0  0
 11 12  1  0  0  0  0
 11 39  1  0  0  0  0
 12 13  1  0  0  0  0
 12 21  1  0  0  0  0
 13 20  1  0  0  0  0
 13 14  1  0  0  0  0
 13 40  1  0  0  0  0
 14 15  1  0  0  0  0
 14 41  1  0  0  0  0
 14 42  1  0  0  0  0
 15 16  1  0  0  0  0
 15 17  1  0  0  0  0
 15 43  1  0  0  0  0
 16 44  1  0  0  0  0
 17 18  1  0  0  0  0
 17 20  1  0  0  0  0
 17 45  1  0  0  0  0
 18 19  1  0  0  0  0
 18 46  1  0  0  0  0
 18 47  1  0  0  0  0
 19 48  1  0  0  0  0
 21 22  2  0  0  0  0
 23 28  1  0  0  0  0
 23 24  1  0  0  0  0
 24 25  2  0  0  0  0
 24 49  1  0  0  0  0
 25 26  1  0  0  0  0
 25 50  1  0  0  0  0
 26 27  2  0  0  0  0
 26 51  1  0  0  0  0
 27 28  1  0  0  0  0
 27 52  1  0  0  0  0
 28 29  2  0  0  0  0
 29 53  1  0  0  0  0
M  CHG  1  29   1
M  END
> <s_m_source_file>
AV-unprocessed.smi

> <i_m_source_file_index>
113

> <i_lp_mmshare_version>
43012

> <i_f3d_flags>
0

> <s_epik_input>
W2NIXTFbY0hdW2NIXVtjSF1jKGMxMiluYyhbQ0gzXSlbY0hdYzJbQ0gyXW4zYyg9TyljKFtDSDNdKVtjSF1uKGMzPU8pW0NAQEhdNFtDSDJdW0NAQEhdKFtPSF0pW0NASF0oTzQpW0NIMl1bT0hd

> <s_epik_cmdline>
J2VwaWtfcHl0aG9uJywgJy1waCcsICc3LjAnLCAnLXRuJywgJzgnLCAnLW1hJywgJzIwMCcsICctbWV0YWxfYmluZGluZycsICctaW1hZScsICc8aW5maWxlLm1hZT4nLCAnLW9tYWUnLCAnPG91dGZpbGUubWFlPic=

> <r_lp_tautomer_probability>
1

> <r_epik_Ionization_Penalty>
0.705471

> <r_epik_Ionization_Penalty_Charging>
0.70547

> <r_epik_Ionization_Penalty_Neutral>
1.19947e-07

> <r_epik_State_Penalty>
0.728574

> <r_epik_Charging_Adjusted_Penalty>
1.43404

> <i_epik_Tot_Q>
1

> <i_epik_Tot_abs_Q>
1

> <r_epik_Metal_State_Penalty>
4.61665

> <b_epik_Metal_Only>
0

> <s_epik_Chemistry_Notes>
This compound contains an acetal/aminal-like group ( X-CH(R)-Y where X, Y are N, S, or O) that may be acid/base labile, releasing an aldehyde.

> <s_lp_Force_Field>
OPLS_2005

> <r_lp_Energy>
43.7755

> <b_lp_Chiralities_Consistent>
1

> <s_lp_Variant>
AV-unprocessed.smi:113-12

> <Gold.Version>
5.8.1

> <Gold.Id.Protein>
6NUR|6NUR_protein|mol2

> <Gold.PLP.Fitness>
48.5915

> <Gold.PLP.PLP>
-39.0382

> <Gold.PLP.part.hbond>
-3.9115

> <Gold.PLP.part.metal>
0.0000

> <Gold.PLP.part.buried>
-2.0050

> <Gold.PLP.part.nonpolar>
-39.3004

> <Gold.PLP.part.repulsive>
6.6689

> <Gold.PLP.ligand.clash>
0.0000

> <Gold.PLP.ligand.torsion>
0.2241

> <Gold.PLP.Chemscore.Hbond>
2.3331

> <Gold.PLP.Chemscore.CHOScore>
0.9923

> <Gold.PLP.Chemscore.Metal>
0.0000

> <Gold.Chemscore.Hbonds>
donor molecule, donor type, donor heavy atom, donor atom, acceptor molecule, acceptor atom, score
      L1  H    19    48       P1 10175  1.00
      P1  H  7989  7998       L1     8  0.29
      P1  H  8011  8017       L1     8  1.00
      L1  C    11    39       P1 10175  0.82

> <Gold.PLP.Chemscore.Internal.Correction>
0.0255

> <Gold.Rescore>
     Score         DG    S(hbond)    S(metal)    S(lipo)     H(rot)  DE(clash)    DE(int)     intcor
     13.56     -18.27       2.06        0.00     116.50       3.01       4.17       0.53       ----

> <Gold.Chemscore.Fitness>
13.5597

> <Gold.Chemscore.DG>
-18.2656

> <Gold.Chemscore.ZeroCoef>
-5.4800

> <Gold.Chemscore.Hbond>
2.0558

> <Gold.Chemscore.Metal>
0.0000

> <Gold.Chemscore.Lipo>
116.4960

> <Gold.Chemscore.Internal_Hbond>
0.0000

> <Gold.Chemscore.DEClash>
4.1737

> <Gold.Chemscore.DEInternal>
0.5322

> <Gold.Chemscore.Rot>
3.0120

> <Gold.Chemscore.Internal.Correction>
   9.000000E+99

> <Gold.Chemscore.Hbonds>
donor molecule, donor type, donor heavy atom, donor atom, acceptor molecule, acceptor atom, score
      L1  H    19    48       P1 10175  0.78
      P1  H  7989  7998       L1     8  0.27
      P1  H  8011  8017       L1     8  0.83

> <Gold.Chemscore.Hbond.Weighted>
-6.8663

> <Gold.Chemscore.Metal.Weighted>
-0.0000

> <Gold.Chemscore.Lipo.Weighted>
-13.6300

> <Gold.Chemscore.Internal_Hbond.Weighted>
0.0000

> <Gold.Chemscore.DEClash.Weighted>
4.1737

> <Gold.Chemscore.DEInternal.Weighted>
0.5322

> <Gold.Chemscore.Rot.Weighted>
7.7108

> <Gold.Chemscore.Internal.Correction.Weighted>
   9.000000E+99

> <Gold.Protein.RotatedTorsions>
[ 6907 6896 6895 6894 ] final  171.50 input  -60.11 | X-H torsion
[ 7974 7965 7964 7962 ] final   -9.11 input  175.53 | X-H torsion
[ 8008 7997 7996 7995 ] final -150.20 input   59.86 | X-H torsion
[ 10167 10162 10161 10158 ] final  137.42 input  -65.29 | X-H torsion
[ 10718 10713 10712 10709 ] final  -63.99 input   66.30 | X-H torsion
[ 10763 10752 10751 10750 ] final -147.26 input  -60.55 | X-H torsion
[ 11005 11000 10999 10996 ] final    3.80 input  -57.11 | X-H torsion

> <Gold.Protein.ActiveResidues>
 VAL166  LYS551  ARG553  GLY616  TRP617  ASP618  TYR619  PRO620  LYS621  CYS622 
 ASP623  PHE694  ASN695  SER759  ASP760  ASP761  ALA762  ILE779  LEU786  VAL792 
 PHE793  MET794  SER795  GLU796  ALA797  LYS798  CYS799  TRP800  GLU811  SER814 

> <Gold.Protein.RotatedAtoms>
  151.7992  133.3368  159.3521 H   0  0  0  0  0  0  0  0  0  0  0  0  # atno 6907 bound_to 6896
  150.7364  134.5770  159.5928 H   0  0  0  0  0  0  0  0  0  0  0  0  # atno 6908 bound_to 6896
  152.3155  134.7446  160.0377 H   0  0  0  0  0  0  0  0  0  0  0  0  # atno 6909 bound_to 6896
  146.2261  140.2568  142.8350 H   0  0  0  0  0  0  0  0  0  0  0  0  # atno 7974 bound_to 7965
  155.6198  140.0680  157.2681 H   0  0  0  0  0  0  0  0  0  0  0  0  # atno 8008 bound_to 7997
  154.4232  140.1786  156.1408 H   0  0  0  0  0  0  0  0  0  0  0  0  # atno 8009 bound_to 7997
  156.0018  140.3335  155.6856 H   0  0  0  0  0  0  0  0  0  0  0  0  # atno 8010 bound_to 7997
  139.5145  144.6410  151.5568 H   0  0  0  0  0  0  0  0  0  0  0  0  # atno 10167 bound_to 10162
  156.0756  130.4227  150.1356 H   0  0  0  0  0  0  0  0  0  0  0  0  # atno 10718 bound_to 10713
  154.8295  135.3365  154.6791 H   0  0  0  0  0  0  0  0  0  0  0  0  # atno 10763 bound_to 10752
  153.7412  135.6945  153.4971 H   0  0  0  0  0  0  0  0  0  0  0  0  # atno 10764 bound_to 10752
  153.2242  135.4438  155.0475 H   0  0  0  0  0  0  0  0  0  0  0  0  # atno 10765 bound_to 10752
  140.5890  133.9941  155.8080 H   0  0  0  0  0  0  0  0  0  0  0  0  # atno 11005 bound_to 11000
  144.9370  140.8037  143.5654 LP  0  0  0  0  0  0  0  0  0  0  0  0  # atno 17320 bound_to 7965
  145.2516  139.2029  143.4939 LP  0  0  0  0  0  0  0  0  0  0  0  0  # atno 17321 bound_to 7965
  140.6177  143.9317  150.6502 LP  0  0  0  0  0  0  0  0  0  0  0  0  # atno 17342 bound_to 10162
  140.2580  143.3544  152.1347 LP  0  0  0  0  0  0  0  0  0  0  0  0  # atno 17343 bound_to 10162
  156.9398  130.9741  151.3518 LP  0  0  0  0  0  0  0  0  0  0  0  0  # atno 17370 bound_to 10713
  157.5850  130.8403  149.8577 LP  0  0  0  0  0  0  0  0  0  0  0  0  # atno 17371 bound_to 10713
  141.0947  133.9862  157.3180 LP  0  0  0  0  0  0  0  0  0  0  0  0  # atno 17394 bound_to 11000
  139.9282  135.0201  156.8310 LP  0  0  0  0  0  0  0  0  0  0  0  0  # atno 17395 bound_to 11000

$$$$
