AV-unprocessed.smi:1320|AV-procd|sdf|5461|dock3
  -GOLD-   22720 5 33D 1   1.00000     0.00000
 Structure written by MMmdl.
 37 38  0  0  0  0  0  0  0  0  2 V2000
  146.1842  138.2719  154.6161 O   0  0  0  0  0  0  0  0  0  0  0  0
  147.0164  137.7238  153.8959 C   0  0  0  0  0  0  0  0  0  0  0  0
  146.6987  137.0490  152.7771 N   0  0  0  0  0  0  0  0  0  0  0  0
  145.3499  136.8754  152.2437 C   0  0  0  0  0  0  0  0  0  0  0  0
  145.3247  136.0978  150.9127 C   0  0  0  0  0  0  0  0  0  0  0  0
  145.6081  134.6130  151.0604 C   0  0  0  0  0  0  0  0  0  0  0  0
  144.6815  133.6315  150.6475 C   0  0  0  0  0  0  0  0  0  0  0  0
  144.9895  132.2685  150.8390 C   0  0  0  0  0  0  0  0  0  0  0  0
  146.2156  131.9156  151.4398 C   0  0  0  0  0  0  0  0  0  0  0  0
  147.1042  132.9363  151.8341 C   0  0  0  0  0  0  0  0  0  0  0  0
  146.7735  134.2305  151.6323 N   0  3  0  0  0  0  0  0  0  0  0  0
  148.3300  137.7514  154.1818 N   0  0  0  0  0  0  0  0  0  0  0  0
  148.9947  138.3958  155.3171 C   0  0  0  0  0  0  0  0  0  0  0  0
  149.0477  139.9231  155.1201 C   0  0  0  0  0  0  0  0  0  0  0  0
  150.4809  140.3424  155.4487 C   0  0  0  0  0  0  0  0  0  0  0  0
  151.3231  139.1313  155.0625 C   0  0  0  0  0  0  0  0  0  0  0  0
  150.4597  137.9329  155.4582 C   0  0  0  0  0  0  0  0  0  0  0  0
  147.4535  136.6409  152.2445 H   0  0  0  0  0  0  0  0  0  0  0  0
  144.7079  136.3840  152.9767 H   0  0  0  0  0  0  0  0  0  0  0  0
  144.9249  137.8672  152.0891 H   0  0  0  0  0  0  0  0  0  0  0  0
  144.3488  136.2193  150.4410 H   0  0  0  0  0  0  0  0  0  0  0  0
  146.0483  136.5309  150.2205 H   0  0  0  0  0  0  0  0  0  0  0  0
  143.7419  133.9183  150.1981 H   0  0  0  0  0  0  0  0  0  0  0  0
  144.2916  131.5035  150.5324 H   0  0  0  0  0  0  0  0  0  0  0  0
  146.4686  130.8773  151.5981 H   0  0  0  0  0  0  0  0  0  0  0  0
  148.0605  132.7586  152.3041 H   0  0  0  0  0  0  0  0  0  0  0  0
  148.9408  137.2828  153.5279 H   0  0  0  0  0  0  0  0  0  0  0  0
  148.4525  138.1797  156.2393 H   0  0  0  0  0  0  0  0  0  0  0  0
  148.8342  140.1851  154.0824 H   0  0  0  0  0  0  0  0  0  0  0  0
  148.3180  140.4451  155.7396 H   0  0  0  0  0  0  0  0  0  0  0  0
  150.7829  141.2498  154.9251 H   0  0  0  0  0  0  0  0  0  0  0  0
  150.5740  140.5283  156.5196 H   0  0  0  0  0  0  0  0  0  0  0  0
  151.4861  139.1269  153.9841 H   0  0  0  0  0  0  0  0  0  0  0  0
  152.2992  139.1248  155.5480 H   0  0  0  0  0  0  0  0  0  0  0  0
  150.6559  137.6776  156.5004 H   0  0  0  0  0  0  0  0  0  0  0  0
  150.6976  137.0494  154.8640 H   0  0  0  0  0  0  0  0  0  0  0  0
  147.4286  134.9528  151.9322 H   0  0  0  0  0  0  0  0  0  0  0  0
  1  2  2  0  0  0  0
  2  3  1  0  0  0  0
  2 12  1  0  0  0  0
  3  4  1  0  0  0  0
  3 18  1  0  0  0  0
  4  5  1  0  0  0  0
  4 19  1  0  0  0  0
  4 20  1  0  0  0  0
  5  6  1  0  0  0  0
  5 21  1  0  0  0  0
  5 22  1  0  0  0  0
  6 11  1  0  0  0  0
  6  7  2  0  0  0  0
  7  8  1  0  0  0  0
  7 23  1  0  0  0  0
  8  9  2  0  0  0  0
  8 24  1  0  0  0  0
  9 10  1  0  0  0  0
  9 25  1  0  0  0  0
 10 11  2  0  0  0  0
 10 26  1  0  0  0  0
 11 37  1  0  0  0  0
 12 13  1  0  0  0  0
 12 27  1  0  0  0  0
 13 17  1  0  0  0  0
 13 14  1  0  0  0  0
 13 28  1  0  0  0  0
 14 15  1  0  0  0  0
 14 29  1  0  0  0  0
 14 30  1  0  0  0  0
 15 16  1  0  0  0  0
 15 31  1  0  0  0  0
 15 32  1  0  0  0  0
 16 17  1  0  0  0  0
 16 33  1  0  0  0  0
 16 34  1  0  0  0  0
 17 35  1  0  0  0  0
 17 36  1  0  0  0  0
M  CHG  1  11   1
M  END
> <s_m_source_file>
AV-unprocessed.smi

> <i_m_source_file_index>
1320

> <i_lp_mmshare_version>
43012

> <i_f3d_flags>
0

> <s_epik_input>
W0NIMl0xW0NIMl1bQ0gyXVtDSDJdW0NIXTFbTkhdQyg9TylbTkhdW0NIMl1bQ0gyXWMyW2NIXVtjSF1bY0hdW2NIXW4y

> <s_epik_cmdline>
J2VwaWtfcHl0aG9uJywgJy1waCcsICc3LjAnLCAnLXRuJywgJzgnLCAnLW1hJywgJzIwMCcsICctbWV0YWxfYmluZGluZycsICctaW1hZScsICc8aW5maWxlLm1hZT4nLCAnLW9tYWUnLCAnPG91dGZpbGUubWFlPic=

> <r_epik_Ionization_Penalty>
1.56194

> <r_epik_Ionization_Penalty_Charging>
1.56188

> <r_epik_Ionization_Penalty_Neutral>
5.76468e-05

> <r_epik_State_Penalty>
1.65696

> <r_epik_Charging_Adjusted_Penalty>
3.21884

> <i_epik_Tot_Q>
1

> <i_epik_Tot_abs_Q>
1

> <r_epik_Metal_State_Penalty>
1.69837

> <b_epik_Metal_Only>
0

> <s_lp_Force_Field>
OPLS_2005

> <r_lp_Energy>
32.6171

> <b_lp_Chiralities_Consistent>
1

> <s_lp_Variant>
AV-unprocessed.smi:1320-2

> <Gold.Version>
5.8.1

> <Gold.Id.Protein>
6NUR|6NUR_protein|mol2

> <Gold.PLP.Fitness>
39.5207

> <Gold.PLP.PLP>
-28.2453

> <Gold.PLP.part.hbond>
-3.0000

> <Gold.PLP.part.metal>
0.0000

> <Gold.PLP.part.buried>
-1.2623

> <Gold.PLP.part.nonpolar>
-23.8817

> <Gold.PLP.part.repulsive>
0.1736

> <Gold.PLP.ligand.clash>
0.0000

> <Gold.PLP.ligand.torsion>
0.2125

> <Gold.PLP.Chemscore.Hbond>
3.8960

> <Gold.PLP.Chemscore.CHOScore>
0.0000

> <Gold.PLP.Chemscore.Metal>
0.0000

> <Gold.Chemscore.Hbonds>
donor molecule, donor type, donor heavy atom, donor atom, acceptor molecule, acceptor atom, score
      L1  H     3    18       P1  7948  1.00
      L1  H    11    37       P1  7948  2.00
      L1  H    12    27       P1  7948  0.88

> <Gold.PLP.Chemscore.Internal.Correction>
0.0125

> <Gold.Rescore>
     Score         DG    S(hbond)    S(metal)    S(lipo)     H(rot)  DE(clash)    DE(int)     intcor
     18.51     -19.05       2.71        0.00      73.45       1.59       0.35       0.19       ----

> <Gold.Chemscore.Fitness>
18.5131

> <Gold.Chemscore.DG>
-19.0502

> <Gold.Chemscore.ZeroCoef>
-5.4800

> <Gold.Chemscore.Hbond>
2.7112

> <Gold.Chemscore.Metal>
0.0000

> <Gold.Chemscore.Lipo>
73.4477

> <Gold.Chemscore.Internal_Hbond>
0.0000

> <Gold.Chemscore.DEClash>
0.3513

> <Gold.Chemscore.DEInternal>
0.1858

> <Gold.Chemscore.Rot>
1.5932

> <Gold.Chemscore.Internal.Correction>
   9.000000E+99

> <Gold.Chemscore.Hbonds>
donor molecule, donor type, donor heavy atom, donor atom, acceptor molecule, acceptor atom, score
      L1  H     3    18       P1  7948  0.97
      L1  H    11    37       P1  7948  0.87
      L1  H    12    27       P1  7948  0.86

> <Gold.Chemscore.Hbond.Weighted>
-9.0553

> <Gold.Chemscore.Metal.Weighted>
-0.0000

> <Gold.Chemscore.Lipo.Weighted>
-8.5934

> <Gold.Chemscore.Internal_Hbond.Weighted>
0.0000

> <Gold.Chemscore.DEClash.Weighted>
0.3513

> <Gold.Chemscore.DEInternal.Weighted>
0.1858

> <Gold.Chemscore.Rot.Weighted>
4.0785

> <Gold.Chemscore.Internal.Correction.Weighted>
   9.000000E+99

> <Gold.Protein.RotatedTorsions>
[ 6907 6896 6895 6894 ] final -116.60 input  -60.11 | X-H torsion
[ 7974 7965 7964 7962 ] final  133.75 input  175.53 | X-H torsion
[ 8008 7997 7996 7995 ] final  100.42 input   59.86 | X-H torsion
[ 10167 10162 10161 10158 ] final  -21.49 input  -65.29 | X-H torsion
[ 10718 10713 10712 10709 ] final -157.39 input   66.30 | X-H torsion
[ 10763 10752 10751 10750 ] final  110.73 input  -60.55 | X-H torsion
[ 11005 11000 10999 10996 ] final -153.56 input  -57.11 | X-H torsion

> <Gold.Protein.ActiveResidues>
 VAL166  LYS551  ARG553  GLY616  TRP617  ASP618  TYR619  PRO620  LYS621  CYS622 
 ASP623  PHE694  ASN695  SER759  ASP760  ASP761  ALA762  ILE779  LEU786  VAL792 
 PHE793  MET794  SER795  GLU796  ALA797  LYS798  CYS799  TRP800  GLU811  SER814 

> <Gold.Protein.RotatedAtoms>
  150.8069  133.8494  159.3201 H   0  0  0  0  0  0  0  0  0  0  0  0  # atno 6907 bound_to 6896
  151.6291  135.1023  160.0127 H   0  0  0  0  0  0  0  0  0  0  0  0  # atno 6908 bound_to 6896
  152.4159  133.6998  159.6474 H   0  0  0  0  0  0  0  0  0  0  0  0  # atno 6909 bound_to 6896
  144.9834  139.4481  143.5375 H   0  0  0  0  0  0  0  0  0  0  0  0  # atno 7974 bound_to 7965
  156.1201  140.3213  155.8196 H   0  0  0  0  0  0  0  0  0  0  0  0  # atno 8008 bound_to 7997
  155.4520  140.0533  157.3017 H   0  0  0  0  0  0  0  0  0  0  0  0  # atno 8009 bound_to 7997
  154.4821  140.2057  155.9753 H   0  0  0  0  0  0  0  0  0  0  0  0  # atno 8010 bound_to 7997
  140.7282  143.4623  151.0363 H   0  0  0  0  0  0  0  0  0  0  0  0  # atno 10167 bound_to 10162
  156.5397  130.8557  151.2744 H   0  0  0  0  0  0  0  0  0  0  0  0  # atno 10718 bound_to 10713
  153.4532  135.3739  155.2296 H   0  0  0  0  0  0  0  0  0  0  0  0  # atno 10763 bound_to 10752
  154.8756  135.3891  154.4013 H   0  0  0  0  0  0  0  0  0  0  0  0  # atno 10764 bound_to 10752
  153.4576  135.7086  153.6134 H   0  0  0  0  0  0  0  0  0  0  0  0  # atno 10765 bound_to 10752
  140.7068  134.3876  157.5203 H   0  0  0  0  0  0  0  0  0  0  0  0  # atno 11005 bound_to 11000
  146.3414  139.9121  142.8779 LP  0  0  0  0  0  0  0  0  0  0  0  0  # atno 17320 bound_to 7965
  145.2388  141.0001  143.3947 LP  0  0  0  0  0  0  0  0  0  0  0  0  # atno 17321 bound_to 7965
  139.8308  143.7693  152.3179 LP  0  0  0  0  0  0  0  0  0  0  0  0  # atno 17342 bound_to 10162
  139.7808  144.7445  151.0090 LP  0  0  0  0  0  0  0  0  0  0  0  0  # atno 17343 bound_to 10162
  157.7407  130.9856  150.2398 LP  0  0  0  0  0  0  0  0  0  0  0  0  # atno 17370 bound_to 10713
  156.2983  130.3755  149.7775 LP  0  0  0  0  0  0  0  0  0  0  0  0  # atno 17371 bound_to 10713
  139.8882  134.8863  156.2487 LP  0  0  0  0  0  0  0  0  0  0  0  0  # atno 17394 bound_to 11000
  141.0118  133.7091  156.1123 LP  0  0  0  0  0  0  0  0  0  0  0  0  # atno 17395 bound_to 11000

$$$$
