AV-unprocessed.smi:1775|AV-procd|sdf|7172|dock5
  -GOLD-   22720 8413D 1   1.00000     0.00000
 Structure written by MMmdl.
 37 39  0  0  0  0  0  0  0  0  2 V2000
  147.1604  131.8467  153.8415 O   0  0  0  0  0  0  0  0  0  0  0  0
  147.8033  132.8405  153.5036 C   0  0  0  0  0  0  0  0  0  0  0  0
  148.9684  133.2443  154.0413 N   0  0  0  0  0  0  0  0  0  0  0  0
  149.7396  132.6402  155.0482 C   0  0  0  0  0  0  0  0  0  0  0  0
  150.3908  131.4511  154.9187 C   0  0  0  0  0  0  0  0  0  0  0  0
  151.1905  130.8785  155.9943 C   0  0  0  0  0  0  0  0  0  0  0  0
  151.8470  129.5113  155.9202 C   0  0  0  0  0  0  0  0  0  0  0  0
  150.9637  128.5726  155.5798 F   0  0  0  0  0  0  0  0  0  0  0  0
  152.8355  129.5032  155.0258 F   0  0  0  0  0  0  0  0  0  0  0  0
  152.3584  129.1894  157.1074 F   0  0  0  0  0  0  0  0  0  0  0  0
  151.1919  131.6716  157.1255 C   0  0  0  0  0  0  0  0  0  0  0  0
  150.6013  132.8700  157.3252 N   0  5  0  0  0  0  0  0  0  0  0  0
  149.8585  133.3976  156.3114 C   0  0  0  0  0  0  0  0  0  0  0  0
  149.2904  134.4843  156.4268 O   0  0  0  0  0  0  0  0  0  0  0  0
  147.4073  133.6887  152.5421 N   0  0  0  0  0  0  0  0  0  0  0  0
  146.1860  133.6013  151.7440 C   0  0  0  0  0  0  0  0  0  0  0  0
  146.1061  132.3504  150.8817 C   0  0  0  0  0  0  0  0  0  0  0  0
  144.7873  131.8602  150.3326 C   0  0  0  0  0  0  0  0  0  0  0  0
  145.4980  131.0747  151.4120 C   0  0  0  0  0  0  0  0  0  0  0  0
  145.8970  134.8485  150.9218 C   0  0  0  0  0  0  0  0  0  0  0  0
  145.0948  135.9915  151.4951 C   0  0  0  0  0  0  0  0  0  0  0  0
  144.5119  135.1358  150.3923 C   0  0  0  0  0  0  0  0  0  0  0  0
  149.3334  134.1262  153.7127 H   0  0  0  0  0  0  0  0  0  0  0  0
  150.3519  130.8987  153.9942 H   0  0  0  0  0  0  0  0  0  0  0  0
  151.7492  131.2822  158.0041 H   0  0  0  0  0  0  0  0  0  0  0  0
  148.0083  134.4760  152.3467 H   0  0  0  0  0  0  0  0  0  0  0  0
  145.3874  133.5229  152.4831 H   0  0  0  0  0  0  0  0  0  0  0  0
  146.9598  132.2223  150.2187 H   0  0  0  0  0  0  0  0  0  0  0  0
  143.8837  132.3946  150.6183 H   0  0  0  0  0  0  0  0  0  0  0  0
  144.7860  131.4461  149.3264 H   0  0  0  0  0  0  0  0  0  0  0  0
  145.9710  130.1375  151.1258 H   0  0  0  0  0  0  0  0  0  0  0  0
  145.0707  131.0950  152.4126 H   0  0  0  0  0  0  0  0  0  0  0  0
  146.7120  135.1331  150.2587 H   0  0  0  0  0  0  0  0  0  0  0  0
  144.6842  135.8706  152.4954 H   0  0  0  0  0  0  0  0  0  0  0  0
  145.4089  137.0012  151.2386 H   0  0  0  0  0  0  0  0  0  0  0  0
  144.4361  135.5762  149.4003 H   0  0  0  0  0  0  0  0  0  0  0  0
  143.7093  134.4524  150.6620 H   0  0  0  0  0  0  0  0  0  0  0  0
  1  2  2  0  0  0  0
  2  3  1  0  0  0  0
  2 15  1  0  0  0  0
  3  4  1  0  0  0  0
  3 23  1  0  0  0  0
  4 13  1  0  0  0  0
  4  5  2  0  0  0  0
  5  6  1  0  0  0  0
  5 24  1  0  0  0  0
  6  7  1  0  0  0  0
  6 11  2  0  0  0  0
  7  8  1  0  0  0  0
  7  9  1  0  0  0  0
  7 10  1  0  0  0  0
 11 12  1  0  0  0  0
 11 25  1  0  0  0  0
 12 13  1  0  0  0  0
 13 14  2  0  0  0  0
 15 16  1  0  0  0  0
 15 26  1  0  0  0  0
 16 17  1  0  0  0  0
 16 20  1  0  0  0  0
 16 27  1  0  0  0  0
 17 19  1  0  0  0  0
 17 18  1  0  0  0  0
 17 28  1  0  0  0  0
 18 19  1  0  0  0  0
 18 29  1  0  0  0  0
 18 30  1  0  0  0  0
 19 31  1  0  0  0  0
 19 32  1  0  0  0  0
 20 22  1  0  0  0  0
 20 21  1  0  0  0  0
 20 33  1  0  0  0  0
 21 22  1  0  0  0  0
 21 34  1  0  0  0  0
 21 35  1  0  0  0  0
 22 36  1  0  0  0  0
 22 37  1  0  0  0  0
M  CHG  1  12  -1
M  END
> <s_m_source_file>
AV-unprocessed.smi

> <i_m_source_file_index>
1775

> <i_lp_mmshare_version>
43012

> <i_f3d_flags>
0

> <s_epik_input>
W0NIMl0xW0NIMl1bQ0hdMVtDSF0oW0NIXTJbQ0gyXVtDSDJdMilbTkhdQyg9TylbTkhdYzNbY0hdYyhDKEYpKEYpRilbY0hdW25IXWMzPU8=

> <s_epik_cmdline>
J2VwaWtfcHl0aG9uJywgJy1waCcsICc3LjAnLCAnLXRuJywgJzgnLCAnLW1hJywgJzIwMCcsICctbWV0YWxfYmluZGluZycsICctaW1hZScsICc8aW5maWxlLm1hZT4nLCAnLW9tYWUnLCAnPG91dGZpbGUubWFlPic=

> <r_lp_tautomer_probability>
1

> <r_epik_Ionization_Penalty>
3.19177

> <r_epik_Ionization_Penalty_Charging>
0.180322

> <r_epik_Ionization_Penalty_Neutral>
3.01145

> <r_epik_State_Penalty>
3.00772

> <r_epik_Charging_Adjusted_Penalty>
3.18804

> <i_epik_Tot_Q>
-1

> <i_epik_Tot_abs_Q>
1

> <r_epik_Metal_State_Penalty>
0.454354

> <b_epik_Metal_Only>
1

> <s_lp_Force_Field>
OPLS_2005

> <r_lp_Energy>
38.3623

> <b_lp_Chiralities_Consistent>
1

> <s_lp_Variant>
AV-unprocessed.smi:1775-2

> <Gold.Version>
5.8.1

> <Gold.Id.Protein>
6NUR|6NUR_protein|mol2

> <Gold.PLP.Fitness>
43.9741

> <Gold.PLP.PLP>
-36.8242

> <Gold.PLP.part.hbond>
-2.0000

> <Gold.PLP.part.metal>
0.0000

> <Gold.PLP.part.buried>
-6.4133

> <Gold.PLP.part.nonpolar>
-29.4182

> <Gold.PLP.part.repulsive>
0.0858

> <Gold.PLP.ligand.clash>
0.2665

> <Gold.PLP.ligand.torsion>
1.9071

> <Gold.PLP.Chemscore.Hbond>
3.0000

> <Gold.PLP.Chemscore.CHOScore>
0.0000

> <Gold.PLP.Chemscore.Metal>
0.0000

> <Gold.Chemscore.Hbonds>
donor molecule, donor type, donor heavy atom, donor atom, acceptor molecule, acceptor atom, score
      L1  H    15    26       P1  7948  1.00
      P1  H  6896  6907       L1    12  1.95

> <Gold.PLP.Chemscore.Internal.Correction>
2.2306

> <Gold.Rescore>
     Score         DG    S(hbond)    S(metal)    S(lipo)     H(rot)  DE(clash)    DE(int)     intcor
     13.89     -15.88       1.88        0.00      67.74       1.49       0.08       1.90       ----

> <Gold.Chemscore.Fitness>
13.8930

> <Gold.Chemscore.DG>
-15.8794

> <Gold.Chemscore.ZeroCoef>
-5.4800

> <Gold.Chemscore.Hbond>
1.8800

> <Gold.Chemscore.Metal>
0.0000

> <Gold.Chemscore.Lipo>
67.7369

> <Gold.Chemscore.Internal_Hbond>
0.0000

> <Gold.Chemscore.DEClash>
0.0816

> <Gold.Chemscore.DEInternal>
1.9048

> <Gold.Chemscore.Rot>
1.4864

> <Gold.Chemscore.Internal.Correction>
   9.000000E+99

> <Gold.Chemscore.Hbonds>
donor molecule, donor type, donor heavy atom, donor atom, acceptor molecule, acceptor atom, score
      L1  H    15    26       P1  7948  0.29
      P1  H  6896  6907       L1    12  0.45

> <Gold.Chemscore.Hbond.Weighted>
-6.2793

> <Gold.Chemscore.Metal.Weighted>
-0.0000

> <Gold.Chemscore.Lipo.Weighted>
-7.9252

> <Gold.Chemscore.Internal_Hbond.Weighted>
0.0000

> <Gold.Chemscore.DEClash.Weighted>
0.0816

> <Gold.Chemscore.DEInternal.Weighted>
1.9048

> <Gold.Chemscore.Rot.Weighted>
3.8052

> <Gold.Chemscore.Internal.Correction.Weighted>
   9.000000E+99

> <Gold.Protein.RotatedTorsions>
[ 6907 6896 6895 6894 ] final -151.42 input  -60.11 | X-H torsion
[ 7974 7965 7964 7962 ] final  -69.42 input  175.53 | X-H torsion
[ 8008 7997 7996 7995 ] final  -64.18 input   59.86 | X-H torsion
[ 10167 10162 10161 10158 ] final -101.87 input  -65.29 | X-H torsion
[ 10718 10713 10712 10709 ] final -109.16 input   66.30 | X-H torsion
[ 10763 10752 10751 10750 ] final  -61.39 input  -60.55 | X-H torsion
[ 11005 11000 10999 10996 ] final -167.17 input  -57.11 | X-H torsion

> <Gold.Protein.ActiveResidues>
 VAL166  LYS551  ARG553  GLY616  TRP617  ASP618  TYR619  PRO620  LYS621  CYS622 
 ASP623  PHE694  ASN695  SER759  ASP760  ASP761  ALA762  ILE779  LEU786  VAL792 
 PHE793  MET794  SER795  GLU796  ALA797  LYS798  CYS799  TRP800  GLU811  SER814 

> <Gold.Protein.RotatedAtoms>
  151.2128  133.4546  159.2598 H   0  0  0  0  0  0  0  0  0  0  0  0  # atno 6907 bound_to 6896
  151.0960  134.9944  159.8436 H   0  0  0  0  0  0  0  0  0  0  0  0  # atno 6908 bound_to 6896
  152.5439  134.2058  159.8783 H   0  0  0  0  0  0  0  0  0  0  0  0  # atno 6909 bound_to 6896
  145.7040  140.9105  143.0716 H   0  0  0  0  0  0  0  0  0  0  0  0  # atno 7974 bound_to 7965
  154.4597  140.0959  156.6858 H   0  0  0  0  0  0  0  0  0  0  0  0  # atno 8008 bound_to 7997
  155.5032  140.3474  155.4356 H   0  0  0  0  0  0  0  0  0  0  0  0  # atno 8009 bound_to 7997
  156.0846  140.1382  156.9658 H   0  0  0  0  0  0  0  0  0  0  0  0  # atno 8010 bound_to 7997
  140.2368  143.3567  152.0838 H   0  0  0  0  0  0  0  0  0  0  0  0  # atno 10167 bound_to 10162
  156.0522  130.5749  150.8061 H   0  0  0  0  0  0  0  0  0  0  0  0  # atno 10718 bound_to 10713
  154.2838  135.6267  153.5358 H   0  0  0  0  0  0  0  0  0  0  0  0  # atno 10763 bound_to 10752
  152.9862  135.5639  154.5465 H   0  0  0  0  0  0  0  0  0  0  0  0  # atno 10764 bound_to 10752
  154.5062  135.2874  155.1356 H   0  0  0  0  0  0  0  0  0  0  0  0  # atno 10765 bound_to 10752
  140.5563  134.5378  157.5133 H   0  0  0  0  0  0  0  0  0  0  0  0  # atno 11005 bound_to 11000
  144.6960  139.8986  143.7457 LP  0  0  0  0  0  0  0  0  0  0  0  0  # atno 17320 bound_to 7965
  146.0772  139.3760  143.0487 LP  0  0  0  0  0  0  0  0  0  0  0  0  # atno 17321 bound_to 7965
  139.5091  144.6861  151.5883 LP  0  0  0  0  0  0  0  0  0  0  0  0  # atno 17342 bound_to 10162
  140.6144  143.9376  150.6477 LP  0  0  0  0  0  0  0  0  0  0  0  0  # atno 17343 bound_to 10162
  157.5460  131.0942  150.9762 LP  0  0  0  0  0  0  0  0  0  0  0  0  # atno 17370 bound_to 10713
  157.0034  130.5608  149.5313 LP  0  0  0  0  0  0  0  0  0  0  0  0  # atno 17371 bound_to 10713
  139.9430  134.7752  156.0631 LP  0  0  0  0  0  0  0  0  0  0  0  0  # atno 17394 bound_to 11000
  141.1142  133.6633  156.3052 LP  0  0  0  0  0  0  0  0  0  0  0  0  # atno 17395 bound_to 11000

$$$$
