AV-unprocessed.smi:2039|AV-procd|sdf|8285|dock7
  -GOLD-   2272010553D 1   1.00000     0.00000
 Structure written by MMmdl.
 32 33  0  0  0  0  0  0  0  0  2 V2000
  144.9974  133.6150  162.7414 C   0  0  0  0  0  0  0  0  0  0  0  0
  145.6783  134.6667  161.9346 C   0  0  0  0  0  0  0  0  0  0  0  0
  145.1198  135.2253  160.8581 N   0  0  0  0  0  0  0  0  0  0  0  0
  145.9437  136.1789  160.2776 N   0  0  0  0  0  0  0  0  0  0  0  0
  147.1066  136.3347  160.9265 C   0  0  0  0  0  0  0  0  0  0  0  0
  148.0455  137.2071  160.5237 N   0  5  0  0  0  0  0  0  0  0  0  0
  148.8897  136.8763  159.5197 C   0  0  0  0  0  0  0  0  0  0  0  0
  149.2067  135.7340  159.1794 O   0  0  0  0  0  0  0  0  0  0  0  0
  149.3968  137.9342  158.8700 N   0  0  0  0  0  0  0  0  0  0  0  0
  150.3270  137.8894  157.7447 C   0  0  2  0  0  0  0  0  0  0  0  0
  151.2623  139.1151  157.7616 C   0  0  0  0  0  0  0  0  0  0  0  0
  152.2107  139.1180  156.5499 C   0  0  0  0  0  0  0  0  0  0  0  0
  151.4529  139.0133  155.2125 C   0  0  2  0  0  0  0  0  0  0  0  0
  150.7532  140.2146  154.9540 O   0  0  0  0  0  0  0  0  0  0  0  0
  150.4770  137.8216  155.2049 C   0  0  0  0  0  0  0  0  0  0  0  0
  149.5382  137.8279  156.4243 C   0  0  0  0  0  0  0  0  0  0  0  0
  147.2786  135.2738  162.3248 S   0  0  0  0  0  0  0  0  0  0  0  0
  144.2653  134.0727  163.4065 H   0  0  0  0  0  0  0  0  0  0  0  0
  145.7245  133.0688  163.3425 H   0  0  0  0  0  0  0  0  0  0  0  0
  144.4859  132.9086  162.0870 H   0  0  0  0  0  0  0  0  0  0  0  0
  149.1098  138.8492  159.1853 H   0  0  0  0  0  0  0  0  0  0  0  0
  150.9300  136.9822  157.8189 H   0  0  0  0  0  0  0  0  0  0  0  0
  150.6701  140.0314  157.7640 H   0  0  0  0  0  0  0  0  0  0  0  0
  151.8491  139.1280  158.6806 H   0  0  0  0  0  0  0  0  0  0  0  0
  152.8342  140.0127  156.5640 H   0  0  0  0  0  0  0  0  0  0  0  0
  152.8933  138.2718  156.6375 H   0  0  0  0  0  0  0  0  0  0  0  0
  152.1740  138.8873  154.4043 H   0  0  0  0  0  0  0  0  0  0  0  0
  149.8331  140.0151  154.8741 H   0  0  0  0  0  0  0  0  0  0  0  0
  149.8947  137.8153  154.2828 H   0  0  0  0  0  0  0  0  0  0  0  0
  151.0506  136.8939  155.2076 H   0  0  0  0  0  0  0  0  0  0  0  0
  148.9115  136.9355  156.4065 H   0  0  0  0  0  0  0  0  0  0  0  0
  148.8602  138.6801  156.3580 H   0  0  0  0  0  0  0  0  0  0  0  0
  1  2  1  0  0  0  0
  1 18  1  0  0  0  0
  1 19  1  0  0  0  0
  1 20  1  0  0  0  0
  2 17  1  0  0  0  0
  2  3  2  0  0  0  0
  3  4  1  0  0  0  0
  4  5  2  0  0  0  0
  5  6  1  0  0  0  0
  5 17  1  0  0  0  0
  6  7  1  0  0  0  0
  7  8  2  0  0  0  0
  7  9  1  0  0  0  0
  9 10  1  0  0  0  0
  9 21  1  0  0  0  0
 10 16  1  0  0  0  0
 10 11  1  0  0  0  0
 10 22  1  0  0  0  0
 11 12  1  0  0  0  0
 11 23  1  0  0  0  0
 11 24  1  0  0  0  0
 12 13  1  0  0  0  0
 12 25  1  0  0  0  0
 12 26  1  0  0  0  0
 13 14  1  0  0  0  0
 13 15  1  0  0  0  0
 13 27  1  0  0  0  0
 14 28  1  0  0  0  0
 15 16  1  0  0  0  0
 15 29  1  0  0  0  0
 15 30  1  0  0  0  0
 16 31  1  0  0  0  0
 16 32  1  0  0  0  0
M  CHG  1   6  -1
M  END
> <s_m_source_file>
AV-unprocessed.smi

> <i_m_source_file_index>
2039

> <i_lp_mmshare_version>
43012

> <i_f3d_flags>
0

> <s_epik_input>
W0NIM11jMW5uYyhzMSlbTkhdQyg9TylbTkhdW0NAQEhdMltDSDJdW0NIMl1bQ0BASF0oW09IXSlbQ0gyXVtDSDJdMg==

> <s_epik_cmdline>
J2VwaWtfcHl0aG9uJywgJy1waCcsICc3LjAnLCAnLXRuJywgJzgnLCAnLW1hJywgJzIwMCcsICctbWV0YWxfYmluZGluZycsICctaW1hZScsICc8aW5maWxlLm1hZT4nLCAnLW9tYWUnLCAnPG91dGZpbGUubWFlPic=

> <r_lp_tautomer_probability>
1

> <r_epik_Ionization_Penalty>
4.54927

> <r_epik_Ionization_Penalty_Charging>
4.39069

> <r_epik_Ionization_Penalty_Neutral>
0.158583

> <r_epik_State_Penalty>
4.39033

> <r_epik_Charging_Adjusted_Penalty>
8.78102

> <i_epik_Tot_Q>
-1

> <i_epik_Tot_abs_Q>
1

> <r_epik_Metal_State_Penalty>
0.767247

> <b_epik_Metal_Only>
1

> <s_lp_Force_Field>
OPLS_2005

> <r_lp_Energy>
8.24255

> <b_lp_Chiralities_Consistent>
1

> <s_lp_Variant>
AV-unprocessed.smi:2039-4

> <Gold.Version>
5.8.1

> <Gold.Id.Protein>
6NUR|6NUR_protein|mol2

> <Gold.PLP.Fitness>
38.3436

> <Gold.PLP.PLP>
-25.8251

> <Gold.PLP.part.hbond>
-4.0000

> <Gold.PLP.part.metal>
0.0000

> <Gold.PLP.part.buried>
-4.3122

> <Gold.PLP.part.nonpolar>
-18.3275

> <Gold.PLP.part.repulsive>
0.2139

> <Gold.PLP.ligand.clash>
0.0000

> <Gold.PLP.ligand.torsion>
1.2367

> <Gold.PLP.Chemscore.Hbond>
4.9951

> <Gold.PLP.Chemscore.CHOScore>
0.0000

> <Gold.PLP.Chemscore.Metal>
0.0000

> <Gold.Chemscore.Hbonds>
donor molecule, donor type, donor heavy atom, donor atom, acceptor molecule, acceptor atom, score
      P1  H  6896  6907       L1     8  1.00
      P1  H  6931  6943       L1     6  1.54
      P1  H  6934  6947       L1     6  1.44
      P1  H  7989  7998       L1    14  1.00

> <Gold.PLP.Chemscore.Internal.Correction>
0.0065

> <Gold.Rescore>
     Score         DG    S(hbond)    S(metal)    S(lipo)     H(rot)  DE(clash)    DE(int)     intcor
     15.19     -16.46       2.61        0.00      51.96       1.49       0.04       1.24       ----

> <Gold.Chemscore.Fitness>
15.1860

> <Gold.Chemscore.DG>
-16.4630

> <Gold.Chemscore.ZeroCoef>
-5.4800

> <Gold.Chemscore.Hbond>
2.6081

> <Gold.Chemscore.Metal>
0.0000

> <Gold.Chemscore.Lipo>
51.9594

> <Gold.Chemscore.Internal_Hbond>
0.0000

> <Gold.Chemscore.DEClash>
0.0402

> <Gold.Chemscore.DEInternal>
1.2368

> <Gold.Chemscore.Rot>
1.4873

> <Gold.Chemscore.Internal.Correction>
   9.000000E+99

> <Gold.Chemscore.Hbonds>
donor molecule, donor type, donor heavy atom, donor atom, acceptor molecule, acceptor atom, score
      P1  H  6896  6907       L1     8  0.96
      P1  H  6931  6943       L1     6  0.50
      P1  H  6934  6947       L1     6  0.30
      P1  H  7989  7998       L1    14  0.38

> <Gold.Chemscore.Hbond.Weighted>
-8.7112

> <Gold.Chemscore.Metal.Weighted>
-0.0000

> <Gold.Chemscore.Lipo.Weighted>
-6.0792

> <Gold.Chemscore.Internal_Hbond.Weighted>
0.0000

> <Gold.Chemscore.DEClash.Weighted>
0.0402

> <Gold.Chemscore.DEInternal.Weighted>
1.2368

> <Gold.Chemscore.Rot.Weighted>
3.8075

> <Gold.Chemscore.Internal.Correction.Weighted>
   9.000000E+99

> <Gold.Protein.RotatedTorsions>
[ 6907 6896 6895 6894 ] final  -80.23 input  -60.11 | X-H torsion
[ 7974 7965 7964 7962 ] final -147.96 input  175.53 | X-H torsion
[ 8008 7997 7996 7995 ] final  -93.07 input   59.86 | X-H torsion
[ 10167 10162 10161 10158 ] final  -10.63 input  -65.29 | X-H torsion
[ 10718 10713 10712 10709 ] final -136.52 input   66.30 | X-H torsion
[ 10763 10752 10751 10750 ] final   48.32 input  -60.55 | X-H torsion
[ 11005 11000 10999 10996 ] final  -38.16 input  -57.11 | X-H torsion

> <Gold.Protein.ActiveResidues>
 VAL166  LYS551  ARG553  GLY616  TRP617  ASP618  TYR619  PRO620  LYS621  CYS622 
 ASP623  PHE694  ASN695  SER759  ASP760  ASP761  ALA762  ILE779  LEU786  VAL792 
 PHE793  MET794  SER795  GLU796  ALA797  LYS798  CYS799  TRP800  GLU811  SER814 

> <Gold.Protein.RotatedAtoms>
  150.6933  134.4001  159.5114 H   0  0  0  0  0  0  0  0  0  0  0  0  # atno 6907 bound_to 6896
  152.1776  134.8779  160.0538 H   0  0  0  0  0  0  0  0  0  0  0  0  # atno 6908 bound_to 6896
  151.9782  133.3714  159.4134 H   0  0  0  0  0  0  0  0  0  0  0  0  # atno 6909 bound_to 6896
  144.8059  140.5258  143.5675 H   0  0  0  0  0  0  0  0  0  0  0  0  # atno 7974 bound_to 7965
  154.7310  140.0502  157.0726 H   0  0  0  0  0  0  0  0  0  0  0  0  # atno 8008 bound_to 7997
  155.0302  140.3157  155.4742 H   0  0  0  0  0  0  0  0  0  0  0  0  # atno 8009 bound_to 7997
  156.2841  140.2151  156.5423 H   0  0  0  0  0  0  0  0  0  0  0  0  # atno 8010 bound_to 7997
  140.7118  143.5727  150.9075 H   0  0  0  0  0  0  0  0  0  0  0  0  # atno 10167 bound_to 10162
  156.2779  130.7304  151.1292 H   0  0  0  0  0  0  0  0  0  0  0  0  # atno 10718 bound_to 10713
  152.9793  135.5948  154.3907 H   0  0  0  0  0  0  0  0  0  0  0  0  # atno 10763 bound_to 10752
  154.3562  135.2767  155.2347 H   0  0  0  0  0  0  0  0  0  0  0  0  # atno 10764 bound_to 10752
  154.4364  135.6024  153.6156 H   0  0  0  0  0  0  0  0  0  0  0  0  # atno 10765 bound_to 10752
  141.0007  133.6957  156.2017 H   0  0  0  0  0  0  0  0  0  0  0  0  # atno 11005 bound_to 11000
  145.5439  139.1475  143.3432 LP  0  0  0  0  0  0  0  0  0  0  0  0  # atno 17320 bound_to 7965
  146.2351  140.5578  142.8958 LP  0  0  0  0  0  0  0  0  0  0  0  0  # atno 17321 bound_to 7965
  139.9453  143.6334  152.3043 LP  0  0  0  0  0  0  0  0  0  0  0  0  # atno 17342 bound_to 10162
  139.6834  144.7653  151.1568 LP  0  0  0  0  0  0  0  0  0  0  0  0  # atno 17343 bound_to 10162
  157.7305  131.0615  150.5722 LP  0  0  0  0  0  0  0  0  0  0  0  0  # atno 17370 bound_to 10713
  156.5825  130.4308  149.5971 LP  0  0  0  0  0  0  0  0  0  0  0  0  # atno 17371 bound_to 10713
  140.6894  134.4682  157.5589 LP  0  0  0  0  0  0  0  0  0  0  0  0  # atno 17394 bound_to 11000
  139.9037  134.8497  156.1791 LP  0  0  0  0  0  0  0  0  0  0  0  0  # atno 17395 bound_to 11000

$$$$
