AV-unprocessed.smi:1553|AV-procd|sdf|6239|dock1
  -GOLD-   22720 6423D 1   1.00000     0.00000
 Structure written by MMmdl.
 37 38  0  0  0  0  0  0  0  0  1 V2000
  145.5289  142.1582  156.8427 C   0  0  0  0  0  0  0  0  0  0  0  0
  146.7175  141.9569  155.9666 C   0  0  0  0  0  0  0  0  0  0  0  0
  147.9065  141.5488  156.4172 N   0  0  0  0  0  0  0  0  0  0  0  0
  148.8587  141.4358  155.3994 C   0  0  0  0  0  0  0  0  0  0  0  0
  150.2528  140.9936  155.7258 C   0  0  0  0  0  0  0  0  0  0  0  0
  150.3789  140.4950  157.1748 C   0  0  0  0  0  0  0  0  0  0  0  0
  151.3903  141.2421  157.9133 N   0  0  0  0  0  0  0  0  0  0  0  0
  151.1372  142.1767  158.8454 C   0  0  0  0  0  0  0  0  0  0  0  0
  149.9923  142.5278  159.1302 O   0  0  0  0  0  0  0  0  0  0  0  0
  152.2570  142.7646  159.3360 N   0  0  0  0  0  0  0  0  0  0  0  0
  153.4755  141.9836  159.5990 C   0  0  0  0  0  0  0  0  0  0  0  0
  153.4808  141.5778  161.0860 C   0  0  0  0  0  0  0  0  0  0  0  0
  153.4194  142.7420  161.9068 O   0  0  0  0  0  0  0  0  0  0  0  0
  152.2793  143.5586  161.6471 C   0  0  0  0  0  0  0  0  0  0  0  0
  152.2859  143.9860  160.1656 C   0  0  2  0  0  0  0  0  0  0  0  0
  151.2033  145.0383  159.8458 C   0  0  0  0  0  0  0  0  0  0  0  0
  148.3697  141.7715  154.1616 C   0  0  0  0  0  0  0  0  0  0  0  0
  146.6925  142.2386  154.2302 S   0  0  0  0  0  0  0  0  0  0  0  0
  145.6959  141.7134  157.8243 H   0  0  0  0  0  0  0  0  0  0  0  0
  144.6511  141.6928  156.3942 H   0  0  0  0  0  0  0  0  0  0  0  0
  145.3359  143.2235  156.9691 H   0  0  0  0  0  0  0  0  0  0  0  0
  150.5578  140.2044  155.0371 H   0  0  0  0  0  0  0  0  0  0  0  0
  150.9503  141.8164  155.5630 H   0  0  0  0  0  0  0  0  0  0  0  0
  149.4267  140.6163  157.6919 H   0  0  0  0  0  0  0  0  0  0  0  0
  150.6097  139.4283  157.1963 H   0  0  0  0  0  0  0  0  0  0  0  0
  152.3556  141.0375  157.6996 H   0  0  0  0  0  0  0  0  0  0  0  0
  153.5589  141.0894  158.9803 H   0  0  0  0  0  0  0  0  0  0  0  0
  154.3564  142.5841  159.3679 H   0  0  0  0  0  0  0  0  0  0  0  0
  152.6401  140.9201  161.3127 H   0  0  0  0  0  0  0  0  0  0  0  0
  154.3905  141.0265  161.3238 H   0  0  0  0  0  0  0  0  0  0  0  0
  151.3647  143.0195  161.8994 H   0  0  0  0  0  0  0  0  0  0  0  0
  152.3257  144.4331  162.2965 H   0  0  0  0  0  0  0  0  0  0  0  0
  153.2367  144.4836  159.9670 H   0  0  0  0  0  0  0  0  0  0  0  0
  151.4268  145.9782  160.3511 H   0  0  0  0  0  0  0  0  0  0  0  0
  150.2121  144.7330  160.1799 H   0  0  0  0  0  0  0  0  0  0  0  0
  151.1560  145.2479  158.7767 H   0  0  0  0  0  0  0  0  0  0  0  0
  148.8928  141.7741  153.2169 H   0  0  0  0  0  0  0  0  0  0  0  0
  1  2  1  0  0  0  0
  1 19  1  0  0  0  0
  1 20  1  0  0  0  0
  1 21  1  0  0  0  0
  2 18  1  0  0  0  0
  2  3  2  0  0  0  0
  3  4  1  0  0  0  0
  4  5  1  0  0  0  0
  4 17  2  0  0  0  0
  5  6  1  0  0  0  0
  5 22  1  0  0  0  0
  5 23  1  0  0  0  0
  6  7  1  0  0  0  0
  6 24  1  0  0  0  0
  6 25  1  0  0  0  0
  7  8  1  0  0  0  0
  7 26  1  0  0  0  0
  8  9  2  0  0  0  0
  8 10  1  0  0  0  0
 10 15  1  0  0  0  0
 10 11  1  0  0  0  0
 11 12  1  0  0  0  0
 11 27  1  0  0  0  0
 11 28  1  0  0  0  0
 12 13  1  0  0  0  0
 12 29  1  0  0  0  0
 12 30  1  0  0  0  0
 13 14  1  0  0  0  0
 14 15  1  0  0  0  0
 14 31  1  0  0  0  0
 14 32  1  0  0  0  0
 15 16  1  0  0  0  0
 15 33  1  0  0  0  0
 16 34  1  0  0  0  0
 16 35  1  0  0  0  0
 16 36  1  0  0  0  0
 17 18  1  0  0  0  0
 17 37  1  0  0  0  0
M  END
> <s_m_source_file>
AV-unprocessed.smi

> <i_m_source_file_index>
1553

> <i_lp_mmshare_version>
43012

> <i_f3d_flags>
0

> <s_epik_input>
W0NIM11jMW5jKFtjSF1zMSlbQ0gyXVtDSDJdW05IXUMoPU8pTjJbQ0gyXVtDSDJdT1tDSDJdW0NASF0yW0NIM10=

> <s_epik_cmdline>
J2VwaWtfcHl0aG9uJywgJy1waCcsICc3LjAnLCAnLXRuJywgJzgnLCAnLW1hJywgJzIwMCcsICctbWV0YWxfYmluZGluZycsICctaW1hZScsICc8aW5maWxlLm1hZT4nLCAnLW9tYWUnLCAnPG91dGZpbGUubWFlPic=

> <r_epik_Ionization_Penalty>
0.0020768

> <r_epik_Ionization_Penalty_Charging>
0

> <r_epik_Ionization_Penalty_Neutral>
0.0020768

> <r_epik_State_Penalty>
0.00139904

> <r_epik_Charging_Adjusted_Penalty>
0.00139904

> <i_epik_Tot_Q>
0

> <i_epik_Tot_abs_Q>
0

> <r_epik_Metal_State_Penalty>
-0

> <b_epik_Metal_Only>
0

> <s_lp_Force_Field>
OPLS_2005

> <r_lp_Energy>
26.8806

> <b_lp_Chiralities_Consistent>
1

> <s_lp_Variant>
AV-unprocessed.smi:1553-2

> <Gold.Version>
5.8.1

> <Gold.Id.Protein>
6NUR|6NUR_protein|mol2

> <Gold.PLP.Fitness>
42.1735

> <Gold.PLP.PLP>
-40.3859

> <Gold.PLP.part.hbond>
-0.9737

> <Gold.PLP.part.metal>
0.0000

> <Gold.PLP.part.buried>
-3.3074

> <Gold.PLP.part.nonpolar>
-36.3760

> <Gold.PLP.part.repulsive>
0.3292

> <Gold.PLP.ligand.clash>
0.0000

> <Gold.PLP.ligand.torsion>
0.8318

> <Gold.PLP.Chemscore.Hbond>
0.0000

> <Gold.PLP.Chemscore.CHOScore>
1.0000

> <Gold.PLP.Chemscore.Metal>
0.0000

> <Gold.Chemscore.Hbonds>
donor molecule, donor type, donor heavy atom, donor atom, acceptor molecule, acceptor atom, score
      L1  C    17    37       P1  7957  0.41

> <Gold.PLP.Chemscore.Internal.Correction>
0.4512

> <Gold.Rescore>
     Score         DG    S(hbond)    S(metal)    S(lipo)     H(rot)  DE(clash)    DE(int)     intcor
     10.86     -12.98       0.00        0.00      93.29       1.33       0.08       2.04       ----

> <Gold.Chemscore.Fitness>
10.8603

> <Gold.Chemscore.DG>
-12.9836

> <Gold.Chemscore.ZeroCoef>
-5.4800

> <Gold.Chemscore.Hbond>
0.0000

> <Gold.Chemscore.Metal>
0.0000

> <Gold.Chemscore.Lipo>
93.2880

> <Gold.Chemscore.Internal_Hbond>
0.0000

> <Gold.Chemscore.DEClash>
0.0812

> <Gold.Chemscore.DEInternal>
2.0421

> <Gold.Chemscore.Rot>
1.3325

> <Gold.Chemscore.Internal.Correction>
   9.000000E+99

> <Gold.Chemscore.Hbond.Weighted>
-0.0000

> <Gold.Chemscore.Metal.Weighted>
-0.0000

> <Gold.Chemscore.Lipo.Weighted>
-10.9147

> <Gold.Chemscore.Internal_Hbond.Weighted>
0.0000

> <Gold.Chemscore.DEClash.Weighted>
0.0812

> <Gold.Chemscore.DEInternal.Weighted>
2.0421

> <Gold.Chemscore.Rot.Weighted>
3.4111

> <Gold.Chemscore.Internal.Correction.Weighted>
   9.000000E+99

> <Gold.Protein.RotatedTorsions>
[ 6907 6896 6895 6894 ] final  179.09 input  -60.11 | X-H torsion
[ 7974 7965 7964 7962 ] final  -24.09 input  175.53 | X-H torsion
[ 8008 7997 7996 7995 ] final -102.47 input   59.86 | X-H torsion
[ 10167 10162 10161 10158 ] final -153.04 input  -65.29 | X-H torsion
[ 10718 10713 10712 10709 ] final  157.48 input   66.30 | X-H torsion
[ 10763 10752 10751 10750 ] final   57.23 input  -60.55 | X-H torsion
[ 11005 11000 10999 10996 ] final -148.75 input  -57.11 | X-H torsion

> <Gold.Protein.ActiveResidues>
 VAL166  LYS551  ARG553  GLY616  TRP617  ASP618  TYR619  PRO620  LYS621  CYS622 
 ASP623  PHE694  ASN695  SER759  ASP760  ASP761  ALA762  ILE779  LEU786  VAL792 
 PHE793  MET794  SER795  GLU796  ALA797  LYS798  CYS799  TRP800  GLU811  SER814 

> <Gold.Protein.RotatedAtoms>
  151.6773  133.3312  159.3210 H   0  0  0  0  0  0  0  0  0  0  0  0  # atno 6907 bound_to 6896
  150.7839  134.6811  159.6454 H   0  0  0  0  0  0  0  0  0  0  0  0  # atno 6908 bound_to 6896
  152.3904  134.6454  160.0162 H   0  0  0  0  0  0  0  0  0  0  0  0  # atno 6909 bound_to 6896
  146.1576  140.4705  142.8585 H   0  0  0  0  0  0  0  0  0  0  0  0  # atno 7974 bound_to 7965
  154.8572  140.0428  157.1642 H   0  0  0  0  0  0  0  0  0  0  0  0  # atno 8008 bound_to 7997
  154.8879  140.2982  155.5367 H   0  0  0  0  0  0  0  0  0  0  0  0  # atno 8009 bound_to 7997
  156.2997  140.2399  156.3891 H   0  0  0  0  0  0  0  0  0  0  0  0  # atno 8010 bound_to 7997
  139.7130  143.9077  152.2475 H   0  0  0  0  0  0  0  0  0  0  0  0  # atno 10167 bound_to 10162
  157.1909  131.0654  151.2080 H   0  0  0  0  0  0  0  0  0  0  0  0  # atno 10718 bound_to 10713
  152.9846  135.5649  154.5356 H   0  0  0  0  0  0  0  0  0  0  0  0  # atno 10763 bound_to 10752
  154.4820  135.2789  155.1565 H   0  0  0  0  0  0  0  0  0  0  0  0  # atno 10764 bound_to 10752
  154.3070  135.6296  153.5502 H   0  0  0  0  0  0  0  0  0  0  0  0  # atno 10765 bound_to 10752
  140.7580  134.3331  157.5109 H   0  0  0  0  0  0  0  0  0  0  0  0  # atno 11005 bound_to 11000
  144.7984  140.6166  143.6495 LP  0  0  0  0  0  0  0  0  0  0  0  0  # atno 17320 bound_to 7965
  145.4669  139.1507  143.3835 LP  0  0  0  0  0  0  0  0  0  0  0  0  # atno 17321 bound_to 7965
  139.8952  144.6943  150.8726 LP  0  0  0  0  0  0  0  0  0  0  0  0  # atno 17342 bound_to 10162
  140.7737  143.3556  151.1929 LP  0  0  0  0  0  0  0  0  0  0  0  0  # atno 17343 bound_to 10162
  157.3862  130.7257  149.6665 LP  0  0  0  0  0  0  0  0  0  0  0  0  # atno 17370 bound_to 10713
  155.9712  130.4159  150.4204 LP  0  0  0  0  0  0  0  0  0  0  0  0  # atno 17371 bound_to 10713
  139.8776  134.9184  156.3201 LP  0  0  0  0  0  0  0  0  0  0  0  0  # atno 17394 bound_to 11000
  140.9690  133.7340  156.0507 LP  0  0  0  0  0  0  0  0  0  0  0  0  # atno 17395 bound_to 11000

$$$$
