AV-unprocessed.smi:790|AV-procd|sdf|3746|dock10
  -GOLD-   22720 1173D 1   1.00000     0.00000
 Structure written by MMmdl.
 38 40  0  0  0  0  0  0  0  0  1 V2000
  149.6483  140.7548  157.8445 O   0  0  0  0  0  0  0  0  0  0  0  0
  149.3769  141.8084  157.2695 C   0  0  0  0  0  0  0  0  0  0  0  0
  149.8098  143.0283  157.6299 N   0  0  0  0  0  0  0  0  0  0  0  0
  150.6583  143.3875  158.7119 C   0  0  0  0  0  0  0  0  0  0  0  0
  151.6862  142.5637  159.2320 C   0  0  0  0  0  0  0  0  0  0  0  0
  152.4700  143.0469  160.2977 C   0  0  0  0  0  0  0  0  0  0  0  0
  152.2025  144.3349  160.8003 C   0  0  0  0  0  0  0  0  0  0  0  0
  151.2346  145.1352  160.3066 N   0  0  0  0  0  0  0  0  0  0  0  0
  150.4882  144.6659  159.2843 C   0  0  0  0  0  0  0  0  0  0  0  0
  148.5728  141.8799  156.1995 N   0  0  0  0  0  0  0  0  0  0  0  0
  147.9268  140.7404  155.5473 C   0  0  2  0  0  0  0  0  0  0  0  0
  148.9024  140.0723  154.5548 C   0  0  1  0  0  0  0  0  0  0  0  0
  148.3631  138.6797  154.1803 C   0  0  0  0  0  0  0  0  0  0  0  0
  147.1565  139.0193  153.2846 C   0  0  0  0  0  0  0  0  0  0  0  0
  147.1648  140.5611  153.2662 C   0  0  2  0  0  0  0  0  0  0  0  0
  148.6595  140.8549  153.2699 C   0  0  0  0  0  0  0  0  0  0  0  0
  146.7050  141.0950  154.6454 C   0  0  2  0  0  0  0  0  0  0  0  0
  146.2846  142.5826  154.6156 C   0  0  0  0  0  0  0  0  0  0  0  0
  145.0086  142.7238  154.0280 O   0  0  0  0  0  0  0  0  0  0  0  0
  149.4404  143.8031  157.0984 H   0  0  0  0  0  0  0  0  0  0  0  0
  151.8995  141.5851  158.8321 H   0  0  0  0  0  0  0  0  0  0  0  0
  153.2621  142.4446  160.7175 H   0  0  0  0  0  0  0  0  0  0  0  0
  152.7849  144.7352  161.6167 H   0  0  0  0  0  0  0  0  0  0  0  0
  149.7256  145.3349  158.9127 H   0  0  0  0  0  0  0  0  0  0  0  0
  148.3977  142.7891  155.7972 H   0  0  0  0  0  0  0  0  0  0  0  0
  147.6351  140.0181  156.3122 H   0  0  0  0  0  0  0  0  0  0  0  0
  149.9389  140.0527  154.8944 H   0  0  0  0  0  0  0  0  0  0  0  0
  149.1077  138.1122  153.6205 H   0  0  0  0  0  0  0  0  0  0  0  0
  148.0823  138.0910  155.0545 H   0  0  0  0  0  0  0  0  0  0  0  0
  147.3033  138.6199  152.2805 H   0  0  0  0  0  0  0  0  0  0  0  0
  146.2216  138.6120  153.6708 H   0  0  0  0  0  0  0  0  0  0  0  0
  146.6190  140.9790  152.4199 H   0  0  0  0  0  0  0  0  0  0  0  0
  148.8972  141.9162  153.3547 H   0  0  0  0  0  0  0  0  0  0  0  0
  149.1836  140.4422  152.4058 H   0  0  0  0  0  0  0  0  0  0  0  0
  145.8412  140.5226  154.9873 H   0  0  0  0  0  0  0  0  0  0  0  0
  146.2253  142.9853  155.6268 H   0  0  0  0  0  0  0  0  0  0  0  0
  147.0006  143.1913  154.0634 H   0  0  0  0  0  0  0  0  0  0  0  0
  144.6841  141.8643  153.8065 H   0  0  0  0  0  0  0  0  0  0  0  0
  1  2  2  0  0  0  0
  2  3  1  0  0  0  0
  2 10  1  0  0  0  0
  3  4  1  0  0  0  0
  3 20  1  0  0  0  0
  4  9  1  0  0  0  0
  4  5  2  0  0  0  0
  5  6  1  0  0  0  0
  5 21  1  0  0  0  0
  6  7  2  0  0  0  0
  6 22  1  0  0  0  0
  7  8  1  0  0  0  0
  7 23  1  0  0  0  0
  8  9  2  0  0  0  0
  9 24  1  0  0  0  0
 10 11  1  0  0  0  0
 10 25  1  0  0  0  0
 11 17  1  0  0  0  0
 11 12  1  0  0  0  0
 11 26  1  0  0  0  0
 12 16  1  0  0  0  0
 12 13  1  0  0  0  0
 12 27  1  0  0  0  0
 13 14  1  0  0  0  0
 13 28  1  0  0  0  0
 13 29  1  0  0  0  0
 14 15  1  0  0  0  0
 14 30  1  0  0  0  0
 14 31  1  0  0  0  0
 15 16  1  0  0  0  0
 15 17  1  0  0  0  0
 15 32  1  0  0  0  0
 16 33  1  0  0  0  0
 16 34  1  0  0  0  0
 17 18  1  0  0  0  0
 17 35  1  0  0  0  0
 18 19  1  0  0  0  0
 18 36  1  0  0  0  0
 18 37  1  0  0  0  0
 19 38  1  0  0  0  0
M  END
> <s_m_source_file>
AV-unprocessed.smi

> <i_m_source_file_index>
790

> <i_lp_mmshare_version>
43012

> <i_f3d_flags>
0

> <s_epik_input>
W0NIMl0xW0NIMl1bQ0BASF0oW0NIMl0yKVtDQEBIXShbQ0gyXVtPSF0pW0NAQEhdKFtDQEhdMTIpW05IXUMoPU8pW05IXWMzW2NIXVtjSF1bY0hdbltjSF0z

> <s_epik_cmdline>
J2VwaWtfcHl0aG9uJywgJy1waCcsICc3LjAnLCAnLXRuJywgJzgnLCAnLW1hJywgJzIwMCcsICctbWV0YWxfYmluZGluZycsICctaW1hZScsICc8aW5maWxlLm1hZT4nLCAnLW9tYWUnLCAnPG91dGZpbGUubWFlPic=

> <r_epik_Ionization_Penalty>
0.00497582

> <r_epik_Ionization_Penalty_Charging>
0

> <r_epik_Ionization_Penalty_Neutral>
0.00497582

> <r_epik_State_Penalty>
0.00358602

> <r_epik_Charging_Adjusted_Penalty>
0.00358602

> <i_epik_Tot_Q>
0

> <i_epik_Tot_abs_Q>
0

> <r_epik_Metal_State_Penalty>
-0

> <b_epik_Metal_Only>
0

> <s_lp_Force_Field>
OPLS_2005

> <r_lp_Energy>
52.0711

> <b_lp_Chiralities_Consistent>
1

> <s_lp_Variant>
AV-unprocessed.smi:790-7

> <Gold.Version>
5.8.1

> <Gold.Id.Protein>
6NUR|6NUR_protein|mol2

> <Gold.PLP.Fitness>
40.0865

> <Gold.PLP.PLP>
-30.8357

> <Gold.PLP.part.hbond>
-4.0000

> <Gold.PLP.part.metal>
0.0000

> <Gold.PLP.part.buried>
1.1269

> <Gold.PLP.part.nonpolar>
-29.1484

> <Gold.PLP.part.repulsive>
0.2647

> <Gold.PLP.ligand.clash>
0.0000

> <Gold.PLP.ligand.torsion>
0.5966

> <Gold.PLP.Chemscore.Hbond>
2.4773

> <Gold.PLP.Chemscore.CHOScore>
1.0000

> <Gold.PLP.Chemscore.Metal>
0.0000

> <Gold.Chemscore.Hbonds>
donor molecule, donor type, donor heavy atom, donor atom, acceptor molecule, acceptor atom, score
      L1  H     3    20       P1  8028  1.00
      L1  H    10    25       P1  8028  0.99
      L1  H    19    38       P1 10175  0.37
      L1  C     9    24       P1  8029  1.00

> <Gold.PLP.Chemscore.Internal.Correction>
0.0121

> <Gold.Rescore>
     Score         DG    S(hbond)    S(metal)    S(lipo)     H(rot)  DE(clash)    DE(int)     intcor
     16.52     -18.60       1.89        0.00      97.09       1.78       1.35       0.73       ----

> <Gold.Chemscore.Fitness>
16.5173

> <Gold.Chemscore.DG>
-18.6031

> <Gold.Chemscore.ZeroCoef>
-5.4800

> <Gold.Chemscore.Hbond>
1.8911

> <Gold.Chemscore.Metal>
0.0000

> <Gold.Chemscore.Lipo>
97.0869

> <Gold.Chemscore.Internal_Hbond>
0.0000

> <Gold.Chemscore.DEClash>
1.3514

> <Gold.Chemscore.DEInternal>
0.7343

> <Gold.Chemscore.Rot>
1.7783

> <Gold.Chemscore.Internal.Correction>
   9.000000E+99

> <Gold.Chemscore.Hbonds>
donor molecule, donor type, donor heavy atom, donor atom, acceptor molecule, acceptor atom, score
      L1  H     3    20       P1  8028  0.70
      L1  H    10    25       P1  8028  0.90
      L1  H    19    38       P1 10175  0.02

> <Gold.Chemscore.Hbond.Weighted>
-6.3164

> <Gold.Chemscore.Metal.Weighted>
-0.0000

> <Gold.Chemscore.Lipo.Weighted>
-11.3592

> <Gold.Chemscore.Internal_Hbond.Weighted>
0.0000

> <Gold.Chemscore.DEClash.Weighted>
1.3514

> <Gold.Chemscore.DEInternal.Weighted>
0.7343

> <Gold.Chemscore.Rot.Weighted>
4.5525

> <Gold.Chemscore.Internal.Correction.Weighted>
   9.000000E+99

> <Gold.Protein.RotatedTorsions>
[ 6907 6896 6895 6894 ] final -178.26 input  -60.11 | X-H torsion
[ 7974 7965 7964 7962 ] final  145.24 input  175.53 | X-H torsion
[ 8008 7997 7996 7995 ] final -160.42 input   59.86 | X-H torsion
[ 10167 10162 10161 10158 ] final  -64.05 input  -65.29 | X-H torsion
[ 10718 10713 10712 10709 ] final  127.54 input   66.30 | X-H torsion
[ 10763 10752 10751 10750 ] final -154.65 input  -60.55 | X-H torsion
[ 11005 11000 10999 10996 ] final  -68.14 input  -57.11 | X-H torsion

> <Gold.Protein.ActiveResidues>
 VAL166  LYS551  ARG553  GLY616  TRP617  ASP618  TYR619  PRO620  LYS621  CYS622 
 ASP623  PHE694  ASN695  SER759  ASP760  ASP761  ALA762  ILE779  LEU786  VAL792 
 PHE793  MET794  SER795  GLU796  ALA797  LYS798  CYS799  TRP800  GLU811  SER814 

> <Gold.Protein.RotatedAtoms>
  151.6344  133.3330  159.3115 H   0  0  0  0  0  0  0  0  0  0  0  0  # atno 6907 bound_to 6896
  150.8040  134.7157  159.6638 H   0  0  0  0  0  0  0  0  0  0  0  0  # atno 6908 bound_to 6896
  152.4134  134.6088  160.0071 H   0  0  0  0  0  0  0  0  0  0  0  0  # atno 6909 bound_to 6896
  144.8769  139.5759  143.5861 H   0  0  0  0  0  0  0  0  0  0  0  0  # atno 7974 bound_to 7965
  155.7772  140.0860  157.2078 H   0  0  0  0  0  0  0  0  0  0  0  0  # atno 8008 bound_to 7997
  154.3992  140.1514  156.3067 H   0  0  0  0  0  0  0  0  0  0  0  0  # atno 8009 bound_to 7997
  155.8689  140.3426  155.5810 H   0  0  0  0  0  0  0  0  0  0  0  0  # atno 8010 bound_to 7997
  140.5828  143.2329  151.6306 H   0  0  0  0  0  0  0  0  0  0  0  0  # atno 10167 bound_to 10162
  157.5324  131.1098  150.8988 H   0  0  0  0  0  0  0  0  0  0  0  0  # atno 10718 bound_to 10713
  154.7843  135.3185  154.7920 H   0  0  0  0  0  0  0  0  0  0  0  0  # atno 10763 bound_to 10752
  153.8624  135.6852  153.4786 H   0  0  0  0  0  0  0  0  0  0  0  0  # atno 10764 bound_to 10752
  153.1490  135.4707  154.9547 H   0  0  0  0  0  0  0  0  0  0  0  0  # atno 10765 bound_to 10752
  141.1525  133.6734  156.6400 H   0  0  0  0  0  0  0  0  0  0  0  0  # atno 11005 bound_to 11000
  146.2968  139.7304  142.9120 LP  0  0  0  0  0  0  0  0  0  0  0  0  # atno 17320 bound_to 7965
  145.4026  141.0387  143.3062 LP  0  0  0  0  0  0  0  0  0  0  0  0  # atno 17321 bound_to 7965
  139.5180  144.3298  152.0836 LP  0  0  0  0  0  0  0  0  0  0  0  0  # atno 17342 bound_to 10162
  140.2451  144.4228  150.6244 LP  0  0  0  0  0  0  0  0  0  0  0  0  # atno 17343 bound_to 10162
  156.9566  130.5439  149.5284 LP  0  0  0  0  0  0  0  0  0  0  0  0  # atno 17370 bound_to 10713
  156.0432  130.5512  150.8821 LP  0  0  0  0  0  0  0  0  0  0  0  0  # atno 17371 bound_to 10713
  140.3401  134.7856  157.4391 LP  0  0  0  0  0  0  0  0  0  0  0  0  # atno 17394 bound_to 11000
  140.0945  134.5556  155.8411 LP  0  0  0  0  0  0  0  0  0  0  0  0  # atno 17395 bound_to 11000

$$$$
