AV-unprocessed.smi:2914|AV-procd|sdf|11186|dock10
  -GOLD-   2272016 73D 1   1.00000     0.00000
 Structure written by MMmdl.
 32 34  0  0  0  0  0  0  0  0  1 V2000
  151.5605  141.0459  157.0529 O   0  0  0  0  0  0  0  0  0  0  0  0
  150.9261  142.0220  156.6520 C   0  0  0  0  0  0  0  0  0  0  0  0
  149.9772  141.9968  155.6996 N   0  0  0  0  0  0  0  0  0  0  0  0
  149.5081  140.9341  154.9928 C   0  0  0  0  0  0  0  0  0  0  0  0
  150.0480  139.6837  154.8608 C   0  0  0  0  0  0  0  0  0  0  0  0
  149.1054  139.0284  154.0181 C   0  0  0  0  0  0  0  0  0  0  0  0
  148.0888  139.8071  153.6705 N   0  0  0  0  0  0  0  0  0  0  0  0
  148.3352  140.9925  154.2706 N   0  0  0  0  0  0  0  0  0  0  0  0
  147.4023  142.0931  154.1062 C   0  0  0  0  0  0  0  0  0  0  0  0
  146.0672  141.7970  154.7605 C   0  0  0  0  0  0  0  0  0  0  0  0
  144.9812  142.8463  154.8076 C   0  0  0  0  0  0  0  0  0  0  0  0
  145.6895  142.4357  156.0764 C   0  0  0  0  0  0  0  0  0  0  0  0
  151.1030  143.2646  157.1218 N   0  0  0  0  0  0  0  0  0  0  0  0
  152.0349  143.6424  158.1349 C   0  0  0  0  0  0  0  0  0  0  0  0
  151.4791  144.0914  159.4690 C   0  0  0  0  0  0  0  0  0  0  0  0
  152.0847  145.1014  158.5339 C   0  0  0  0  0  0  0  0  0  0  0  0
  149.5472  142.8827  155.4783 H   0  0  0  0  0  0  0  0  0  0  0  0
  150.9563  139.2846  155.2859 H   0  0  0  0  0  0  0  0  0  0  0  0
  149.1284  138.0133  153.6503 H   0  0  0  0  0  0  0  0  0  0  0  0
  147.8308  142.9945  154.5451 H   0  0  0  0  0  0  0  0  0  0  0  0
  147.2614  142.2899  153.0420 H   0  0  0  0  0  0  0  0  0  0  0  0
  145.7263  140.7740  154.6125 H   0  0  0  0  0  0  0  0  0  0  0  0
  145.2095  143.8291  154.3998 H   0  0  0  0  0  0  0  0  0  0  0  0
  143.9548  142.5121  154.6724 H   0  0  0  0  0  0  0  0  0  0  0  0
  145.1347  141.8280  156.7882 H   0  0  0  0  0  0  0  0  0  0  0  0
  146.3845  143.1489  156.5147 H   0  0  0  0  0  0  0  0  0  0  0  0
  150.5360  144.0034  156.7321 H   0  0  0  0  0  0  0  0  0  0  0  0
  152.9825  143.1061  158.1684 H   0  0  0  0  0  0  0  0  0  0  0  0
  150.3976  144.1059  159.5919 H   0  0  0  0  0  0  0  0  0  0  0  0
  152.0453  143.8311  160.3613 H   0  0  0  0  0  0  0  0  0  0  0  0
  153.0551  145.5151  158.8011 H   0  0  0  0  0  0  0  0  0  0  0  0
  151.4073  145.7907  158.0329 H   0  0  0  0  0  0  0  0  0  0  0  0
  1  2  2  0  0  0  0
  2  3  1  0  0  0  0
  2 13  1  0  0  0  0
  3  4  1  0  0  0  0
  3 17  1  0  0  0  0
  4  8  1  0  0  0  0
  4  5  2  0  0  0  0
  5  6  1  0  0  0  0
  5 18  1  0  0  0  0
  6  7  2  0  0  0  0
  6 19  1  0  0  0  0
  7  8  1  0  0  0  0
  8  9  1  0  0  0  0
  9 10  1  0  0  0  0
  9 20  1  0  0  0  0
  9 21  1  0  0  0  0
 10 12  1  0  0  0  0
 10 11  1  0  0  0  0
 10 22  1  0  0  0  0
 11 12  1  0  0  0  0
 11 23  1  0  0  0  0
 11 24  1  0  0  0  0
 12 25  1  0  0  0  0
 12 26  1  0  0  0  0
 13 14  1  0  0  0  0
 13 27  1  0  0  0  0
 14 16  1  0  0  0  0
 14 15  1  0  0  0  0
 14 28  1  0  0  0  0
 15 16  1  0  0  0  0
 15 29  1  0  0  0  0
 15 30  1  0  0  0  0
 16 31  1  0  0  0  0
 16 32  1  0  0  0  0
M  END
> <s_m_source_file>
AV-unprocessed.smi

> <i_m_source_file_index>
2914

> <i_lp_mmshare_version>
43012

> <i_f3d_flags>
0

> <s_epik_input>
W0NIMl0xW0NIMl1bQ0hdMVtOSF1DKD1PKVtOSF1jMltjSF1bY0hdbm4yW0NIMl1bQ0hdM1tDSDJdW0NIMl0z

> <s_epik_cmdline>
J2VwaWtfcHl0aG9uJywgJy1waCcsICc3LjAnLCAnLXRuJywgJzgnLCAnLW1hJywgJzIwMCcsICctbWV0YWxfYmluZGluZycsICctaW1hZScsICc8aW5maWxlLm1hZT4nLCAnLW9tYWUnLCAnPG91dGZpbGUubWFlPic=

> <r_lp_tautomer_probability>
1

> <r_epik_Ionization_Penalty>
4.83987e-05

> <r_epik_Ionization_Penalty_Charging>
0

> <r_epik_Ionization_Penalty_Neutral>
4.83987e-05

> <r_epik_State_Penalty>
-0

> <r_epik_Charging_Adjusted_Penalty>
0

> <i_epik_Tot_Q>
0

> <i_epik_Tot_abs_Q>
0

> <r_epik_Metal_State_Penalty>
-0

> <b_epik_Metal_Only>
0

> <s_lp_Force_Field>
OPLS_2005

> <r_lp_Energy>
29.2759

> <b_lp_Chiralities_Consistent>
1

> <s_lp_Variant>
AV-unprocessed.smi:2914-1

> <Gold.Version>
5.8.1

> <Gold.Id.Protein>
6NUR|6NUR_protein|mol2

> <Gold.PLP.Fitness>
44.3290

> <Gold.PLP.PLP>
-35.7188

> <Gold.PLP.part.hbond>
-2.0000

> <Gold.PLP.part.metal>
0.0000

> <Gold.PLP.part.buried>
-5.6192

> <Gold.PLP.part.nonpolar>
-29.7136

> <Gold.PLP.part.repulsive>
1.3585

> <Gold.PLP.ligand.clash>
0.0000

> <Gold.PLP.ligand.torsion>
0.4449

> <Gold.PLP.Chemscore.Hbond>
1.9913

> <Gold.PLP.Chemscore.CHOScore>
0.9782

> <Gold.PLP.Chemscore.Metal>
0.0000

> <Gold.Chemscore.Hbonds>
donor molecule, donor type, donor heavy atom, donor atom, acceptor molecule, acceptor atom, score
      L1  H     3    17       P1  8028  1.00
      L1  H    13    27       P1  8028  0.89
      L1  C     6    19       P1  7948  1.00

> <Gold.PLP.Chemscore.Internal.Correction>
0.5917

> <Gold.Rescore>
     Score         DG    S(hbond)    S(metal)    S(lipo)     H(rot)  DE(clash)    DE(int)     intcor
     14.59     -16.40       1.95        0.00      68.01       1.39       0.04       1.77       ----

> <Gold.Chemscore.Fitness>
14.5935

> <Gold.Chemscore.DG>
-16.3990

> <Gold.Chemscore.ZeroCoef>
-5.4800

> <Gold.Chemscore.Hbond>
1.9544

> <Gold.Chemscore.Metal>
0.0000

> <Gold.Chemscore.Lipo>
68.0071

> <Gold.Chemscore.Internal_Hbond>
0.0000

> <Gold.Chemscore.DEClash>
0.0370

> <Gold.Chemscore.DEInternal>
1.7685

> <Gold.Chemscore.Rot>
1.3929

> <Gold.Chemscore.Internal.Correction>
   9.000000E+99

> <Gold.Chemscore.Hbonds>
donor molecule, donor type, donor heavy atom, donor atom, acceptor molecule, acceptor atom, score
      L1  H     3    17       P1  8028  0.98
      L1  H    13    27       P1  8028  0.83

> <Gold.Chemscore.Hbond.Weighted>
-6.5279

> <Gold.Chemscore.Metal.Weighted>
-0.0000

> <Gold.Chemscore.Lipo.Weighted>
-7.9568

> <Gold.Chemscore.Internal_Hbond.Weighted>
0.0000

> <Gold.Chemscore.DEClash.Weighted>
0.0370

> <Gold.Chemscore.DEInternal.Weighted>
1.7685

> <Gold.Chemscore.Rot.Weighted>
3.5657

> <Gold.Chemscore.Internal.Correction.Weighted>
   9.000000E+99

> <Gold.Protein.RotatedTorsions>
[ 6907 6896 6895 6894 ] final   77.78 input  -60.11 | X-H torsion
[ 7974 7965 7964 7962 ] final   54.59 input  175.53 | X-H torsion
[ 8008 7997 7996 7995 ] final  -15.03 input   59.86 | X-H torsion
[ 10167 10162 10161 10158 ] final   85.20 input  -65.29 | X-H torsion
[ 10718 10713 10712 10709 ] final  -95.59 input   66.30 | X-H torsion
[ 10763 10752 10751 10750 ] final -149.67 input  -60.55 | X-H torsion
[ 11005 11000 10999 10996 ] final -117.19 input  -57.11 | X-H torsion

> <Gold.Protein.ActiveResidues>
 VAL166  LYS551  ARG553  GLY616  TRP617  ASP618  TYR619  PRO620  LYS621  CYS622 
 ASP623  PHE694  ASN695  SER759  ASP760  ASP761  ALA762  ILE779  LEU786  VAL792 
 PHE793  MET794  SER795  GLU796  ALA797  LYS798  CYS799  TRP800  GLU811  SER814 

> <Gold.Protein.RotatedAtoms>
  152.5132  134.3765  159.9335 H   0  0  0  0  0  0  0  0  0  0  0  0  # atno 6907 bound_to 6896
  151.3721  133.3845  159.2708 H   0  0  0  0  0  0  0  0  0  0  0  0  # atno 6908 bound_to 6896
  150.9570  134.8983  159.7765 H   0  0  0  0  0  0  0  0  0  0  0  0  # atno 6909 bound_to 6896
  145.9592  139.4044  143.0258 H   0  0  0  0  0  0  0  0  0  0  0  0  # atno 7974 bound_to 7965
  154.5163  140.2207  155.9060 H   0  0  0  0  0  0  0  0  0  0  0  0  # atno 8008 bound_to 7997
  156.1611  140.3142  155.8774 H   0  0  0  0  0  0  0  0  0  0  0  0  # atno 8009 bound_to 7997
  155.3750  140.0469  157.3035 H   0  0  0  0  0  0  0  0  0  0  0  0  # atno 8010 bound_to 7997
  139.9002  144.6334  150.8645 H   0  0  0  0  0  0  0  0  0  0  0  0  # atno 10167 bound_to 10162
  156.0046  130.5115  150.6099 H   0  0  0  0  0  0  0  0  0  0  0  0  # atno 10718 bound_to 10713
  154.8164  135.3303  154.7165 H   0  0  0  0  0  0  0  0  0  0  0  0  # atno 10763 bound_to 10752
  153.7805  135.6919  153.4894 H   0  0  0  0  0  0  0  0  0  0  0  0  # atno 10764 bound_to 10752
  153.1983  135.4525  155.0183 H   0  0  0  0  0  0  0  0  0  0  0  0  # atno 10765 bound_to 10752
  141.0371  133.9893  157.3053 H   0  0  0  0  0  0  0  0  0  0  0  0  # atno 11005 bound_to 11000
  145.8063  140.9747  143.0972 LP  0  0  0  0  0  0  0  0  0  0  0  0  # atno 17320 bound_to 7965
  144.6811  139.9864  143.7484 LP  0  0  0  0  0  0  0  0  0  0  0  0  # atno 17321 bound_to 7965
  140.7708  143.3442  151.2145 LP  0  0  0  0  0  0  0  0  0  0  0  0  # atno 17342 bound_to 10162
  139.7032  143.9499  152.2915 LP  0  0  0  0  0  0  0  0  0  0  0  0  # atno 17343 bound_to 10162
  157.3933  131.0799  151.1374 LP  0  0  0  0  0  0  0  0  0  0  0  0  # atno 17370 bound_to 10713
  157.2058  130.6415  149.5755 LP  0  0  0  0  0  0  0  0  0  0  0  0  # atno 17371 bound_to 10713
  139.9248  135.0201  156.8197 LP  0  0  0  0  0  0  0  0  0  0  0  0  # atno 17394 bound_to 11000
  140.6302  133.9913  155.7658 LP  0  0  0  0  0  0  0  0  0  0  0  0  # atno 17395 bound_to 11000

$$$$
