AV-unprocessed.smi:1720|AV-procd|sdf|6934|dock5
  -GOLD-   22720 8143D 1   1.00000     0.00000
 Structure written by MMmdl.
 32 33  0  0  0  0  0  0  0  0  1 V2000
  151.5703  140.6711  158.6121 C   0  0  0  0  0  0  0  0  0  0  0  0
  151.8720  141.9902  157.8843 C   0  0  1  0  0  0  0  0  0  0  0  0
  150.6853  142.3838  157.1275 N   0  0  0  0  0  0  0  0  0  0  0  0
  149.9756  141.5859  156.3164 C   0  0  0  0  0  0  0  0  0  0  0  0
  150.2441  140.4012  156.1158 O   0  0  0  0  0  0  0  0  0  0  0  0
  148.9479  142.2482  155.7609 N   0  0  0  0  0  0  0  0  0  0  0  0
  147.9899  141.7412  154.8467 C   0  0  0  0  0  0  0  0  0  0  0  0
  148.2760  140.8212  153.8017 C   0  0  0  0  0  0  0  0  0  0  0  0
  147.1869  140.5242  153.1071 N   0  0  0  0  0  0  0  0  0  0  0  0
  146.2085  141.2464  153.6986 N   0  0  0  0  0  0  0  0  0  0  0  0
  146.6509  142.0021  154.7618 C   0  0  0  0  0  0  0  0  0  0  0  0
  152.2722  143.1174  158.8590 C   0  0  1  0  0  0  0  0  0  0  0  0
  152.2802  144.5191  158.2477 C   0  0  0  0  0  0  0  0  0  0  0  0
  152.0801  145.4337  159.4454 C   0  0  0  0  0  0  0  0  0  0  0  0
  151.5565  144.5025  160.5420 C   0  0  0  0  0  0  0  0  0  0  0  0
  151.3102  143.2633  159.8928 O   0  0  0  0  0  0  0  0  0  0  0  0
  145.2543  141.2132  153.3690 H   0  0  0  0  0  0  0  0  0  0  0  0
  152.4472  140.2994  159.1422 H   0  0  0  0  0  0  0  0  0  0  0  0
  151.2661  139.8959  157.9080 H   0  0  0  0  0  0  0  0  0  0  0  0
  150.7680  140.7934  159.3405 H   0  0  0  0  0  0  0  0  0  0  0  0
  152.7005  141.8062  157.1980 H   0  0  0  0  0  0  0  0  0  0  0  0
  150.3874  143.3431  157.2242 H   0  0  0  0  0  0  0  0  0  0  0  0
  148.8428  143.2196  156.0139 H   0  0  0  0  0  0  0  0  0  0  0  0
  149.2180  140.3679  153.5299 H   0  0  0  0  0  0  0  0  0  0  0  0
  145.9902  142.6332  155.3376 H   0  0  0  0  0  0  0  0  0  0  0  0
  153.2436  142.9046  159.3101 H   0  0  0  0  0  0  0  0  0  0  0  0
  153.1981  144.7362  157.7004 H   0  0  0  0  0  0  0  0  0  0  0  0
  151.4424  144.6338  157.5584 H   0  0  0  0  0  0  0  0  0  0  0  0
  153.0182  145.8966  159.7534 H   0  0  0  0  0  0  0  0  0  0  0  0
  151.3716  146.2301  159.2157 H   0  0  0  0  0  0  0  0  0  0  0  0
  152.3115  144.3586  161.3162 H   0  0  0  0  0  0  0  0  0  0  0  0
  150.6511  144.8816  161.0163 H   0  0  0  0  0  0  0  0  0  0  0  0
  1  2  1  0  0  0  0
  1 18  1  0  0  0  0
  1 19  1  0  0  0  0
  1 20  1  0  0  0  0
  2  3  1  0  0  0  0
  2 12  1  0  0  0  0
  2 21  1  0  0  0  0
  3  4  1  0  0  0  0
  3 22  1  0  0  0  0
  4  5  2  0  0  0  0
  4  6  1  0  0  0  0
  6  7  1  0  0  0  0
  6 23  1  0  0  0  0
  7 11  2  0  0  0  0
  7  8  1  0  0  0  0
  8  9  2  0  0  0  0
  8 24  1  0  0  0  0
  9 10  1  0  0  0  0
 10 17  1  0  0  0  0
 10 11  1  0  0  0  0
 11 25  1  0  0  0  0
 12 16  1  0  0  0  0
 12 13  1  0  0  0  0
 12 26  1  0  0  0  0
 13 14  1  0  0  0  0
 13 27  1  0  0  0  0
 13 28  1  0  0  0  0
 14 15  1  0  0  0  0
 14 29  1  0  0  0  0
 14 30  1  0  0  0  0
 15 16  1  0  0  0  0
 15 31  1  0  0  0  0
 15 32  1  0  0  0  0
M  END
> <s_m_source_file>
AV-unprocessed.smi

> <i_m_source_file_index>
1720

> <i_lp_mmshare_version>
43012

> <i_f3d_flags>
0

> <s_epik_input>
TzFbQ0gyXVtDSDJdW0NIMl1bQ0BIXTFbQ0BIXShbQ0gzXSlbTkhdQyg9TylbTkhdYzJbY0hdbltuSF1bY0hdMg==

> <s_epik_cmdline>
J2VwaWtfcHl0aG9uJywgJy1waCcsICc3LjAnLCAnLXRuJywgJzgnLCAnLW1hJywgJzIwMCcsICctbWV0YWxfYmluZGluZycsICctaW1hZScsICc8aW5maWxlLm1hZT4nLCAnLW9tYWUnLCAnPG91dGZpbGUubWFlPic=

> <r_lp_tautomer_probability>
1

> <r_epik_Ionization_Penalty>
4.95841e-05

> <r_epik_Ionization_Penalty_Charging>
0

> <r_epik_Ionization_Penalty_Neutral>
4.95841e-05

> <r_epik_State_Penalty>
-0

> <r_epik_Charging_Adjusted_Penalty>
0

> <i_epik_Tot_Q>
0

> <i_epik_Tot_abs_Q>
0

> <r_epik_Metal_State_Penalty>
-0

> <b_epik_Metal_Only>
0

> <s_lp_Force_Field>
OPLS_2005

> <r_lp_Energy>
20.531

> <b_lp_Chiralities_Consistent>
1

> <s_lp_Variant>
AV-unprocessed.smi:1720-4

> <Gold.Version>
5.8.1

> <Gold.Id.Protein>
6NUR|6NUR_protein|mol2

> <Gold.PLP.Fitness>
41.0825

> <Gold.PLP.PLP>
-33.8791

> <Gold.PLP.part.hbond>
-2.0851

> <Gold.PLP.part.metal>
0.0000

> <Gold.PLP.part.buried>
-4.9108

> <Gold.PLP.part.nonpolar>
-27.2619

> <Gold.PLP.part.repulsive>
0.3912

> <Gold.PLP.ligand.clash>
0.0000

> <Gold.PLP.ligand.torsion>
0.5011

> <Gold.PLP.Chemscore.Hbond>
1.9920

> <Gold.PLP.Chemscore.CHOScore>
0.7355

> <Gold.PLP.Chemscore.Metal>
0.0000

> <Gold.Chemscore.Hbonds>
donor molecule, donor type, donor heavy atom, donor atom, acceptor molecule, acceptor atom, score
      L1  H     6    23       P1  8028  1.00
      L1  H    10    17       P1 10175  1.00
      L1  C     8    24       P1  7957  0.73

> <Gold.PLP.Chemscore.Internal.Correction>
0.0229

> <Gold.Rescore>
     Score         DG    S(hbond)    S(metal)    S(lipo)     H(rot)  DE(clash)    DE(int)     intcor
     16.40     -18.61       2.04        0.00      82.50       1.31       0.19       2.02       ----

> <Gold.Chemscore.Fitness>
16.3961

> <Gold.Chemscore.DG>
-18.6114

> <Gold.Chemscore.ZeroCoef>
-5.4800

> <Gold.Chemscore.Hbond>
2.0441

> <Gold.Chemscore.Metal>
0.0000

> <Gold.Chemscore.Lipo>
82.4983

> <Gold.Chemscore.Internal_Hbond>
0.0000

> <Gold.Chemscore.DEClash>
0.1934

> <Gold.Chemscore.DEInternal>
2.0218

> <Gold.Chemscore.Rot>
1.3079

> <Gold.Chemscore.Internal.Correction>
   9.000000E+99

> <Gold.Chemscore.Hbonds>
donor molecule, donor type, donor heavy atom, donor atom, acceptor molecule, acceptor atom, score
      L1  H     6    23       P1  8028  0.90
      L1  H    10    17       P1 10175  0.30

> <Gold.Chemscore.Hbond.Weighted>
-6.8274

> <Gold.Chemscore.Metal.Weighted>
-0.0000

> <Gold.Chemscore.Lipo.Weighted>
-9.6523

> <Gold.Chemscore.Internal_Hbond.Weighted>
0.0000

> <Gold.Chemscore.DEClash.Weighted>
0.1934

> <Gold.Chemscore.DEInternal.Weighted>
2.0218

> <Gold.Chemscore.Rot.Weighted>
3.3483

> <Gold.Chemscore.Internal.Correction.Weighted>
   9.000000E+99

> <Gold.Protein.RotatedTorsions>
[ 6907 6896 6895 6894 ] final   59.26 input  -60.11 | X-H torsion
[ 7974 7965 7964 7962 ] final  -53.90 input  175.53 | X-H torsion
[ 8008 7997 7996 7995 ] final -140.59 input   59.86 | X-H torsion
[ 10167 10162 10161 10158 ] final  148.64 input  -65.29 | X-H torsion
[ 10718 10713 10712 10709 ] final  150.62 input   66.30 | X-H torsion
[ 10763 10752 10751 10750 ] final  -65.08 input  -60.55 | X-H torsion
[ 11005 11000 10999 10996 ] final -106.88 input  -57.11 | X-H torsion

> <Gold.Protein.ActiveResidues>
 VAL166  LYS551  ARG553  GLY616  TRP617  ASP618  TYR619  PRO620  LYS621  CYS622 
 ASP623  PHE694  ASN695  SER759  ASP760  ASP761  ALA762  ILE779  LEU786  VAL792 
 PHE793  MET794  SER795  GLU796  ALA797  LYS798  CYS799  TRP800  GLU811  SER814 

> <Gold.Protein.RotatedAtoms>
  152.3898  134.6459  160.0111 H   0  0  0  0  0  0  0  0  0  0  0  0  # atno 6907 bound_to 6896
  151.6696  133.3309  159.3201 H   0  0  0  0  0  0  0  0  0  0  0  0  # atno 6908 bound_to 6896
  150.7817  134.6810  159.6489 H   0  0  0  0  0  0  0  0  0  0  0  0  # atno 6909 bound_to 6896
  145.8916  140.8066  142.9788 H   0  0  0  0  0  0  0  0  0  0  0  0  # atno 7974 bound_to 7965
  155.4638  140.0547  157.2988 H   0  0  0  0  0  0  0  0  0  0  0  0  # atno 8008 bound_to 7997
  154.4726  140.2047  155.9911 H   0  0  0  0  0  0  0  0  0  0  0  0  # atno 8009 bound_to 7997
  156.1081  140.3208  155.8039 H   0  0  0  0  0  0  0  0  0  0  0  0  # atno 8010 bound_to 7997
  139.4872  144.5664  151.7137 H   0  0  0  0  0  0  0  0  0  0  0  0  # atno 10167 bound_to 10162
  157.2811  131.0835  151.1531 H   0  0  0  0  0  0  0  0  0  0  0  0  # atno 10718 bound_to 10713
  154.3396  135.6159  153.5590 H   0  0  0  0  0  0  0  0  0  0  0  0  # atno 10763 bound_to 10752
  152.9805  135.5766  154.4868 H   0  0  0  0  0  0  0  0  0  0  0  0  # atno 10764 bound_to 10752
  154.4569  135.2854  155.1718 H   0  0  0  0  0  0  0  0  0  0  0  0  # atno 10765 bound_to 10752
  141.0982  133.8932  157.1909 H   0  0  0  0  0  0  0  0  0  0  0  0  # atno 11005 bound_to 11000
  144.6731  140.1538  143.7428 LP  0  0  0  0  0  0  0  0  0  0  0  0  # atno 17320 bound_to 7965
  145.8901  139.2371  143.1554 LP  0  0  0  0  0  0  0  0  0  0  0  0  # atno 17321 bound_to 7965
  140.5243  144.0831  150.6032 LP  0  0  0  0  0  0  0  0  0  0  0  0  # atno 17342 bound_to 10162
  140.3799  143.2808  152.0182 LP  0  0  0  0  0  0  0  0  0  0  0  0  # atno 17343 bound_to 10162
  157.2965  130.6821  149.6141 LP  0  0  0  0  0  0  0  0  0  0  0  0  # atno 17370 bound_to 10713
  155.9664  130.4405  150.5302 LP  0  0  0  0  0  0  0  0  0  0  0  0  # atno 17371 bound_to 10713
  139.9825  135.0093  156.9784 LP  0  0  0  0  0  0  0  0  0  0  0  0  # atno 17394 bound_to 11000
  140.5087  134.1023  155.7265 LP  0  0  0  0  0  0  0  0  0  0  0  0  # atno 17395 bound_to 11000

$$$$
