AV-unprocessed.smi:3249|AV-procd|sdf|12423|dock6
  -GOLD-   2272018313D 1   1.00000     0.00000
 Structure written by MMmdl.
 44 45  0  0  0  0  0  0  0  0  2 V2000
  154.3651  141.0715  162.3057 C   0  0  0  0  0  0  0  0  0  0  0  0
  153.4788  142.0936  161.6545 C   0  0  0  0  0  0  0  0  0  0  0  0
  152.8088  143.1892  162.2685 C   0  0  0  0  0  0  0  0  0  0  0  0
  152.1114  143.9120  161.4075 N   0  0  0  0  0  0  0  0  0  0  0  0
  152.2937  143.2975  160.2188 N   0  0  0  0  0  0  0  0  0  0  0  0
  151.6830  143.8559  159.0171 C   0  0  2  0  0  0  0  0  0  0  0  0
  151.0155  145.2035  159.3503 C   0  0  0  0  0  0  0  0  0  0  0  0
  150.7187  142.8298  158.3666 C   0  0  1  0  0  0  0  0  0  0  0  0
  149.2373  143.1498  158.6417 C   0  0  0  0  0  0  0  0  0  0  0  0
  150.9581  142.7752  156.9050 N   0  3  0  0  0  0  0  0  0  0  0  0
  150.6599  141.4798  156.2597 C   0  0  0  0  0  0  0  0  0  0  0  0
  149.3505  141.5568  155.4631 C   0  0  1  0  0  0  0  0  0  0  0  0
  149.1718  140.3429  154.5307 C   0  0  0  0  0  0  0  0  0  0  0  0
  147.8164  140.4063  153.8175 C   0  0  0  0  0  0  0  0  0  0  0  0
  146.6967  140.5746  154.8497 C   0  0  0  0  0  0  0  0  0  0  0  0
  146.9970  141.7643  155.7751 C   0  0  0  0  0  0  0  0  0  0  0  0
  148.2692  141.5904  156.3925 O   0  0  0  0  0  0  0  0  0  0  0  0
  153.1244  142.2011  160.3397 C   0  0  0  0  0  0  0  0  0  0  0  0
  154.3338  141.1415  163.3932 H   0  0  0  0  0  0  0  0  0  0  0  0
  155.4061  141.1934  162.0060 H   0  0  0  0  0  0  0  0  0  0  0  0
  154.0700  140.0560  162.0415 H   0  0  0  0  0  0  0  0  0  0  0  0
  152.8144  143.4832  163.3079 H   0  0  0  0  0  0  0  0  0  0  0  0
  152.4862  144.0644  158.3073 H   0  0  0  0  0  0  0  0  0  0  0  0
  150.7058  145.7333  158.4500 H   0  0  0  0  0  0  0  0  0  0  0  0
  151.7065  145.8597  159.8806 H   0  0  0  0  0  0  0  0  0  0  0  0
  150.1348  145.0710  159.9794 H   0  0  0  0  0  0  0  0  0  0  0  0
  150.9445  141.8477  158.7860 H   0  0  0  0  0  0  0  0  0  0  0  0
  149.0072  143.1080  159.7057 H   0  0  0  0  0  0  0  0  0  0  0  0
  148.5742  142.4356  158.1540 H   0  0  0  0  0  0  0  0  0  0  0  0
  148.9735  144.1449  158.2821 H   0  0  0  0  0  0  0  0  0  0  0  0
  150.4252  143.5057  156.4545 H   0  0  0  0  0  0  0  0  0  0  0  0
  151.4805  141.2294  155.5860 H   0  0  0  0  0  0  0  0  0  0  0  0
  150.6022  140.6869  157.0057 H   0  0  0  0  0  0  0  0  0  0  0  0
  149.3487  142.4727  154.8688 H   0  0  0  0  0  0  0  0  0  0  0  0
  149.9768  140.3065  153.7959 H   0  0  0  0  0  0  0  0  0  0  0  0
  149.2361  139.4208  155.1102 H   0  0  0  0  0  0  0  0  0  0  0  0
  147.8053  141.2469  153.1225 H   0  0  0  0  0  0  0  0  0  0  0  0
  147.6551  139.5061  153.2239 H   0  0  0  0  0  0  0  0  0  0  0  0
  145.7387  140.7170  154.3488 H   0  0  0  0  0  0  0  0  0  0  0  0
  146.6068  139.6650  155.4448 H   0  0  0  0  0  0  0  0  0  0  0  0
  146.9746  142.7042  155.2214 H   0  0  0  0  0  0  0  0  0  0  0  0
  146.2358  141.8350  156.5521 H   0  0  0  0  0  0  0  0  0  0  0  0
  153.3962  141.5949  159.4880 H   0  0  0  0  0  0  0  0  0  0  0  0
  151.9398  142.9626  156.7552 H   0  0  0  0  0  0  0  0  0  0  0  0
  1  2  1  0  0  0  0
  1 19  1  0  0  0  0
  1 20  1  0  0  0  0
  1 21  1  0  0  0  0
  2 18  2  0  0  0  0
  2  3  1  0  0  0  0
  3  4  2  0  0  0  0
  3 22  1  0  0  0  0
  4  5  1  0  0  0  0
  5  6  1  0  0  0  0
  5 18  1  0  0  0  0
  6  7  1  0  0  0  0
  6  8  1  0  0  0  0
  6 23  1  0  0  0  0
  7 24  1  0  0  0  0
  7 25  1  0  0  0  0
  7 26  1  0  0  0  0
  8  9  1  0  0  0  0
  8 10  1  0  0  0  0
  8 27  1  0  0  0  0
  9 28  1  0  0  0  0
  9 29  1  0  0  0  0
  9 30  1  0  0  0  0
 10 11  1  0  0  0  0
 10 31  1  0  0  0  0
 10 44  1  0  0  0  0
 11 12  1  0  0  0  0
 11 32  1  0  0  0  0
 11 33  1  0  0  0  0
 12 17  1  0  0  0  0
 12 13  1  0  0  0  0
 12 34  1  0  0  0  0
 13 14  1  0  0  0  0
 13 35  1  0  0  0  0
 13 36  1  0  0  0  0
 14 15  1  0  0  0  0
 14 37  1  0  0  0  0
 14 38  1  0  0  0  0
 15 16  1  0  0  0  0
 15 39  1  0  0  0  0
 15 40  1  0  0  0  0
 16 17  1  0  0  0  0
 16 41  1  0  0  0  0
 16 42  1  0  0  0  0
 18 43  1  0  0  0  0
M  CHG  1  10   1
M  END
> <s_m_source_file>
AV-unprocessed.smi

> <i_m_source_file_index>
3249

> <i_lp_mmshare_version>
43012

> <i_f3d_flags>
0

> <s_epik_input>
W0NIM11jMVtjSF1ubihbY0hdMSlbQ0BIXShbQ0gzXSlbQ0BIXShbQ0gzXSlbTkhdW0NIMl1bQ0BASF0yW0NIMl1bQ0gyXVtDSDJdW0NIMl1PMg==

> <s_epik_cmdline>
J2VwaWtfcHl0aG9uJywgJy1waCcsICc3LjAnLCAnLXRuJywgJzgnLCAnLW1hJywgJzIwMCcsICctbWV0YWxfYmluZGluZycsICctaW1hZScsICc8aW5maWxlLm1hZT4nLCAnLW9tYWUnLCAnPG91dGZpbGUubWFlPic=

> <r_lp_tautomer_probability>
1

> <r_epik_Ionization_Penalty>
0.00659207

> <r_epik_Ionization_Penalty_Charging>
0.00656881

> <r_epik_Ionization_Penalty_Neutral>
2.32662e-05

> <r_epik_State_Penalty>
0.0048654

> <r_epik_Charging_Adjusted_Penalty>
0.0114342

> <i_epik_Tot_Q>
1

> <i_epik_Tot_abs_Q>
1

> <r_epik_Metal_State_Penalty>
-0

> <b_epik_Metal_Only>
0

> <s_lp_Force_Field>
OPLS_2005

> <r_lp_Energy>
17.4327

> <b_lp_Chiralities_Consistent>
1

> <s_lp_Variant>
AV-unprocessed.smi:3249-7

> <Gold.Version>
5.8.1

> <Gold.Id.Protein>
6NUR|6NUR_protein|mol2

> <Gold.PLP.Fitness>
45.5010

> <Gold.PLP.PLP>
-43.3593

> <Gold.PLP.part.hbond>
-1.0000

> <Gold.PLP.part.metal>
0.0000

> <Gold.PLP.part.buried>
-3.6854

> <Gold.PLP.part.nonpolar>
-40.3578

> <Gold.PLP.part.repulsive>
0.5323

> <Gold.PLP.ligand.clash>
0.0000

> <Gold.PLP.ligand.torsion>
1.9837

> <Gold.PLP.Chemscore.Hbond>
2.0000

> <Gold.PLP.Chemscore.CHOScore>
0.0000

> <Gold.PLP.Chemscore.Metal>
0.0000

> <Gold.Chemscore.Hbonds>
donor molecule, donor type, donor heavy atom, donor atom, acceptor molecule, acceptor atom, score
      L1  H    10    31       P1  8028  1.62

> <Gold.PLP.Chemscore.Internal.Correction>
0.1091

> <Gold.Rescore>
     Score         DG    S(hbond)    S(metal)    S(lipo)     H(rot)  DE(clash)    DE(int)     intcor
     15.14     -18.25       1.00        0.00     114.17       1.53       0.04       3.07       ----

> <Gold.Chemscore.Fitness>
15.1409

> <Gold.Chemscore.DG>
-18.2463

> <Gold.Chemscore.ZeroCoef>
-5.4800

> <Gold.Chemscore.Hbond>
0.9983

> <Gold.Chemscore.Metal>
0.0000

> <Gold.Chemscore.Lipo>
114.1655

> <Gold.Chemscore.Internal_Hbond>
0.0000

> <Gold.Chemscore.DEClash>
0.0360

> <Gold.Chemscore.DEInternal>
3.0694

> <Gold.Chemscore.Rot>
1.5333

> <Gold.Chemscore.Internal.Correction>
   9.000000E+99

> <Gold.Chemscore.Hbonds>
donor molecule, donor type, donor heavy atom, donor atom, acceptor molecule, acceptor atom, score
      L1  H    10    31       P1  8028  0.80

> <Gold.Chemscore.Hbond.Weighted>
-3.3342

> <Gold.Chemscore.Metal.Weighted>
-0.0000

> <Gold.Chemscore.Lipo.Weighted>
-13.3574

> <Gold.Chemscore.Internal_Hbond.Weighted>
0.0000

> <Gold.Chemscore.DEClash.Weighted>
0.0360

> <Gold.Chemscore.DEInternal.Weighted>
3.0694

> <Gold.Chemscore.Rot.Weighted>
3.9252

> <Gold.Chemscore.Internal.Correction.Weighted>
   9.000000E+99

> <Gold.Protein.RotatedTorsions>
[ 6907 6896 6895 6894 ] final -110.46 input  -60.11 | X-H torsion
[ 7974 7965 7964 7962 ] final  138.89 input  175.53 | X-H torsion
[ 8008 7997 7996 7995 ] final  -94.52 input   59.86 | X-H torsion
[ 10167 10162 10161 10158 ] final   41.09 input  -65.29 | X-H torsion
[ 10718 10713 10712 10709 ] final -132.36 input   66.30 | X-H torsion
[ 10763 10752 10751 10750 ] final -166.54 input  -60.55 | X-H torsion
[ 11005 11000 10999 10996 ] final  -16.21 input  -57.11 | X-H torsion

> <Gold.Protein.ActiveResidues>
 VAL166  LYS551  ARG553  GLY616  TRP617  ASP618  TYR619  PRO620  LYS621  CYS622 
 ASP623  PHE694  ASN695  SER759  ASP760  ASP761  ALA762  ILE779  LEU786  VAL792 
 PHE793  MET794  SER795  GLU796  ALA797  LYS798  CYS799  TRP800  GLU811  SER814 

> <Gold.Protein.RotatedAtoms>
  150.7626  133.9379  159.3446 H   0  0  0  0  0  0  0  0  0  0  0  0  # atno 6907 bound_to 6896
  151.7284  135.0878  160.0305 H   0  0  0  0  0  0  0  0  0  0  0  0  # atno 6908 bound_to 6896
  152.3605  133.6253  159.6047 H   0  0  0  0  0  0  0  0  0  0  0  0  # atno 6909 bound_to 6896
  144.9330  139.5024  143.5609 H   0  0  0  0  0  0  0  0  0  0  0  0  # atno 7974 bound_to 7965
  154.7494  140.0488  157.0880 H   0  0  0  0  0  0  0  0  0  0  0  0  # atno 8008 bound_to 7997
  155.0076  140.3132  155.4823 H   0  0  0  0  0  0  0  0  0  0  0  0  # atno 8009 bound_to 7997
  156.2882  140.2190  156.5189 H   0  0  0  0  0  0  0  0  0  0  0  0  # atno 8010 bound_to 7997
  140.3678  144.2145  150.6134 H   0  0  0  0  0  0  0  0  0  0  0  0  # atno 10167 bound_to 10162
  156.2338  130.7054  151.0886 H   0  0  0  0  0  0  0  0  0  0  0  0  # atno 10718 bound_to 10713
  154.6823  135.2956  154.9596 H   0  0  0  0  0  0  0  0  0  0  0  0  # atno 10763 bound_to 10752
  154.0586  135.6634  153.4813 H   0  0  0  0  0  0  0  0  0  0  0  0  # atno 10764 bound_to 10752
  153.0556  135.5147  154.7872 H   0  0  0  0  0  0  0  0  0  0  0  0  # atno 10765 bound_to 10752
  140.8044  133.8189  155.9502 H   0  0  0  0  0  0  0  0  0  0  0  0  # atno 11005 bound_to 11000
  146.3255  139.8294  142.8911 LP  0  0  0  0  0  0  0  0  0  0  0  0  # atno 17320 bound_to 7965
  145.3112  141.0220  143.3553 LP  0  0  0  0  0  0  0  0  0  0  0  0  # atno 17321 bound_to 7965
  140.5064  143.2303  151.8602 LP  0  0  0  0  0  0  0  0  0  0  0  0  # atno 17342 bound_to 10162
  139.4807  144.5001  151.9072 LP  0  0  0  0  0  0  0  0  0  0  0  0  # atno 17343 bound_to 10162
  157.7145  131.0717  150.6378 LP  0  0  0  0  0  0  0  0  0  0  0  0  # atno 17370 bound_to 10713
  156.6447  130.4468  149.5740 LP  0  0  0  0  0  0  0  0  0  0  0  0  # atno 17371 bound_to 10713
  140.9261  134.2080  157.4894 LP  0  0  0  0  0  0  0  0  0  0  0  0  # atno 17394 bound_to 11000
  139.8719  134.9813  156.5111 LP  0  0  0  0  0  0  0  0  0  0  0  0  # atno 17395 bound_to 11000

$$$$
