AV-unprocessed.smi:1825|AV-procd|sdf|7413|dock5
  -GOLD-   22720 9 93D 1   1.00000     0.00000
 Structure written by MMmdl.
 34 35  0  0  0  0  0  0  0  0  1 V2000
  144.3461  136.4509  152.3991 O   0  0  0  0  0  0  0  0  0  0  0  0
  145.5651  136.3482  152.2589 C   0  0  0  0  0  0  0  0  0  0  0  0
  146.4488  137.1956  152.8046 N   0  0  0  0  0  0  0  0  0  0  0  0
  146.1067  138.3769  153.5932 C   0  0  0  0  0  0  0  0  0  0  0  0
  147.1789  139.4941  153.5211 C   0  0  0  0  0  0  0  0  0  0  0  0
  147.3564  139.8112  152.1525 O   0  0  0  0  0  0  0  0  0  0  0  0
  146.6448  140.7696  154.2168 C   0  0  0  0  0  0  0  0  0  0  0  0
  147.6769  141.9105  154.2659 C   0  0  0  0  0  0  0  0  0  0  0  0
  148.9871  141.4481  154.9178 C   0  0  0  0  0  0  0  0  0  0  0  0
  149.5592  140.2247  154.1887 C   0  0  0  0  0  0  0  0  0  0  0  0
  148.5402  139.0722  154.1326 C   0  0  0  0  0  0  0  0  0  0  0  0
  146.1873  135.3931  151.5460 N   0  0  0  0  0  0  0  0  0  0  0  0
  145.6067  134.3196  150.8216 C   0  0  0  0  0  0  0  0  0  0  0  0
  144.3343  134.2880  150.4081 N   0  0  0  0  0  0  0  0  0  0  0  0
  144.0352  133.1087  149.7213 C   0  0  0  0  0  0  0  0  0  0  0  0
  145.0990  132.2471  149.6209 C   0  0  0  0  0  0  0  0  0  0  0  0
  146.5270  132.8857  150.3906 S   0  0  0  0  0  0  0  0  0  0  0  0
  147.4306  137.0318  152.6380 H   0  0  0  0  0  0  0  0  0  0  0  0
  145.1205  138.7615  153.3260 H   0  0  0  0  0  0  0  0  0  0  0  0
  146.0174  138.0316  154.6237 H   0  0  0  0  0  0  0  0  0  0  0  0
  148.2761  139.7447  151.9468 H   0  0  0  0  0  0  0  0  0  0  0  0
  145.7365  141.1177  153.7227 H   0  0  0  0  0  0  0  0  0  0  0  0
  146.3544  140.5262  155.2399 H   0  0  0  0  0  0  0  0  0  0  0  0
  147.8768  142.2747  153.2575 H   0  0  0  0  0  0  0  0  0  0  0  0
  147.2664  142.7552  154.8195 H   0  0  0  0  0  0  0  0  0  0  0  0
  149.7144  142.2605  154.9090 H   0  0  0  0  0  0  0  0  0  0  0  0
  148.8094  141.2015  155.9654 H   0  0  0  0  0  0  0  0  0  0  0  0
  149.8531  140.5063  153.1768 H   0  0  0  0  0  0  0  0  0  0  0  0
  150.4682  139.8887  154.6882 H   0  0  0  0  0  0  0  0  0  0  0  0
  148.3764  138.7002  155.1449 H   0  0  0  0  0  0  0  0  0  0  0  0
  148.9756  138.2442  153.5719 H   0  0  0  0  0  0  0  0  0  0  0  0
  147.1947  135.4442  151.5113 H   0  0  0  0  0  0  0  0  0  0  0  0
  143.0366  132.9644  149.3362 H   0  0  0  0  0  0  0  0  0  0  0  0
  145.1287  131.2792  149.1432 H   0  0  0  0  0  0  0  0  0  0  0  0
  1  2  2  0  0  0  0
  2  3  1  0  0  0  0
  2 12  1  0  0  0  0
  3  4  1  0  0  0  0
  3 18  1  0  0  0  0
  4  5  1  0  0  0  0
  4 19  1  0  0  0  0
  4 20  1  0  0  0  0
  5 11  1  0  0  0  0
  5  6  1  0  0  0  0
  5  7  1  0  0  0  0
  6 21  1  0  0  0  0
  7  8  1  0  0  0  0
  7 22  1  0  0  0  0
  7 23  1  0  0  0  0
  8  9  1  0  0  0  0
  8 24  1  0  0  0  0
  8 25  1  0  0  0  0
  9 10  1  0  0  0  0
  9 26  1  0  0  0  0
  9 27  1  0  0  0  0
 10 11  1  0  0  0  0
 10 28  1  0  0  0  0
 10 29  1  0  0  0  0
 11 30  1  0  0  0  0
 11 31  1  0  0  0  0
 12 13  1  0  0  0  0
 12 32  1  0  0  0  0
 13 17  1  0  0  0  0
 13 14  2  0  0  0  0
 14 15  1  0  0  0  0
 15 16  2  0  0  0  0
 15 33  1  0  0  0  0
 16 17  1  0  0  0  0
 16 34  1  0  0  0  0
M  END
> <s_m_source_file>
AV-unprocessed.smi

> <i_m_source_file_index>
1825

> <i_lp_mmshare_version>
43012

> <i_f3d_flags>
0

> <s_epik_input>
czFbY0hdW2NIXW5jMVtOSF1DKD1PKVtOSF1bQ0gyXUMyKFtPSF0pW0NIMl1bQ0gyXVtDSDJdW0NIMl1bQ0gyXTI=

> <s_epik_cmdline>
J2VwaWtfcHl0aG9uJywgJy1waCcsICc3LjAnLCAnLXRuJywgJzgnLCAnLW1hJywgJzIwMCcsICctbWV0YWxfYmluZGluZycsICctaW1hZScsICc8aW5maWxlLm1hZT4nLCAnLW9tYWUnLCAnPG91dGZpbGUubWFlPic=

> <r_lp_tautomer_probability>
0.999

> <r_epik_Ionization_Penalty>
0.000358719

> <r_epik_Ionization_Penalty_Charging>
0

> <r_epik_Ionization_Penalty_Neutral>
0.000358719

> <r_epik_State_Penalty>
0.000177984

> <r_epik_Charging_Adjusted_Penalty>
0.000177984

> <i_epik_Tot_Q>
0

> <i_epik_Tot_abs_Q>
0

> <r_epik_Metal_State_Penalty>
0.00708714

> <b_epik_Metal_Only>
0

> <s_lp_Force_Field>
OPLS_2005

> <r_lp_Energy>
11.7205

> <b_lp_Chiralities_Consistent>
1

> <s_lp_Variant>
AV-unprocessed.smi:1825-1

> <Gold.Version>
5.8.1

> <Gold.Id.Protein>
6NUR|6NUR_protein|mol2

> <Gold.PLP.Fitness>
42.4440

> <Gold.PLP.PLP>
-31.0655

> <Gold.PLP.part.hbond>
-2.5578

> <Gold.PLP.part.metal>
0.0000

> <Gold.PLP.part.buried>
-3.5797

> <Gold.PLP.part.nonpolar>
-26.2474

> <Gold.PLP.part.repulsive>
0.4701

> <Gold.PLP.ligand.clash>
0.0000

> <Gold.PLP.ligand.torsion>
0.2984

> <Gold.PLP.Chemscore.Hbond>
2.9913

> <Gold.PLP.Chemscore.CHOScore>
0.9982

> <Gold.PLP.Chemscore.Metal>
0.0000

> <Gold.Chemscore.Hbonds>
donor molecule, donor type, donor heavy atom, donor atom, acceptor molecule, acceptor atom, score
      L1  H     3    18       P1  7948  1.00
      L1  H     6    21       P1  7957  1.00
      L1  H    12    32       P1  7948  1.00
      L1  C    15    33       P1 10186  1.00

> <Gold.PLP.Chemscore.Internal.Correction>
0.0069

> <Gold.Rescore>
     Score         DG    S(hbond)    S(metal)    S(lipo)     H(rot)  DE(clash)    DE(int)     intcor
     17.41     -18.96       2.91        0.00      72.74       1.86       0.06       1.49       ----

> <Gold.Chemscore.Fitness>
17.4058

> <Gold.Chemscore.DG>
-18.9552

> <Gold.Chemscore.ZeroCoef>
-5.4800

> <Gold.Chemscore.Hbond>
2.9098

> <Gold.Chemscore.Metal>
0.0000

> <Gold.Chemscore.Lipo>
72.7443

> <Gold.Chemscore.Internal_Hbond>
0.0000

> <Gold.Chemscore.DEClash>
0.0612

> <Gold.Chemscore.DEInternal>
1.4881

> <Gold.Chemscore.Rot>
1.8572

> <Gold.Chemscore.Internal.Correction>
   9.000000E+99

> <Gold.Chemscore.Hbonds>
donor molecule, donor type, donor heavy atom, donor atom, acceptor molecule, acceptor atom, score
      L1  H     3    18       P1  7948  0.99
      L1  H     6    21       P1  7957  0.93
      L1  H    12    32       P1  7948  0.95

> <Gold.Chemscore.Hbond.Weighted>
-9.7186

> <Gold.Chemscore.Metal.Weighted>
-0.0000

> <Gold.Chemscore.Lipo.Weighted>
-8.5111

> <Gold.Chemscore.Internal_Hbond.Weighted>
0.0000

> <Gold.Chemscore.DEClash.Weighted>
0.0612

> <Gold.Chemscore.DEInternal.Weighted>
1.4881

> <Gold.Chemscore.Rot.Weighted>
4.7545

> <Gold.Chemscore.Internal.Correction.Weighted>
   9.000000E+99

> <Gold.Protein.RotatedTorsions>
[ 6907 6896 6895 6894 ] final   11.92 input  -60.11 | X-H torsion
[ 7974 7965 7964 7962 ] final  117.90 input  175.53 | X-H torsion
[ 8008 7997 7996 7995 ] final   24.88 input   59.86 | X-H torsion
[ 10167 10162 10161 10158 ] final   25.45 input  -65.29 | X-H torsion
[ 10718 10713 10712 10709 ] final  120.24 input   66.30 | X-H torsion
[ 10763 10752 10751 10750 ] final   12.41 input  -60.55 | X-H torsion
[ 11005 11000 10999 10996 ] final   55.33 input  -57.11 | X-H torsion

> <Gold.Protein.ActiveResidues>
 VAL166  LYS551  ARG553  GLY616  TRP617  ASP618  TYR619  PRO620  LYS621  CYS622 
 ASP623  PHE694  ASN695  SER759  ASP760  ASP761  ALA762  ILE779  LEU786  VAL792 
 PHE793  MET794  SER795  GLU796  ALA797  LYS798  CYS799  TRP800  GLU811  SER814 

> <Gold.Protein.RotatedAtoms>
  151.7620  135.0808  160.0346 H   0  0  0  0  0  0  0  0  0  0  0  0  # atno 6907 bound_to 6896
  152.3347  133.5993  159.5842 H   0  0  0  0  0  0  0  0  0  0  0  0  # atno 6908 bound_to 6896
  150.7443  133.9731  159.3594 H   0  0  0  0  0  0  0  0  0  0  0  0  # atno 6909 bound_to 6896
  145.1617  139.3151  143.4514 H   0  0  0  0  0  0  0  0  0  0  0  0  # atno 7974 bound_to 7965
  155.0032  140.3127  155.4859 H   0  0  0  0  0  0  0  0  0  0  0  0  # atno 8008 bound_to 7997
  156.2921  140.2228  156.5083 H   0  0  0  0  0  0  0  0  0  0  0  0  # atno 8009 bound_to 7997
  154.7600  140.0460  157.0953 H   0  0  0  0  0  0  0  0  0  0  0  0  # atno 8010 bound_to 7997
  140.5105  144.0167  150.6371 H   0  0  0  0  0  0  0  0  0  0  0  0  # atno 10167 bound_to 10162
  157.5905  131.1065  150.8008 H   0  0  0  0  0  0  0  0  0  0  0  0  # atno 10718 bound_to 10713
  153.1826  135.6830  153.8458 H   0  0  0  0  0  0  0  0  0  0  0  0  # atno 10763 bound_to 10752
  153.7785  135.3186  155.3363 H   0  0  0  0  0  0  0  0  0  0  0  0  # atno 10764 bound_to 10752
  154.8069  135.4743  154.0510 H   0  0  0  0  0  0  0  0  0  0  0  0  # atno 10765 bound_to 10752
  140.0615  134.5595  155.9146 H   0  0  0  0  0  0  0  0  0  0  0  0  # atno 11005 bound_to 11000
  146.3481  140.1730  142.8589 LP  0  0  0  0  0  0  0  0  0  0  0  0  # atno 17320 bound_to 7965
  145.0324  140.8881  143.5101 LP  0  0  0  0  0  0  0  0  0  0  0  0  # atno 17321 bound_to 7965
  140.3489  143.2975  152.0509 LP  0  0  0  0  0  0  0  0  0  0  0  0  # atno 17342 bound_to 10162
  139.4895  144.6388  151.6919 LP  0  0  0  0  0  0  0  0  0  0  0  0  # atno 17343 bound_to 10162
  156.8431  130.5055  149.5319 LP  0  0  0  0  0  0  0  0  0  0  0  0  # atno 17370 bound_to 10713
  156.0959  130.5932  150.9812 LP  0  0  0  0  0  0  0  0  0  0  0  0  # atno 17371 bound_to 10713
  141.1975  133.6597  156.5745 LP  0  0  0  0  0  0  0  0  0  0  0  0  # atno 17394 bound_to 11000
  140.3763  134.7562  157.4632 LP  0  0  0  0  0  0  0  0  0  0  0  0  # atno 17395 bound_to 11000

$$$$
