AV-unprocessed.smi:148|AV-procd|sdf|1219|dock6
  -GOLD-   2262018403D 1   1.00000     0.00000
 Structure written by MMmdl.
 63 67  0  0  0  0  0  0  0  0  1 V2000
  150.7250  132.6529  156.1076 O   0  0  0  0  0  0  0  0  0  0  0  0
  149.6801  132.7243  155.1578 C   0  0  0  0  0  0  0  0  0  0  0  0
  149.1152  134.1630  155.0049 C   0  0  1  0  0  0  0  0  0  0  0  0
  150.1631  135.2497  154.6056 C   0  0  0  0  0  0  0  0  0  0  0  0
  150.4767  136.2340  155.6281 N   0  0  0  0  0  0  0  0  0  0  0  0
  149.9993  136.2586  156.9191 C   0  0  0  0  0  0  0  0  0  0  0  0
  150.4164  137.2586  157.6466 N   0  0  0  0  0  0  0  0  0  0  0  0
  151.2493  137.9731  156.7935 C   0  0  0  0  0  0  0  0  0  0  0  0
  152.0120  139.1691  156.9156 C   0  0  0  0  0  0  0  0  0  0  0  0
  152.0608  139.9455  158.0218 N   0  0  0  0  0  0  0  0  0  0  0  0
  151.5325  141.2760  157.7236 C   0  0  0  0  0  0  0  0  0  0  0  0
  151.3355  142.0976  159.0035 C   0  0  0  0  0  0  0  0  0  0  0  0
  152.6464  142.1711  159.7929 C   0  0  0  0  0  0  0  0  0  0  0  0
  153.1594  140.7559  160.0916 C   0  0  0  0  0  0  0  0  0  0  0  0
  153.3143  139.9114  158.7989 C   0  0  1  0  0  0  0  0  0  0  0  0
  153.8240  138.4590  159.0660 C   0  0  2  0  0  0  0  0  0  0  0  0
  152.9409  137.5858  159.9797 C   0  0  0  0  0  0  0  0  0  0  0  0
  153.8904  136.6204  160.7081 C   0  0  0  0  0  0  0  0  0  0  0  0
  155.2874  136.8828  160.1381 C   0  0  0  0  0  0  0  0  0  0  0  0
  155.2338  138.3338  159.6622 C   0  0  1  0  0  0  0  0  0  0  0  0
  156.2415  138.5993  158.7082 O   0  0  0  0  0  0  0  0  0  0  0  0
  152.7432  139.5704  155.8468 N   0  0  0  0  0  0  0  0  0  0  0  0
  152.7154  138.8607  154.7147 C   0  0  0  0  0  0  0  0  0  0  0  0
  152.0376  137.7425  154.4459 N   0  0  0  0  0  0  0  0  0  0  0  0
  151.3127  137.3310  155.5257 C   0  0  0  0  0  0  0  0  0  0  0  0
  147.8445  134.2455  154.1064 C   0  0  1  0  0  0  0  0  0  0  0  0
  148.0119  133.7511  152.6743 C   0  0  0  0  0  0  0  0  0  0  0  0
  147.8514  132.2391  152.8040 C   0  0  0  0  0  0  0  0  0  0  0  0
  147.0221  132.0369  153.9432 O   0  0  0  0  0  0  0  0  0  0  0  0
  146.7319  133.2882  154.5571 C   0  0  0  0  0  0  0  0  0  0  0  0
  151.3583  133.3262  155.9094 H   0  0  0  0  0  0  0  0  0  0  0  0
  150.0599  132.3594  154.2044 H   0  0  0  0  0  0  0  0  0  0  0  0
  148.8944  132.0216  155.4334 H   0  0  0  0  0  0  0  0  0  0  0  0
  148.7953  134.4362  156.0116 H   0  0  0  0  0  0  0  0  0  0  0  0
  151.1055  134.7942  154.3010 H   0  0  0  0  0  0  0  0  0  0  0  0
  149.8063  135.7878  153.7265 H   0  0  0  0  0  0  0  0  0  0  0  0
  149.3143  135.5147  157.2998 H   0  0  0  0  0  0  0  0  0  0  0  0
  152.2193  141.7958  157.0539 H   0  0  0  0  0  0  0  0  0  0  0  0
  150.5802  141.1908  157.1974 H   0  0  0  0  0  0  0  0  0  0  0  0
  150.9886  143.1008  158.7550 H   0  0  0  0  0  0  0  0  0  0  0  0
  150.5587  141.6409  159.6184 H   0  0  0  0  0  0  0  0  0  0  0  0
  153.3934  142.7217  159.2198 H   0  0  0  0  0  0  0  0  0  0  0  0
  152.4956  142.7207  160.7223 H   0  0  0  0  0  0  0  0  0  0  0  0
  154.1106  140.8440  160.6139 H   0  0  0  0  0  0  0  0  0  0  0  0
  152.4692  140.2761  160.7846 H   0  0  0  0  0  0  0  0  0  0  0  0
  154.0727  140.4114  158.1961 H   0  0  0  0  0  0  0  0  0  0  0  0
  153.8779  137.9328  158.1118 H   0  0  0  0  0  0  0  0  0  0  0  0
  152.3904  138.1754  160.7108 H   0  0  0  0  0  0  0  0  0  0  0  0
  152.1996  137.0427  159.3926 H   0  0  0  0  0  0  0  0  0  0  0  0
  153.8811  136.8366  161.7773 H   0  0  0  0  0  0  0  0  0  0  0  0
  153.5930  135.5788  160.5834 H   0  0  0  0  0  0  0  0  0  0  0  0
  156.0795  136.7068  160.8668 H   0  0  0  0  0  0  0  0  0  0  0  0
  155.4618  136.2165  159.2914 H   0  0  0  0  0  0  0  0  0  0  0  0
  155.3666  138.9871  160.5232 H   0  0  0  0  0  0  0  0  0  0  0  0
  156.5477  137.7765  158.3581 H   0  0  0  0  0  0  0  0  0  0  0  0
  153.3184  139.2473  153.9066 H   0  0  0  0  0  0  0  0  0  0  0  0
  147.4853  135.2757  154.1059 H   0  0  0  0  0  0  0  0  0  0  0  0
  147.1962  134.1447  152.0659 H   0  0  0  0  0  0  0  0  0  0  0  0
  148.9368  134.0454  152.1820 H   0  0  0  0  0  0  0  0  0  0  0  0
  147.4145  131.7938  151.9100 H   0  0  0  0  0  0  0  0  0  0  0  0
  148.8158  131.7632  152.9844 H   0  0  0  0  0  0  0  0  0  0  0  0
  146.6419  133.1799  155.6374 H   0  0  0  0  0  0  0  0  0  0  0  0
  145.7675  133.6353  154.1831 H   0  0  0  0  0  0  0  0  0  0  0  0
  1  2  1  0  0  0  0
  1 31  1  0  0  0  0
  2  3  1  0  0  0  0
  2 32  1  0  0  0  0
  2 33  1  0  0  0  0
  3  4  1  0  0  0  0
  3 26  1  0  0  0  0
  3 34  1  0  0  0  0
  4  5  1  0  0  0  0
  4 35  1  0  0  0  0
  4 36  1  0  0  0  0
  5 25  1  0  0  0  0
  5  6  1  0  0  0  0
  6  7  2  0  0  0  0
  6 37  1  0  0  0  0
  7  8  1  0  0  0  0
  8 25  2  0  0  0  0
  8  9  1  0  0  0  0
  9 10  1  0  0  0  0
  9 22  2  0  0  0  0
 10 15  1  0  0  0  0
 10 11  1  0  0  0  0
 11 12  1  0  0  0  0
 11 38  1  0  0  0  0
 11 39  1  0  0  0  0
 12 13  1  0  0  0  0
 12 40  1  0  0  0  0
 12 41  1  0  0  0  0
 13 14  1  0  0  0  0
 13 42  1  0  0  0  0
 13 43  1  0  0  0  0
 14 15  1  0  0  0  0
 14 44  1  0  0  0  0
 14 45  1  0  0  0  0
 15 16  1  0  0  0  0
 15 46  1  0  0  0  0
 16 20  1  0  0  0  0
 16 17  1  0  0  0  0
 16 47  1  0  0  0  0
 17 18  1  0  0  0  0
 17 48  1  0  0  0  0
 17 49  1  0  0  0  0
 18 19  1  0  0  0  0
 18 50  1  0  0  0  0
 18 51  1  0  0  0  0
 19 20  1  0  0  0  0
 19 52  1  0  0  0  0
 19 53  1  0  0  0  0
 20 21  1  0  0  0  0
 20 54  1  0  0  0  0
 21 55  1  0  0  0  0
 22 23  1  0  0  0  0
 23 24  2  0  0  0  0
 23 56  1  0  0  0  0
 24 25  1  0  0  0  0
 26 30  1  0  0  0  0
 26 27  1  0  0  0  0
 26 57  1  0  0  0  0
 27 28  1  0  0  0  0
 27 58  1  0  0  0  0
 27 59  1  0  0  0  0
 28 29  1  0  0  0  0
 28 60  1  0  0  0  0
 28 61  1  0  0  0  0
 29 30  1  0  0  0  0
 30 62  1  0  0  0  0
 30 63  1  0  0  0  0
M  END
> <s_m_source_file>
AV-unprocessed.smi

> <i_m_source_file_index>
148

> <i_lp_mmshare_version>
43012

> <i_f3d_flags>
0

> <s_epik_input>
W0NIMl0xT1tDSDJdW0NIMl1bQ0BIXTFbQ0BIXShbQ0gyXVtPSF0pW0NIMl1uKFtjSF1uMiljKGMyMyluW2NIXW5jM040W0NIMl1bQ0gyXVtDSDJdW0NIMl1bQ0BIXTRbQ0BASF01W0NIMl1bQ0gyXVtDSDJdW0NASF01W09IXQ==

> <s_epik_cmdline>
J2VwaWtfcHl0aG9uJywgJy1waCcsICc3LjAnLCAnLXRuJywgJzgnLCAnLW1hJywgJzIwMCcsICctbWV0YWxfYmluZGluZycsICctaW1hZScsICc8aW5maWxlLm1hZT4nLCAnLW9tYWUnLCAnPG91dGZpbGUubWFlPic=

> <r_lp_tautomer_probability>
1

> <r_epik_Ionization_Penalty>
0.00556303

> <r_epik_Ionization_Penalty_Charging>
0

> <r_epik_Ionization_Penalty_Neutral>
0.00556303

> <r_epik_State_Penalty>
0.00401767

> <r_epik_Charging_Adjusted_Penalty>
0.00401767

> <i_epik_Tot_Q>
0

> <i_epik_Tot_abs_Q>
0

> <r_epik_Metal_State_Penalty>
-0

> <b_epik_Metal_Only>
0

> <s_lp_Force_Field>
OPLS_2005

> <r_lp_Energy>
73.5051

> <b_lp_Chiralities_Consistent>
1

> <s_lp_Variant>
AV-unprocessed.smi:148-18

> <Gold.Version>
5.8.1

> <Gold.Id.Protein>
6NUR|6NUR_protein|mol2

> <Gold.PLP.Fitness>
48.9677

> <Gold.PLP.PLP>
-42.0335

> <Gold.PLP.part.hbond>
-3.0000

> <Gold.PLP.part.metal>
0.0000

> <Gold.PLP.part.buried>
-6.8146

> <Gold.PLP.part.nonpolar>
-33.4676

> <Gold.PLP.part.repulsive>
0.1584

> <Gold.PLP.ligand.clash>
0.0000

> <Gold.PLP.ligand.torsion>
0.9959

> <Gold.PLP.Chemscore.Hbond>
2.8160

> <Gold.PLP.Chemscore.CHOScore>
0.0000

> <Gold.PLP.Chemscore.Metal>
0.0000

> <Gold.Chemscore.Hbonds>
donor molecule, donor type, donor heavy atom, donor atom, acceptor molecule, acceptor atom, score
      P1  H  7997  8008       L1    22  1.00
      P1  H  7997  8010       L1    21  0.88
      P1  H 10752 10765       L1    24  0.17

> <Gold.PLP.Chemscore.Internal.Correction>
0.4780

> <Gold.Rescore>
     Score         DG    S(hbond)    S(metal)    S(lipo)     H(rot)  DE(clash)    DE(int)     intcor
     13.60     -16.17       2.35        0.00      96.90       3.32       0.06       2.51       ----

> <Gold.Chemscore.Fitness>
13.5968

> <Gold.Chemscore.DG>
-16.1711

> <Gold.Chemscore.ZeroCoef>
-5.4800

> <Gold.Chemscore.Hbond>
2.3514

> <Gold.Chemscore.Metal>
0.0000

> <Gold.Chemscore.Lipo>
96.8999

> <Gold.Chemscore.Internal_Hbond>
0.0000

> <Gold.Chemscore.DEClash>
0.0604

> <Gold.Chemscore.DEInternal>
2.5138

> <Gold.Chemscore.Rot>
3.3203

> <Gold.Chemscore.Internal.Correction>
   9.000000E+99

> <Gold.Chemscore.Hbonds>
donor molecule, donor type, donor heavy atom, donor atom, acceptor molecule, acceptor atom, score
      P1  H  7997  8008       L1    22  0.64
      P1  H  7997  8010       L1    21  0.62
      P1  H 10752 10765       L1    24  0.01

> <Gold.Chemscore.Hbond.Weighted>
-7.8538

> <Gold.Chemscore.Metal.Weighted>
-0.0000

> <Gold.Chemscore.Lipo.Weighted>
-11.3373

> <Gold.Chemscore.Internal_Hbond.Weighted>
0.0000

> <Gold.Chemscore.DEClash.Weighted>
0.0604

> <Gold.Chemscore.DEInternal.Weighted>
2.5138

> <Gold.Chemscore.Rot.Weighted>
8.5000

> <Gold.Chemscore.Internal.Correction.Weighted>
   9.000000E+99

> <Gold.Protein.RotatedTorsions>
[ 6907 6896 6895 6894 ] final  166.04 input  -60.11 | X-H torsion
[ 7974 7965 7964 7962 ] final  106.18 input  175.53 | X-H torsion
[ 8008 7997 7996 7995 ] final  -26.46 input   59.86 | X-H torsion
[ 10167 10162 10161 10158 ] final  -57.61 input  -65.29 | X-H torsion
[ 10718 10713 10712 10709 ] final  155.58 input   66.30 | X-H torsion
[ 10763 10752 10751 10750 ] final  161.31 input  -60.55 | X-H torsion
[ 11005 11000 10999 10996 ] final   70.00 input  -57.11 | X-H torsion

> <Gold.Protein.ActiveResidues>
 VAL166  LYS551  ARG553  GLY616  TRP617  ASP618  TYR619  PRO620  LYS621  CYS622 
 ASP623  PHE694  ASN695  SER759  ASP760  ASP761  ALA762  ILE779  LEU786  VAL792 
 PHE793  MET794  SER795  GLU796  ALA797  LYS798  CYS799  TRP800  GLU811  SER814 

> <Gold.Protein.RotatedAtoms>
  151.8850  133.3503  159.3778 H   0  0  0  0  0  0  0  0  0  0  0  0  # atno 6907 bound_to 6896
  150.7117  134.4980  159.5557 H   0  0  0  0  0  0  0  0  0  0  0  0  # atno 6908 bound_to 6896
  152.2539  134.8104  160.0492 H   0  0  0  0  0  0  0  0  0  0  0  0  # atno 6909 bound_to 6896
  145.3100  139.2543  143.3768 H   0  0  0  0  0  0  0  0  0  0  0  0  # atno 7974 bound_to 7965
  154.4424  140.1899  156.0779 H   0  0  0  0  0  0  0  0  0  0  0  0  # atno 8008 bound_to 7997
  156.0461  140.3314  155.7271 H   0  0  0  0  0  0  0  0  0  0  0  0  # atno 8009 bound_to 7997
  155.5627  140.0605  157.2816 H   0  0  0  0  0  0  0  0  0  0  0  0  # atno 8010 bound_to 7997
  140.6247  143.2433  151.5392 H   0  0  0  0  0  0  0  0  0  0  0  0  # atno 10167 bound_to 10162
  157.2164  131.0709  151.1938 H   0  0  0  0  0  0  0  0  0  0  0  0  # atno 10718 bound_to 10713
  154.2610  135.2768  155.2778 H   0  0  0  0  0  0  0  0  0  0  0  0  # atno 10763 bound_to 10752
  154.5384  135.5709  153.6821 H   0  0  0  0  0  0  0  0  0  0  0  0  # atno 10764 bound_to 10752
  152.9962  135.6245  154.2760 H   0  0  0  0  0  0  0  0  0  0  0  0  # atno 10765 bound_to 10752
  139.9622  134.7042  156.0622 H   0  0  0  0  0  0  0  0  0  0  0  0  # atno 11005 bound_to 11000
  146.3121  140.3633  142.8667 LP  0  0  0  0  0  0  0  0  0  0  0  0  # atno 17320 bound_to 7965
  144.9024  140.7658  143.5859 LP  0  0  0  0  0  0  0  0  0  0  0  0  # atno 17321 bound_to 7965
  139.5470  144.2496  152.1460 LP  0  0  0  0  0  0  0  0  0  0  0  0  # atno 17342 bound_to 10162
  140.1725  144.4922  150.6572 LP  0  0  0  0  0  0  0  0  0  0  0  0  # atno 17343 bound_to 10162
  157.3620  130.7136  149.6508 LP  0  0  0  0  0  0  0  0  0  0  0  0  # atno 17370 bound_to 10713
  155.9686  130.4223  150.4509 LP  0  0  0  0  0  0  0  0  0  0  0  0  # atno 17371 bound_to 10713
  141.1300  133.6589  156.3438 LP  0  0  0  0  0  0  0  0  0  0  0  0  # atno 17394 bound_to 11000
  140.5475  134.6060  157.5398 LP  0  0  0  0  0  0  0  0  0  0  0  0  # atno 17395 bound_to 11000

$$$$
