AV-unprocessed.smi:1578|AV-procd|sdf|6352|dock6
  -GOLD-   22720 6573D 1   1.00000     0.00000
 Structure written by MMmdl.
 45 46  0  0  0  0  0  0  0  0  2 V2000
  146.2461  133.5088  155.5882 C   0  0  0  0  0  0  0  0  0  0  0  0
  146.8431  134.9216  155.5492 C   0  0  2  0  0  0  0  0  0  0  0  0
  147.7963  135.1059  154.3477 C   0  0  0  0  0  0  0  0  0  0  0  0
  147.0839  135.0954  153.0446 N   0  3  0  0  0  0  0  0  0  0  0  0
  146.7081  133.7355  152.5941 C   0  0  0  0  0  0  0  0  0  0  0  0
  146.0576  133.7998  151.2017 C   0  0  0  0  0  0  0  0  0  0  0  0
  144.9302  134.6666  151.2394 O   0  0  0  0  0  0  0  0  0  0  0  0
  145.2895  135.9960  151.5961 C   0  0  0  0  0  0  0  0  0  0  0  0
  145.9111  136.0011  153.0023 C   0  0  0  0  0  0  0  0  0  0  0  0
  147.5509  135.1834  156.8014 N   0  0  0  0  0  0  0  0  0  0  0  0
  147.1075  135.9307  157.8282 C   0  0  0  0  0  0  0  0  0  0  0  0
  145.9941  136.4531  157.8422 O   0  0  0  0  0  0  0  0  0  0  0  0
  148.0652  136.1836  159.0046 C   0  0  0  0  0  0  0  0  0  0  0  0
  147.7120  135.4626  160.2405 N   0  0  0  0  0  0  0  0  0  0  0  0
  147.5480  134.0677  160.1294 C   0  0  0  0  0  0  0  0  0  0  0  0
  147.2131  133.2829  161.1708 C   0  0  0  0  0  0  0  0  0  0  0  0
  146.9693  131.7917  160.9994 C   0  0  0  0  0  0  0  0  0  0  0  0
  147.1310  131.4211  159.7293 F   0  0  0  0  0  0  0  0  0  0  0  0
  147.8085  131.0796  161.7528 F   0  0  0  0  0  0  0  0  0  0  0  0
  145.7249  131.4901  161.3664 F   0  0  0  0  0  0  0  0  0  0  0  0
  147.0016  133.9519  162.4395 C   0  0  0  0  0  0  0  0  0  0  0  0
  147.1384  135.2870  162.5596 C   0  0  0  0  0  0  0  0  0  0  0  0
  147.5058  136.1267  161.4171 C   0  0  0  0  0  0  0  0  0  0  0  0
  147.6087  137.3497  161.5080 O   0  0  0  0  0  0  0  0  0  0  0  0
  145.6955  133.2908  154.6727 H   0  0  0  0  0  0  0  0  0  0  0  0
  145.5524  133.3989  156.4225 H   0  0  0  0  0  0  0  0  0  0  0  0
  147.0220  132.7501  155.6987 H   0  0  0  0  0  0  0  0  0  0  0  0
  146.0086  135.6160  155.4439 H   0  0  0  0  0  0  0  0  0  0  0  0
  148.3004  136.0668  154.4630 H   0  0  0  0  0  0  0  0  0  0  0  0
  148.5814  134.3485  154.3520 H   0  0  0  0  0  0  0  0  0  0  0  0
  147.5933  133.0996  152.5541 H   0  0  0  0  0  0  0  0  0  0  0  0
  146.0199  133.2873  153.3125 H   0  0  0  0  0  0  0  0  0  0  0  0
  146.7724  134.1478  150.4541 H   0  0  0  0  0  0  0  0  0  0  0  0
  145.7314  132.8068  150.8922 H   0  0  0  0  0  0  0  0  0  0  0  0
  145.9838  136.4090  150.8622 H   0  0  0  0  0  0  0  0  0  0  0  0
  144.3970  136.6214  151.5774 H   0  0  0  0  0  0  0  0  0  0  0  0
  145.1723  135.6816  153.7388 H   0  0  0  0  0  0  0  0  0  0  0  0
  146.2060  137.0166  153.2653 H   0  0  0  0  0  0  0  0  0  0  0  0
  148.4749  134.7839  156.8841 H   0  0  0  0  0  0  0  0  0  0  0  0
  149.0713  135.8957  158.6950 H   0  0  0  0  0  0  0  0  0  0  0  0
  148.1231  137.2597  159.1758 H   0  0  0  0  0  0  0  0  0  0  0  0
  147.6969  133.6786  159.1320 H   0  0  0  0  0  0  0  0  0  0  0  0
  146.7342  133.3726  163.3111 H   0  0  0  0  0  0  0  0  0  0  0  0
  146.9755  135.7510  163.5216 H   0  0  0  0  0  0  0  0  0  0  0  0
  147.7436  135.4418  152.3627 H   0  0  0  0  0  0  0  0  0  0  0  0
  1  2  1  0  0  0  0
  1 25  1  0  0  0  0
  1 26  1  0  0  0  0
  1 27  1  0  0  0  0
  2  3  1  0  0  0  0
  2 10  1  0  0  0  0
  2 28  1  0  0  0  0
  3  4  1  0  0  0  0
  3 29  1  0  0  0  0
  3 30  1  0  0  0  0
  4  9  1  0  0  0  0
  4  5  1  0  0  0  0
  4 45  1  0  0  0  0
  5  6  1  0  0  0  0
  5 31  1  0  0  0  0
  5 32  1  0  0  0  0
  6  7  1  0  0  0  0
  6 33  1  0  0  0  0
  6 34  1  0  0  0  0
  7  8  1  0  0  0  0
  8  9  1  0  0  0  0
  8 35  1  0  0  0  0
  8 36  1  0  0  0  0
  9 37  1  0  0  0  0
  9 38  1  0  0  0  0
 10 11  1  0  0  0  0
 10 39  1  0  0  0  0
 11 12  2  0  0  0  0
 11 13  1  0  0  0  0
 13 14  1  0  0  0  0
 13 40  1  0  0  0  0
 13 41  1  0  0  0  0
 14 23  1  0  0  0  0
 14 15  1  0  0  0  0
 15 16  2  0  0  0  0
 15 42  1  0  0  0  0
 16 17  1  0  0  0  0
 16 21  1  0  0  0  0
 17 18  1  0  0  0  0
 17 19  1  0  0  0  0
 17 20  1  0  0  0  0
 21 22  2  0  0  0  0
 21 43  1  0  0  0  0
 22 23  1  0  0  0  0
 22 44  1  0  0  0  0
 23 24  2  0  0  0  0
M  CHG  1   4   1
M  END
> <s_m_source_file>
AV-unprocessed.smi

> <i_m_source_file_index>
1578

> <i_lp_mmshare_version>
43012

> <i_f3d_flags>
0

> <s_epik_input>
W0NIMl0xW0NIMl1PW0NIMl1bQ0gyXU4xW0NIMl1bQ0BASF0oW0NIM10pW05IXUMoPU8pW0NIMl1uMltjSF1jKEMoRikoRilGKVtjSF1bY0hdYzI9Tw==

> <s_epik_cmdline>
J2VwaWtfcHl0aG9uJywgJy1waCcsICc3LjAnLCAnLXRuJywgJzgnLCAnLW1hJywgJzIwMCcsICctbWV0YWxfYmluZGluZycsICctaW1hZScsICc8aW5maWxlLm1hZT4nLCAnLW9tYWUnLCAnPG91dGZpbGUubWFlPic=

> <r_lp_tautomer_probability>
1

> <r_epik_Ionization_Penalty>
0.656654

> <r_epik_Ionization_Penalty_Charging>
0.656653

> <r_epik_Ionization_Penalty_Neutral>
9.12373e-08

> <r_epik_State_Penalty>
0.675641

> <r_epik_Charging_Adjusted_Penalty>
1.33229

> <i_epik_Tot_Q>
1

> <i_epik_Tot_abs_Q>
1

> <r_epik_Metal_State_Penalty>
0.675695

> <b_epik_Metal_Only>
0

> <s_lp_Force_Field>
OPLS_2005

> <r_lp_Energy>
34.2523

> <b_lp_Chiralities_Consistent>
1

> <s_lp_Variant>
AV-unprocessed.smi:1578-3

> <Gold.Version>
5.8.1

> <Gold.Id.Protein>
6NUR|6NUR_protein|mol2

> <Gold.PLP.Fitness>
44.2434

> <Gold.PLP.PLP>
-35.0780

> <Gold.PLP.part.hbond>
-3.0000

> <Gold.PLP.part.metal>
0.0000

> <Gold.PLP.part.buried>
-3.3393

> <Gold.PLP.part.nonpolar>
-28.6984

> <Gold.PLP.part.repulsive>
0.1141

> <Gold.PLP.ligand.clash>
1.4810

> <Gold.PLP.ligand.torsion>
0.5458

> <Gold.PLP.Chemscore.Hbond>
3.8400

> <Gold.PLP.Chemscore.CHOScore>
0.0000

> <Gold.PLP.Chemscore.Metal>
0.0000

> <Gold.Chemscore.Hbonds>
donor molecule, donor type, donor heavy atom, donor atom, acceptor molecule, acceptor atom, score
      L1  H     4    45       P1  7948  1.85
      P1  H  6931  6943       L1    24  0.90
      P1  H  6934  6947       L1    24  0.77

> <Gold.PLP.Chemscore.Internal.Correction>
0.2180

> <Gold.Rescore>
     Score         DG    S(hbond)    S(metal)    S(lipo)     H(rot)  DE(clash)    DE(int)     intcor
     15.42     -16.23       2.76        0.00      60.56       2.17       0.01       0.81       ----

> <Gold.Chemscore.Fitness>
15.4174

> <Gold.Chemscore.DG>
-16.2340

> <Gold.Chemscore.ZeroCoef>
-5.4800

> <Gold.Chemscore.Hbond>
2.7628

> <Gold.Chemscore.Metal>
0.0000

> <Gold.Chemscore.Lipo>
60.5576

> <Gold.Chemscore.Internal_Hbond>
0.0000

> <Gold.Chemscore.DEClash>
0.0077

> <Gold.Chemscore.DEInternal>
0.8089

> <Gold.Chemscore.Rot>
2.1716

> <Gold.Chemscore.Internal.Correction>
   9.000000E+99

> <Gold.Chemscore.Hbonds>
donor molecule, donor type, donor heavy atom, donor atom, acceptor molecule, acceptor atom, score
      L1  H     4    45       P1  7948  0.88
      P1  H  6931  6943       L1    24  0.88
      P1  H  6934  6947       L1    24  0.78

> <Gold.Chemscore.Hbond.Weighted>
-9.2279

> <Gold.Chemscore.Metal.Weighted>
-0.0000

> <Gold.Chemscore.Lipo.Weighted>
-7.0852

> <Gold.Chemscore.Internal_Hbond.Weighted>
0.0000

> <Gold.Chemscore.DEClash.Weighted>
0.0077

> <Gold.Chemscore.DEInternal.Weighted>
0.8089

> <Gold.Chemscore.Rot.Weighted>
5.5592

> <Gold.Chemscore.Internal.Correction.Weighted>
   9.000000E+99

> <Gold.Protein.RotatedTorsions>
[ 6907 6896 6895 6894 ] final  123.95 input  -60.11 | X-H torsion
[ 7974 7965 7964 7962 ] final  170.39 input  175.53 | X-H torsion
[ 8008 7997 7996 7995 ] final  -35.30 input   59.86 | X-H torsion
[ 10167 10162 10161 10158 ] final -105.23 input  -65.29 | X-H torsion
[ 10718 10713 10712 10709 ] final   10.10 input   66.30 | X-H torsion
[ 10763 10752 10751 10750 ] final -175.09 input  -60.55 | X-H torsion
[ 11005 11000 10999 10996 ] final  -76.87 input  -57.11 | X-H torsion

> <Gold.Protein.ActiveResidues>
 VAL166  LYS551  ARG553  GLY616  TRP617  ASP618  TYR619  PRO620  LYS621  CYS622 
 ASP623  PHE694  ASN695  SER759  ASP760  ASP761  ALA762  ILE779  LEU786  VAL792 
 PHE793  MET794  SER795  GLU796  ALA797  LYS798  CYS799  TRP800  GLU811  SER814 

> <Gold.Protein.RotatedAtoms>
  152.4119  133.6977  159.6404 H   0  0  0  0  0  0  0  0  0  0  0  0  # atno 6907 bound_to 6896
  150.7998  133.8609  159.3240 H   0  0  0  0  0  0  0  0  0  0  0  0  # atno 6908 bound_to 6896
  151.6349  135.1021  160.0181 H   0  0  0  0  0  0  0  0  0  0  0  0  # atno 6909 bound_to 6896
  144.7325  139.9195  143.6419 H   0  0  0  0  0  0  0  0  0  0  0  0  # atno 7974 bound_to 7965
  154.4099  140.1661  156.2189 H   0  0  0  0  0  0  0  0  0  0  0  0  # atno 8008 bound_to 7997
  155.9381  140.3410  155.6281 H   0  0  0  0  0  0  0  0  0  0  0  0  # atno 8009 bound_to 7997
  155.7024  140.0746  157.2395 H   0  0  0  0  0  0  0  0  0  0  0  0  # atno 8010 bound_to 7997
  140.2008  143.3820  152.1131 H   0  0  0  0  0  0  0  0  0  0  0  0  # atno 10167 bound_to 10162
  156.9760  130.5987  149.5672 H   0  0  0  0  0  0  0  0  0  0  0  0  # atno 10718 bound_to 10713
  154.5886  135.2843  155.0659 H   0  0  0  0  0  0  0  0  0  0  0  0  # atno 10763 bound_to 10752
  154.1968  135.6431  153.5079 H   0  0  0  0  0  0  0  0  0  0  0  0  # atno 10764 bound_to 10752
  153.0113  135.5459  154.6564 H   0  0  0  0  0  0  0  0  0  0  0  0  # atno 10765 bound_to 10752
  141.1657  133.7000  156.7735 H   0  0  0  0  0  0  0  0  0  0  0  0  # atno 11005 bound_to 11000
  146.0940  139.3932  143.0388 LP  0  0  0  0  0  0  0  0  0  0  0  0  # atno 17320 bound_to 7965
  145.7671  140.9912  143.1169 LP  0  0  0  0  0  0  0  0  0  0  0  0  # atno 17321 bound_to 7965
  139.5218  144.7050  151.5380 LP  0  0  0  0  0  0  0  0  0  0  0  0  # atno 17342 bound_to 10162
  140.6391  143.8924  150.6675 LP  0  0  0  0  0  0  0  0  0  0  0  0  # atno 17343 bound_to 10162
  156.0263  130.5357  150.8416 LP  0  0  0  0  0  0  0  0  0  0  0  0  # atno 17370 bound_to 10713
  157.5559  131.0945  150.9629 LP  0  0  0  0  0  0  0  0  0  0  0  0  # atno 17371 bound_to 10713
  140.2447  134.8587  157.3608 LP  0  0  0  0  0  0  0  0  0  0  0  0  # atno 17394 bound_to 11000
  140.1761  134.4547  155.7801 LP  0  0  0  0  0  0  0  0  0  0  0  0  # atno 17395 bound_to 11000

$$$$
