AV-unprocessed.smi:670|AV-procd|sdf|3265|dock5
  -GOLD-   22720 0213D 1   1.00000     0.00000
 Structure written by MMmdl.
 44 45  0  0  0  0  0  0  0  0  2 V2000
  150.6274  141.8621  155.9670 C   0  0  0  0  0  0  0  0  0  0  0  0
  150.8665  142.4229  157.3784 C   0  0  2  0  0  0  0  0  0  0  0  0
  151.2025  143.9266  157.3158 C   0  0  0  0  0  0  0  0  0  0  0  0
  151.4503  144.5141  158.7132 C   0  0  0  0  0  0  0  0  0  0  0  0
  152.5579  143.7444  159.4458 C   0  0  0  0  0  0  0  0  0  0  0  0
  152.2291  142.2464  159.5228 C   0  0  0  0  0  0  0  0  0  0  0  0
  151.9754  141.6455  158.1236 C   0  0  1  0  0  0  0  0  0  0  0  0
  151.5453  140.2971  158.2613 O   0  0  0  0  0  0  0  0  0  0  0  0
  151.9193  139.4453  157.1881 C   0  0  0  0  0  0  0  0  0  0  0  0
  151.7905  137.9884  157.6445 C   0  0  0  0  0  0  0  0  0  0  0  0
  150.3981  137.6616  157.9173 N   0  0  0  0  0  0  0  0  0  0  0  0
  149.9267  137.2693  159.1089 C   0  0  0  0  0  0  0  0  0  0  0  0
  150.6409  137.1474  160.1056 O   0  0  0  0  0  0  0  0  0  0  0  0
  148.4213  136.9622  159.1584 C   0  0  0  0  0  0  0  0  0  0  0  0
  147.9687  136.3531  160.4180 N   0  0  0  0  0  0  0  0  0  0  0  0
  147.7819  137.3125  161.5029 N   0  5  0  0  0  0  0  0  0  0  0  0
  147.3606  136.8670  162.7162 C   0  0  0  0  0  0  0  0  0  0  0  0
  147.1724  137.6159  163.6724 O   0  0  0  0  0  0  0  0  0  0  0  0
  147.1302  135.4411  162.8792 C   0  0  0  0  0  0  0  0  0  0  0  0
  147.3299  134.5755  161.8658 C   0  0  0  0  0  0  0  0  0  0  0  0
  147.7827  135.0082  160.5493 C   0  0  0  0  0  0  0  0  0  0  0  0
  147.9815  134.2214  159.6232 O   0  0  0  0  0  0  0  0  0  0  0  0
  151.5246  141.9404  155.3521 H   0  0  0  0  0  0  0  0  0  0  0  0
  149.8285  142.4041  155.4604 H   0  0  0  0  0  0  0  0  0  0  0  0
  150.3373  140.8116  156.0002 H   0  0  0  0  0  0  0  0  0  0  0  0
  149.9382  142.3110  157.9408 H   0  0  0  0  0  0  0  0  0  0  0  0
  152.0876  144.0807  156.6969 H   0  0  0  0  0  0  0  0  0  0  0  0
  150.3904  144.4706  156.8321 H   0  0  0  0  0  0  0  0  0  0  0  0
  151.7208  145.5672  158.6314 H   0  0  0  0  0  0  0  0  0  0  0  0
  150.5289  144.4751  159.2956 H   0  0  0  0  0  0  0  0  0  0  0  0
  153.5076  143.8851  158.9278 H   0  0  0  0  0  0  0  0  0  0  0  0
  152.6894  144.1486  160.4498 H   0  0  0  0  0  0  0  0  0  0  0  0
  153.0455  141.7260  160.0230 H   0  0  0  0  0  0  0  0  0  0  0  0
  151.3458  142.1023  160.1463 H   0  0  0  0  0  0  0  0  0  0  0  0
  152.8907  141.6932  157.5300 H   0  0  0  0  0  0  0  0  0  0  0  0
  151.2608  139.6227  156.3368 H   0  0  0  0  0  0  0  0  0  0  0  0
  152.9392  139.6447  156.8583 H   0  0  0  0  0  0  0  0  0  0  0  0
  152.1866  137.3168  156.8814 H   0  0  0  0  0  0  0  0  0  0  0  0
  152.3794  137.8330  158.5497 H   0  0  0  0  0  0  0  0  0  0  0  0
  149.7510  137.7255  157.1449 H   0  0  0  0  0  0  0  0  0  0  0  0
  147.8643  137.8840  158.9825 H   0  0  0  0  0  0  0  0  0  0  0  0
  148.1832  136.3124  158.3144 H   0  0  0  0  0  0  0  0  0  0  0  0
  146.7936  135.0675  163.8351 H   0  0  0  0  0  0  0  0  0  0  0  0
  147.1482  133.5242  162.0324 H   0  0  0  0  0  0  0  0  0  0  0  0
  1  2  1  0  0  0  0
  1 23  1  0  0  0  0
  1 24  1  0  0  0  0
  1 25  1  0  0  0  0
  2  7  1  0  0  0  0
  2  3  1  0  0  0  0
  2 26  1  0  0  0  0
  3  4  1  0  0  0  0
  3 27  1  0  0  0  0
  3 28  1  0  0  0  0
  4  5  1  0  0  0  0
  4 29  1  0  0  0  0
  4 30  1  0  0  0  0
  5  6  1  0  0  0  0
  5 31  1  0  0  0  0
  5 32  1  0  0  0  0
  6  7  1  0  0  0  0
  6 33  1  0  0  0  0
  6 34  1  0  0  0  0
  7  8  1  0  0  0  0
  7 35  1  0  0  0  0
  8  9  1  0  0  0  0
  9 10  1  0  0  0  0
  9 36  1  0  0  0  0
  9 37  1  0  0  0  0
 10 11  1  0  0  0  0
 10 38  1  0  0  0  0
 10 39  1  0  0  0  0
 11 12  1  0  0  0  0
 11 40  1  0  0  0  0
 12 13  2  0  0  0  0
 12 14  1  0  0  0  0
 14 41  1  0  0  0  0
 14 42  1  0  0  0  0
 14 15  1  0  0  0  0
 15 16  1  0  0  0  0
 15 21  1  0  0  0  0
 16 17  1  0  0  0  0
 17 18  2  0  0  0  0
 17 19  1  0  0  0  0
 19 43  1  0  0  0  0
 19 20  2  0  0  0  0
 20 44  1  0  0  0  0
 20 21  1  0  0  0  0
 21 22  2  0  0  0  0
M  CHG  1  16  -1
M  END
> <s_m_source_file>
AV-unprocessed.smi

> <i_m_source_file_index>
670

> <i_lp_mmshare_version>
43012

> <i_f3d_flags>
0

> <s_epik_input>
W0NIM11bQ0BASF0xW0NIMl1bQ0gyXVtDSDJdW0NIMl1bQ0BIXTFPW0NIMl1bQ0gyXVtOSF1DKD1PKVtDSDJdbjJbbkhdYyg9TylbY0hdW2NIXWMyPU8=

> <s_epik_cmdline>
J2VwaWtfcHl0aG9uJywgJy1waCcsICc3LjAnLCAnLXRuJywgJzgnLCAnLW1hJywgJzIwMCcsICctbWV0YWxfYmluZGluZycsICctaW1hZScsICc8aW5maWxlLm1hZT4nLCAnLW9tYWUnLCAnPG91dGZpbGUubWFlPic=

> <r_lp_tautomer_probability>
1

> <r_epik_Ionization_Penalty>
0.0975638

> <r_epik_Ionization_Penalty_Charging>
0.0975637

> <r_epik_Ionization_Penalty_Neutral>
2.78599e-08

> <r_epik_State_Penalty>
0.0343507

> <r_epik_Charging_Adjusted_Penalty>
0.131914

> <i_epik_Tot_Q>
-1

> <i_epik_Tot_abs_Q>
1

> <r_epik_Metal_State_Penalty>
0.0343507

> <b_epik_Metal_Only>
0

> <s_lp_Force_Field>
OPLS_2005

> <r_lp_Energy>
26.6339

> <b_lp_Chiralities_Consistent>
1

> <s_lp_Variant>
AV-unprocessed.smi:670-1

> <Gold.Version>
5.8.1

> <Gold.Id.Protein>
6NUR|6NUR_protein|mol2

> <Gold.PLP.Fitness>
56.0883

> <Gold.PLP.PLP>
-45.2349

> <Gold.PLP.part.hbond>
-3.9371

> <Gold.PLP.part.metal>
0.0000

> <Gold.PLP.part.buried>
-2.9698

> <Gold.PLP.part.nonpolar>
-38.7936

> <Gold.PLP.part.repulsive>
0.1141

> <Gold.PLP.ligand.clash>
0.0000

> <Gold.PLP.ligand.torsion>
0.8154

> <Gold.PLP.Chemscore.Hbond>
4.1440

> <Gold.PLP.Chemscore.CHOScore>
0.0000

> <Gold.PLP.Chemscore.Metal>
0.0000

> <Gold.Chemscore.Hbonds>
donor molecule, donor type, donor heavy atom, donor atom, acceptor molecule, acceptor atom, score
      P1  H  6896  6909       L1    13  0.67
      P1  H  6931  6943       L1    16  1.95
      P1  H  6934  6947       L1    16  1.41

> <Gold.PLP.Chemscore.Internal.Correction>
0.0521

> <Gold.Rescore>
     Score         DG    S(hbond)    S(metal)    S(lipo)     H(rot)  DE(clash)    DE(int)     intcor
     16.15     -17.40       2.21        0.00      92.46       2.45       0.44       0.81       ----

> <Gold.Chemscore.Fitness>
16.1522

> <Gold.Chemscore.DG>
-17.3990

> <Gold.Chemscore.ZeroCoef>
-5.4800

> <Gold.Chemscore.Hbond>
2.2069

> <Gold.Chemscore.Metal>
0.0000

> <Gold.Chemscore.Lipo>
92.4569

> <Gold.Chemscore.Internal_Hbond>
0.0000

> <Gold.Chemscore.DEClash>
0.4368

> <Gold.Chemscore.DEInternal>
0.8100

> <Gold.Chemscore.Rot>
2.4490

> <Gold.Chemscore.Internal.Correction>
   9.000000E+99

> <Gold.Chemscore.Hbonds>
donor molecule, donor type, donor heavy atom, donor atom, acceptor molecule, acceptor atom, score
      P1  H  6896  6909       L1    13  0.13
      P1  H  6931  6943       L1    16  0.31
      P1  H  6934  6947       L1    16  0.60

> <Gold.Chemscore.Hbond.Weighted>
-7.3710

> <Gold.Chemscore.Metal.Weighted>
-0.0000

> <Gold.Chemscore.Lipo.Weighted>
-10.8175

> <Gold.Chemscore.Internal_Hbond.Weighted>
0.0000

> <Gold.Chemscore.DEClash.Weighted>
0.4368

> <Gold.Chemscore.DEInternal.Weighted>
0.8100

> <Gold.Chemscore.Rot.Weighted>
6.2694

> <Gold.Chemscore.Internal.Correction.Weighted>
   9.000000E+99

> <Gold.Protein.RotatedTorsions>
[ 6907 6896 6895 6894 ] final   92.31 input  -60.11 | X-H torsion
[ 7974 7965 7964 7962 ] final  -66.55 input  175.53 | X-H torsion
[ 8008 7997 7996 7995 ] final   -6.53 input   59.86 | X-H torsion
[ 10167 10162 10161 10158 ] final   48.56 input  -65.29 | X-H torsion
[ 10718 10713 10712 10709 ] final -157.48 input   66.30 | X-H torsion
[ 10763 10752 10751 10750 ] final  -97.15 input  -60.55 | X-H torsion
[ 11005 11000 10999 10996 ] final -120.53 input  -57.11 | X-H torsion

> <Gold.Protein.ActiveResidues>
 VAL166  LYS551  ARG553  GLY616  TRP617  ASP618  TYR619  PRO620  LYS621  CYS622 
 ASP623  PHE694  ASN695  SER759  ASP760  ASP761  ALA762  ILE779  LEU786  VAL792 
 PHE793  MET794  SER795  GLU796  ALA797  LYS798  CYS799  TRP800  GLU811  SER814 

> <Gold.Protein.RotatedAtoms>
  152.5452  134.1521  159.8522 H   0  0  0  0  0  0  0  0  0  0  0  0  # atno 6907 bound_to 6896
  151.1547  133.4877  159.2602 H   0  0  0  0  0  0  0  0  0  0  0  0  # atno 6908 bound_to 6896
  151.1435  135.0202  159.8691 H   0  0  0  0  0  0  0  0  0  0  0  0  # atno 6909 bound_to 6896
  145.7403  140.8956  143.0533 H   0  0  0  0  0  0  0  0  0  0  0  0  # atno 7974 bound_to 7965
  154.5928  140.2430  155.7897 H   0  0  0  0  0  0  0  0  0  0  0  0  # atno 8008 bound_to 7997
  156.2259  140.2983  156.0020 H   0  0  0  0  0  0  0  0  0  0  0  0  # atno 8009 bound_to 7997
  155.2344  140.0405  157.2957 H   0  0  0  0  0  0  0  0  0  0  0  0  # atno 8010 bound_to 7997
  140.2920  144.3035  150.6238 H   0  0  0  0  0  0  0  0  0  0  0  0  # atno 10167 bound_to 10162
  156.5408  130.8562  151.2748 H   0  0  0  0  0  0  0  0  0  0  0  0  # atno 10718 bound_to 10713
  154.7303  135.5057  153.8953 H   0  0  0  0  0  0  0  0  0  0  0  0  # atno 10763 bound_to 10752
  153.0943  135.6668  153.9801 H   0  0  0  0  0  0  0  0  0  0  0  0  # atno 10764 bound_to 10752
  153.9604  135.3048  155.3413 H   0  0  0  0  0  0  0  0  0  0  0  0  # atno 10765 bound_to 10752
  141.0137  134.0227  157.3379 H   0  0  0  0  0  0  0  0  0  0  0  0  # atno 11005 bound_to 11000
  144.6872  139.9452  143.7476 LP  0  0  0  0  0  0  0  0  0  0  0  0  # atno 17320 bound_to 7965
  146.0454  139.3460  143.0672 LP  0  0  0  0  0  0  0  0  0  0  0  0  # atno 17321 bound_to 7965
  140.5724  143.2179  151.7575 LP  0  0  0  0  0  0  0  0  0  0  0  0  # atno 17342 bound_to 10162
  139.4935  144.4198  151.9990 LP  0  0  0  0  0  0  0  0  0  0  0  0  # atno 17343 bound_to 10162
  157.7405  130.9852  150.2385 LP  0  0  0  0  0  0  0  0  0  0  0  0  # atno 17370 bound_to 10713
  156.2973  130.3753  149.7784 LP  0  0  0  0  0  0  0  0  0  0  0  0  # atno 17371 bound_to 10713
  139.9104  135.0189  156.7668 LP  0  0  0  0  0  0  0  0  0  0  0  0  # atno 17394 bound_to 11000
  140.6691  133.9576  155.7846 LP  0  0  0  0  0  0  0  0  0  0  0  0  # atno 17395 bound_to 11000

$$$$
