AV-unprocessed.smi:469|AV-procd|sdf|2653|dock3
  -GOLD-   2262023 63D 1   1.00000     0.00000
 Structure written by MMmdl.
 37 38  0  0  0  0  0  0  0  0  1 V2000
  151.2658  143.5031  158.4360 C   0  0  0  0  0  0  0  0  0  0  0  0
  150.6630  142.9572  157.2296 N   0  0  0  0  0  0  0  0  0  0  0  0
  150.7521  141.6730  156.8557 C   0  0  0  0  0  0  0  0  0  0  0  0
  151.3578  140.8234  157.5106 O   0  0  0  0  0  0  0  0  0  0  0  0
  150.0336  141.3054  155.5491 C   0  0  0  0  0  0  0  0  0  0  0  0
  150.2056  139.8969  155.1558 N   0  0  0  0  0  0  0  0  0  0  0  0
  149.0342  139.1286  155.0130 C   0  0  0  0  0  0  0  0  0  0  0  0
  149.0731  137.8444  154.6219 C   0  0  0  0  0  0  0  0  0  0  0  0
  147.5593  136.8496  154.5942 S   0  0  0  0  0  0  0  0  0  0  0  0
  147.9228  135.4929  154.1561 O   0  0  0  0  0  0  0  0  0  0  0  0
  146.8693  137.0422  155.8797 O   0  0  0  0  0  0  0  0  0  0  0  0
  146.5637  137.5433  153.3619 N   0  0  0  0  0  0  0  0  0  0  0  0
  146.8854  138.8991  152.8968 C   0  0  0  0  0  0  0  0  0  0  0  0
  147.0231  138.7929  151.3786 C   0  0  0  0  0  0  0  0  0  0  0  0
  146.0644  137.6659  151.0252 C   0  0  0  0  0  0  0  0  0  0  0  0
  146.2063  136.7068  152.2066 C   0  0  0  0  0  0  0  0  0  0  0  0
  150.3640  137.2277  154.4208 C   0  0  0  0  0  0  0  0  0  0  0  0
  151.4917  137.9479  154.5844 C   0  0  0  0  0  0  0  0  0  0  0  0
  151.4525  139.3652  154.9648 C   0  0  0  0  0  0  0  0  0  0  0  0
  152.4776  140.0327  155.1047 O   0  0  0  0  0  0  0  0  0  0  0  0
  151.0153  144.5597  158.5317 H   0  0  0  0  0  0  0  0  0  0  0  0
  152.3522  143.4108  158.4022 H   0  0  0  0  0  0  0  0  0  0  0  0
  150.8993  142.9845  159.3233 H   0  0  0  0  0  0  0  0  0  0  0  0
  150.1452  143.5947  156.6420 H   0  0  0  0  0  0  0  0  0  0  0  0
  148.9732  141.5347  155.6656 H   0  0  0  0  0  0  0  0  0  0  0  0
  150.3811  141.9668  154.7532 H   0  0  0  0  0  0  0  0  0  0  0  0
  148.1163  139.6456  155.2533 H   0  0  0  0  0  0  0  0  0  0  0  0
  146.0652  139.5651  153.1659 H   0  0  0  0  0  0  0  0  0  0  0  0
  147.7962  139.2776  153.3622 H   0  0  0  0  0  0  0  0  0  0  0  0
  146.7895  139.7261  150.8656 H   0  0  0  0  0  0  0  0  0  0  0  0
  148.0433  138.5084  151.1166 H   0  0  0  0  0  0  0  0  0  0  0  0
  145.0439  138.0483  150.9767 H   0  0  0  0  0  0  0  0  0  0  0  0
  146.2958  137.1961  150.0688 H   0  0  0  0  0  0  0  0  0  0  0  0
  147.0080  135.9935  152.0108 H   0  0  0  0  0  0  0  0  0  0  0  0
  145.2927  136.1448  152.4023 H   0  0  0  0  0  0  0  0  0  0  0  0
  150.4294  136.1873  154.1389 H   0  0  0  0  0  0  0  0  0  0  0  0
  152.4490  137.4719  154.4304 H   0  0  0  0  0  0  0  0  0  0  0  0
  1  2  1  0  0  0  0
  1 21  1  0  0  0  0
  1 22  1  0  0  0  0
  1 23  1  0  0  0  0
  2  3  1  0  0  0  0
  2 24  1  0  0  0  0
  3  4  2  0  0  0  0
  3  5  1  0  0  0  0
  5  6  1  0  0  0  0
  5 25  1  0  0  0  0
  5 26  1  0  0  0  0
  6 19  1  0  0  0  0
  6  7  1  0  0  0  0
  7  8  2  0  0  0  0
  7 27  1  0  0  0  0
  8  9  1  0  0  0  0
  8 17  1  0  0  0  0
  9 10  2  0  0  0  0
  9 11  2  0  0  0  0
  9 12  1  0  0  0  0
 12 16  1  0  0  0  0
 12 13  1  0  0  0  0
 13 14  1  0  0  0  0
 13 28  1  0  0  0  0
 13 29  1  0  0  0  0
 14 15  1  0  0  0  0
 14 30  1  0  0  0  0
 14 31  1  0  0  0  0
 15 16  1  0  0  0  0
 15 32  1  0  0  0  0
 15 33  1  0  0  0  0
 16 34  1  0  0  0  0
 16 35  1  0  0  0  0
 17 18  2  0  0  0  0
 17 36  1  0  0  0  0
 18 19  1  0  0  0  0
 18 37  1  0  0  0  0
 19 20  2  0  0  0  0
M  END
> <s_m_source_file>
AV-unprocessed.smi

> <i_m_source_file_index>
469

> <i_lp_mmshare_version>
43012

> <i_f3d_flags>
0

> <s_epik_input>
W0NIM11bTkhdQyg9TylbQ0gyXW4xW2NIXWMoW2NIXVtjSF1jMT1PKVMoPU8pKD1PKU4yW0NIMl1bQ0gyXVtDSDJdW0NIMl0y

> <s_epik_cmdline>
J2VwaWtfcHl0aG9uJywgJy1waCcsICc3LjAnLCAnLXRuJywgJzgnLCAnLW1hJywgJzIwMCcsICctbWV0YWxfYmluZGluZycsICctaW1hZScsICc8aW5maWxlLm1hZT4nLCAnLW9tYWUnLCAnPG91dGZpbGUubWFlPic=

> <r_lp_tautomer_probability>
1

> <r_epik_Ionization_Penalty>
2.91909e-08

> <r_epik_Ionization_Penalty_Charging>
9.91299e-09

> <r_epik_Ionization_Penalty_Neutral>
1.92779e-08

> <r_epik_State_Penalty>
-0

> <r_epik_Charging_Adjusted_Penalty>
9.91299e-09

> <i_epik_Tot_Q>
0

> <i_epik_Tot_abs_Q>
0

> <r_epik_Metal_State_Penalty>
-0

> <b_epik_Metal_Only>
0

> <s_lp_Force_Field>
OPLS_2005

> <r_lp_Energy>
18.9882

> <b_lp_Chiralities_Consistent>
1

> <s_lp_Variant>
AV-unprocessed.smi:469-1

> <Gold.Version>
5.8.1

> <Gold.Id.Protein>
6NUR|6NUR_protein|mol2

> <Gold.PLP.Fitness>
36.3280

> <Gold.PLP.PLP>
-31.1904

> <Gold.PLP.part.hbond>
-2.7463

> <Gold.PLP.part.metal>
0.0000

> <Gold.PLP.part.buried>
2.3366

> <Gold.PLP.part.nonpolar>
-31.0728

> <Gold.PLP.part.repulsive>
0.2861

> <Gold.PLP.ligand.clash>
0.0000

> <Gold.PLP.ligand.torsion>
1.4374

> <Gold.PLP.Chemscore.Hbond>
1.8523

> <Gold.PLP.Chemscore.CHOScore>
0.0000

> <Gold.PLP.Chemscore.Metal>
0.0000

> <Gold.Chemscore.Hbonds>
donor molecule, donor type, donor heavy atom, donor atom, acceptor molecule, acceptor atom, score
      L1  H     2    24       P1  8028  1.00
      P1  H  7997  8009       L1    20  0.76

> <Gold.PLP.Chemscore.Internal.Correction>
2.4556

> <Gold.Rescore>
     Score         DG    S(hbond)    S(metal)    S(lipo)     H(rot)  DE(clash)    DE(int)     intcor
      9.56     -15.39       1.98        0.00      63.81       1.62       0.26       5.57       ----

> <Gold.Chemscore.Fitness>
9.5608

> <Gold.Chemscore.DG>
-15.3889

> <Gold.Chemscore.ZeroCoef>
-5.4800

> <Gold.Chemscore.Hbond>
1.9750

> <Gold.Chemscore.Metal>
0.0000

> <Gold.Chemscore.Lipo>
63.8138

> <Gold.Chemscore.Internal_Hbond>
0.0000

> <Gold.Chemscore.DEClash>
0.2556

> <Gold.Chemscore.DEInternal>
5.5725

> <Gold.Chemscore.Rot>
1.6226

> <Gold.Chemscore.Internal.Correction>
   9.000000E+99

> <Gold.Chemscore.Hbonds>
donor molecule, donor type, donor heavy atom, donor atom, acceptor molecule, acceptor atom, score
      L1  H     2    24       P1  8028  0.99
      P1  H  7997  8009       L1    20  0.75

> <Gold.Chemscore.Hbond.Weighted>
-6.5965

> <Gold.Chemscore.Metal.Weighted>
-0.0000

> <Gold.Chemscore.Lipo.Weighted>
-7.4662

> <Gold.Chemscore.Internal_Hbond.Weighted>
0.0000

> <Gold.Chemscore.DEClash.Weighted>
0.2556

> <Gold.Chemscore.DEInternal.Weighted>
5.5725

> <Gold.Chemscore.Rot.Weighted>
4.1539

> <Gold.Chemscore.Internal.Correction.Weighted>
   9.000000E+99

> <Gold.Protein.RotatedTorsions>
[ 6907 6896 6895 6894 ] final  144.70 input  -60.11 | X-H torsion
[ 7974 7965 7964 7962 ] final   45.13 input  175.53 | X-H torsion
[ 8008 7997 7996 7995 ] final -134.42 input   59.86 | X-H torsion
[ 10167 10162 10161 10158 ] final    4.79 input  -65.29 | X-H torsion
[ 10718 10713 10712 10709 ] final   78.94 input   66.30 | X-H torsion
[ 10763 10752 10751 10750 ] final  -70.97 input  -60.55 | X-H torsion
[ 11005 11000 10999 10996 ] final  114.68 input  -57.11 | X-H torsion

> <Gold.Protein.ActiveResidues>
 VAL166  LYS551  ARG553  GLY616  TRP617  ASP618  TYR619  PRO620  LYS621  CYS622 
 ASP623  PHE694  ASN695  SER759  ASP760  ASP761  ALA762  ILE779  LEU786  VAL792 
 PHE793  MET794  SER795  GLU796  ALA797  LYS798  CYS799  TRP800  GLU811  SER814 

> <Gold.Protein.RotatedAtoms>
  152.1903  133.4769  159.5004 H   0  0  0  0  0  0  0  0  0  0  0  0  # atno 6907 bound_to 6896
  150.6950  134.1720  159.4225 H   0  0  0  0  0  0  0  0  0  0  0  0  # atno 6908 bound_to 6896
  151.9635  135.0112  160.0599 H   0  0  0  0  0  0  0  0  0  0  0  0  # atno 6909 bound_to 6896
  146.0507  139.4998  142.9720 H   0  0  0  0  0  0  0  0  0  0  0  0  # atno 7974 bound_to 7965
  155.3618  140.0483  157.3046 H   0  0  0  0  0  0  0  0  0  0  0  0  # atno 8008 bound_to 7997
  154.5174  140.2213  155.9003 H   0  0  0  0  0  0  0  0  0  0  0  0  # atno 8009 bound_to 7997
  156.1652  140.3108  155.8881 H   0  0  0  0  0  0  0  0  0  0  0  0  # atno 8010 bound_to 7997
  140.6516  143.7531  150.7584 H   0  0  0  0  0  0  0  0  0  0  0  0  # atno 10167 bound_to 10162
  157.6761  130.9891  150.1859 H   0  0  0  0  0  0  0  0  0  0  0  0  # atno 10718 bound_to 10713
  154.4251  135.5977  153.6034 H   0  0  0  0  0  0  0  0  0  0  0  0  # atno 10763 bound_to 10752
  152.9796  135.5962  154.3907 H   0  0  0  0  0  0  0  0  0  0  0  0  # atno 10764 bound_to 10752
  154.3738  135.2841  155.2230 H   0  0  0  0  0  0  0  0  0  0  0  0  # atno 10765 bound_to 10752
  139.8987  134.9572  156.6929 H   0  0  0  0  0  0  0  0  0  0  0  0  # atno 11005 bound_to 11000
  145.6728  141.0212  143.1648 LP  0  0  0  0  0  0  0  0  0  0  0  0  # atno 17320 bound_to 7965
  144.7121  139.8331  143.7411 LP  0  0  0  0  0  0  0  0  0  0  0  0  # atno 17321 bound_to 7965
  140.1182  143.4636  152.2329 LP  0  0  0  0  0  0  0  0  0  0  0  0  # atno 17342 bound_to 10162
  139.5732  144.7474  151.3835 LP  0  0  0  0  0  0  0  0  0  0  0  0  # atno 17343 bound_to 10162
  156.2581  130.3708  149.8160 LP  0  0  0  0  0  0  0  0  0  0  0  0  # atno 17370 bound_to 10713
  156.5913  130.8507  151.3408 LP  0  0  0  0  0  0  0  0  0  0  0  0  # atno 17371 bound_to 10713
  140.7211  133.9140  155.8147 LP  0  0  0  0  0  0  0  0  0  0  0  0  # atno 17394 bound_to 11000
  141.0227  134.0867  157.4103 LP  0  0  0  0  0  0  0  0  0  0  0  0  # atno 17395 bound_to 11000

$$$$
