AV-unprocessed.smi:265|AV-procd|sdf|2016|dock4
  -GOLD-   2262021213D 1   1.00000     0.00000
 Structure written by MMmdl.
 52 56  0  0  0  0  0  0  0  0  1 V2000
  145.2724  135.2289  150.5981 C   0  0  0  0  0  0  0  0  0  0  0  0
  145.1992  133.9483  151.4439 C   0  0  1  0  0  0  0  0  0  0  0  0
  143.9884  133.2346  151.1972 O   0  0  0  0  0  0  0  0  0  0  0  0
  144.2552  131.8476  151.0235 C   0  0  0  0  0  0  0  0  0  0  0  0
  145.6475  131.6308  151.6069 C   0  0  0  0  0  0  0  0  0  0  0  0
  146.3536  132.9361  151.2663 C   0  0  1  0  0  0  0  0  0  0  0  0
  146.7615  132.8882  149.9090 O   0  0  0  0  0  0  0  0  0  0  0  0
  147.6352  133.2333  152.0866 C   0  0  0  0  0  0  0  0  0  0  0  0
  147.4376  133.3348  153.5240 N   0  0  0  0  0  0  0  0  0  0  0  0
  146.2344  133.3365  154.1950 C   0  0  0  0  0  0  0  0  0  0  0  0
  146.3189  133.4508  155.4926 N   0  0  0  0  0  0  0  0  0  0  0  0
  147.6828  133.5547  155.7311 C   0  0  0  0  0  0  0  0  0  0  0  0
  148.4699  133.7143  156.9005 C   0  0  0  0  0  0  0  0  0  0  0  0
  147.9159  133.7916  158.1283 N   0  0  0  0  0  0  0  0  0  0  0  0
  148.0522  132.5582  158.9030 C   0  0  0  0  0  0  0  0  0  0  0  0
  147.2148  132.6204  160.1949 C   0  0  0  0  0  0  0  0  0  0  0  0
  147.5728  133.8835  160.9915 C   0  0  2  0  0  0  0  0  0  0  0  0
  146.7436  134.0453  162.1322 O   0  0  0  0  0  0  0  0  0  0  0  0
  147.1464  135.1254  162.9817 C   0  0  0  0  0  0  0  0  0  0  0  0
  147.4506  136.4227  162.2013 C   0  0  0  0  0  0  0  0  0  0  0  0
  147.5748  137.4853  162.8057 O   0  0  0  0  0  0  0  0  0  0  0  0
  147.6132  136.3396  160.8706 N   0  0  0  0  0  0  0  0  0  0  0  0
  147.3534  135.1243  160.1110 C   0  0  1  0  0  0  0  0  0  0  0  0
  148.2231  135.0273  158.8480 C   0  0  0  0  0  0  0  0  0  0  0  0
  149.8194  133.7867  156.7585 N   0  0  0  0  0  0  0  0  0  0  0  0
  150.3644  133.7109  155.5401 C   0  0  0  0  0  0  0  0  0  0  0  0
  149.7560  133.5658  154.3601 N   0  0  0  0  0  0  0  0  0  0  0  0
  148.4014  133.4893  154.5055 C   0  0  0  0  0  0  0  0  0  0  0  0
  148.6162  133.8148  161.3078 H   0  0  0  0  0  0  0  0  0  0  0  0
  146.3056  135.1636  159.8075 H   0  0  0  0  0  0  0  0  0  0  0  0
  146.2002  135.7696  150.7860 H   0  0  0  0  0  0  0  0  0  0  0  0
  144.4454  135.8971  150.8383 H   0  0  0  0  0  0  0  0  0  0  0  0
  145.2175  135.0121  149.5310 H   0  0  0  0  0  0  0  0  0  0  0  0
  145.1354  134.2396  152.4910 H   0  0  0  0  0  0  0  0  0  0  0  0
  143.4972  131.2315  151.5071 H   0  0  0  0  0  0  0  0  0  0  0  0
  144.2470  131.6193  149.9569 H   0  0  0  0  0  0  0  0  0  0  0  0
  145.5516  131.5077  152.6853 H   0  0  0  0  0  0  0  0  0  0  0  0
  146.1467  130.7451  151.2123 H   0  0  0  0  0  0  0  0  0  0  0  0
  147.4114  132.2087  149.8149 H   0  0  0  0  0  0  0  0  0  0  0  0
  148.3781  132.4544  151.9077 H   0  0  0  0  0  0  0  0  0  0  0  0
  148.0880  134.1647  151.7435 H   0  0  0  0  0  0  0  0  0  0  0  0
  145.2848  133.2448  153.6876 H   0  0  0  0  0  0  0  0  0  0  0  0
  147.7380  131.7051  158.2999 H   0  0  0  0  0  0  0  0  0  0  0  0
  149.1033  132.4030  159.1508 H   0  0  0  0  0  0  0  0  0  0  0  0
  146.1533  132.6289  159.9440 H   0  0  0  0  0  0  0  0  0  0  0  0
  147.3871  131.7294  160.7988 H   0  0  0  0  0  0  0  0  0  0  0  0
  146.3604  135.3117  163.7139 H   0  0  0  0  0  0  0  0  0  0  0  0
  148.0395  134.8329  163.5352 H   0  0  0  0  0  0  0  0  0  0  0  0
  147.8451  137.1764  160.3553 H   0  0  0  0  0  0  0  0  0  0  0  0
  149.2805  135.0455  159.1164 H   0  0  0  0  0  0  0  0  0  0  0  0
  148.0386  135.8850  158.1993 H   0  0  0  0  0  0  0  0  0  0  0  0
  151.4421  133.7769  155.5053 H   0  0  0  0  0  0  0  0  0  0  0  0
  1  2  1  0  0  0  0
  1 31  1  0  0  0  0
  1 32  1  0  0  0  0
  1 33  1  0  0  0  0
  2  6  1  0  0  0  0
  2  3  1  0  0  0  0
  2 34  1  0  0  0  0
  3  4  1  0  0  0  0
  4  5  1  0  0  0  0
  4 35  1  0  0  0  0
  4 36  1  0  0  0  0
  5  6  1  0  0  0  0
  5 37  1  0  0  0  0
  5 38  1  0  0  0  0
  6  7  1  0  0  0  0
  6  8  1  0  0  0  0
  7 39  1  0  0  0  0
  8  9  1  0  0  0  0
  8 40  1  0  0  0  0
  8 41  1  0  0  0  0
  9 28  1  0  0  0  0
  9 10  1  0  0  0  0
 10 11  2  0  0  0  0
 10 42  1  0  0  0  0
 11 12  1  0  0  0  0
 12 28  2  0  0  0  0
 12 13  1  0  0  0  0
 13 14  1  0  0  0  0
 13 25  2  0  0  0  0
 14 24  1  0  0  0  0
 14 15  1  0  0  0  0
 15 16  1  0  0  0  0
 15 43  1  0  0  0  0
 15 44  1  0  0  0  0
 16 17  1  0  0  0  0
 16 45  1  0  0  0  0
 16 46  1  0  0  0  0
 17 29  1  0  0  0  0
 17 23  1  0  0  0  0
 17 18  1  0  0  0  0
 18 19  1  0  0  0  0
 19 20  1  0  0  0  0
 19 47  1  0  0  0  0
 19 48  1  0  0  0  0
 20 21  2  0  0  0  0
 20 22  1  0  0  0  0
 22 23  1  0  0  0  0
 22 49  1  0  0  0  0
 23 30  1  0  0  0  0
 23 24  1  0  0  0  0
 24 50  1  0  0  0  0
 24 51  1  0  0  0  0
 25 26  1  0  0  0  0
 26 27  2  0  0  0  0
 26 52  1  0  0  0  0
 27 28  1  0  0  0  0
M  END
> <s_m_source_file>
AV-unprocessed.smi

> <i_m_source_file_index>
265

> <i_lp_mmshare_version>
43012

> <i_f3d_flags>
0

> <s_epik_input>
W0NIMl0xW0NIMl1PW0NAQEhdKFtDSDNdKVtDQEBdMShbT0hdKVtDSDJdbihbY0hdbjIpYyhjMjMpbltjSF1uYzNOKFtDSDJdW0NIMl00KVtDSDJdW0NAQEhdKFtDQEhdNDUpW05IXUMoPU8pW0NIMl1PNQ==

> <s_epik_cmdline>
J2VwaWtfcHl0aG9uJywgJy1waCcsICc3LjAnLCAnLXRuJywgJzgnLCAnLW1hJywgJzIwMCcsICctbWV0YWxfYmluZGluZycsICctaW1hZScsICc8aW5maWxlLm1hZT4nLCAnLW9tYWUnLCAnPG91dGZpbGUubWFlPic=

> <r_lp_tautomer_probability>
1

> <r_epik_Ionization_Penalty>
0.00221504

> <r_epik_Ionization_Penalty_Charging>
0

> <r_epik_Ionization_Penalty_Neutral>
0.00221504

> <r_epik_State_Penalty>
-0

> <r_epik_Charging_Adjusted_Penalty>
0

> <i_epik_Tot_Q>
0

> <i_epik_Tot_abs_Q>
0

> <r_epik_Metal_State_Penalty>
-0

> <b_epik_Metal_Only>
0

> <s_lp_Force_Field>
OPLS_2005

> <r_lp_Energy>
49.8504

> <b_lp_Chiralities_Consistent>
1

> <s_lp_Variant>
AV-unprocessed.smi:265-2

> <Gold.Version>
5.8.1

> <Gold.Id.Protein>
6NUR|6NUR_protein|mol2

> <Gold.PLP.Fitness>
45.1514

> <Gold.PLP.PLP>
-40.5329

> <Gold.PLP.part.hbond>
-4.5205

> <Gold.PLP.part.metal>
0.0000

> <Gold.PLP.part.buried>
-4.7638

> <Gold.PLP.part.nonpolar>
-31.2738

> <Gold.PLP.part.repulsive>
0.5217

> <Gold.PLP.ligand.clash>
0.0000

> <Gold.PLP.ligand.torsion>
0.2570

> <Gold.PLP.Chemscore.Hbond>
1.6339

> <Gold.PLP.Chemscore.CHOScore>
0.0000

> <Gold.PLP.Chemscore.Metal>
0.0000

> <Gold.Chemscore.Hbonds>
donor molecule, donor type, donor heavy atom, donor atom, acceptor molecule, acceptor atom, score
      L1  H     7    39       P1 10747  0.83
      P1  H  6931  6943       L1    21  0.59

> <Gold.PLP.Chemscore.Internal.Correction>
0.2310

> <Gold.Rescore>
     Score         DG    S(hbond)    S(metal)    S(lipo)     H(rot)  DE(clash)    DE(int)     intcor
     11.16     -12.44       1.18        0.00      74.98       2.25       0.03       1.25       ----

> <Gold.Chemscore.Fitness>
11.1645

> <Gold.Chemscore.DG>
-12.4439

> <Gold.Chemscore.ZeroCoef>
-5.4800

> <Gold.Chemscore.Hbond>
1.1796

> <Gold.Chemscore.Metal>
0.0000

> <Gold.Chemscore.Lipo>
74.9754

> <Gold.Chemscore.Internal_Hbond>
0.0000

> <Gold.Chemscore.DEClash>
0.0344

> <Gold.Chemscore.DEInternal>
1.2451

> <Gold.Chemscore.Rot>
2.2453

> <Gold.Chemscore.Internal.Correction>
   9.000000E+99

> <Gold.Chemscore.Hbonds>
donor molecule, donor type, donor heavy atom, donor atom, acceptor molecule, acceptor atom, score
      L1  H     7    39       P1 10747  0.80
      P1  H  6931  6943       L1    21  0.24
      P1  H  6934  6947       L1    21  0.01

> <Gold.Chemscore.Hbond.Weighted>
-3.9397

> <Gold.Chemscore.Metal.Weighted>
-0.0000

> <Gold.Chemscore.Lipo.Weighted>
-8.7721

> <Gold.Chemscore.Internal_Hbond.Weighted>
0.0000

> <Gold.Chemscore.DEClash.Weighted>
0.0344

> <Gold.Chemscore.DEInternal.Weighted>
1.2451

> <Gold.Chemscore.Rot.Weighted>
5.7479

> <Gold.Chemscore.Internal.Correction.Weighted>
   9.000000E+99

> <Gold.Protein.RotatedTorsions>
[ 6907 6896 6895 6894 ] final  171.40 input  -60.11 | X-H torsion
[ 7974 7965 7964 7962 ] final   16.52 input  175.53 | X-H torsion
[ 8008 7997 7996 7995 ] final  138.68 input   59.86 | X-H torsion
[ 10167 10162 10161 10158 ] final  -20.40 input  -65.29 | X-H torsion
[ 10718 10713 10712 10709 ] final   95.80 input   66.30 | X-H torsion
[ 10763 10752 10751 10750 ] final  139.21 input  -60.55 | X-H torsion
[ 11005 11000 10999 10996 ] final -173.81 input  -57.11 | X-H torsion

> <Gold.Protein.ActiveResidues>
 VAL166  LYS551  ARG553  GLY616  TRP617  ASP618  TYR619  PRO620  LYS621  CYS622 
 ASP623  PHE694  ASN695  SER759  ASP760  ASP761  ALA762  ILE779  LEU786  VAL792 
 PHE793  MET794  SER795  GLU796  ALA797  LYS798  CYS799  TRP800  GLU811  SER814 

> <Gold.Protein.RotatedAtoms>
  151.8008  133.3370  159.3526 H   0  0  0  0  0  0  0  0  0  0  0  0  # atno 6907 bound_to 6896
  150.7359  134.5755  159.5921 H   0  0  0  0  0  0  0  0  0  0  0  0  # atno 6908 bound_to 6896
  152.3144  134.7459  160.0380 H   0  0  0  0  0  0  0  0  0  0  0  0  # atno 6909 bound_to 6896
  146.2247  139.8736  142.8583 H   0  0  0  0  0  0  0  0  0  0  0  0  # atno 7974 bound_to 7965
  156.2995  140.2387  156.4113 H   0  0  0  0  0  0  0  0  0  0  0  0  # atno 8008 bound_to 7997
  154.8438  140.0427  157.1579 H   0  0  0  0  0  0  0  0  0  0  0  0  # atno 8009 bound_to 7997
  154.9073  140.2985  155.5289 H   0  0  0  0  0  0  0  0  0  0  0  0  # atno 8010 bound_to 7997
  140.7276  143.4726  151.0226 H   0  0  0  0  0  0  0  0  0  0  0  0  # atno 10167 bound_to 10162
  157.6934  131.0557  150.4394 H   0  0  0  0  0  0  0  0  0  0  0  0  # atno 10718 bound_to 10713
  153.9024  135.3020  155.3448 H   0  0  0  0  0  0  0  0  0  0  0  0  # atno 10763 bound_to 10752
  154.7664  135.4908  153.9565 H   0  0  0  0  0  0  0  0  0  0  0  0  # atno 10764 bound_to 10752
  153.1238  135.6788  153.9392 H   0  0  0  0  0  0  0  0  0  0  0  0  # atno 10765 bound_to 10752
  140.4816  134.6070  157.4921 H   0  0  0  0  0  0  0  0  0  0  0  0  # atno 11005 bound_to 11000
  145.2584  141.0068  143.3841 LP  0  0  0  0  0  0  0  0  0  0  0  0  # atno 17320 bound_to 7965
  144.9318  139.4289  143.6491 LP  0  0  0  0  0  0  0  0  0  0  0  0  # atno 17321 bound_to 7965
  139.8419  143.7552  152.3180 LP  0  0  0  0  0  0  0  0  0  0  0  0  # atno 17342 bound_to 10162
  139.7704  144.7478  151.0233 LP  0  0  0  0  0  0  0  0  0  0  0  0  # atno 17343 bound_to 10162
  156.4754  130.4062  149.6493 LP  0  0  0  0  0  0  0  0  0  0  0  0  # atno 17370 bound_to 10713
  156.3558  130.7456  151.2422 LP  0  0  0  0  0  0  0  0  0  0  0  0  # atno 17371 bound_to 10713
  139.9823  134.7117  155.9837 LP  0  0  0  0  0  0  0  0  0  0  0  0  # atno 17394 bound_to 11000
  141.1528  133.6546  156.4068 LP  0  0  0  0  0  0  0  0  0  0  0  0  # atno 17395 bound_to 11000

$$$$
