AV-unprocessed.smi:961|AV-procd|sdf|4274|dock2
  -GOLD-   22720 2183D 1   1.00000     0.00000
 Structure written by MMmdl.
 37 38  0  0  0  0  0  0  0  0  1 V2000
  154.3417  141.5981  159.7920 C   0  0  0  0  0  0  0  0  0  0  0  0
  152.9604  142.2662  159.6449 C   0  0  0  0  0  0  0  0  0  0  0  0
  152.3968  142.6185  161.0357 C   0  0  0  0  0  0  0  0  0  0  0  0
  153.1493  143.5827  158.8607 C   0  0  0  0  0  0  0  0  0  0  0  0
  152.0096  141.3316  158.9236 C   0  0  0  0  0  0  0  0  0  0  0  0
  151.2435  141.5936  157.8104 C   0  0  0  0  0  0  0  0  0  0  0  0
  150.2905  140.2195  157.3231 S   0  0  0  0  0  0  0  0  0  0  0  0
  150.9816  139.3086  158.6566 C   0  0  0  0  0  0  0  0  0  0  0  0
  150.6005  137.9011  158.9687 C   0  0  0  0  0  0  0  0  0  0  0  0
  149.0770  137.6977  158.9803 C   0  0  0  0  0  0  0  0  0  0  0  0
  148.7056  136.4513  159.6399 N   0  0  0  0  0  0  0  0  0  0  0  0
  148.0054  136.3623  160.7808 C   0  0  0  0  0  0  0  0  0  0  0  0
  147.5991  137.3486  161.3971 O   0  0  0  0  0  0  0  0  0  0  0  0
  147.7595  134.9603  161.2337 C   0  0  0  0  0  0  0  0  0  0  0  0
  146.3191  134.5230  161.4074 C   0  0  0  0  0  0  0  0  0  0  0  0
  147.1834  134.7585  162.6207 C   0  0  0  0  0  0  0  0  0  0  0  0
  151.8365  140.0223  159.3926 N   0  0  0  0  0  0  0  0  0  0  0  0
  155.0504  142.2561  160.2961 H   0  0  0  0  0  0  0  0  0  0  0  0
  154.7639  141.3433  158.8192 H   0  0  0  0  0  0  0  0  0  0  0  0
  154.2841  140.6783  160.3752 H   0  0  0  0  0  0  0  0  0  0  0  0
  152.2836  141.7319  161.6604 H   0  0  0  0  0  0  0  0  0  0  0  0
  151.4173  143.0917  160.9575 H   0  0  0  0  0  0  0  0  0  0  0  0
  153.0536  143.3073  161.5683 H   0  0  0  0  0  0  0  0  0  0  0  0
  153.8326  144.2576  159.3774 H   0  0  0  0  0  0  0  0  0  0  0  0
  152.2046  144.1136  158.7356 H   0  0  0  0  0  0  0  0  0  0  0  0
  153.5632  143.4024  157.8678 H   0  0  0  0  0  0  0  0  0  0  0  0
  151.1764  142.5108  157.2448 H   0  0  0  0  0  0  0  0  0  0  0  0
  151.0668  137.2485  158.2298 H   0  0  0  0  0  0  0  0  0  0  0  0
  151.0242  137.6289  159.9365 H   0  0  0  0  0  0  0  0  0  0  0  0
  148.5976  138.5191  159.5132 H   0  0  0  0  0  0  0  0  0  0  0  0
  148.6814  137.7142  157.9632 H   0  0  0  0  0  0  0  0  0  0  0  0
  149.0023  135.5941  159.1964 H   0  0  0  0  0  0  0  0  0  0  0  0
  148.4600  134.2046  160.8808 H   0  0  0  0  0  0  0  0  0  0  0  0
  145.5285  135.2450  161.2087 H   0  0  0  0  0  0  0  0  0  0  0  0
  146.0802  133.4957  161.1405 H   0  0  0  0  0  0  0  0  0  0  0  0
  147.5307  133.8905  163.1773 H   0  0  0  0  0  0  0  0  0  0  0  0
  146.9648  135.6358  163.2274 H   0  0  0  0  0  0  0  0  0  0  0  0
  1  2  1  0  0  0  0
  1 18  1  0  0  0  0
  1 19  1  0  0  0  0
  1 20  1  0  0  0  0
  2  3  1  0  0  0  0
  2  4  1  0  0  0  0
  2  5  1  0  0  0  0
  3 21  1  0  0  0  0
  3 22  1  0  0  0  0
  3 23  1  0  0  0  0
  4 24  1  0  0  0  0
  4 25  1  0  0  0  0
  4 26  1  0  0  0  0
  5 17  1  0  0  0  0
  5  6  2  0  0  0  0
  6  7  1  0  0  0  0
  6 27  1  0  0  0  0
  7  8  1  0  0  0  0
  8  9  1  0  0  0  0
  8 17  2  0  0  0  0
  9 10  1  0  0  0  0
  9 28  1  0  0  0  0
  9 29  1  0  0  0  0
 10 11  1  0  0  0  0
 10 30  1  0  0  0  0
 10 31  1  0  0  0  0
 11 12  1  0  0  0  0
 11 32  1  0  0  0  0
 12 13  2  0  0  0  0
 12 14  1  0  0  0  0
 14 16  1  0  0  0  0
 14 15  1  0  0  0  0
 14 33  1  0  0  0  0
 15 16  1  0  0  0  0
 15 34  1  0  0  0  0
 15 35  1  0  0  0  0
 16 36  1  0  0  0  0
 16 37  1  0  0  0  0
M  END
> <s_m_source_file>
AV-unprocessed.smi

> <i_m_source_file_index>
961

> <i_lp_mmshare_version>
43012

> <i_f3d_flags>
0

> <s_epik_input>
W0NIM11DKFtDSDNdKShbQ0gzXSljMVtjSF1zYyhuMSlbQ0gyXVtDSDJdW05IXUMoPU8pW0NIXTJbQ0gyXVtDSDJdMg==

> <s_epik_cmdline>
J2VwaWtfcHl0aG9uJywgJy1waCcsICc3LjAnLCAnLXRuJywgJzgnLCAnLW1hJywgJzIwMCcsICctbWV0YWxfYmluZGluZycsICctaW1hZScsICc8aW5maWxlLm1hZT4nLCAnLW9tYWUnLCAnPG91dGZpbGUubWFlPic=

> <r_epik_Ionization_Penalty>
0.000842111

> <r_epik_Ionization_Penalty_Charging>
0

> <r_epik_Ionization_Penalty_Neutral>
0.000842111

> <r_epik_State_Penalty>
0.000542609

> <r_epik_Charging_Adjusted_Penalty>
0.000542609

> <i_epik_Tot_Q>
0

> <i_epik_Tot_abs_Q>
0

> <r_epik_Metal_State_Penalty>
-0

> <b_epik_Metal_Only>
0

> <s_lp_Force_Field>
OPLS_2005

> <r_lp_Energy>
-3.24501

> <b_lp_Chiralities_Consistent>
1

> <s_lp_Variant>
AV-unprocessed.smi:961-1

> <Gold.Version>
5.8.1

> <Gold.Id.Protein>
6NUR|6NUR_protein|mol2

> <Gold.PLP.Fitness>
40.3570

> <Gold.PLP.PLP>
-35.7361

> <Gold.PLP.part.hbond>
-2.0000

> <Gold.PLP.part.metal>
0.0000

> <Gold.PLP.part.buried>
-4.5503

> <Gold.PLP.part.nonpolar>
-29.3359

> <Gold.PLP.part.repulsive>
0.1856

> <Gold.PLP.ligand.clash>
0.0000

> <Gold.PLP.ligand.torsion>
0.4610

> <Gold.PLP.Chemscore.Hbond>
1.8080

> <Gold.PLP.Chemscore.CHOScore>
0.0000

> <Gold.PLP.Chemscore.Metal>
0.0000

> <Gold.Chemscore.Hbonds>
donor molecule, donor type, donor heavy atom, donor atom, acceptor molecule, acceptor atom, score
      P1  H  6931  6943       L1    13  0.88
      P1  H  6934  6947       L1    13  0.82

> <Gold.PLP.Chemscore.Internal.Correction>
0.1189

> <Gold.Rescore>
     Score         DG    S(hbond)    S(metal)    S(lipo)     H(rot)  DE(clash)    DE(int)     intcor
     18.02     -18.45       1.72        0.00      95.42       1.54       0.00       0.43       ----

> <Gold.Chemscore.Fitness>
18.0151

> <Gold.Chemscore.DG>
-18.4454

> <Gold.Chemscore.ZeroCoef>
-5.4800

> <Gold.Chemscore.Hbond>
1.7169

> <Gold.Chemscore.Metal>
0.0000

> <Gold.Chemscore.Lipo>
95.4200

> <Gold.Chemscore.Internal_Hbond>
0.0000

> <Gold.Chemscore.DEClash>
0.0048

> <Gold.Chemscore.DEInternal>
0.4255

> <Gold.Chemscore.Rot>
1.5364

> <Gold.Chemscore.Internal.Correction>
   9.000000E+99

> <Gold.Chemscore.Hbonds>
donor molecule, donor type, donor heavy atom, donor atom, acceptor molecule, acceptor atom, score
      P1  H  6931  6943       L1    13  0.52
      P1  H  6934  6947       L1    13  0.81

> <Gold.Chemscore.Hbond.Weighted>
-5.7345

> <Gold.Chemscore.Metal.Weighted>
-0.0000

> <Gold.Chemscore.Lipo.Weighted>
-11.1641

> <Gold.Chemscore.Internal_Hbond.Weighted>
0.0000

> <Gold.Chemscore.DEClash.Weighted>
0.0048

> <Gold.Chemscore.DEInternal.Weighted>
0.4255

> <Gold.Chemscore.Rot.Weighted>
3.9332

> <Gold.Chemscore.Internal.Correction.Weighted>
   9.000000E+99

> <Gold.Protein.RotatedTorsions>
[ 6907 6896 6895 6894 ] final  172.62 input  -60.11 | X-H torsion
[ 7974 7965 7964 7962 ] final  -37.47 input  175.53 | X-H torsion
[ 8008 7997 7996 7995 ] final -119.92 input   59.86 | X-H torsion
[ 10167 10162 10161 10158 ] final   59.39 input  -65.29 | X-H torsion
[ 10718 10713 10712 10709 ] final   52.81 input   66.30 | X-H torsion
[ 10763 10752 10751 10750 ] final   55.67 input  -60.55 | X-H torsion
[ 11005 11000 10999 10996 ] final  -39.35 input  -57.11 | X-H torsion

> <Gold.Protein.ActiveResidues>
 VAL166  LYS551  ARG553  GLY616  TRP617  ASP618  TYR619  PRO620  LYS621  CYS622 
 ASP623  PHE694  ASN695  SER759  ASP760  ASP761  ALA762  ILE779  LEU786  VAL792 
 PHE793  MET794  SER795  GLU796  ALA797  LYS798  CYS799  TRP800  GLU811  SER814 

> <Gold.Protein.RotatedAtoms>
  151.7813  133.3350  159.3472 H   0  0  0  0  0  0  0  0  0  0  0  0  # atno 6907 bound_to 6896
  150.7425  134.5928  159.6005 H   0  0  0  0  0  0  0  0  0  0  0  0  # atno 6908 bound_to 6896
  152.3274  134.7305  160.0350 H   0  0  0  0  0  0  0  0  0  0  0  0  # atno 6909 bound_to 6896
  146.0572  140.6400  142.9014 H   0  0  0  0  0  0  0  0  0  0  0  0  # atno 7974 bound_to 7965
  155.1234  140.0399  157.2756 H   0  0  0  0  0  0  0  0  0  0  0  0  # atno 8008 bound_to 7997
  154.6596  140.2588  155.7097 H   0  0  0  0  0  0  0  0  0  0  0  0  # atno 8009 bound_to 7997
  156.2613  140.2819  156.1063 H   0  0  0  0  0  0  0  0  0  0  0  0  # atno 8010 bound_to 7997
  140.1769  144.4221  150.6634 H   0  0  0  0  0  0  0  0  0  0  0  0  # atno 10167 bound_to 10162
  157.5109  130.8500  149.8434 H   0  0  0  0  0  0  0  0  0  0  0  0  # atno 10718 bound_to 10713
  152.9820  135.5703  154.5104 H   0  0  0  0  0  0  0  0  0  0  0  0  # atno 10763 bound_to 10752
  154.4609  135.2781  155.1716 H   0  0  0  0  0  0  0  0  0  0  0  0  # atno 10764 bound_to 10752
  154.3304  135.6250  153.5602 H   0  0  0  0  0  0  0  0  0  0  0  0  # atno 10765 bound_to 10752
  141.0095  133.6915  156.2175 H   0  0  0  0  0  0  0  0  0  0  0  0  # atno 11005 bound_to 11000
  144.7154  140.4191  143.7048 LP  0  0  0  0  0  0  0  0  0  0  0  0  # atno 17320 bound_to 7965
  145.6624  139.1584  143.2801 LP  0  0  0  0  0  0  0  0  0  0  0  0  # atno 17321 bound_to 7965
  140.6545  143.2234  151.6000 LP  0  0  0  0  0  0  0  0  0  0  0  0  # atno 17342 bound_to 10162
  139.5313  144.2908  152.1154 LP  0  0  0  0  0  0  0  0  0  0  0  0  # atno 17343 bound_to 10162
  156.0288  130.3771  150.1745 LP  0  0  0  0  0  0  0  0  0  0  0  0  # atno 17370 bound_to 10713
  156.9935  130.9900  151.3409 LP  0  0  0  0  0  0  0  0  0  0  0  0  # atno 17371 bound_to 10713
  140.6757  134.4821  157.5588 LP  0  0  0  0  0  0  0  0  0  0  0  0  # atno 17394 bound_to 11000
  139.9082  134.8402  156.1626 LP  0  0  0  0  0  0  0  0  0  0  0  0  # atno 17395 bound_to 11000

$$$$
