AV-unprocessed.smi:215|AV-procd|sdf|1653|dock3
  -GOLD-   2262020 43D 1   1.00000     0.00000
 Structure written by MMmdl.
 59 62  0  0  0  0  0  0  0  0  2 V2000
  149.0168  142.5719  158.2124 C   0  0  0  0  0  0  0  0  0  0  0  0
  150.3162  142.3426  157.4041 C   0  0  1  0  0  0  0  0  0  0  0  0
  151.5879  142.2589  158.2755 C   0  0  1  0  0  0  0  0  0  0  0  0
  151.6950  143.3122  159.3294 N   0  3  2  0  0  0  0  0  0  0  0  0
  151.9511  144.6547  158.7459 C   0  0  0  0  0  0  0  0  0  0  0  0
  152.6688  142.9921  160.4112 C   0  0  0  0  0  0  0  0  0  0  0  0
  152.3195  143.6846  161.7402 C   0  0  0  0  0  0  0  0  0  0  0  0
  150.9371  143.9694  161.7900 O   0  0  0  0  0  0  0  0  0  0  0  0
  151.5342  140.8054  158.7790 C   0  0  0  0  0  0  0  0  0  0  0  0
  150.8874  140.0320  157.6223 C   0  0  0  0  0  0  0  0  0  0  0  0
  150.2992  141.0421  156.7491 N   0  0  0  0  0  0  0  0  0  0  0  0
  149.4670  140.7106  155.7242 C   0  0  0  0  0  0  0  0  0  0  0  0
  148.9182  141.7184  154.9953 N   0  0  0  0  0  0  0  0  0  0  0  0
  148.0955  141.4550  153.9771 C   0  0  0  0  0  0  0  0  0  0  0  0
  147.6867  140.2708  153.5223 N   0  0  0  0  0  0  0  0  0  0  0  0
  148.2206  139.2495  154.2513 C   0  0  0  0  0  0  0  0  0  0  0  0
  149.1079  139.3771  155.3606 C   0  0  0  0  0  0  0  0  0  0  0  0
  149.4193  138.1127  155.8497 N   0  0  0  0  0  0  0  0  0  0  0  0
  148.7641  137.2921  155.0764 C   0  0  0  0  0  0  0  0  0  0  0  0
  148.0239  137.8891  154.0824 N   0  0  0  0  0  0  0  0  0  0  0  0
  147.2064  137.2265  153.1058 C   0  0  0  0  0  0  0  0  0  0  0  0
  146.2180  138.0161  152.2474 C   0  0  0  0  0  0  0  0  0  0  0  0
  145.2696  136.7959  152.2315 C   0  0  0  0  0  0  0  0  0  0  0  0
  143.7775  137.1261  152.4025 C   0  0  0  0  0  0  0  0  0  0  0  0
  143.5783  138.0766  153.4292 O   0  0  0  0  0  0  0  0  0  0  0  0
  145.4430  135.8467  151.0286 C   0  0  0  0  0  0  0  0  0  0  0  0
  145.3705  136.5466  149.8027 O   0  0  0  0  0  0  0  0  0  0  0  0
  146.0096  136.3677  153.5201 C   0  0  0  0  0  0  0  0  0  0  0  0
  150.4457  143.1350  156.6686 H   0  0  0  0  0  0  0  0  0  0  0  0
  152.4581  142.3499  157.6217 H   0  0  0  0  0  0  0  0  0  0  0  0
  149.0212  143.5345  158.7224 H   0  0  0  0  0  0  0  0  0  0  0  0
  148.8639  141.8006  158.9673 H   0  0  0  0  0  0  0  0  0  0  0  0
  148.1412  142.5649  157.5633 H   0  0  0  0  0  0  0  0  0  0  0  0
  152.9135  144.6773  158.2332 H   0  0  0  0  0  0  0  0  0  0  0  0
  151.9590  145.4315  159.5089 H   0  0  0  0  0  0  0  0  0  0  0  0
  151.1843  144.9378  158.0260 H   0  0  0  0  0  0  0  0  0  0  0  0
  152.7165  141.9233  160.6105 H   0  0  0  0  0  0  0  0  0  0  0  0
  153.6717  143.2768  160.0893 H   0  0  0  0  0  0  0  0  0  0  0  0
  152.5608  143.0264  162.5753 H   0  0  0  0  0  0  0  0  0  0  0  0
  152.8876  144.6012  161.8930 H   0  0  0  0  0  0  0  0  0  0  0  0
  150.4706  143.2969  161.3166 H   0  0  0  0  0  0  0  0  0  0  0  0
  152.5164  140.4015  159.0257 H   0  0  0  0  0  0  0  0  0  0  0  0
  150.9072  140.7307  159.6686 H   0  0  0  0  0  0  0  0  0  0  0  0
  151.6392  139.4718  157.0650 H   0  0  0  0  0  0  0  0  0  0  0  0
  150.1387  139.3293  157.9907 H   0  0  0  0  0  0  0  0  0  0  0  0
  147.7104  142.3165  153.4511 H   0  0  0  0  0  0  0  0  0  0  0  0
  148.8021  136.2211  155.2142 H   0  0  0  0  0  0  0  0  0  0  0  0
  147.8772  136.6453  152.4711 H   0  0  0  0  0  0  0  0  0  0  0  0
  145.7971  138.8750  152.7735 H   0  0  0  0  0  0  0  0  0  0  0  0
  146.6038  138.3096  151.2705 H   0  0  0  0  0  0  0  0  0  0  0  0
  143.3400  137.5040  151.4781 H   0  0  0  0  0  0  0  0  0  0  0  0
  143.2110  136.2319  152.6642 H   0  0  0  0  0  0  0  0  0  0  0  0
  143.7328  138.9386  153.0742 H   0  0  0  0  0  0  0  0  0  0  0  0
  146.3939  135.3152  151.0729 H   0  0  0  0  0  0  0  0  0  0  0  0
  144.6696  135.0785  151.0181 H   0  0  0  0  0  0  0  0  0  0  0  0
  144.6788  137.1876  149.8639 H   0  0  0  0  0  0  0  0  0  0  0  0
  146.2288  135.3022  153.5952 H   0  0  0  0  0  0  0  0  0  0  0  0
  145.5219  136.7259  154.4281 H   0  0  0  0  0  0  0  0  0  0  0  0
  150.7886  143.3495  159.7745 H   0  0  0  0  0  0  0  0  0  0  0  0
  1  2  1  0  0  0  0
  1 31  1  0  0  0  0
  1 32  1  0  0  0  0
  1 33  1  0  0  0  0
  2 29  1  0  0  0  0
  2 11  1  0  0  0  0
  2  3  1  0  0  0  0
  3 30  1  0  0  0  0
  3  4  1  0  0  0  0
  3  9  1  0  0  0  0
  4  5  1  0  0  0  0
  4  6  1  0  0  0  0
  4 59  1  0  0  0  0
  5 34  1  0  0  0  0
  5 35  1  0  0  0  0
  5 36  1  0  0  0  0
  6  7  1  0  0  0  0
  6 37  1  0  0  0  0
  6 38  1  0  0  0  0
  7  8  1  0  0  0  0
  7 39  1  0  0  0  0
  7 40  1  0  0  0  0
  8 41  1  0  0  0  0
  9 10  1  0  0  0  0
  9 42  1  0  0  0  0
  9 43  1  0  0  0  0
 10 11  1  0  0  0  0
 10 44  1  0  0  0  0
 10 45  1  0  0  0  0
 11 12  1  0  0  0  0
 12 17  1  0  0  0  0
 12 13  2  0  0  0  0
 13 14  1  0  0  0  0
 14 15  2  0  0  0  0
 14 46  1  0  0  0  0
 15 16  1  0  0  0  0
 16 20  1  0  0  0  0
 16 17  2  0  0  0  0
 17 18  1  0  0  0  0
 18 19  2  0  0  0  0
 19 20  1  0  0  0  0
 19 47  1  0  0  0  0
 20 21  1  0  0  0  0
 21 28  1  0  0  0  0
 21 22  1  0  0  0  0
 21 48  1  0  0  0  0
 22 23  1  0  0  0  0
 22 49  1  0  0  0  0
 22 50  1  0  0  0  0
 23 24  1  0  0  0  0
 23 26  1  0  0  0  0
 23 28  1  0  0  0  0
 24 25  1  0  0  0  0
 24 51  1  0  0  0  0
 24 52  1  0  0  0  0
 25 53  1  0  0  0  0
 26 27  1  0  0  0  0
 26 54  1  0  0  0  0
 26 55  1  0  0  0  0
 27 56  1  0  0  0  0
 28 57  1  0  0  0  0
 28 58  1  0  0  0  0
M  CHG  1   4   1
M  END
> <s_m_source_file>
AV-unprocessed.smi

> <i_m_source_file_index>
215

> <i_lp_mmshare_version>
43012

> <i_f3d_flags>
0

> <s_epik_input>
W09IXVtDSDJdW0NIMl1OKFtDSDNdKVtDQEBIXShbQ0BIXTFbQ0gzXSlbQ0gyXVtDSDJdTjFjKG5bY0hdbjIpYyhjMjMpbltjSF1uM1tDSF0oW0NIMl00KVtDSDJdQzQoW0NIMl1bT0hdKVtDSDJdW09IXQ==

> <s_epik_cmdline>
J2VwaWtfcHl0aG9uJywgJy1waCcsICc3LjAnLCAnLXRuJywgJzgnLCAnLW1hJywgJzIwMCcsICctbWV0YWxfYmluZGluZycsICctaW1hZScsICc8aW5maWxlLm1hZT4nLCAnLW9tYWUnLCAnPG91dGZpbGUubWFlPic=

> <r_lp_tautomer_probability>
1

> <r_epik_Ionization_Penalty>
0.0036237

> <r_epik_Ionization_Penalty_Charging>
0.0032725

> <r_epik_Ionization_Penalty_Neutral>
0.000351196

> <r_epik_State_Penalty>
-0

> <r_epik_Charging_Adjusted_Penalty>
0.0032725

> <i_epik_Tot_Q>
1

> <i_epik_Tot_abs_Q>
1

> <r_epik_Metal_State_Penalty>
-0

> <b_epik_Metal_Only>
0

> <s_lp_Force_Field>
OPLS_2005

> <r_lp_Energy>
66.6502

> <b_lp_Chiralities_Consistent>
1

> <s_lp_Variant>
AV-unprocessed.smi:215-4

> <Gold.Version>
5.8.1

> <Gold.Id.Protein>
6NUR|6NUR_protein|mol2

> <Gold.PLP.Fitness>
49.1334

> <Gold.PLP.PLP>
-44.8547

> <Gold.PLP.part.hbond>
-5.4620

> <Gold.PLP.part.metal>
0.0000

> <Gold.PLP.part.buried>
-2.4904

> <Gold.PLP.part.nonpolar>
-38.6213

> <Gold.PLP.part.repulsive>
1.2189

> <Gold.PLP.ligand.clash>
0.0000

> <Gold.PLP.ligand.torsion>
1.2578

> <Gold.PLP.Chemscore.Hbond>
2.0000

> <Gold.PLP.Chemscore.CHOScore>
0.0000

> <Gold.PLP.Chemscore.Metal>
0.0000

> <Gold.Chemscore.Hbonds>
donor molecule, donor type, donor heavy atom, donor atom, acceptor molecule, acceptor atom, score
      L1  H    25    53       P1 10175  1.00
      L1  H    27    56       P1 10171  1.00

> <Gold.PLP.Chemscore.Internal.Correction>
0.7943

> <Gold.Rescore>
     Score         DG    S(hbond)    S(metal)    S(lipo)     H(rot)  DE(clash)    DE(int)     intcor
      5.83     -11.84       1.99        0.00      95.40       4.48       1.62       4.39       ----

> <Gold.Chemscore.Fitness>
5.8329

> <Gold.Chemscore.DG>
-11.8382

> <Gold.Chemscore.ZeroCoef>
-5.4800

> <Gold.Chemscore.Hbond>
1.9944

> <Gold.Chemscore.Metal>
0.0000

> <Gold.Chemscore.Lipo>
95.4047

> <Gold.Chemscore.Internal_Hbond>
0.0000

> <Gold.Chemscore.DEClash>
1.6197

> <Gold.Chemscore.DEInternal>
4.3856

> <Gold.Chemscore.Rot>
4.4787

> <Gold.Chemscore.Internal.Correction>
   9.000000E+99

> <Gold.Chemscore.Hbonds>
donor molecule, donor type, donor heavy atom, donor atom, acceptor molecule, acceptor atom, score
      L1  H    25    53       P1 10175  0.99
      L1  H    27    56       P1 10171  0.98

> <Gold.Chemscore.Hbond.Weighted>
-6.6613

> <Gold.Chemscore.Metal.Weighted>
-0.0000

> <Gold.Chemscore.Lipo.Weighted>
-11.1623

> <Gold.Chemscore.Internal_Hbond.Weighted>
0.0000

> <Gold.Chemscore.DEClash.Weighted>
1.6197

> <Gold.Chemscore.DEInternal.Weighted>
4.3856

> <Gold.Chemscore.Rot.Weighted>
11.4655

> <Gold.Chemscore.Internal.Correction.Weighted>
   9.000000E+99

> <Gold.Protein.RotatedTorsions>
[ 6907 6896 6895 6894 ] final   52.14 input  -60.11 | X-H torsion
[ 7974 7965 7964 7962 ] final  163.46 input  175.53 | X-H torsion
[ 8008 7997 7996 7995 ] final -139.89 input   59.86 | X-H torsion
[ 10167 10162 10161 10158 ] final  -25.51 input  -65.29 | X-H torsion
[ 10718 10713 10712 10709 ] final -141.30 input   66.30 | X-H torsion
[ 10763 10752 10751 10750 ] final  -57.22 input  -60.55 | X-H torsion
[ 11005 11000 10999 10996 ] final  -51.80 input  -57.11 | X-H torsion

> <Gold.Protein.ActiveResidues>
 VAL166  LYS551  ARG553  GLY616  TRP617  ASP618  TYR619  PRO620  LYS621  CYS622 
 ASP623  PHE694  ASN695  SER759  ASP760  ASP761  ALA762  ILE779  LEU786  VAL792 
 PHE793  MET794  SER795  GLU796  ALA797  LYS798  CYS799  TRP800  GLU811  SER814 

> <Gold.Protein.RotatedAtoms>
  152.3202  134.7390  160.0315 H   0  0  0  0  0  0  0  0  0  0  0  0  # atno 6907 bound_to 6896
  151.7841  133.3347  159.3488 H   0  0  0  0  0  0  0  0  0  0  0  0  # atno 6908 bound_to 6896
  150.7366  134.5834  159.5995 H   0  0  0  0  0  0  0  0  0  0  0  0  # atno 6909 bound_to 6896
  144.7589  139.8186  143.6340 H   0  0  0  0  0  0  0  0  0  0  0  0  # atno 7974 bound_to 7965
  155.4524  140.0539  157.3000 H   0  0  0  0  0  0  0  0  0  0  0  0  # atno 8008 bound_to 7997
  154.4772  140.2066  155.9806 H   0  0  0  0  0  0  0  0  0  0  0  0  # atno 8009 bound_to 7997
  156.1149  140.3198  155.8130 H   0  0  0  0  0  0  0  0  0  0  0  0  # atno 8010 bound_to 7997
  140.7286  143.4259  151.0878 H   0  0  0  0  0  0  0  0  0  0  0  0  # atno 10167 bound_to 10162
  156.3325  130.7593  151.1714 H   0  0  0  0  0  0  0  0  0  0  0  0  # atno 10718 bound_to 10713
  154.2191  135.6381  153.5139 H   0  0  0  0  0  0  0  0  0  0  0  0  # atno 10763 bound_to 10752
  152.9973  135.5492  154.6134 H   0  0  0  0  0  0  0  0  0  0  0  0  # atno 10764 bound_to 10752
  154.5589  135.2907  155.0912 H   0  0  0  0  0  0  0  0  0  0  0  0  # atno 10765 bound_to 10752
  141.0891  133.6636  156.3931 H   0  0  0  0  0  0  0  0  0  0  0  0  # atno 11005 bound_to 11000
  146.1630  139.4751  142.9976 LP  0  0  0  0  0  0  0  0  0  0  0  0  # atno 17320 bound_to 7965
  145.6686  141.0222  143.1670 LP  0  0  0  0  0  0  0  0  0  0  0  0  # atno 17321 bound_to 7965
  139.7910  143.8218  152.3151 LP  0  0  0  0  0  0  0  0  0  0  0  0  # atno 17342 bound_to 10162
  139.8202  144.7299  150.9582 LP  0  0  0  0  0  0  0  0  0  0  0  0  # atno 17343 bound_to 10162
  157.7433  131.0477  150.4959 LP  0  0  0  0  0  0  0  0  0  0  0  0  # atno 17370 bound_to 10713
  156.5127  130.4143  149.6292 LP  0  0  0  0  0  0  0  0  0  0  0  0  # atno 17371 bound_to 10713
  140.5295  134.6226  157.5345 LP  0  0  0  0  0  0  0  0  0  0  0  0  # atno 17394 bound_to 11000
  139.9713  134.7288  156.0035 LP  0  0  0  0  0  0  0  0  0  0  0  0  # atno 17395 bound_to 11000

$$$$
