AV-unprocessed.smi:3055|AV-procd|sdf|11643|dock7
  -GOLD-   2272017 33D 1   1.00000     0.00000
 Structure written by MMmdl.
 47 49  0  0  0  0  0  0  0  0  2 V2000
  150.6866  141.2655  158.7318 O   0  0  0  0  0  0  0  0  0  0  0  0
  151.2026  141.3568  157.6178 C   0  0  0  0  0  0  0  0  0  0  0  0
  151.4020  142.5438  157.0234 N   0  0  0  0  0  0  0  0  0  0  0  0
  151.0386  143.8293  157.6022 C   0  0  0  0  0  0  0  0  0  0  0  0
  152.2161  144.4185  158.3900 C   0  0  0  0  0  0  0  0  0  0  0  0
  152.5118  143.6298  159.5687 N   0  0  0  0  0  0  0  0  0  0  0  0
  152.1732  143.9272  160.8821 C   0  0  0  0  0  0  0  0  0  0  0  0
  152.6613  142.8986  161.6561 C   0  0  0  0  0  0  0  0  0  0  0  0
  153.2998  141.9635  160.8447 N   0  0  0  0  0  0  0  0  0  0  0  0
  153.1711  142.4643  159.6227 C   0  0  0  0  0  0  0  0  0  0  0  0
  151.6264  140.2815  156.9054 N   0  0  0  0  0  0  0  0  0  0  0  0
  151.8480  138.9205  157.4252 C   0  0  0  0  0  0  0  0  0  0  0  0
  150.8217  137.9672  156.7899 C   0  0  0  0  0  0  0  0  0  0  0  0
  150.8936  138.0283  155.2522 C   0  0  0  0  0  0  0  0  0  0  0  0
  150.7941  139.4801  154.7149 C   0  0  1  0  0  0  0  0  0  0  0  0
  149.4179  140.0422  154.8539 N   0  3  0  0  0  0  0  0  0  0  0  0
  149.3029  141.4953  154.6091 C   0  0  0  0  0  0  0  0  0  0  0  0
  147.8108  141.7391  154.4179 C   0  0  0  0  0  0  0  0  0  0  0  0
  147.3289  140.4841  153.6946 C   0  0  0  0  0  0  0  0  0  0  0  0
  148.3760  139.4063  154.0113 C   0  0  0  0  0  0  0  0  0  0  0  0
  151.8522  140.3409  155.4521 C   0  0  0  0  0  0  0  0  0  0  0  0
  151.8303  142.5549  156.1090 H   0  0  0  0  0  0  0  0  0  0  0  0
  150.7412  144.5111  156.8040 H   0  0  0  0  0  0  0  0  0  0  0  0
  150.1758  143.7025  158.2584 H   0  0  0  0  0  0  0  0  0  0  0  0
  153.1116  144.4591  157.7685 H   0  0  0  0  0  0  0  0  0  0  0  0
  151.9962  145.4411  158.7001 H   0  0  0  0  0  0  0  0  0  0  0  0
  151.6298  144.8212  161.1502 H   0  0  0  0  0  0  0  0  0  0  0  0
  152.6034  142.7614  162.7259 H   0  0  0  0  0  0  0  0  0  0  0  0
  153.5670  141.9722  158.7465 H   0  0  0  0  0  0  0  0  0  0  0  0
  152.8587  138.6027  157.1648 H   0  0  0  0  0  0  0  0  0  0  0  0
  151.7949  138.8409  158.5108 H   0  0  0  0  0  0  0  0  0  0  0  0
  151.0009  136.9467  157.1295 H   0  0  0  0  0  0  0  0  0  0  0  0
  149.8180  138.2323  157.1248 H   0  0  0  0  0  0  0  0  0  0  0  0
  151.8529  137.6128  154.9405 H   0  0  0  0  0  0  0  0  0  0  0  0
  150.1442  137.3720  154.8109 H   0  0  0  0  0  0  0  0  0  0  0  0
  151.0355  139.4650  153.6509 H   0  0  0  0  0  0  0  0  0  0  0  0
  149.7053  142.0929  155.4253 H   0  0  0  0  0  0  0  0  0  0  0  0
  149.8419  141.7595  153.6977 H   0  0  0  0  0  0  0  0  0  0  0  0
  147.3241  141.8135  155.3913 H   0  0  0  0  0  0  0  0  0  0  0  0
  147.5986  142.6554  153.8662 H   0  0  0  0  0  0  0  0  0  0  0  0
  146.3281  140.1936  154.0164 H   0  0  0  0  0  0  0  0  0  0  0  0
  147.2906  140.6599  152.6189 H   0  0  0  0  0  0  0  0  0  0  0  0
  148.8068  139.0394  153.0783 H   0  0  0  0  0  0  0  0  0  0  0  0
  147.9356  138.5569  154.5345 H   0  0  0  0  0  0  0  0  0  0  0  0
  151.8658  141.3603  155.0655 H   0  0  0  0  0  0  0  0  0  0  0  0
  152.8496  139.9539  155.2386 H   0  0  0  0  0  0  0  0  0  0  0  0
  149.1303  139.8960  155.8109 H   0  0  0  0  0  0  0  0  0  0  0  0
  1  2  2  0  0  0  0
  2  3  1  0  0  0  0
  2 11  1  0  0  0  0
  3  4  1  0  0  0  0
  3 22  1  0  0  0  0
  4  5  1  0  0  0  0
  4 23  1  0  0  0  0
  4 24  1  0  0  0  0
  5  6  1  0  0  0  0
  5 25  1  0  0  0  0
  5 26  1  0  0  0  0
  6 10  1  0  0  0  0
  6  7  1  0  0  0  0
  7  8  2  0  0  0  0
  7 27  1  0  0  0  0
  8  9  1  0  0  0  0
  8 28  1  0  0  0  0
  9 10  2  0  0  0  0
 10 29  1  0  0  0  0
 11 21  1  0  0  0  0
 11 12  1  0  0  0  0
 12 13  1  0  0  0  0
 12 30  1  0  0  0  0
 12 31  1  0  0  0  0
 13 14  1  0  0  0  0
 13 32  1  0  0  0  0
 13 33  1  0  0  0  0
 14 15  1  0  0  0  0
 14 34  1  0  0  0  0
 14 35  1  0  0  0  0
 15 16  1  0  0  0  0
 15 21  1  0  0  0  0
 15 36  1  0  0  0  0
 16 20  1  0  0  0  0
 16 17  1  0  0  0  0
 16 47  1  0  0  0  0
 17 18  1  0  0  0  0
 17 37  1  0  0  0  0
 17 38  1  0  0  0  0
 18 19  1  0  0  0  0
 18 39  1  0  0  0  0
 18 40  1  0  0  0  0
 19 20  1  0  0  0  0
 19 41  1  0  0  0  0
 19 42  1  0  0  0  0
 20 43  1  0  0  0  0
 20 44  1  0  0  0  0
 21 45  1  0  0  0  0
 21 46  1  0  0  0  0
M  CHG  1  16   1
M  END
> <s_m_source_file>
AV-unprocessed.smi

> <i_m_source_file_index>
3055

> <i_lp_mmshare_version>
43012

> <i_f3d_flags>
0

> <s_epik_input>
W2NIXTFuW2NIXVtjSF1uMVtDSDJdW0NIMl1bTkhdQyg9TylOMltDSDJdW0NIMl1bQ0gyXVtDQEhdKFtDSDJdMilOM1tDSDJdW0NIMl1bQ0gyXVtDSDJdMw==

> <s_epik_cmdline>
J2VwaWtfcHl0aG9uJywgJy1waCcsICc3LjAnLCAnLXRuJywgJzgnLCAnLW1hJywgJzIwMCcsICctbWV0YWxfYmluZGluZycsICctaW1hZScsICc8aW5maWxlLm1hZT4nLCAnLW9tYWUnLCAnPG91dGZpbGUubWFlPic=

> <r_lp_tautomer_probability>
1

> <r_epik_Ionization_Penalty>
0.618392

> <r_epik_Ionization_Penalty_Charging>
0.618355

> <r_epik_Ionization_Penalty_Neutral>
3.68592e-05

> <r_epik_State_Penalty>
0.635579

> <r_epik_Charging_Adjusted_Penalty>
1.25393

> <i_epik_Tot_Q>
1

> <i_epik_Tot_abs_Q>
1

> <r_epik_Metal_State_Penalty>
0.306847

> <b_epik_Metal_Only>
0

> <s_lp_Force_Field>
OPLS_2005

> <r_lp_Energy>
66.9505

> <b_lp_Chiralities_Consistent>
1

> <s_lp_Variant>
AV-unprocessed.smi:3055-3

> <Gold.Version>
5.8.1

> <Gold.Id.Protein>
6NUR|6NUR_protein|mol2

> <Gold.PLP.Fitness>
44.1088

> <Gold.PLP.PLP>
-45.6953

> <Gold.PLP.part.hbond>
-0.6261

> <Gold.PLP.part.metal>
0.0000

> <Gold.PLP.part.buried>
-2.3997

> <Gold.PLP.part.nonpolar>
-42.7992

> <Gold.PLP.part.repulsive>
0.1748

> <Gold.PLP.ligand.clash>
0.2495

> <Gold.PLP.ligand.torsion>
0.6859

> <Gold.PLP.Chemscore.Hbond>
0.0000

> <Gold.PLP.Chemscore.CHOScore>
0.0000

> <Gold.PLP.Chemscore.Metal>
0.0000

> <Gold.PLP.Chemscore.Internal.Correction>
0.0347

> <Gold.Rescore>
     Score         DG    S(hbond)    S(metal)    S(lipo)     H(rot)  DE(clash)    DE(int)     intcor
     12.32     -13.15       0.00        0.00     105.12       1.81       0.18       0.65       ----

> <Gold.Chemscore.Fitness>
12.3226

> <Gold.Chemscore.DG>
-13.1539

> <Gold.Chemscore.ZeroCoef>
-5.4800

> <Gold.Chemscore.Hbond>
0.0000

> <Gold.Chemscore.Metal>
0.0000

> <Gold.Chemscore.Lipo>
105.1181

> <Gold.Chemscore.Internal_Hbond>
0.0000

> <Gold.Chemscore.DEClash>
0.1774

> <Gold.Chemscore.DEInternal>
0.6539

> <Gold.Chemscore.Rot>
1.8066

> <Gold.Chemscore.Internal.Correction>
   9.000000E+99

> <Gold.Chemscore.Hbond.Weighted>
-0.0000

> <Gold.Chemscore.Metal.Weighted>
-0.0000

> <Gold.Chemscore.Lipo.Weighted>
-12.2988

> <Gold.Chemscore.Internal_Hbond.Weighted>
0.0000

> <Gold.Chemscore.DEClash.Weighted>
0.1774

> <Gold.Chemscore.DEInternal.Weighted>
0.6539

> <Gold.Chemscore.Rot.Weighted>
4.6249

> <Gold.Chemscore.Internal.Correction.Weighted>
   9.000000E+99

> <Gold.Protein.RotatedTorsions>
[ 6907 6896 6895 6894 ] final  -59.73 input  -60.11 | X-H torsion
[ 7974 7965 7964 7962 ] final   63.91 input  175.53 | X-H torsion
[ 8008 7997 7996 7995 ] final -128.02 input   59.86 | X-H torsion
[ 10167 10162 10161 10158 ] final    9.79 input  -65.29 | X-H torsion
[ 10718 10713 10712 10709 ] final  -98.53 input   66.30 | X-H torsion
[ 10763 10752 10751 10750 ] final -176.63 input  -60.55 | X-H torsion
[ 11005 11000 10999 10996 ] final  151.43 input  -57.11 | X-H torsion

> <Gold.Protein.ActiveResidues>
 VAL166  LYS551  ARG553  GLY616  TRP617  ASP618  TYR619  PRO620  LYS621  CYS622 
 ASP623  PHE694  ASN695  SER759  ASP760  ASP761  ALA762  ILE779  LEU786  VAL792 
 PHE793  MET794  SER795  GLU796  ALA797  LYS798  CYS799  TRP800  GLU811  SER814 

> <Gold.Protein.RotatedAtoms>
  150.7908  134.6930  159.6507 H   0  0  0  0  0  0  0  0  0  0  0  0  # atno 6907 bound_to 6896
  152.4013  134.6277  160.0077 H   0  0  0  0  0  0  0  0  0  0  0  0  # atno 6908 bound_to 6896
  151.6548  133.3282  159.3196 H   0  0  0  0  0  0  0  0  0  0  0  0  # atno 6909 bound_to 6896
  145.8564  139.3286  143.0845 H   0  0  0  0  0  0  0  0  0  0  0  0  # atno 7974 bound_to 7965
  155.2558  140.0434  157.2992 H   0  0  0  0  0  0  0  0  0  0  0  0  # atno 8008 bound_to 7997
  154.5741  140.2382  155.8118 H   0  0  0  0  0  0  0  0  0  0  0  0  # atno 8009 bound_to 7997
  156.2145  140.2989  155.9815 H   0  0  0  0  0  0  0  0  0  0  0  0  # atno 8010 bound_to 7997
  140.6233  143.8155  150.7202 H   0  0  0  0  0  0  0  0  0  0  0  0  # atno 10167 bound_to 10162
  156.0110  130.5242  150.6536 H   0  0  0  0  0  0  0  0  0  0  0  0  # atno 10718 bound_to 10713
  154.5700  135.2827  155.0836 H   0  0  0  0  0  0  0  0  0  0  0  0  # atno 10763 bound_to 10752
  154.2212  135.6391  153.5149 H   0  0  0  0  0  0  0  0  0  0  0  0  # atno 10764 bound_to 10752
  153.0055  135.5515  154.6321 H   0  0  0  0  0  0  0  0  0  0  0  0  # atno 10765 bound_to 10752
  140.1218  134.8859  157.2082 H   0  0  0  0  0  0  0  0  0  0  0  0  # atno 11005 bound_to 11000
  145.9299  140.9056  143.0362 LP  0  0  0  0  0  0  0  0  0  0  0  0  # atno 17320 bound_to 7965
  144.6727  140.1404  143.7437 LP  0  0  0  0  0  0  0  0  0  0  0  0  # atno 17321 bound_to 7965
  140.1751  143.4162  152.1973 LP  0  0  0  0  0  0  0  0  0  0  0  0  # atno 17342 bound_to 10162
  139.5458  144.7297  151.4588 LP  0  0  0  0  0  0  0  0  0  0  0  0  # atno 17343 bound_to 10162
  157.4293  131.0847  151.1055 LP  0  0  0  0  0  0  0  0  0  0  0  0  # atno 17370 bound_to 10713
  157.1633  130.6235  149.5617 LP  0  0  0  0  0  0  0  0  0  0  0  0  # atno 17371 bound_to 10713
  140.2955  134.3191  155.7303 LP  0  0  0  0  0  0  0  0  0  0  0  0  # atno 17394 bound_to 11000
  141.2153  133.7560  156.9565 LP  0  0  0  0  0  0  0  0  0  0  0  0  # atno 17395 bound_to 11000

$$$$
