AV-unprocessed.smi:1082|AV-procd|sdf|4714|dock8
  -GOLD-   22720 3243D 1   1.00000     0.00000
 Structure written by MMmdl.
 48 50  0  0  0  0  0  0  0  0  4 V2000
  151.8833  138.0437  158.2431 O   0  0  0  0  0  0  0  0  0  0  0  0
  150.7513  137.9585  157.7534 C   0  0  0  0  0  0  0  0  0  0  0  0
  150.0433  136.8302  157.4820 N   0  5  0  0  0  0  0  0  0  0  0  0
  149.3659  136.5544  156.2129 C   0  0  0  0  0  0  0  0  0  0  0  0
  149.9176  135.2526  155.5965 C   0  0  0  0  0  0  0  0  0  0  0  0
  149.1543  134.8095  154.3988 N   0  3  0  0  0  0  0  0  0  0  0  0
  149.5455  133.4772  153.8796 C   0  0  0  0  0  0  0  0  0  0  0  0
  148.2573  132.7732  153.4302 C   0  0  0  0  0  0  0  0  0  0  0  0
  147.1938  133.8667  153.4305 C   0  0  0  0  0  0  0  0  0  0  0  0
  147.6780  134.8141  154.5220 C   0  0  0  0  0  0  0  0  0  0  0  0
  150.0809  139.0711  157.4090 N   0  0  0  0  0  0  0  0  0  0  0  0
  150.5368  140.4169  157.4582 C   0  0  0  0  0  0  0  0  0  0  0  0
  151.6140  140.7849  158.3028 C   0  0  0  0  0  0  0  0  0  0  0  0
  152.0038  142.1341  158.3957 C   0  0  0  0  0  0  0  0  0  0  0  0
  151.2976  143.0976  157.6549 C   0  0  0  0  0  0  0  0  0  0  0  0
  150.2673  142.7167  156.8715 N   0  3  0  0  0  0  0  0  0  0  0  0
  149.8539  141.4323  156.7287 C   0  0  0  0  0  0  0  0  0  0  0  0
  148.7655  141.1808  155.8623 N   0  0  0  0  0  0  0  0  0  0  0  0
  148.9720  141.2472  154.4185 C   0  0  0  0  0  0  0  0  0  0  0  0
  147.6764  141.8087  153.8229 C   0  0  0  0  0  0  0  0  0  0  0  0
  146.6304  141.5237  154.8967 C   0  0  0  0  0  0  0  0  0  0  0  0
  147.4331  141.6771  156.1859 C   0  0  0  0  0  0  0  0  0  0  0  0
  148.2906  136.4475  156.3548 H   0  0  0  0  0  0  0  0  0  0  0  0
  149.4889  137.3599  155.4877 H   0  0  0  0  0  0  0  0  0  0  0  0
  150.9555  135.4297  155.3095 H   0  0  0  0  0  0  0  0  0  0  0  0
  149.9410  134.4549  156.3398 H   0  0  0  0  0  0  0  0  0  0  0  0
  150.2372  133.6128  153.0477 H   0  0  0  0  0  0  0  0  0  0  0  0
  150.0525  132.8791  154.6383 H   0  0  0  0  0  0  0  0  0  0  0  0
  148.3594  132.2906  152.4578 H   0  0  0  0  0  0  0  0  0  0  0  0
  147.9899  132.0033  154.1551 H   0  0  0  0  0  0  0  0  0  0  0  0
  147.1891  134.3810  152.4684 H   0  0  0  0  0  0  0  0  0  0  0  0
  146.1896  133.4840  153.6146 H   0  0  0  0  0  0  0  0  0  0  0  0
  147.3847  134.4279  155.4996 H   0  0  0  0  0  0  0  0  0  0  0  0
  147.2613  135.8163  154.4137 H   0  0  0  0  0  0  0  0  0  0  0  0
  149.2088  138.9198  156.9236 H   0  0  0  0  0  0  0  0  0  0  0  0
  152.1334  140.0476  158.8970 H   0  0  0  0  0  0  0  0  0  0  0  0
  152.8241  142.4249  159.0353 H   0  0  0  0  0  0  0  0  0  0  0  0
  151.5200  144.1548  157.6680 H   0  0  0  0  0  0  0  0  0  0  0  0
  149.8309  141.8655  154.1529 H   0  0  0  0  0  0  0  0  0  0  0  0
  149.1496  140.2393  154.0418 H   0  0  0  0  0  0  0  0  0  0  0  0
  147.7736  142.8865  153.6845 H   0  0  0  0  0  0  0  0  0  0  0  0
  147.4283  141.3674  152.8572 H   0  0  0  0  0  0  0  0  0  0  0  0
  145.7716  142.1937  154.8473 H   0  0  0  0  0  0  0  0  0  0  0  0
  146.2691  140.4988  154.8006 H   0  0  0  0  0  0  0  0  0  0  0  0
  146.9878  141.1178  157.0094 H   0  0  0  0  0  0  0  0  0  0  0  0
  147.4775  142.7301  156.4672 H   0  0  0  0  0  0  0  0  0  0  0  0
  149.3826  135.4660  153.6651 H   0  0  0  0  0  0  0  0  0  0  0  0
  149.7736  143.4391  156.3473 H   0  0  0  0  0  0  0  0  0  0  0  0
  1  2  2  0  0  0  0
  2  3  1  0  0  0  0
  2 11  1  0  0  0  0
  3  4  1  0  0  0  0
  4  5  1  0  0  0  0
  4 23  1  0  0  0  0
  4 24  1  0  0  0  0
  5  6  1  0  0  0  0
  5 25  1  0  0  0  0
  5 26  1  0  0  0  0
  6 10  1  0  0  0  0
  6  7  1  0  0  0  0
  6 47  1  0  0  0  0
  7  8  1  0  0  0  0
  7 27  1  0  0  0  0
  7 28  1  0  0  0  0
  8  9  1  0  0  0  0
  8 29  1  0  0  0  0
  8 30  1  0  0  0  0
  9 10  1  0  0  0  0
  9 31  1  0  0  0  0
  9 32  1  0  0  0  0
 10 33  1  0  0  0  0
 10 34  1  0  0  0  0
 11 12  1  0  0  0  0
 11 35  1  0  0  0  0
 12 17  1  0  0  0  0
 12 13  2  0  0  0  0
 13 14  1  0  0  0  0
 13 36  1  0  0  0  0
 14 15  2  0  0  0  0
 14 37  1  0  0  0  0
 15 16  1  0  0  0  0
 15 38  1  0  0  0  0
 16 17  2  0  0  0  0
 16 48  1  0  0  0  0
 17 18  1  0  0  0  0
 18 22  1  0  0  0  0
 18 19  1  0  0  0  0
 19 20  1  0  0  0  0
 19 39  1  0  0  0  0
 19 40  1  0  0  0  0
 20 21  1  0  0  0  0
 20 41  1  0  0  0  0
 20 42  1  0  0  0  0
 21 22  1  0  0  0  0
 21 43  1  0  0  0  0
 21 44  1  0  0  0  0
 22 45  1  0  0  0  0
 22 46  1  0  0  0  0
M  CHG  1   3  -1
M  CHG  1   6   1
M  CHG  1  16   1
M  END
> <s_m_source_file>
AV-unprocessed.smi

> <i_m_source_file_index>
1082

> <i_lp_mmshare_version>
43012

> <i_f3d_flags>
0

> <s_epik_input>
W0NIMl0xW0NIMl1bQ0gyXVtDSDJdTjFbQ0gyXVtDSDJdW05IXUMoPU8pW05IXWMyW2NIXVtjSF1bY0hdbmMyTjNbQ0gyXVtDSDJdW0NIMl1bQ0gyXTM=

> <s_epik_cmdline>
J2VwaWtfcHl0aG9uJywgJy1waCcsICc3LjAnLCAnLXRuJywgJzgnLCAnLW1hJywgJzIwMCcsICctbWV0YWxfYmluZGluZycsICctaW1hZScsICc8aW5maWxlLm1hZT4nLCAnLW9tYWUnLCAnPG91dGZpbGUubWFlPic=

> <r_lp_tautomer_probability>
0.999994

> <r_epik_Ionization_Penalty>
8.55934

> <r_epik_Ionization_Penalty_Charging>
8.55934

> <r_epik_Ionization_Penalty_Neutral>
3.77642e-06

> <r_epik_State_Penalty>
8.06887

> <r_epik_Charging_Adjusted_Penalty>
16.6282

> <i_epik_Tot_Q>
1

> <i_epik_Tot_abs_Q>
3

> <r_epik_Metal_State_Penalty>
4.05607

> <b_epik_Metal_Only>
1

> <s_lp_Force_Field>
OPLS_2005

> <r_lp_Energy>
53.4939

> <b_lp_Chiralities_Consistent>
1

> <s_lp_Variant>
AV-unprocessed.smi:1082-3

> <Gold.Version>
5.8.1

> <Gold.Id.Protein>
6NUR|6NUR_protein|mol2

> <Gold.PLP.Fitness>
43.5697

> <Gold.PLP.PLP>
-32.5788

> <Gold.PLP.part.hbond>
-2.0000

> <Gold.PLP.part.metal>
0.0000

> <Gold.PLP.part.buried>
-5.5829

> <Gold.PLP.part.nonpolar>
-24.6873

> <Gold.PLP.part.repulsive>
0.1648

> <Gold.PLP.ligand.clash>
0.0000

> <Gold.PLP.ligand.torsion>
0.7835

> <Gold.PLP.Chemscore.Hbond>
3.9840

> <Gold.PLP.Chemscore.CHOScore>
0.0000

> <Gold.PLP.Chemscore.Metal>
0.0000

> <Gold.Chemscore.Hbonds>
donor molecule, donor type, donor heavy atom, donor atom, acceptor molecule, acceptor atom, score
      L1  H     6    47       P1  7948  1.95
      L1  H    16    48       P1  8028  2.00

> <Gold.PLP.Chemscore.Internal.Correction>
0.6058

> <Gold.Rescore>
     Score         DG    S(hbond)    S(metal)    S(lipo)     H(rot)  DE(clash)    DE(int)     intcor
     14.36     -16.73       1.95        0.00      75.49       1.60       0.23       2.14       ----

> <Gold.Chemscore.Fitness>
14.3558

> <Gold.Chemscore.DG>
-16.7296

> <Gold.Chemscore.ZeroCoef>
-5.4800

> <Gold.Chemscore.Hbond>
1.9498

> <Gold.Chemscore.Metal>
0.0000

> <Gold.Chemscore.Lipo>
75.4942

> <Gold.Chemscore.Internal_Hbond>
0.0000

> <Gold.Chemscore.DEClash>
0.2291

> <Gold.Chemscore.DEInternal>
2.1447

> <Gold.Chemscore.Rot>
1.5998

> <Gold.Chemscore.Internal.Correction>
   9.000000E+99

> <Gold.Chemscore.Hbonds>
donor molecule, donor type, donor heavy atom, donor atom, acceptor molecule, acceptor atom, score
      L1  H     6    47       P1  7948  0.28
      L1  H    16    48       P1  8028  1.00

> <Gold.Chemscore.Hbond.Weighted>
-6.5124

> <Gold.Chemscore.Metal.Weighted>
-0.0000

> <Gold.Chemscore.Lipo.Weighted>
-8.8328

> <Gold.Chemscore.Internal_Hbond.Weighted>
0.0000

> <Gold.Chemscore.DEClash.Weighted>
0.2291

> <Gold.Chemscore.DEInternal.Weighted>
2.1447

> <Gold.Chemscore.Rot.Weighted>
4.0956

> <Gold.Chemscore.Internal.Correction.Weighted>
   9.000000E+99

> <Gold.Protein.RotatedTorsions>
[ 6907 6896 6895 6894 ] final -132.18 input  -60.11 | X-H torsion
[ 7974 7965 7964 7962 ] final -128.57 input  175.53 | X-H torsion
[ 8008 7997 7996 7995 ] final -140.90 input   59.86 | X-H torsion
[ 10167 10162 10161 10158 ] final  153.12 input  -65.29 | X-H torsion
[ 10718 10713 10712 10709 ] final  126.99 input   66.30 | X-H torsion
[ 10763 10752 10751 10750 ] final -138.76 input  -60.55 | X-H torsion
[ 11005 11000 10999 10996 ] final  115.23 input  -57.11 | X-H torsion

> <Gold.Protein.ActiveResidues>
 VAL166  LYS551  ARG553  GLY616  TRP617  ASP618  TYR619  PRO620  LYS621  CYS622 
 ASP623  PHE694  ASN695  SER759  ASP760  ASP761  ALA762  ILE779  LEU786  VAL792 
 PHE793  MET794  SER795  GLU796  ALA797  LYS798  CYS799  TRP800  GLU811  SER814 

> <Gold.Protein.RotatedAtoms>
  150.9594  133.6462  159.2756 H   0  0  0  0  0  0  0  0  0  0  0  0  # atno 6907 bound_to 6896
  151.3789  135.0935  159.9499 H   0  0  0  0  0  0  0  0  0  0  0  0  # atno 6908 bound_to 6896
  152.5142  133.9133  159.7553 H   0  0  0  0  0  0  0  0  0  0  0  0  # atno 6909 bound_to 6896
  144.9657  140.7493  143.4701 H   0  0  0  0  0  0  0  0  0  0  0  0  # atno 7974 bound_to 7965
  155.4689  140.0551  157.2982 H   0  0  0  0  0  0  0  0  0  0  0  0  # atno 8008 bound_to 7997
  154.4706  140.2038  155.9958 H   0  0  0  0  0  0  0  0  0  0  0  0  # atno 8009 bound_to 7997
  156.1050  140.3213  155.7998 H   0  0  0  0  0  0  0  0  0  0  0  0  # atno 8010 bound_to 7997
  139.4829  144.5300  151.7738 H   0  0  0  0  0  0  0  0  0  0  0  0  # atno 10167 bound_to 10162
  157.5372  131.1097  150.8917 H   0  0  0  0  0  0  0  0  0  0  0  0  # atno 10718 bound_to 10713
  154.8628  135.3602  154.5437 H   0  0  0  0  0  0  0  0  0  0  0  0  # atno 10763 bound_to 10752
  153.6057  135.7011  153.5371 H   0  0  0  0  0  0  0  0  0  0  0  0  # atno 10764 bound_to 10752
  153.3252  135.4140  155.1411 H   0  0  0  0  0  0  0  0  0  0  0  0  # atno 10765 bound_to 10752
  139.9003  134.9580  156.7013 H   0  0  0  0  0  0  0  0  0  0  0  0  # atno 11005 bound_to 11000
  145.2633  139.1983  143.4880 LP  0  0  0  0  0  0  0  0  0  0  0  0  # atno 17320 bound_to 7965
  146.3367  140.2567  142.8600 LP  0  0  0  0  0  0  0  0  0  0  0  0  # atno 17321 bound_to 7965
  140.4825  144.1428  150.5935 LP  0  0  0  0  0  0  0  0  0  0  0  0  # atno 17342 bound_to 10162
  140.4261  143.2589  151.9654 LP  0  0  0  0  0  0  0  0  0  0  0  0  # atno 17343 bound_to 10162
  156.9480  130.5409  149.5281 LP  0  0  0  0  0  0  0  0  0  0  0  0  # atno 17370 bound_to 10713
  156.0468  130.5543  150.8898 LP  0  0  0  0  0  0  0  0  0  0  0  0  # atno 17371 bound_to 10713
  140.7148  133.9191  155.8108 LP  0  0  0  0  0  0  0  0  0  0  0  0  # atno 17394 bound_to 11000
  141.0272  134.0806  157.4055 LP  0  0  0  0  0  0  0  0  0  0  0  0  # atno 17395 bound_to 11000

$$$$
