AV-unprocessed.smi:1514|AV-procd|sdf|6116|dock5
  -GOLD-   22720 6253D 1   1.00000     0.00000
 Structure written by MMmdl.
 47 48  0  0  0  0  0  0  0  0  1 V2000
  151.9954  144.5292  158.2657 C   0  0  0  0  0  0  0  0  0  0  0  0
  151.6310  143.0680  158.5645 C   0  0  0  0  0  0  0  0  0  0  0  0
  151.5540  142.2003  157.3910 N   0  0  0  0  0  0  0  0  0  0  0  0
  150.1636  141.9831  156.9917 C   0  0  0  0  0  0  0  0  0  0  0  0
  150.0623  141.0862  155.7440 C   0  0  0  0  0  0  0  0  0  0  0  0
  150.6840  139.7784  155.9688 N   0  0  0  0  0  0  0  0  0  0  0  0
  150.6112  138.9145  154.7925 C   0  0  0  0  0  0  0  0  0  0  0  0
  151.3766  137.5871  154.9143 C   0  0  0  0  0  0  0  0  0  0  0  0
  150.6280  136.5141  154.2759 N   0  0  0  0  0  0  0  0  0  0  0  0
  150.6984  135.2245  154.6317 C   0  0  0  0  0  0  0  0  0  0  0  0
  151.4052  134.8137  155.5523 O   0  0  0  0  0  0  0  0  0  0  0  0
  149.9028  134.4650  153.8584 N   0  0  0  0  0  0  0  0  0  0  0  0
  149.7318  133.1165  153.8795 C   0  0  0  0  0  0  0  0  0  0  0  0
  150.4610  132.1659  154.5404 C   0  0  0  0  0  0  0  0  0  0  0  0
  149.8081  130.9549  154.1675 C   0  0  0  0  0  0  0  0  0  0  0  0
  150.1544  129.5537  154.5767 C   0  0  0  0  0  0  0  0  0  0  0  0
  148.7755  131.1579  153.3571 N   0  0  0  0  0  0  0  0  0  0  0  0
  148.7256  132.4950  153.1742 N   0  0  0  0  0  0  0  0  0  0  0  0
  147.7017  133.0739  152.3263 C   0  0  0  0  0  0  0  0  0  0  0  0
  152.0739  139.9960  156.3705 C   0  0  0  0  0  0  0  0  0  0  0  0
  152.1739  140.8927  157.6184 C   0  0  0  0  0  0  0  0  0  0  0  0
  151.9284  145.1324  159.1711 H   0  0  0  0  0  0  0  0  0  0  0  0
  151.3164  144.9611  157.5299 H   0  0  0  0  0  0  0  0  0  0  0  0
  153.0125  144.6272  157.8869 H   0  0  0  0  0  0  0  0  0  0  0  0
  152.3381  142.6559  159.2860 H   0  0  0  0  0  0  0  0  0  0  0  0
  150.6608  143.0699  159.0633 H   0  0  0  0  0  0  0  0  0  0  0  0
  149.6045  141.5314  157.8128 H   0  0  0  0  0  0  0  0  0  0  0  0
  149.6870  142.9409  156.7810 H   0  0  0  0  0  0  0  0  0  0  0  0
  149.0095  140.9652  155.4917 H   0  0  0  0  0  0  0  0  0  0  0  0
  150.5328  141.5846  154.8948 H   0  0  0  0  0  0  0  0  0  0  0  0
  149.5669  138.7139  154.5475 H   0  0  0  0  0  0  0  0  0  0  0  0
  151.0212  139.4547  153.9378 H   0  0  0  0  0  0  0  0  0  0  0  0
  152.3572  137.6781  154.4439 H   0  0  0  0  0  0  0  0  0  0  0  0
  151.5393  137.3219  155.9592 H   0  0  0  0  0  0  0  0  0  0  0  0
  150.0228  136.7705  153.5098 H   0  0  0  0  0  0  0  0  0  0  0  0
  149.3696  134.9541  153.1548 H   0  0  0  0  0  0  0  0  0  0  0  0
  151.3193  132.2926  155.1827 H   0  0  0  0  0  0  0  0  0  0  0  0
  151.0955  129.5248  155.1259 H   0  0  0  0  0  0  0  0  0  0  0  0
  150.2589  128.9042  153.7072 H   0  0  0  0  0  0  0  0  0  0  0  0
  149.3816  129.1306  155.2188 H   0  0  0  0  0  0  0  0  0  0  0  0
  148.1665  133.7036  151.5674 H   0  0  0  0  0  0  0  0  0  0  0  0
  147.0280  133.6815  152.9306 H   0  0  0  0  0  0  0  0  0  0  0  0
  147.1254  132.2914  151.8305 H   0  0  0  0  0  0  0  0  0  0  0  0
  152.5500  139.0381  156.5825 H   0  0  0  0  0  0  0  0  0  0  0  0
  152.6347  140.4474  155.5504 H   0  0  0  0  0  0  0  0  0  0  0  0
  153.2264  141.0137  157.8727 H   0  0  0  0  0  0  0  0  0  0  0  0
  151.7013  140.3953  158.4669 H   0  0  0  0  0  0  0  0  0  0  0  0
  1  2  1  0  0  0  0
  1 22  1  0  0  0  0
  1 23  1  0  0  0  0
  1 24  1  0  0  0  0
  2  3  1  0  0  0  0
  2 25  1  0  0  0  0
  2 26  1  0  0  0  0
  3 21  1  0  0  0  0
  3  4  1  0  0  0  0
  4  5  1  0  0  0  0
  4 27  1  0  0  0  0
  4 28  1  0  0  0  0
  5  6  1  0  0  0  0
  5 29  1  0  0  0  0
  5 30  1  0  0  0  0
  6  7  1  0  0  0  0
  6 20  1  0  0  0  0
  7  8  1  0  0  0  0
  7 31  1  0  0  0  0
  7 32  1  0  0  0  0
  8  9  1  0  0  0  0
  8 33  1  0  0  0  0
  8 34  1  0  0  0  0
  9 10  1  0  0  0  0
  9 35  1  0  0  0  0
 10 11  2  0  0  0  0
 10 12  1  0  0  0  0
 12 13  1  0  0  0  0
 12 36  1  0  0  0  0
 13 18  1  0  0  0  0
 13 14  2  0  0  0  0
 14 15  1  0  0  0  0
 14 37  1  0  0  0  0
 15 16  1  0  0  0  0
 15 17  2  0  0  0  0
 16 38  1  0  0  0  0
 16 39  1  0  0  0  0
 16 40  1  0  0  0  0
 17 18  1  0  0  0  0
 18 19  1  0  0  0  0
 19 41  1  0  0  0  0
 19 42  1  0  0  0  0
 19 43  1  0  0  0  0
 20 21  1  0  0  0  0
 20 44  1  0  0  0  0
 20 45  1  0  0  0  0
 21 46  1  0  0  0  0
 21 47  1  0  0  0  0
M  END
> <s_m_source_file>
AV-unprocessed.smi

> <i_m_source_file_index>
1514

> <i_lp_mmshare_version>
43012

> <i_f3d_flags>
0

> <s_epik_input>
W0NIM11bQ0gyXU4xW0NIMl1bQ0gyXU4oW0NIMl1bQ0gyXTEpW0NIMl1bQ0gyXVtOSF1DKD1PKVtOSF1jMltjSF1jKFtDSDNdKW5uMltDSDNd

> <s_epik_cmdline>
J2VwaWtfcHl0aG9uJywgJy1waCcsICc3LjAnLCAnLXRuJywgJzgnLCAnLW1hJywgJzIwMCcsICctbWV0YWxfYmluZGluZycsICctaW1hZScsICc8aW5maWxlLm1hZT4nLCAnLW9tYWUnLCAnPG91dGZpbGUubWFlPic=

> <r_lp_tautomer_probability>
1

> <r_epik_Ionization_Penalty>
2.12169

> <r_epik_Ionization_Penalty_Charging>
0

> <r_epik_Ionization_Penalty_Neutral>
2.12169

> <r_epik_State_Penalty>
1.63644

> <r_epik_Charging_Adjusted_Penalty>
1.63644

> <i_epik_Tot_Q>
0

> <i_epik_Tot_abs_Q>
0

> <r_epik_Metal_State_Penalty>
1.63644

> <b_epik_Metal_Only>
0

> <s_lp_Force_Field>
OPLS_2005

> <r_lp_Energy>
34.6539

> <b_lp_Chiralities_Consistent>
1

> <s_lp_Variant>
AV-unprocessed.smi:1514-3

> <Gold.Version>
5.8.1

> <Gold.Id.Protein>
6NUR|6NUR_protein|mol2

> <Gold.PLP.Fitness>
42.7146

> <Gold.PLP.PLP>
-39.5701

> <Gold.PLP.part.hbond>
-3.6740

> <Gold.PLP.part.metal>
0.0000

> <Gold.PLP.part.buried>
-2.5682

> <Gold.PLP.part.nonpolar>
-34.8198

> <Gold.PLP.part.repulsive>
0.2892

> <Gold.PLP.ligand.clash>
0.0000

> <Gold.PLP.ligand.torsion>
1.0931

> <Gold.PLP.Chemscore.Hbond>
1.7420

> <Gold.PLP.Chemscore.CHOScore>
0.0000

> <Gold.PLP.Chemscore.Metal>
0.0000

> <Gold.Chemscore.Hbonds>
donor molecule, donor type, donor heavy atom, donor atom, acceptor molecule, acceptor atom, score
      L1  H     9    35       P1  7948  0.88
      L1  H    12    36       P1  7948  0.40

> <Gold.PLP.Chemscore.Internal.Correction>
0.1046

> <Gold.Rescore>
     Score         DG    S(hbond)    S(metal)    S(lipo)     H(rot)  DE(clash)    DE(int)     intcor
     12.81     -14.93       1.40        0.00      76.60       1.64       0.04       2.08       ----

> <Gold.Chemscore.Fitness>
12.8082

> <Gold.Chemscore.DG>
-14.9257

> <Gold.Chemscore.ZeroCoef>
-5.4800

> <Gold.Chemscore.Hbond>
1.4041

> <Gold.Chemscore.Metal>
0.0000

> <Gold.Chemscore.Lipo>
76.6024

> <Gold.Chemscore.Internal_Hbond>
0.0000

> <Gold.Chemscore.DEClash>
0.0365

> <Gold.Chemscore.DEInternal>
2.0810

> <Gold.Chemscore.Rot>
1.6432

> <Gold.Chemscore.Internal.Correction>
   9.000000E+99

> <Gold.Chemscore.Hbonds>
donor molecule, donor type, donor heavy atom, donor atom, acceptor molecule, acceptor atom, score
      L1  H     9    35       P1  7948  0.16
      L1  H    12    36       P1  7948  0.01

> <Gold.Chemscore.Hbond.Weighted>
-4.6898

> <Gold.Chemscore.Metal.Weighted>
-0.0000

> <Gold.Chemscore.Lipo.Weighted>
-8.9625

> <Gold.Chemscore.Internal_Hbond.Weighted>
0.0000

> <Gold.Chemscore.DEClash.Weighted>
0.0365

> <Gold.Chemscore.DEInternal.Weighted>
2.0810

> <Gold.Chemscore.Rot.Weighted>
4.2065

> <Gold.Chemscore.Internal.Correction.Weighted>
   9.000000E+99

> <Gold.Protein.RotatedTorsions>
[ 6907 6896 6895 6894 ] final -139.95 input  -60.11 | X-H torsion
[ 7974 7965 7964 7962 ] final  -83.02 input  175.53 | X-H torsion
[ 8008 7997 7996 7995 ] final  106.74 input   59.86 | X-H torsion
[ 10167 10162 10161 10158 ] final -138.23 input  -65.29 | X-H torsion
[ 10718 10713 10712 10709 ] final  -89.55 input   66.30 | X-H torsion
[ 10763 10752 10751 10750 ] final  -90.69 input  -60.55 | X-H torsion
[ 11005 11000 10999 10996 ] final  103.51 input  -57.11 | X-H torsion

> <Gold.Protein.ActiveResidues>
 VAL166  LYS551  ARG553  GLY616  TRP617  ASP618  TYR619  PRO620  LYS621  CYS622 
 ASP623  PHE694  ASN695  SER759  ASP760  ASP761  ALA762  ILE779  LEU786  VAL792 
 PHE793  MET794  SER795  GLU796  ALA797  LYS798  CYS799  TRP800  GLU811  SER814 

> <Gold.Protein.RotatedAtoms>
  151.0543  133.5597  159.2639 H   0  0  0  0  0  0  0  0  0  0  0  0  # atno 6907 bound_to 6896
  151.2596  135.0649  159.9103 H   0  0  0  0  0  0  0  0  0  0  0  0  # atno 6908 bound_to 6896
  152.5387  134.0291  159.8070 H   0  0  0  0  0  0  0  0  0  0  0  0  # atno 6909 bound_to 6896
  145.5255  140.9527  143.1632 H   0  0  0  0  0  0  0  0  0  0  0  0  # atno 7974 bound_to 7965
  156.1768  140.3107  155.9074 H   0  0  0  0  0  0  0  0  0  0  0  0  # atno 8008 bound_to 7997
  155.3470  140.0469  157.3063 H   0  0  0  0  0  0  0  0  0  0  0  0  # atno 8009 bound_to 7997
  154.5299  140.2227  155.8833 H   0  0  0  0  0  0  0  0  0  0  0  0  # atno 8010 bound_to 7997
  139.8499  143.7213  152.2658 H   0  0  0  0  0  0  0  0  0  0  0  0  # atno 10167 bound_to 10162
  155.9985  130.4876  150.5189 H   0  0  0  0  0  0  0  0  0  0  0  0  # atno 10718 bound_to 10713
  154.6684  135.5295  153.8106 H   0  0  0  0  0  0  0  0  0  0  0  0  # atno 10763 bound_to 10752
  153.0485  135.6523  154.0763 H   0  0  0  0  0  0  0  0  0  0  0  0  # atno 10764 bound_to 10752
  154.0665  135.2957  155.3295 H   0  0  0  0  0  0  0  0  0  0  0  0  # atno 10765 bound_to 10752
  139.8784  134.9265  156.5220 H   0  0  0  0  0  0  0  0  0  0  0  0  # atno 11005 bound_to 11000
  144.7653  139.6859  143.7217 LP  0  0  0  0  0  0  0  0  0  0  0  0  # atno 17320 bound_to 7965
  146.2078  139.5414  142.9701 LP  0  0  0  0  0  0  0  0  0  0  0  0  # atno 17321 bound_to 7965
  139.7476  144.7543  151.0556 LP  0  0  0  0  0  0  0  0  0  0  0  0  # atno 17342 bound_to 10162
  140.7789  143.4898  150.9908 LP  0  0  0  0  0  0  0  0  0  0  0  0  # atno 17343 bound_to 10162
  157.3153  131.0671  151.1971 LP  0  0  0  0  0  0  0  0  0  0  0  0  # atno 17370 bound_to 10713
  157.2904  130.6793  149.6111 LP  0  0  0  0  0  0  0  0  0  0  0  0  # atno 17371 bound_to 10713
  140.8443  133.8180  155.9106 LP  0  0  0  0  0  0  0  0  0  0  0  0  # atno 17394 bound_to 11000
  140.9206  134.2146  157.4929 LP  0  0  0  0  0  0  0  0  0  0  0  0  # atno 17395 bound_to 11000

$$$$
