AV-unprocessed.smi:1384|AV-procd|sdf|5627|dock2
  -GOLD-   22720 5243D 1   1.00000     0.00000
 Structure written by MMmdl.
 41 42  0  0  0  0  0  0  0  0  1 V2000
  147.1122  139.0541  151.4128 C   0  0  0  0  0  0  0  0  0  0  0  0
  146.7052  139.5553  152.8059 C   0  0  2  0  0  0  0  0  0  0  0  0
  147.0916  141.0334  153.0054 C   0  0  0  0  0  0  0  0  0  0  0  0
  146.6920  141.5428  154.4019 C   0  0  0  0  0  0  0  0  0  0  0  0
  147.2786  140.6733  155.5303 C   0  0  2  0  0  0  0  0  0  0  0  0
  148.7251  140.8676  155.6167 N   0  0  0  0  0  0  0  0  0  0  0  0
  149.3858  141.3500  156.6801 C   0  0  0  0  0  0  0  0  0  0  0  0
  148.8281  141.6796  157.7280 O   0  0  0  0  0  0  0  0  0  0  0  0
  150.9101  141.4546  156.5268 C   0  0  0  0  0  0  0  0  0  0  0  0
  151.5882  141.9804  157.7244 N   0  0  0  0  0  0  0  0  0  0  0  0
  151.2664  143.2937  158.1108 C   0  0  0  0  0  0  0  0  0  0  0  0
  151.8252  143.8707  159.1832 C   0  0  0  0  0  0  0  0  0  0  0  0
  152.7793  143.1065  159.9492 C   0  0  0  0  0  0  0  0  0  0  0  0
  153.1142  141.8433  159.5983 C   0  0  0  0  0  0  0  0  0  0  0  0
  154.1187  141.0192  160.4009 C   0  0  0  0  0  0  0  0  0  0  0  0
  153.7913  139.7266  160.3792 F   0  0  0  0  0  0  0  0  0  0  0  0
  155.3431  141.1477  159.8886 F   0  0  0  0  0  0  0  0  0  0  0  0
  154.1679  141.4046  161.6771 F   0  0  0  0  0  0  0  0  0  0  0  0
  152.4951  141.2185  158.4112 C   0  0  0  0  0  0  0  0  0  0  0  0
  152.7727  140.0740  158.0481 O   0  0  0  0  0  0  0  0  0  0  0  0
  146.9173  139.1875  155.3184 C   0  0  0  0  0  0  0  0  0  0  0  0
  147.3162  138.6838  153.9199 C   0  0  0  0  0  0  0  0  0  0  0  0
  148.1924  139.1070  151.2724 H   0  0  0  0  0  0  0  0  0  0  0  0
  146.6451  139.6511  150.6292 H   0  0  0  0  0  0  0  0  0  0  0  0
  146.8072  138.0180  151.2630 H   0  0  0  0  0  0  0  0  0  0  0  0
  145.6191  139.4791  152.8778 H   0  0  0  0  0  0  0  0  0  0  0  0
  148.1661  141.1558  152.8638 H   0  0  0  0  0  0  0  0  0  0  0  0
  146.6117  141.6488  152.2438 H   0  0  0  0  0  0  0  0  0  0  0  0
  147.0029  142.5811  154.5239 H   0  0  0  0  0  0  0  0  0  0  0  0
  145.6041  141.5423  154.4809 H   0  0  0  0  0  0  0  0  0  0  0  0
  146.8380  141.0078  156.4714 H   0  0  0  0  0  0  0  0  0  0  0  0
  149.2641  140.6154  154.8010 H   0  0  0  0  0  0  0  0  0  0  0  0
  151.2946  140.4651  156.2746 H   0  0  0  0  0  0  0  0  0  0  0  0
  151.1405  142.0766  155.6598 H   0  0  0  0  0  0  0  0  0  0  0  0
  150.5493  143.7986  157.4795 H   0  0  0  0  0  0  0  0  0  0  0  0
  151.5709  144.8819  159.4643 H   0  0  0  0  0  0  0  0  0  0  0  0
  153.2262  143.5680  160.8171 H   0  0  0  0  0  0  0  0  0  0  0  0
  147.3819  138.5665  156.0850 H   0  0  0  0  0  0  0  0  0  0  0  0
  145.8412  139.0630  155.4455 H   0  0  0  0  0  0  0  0  0  0  0  0
  146.9926  137.6490  153.8019 H   0  0  0  0  0  0  0  0  0  0  0  0
  148.4032  138.6760  153.8299 H   0  0  0  0  0  0  0  0  0  0  0  0
  1  2  1  0  0  0  0
  1 23  1  0  0  0  0
  1 24  1  0  0  0  0
  1 25  1  0  0  0  0
  2 22  1  0  0  0  0
  2  3  1  0  0  0  0
  2 26  1  0  0  0  0
  3  4  1  0  0  0  0
  3 27  1  0  0  0  0
  3 28  1  0  0  0  0
  4  5  1  0  0  0  0
  4 29  1  0  0  0  0
  4 30  1  0  0  0  0
  5  6  1  0  0  0  0
  5 21  1  0  0  0  0
  5 31  1  0  0  0  0
  6  7  1  0  0  0  0
  6 32  1  0  0  0  0
  7  8  2  0  0  0  0
  7  9  1  0  0  0  0
  9 10  1  0  0  0  0
  9 33  1  0  0  0  0
  9 34  1  0  0  0  0
 10 19  1  0  0  0  0
 10 11  1  0  0  0  0
 11 12  2  0  0  0  0
 11 35  1  0  0  0  0
 12 13  1  0  0  0  0
 12 36  1  0  0  0  0
 13 14  2  0  0  0  0
 13 37  1  0  0  0  0
 14 15  1  0  0  0  0
 14 19  1  0  0  0  0
 15 16  1  0  0  0  0
 15 17  1  0  0  0  0
 15 18  1  0  0  0  0
 19 20  2  0  0  0  0
 21 22  1  0  0  0  0
 21 38  1  0  0  0  0
 21 39  1  0  0  0  0
 22 40  1  0  0  0  0
 22 41  1  0  0  0  0
M  END
> <s_m_source_file>
AV-unprocessed.smi

> <i_m_source_file_index>
1384

> <i_lp_mmshare_version>
43012

> <i_f3d_flags>
0

> <s_epik_input>
W0NIM11bQ0BASF0xW0NIMl1bQ0gyXVtDQEhdKFtDSDJdW0NIMl0xKVtOSF1DKD1PKVtDSDJdbjJbY0hdW2NIXVtjSF1jKEMoRikoRilGKWMyPU8=

> <s_epik_cmdline>
J2VwaWtfcHl0aG9uJywgJy1waCcsICc3LjAnLCAnLXRuJywgJzgnLCAnLW1hJywgJzIwMCcsICctbWV0YWxfYmluZGluZycsICctaW1hZScsICc8aW5maWxlLm1hZT4nLCAnLW9tYWUnLCAnPG91dGZpbGUubWFlPic=

> <r_lp_tautomer_probability>
1

> <r_epik_Ionization_Penalty>
2.11165e-08

> <r_epik_Ionization_Penalty_Charging>
2.06965e-09

> <r_epik_Ionization_Penalty_Neutral>
1.90469e-08

> <r_epik_State_Penalty>
-0

> <r_epik_Charging_Adjusted_Penalty>
2.06965e-09

> <i_epik_Tot_Q>
0

> <i_epik_Tot_abs_Q>
0

> <r_epik_Metal_State_Penalty>
-0

> <b_epik_Metal_Only>
0

> <s_lp_Force_Field>
OPLS_2005

> <r_lp_Energy>
18.4349

> <b_lp_Chiralities_Consistent>
1

> <s_lp_Variant>
AV-unprocessed.smi:1384-2

> <Gold.Version>
5.8.1

> <Gold.Id.Protein>
6NUR|6NUR_protein|mol2

> <Gold.PLP.Fitness>
43.8988

> <Gold.PLP.PLP>
-40.2652

> <Gold.PLP.part.hbond>
-1.0000

> <Gold.PLP.part.metal>
0.0000

> <Gold.PLP.part.buried>
1.3672

> <Gold.PLP.part.nonpolar>
-38.4819

> <Gold.PLP.part.repulsive>
0.1656

> <Gold.PLP.ligand.clash>
0.0000

> <Gold.PLP.ligand.torsion>
1.0978

> <Gold.PLP.Chemscore.Hbond>
0.8613

> <Gold.PLP.Chemscore.CHOScore>
0.9736

> <Gold.PLP.Chemscore.Metal>
0.0000

> <Gold.Chemscore.Hbonds>
donor molecule, donor type, donor heavy atom, donor atom, acceptor molecule, acceptor atom, score
      P1  H  7997  8008       L1    20  0.91
      L1  C    11    35       P1  8028  0.80

> <Gold.PLP.Chemscore.Internal.Correction>
0.3246

> <Gold.Rescore>
     Score         DG    S(hbond)    S(metal)    S(lipo)     H(rot)  DE(clash)    DE(int)     intcor
     10.96     -15.72       0.91        0.00      94.95       1.52       1.44       3.32       ----

> <Gold.Chemscore.Fitness>
10.9564

> <Gold.Chemscore.DG>
-15.7178

> <Gold.Chemscore.ZeroCoef>
-5.4800

> <Gold.Chemscore.Hbond>
0.9072

> <Gold.Chemscore.Metal>
0.0000

> <Gold.Chemscore.Lipo>
94.9535

> <Gold.Chemscore.Internal_Hbond>
0.0000

> <Gold.Chemscore.DEClash>
1.4386

> <Gold.Chemscore.DEInternal>
3.3228

> <Gold.Chemscore.Rot>
1.5242

> <Gold.Chemscore.Internal.Correction>
   9.000000E+99

> <Gold.Chemscore.Hbonds>
donor molecule, donor type, donor heavy atom, donor atom, acceptor molecule, acceptor atom, score
      P1  H  7997  8008       L1    20  0.66

> <Gold.Chemscore.Hbond.Weighted>
-3.0301

> <Gold.Chemscore.Metal.Weighted>
-0.0000

> <Gold.Chemscore.Lipo.Weighted>
-11.1096

> <Gold.Chemscore.Internal_Hbond.Weighted>
0.0000

> <Gold.Chemscore.DEClash.Weighted>
1.4386

> <Gold.Chemscore.DEInternal.Weighted>
3.3228

> <Gold.Chemscore.Rot.Weighted>
3.9019

> <Gold.Chemscore.Internal.Correction.Weighted>
   9.000000E+99

> <Gold.Protein.RotatedTorsions>
[ 6907 6896 6895 6894 ] final  132.93 input  -60.11 | X-H torsion
[ 7974 7965 7964 7962 ] final  138.11 input  175.53 | X-H torsion
[ 8008 7997 7996 7995 ] final  -77.52 input   59.86 | X-H torsion
[ 10167 10162 10161 10158 ] final   56.05 input  -65.29 | X-H torsion
[ 10718 10713 10712 10709 ] final  -56.52 input   66.30 | X-H torsion
[ 10763 10752 10751 10750 ] final  122.02 input  -60.55 | X-H torsion
[ 11005 11000 10999 10996 ] final   66.19 input  -57.11 | X-H torsion

> <Gold.Protein.ActiveResidues>
 VAL166  LYS551  ARG553  GLY616  TRP617  ASP618  TYR619  PRO620  LYS621  CYS622 
 ASP623  PHE694  ASN695  SER759  ASP760  ASP761  ALA762  ILE779  LEU786  VAL792 
 PHE793  MET794  SER795  GLU796  ALA797  LYS798  CYS799  TRP800  GLU811  SER814 

> <Gold.Protein.RotatedAtoms>
  152.3273  133.5919  159.5785 H   0  0  0  0  0  0  0  0  0  0  0  0  # atno 6907 bound_to 6896
  150.7404  133.9921  159.3619 H   0  0  0  0  0  0  0  0  0  0  0  0  # atno 6908 bound_to 6896
  151.7799  135.0765  160.0423 H   0  0  0  0  0  0  0  0  0  0  0  0  # atno 6909 bound_to 6896
  144.9403  139.4939  143.5575 H   0  0  0  0  0  0  0  0  0  0  0  0  # atno 7974 bound_to 7965
  154.5603  140.0709  156.8809 H   0  0  0  0  0  0  0  0  0  0  0  0  # atno 8008 bound_to 7997
  155.2823  140.3372  155.4239 H   0  0  0  0  0  0  0  0  0  0  0  0  # atno 8009 bound_to 7997
  156.2037  140.1731  156.7831 H   0  0  0  0  0  0  0  0  0  0  0  0  # atno 8010 bound_to 7997
  140.2129  144.3870  150.6481 H   0  0  0  0  0  0  0  0  0  0  0  0  # atno 10167 bound_to 10162
  156.1282  130.4161  150.0316 H   0  0  0  0  0  0  0  0  0  0  0  0  # atno 10718 bound_to 10713
  153.6232  135.3409  155.3017 H   0  0  0  0  0  0  0  0  0  0  0  0  # atno 10763 bound_to 10752
  154.8596  135.4278  154.2185 H   0  0  0  0  0  0  0  0  0  0  0  0  # atno 10764 bound_to 10752
  153.3063  135.7028  153.7229 H   0  0  0  0  0  0  0  0  0  0  0  0  # atno 10765 bound_to 10752
  139.9847  134.6687  156.0198 H   0  0  0  0  0  0  0  0  0  0  0  0  # atno 11005 bound_to 11000
  146.3283  139.8418  142.8889 LP  0  0  0  0  0  0  0  0  0  0  0  0  # atno 17320 bound_to 7965
  145.3001  141.0192  143.3613 LP  0  0  0  0  0  0  0  0  0  0  0  0  # atno 17321 bound_to 7965
  140.6310  143.2187  151.6495 LP  0  0  0  0  0  0  0  0  0  0  0  0  # atno 17342 bound_to 10162
  139.5173  144.3320  152.0818 LP  0  0  0  0  0  0  0  0  0  0  0  0  # atno 17343 bound_to 10162
  156.8236  130.9367  151.3640 LP  0  0  0  0  0  0  0  0  0  0  0  0  # atno 17370 bound_to 10713
  157.6462  130.8846  149.9543 LP  0  0  0  0  0  0  0  0  0  0  0  0  # atno 17371 bound_to 10713
  141.1514  133.6548  156.4025 LP  0  0  0  0  0  0  0  0  0  0  0  0  # atno 17394 bound_to 11000
  140.5026  134.6471  157.5254 LP  0  0  0  0  0  0  0  0  0  0  0  0  # atno 17395 bound_to 11000

$$$$
