AV-unprocessed.smi:2855|AV-procd|sdf|10979|dock8
  -GOLD-   2272015433D 1   1.00000     0.00000
 Structure written by MMmdl.
 47 48  0  0  0  0  0  0  0  0  1 V2000
  152.8093  144.7049  158.0372 C   0  0  0  0  0  0  0  0  0  0  0  0
  151.6165  144.2453  158.8945 C   0  0  2  0  0  0  0  0  0  0  0  0
  152.0277  143.2622  160.0059 C   0  0  0  0  0  0  0  0  0  0  0  0
  152.3674  141.8657  159.4590 C   0  0  0  0  0  0  0  0  0  0  0  0
  151.2042  141.2674  158.6327 C   0  0  2  0  0  0  0  0  0  0  0  0
  151.4798  139.8146  158.1385 C   0  0  0  0  0  0  0  0  0  0  0  0
  152.1969  138.9593  159.1973 C   0  0  0  0  0  0  0  0  0  0  0  0
  152.2137  139.7371  156.7870 C   0  0  0  0  0  0  0  0  0  0  0  0
  150.7978  142.2484  157.4992 C   0  0  1  0  0  0  0  0  0  0  0  0
  149.6384  141.7377  156.7717 N   0  0  0  0  0  0  0  0  0  0  0  0
  149.6667  141.1562  155.5633 C   0  0  0  0  0  0  0  0  0  0  0  0
  150.6911  141.0414  154.8894 O   0  0  0  0  0  0  0  0  0  0  0  0
  148.3229  140.6388  155.0328 C   0  0  0  0  0  0  0  0  0  0  0  0
  147.2752  141.6696  155.0454 N   0  0  0  0  0  0  0  0  0  0  0  0
  146.8324  142.2365  153.8586 C   0  0  0  0  0  0  0  0  0  0  0  0
  145.8675  143.1849  153.8001 C   0  0  0  0  0  0  0  0  0  0  0  0
  145.2302  143.6667  155.0210 C   0  0  0  0  0  0  0  0  0  0  0  0
  144.3497  144.5227  155.0712 O   0  0  0  0  0  0  0  0  0  0  0  0
  145.7007  143.0704  156.1937 N   0  0  0  0  0  0  0  0  0  0  0  0
  146.6939  142.0922  156.2613 C   0  0  0  0  0  0  0  0  0  0  0  0
  147.0333  141.6291  157.3501 O   0  0  0  0  0  0  0  0  0  0  0  0
  150.4716  143.6519  158.0520 C   0  0  0  0  0  0  0  0  0  0  0  0
  145.2862  143.3701  157.0642 H   0  0  0  0  0  0  0  0  0  0  0  0
  153.2769  143.8780  157.5034 H   0  0  0  0  0  0  0  0  0  0  0  0
  153.5763  145.1720  158.6553 H   0  0  0  0  0  0  0  0  0  0  0  0
  152.4964  145.4396  157.2950 H   0  0  0  0  0  0  0  0  0  0  0  0
  151.2292  145.1411  159.3814 H   0  0  0  0  0  0  0  0  0  0  0  0
  152.8750  143.6598  160.5655 H   0  0  0  0  0  0  0  0  0  0  0  0
  151.2101  143.1710  160.7222 H   0  0  0  0  0  0  0  0  0  0  0  0
  153.2706  141.9256  158.8525 H   0  0  0  0  0  0  0  0  0  0  0  0
  152.6097  141.2185  160.3011 H   0  0  0  0  0  0  0  0  0  0  0  0
  150.3472  141.2028  159.3057 H   0  0  0  0  0  0  0  0  0  0  0  0
  150.5150  139.3290  157.9913 H   0  0  0  0  0  0  0  0  0  0  0  0
  153.2255  139.2829  159.3544 H   0  0  0  0  0  0  0  0  0  0  0  0
  152.2306  137.9129  158.8926 H   0  0  0  0  0  0  0  0  0  0  0  0
  151.6803  139.0019  160.1564 H   0  0  0  0  0  0  0  0  0  0  0  0
  153.2113  140.1720  156.8414 H   0  0  0  0  0  0  0  0  0  0  0  0
  151.6645  140.2495  155.9976 H   0  0  0  0  0  0  0  0  0  0  0  0
  152.3288  138.7002  156.4702 H   0  0  0  0  0  0  0  0  0  0  0  0
  151.6398  142.3438  156.8132 H   0  0  0  0  0  0  0  0  0  0  0  0
  148.7480  141.7965  157.2439 H   0  0  0  0  0  0  0  0  0  0  0  0
  148.4427  140.2467  154.0204 H   0  0  0  0  0  0  0  0  0  0  0  0
  148.0276  139.7831  155.6415 H   0  0  0  0  0  0  0  0  0  0  0  0
  147.2728  141.9072  152.9282 H   0  0  0  0  0  0  0  0  0  0  0  0
  145.5646  143.5884  152.8446 H   0  0  0  0  0  0  0  0  0  0  0  0
  149.5754  143.5916  158.6715 H   0  0  0  0  0  0  0  0  0  0  0  0
  150.2253  144.3301  157.2339 H   0  0  0  0  0  0  0  0  0  0  0  0
  1  2  1  0  0  0  0
  1 24  1  0  0  0  0
  1 25  1  0  0  0  0
  1 26  1  0  0  0  0
  2 22  1  0  0  0  0
  2  3  1  0  0  0  0
  2 27  1  0  0  0  0
  3  4  1  0  0  0  0
  3 28  1  0  0  0  0
  3 29  1  0  0  0  0
  4  5  1  0  0  0  0
  4 30  1  0  0  0  0
  4 31  1  0  0  0  0
  5  6  1  0  0  0  0
  5  9  1  0  0  0  0
  5 32  1  0  0  0  0
  6  7  1  0  0  0  0
  6  8  1  0  0  0  0
  6 33  1  0  0  0  0
  7 34  1  0  0  0  0
  7 35  1  0  0  0  0
  7 36  1  0  0  0  0
  8 37  1  0  0  0  0
  8 38  1  0  0  0  0
  8 39  1  0  0  0  0
  9 10  1  0  0  0  0
  9 22  1  0  0  0  0
  9 40  1  0  0  0  0
 10 11  1  0  0  0  0
 10 41  1  0  0  0  0
 11 12  2  0  0  0  0
 11 13  1  0  0  0  0
 13 14  1  0  0  0  0
 13 42  1  0  0  0  0
 13 43  1  0  0  0  0
 14 20  1  0  0  0  0
 14 15  1  0  0  0  0
 15 16  2  0  0  0  0
 15 44  1  0  0  0  0
 16 17  1  0  0  0  0
 16 45  1  0  0  0  0
 17 18  2  0  0  0  0
 17 19  1  0  0  0  0
 19 23  1  0  0  0  0
 19 20  1  0  0  0  0
 20 21  2  0  0  0  0
 22 46  1  0  0  0  0
 22 47  1  0  0  0  0
M  END
> <s_m_source_file>
AV-unprocessed.smi

> <i_m_source_file_index>
2855

> <i_lp_mmshare_version>
43012

> <i_f3d_flags>
0

> <s_epik_input>
W0NIM11bQ0BASF0xW0NIMl1bQ0gyXVtDQEBIXShbQ0hdKFtDSDNdKVtDSDNdKVtDQEhdKFtDSDJdMSlbTkhdQyg9TylbQ0gyXW4yW2NIXVtjSF1jKD1PKVtuSF1jMj1P

> <s_epik_cmdline>
J2VwaWtfcHl0aG9uJywgJy1waCcsICc3LjAnLCAnLXRuJywgJzgnLCAnLW1hJywgJzIwMCcsICctbWV0YWxfYmluZGluZycsICctaW1hZScsICc8aW5maWxlLm1hZT4nLCAnLW9tYWUnLCAnPG91dGZpbGUubWFlPic=

> <r_lp_tautomer_probability>
0.999537

> <r_epik_Ionization_Penalty>
0.00306256

> <r_epik_Ionization_Penalty_Charging>
0.00306254

> <r_epik_Ionization_Penalty_Neutral>
2.0223e-08

> <r_epik_State_Penalty>
0.0021533

> <r_epik_Charging_Adjusted_Penalty>
0.00521583

> <i_epik_Tot_Q>
0

> <i_epik_Tot_abs_Q>
0

> <r_epik_Metal_State_Penalty>
0.362116

> <b_epik_Metal_Only>
0

> <s_lp_Force_Field>
OPLS_2005

> <r_lp_Energy>
15.7359

> <b_lp_Chiralities_Consistent>
1

> <s_lp_Variant>
AV-unprocessed.smi:2855-3

> <Gold.Version>
5.8.1

> <Gold.Id.Protein>
6NUR|6NUR_protein|mol2

> <Gold.PLP.Fitness>
41.6653

> <Gold.PLP.PLP>
-41.1113

> <Gold.PLP.part.hbond>
-1.0850

> <Gold.PLP.part.metal>
0.0000

> <Gold.PLP.part.buried>
-2.9515

> <Gold.PLP.part.nonpolar>
-37.1623

> <Gold.PLP.part.repulsive>
0.3410

> <Gold.PLP.ligand.clash>
0.0000

> <Gold.PLP.ligand.torsion>
0.7867

> <Gold.PLP.Chemscore.Hbond>
0.6880

> <Gold.PLP.Chemscore.CHOScore>
0.0000

> <Gold.PLP.Chemscore.Metal>
0.0000

> <Gold.Chemscore.Hbonds>
donor molecule, donor type, donor heavy atom, donor atom, acceptor molecule, acceptor atom, score
      P1  H  7989  7998       L1    12  0.69

> <Gold.PLP.Chemscore.Internal.Correction>
0.0634

> <Gold.Rescore>
     Score         DG    S(hbond)    S(metal)    S(lipo)     H(rot)  DE(clash)    DE(int)     intcor
     13.82     -16.34       0.91        0.00     107.40       1.85       0.40       2.12       ----

> <Gold.Chemscore.Fitness>
13.8167

> <Gold.Chemscore.DG>
-16.3363

> <Gold.Chemscore.ZeroCoef>
-5.4800

> <Gold.Chemscore.Hbond>
0.9091

> <Gold.Chemscore.Metal>
0.0000

> <Gold.Chemscore.Lipo>
107.4004

> <Gold.Chemscore.Internal_Hbond>
0.0000

> <Gold.Chemscore.DEClash>
0.4004

> <Gold.Chemscore.DEInternal>
2.1193

> <Gold.Chemscore.Rot>
1.8539

> <Gold.Chemscore.Internal.Correction>
   9.000000E+99

> <Gold.Chemscore.Hbonds>
donor molecule, donor type, donor heavy atom, donor atom, acceptor molecule, acceptor atom, score
      P1  H  7989  7998       L1    12  0.68

> <Gold.Chemscore.Hbond.Weighted>
-3.0365

> <Gold.Chemscore.Metal.Weighted>
-0.0000

> <Gold.Chemscore.Lipo.Weighted>
-12.5658

> <Gold.Chemscore.Internal_Hbond.Weighted>
0.0000

> <Gold.Chemscore.DEClash.Weighted>
0.4004

> <Gold.Chemscore.DEInternal.Weighted>
2.1193

> <Gold.Chemscore.Rot.Weighted>
4.7460

> <Gold.Chemscore.Internal.Correction.Weighted>
   9.000000E+99

> <Gold.Protein.RotatedTorsions>
[ 6907 6896 6895 6894 ] final -120.56 input  -60.11 | X-H torsion
[ 7974 7965 7964 7962 ] final  -52.21 input  175.53 | X-H torsion
[ 8008 7997 7996 7995 ] final  149.53 input   59.86 | X-H torsion
[ 10167 10162 10161 10158 ] final    7.21 input  -65.29 | X-H torsion
[ 10718 10713 10712 10709 ] final -178.93 input   66.30 | X-H torsion
[ 10763 10752 10751 10750 ] final   81.50 input  -60.55 | X-H torsion
[ 11005 11000 10999 10996 ] final  -87.19 input  -57.11 | X-H torsion

> <Gold.Protein.ActiveResidues>
 VAL166  LYS551  ARG553  GLY616  TRP617  ASP618  TYR619  PRO620  LYS621  CYS622 
 ASP623  PHE694  ASN695  SER759  ASP760  ASP761  ALA762  ILE779  LEU786  VAL792 
 PHE793  MET794  SER795  GLU796  ALA797  LYS798  CYS799  TRP800  GLU811  SER814 

> <Gold.Protein.RotatedAtoms>
  150.8404  133.7945  159.3062 H   0  0  0  0  0  0  0  0  0  0  0  0  # atno 6907 bound_to 6896
  151.5648  135.1063  159.9991 H   0  0  0  0  0  0  0  0  0  0  0  0  # atno 6908 bound_to 6896
  152.4469  133.7511  159.6750 H   0  0  0  0  0  0  0  0  0  0  0  0  # atno 6909 bound_to 6896
  145.9105  140.7919  142.9697 H   0  0  0  0  0  0  0  0  0  0  0  0  # atno 7974 bound_to 7965
  156.2751  140.2099  156.5873 H   0  0  0  0  0  0  0  0  0  0  0  0  # atno 8008 bound_to 7997
  154.7010  140.0521  157.0481 H   0  0  0  0  0  0  0  0  0  0  0  0  # atno 8009 bound_to 7997
  155.0734  140.3179  155.4626 H   0  0  0  0  0  0  0  0  0  0  0  0  # atno 8010 bound_to 7997
  140.6384  143.7831  150.7393 H   0  0  0  0  0  0  0  0  0  0  0  0  # atno 10167 bound_to 10162
  156.8515  130.9721  151.3092 H   0  0  0  0  0  0  0  0  0  0  0  0  # atno 10718 bound_to 10713
  153.1122  135.4763  154.9055 H   0  0  0  0  0  0  0  0  0  0  0  0  # atno 10763 bound_to 10752
  154.7493  135.3102  154.8590 H   0  0  0  0  0  0  0  0  0  0  0  0  # atno 10764 bound_to 10752
  153.9176  135.6858  153.4802 H   0  0  0  0  0  0  0  0  0  0  0  0  # atno 10765 bound_to 10752
  141.1620  133.7497  156.9271 H   0  0  0  0  0  0  0  0  0  0  0  0  # atno 11005 bound_to 11000
  144.6743  140.1818  143.7405 LP  0  0  0  0  0  0  0  0  0  0  0  0  # atno 17320 bound_to 7965
  145.8677  139.2256  143.1679 LP  0  0  0  0  0  0  0  0  0  0  0  0  # atno 17321 bound_to 7965
  140.1457  143.4401  152.2164 LP  0  0  0  0  0  0  0  0  0  0  0  0  # atno 17342 bound_to 10162
  139.5594  144.7395  151.4199 LP  0  0  0  0  0  0  0  0  0  0  0  0  # atno 17343 bound_to 10162
  157.6301  130.8722  149.9258 LP  0  0  0  0  0  0  0  0  0  0  0  0  # atno 17370 bound_to 10713
  156.0825  130.3671  150.0551 LP  0  0  0  0  0  0  0  0  0  0  0  0  # atno 17371 bound_to 10713
  140.1411  134.9293  157.2468 LP  0  0  0  0  0  0  0  0  0  0  0  0  # atno 17394 bound_to 11000
  140.2835  134.3322  155.7336 LP  0  0  0  0  0  0  0  0  0  0  0  0  # atno 17395 bound_to 11000

$$$$
