AV-unprocessed.smi:38|AV-procd|sdf|343|dock8
  -GOLD-   2262016183D 1   1.00000     0.00000
 Structure written by MMmdl.
 27 28  0  0  0  0  0  0  0  0  2 V2000
  151.8083  137.0818  159.9443 O   0  0  0  0  0  0  0  0  0  0  0  0
  151.6938  137.4837  158.7874 C   0  0  0  0  0  0  0  0  0  0  0  0
  152.7619  137.6569  157.9562 N   0  5  0  0  0  0  0  0  0  0  0  0
  152.6325  138.1039  156.6724 C   0  0  0  0  0  0  0  0  0  0  0  0
  153.5893  138.2448  155.9104 O   0  0  0  0  0  0  0  0  0  0  0  0
  151.3355  138.4151  156.1793 N   0  0  0  0  0  0  0  0  0  0  0  0
  151.1847  138.9074  154.7549 C   0  0  1  0  0  0  0  0  0  0  0  0
  150.1613  138.0531  154.0024 C   0  0  0  0  0  0  0  0  0  0  0  0
  148.9016  138.8798  154.1527 C   0  0  2  0  0  0  0  0  0  0  0  0
  147.9859  138.5974  153.1145 O   0  0  0  0  0  0  0  0  0  0  0  0
  149.4535  140.3055  154.0784 C   0  0  1  0  0  0  0  0  0  0  0  0
  148.5463  141.3524  154.7442 C   0  0  0  0  0  0  0  0  0  0  0  0
  148.8130  142.6350  154.2179 O   0  0  0  0  0  0  0  0  0  0  0  0
  150.7034  140.2221  154.7641 O   0  0  0  0  0  0  0  0  0  0  0  0
  150.2326  138.2375  156.9980 C   0  0  0  0  0  0  0  0  0  0  0  0
  150.3644  137.7907  158.2636 C   0  0  0  0  0  0  0  0  0  0  0  0
  149.2741  137.6271  159.0323 F   0  0  0  0  0  0  0  0  0  0  0  0
  152.1852  138.8877  154.3199 H   0  0  0  0  0  0  0  0  0  0  0  0
  148.4411  138.6909  155.1235 H   0  0  0  0  0  0  0  0  0  0  0  0
  149.6481  140.5620  153.0350 H   0  0  0  0  0  0  0  0  0  0  0  0
  150.4705  137.9949  152.9575 H   0  0  0  0  0  0  0  0  0  0  0  0
  150.0816  137.0417  154.4032 H   0  0  0  0  0  0  0  0  0  0  0  0
  148.3845  137.9747  152.5264 H   0  0  0  0  0  0  0  0  0  0  0  0
  147.5003  141.1268  154.5354 H   0  0  0  0  0  0  0  0  0  0  0  0
  148.6648  141.3553  155.8275 H   0  0  0  0  0  0  0  0  0  0  0  0
  148.6292  143.2775  154.8858 H   0  0  0  0  0  0  0  0  0  0  0  0
  149.2421  138.4521  156.6296 H   0  0  0  0  0  0  0  0  0  0  0  0
  1  2  2  0  0  0  0
  2 16  1  0  0  0  0
  2  3  1  0  0  0  0
  3  4  1  0  0  0  0
  4  5  2  0  0  0  0
  4  6  1  0  0  0  0
  6  7  1  0  0  0  0
  6 15  1  0  0  0  0
  7 18  1  0  0  0  0
  7 14  1  0  0  0  0
  7  8  1  0  0  0  0
  8  9  1  0  0  0  0
  8 21  1  0  0  0  0
  8 22  1  0  0  0  0
  9 19  1  0  0  0  0
  9 10  1  0  0  0  0
  9 11  1  0  0  0  0
 10 23  1  0  0  0  0
 11 20  1  0  0  0  0
 11 12  1  0  0  0  0
 11 14  1  0  0  0  0
 12 13  1  0  0  0  0
 12 24  1  0  0  0  0
 12 25  1  0  0  0  0
 13 26  1  0  0  0  0
 15 16  2  0  0  0  0
 15 27  1  0  0  0  0
 16 17  1  0  0  0  0
M  CHG  1   3  -1
M  END
> <s_m_source_file>
AV-unprocessed.smi

> <i_m_source_file_index>
38

> <i_lp_mmshare_version>
43012

> <i_f3d_flags>
0

> <s_epik_input>
Tz1jMVtuSF1jKD1PKW4oW2NIXWMxRilbQ0BIXTJbQ0gyXVtDQEhdKFtPSF0pW0NASF0oTzIpW0NIMl1bT0hd

> <s_epik_cmdline>
J2VwaWtfcHl0aG9uJywgJy1waCcsICc3LjAnLCAnLXRuJywgJzgnLCAnLW1hJywgJzIwMCcsICctbWV0YWxfYmluZGluZycsICctaW1hZScsICc8aW5maWxlLm1hZT4nLCAnLW9tYWUnLCAnPG91dGZpbGUubWFlPic=

> <r_epik_Ionization_Penalty>
1.68146

> <r_epik_Ionization_Penalty_Charging>
3.4211e-08

> <r_epik_Ionization_Penalty_Neutral>
1.68146

> <r_epik_State_Penalty>
1.78593

> <r_epik_Charging_Adjusted_Penalty>
1.78593

> <i_epik_Tot_Q>
-1

> <i_epik_Tot_abs_Q>
1

> <r_epik_Metal_State_Penalty>
0.0113696

> <b_epik_Metal_Only>
0

> <s_epik_Chemistry_Notes>
This compound contains an acetal/aminal-like group ( X-CH(R)-Y where X, Y are N, S, or O) that may be acid/base labile, releasing an aldehyde.

> <s_lp_Force_Field>
OPLS_2005

> <r_lp_Energy>
36.3434

> <b_lp_Chiralities_Consistent>
1

> <s_lp_Variant>
AV-unprocessed.smi:38-9

> <Gold.Version>
5.8.1

> <Gold.Id.Protein>
6NUR|6NUR_protein|mol2

> <Gold.PLP.Fitness>
38.3865

> <Gold.PLP.PLP>
-25.2309

> <Gold.PLP.part.hbond>
-7.2072

> <Gold.PLP.part.metal>
0.0000

> <Gold.PLP.part.buried>
-0.5329

> <Gold.PLP.part.nonpolar>
-18.5084

> <Gold.PLP.part.repulsive>
0.0751

> <Gold.PLP.ligand.clash>
0.0000

> <Gold.PLP.ligand.torsion>
0.3493

> <Gold.PLP.Chemscore.Hbond>
4.6146

> <Gold.PLP.Chemscore.CHOScore>
0.0000

> <Gold.PLP.Chemscore.Metal>
0.0000

> <Gold.Chemscore.Hbonds>
donor molecule, donor type, donor heavy atom, donor atom, acceptor molecule, acceptor atom, score
      L1  H    10    23       P1  7948  1.00
      L1  H    13    26       P1  8028  1.00
      P1  H  6896  6907       L1     1  1.00
      P1  H  7989  7998       L1    14  0.75
      P1  H  7997  8008       L1     5  0.69
      P1  H  8011  8017       L1    13  0.05

> <Gold.PLP.Chemscore.Internal.Correction>
0.0104

> <Gold.Rescore>
     Score         DG    S(hbond)    S(metal)    S(lipo)     H(rot)  DE(clash)    DE(int)     intcor
     11.83     -12.81       3.16        0.00      35.59       2.88       0.75       0.23       ----

> <Gold.Chemscore.Fitness>
11.8320

> <Gold.Chemscore.DG>
-12.8093

> <Gold.Chemscore.ZeroCoef>
-5.4800

> <Gold.Chemscore.Hbond>
3.1563

> <Gold.Chemscore.Metal>
0.0000

> <Gold.Chemscore.Lipo>
35.5885

> <Gold.Chemscore.Internal_Hbond>
0.0000

> <Gold.Chemscore.DEClash>
0.7463

> <Gold.Chemscore.DEInternal>
0.2310

> <Gold.Chemscore.Rot>
2.8815

> <Gold.Chemscore.Internal.Correction>
   9.000000E+99

> <Gold.Chemscore.Hbonds>
donor molecule, donor type, donor heavy atom, donor atom, acceptor molecule, acceptor atom, score
      L1  H    10    23       P1  7948  0.99
      L1  H    13    26       P1  8028  0.96
      P1  H  6896  6907       L1     1  0.78
      P1  H  7989  7998       L1    14  0.02
      P1  H  7997  8008       L1     5  0.42
      P1  H  8011  8017       L1    13  0.05

> <Gold.Chemscore.Hbond.Weighted>
-10.5420

> <Gold.Chemscore.Metal.Weighted>
-0.0000

> <Gold.Chemscore.Lipo.Weighted>
-4.1639

> <Gold.Chemscore.Internal_Hbond.Weighted>
0.0000

> <Gold.Chemscore.DEClash.Weighted>
0.7463

> <Gold.Chemscore.DEInternal.Weighted>
0.2310

> <Gold.Chemscore.Rot.Weighted>
7.3765

> <Gold.Chemscore.Internal.Correction.Weighted>
   9.000000E+99

> <Gold.Protein.RotatedTorsions>
[ 6907 6896 6895 6894 ] final    8.28 input  -60.11 | X-H torsion
[ 7974 7965 7964 7962 ] final -105.69 input  175.53 | X-H torsion
[ 8008 7997 7996 7995 ] final  -36.80 input   59.86 | X-H torsion
[ 10167 10162 10161 10158 ] final  -46.53 input  -65.29 | X-H torsion
[ 10718 10713 10712 10709 ] final   48.99 input   66.30 | X-H torsion
[ 10763 10752 10751 10750 ] final   -1.93 input  -60.55 | X-H torsion
[ 11005 11000 10999 10996 ] final  113.66 input  -57.11 | X-H torsion

> <Gold.Protein.ActiveResidues>
 VAL166  LYS551  ARG553  GLY616  TRP617  ASP618  TYR619  PRO620  LYS621  CYS622 
 ASP623  PHE694  ASN695  SER759  ASP760  ASP761  ALA762  ILE779  LEU786  VAL792 
 PHE793  MET794  SER795  GLU796  ALA797  LYS798  CYS799  TRP800  GLU811  SER814 

> <Gold.Protein.RotatedAtoms>
  151.7035  135.0926  160.0254 H   0  0  0  0  0  0  0  0  0  0  0  0  # atno 6907 bound_to 6896
  152.3706  133.6409  159.6092 H   0  0  0  0  0  0  0  0  0  0  0  0  # atno 6908 bound_to 6896
  150.7670  133.9193  159.3434 H   0  0  0  0  0  0  0  0  0  0  0  0  # atno 6909 bound_to 6896
  145.2273  140.9157  143.3225 H   0  0  0  0  0  0  0  0  0  0  0  0  # atno 7974 bound_to 7965
  154.4065  140.1621  156.2434 H   0  0  0  0  0  0  0  0  0  0  0  0  # atno 8008 bound_to 7997
  155.9182  140.3423  155.6129 H   0  0  0  0  0  0  0  0  0  0  0  0  # atno 8009 bound_to 7997
  155.7254  140.0773  157.2303 H   0  0  0  0  0  0  0  0  0  0  0  0  # atno 8010 bound_to 7997
  140.6814  143.2827  151.3795 H   0  0  0  0  0  0  0  0  0  0  0  0  # atno 10167 bound_to 10162
  157.4742  130.8274  149.8021 H   0  0  0  0  0  0  0  0  0  0  0  0  # atno 10718 bound_to 10713
  153.3513  135.6986  153.6786 H   0  0  0  0  0  0  0  0  0  0  0  0  # atno 10763 bound_to 10752
  153.5512  135.3553  155.2761 H   0  0  0  0  0  0  0  0  0  0  0  0  # atno 10764 bound_to 10752
  154.8653  135.4227  154.2749 H   0  0  0  0  0  0  0  0  0  0  0  0  # atno 10765 bound_to 10752
  139.8959  134.9554  156.6773 H   0  0  0  0  0  0  0  0  0  0  0  0  # atno 11005 bound_to 11000
  144.9709  139.3881  143.6309 LP  0  0  0  0  0  0  0  0  0  0  0  0  # atno 17320 bound_to 7965
  146.3361  139.8807  142.8825 LP  0  0  0  0  0  0  0  0  0  0  0  0  # atno 17321 bound_to 7965
  139.6139  144.1043  152.2326 LP  0  0  0  0  0  0  0  0  0  0  0  0  # atno 17342 bound_to 10162
  140.0466  144.5966  150.7369 LP  0  0  0  0  0  0  0  0  0  0  0  0  # atno 17343 bound_to 10162
  156.0088  130.3843  150.2336 LP  0  0  0  0  0  0  0  0  0  0  0  0  # atno 17370 bound_to 10713
  157.0519  131.0065  151.3251 LP  0  0  0  0  0  0  0  0  0  0  0  0  # atno 17371 bound_to 10713
  140.7327  133.9045  155.8222 LP  0  0  0  0  0  0  0  0  0  0  0  0  # atno 17394 bound_to 11000
  141.0141  134.0980  157.4191 LP  0  0  0  0  0  0  0  0  0  0  0  0  # atno 17395 bound_to 11000

$$$$
