AV-unprocessed.smi:3224|AV-procd|sdf|12309|dock3
  -GOLD-   2272018153D 1   1.00000     0.00000
 Structure written by MMmdl.
 31 32  0  0  0  0  0  0  0  0  1 V2000
  149.4801  139.9435  154.2693 C   0  0  0  0  0  0  0  0  0  0  0  0
  148.4985  140.9876  154.8443 C   0  0  0  0  0  0  0  0  0  0  0  0
  149.2253  141.9480  155.6889 N   0  0  0  0  0  0  0  0  0  0  0  0
  150.0871  141.6984  156.6895 C   0  0  0  0  0  0  0  0  0  0  0  0
  150.4071  140.5683  157.0580 O   0  0  0  0  0  0  0  0  0  0  0  0
  150.5465  142.8441  157.2228 N   0  0  0  0  0  0  0  0  0  0  0  0
  151.4449  143.0090  158.3095 C   0  0  0  0  0  0  0  0  0  0  0  0
  151.9491  142.0017  159.0320 N   0  0  0  0  0  0  0  0  0  0  0  0
  152.8011  142.4557  160.0419 C   0  0  0  0  0  0  0  0  0  0  0  0
  152.9356  143.8215  160.0739 C   0  0  0  0  0  0  0  0  0  0  0  0
  151.9925  144.5963  158.8288 S   0  0  0  0  0  0  0  0  0  0  0  0
  147.7232  141.6952  153.7063 C   0  0  0  0  0  0  0  0  0  0  0  0
  146.5818  142.5750  154.2469 C   0  0  0  0  0  0  0  0  0  0  0  0
  145.6942  141.7870  155.0315 O   0  0  0  0  0  0  0  0  0  0  0  0
  146.3225  141.2146  156.1721 C   0  0  0  0  0  0  0  0  0  0  0  0
  147.4582  140.2710  155.7323 C   0  0  0  0  0  0  0  0  0  0  0  0
  148.9504  139.1692  153.7135 H   0  0  0  0  0  0  0  0  0  0  0  0
  150.0430  139.4491  155.0616 H   0  0  0  0  0  0  0  0  0  0  0  0
  150.1982  140.3907  153.5822 H   0  0  0  0  0  0  0  0  0  0  0  0
  149.0480  142.9200  155.4820 H   0  0  0  0  0  0  0  0  0  0  0  0
  150.2044  143.6995  156.8106 H   0  0  0  0  0  0  0  0  0  0  0  0
  153.2710  141.7357  160.6956 H   0  0  0  0  0  0  0  0  0  0  0  0
  153.5294  144.4158  160.7521 H   0  0  0  0  0  0  0  0  0  0  0  0
  148.3875  142.2909  153.0808 H   0  0  0  0  0  0  0  0  0  0  0  0
  147.2921  140.9435  153.0436 H   0  0  0  0  0  0  0  0  0  0  0  0
  146.9692  143.4068  154.8369 H   0  0  0  0  0  0  0  0  0  0  0  0
  146.0223  143.0098  153.4187 H   0  0  0  0  0  0  0  0  0  0  0  0
  146.6937  142.0021  156.8295 H   0  0  0  0  0  0  0  0  0  0  0  0
  145.5754  140.6591  156.7392 H   0  0  0  0  0  0  0  0  0  0  0  0
  147.0187  139.4377  155.1819 H   0  0  0  0  0  0  0  0  0  0  0  0
  147.9390  139.8340  156.6088 H   0  0  0  0  0  0  0  0  0  0  0  0
  1  2  1  0  0  0  0
  1 17  1  0  0  0  0
  1 18  1  0  0  0  0
  1 19  1  0  0  0  0
  2 16  1  0  0  0  0
  2  3  1  0  0  0  0
  2 12  1  0  0  0  0
  3  4  1  0  0  0  0
  3 20  1  0  0  0  0
  4  5  2  0  0  0  0
  4  6  1  0  0  0  0
  6  7  1  0  0  0  0
  6 21  1  0  0  0  0
  7 11  1  0  0  0  0
  7  8  2  0  0  0  0
  8  9  1  0  0  0  0
  9 10  2  0  0  0  0
  9 22  1  0  0  0  0
 10 11  1  0  0  0  0
 10 23  1  0  0  0  0
 12 13  1  0  0  0  0
 12 24  1  0  0  0  0
 12 25  1  0  0  0  0
 13 14  1  0  0  0  0
 13 26  1  0  0  0  0
 13 27  1  0  0  0  0
 14 15  1  0  0  0  0
 15 16  1  0  0  0  0
 15 28  1  0  0  0  0
 15 29  1  0  0  0  0
 16 30  1  0  0  0  0
 16 31  1  0  0  0  0
M  END
> <s_m_source_file>
AV-unprocessed.smi

> <i_m_source_file_index>
3224

> <i_lp_mmshare_version>
43012

> <i_f3d_flags>
0

> <s_epik_input>
W0NIMl0xW0NIMl1PW0NIMl1bQ0gyXUMxKFtDSDNdKVtOSF1DKD1PKVtOSF1jMm5bY0hdW2NIXXMy

> <s_epik_cmdline>
J2VwaWtfcHl0aG9uJywgJy1waCcsICc3LjAnLCAnLXRuJywgJzgnLCAnLW1hJywgJzIwMCcsICctbWV0YWxfYmluZGluZycsICctaW1hZScsICc8aW5maWxlLm1hZT4nLCAnLW9tYWUnLCAnPG91dGZpbGUubWFlPic=

> <r_lp_tautomer_probability>
1

> <r_epik_Ionization_Penalty>
0.000150899

> <r_epik_Ionization_Penalty_Charging>
0

> <r_epik_Ionization_Penalty_Neutral>
0.000150899

> <r_epik_State_Penalty>
-0

> <r_epik_Charging_Adjusted_Penalty>
0

> <i_epik_Tot_Q>
0

> <i_epik_Tot_abs_Q>
0

> <r_epik_Metal_State_Penalty>
0.0306338

> <b_epik_Metal_Only>
0

> <s_lp_Force_Field>
OPLS_2005

> <r_lp_Energy>
7.54186

> <b_lp_Chiralities_Consistent>
1

> <s_lp_Variant>
AV-unprocessed.smi:3224-1

> <Gold.Version>
5.8.1

> <Gold.Id.Protein>
6NUR|6NUR_protein|mol2

> <Gold.PLP.Fitness>
37.1256

> <Gold.PLP.PLP>
-31.3166

> <Gold.PLP.part.hbond>
-2.0000

> <Gold.PLP.part.metal>
0.0000

> <Gold.PLP.part.buried>
-5.1153

> <Gold.PLP.part.nonpolar>
-24.0806

> <Gold.PLP.part.repulsive>
0.3127

> <Gold.PLP.ligand.clash>
0.0000

> <Gold.PLP.ligand.torsion>
0.0988

> <Gold.PLP.Chemscore.Hbond>
2.0000

> <Gold.PLP.Chemscore.CHOScore>
0.0000

> <Gold.PLP.Chemscore.Metal>
0.0000

> <Gold.Chemscore.Hbonds>
donor molecule, donor type, donor heavy atom, donor atom, acceptor molecule, acceptor atom, score
      L1  H     3    20       P1  8028  1.00
      L1  H     6    21       P1  8028  1.00

> <Gold.PLP.Chemscore.Internal.Correction>
0.0067

> <Gold.Rescore>
     Score         DG    S(hbond)    S(metal)    S(lipo)     H(rot)  DE(clash)    DE(int)     intcor
     16.07     -17.36       1.95        0.00      67.80       1.00       0.00       1.29       ----

> <Gold.Chemscore.Fitness>
16.0722

> <Gold.Chemscore.DG>
-17.3600

> <Gold.Chemscore.ZeroCoef>
-5.4800

> <Gold.Chemscore.Hbond>
1.9484

> <Gold.Chemscore.Metal>
0.0000

> <Gold.Chemscore.Lipo>
67.7985

> <Gold.Chemscore.Internal_Hbond>
0.0000

> <Gold.Chemscore.DEClash>
0.0021

> <Gold.Chemscore.DEInternal>
1.2857

> <Gold.Chemscore.Rot>
1.0000

> <Gold.Chemscore.Internal.Correction>
   9.000000E+99

> <Gold.Chemscore.Hbonds>
donor molecule, donor type, donor heavy atom, donor atom, acceptor molecule, acceptor atom, score
      L1  H     3    20       P1  8028  1.00
      L1  H     6    21       P1  8028  0.92

> <Gold.Chemscore.Hbond.Weighted>
-6.5076

> <Gold.Chemscore.Metal.Weighted>
-0.0000

> <Gold.Chemscore.Lipo.Weighted>
-7.9324

> <Gold.Chemscore.Internal_Hbond.Weighted>
0.0000

> <Gold.Chemscore.DEClash.Weighted>
0.0021

> <Gold.Chemscore.DEInternal.Weighted>
1.2857

> <Gold.Chemscore.Rot.Weighted>
2.5600

> <Gold.Chemscore.Internal.Correction.Weighted>
   9.000000E+99

> <Gold.Protein.RotatedTorsions>
[ 6907 6896 6895 6894 ] final  -51.39 input  -60.11 | X-H torsion
[ 7974 7965 7964 7962 ] final  159.22 input  175.53 | X-H torsion
[ 8008 7997 7996 7995 ] final   37.99 input   59.86 | X-H torsion
[ 10167 10162 10161 10158 ] final  -48.84 input  -65.29 | X-H torsion
[ 10718 10713 10712 10709 ] final  -68.90 input   66.30 | X-H torsion
[ 10763 10752 10751 10750 ] final   49.19 input  -60.55 | X-H torsion
[ 11005 11000 10999 10996 ] final   50.49 input  -57.11 | X-H torsion

> <Gold.Protein.ActiveResidues>
 VAL166  LYS551  ARG553  GLY616  TRP617  ASP618  TYR619  PRO620  LYS621  CYS622 
 ASP623  PHE694  ASN695  SER759  ASP760  ASP761  ALA762  ILE779  LEU786  VAL792 
 PHE793  MET794  SER795  GLU796  ALA797  LYS798  CYS799  TRP800  GLU811  SER814 

> <Gold.Protein.RotatedAtoms>
  150.8616  134.7969  159.7086 H   0  0  0  0  0  0  0  0  0  0  0  0  # atno 6907 bound_to 6896
  152.4651  134.5091  159.9758 H   0  0  0  0  0  0  0  0  0  0  0  0  # atno 6908 bound_to 6896
  151.5194  133.3431  159.2934 H   0  0  0  0  0  0  0  0  0  0  0  0  # atno 6909 bound_to 6896
  144.7802  139.7587  143.6263 H   0  0  0  0  0  0  0  0  0  0  0  0  # atno 7974 bound_to 7965
  155.2128  140.3325  155.4326 H   0  0  0  0  0  0  0  0  0  0  0  0  # atno 8008 bound_to 7997
  156.2364  140.1874  156.7157 H   0  0  0  0  0  0  0  0  0  0  0  0  # atno 8009 bound_to 7997
  154.6067  140.0615  156.9425 H   0  0  0  0  0  0  0  0  0  0  0  0  # atno 8010 bound_to 7997
  140.6713  143.2723  151.4129 H   0  0  0  0  0  0  0  0  0  0  0  0  # atno 10167 bound_to 10162
  156.0482  130.4303  150.2069 H   0  0  0  0  0  0  0  0  0  0  0  0  # atno 10718 bound_to 10713
  152.9788  135.5919  154.4049 H   0  0  0  0  0  0  0  0  0  0  0  0  # atno 10763 bound_to 10752
  154.3690  135.2767  155.2279 H   0  0  0  0  0  0  0  0  0  0  0  0  # atno 10764 bound_to 10752
  154.4242  135.6052  153.6083 H   0  0  0  0  0  0  0  0  0  0  0  0  # atno 10765 bound_to 10752
  140.1013  134.5078  155.8760 H   0  0  0  0  0  0  0  0  0  0  0  0  # atno 11005 bound_to 11000
  146.2006  139.5298  142.9746 LP  0  0  0  0  0  0  0  0  0  0  0  0  # atno 17320 bound_to 7965
  145.6071  141.0346  143.1986 LP  0  0  0  0  0  0  0  0  0  0  0  0  # atno 17321 bound_to 7965
  139.5982  144.1351  152.2168 LP  0  0  0  0  0  0  0  0  0  0  0  0  # atno 17342 bound_to 10162
  140.0727  144.5765  150.7179 LP  0  0  0  0  0  0  0  0  0  0  0  0  # atno 17343 bound_to 10162
  157.0156  130.9964  151.3354 LP  0  0  0  0  0  0  0  0  0  0  0  0  # atno 17370 bound_to 10713
  157.5380  130.8101  149.7995 LP  0  0  0  0  0  0  0  0  0  0  0  0  # atno 17371 bound_to 10713
  141.2106  133.6697  156.6523 LP  0  0  0  0  0  0  0  0  0  0  0  0  # atno 17394 bound_to 11000
  140.3216  134.8003  157.4257 LP  0  0  0  0  0  0  0  0  0  0  0  0  # atno 17395 bound_to 11000

$$$$
