AV-unprocessed.smi:1289|AV-procd|sdf|5385|dock1
  -GOLD-   22720 4533D 1   1.00000     0.00000
 Structure written by MMmdl.
 37 39  0  0  0  0  0  0  0  0  1 V2000
  149.7877  131.7413  154.3552 N   0  0  0  0  0  0  0  0  0  0  0  0
  149.5128  132.8557  154.5011 C   0  0  0  0  0  0  0  0  0  0  0  0
  149.1675  134.2557  154.6840 C   0  0  0  0  0  0  0  0  0  0  0  0
  147.8472  134.6935  154.4622 C   0  0  0  0  0  0  0  0  0  0  0  0
  147.5150  136.0499  154.6434 C   0  0  0  0  0  0  0  0  0  0  0  0
  148.4894  136.9852  155.0480 C   0  0  0  0  0  0  0  0  0  0  0  0
  148.0753  138.2905  155.2035 O   0  0  0  0  0  0  0  0  0  0  0  0
  148.9511  139.2039  155.8531 C   0  0  0  0  0  0  0  0  0  0  0  0
  149.4017  140.2937  154.8668 C   0  0  2  0  0  0  0  0  0  0  0  0
  150.3528  139.7502  153.9727 O   0  0  0  0  0  0  0  0  0  0  0  0
  149.9329  141.5684  155.5511 C   0  0  0  0  0  0  0  0  0  0  0  0
  150.9694  141.2779  156.5250 N   0  0  0  0  0  0  0  0  0  0  0  0
  151.6959  140.1477  156.6192 C   0  0  0  0  0  0  0  0  0  0  0  0
  152.5988  140.0827  157.5936 N   0  0  0  0  0  0  0  0  0  0  0  0
  152.4419  141.3161  158.2023 C   0  0  0  0  0  0  0  0  0  0  0  0
  153.1078  141.8814  159.3134 C   0  0  0  0  0  0  0  0  0  0  0  0
  152.7745  143.1760  159.7632 C   0  0  0  0  0  0  0  0  0  0  0  0
  151.7715  143.9233  159.1119 C   0  0  0  0  0  0  0  0  0  0  0  0
  151.0932  143.3805  158.0034 C   0  0  0  0  0  0  0  0  0  0  0  0
  151.4298  142.0892  157.5568 C   0  0  0  0  0  0  0  0  0  0  0  0
  149.8168  136.5372  155.2670 C   0  0  0  0  0  0  0  0  0  0  0  0
  150.1514  135.1809  155.0852 C   0  0  0  0  0  0  0  0  0  0  0  0
  147.0830  133.9947  154.1537 H   0  0  0  0  0  0  0  0  0  0  0  0
  146.4995  136.3760  154.4722 H   0  0  0  0  0  0  0  0  0  0  0  0
  148.4730  139.6561  156.7240 H   0  0  0  0  0  0  0  0  0  0  0  0
  149.8320  138.6628  156.2018 H   0  0  0  0  0  0  0  0  0  0  0  0
  148.5373  140.5639  154.2589 H   0  0  0  0  0  0  0  0  0  0  0  0
  149.9241  139.5759  153.1486 H   0  0  0  0  0  0  0  0  0  0  0  0
  150.3455  142.2496  154.8056 H   0  0  0  0  0  0  0  0  0  0  0  0
  149.1271  142.1061  156.0522 H   0  0  0  0  0  0  0  0  0  0  0  0
  151.5509  139.3247  155.9347 H   0  0  0  0  0  0  0  0  0  0  0  0
  153.8764  141.3175  159.8209 H   0  0  0  0  0  0  0  0  0  0  0  0
  153.2904  143.5980  160.6133 H   0  0  0  0  0  0  0  0  0  0  0  0
  151.5222  144.9135  159.4640 H   0  0  0  0  0  0  0  0  0  0  0  0
  150.3227  143.9490  157.5037 H   0  0  0  0  0  0  0  0  0  0  0  0
  150.5985  137.2146  155.5750 H   0  0  0  0  0  0  0  0  0  0  0  0
  151.1681  134.8568  155.2566 H   0  0  0  0  0  0  0  0  0  0  0  0
  1  2  3  0  0  0  0
  2  3  1  0  0  0  0
  3 22  1  0  0  0  0
  3  4  2  0  0  0  0
  4  5  1  0  0  0  0
  4 23  1  0  0  0  0
  5  6  2  0  0  0  0
  5 24  1  0  0  0  0
  6  7  1  0  0  0  0
  6 21  1  0  0  0  0
  7  8  1  0  0  0  0
  8  9  1  0  0  0  0
  8 25  1  0  0  0  0
  8 26  1  0  0  0  0
  9 10  1  0  0  0  0
  9 11  1  0  0  0  0
  9 27  1  0  0  0  0
 10 28  1  0  0  0  0
 11 12  1  0  0  0  0
 11 29  1  0  0  0  0
 11 30  1  0  0  0  0
 12 20  1  0  0  0  0
 12 13  1  0  0  0  0
 13 14  2  0  0  0  0
 13 31  1  0  0  0  0
 14 15  1  0  0  0  0
 15 20  2  0  0  0  0
 15 16  1  0  0  0  0
 16 17  2  0  0  0  0
 16 32  1  0  0  0  0
 17 18  1  0  0  0  0
 17 33  1  0  0  0  0
 18 19  2  0  0  0  0
 18 34  1  0  0  0  0
 19 20  1  0  0  0  0
 19 35  1  0  0  0  0
 21 22  2  0  0  0  0
 21 36  1  0  0  0  0
 22 37  1  0  0  0  0
M  END
> <s_m_source_file>
AV-unprocessed.smi

> <i_m_source_file_index>
1289

> <i_lp_mmshare_version>
43012

> <i_f3d_flags>
0

> <s_epik_input>
TiNDYzFbY0hdW2NIXWMoW2NIXVtjSF0xKU9bQ0gyXVtDQEhdKFtPSF0pW0NIMl1uKFtjSF1uMiljKGMyMylbY0hdW2NIXVtjSF1bY0hdMw==

> <s_epik_cmdline>
J2VwaWtfcHl0aG9uJywgJy1waCcsICc3LjAnLCAnLXRuJywgJzgnLCAnLW1hJywgJzIwMCcsICctbWV0YWxfYmluZGluZycsICctaW1hZScsICc8aW5maWxlLm1hZT4nLCAnLW9tYWUnLCAnPG91dGZpbGUubWFlPic=

> <r_epik_Ionization_Penalty>
0.0590811

> <r_epik_Ionization_Penalty_Charging>
0

> <r_epik_Ionization_Penalty_Neutral>
0.0590811

> <r_epik_State_Penalty>
0.0511328

> <r_epik_Charging_Adjusted_Penalty>
0.0511328

> <i_epik_Tot_Q>
0

> <i_epik_Tot_abs_Q>
0

> <r_epik_Metal_State_Penalty>
5.34017e-05

> <b_epik_Metal_Only>
0

> <s_lp_Force_Field>
OPLS_2005

> <r_lp_Energy>
15.8446

> <b_lp_Chiralities_Consistent>
1

> <s_lp_Variant>
AV-unprocessed.smi:1289-1

> <Gold.Version>
5.8.1

> <Gold.Id.Protein>
6NUR|6NUR_protein|mol2

> <Gold.PLP.Fitness>
45.0183

> <Gold.PLP.PLP>
-38.0423

> <Gold.PLP.part.hbond>
-3.0000

> <Gold.PLP.part.metal>
0.0000

> <Gold.PLP.part.buried>
-3.2144

> <Gold.PLP.part.nonpolar>
-31.4529

> <Gold.PLP.part.repulsive>
0.1048

> <Gold.PLP.ligand.clash>
0.1872

> <Gold.PLP.ligand.torsion>
0.9379

> <Gold.PLP.Chemscore.Hbond>
2.9263

> <Gold.PLP.Chemscore.CHOScore>
0.0000

> <Gold.PLP.Chemscore.Metal>
0.0000

> <Gold.Chemscore.Hbonds>
donor molecule, donor type, donor heavy atom, donor atom, acceptor molecule, acceptor atom, score
      L1  H    10    28       P1  7957  0.92
      P1  H  7989  7998       L1    10  1.00
      P1  H  7997  8009       L1    14  1.00

> <Gold.PLP.Chemscore.Internal.Correction>
0.2603

> <Gold.Rescore>
     Score         DG    S(hbond)    S(metal)    S(lipo)     H(rot)  DE(clash)    DE(int)     intcor
     15.27     -17.66       2.25        0.00      94.55       2.50       0.13       2.26       ----

> <Gold.Chemscore.Fitness>
15.2703

> <Gold.Chemscore.DG>
-17.6593

> <Gold.Chemscore.ZeroCoef>
-5.4800

> <Gold.Chemscore.Hbond>
2.2470

> <Gold.Chemscore.Metal>
0.0000

> <Gold.Chemscore.Lipo>
94.5534

> <Gold.Chemscore.Internal_Hbond>
0.0000

> <Gold.Chemscore.DEClash>
0.1284

> <Gold.Chemscore.DEInternal>
2.2605

> <Gold.Chemscore.Rot>
2.4954

> <Gold.Chemscore.Internal.Correction>
   9.000000E+99

> <Gold.Chemscore.Hbonds>
donor molecule, donor type, donor heavy atom, donor atom, acceptor molecule, acceptor atom, score
      L1  H    10    28       P1  7957  0.84
      P1  H  7989  7998       L1    10  0.26
      P1  H  7997  8009       L1    14  0.36

> <Gold.Chemscore.Hbond.Weighted>
-7.5048

> <Gold.Chemscore.Metal.Weighted>
-0.0000

> <Gold.Chemscore.Lipo.Weighted>
-11.0627

> <Gold.Chemscore.Internal_Hbond.Weighted>
0.0000

> <Gold.Chemscore.DEClash.Weighted>
0.1284

> <Gold.Chemscore.DEInternal.Weighted>
2.2605

> <Gold.Chemscore.Rot.Weighted>
6.3883

> <Gold.Chemscore.Internal.Correction.Weighted>
   9.000000E+99

> <Gold.Protein.RotatedTorsions>
[ 6907 6896 6895 6894 ] final  -57.28 input  -60.11 | X-H torsion
[ 7974 7965 7964 7962 ] final  -70.87 input  175.53 | X-H torsion
[ 8008 7997 7996 7995 ] final  170.33 input   59.86 | X-H torsion
[ 10167 10162 10161 10158 ] final   23.39 input  -65.29 | X-H torsion
[ 10718 10713 10712 10709 ] final   46.60 input   66.30 | X-H torsion
[ 10763 10752 10751 10750 ] final  -53.38 input  -60.55 | X-H torsion
[ 11005 11000 10999 10996 ] final   36.97 input  -57.11 | X-H torsion

> <Gold.Protein.ActiveResidues>
 VAL166  LYS551  ARG553  GLY616  TRP617  ASP618  TYR619  PRO620  LYS621  CYS622 
 ASP623  PHE694  ASN695  SER759  ASP760  ASP761  ALA762  ILE779  LEU786  VAL792 
 PHE793  MET794  SER795  GLU796  ALA797  LYS798  CYS799  TRP800  GLU811  SER814 

> <Gold.Protein.RotatedAtoms>
  150.8098  134.7246  159.6677 H   0  0  0  0  0  0  0  0  0  0  0  0  # atno 6907 bound_to 6896
  152.4218  134.5937  159.9991 H   0  0  0  0  0  0  0  0  0  0  0  0  # atno 6908 bound_to 6896
  151.6150  133.3306  159.3112 H   0  0  0  0  0  0  0  0  0  0  0  0  # atno 6909 bound_to 6896
  145.6854  140.9172  143.0810 H   0  0  0  0  0  0  0  0  0  0  0  0  # atno 7974 bound_to 7965
  156.1375  140.1540  156.8972 H   0  0  0  0  0  0  0  0  0  0  0  0  # atno 8008 bound_to 7997
  154.4959  140.0838  156.7735 H   0  0  0  0  0  0  0  0  0  0  0  0  # atno 8009 bound_to 7997
  155.4141  140.3420  155.4268 H   0  0  0  0  0  0  0  0  0  0  0  0  # atno 8010 bound_to 7997
  140.5273  143.9902  150.6447 H   0  0  0  0  0  0  0  0  0  0  0  0  # atno 10167 bound_to 10162
  157.4498  130.8131  149.7777 H   0  0  0  0  0  0  0  0  0  0  0  0  # atno 10718 bound_to 10713
  154.1579  135.6479  153.4979 H   0  0  0  0  0  0  0  0  0  0  0  0  # atno 10763 bound_to 10752
  153.0119  135.5354  154.6740 H   0  0  0  0  0  0  0  0  0  0  0  0  # atno 10764 bound_to 10752
  154.6046  135.2947  155.0470 H   0  0  0  0  0  0  0  0  0  0  0  0  # atno 10765 bound_to 10752
  140.2272  134.3570  155.7979 H   0  0  0  0  0  0  0  0  0  0  0  0  # atno 11005 bound_to 11000
  144.7013  139.8752  143.7443 LP  0  0  0  0  0  0  0  0  0  0  0  0  # atno 17320 bound_to 7965
  146.0928  139.3918  143.0395 LP  0  0  0  0  0  0  0  0  0  0  0  0  # atno 17321 bound_to 7965
  140.3267  143.3103  152.0729 LP  0  0  0  0  0  0  0  0  0  0  0  0  # atno 17342 bound_to 10162
  139.4942  144.6537  151.6620 LP  0  0  0  0  0  0  0  0  0  0  0  0  # atno 17343 bound_to 10162
  155.9982  130.3895  150.2710 LP  0  0  0  0  0  0  0  0  0  0  0  0  # atno 17370 bound_to 10713
  157.0881  131.0162  151.3132 LP  0  0  0  0  0  0  0  0  0  0  0  0  # atno 17371 bound_to 10713
  141.2220  133.7225  156.8672 LP  0  0  0  0  0  0  0  0  0  0  0  0  # atno 17394 bound_to 11000
  140.1788  134.9048  157.2923 LP  0  0  0  0  0  0  0  0  0  0  0  0  # atno 17395 bound_to 11000

$$$$
