AV-unprocessed.smi:672|AV-procd|sdf|3289|dock3
  -GOLD-   22720 0253D 1   1.00000     0.00000
 Structure written by MMmdl.
 36 37  0  0  0  0  0  0  0  0  1 V2000
  135.2492  136.2673  155.2703 C   0  0  0  0  0  0  0  0  0  0  0  0
  136.1879  137.4764  155.3416 C   0  0  0  0  0  0  0  0  0  0  0  0
  137.6145  137.1094  155.1030 C   0  0  0  0  0  0  0  0  0  0  0  0
  138.2570  136.1888  155.8325 N   0  0  0  0  0  0  0  0  0  0  0  0
  139.5642  135.9983  155.4067 N   0  0  0  0  0  0  0  0  0  0  0  0
  139.8647  136.7722  154.3548 C   0  0  0  0  0  0  0  0  0  0  0  0
  141.1322  136.7780  153.7152 N   0  0  0  0  0  0  0  0  0  0  0  0
  141.9534  135.7393  153.4817 C   0  0  0  0  0  0  0  0  0  0  0  0
  141.7279  134.5687  153.7893 O   0  0  0  0  0  0  0  0  0  0  0  0
  143.0731  136.1378  152.8613 N   0  0  0  0  0  0  0  0  0  0  0  0
  144.1662  135.2583  152.4548 C   0  0  2  0  0  0  0  0  0  0  0  0
  145.3163  136.0433  151.7934 C   0  0  0  0  0  0  0  0  0  0  0  0
  145.3265  135.6233  150.3221 C   0  0  0  0  0  0  0  0  0  0  0  0
  144.7575  134.2045  150.3097 C   0  0  1  0  0  0  0  0  0  0  0  0
  146.0517  132.9748  150.6614 S   0  0  0  0  0  0  0  0  0  0  0  0
  145.1113  131.4395  150.4484 C   0  0  0  0  0  0  0  0  0  0  0  0
  143.6865  134.2368  151.4067 C   0  0  0  0  0  0  0  0  0  0  0  0
  138.5625  137.8071  153.7948 S   0  0  0  0  0  0  0  0  0  0  0  0
  134.2157  136.5668  155.4456 H   0  0  0  0  0  0  0  0  0  0  0  0
  135.5122  135.5211  156.0205 H   0  0  0  0  0  0  0  0  0  0  0  0
  135.2966  135.7901  154.2910 H   0  0  0  0  0  0  0  0  0  0  0  0
  135.8904  138.2212  154.6031 H   0  0  0  0  0  0  0  0  0  0  0  0
  136.1046  137.9549  156.3182 H   0  0  0  0  0  0  0  0  0  0  0  0
  141.4532  137.6818  153.4011 H   0  0  0  0  0  0  0  0  0  0  0  0
  143.1767  137.1191  152.6487 H   0  0  0  0  0  0  0  0  0  0  0  0
  144.5497  134.7236  153.3259 H   0  0  0  0  0  0  0  0  0  0  0  0
  145.2249  137.1249  151.9029 H   0  0  0  0  0  0  0  0  0  0  0  0
  146.2604  135.7565  152.2582 H   0  0  0  0  0  0  0  0  0  0  0  0
  144.6657  136.2814  149.7563 H   0  0  0  0  0  0  0  0  0  0  0  0
  146.3175  135.6916  149.8721 H   0  0  0  0  0  0  0  0  0  0  0  0
  144.3257  133.9724  149.3356 H   0  0  0  0  0  0  0  0  0  0  0  0
  145.7589  130.5785  150.6128 H   0  0  0  0  0  0  0  0  0  0  0  0
  144.7064  131.3782  149.4383 H   0  0  0  0  0  0  0  0  0  0  0  0
  144.2859  131.3880  151.1579 H   0  0  0  0  0  0  0  0  0  0  0  0
  143.4956  133.2583  151.8471 H   0  0  0  0  0  0  0  0  0  0  0  0
  142.7472  134.5673  150.9602 H   0  0  0  0  0  0  0  0  0  0  0  0
  1  2  1  0  0  0  0
  1 19  1  0  0  0  0
  1 20  1  0  0  0  0
  1 21  1  0  0  0  0
  2  3  1  0  0  0  0
  2 22  1  0  0  0  0
  2 23  1  0  0  0  0
  3 18  1  0  0  0  0
  3  4  2  0  0  0  0
  4  5  1  0  0  0  0
  5  6  2  0  0  0  0
  6  7  1  0  0  0  0
  6 18  1  0  0  0  0
  7  8  1  0  0  0  0
  7 24  1  0  0  0  0
  8  9  2  0  0  0  0
  8 10  1  0  0  0  0
 10 11  1  0  0  0  0
 10 25  1  0  0  0  0
 11 17  1  0  0  0  0
 11 12  1  0  0  0  0
 11 26  1  0  0  0  0
 12 13  1  0  0  0  0
 12 27  1  0  0  0  0
 12 28  1  0  0  0  0
 13 14  1  0  0  0  0
 13 29  1  0  0  0  0
 13 30  1  0  0  0  0
 14 15  1  0  0  0  0
 14 17  1  0  0  0  0
 14 31  1  0  0  0  0
 15 16  1  0  0  0  0
 16 32  1  0  0  0  0
 16 33  1  0  0  0  0
 16 34  1  0  0  0  0
 17 35  1  0  0  0  0
 17 36  1  0  0  0  0
M  END
> <s_m_source_file>
AV-unprocessed.smi

> <i_m_source_file_index>
672

> <i_lp_mmshare_version>
43012

> <i_f3d_flags>
0

> <s_epik_input>
W0NIM11bQ0gyXWMxbm5jKHMxKVtOSF1DKD1PKVtOSF1bQ0BASF0yW0NIMl1bQ0gyXVtDQEhdKFtDSDJdMilTW0NIM10=

> <s_epik_cmdline>
J2VwaWtfcHl0aG9uJywgJy1waCcsICc3LjAnLCAnLXRuJywgJzgnLCAnLW1hJywgJzIwMCcsICctbWV0YWxfYmluZGluZycsICctaW1hZScsICc8aW5maWxlLm1hZT4nLCAnLW9tYWUnLCAnPG91dGZpbGUubWFlPic=

> <r_lp_tautomer_probability>
1

> <r_epik_Ionization_Penalty>
0.000422169

> <r_epik_Ionization_Penalty_Charging>
0

> <r_epik_Ionization_Penalty_Neutral>
0.000422169

> <r_epik_State_Penalty>
-0

> <r_epik_Charging_Adjusted_Penalty>
0

> <i_epik_Tot_Q>
0

> <i_epik_Tot_abs_Q>
0

> <r_epik_Metal_State_Penalty>
0.200061

> <b_epik_Metal_Only>
0

> <s_lp_Force_Field>
OPLS_2005

> <r_lp_Energy>
12.7649

> <b_lp_Chiralities_Consistent>
1

> <s_lp_Variant>
AV-unprocessed.smi:672-1

> <Gold.Version>
5.8.1

> <Gold.Id.Protein>
6NUR|6NUR_protein|mol2

> <Gold.PLP.Fitness>
35.9457

> <Gold.PLP.PLP>
-33.5490

> <Gold.PLP.part.hbond>
-2.0000

> <Gold.PLP.part.metal>
0.0000

> <Gold.PLP.part.buried>
-5.8581

> <Gold.PLP.part.nonpolar>
-25.9772

> <Gold.PLP.part.repulsive>
0.3235

> <Gold.PLP.ligand.clash>
0.0000

> <Gold.PLP.ligand.torsion>
0.3145

> <Gold.PLP.Chemscore.Hbond>
1.0000

> <Gold.PLP.Chemscore.CHOScore>
0.0000

> <Gold.PLP.Chemscore.Metal>
0.0000

> <Gold.Chemscore.Hbonds>
donor molecule, donor type, donor heavy atom, donor atom, acceptor molecule, acceptor atom, score
      P1  H 11000 11005       L1     5  0.65

> <Gold.PLP.Chemscore.Internal.Correction>
0.0258

> <Gold.Rescore>
     Score         DG    S(hbond)    S(metal)    S(lipo)     H(rot)  DE(clash)    DE(int)     intcor
     12.81     -13.49       0.92        0.00      72.02       1.37       0.03       0.65       ----

> <Gold.Chemscore.Fitness>
12.8062

> <Gold.Chemscore.DG>
-13.4884

> <Gold.Chemscore.ZeroCoef>
-5.4800

> <Gold.Chemscore.Hbond>
0.9225

> <Gold.Chemscore.Metal>
0.0000

> <Gold.Chemscore.Lipo>
72.0222

> <Gold.Chemscore.Internal_Hbond>
0.0000

> <Gold.Chemscore.DEClash>
0.0292

> <Gold.Chemscore.DEInternal>
0.6529

> <Gold.Chemscore.Rot>
1.3669

> <Gold.Chemscore.Internal.Correction>
   9.000000E+99

> <Gold.Chemscore.Hbonds>
donor molecule, donor type, donor heavy atom, donor atom, acceptor molecule, acceptor atom, score
      P1  H 11000 11005       L1     5  0.07

> <Gold.Chemscore.Hbond.Weighted>
-3.0810

> <Gold.Chemscore.Metal.Weighted>
-0.0000

> <Gold.Chemscore.Lipo.Weighted>
-8.4266

> <Gold.Chemscore.Internal_Hbond.Weighted>
0.0000

> <Gold.Chemscore.DEClash.Weighted>
0.0292

> <Gold.Chemscore.DEInternal.Weighted>
0.6529

> <Gold.Chemscore.Rot.Weighted>
3.4992

> <Gold.Chemscore.Internal.Correction.Weighted>
   9.000000E+99

> <Gold.Protein.RotatedTorsions>
[ 6907 6896 6895 6894 ] final -140.92 input  -60.11 | X-H torsion
[ 7974 7965 7964 7962 ] final -140.87 input  175.53 | X-H torsion
[ 8008 7997 7996 7995 ] final  109.93 input   59.86 | X-H torsion
[ 10167 10162 10161 10158 ] final  170.50 input  -65.29 | X-H torsion
[ 10718 10713 10712 10709 ] final  -39.97 input   66.30 | X-H torsion
[ 10763 10752 10751 10750 ] final   -7.59 input  -60.55 | X-H torsion
[ 11005 11000 10999 10996 ] final   99.30 input  -57.11 | X-H torsion

> <Gold.Protein.ActiveResidues>
 VAL166  LYS551  ARG553  GLY616  TRP617  ASP618  TYR619  PRO620  LYS621  CYS622 
 ASP623  PHE694  ASN695  SER759  ASP760  ASP761  ALA762  ILE779  LEU786  VAL792 
 PHE793  MET794  SER795  GLU796  ALA797  LYS798  CYS799  TRP800  GLU811  SER814 

> <Gold.Protein.RotatedAtoms>
  151.0671  133.5497  159.2629 H   0  0  0  0  0  0  0  0  0  0  0  0  # atno 6907 bound_to 6896
  151.2450  135.0601  159.9050 H   0  0  0  0  0  0  0  0  0  0  0  0  # atno 6908 bound_to 6896
  152.5406  134.0440  159.8134 H   0  0  0  0  0  0  0  0  0  0  0  0  # atno 6909 bound_to 6896
  144.8563  140.6147  143.5357 H   0  0  0  0  0  0  0  0  0  0  0  0  # atno 7974 bound_to 7965
  156.2015  140.3048  155.9537 H   0  0  0  0  0  0  0  0  0  0  0  0  # atno 8008 bound_to 7997
  155.2942  140.0443  157.3042 H   0  0  0  0  0  0  0  0  0  0  0  0  # atno 8009 bound_to 7997
  154.5577  140.2311  155.8393 H   0  0  0  0  0  0  0  0  0  0  0  0  # atno 8010 bound_to 7997
  139.5020  144.3590  151.9845 H   0  0  0  0  0  0  0  0  0  0  0  0  # atno 10167 bound_to 10162
  156.2865  130.4223  149.8282 H   0  0  0  0  0  0  0  0  0  0  0  0  # atno 10718 bound_to 10713
  153.4285  135.7011  153.6246 H   0  0  0  0  0  0  0  0  0  0  0  0  # atno 10763 bound_to 10752
  153.4671  135.3723  155.2370 H   0  0  0  0  0  0  0  0  0  0  0  0  # atno 10764 bound_to 10752
  154.8725  135.4034  154.3665 H   0  0  0  0  0  0  0  0  0  0  0  0  # atno 10765 bound_to 10752
  139.8771  134.9089  156.4584 H   0  0  0  0  0  0  0  0  0  0  0  0  # atno 11005 bound_to 11000
  145.4400  139.1537  143.3975 LP  0  0  0  0  0  0  0  0  0  0  0  0  # atno 17320 bound_to 7965
  146.2825  140.4521  142.8770 LP  0  0  0  0  0  0  0  0  0  0  0  0  # atno 17321 bound_to 7965
  140.3026  144.3629  150.6056 LP  0  0  0  0  0  0  0  0  0  0  0  0  # atno 17342 bound_to 10162
  140.5862  143.2170  151.7338 LP  0  0  0  0  0  0  0  0  0  0  0  0  # atno 17343 bound_to 10162
  156.5711  130.8425  151.3356 LP  0  0  0  0  0  0  0  0  0  0  0  0  # atno 17370 bound_to 10713
  157.7330  130.9724  150.1956 LP  0  0  0  0  0  0  0  0  0  0  0  0  # atno 17371 bound_to 10713
  140.8881  133.7868  155.9541 LP  0  0  0  0  0  0  0  0  0  0  0  0  # atno 17394 bound_to 11000
  140.8783  134.2643  157.5157 LP  0  0  0  0  0  0  0  0  0  0  0  0  # atno 17395 bound_to 11000

$$$$
