AV-unprocessed.smi:3306|AV-procd|sdf|12702|dock1
  -GOLD-   2272019 33D 1   1.00000     0.00000
 Structure written by MMmdl.
 45 46  0  0  0  0  0  0  0  0  3 V2000
  147.0643  140.1313  152.9106 C   0  0  0  0  0  0  0  0  0  0  0  0
  147.9449  139.0496  153.5663 C   0  0  0  0  0  0  0  0  0  0  0  0
  147.1702  138.2589  154.6338 C   0  0  0  0  0  0  0  0  0  0  0  0
  149.2314  139.5761  154.1100 N   0  3  2  0  0  0  0  0  0  0  0  0
  150.1903  138.5428  154.5866 C   0  0  0  0  0  0  0  0  0  0  0  0
  151.5607  139.1704  154.8972 C   0  0  0  0  0  0  0  0  0  0  0  0
  151.4568  140.3183  155.9236 C   0  0  2  0  0  0  0  0  0  0  0  0
  151.1567  139.8403  157.2952 N   0  3  0  0  0  0  0  0  0  0  0  0
  150.9336  140.8993  158.3022 C   0  0  0  0  0  0  0  0  0  0  0  0
  152.1552  141.8226  158.4065 C   0  0  0  0  0  0  0  0  0  0  0  0
  152.4787  142.1854  159.8436 C   0  0  0  0  0  0  0  0  0  0  0  0
  153.3591  141.3914  160.6089 C   0  0  0  0  0  0  0  0  0  0  0  0
  153.6264  141.7771  161.9371 C   0  0  0  0  0  0  0  0  0  0  0  0
  153.0077  142.9360  162.4447 C   0  0  0  0  0  0  0  0  0  0  0  0
  152.1449  143.6608  161.5985 C   0  0  0  0  0  0  0  0  0  0  0  0
  151.8821  143.2997  160.3234 N   0  0  0  0  0  0  0  0  0  0  0  0
  150.3950  141.3300  155.4534 C   0  0  0  0  0  0  0  0  0  0  0  0
  149.0510  140.6580  155.1134 C   0  0  0  0  0  0  0  0  0  0  0  0
  146.1927  139.6787  152.4364 H   0  0  0  0  0  0  0  0  0  0  0  0
  147.6025  140.6785  152.1369 H   0  0  0  0  0  0  0  0  0  0  0  0
  146.6931  140.8526  153.6389 H   0  0  0  0  0  0  0  0  0  0  0  0
  148.2001  138.3261  152.7908 H   0  0  0  0  0  0  0  0  0  0  0  0
  146.3055  137.7611  154.1936 H   0  0  0  0  0  0  0  0  0  0  0  0
  146.7997  138.9004  155.4330 H   0  0  0  0  0  0  0  0  0  0  0  0
  147.7952  137.4876  155.0850 H   0  0  0  0  0  0  0  0  0  0  0  0
  149.8012  138.0516  155.4793 H   0  0  0  0  0  0  0  0  0  0  0  0
  150.3195  137.7685  153.8310 H   0  0  0  0  0  0  0  0  0  0  0  0
  152.2595  138.4033  155.2291 H   0  0  0  0  0  0  0  0  0  0  0  0
  151.9803  139.5654  153.9707 H   0  0  0  0  0  0  0  0  0  0  0  0
  152.4144  140.8396  155.9678 H   0  0  0  0  0  0  0  0  0  0  0  0
  150.3054  139.2981  157.2471 H   0  0  0  0  0  0  0  0  0  0  0  0
  150.0547  141.4868  158.0367 H   0  0  0  0  0  0  0  0  0  0  0  0
  150.7349  140.4384  159.2708 H   0  0  0  0  0  0  0  0  0  0  0  0
  153.0277  141.3420  157.9609 H   0  0  0  0  0  0  0  0  0  0  0  0
  151.9829  142.7362  157.8357 H   0  0  0  0  0  0  0  0  0  0  0  0
  153.8195  140.5069  160.1937 H   0  0  0  0  0  0  0  0  0  0  0  0
  154.2935  141.1946  162.5554 H   0  0  0  0  0  0  0  0  0  0  0  0
  153.1894  143.2614  163.4583 H   0  0  0  0  0  0  0  0  0  0  0  0
  151.6540  144.5546  161.9545 H   0  0  0  0  0  0  0  0  0  0  0  0
  150.2475  142.1037  156.2081 H   0  0  0  0  0  0  0  0  0  0  0  0
  150.7640  141.8447  154.5650 H   0  0  0  0  0  0  0  0  0  0  0  0
  148.3671  141.4138  154.7252 H   0  0  0  0  0  0  0  0  0  0  0  0
  148.5932  140.2545  156.0174 H   0  0  0  0  0  0  0  0  0  0  0  0
  149.6774  140.0222  153.3208 H   0  0  0  0  0  0  0  0  0  0  0  0
  151.9017  139.2357  157.6102 H   0  0  0  0  0  0  0  0  0  0  0  0
  1  2  1  0  0  0  0
  1 19  1  0  0  0  0
  1 20  1  0  0  0  0
  1 21  1  0  0  0  0
  2  3  1  0  0  0  0
  2  4  1  0  0  0  0
  2 22  1  0  0  0  0
  3 23  1  0  0  0  0
  3 24  1  0  0  0  0
  3 25  1  0  0  0  0
  4 18  1  0  0  0  0
  4  5  1  0  0  0  0
  4 44  1  0  0  0  0
  5  6  1  0  0  0  0
  5 26  1  0  0  0  0
  5 27  1  0  0  0  0
  6  7  1  0  0  0  0
  6 28  1  0  0  0  0
  6 29  1  0  0  0  0
  7  8  1  0  0  0  0
  7 17  1  0  0  0  0
  7 30  1  0  0  0  0
  8  9  1  0  0  0  0
  8 31  1  0  0  0  0
  8 45  1  0  0  0  0
  9 10  1  0  0  0  0
  9 32  1  0  0  0  0
  9 33  1  0  0  0  0
 10 11  1  0  0  0  0
 10 34  1  0  0  0  0
 10 35  1  0  0  0  0
 11 16  1  0  0  0  0
 11 12  2  0  0  0  0
 12 13  1  0  0  0  0
 12 36  1  0  0  0  0
 13 14  2  0  0  0  0
 13 37  1  0  0  0  0
 14 15  1  0  0  0  0
 14 38  1  0  0  0  0
 15 16  2  0  0  0  0
 15 39  1  0  0  0  0
 17 18  1  0  0  0  0
 17 40  1  0  0  0  0
 17 41  1  0  0  0  0
 18 42  1  0  0  0  0
 18 43  1  0  0  0  0
M  CHG  1   4   1
M  CHG  1   8   1
M  END
> <s_m_source_file>
AV-unprocessed.smi

> <i_m_source_file_index>
3306

> <i_lp_mmshare_version>
43012

> <i_f3d_flags>
0

> <s_epik_input>
W0NIM11bQ0hdKFtDSDNdKU4xW0NIMl1bQ0gyXVtDSF0oW0NIMl1bQ0gyXTEpW05IXVtDSDJdW0NIMl1jMltjSF1bY0hdW2NIXVtjSF1uMg==

> <s_epik_cmdline>
J2VwaWtfcHl0aG9uJywgJy1waCcsICc3LjAnLCAnLXRuJywgJzgnLCAnLW1hJywgJzIwMCcsICctbWV0YWxfYmluZGluZycsICctaW1hZScsICc8aW5maWxlLm1hZT4nLCAnLW9tYWUnLCAnPG91dGZpbGUubWFlPic=

> <r_epik_Ionization_Penalty>
0.0800465

> <r_epik_Ionization_Penalty_Charging>
0.0790817

> <r_epik_Ionization_Penalty_Neutral>
0.000964829

> <r_epik_State_Penalty>
0.0665964

> <r_epik_Charging_Adjusted_Penalty>
0.145678

> <i_epik_Tot_Q>
2

> <i_epik_Tot_abs_Q>
2

> <r_epik_Metal_State_Penalty>
0.0683331

> <b_epik_Metal_Only>
0

> <s_lp_Force_Field>
OPLS_2005

> <r_lp_Energy>
31.8931

> <b_lp_Chiralities_Consistent>
1

> <s_lp_Variant>
AV-unprocessed.smi:3306-2

> <Gold.Version>
5.8.1

> <Gold.Id.Protein>
6NUR|6NUR_protein|mol2

> <Gold.PLP.Fitness>
42.0915

> <Gold.PLP.PLP>
-41.7224

> <Gold.PLP.part.hbond>
-1.0000

> <Gold.PLP.part.metal>
0.0000

> <Gold.PLP.part.buried>
-1.6310

> <Gold.PLP.part.nonpolar>
-37.4426

> <Gold.PLP.part.repulsive>
0.1965

> <Gold.PLP.ligand.clash>
0.0000

> <Gold.PLP.ligand.torsion>
0.7287

> <Gold.PLP.Chemscore.Hbond>
0.5702

> <Gold.PLP.Chemscore.CHOScore>
0.0000

> <Gold.PLP.Chemscore.Metal>
0.0000

> <Gold.Chemscore.Hbonds>
donor molecule, donor type, donor heavy atom, donor atom, acceptor molecule, acceptor atom, score
      L1  H     4    44       P1  7957  0.56

> <Gold.PLP.Chemscore.Internal.Correction>
0.1158

> <Gold.Rescore>
     Score         DG    S(hbond)    S(metal)    S(lipo)     H(rot)  DE(clash)    DE(int)     intcor
     17.86     -18.51       0.82        0.00     120.15       1.47       0.07       0.58       ----

> <Gold.Chemscore.Fitness>
17.8611

> <Gold.Chemscore.DG>
-18.5072

> <Gold.Chemscore.ZeroCoef>
-5.4800

> <Gold.Chemscore.Hbond>
0.8167

> <Gold.Chemscore.Metal>
0.0000

> <Gold.Chemscore.Lipo>
120.1473

> <Gold.Chemscore.Internal_Hbond>
0.0000

> <Gold.Chemscore.DEClash>
0.0694

> <Gold.Chemscore.DEInternal>
0.5767

> <Gold.Chemscore.Rot>
1.4679

> <Gold.Chemscore.Internal.Correction>
   9.000000E+99

> <Gold.Chemscore.Hbonds>
donor molecule, donor type, donor heavy atom, donor atom, acceptor molecule, acceptor atom, score
      L1  H     4    44       P1  7957  0.54

> <Gold.Chemscore.Hbond.Weighted>
-2.7278

> <Gold.Chemscore.Metal.Weighted>
-0.0000

> <Gold.Chemscore.Lipo.Weighted>
-14.0572

> <Gold.Chemscore.Internal_Hbond.Weighted>
0.0000

> <Gold.Chemscore.DEClash.Weighted>
0.0694

> <Gold.Chemscore.DEInternal.Weighted>
0.5767

> <Gold.Chemscore.Rot.Weighted>
3.7579

> <Gold.Chemscore.Internal.Correction.Weighted>
   9.000000E+99

> <Gold.Protein.RotatedTorsions>
[ 6907 6896 6895 6894 ] final  125.00 input  -60.11 | X-H torsion
[ 7974 7965 7964 7962 ] final   82.72 input  175.53 | X-H torsion
[ 8008 7997 7996 7995 ] final  158.31 input   59.86 | X-H torsion
[ 10167 10162 10161 10158 ] final  -86.13 input  -65.29 | X-H torsion
[ 10718 10713 10712 10709 ] final -116.54 input   66.30 | X-H torsion
[ 10763 10752 10751 10750 ] final  -85.47 input  -60.55 | X-H torsion
[ 11005 11000 10999 10996 ] final  -14.25 input  -57.11 | X-H torsion

> <Gold.Protein.ActiveResidues>
 VAL166  LYS551  ARG553  GLY616  TRP617  ASP618  TYR619  PRO620  LYS621  CYS622 
 ASP623  PHE694  ASN695  SER759  ASP760  ASP761  ALA762  ILE779  LEU786  VAL792 
 PHE793  MET794  SER795  GLU796  ALA797  LYS798  CYS799  TRP800  GLU811  SER814 

> <Gold.Protein.RotatedAtoms>
  152.4030  133.6846  159.6331 H   0  0  0  0  0  0  0  0  0  0  0  0  # atno 6907 bound_to 6896
  150.7918  133.8759  159.3280 H   0  0  0  0  0  0  0  0  0  0  0  0  # atno 6908 bound_to 6896
  151.6520  135.1002  160.0214 H   0  0  0  0  0  0  0  0  0  0  0  0  # atno 6909 bound_to 6896
  145.6213  139.2386  143.2136 H   0  0  0  0  0  0  0  0  0  0  0  0  # atno 7974 bound_to 7965
  156.2311  140.1862  156.7240 H   0  0  0  0  0  0  0  0  0  0  0  0  # atno 8008 bound_to 7997
  154.6024  140.0634  156.9413 H   0  0  0  0  0  0  0  0  0  0  0  0  # atno 8009 bound_to 7997
  155.2153  140.3303  155.4325 H   0  0  0  0  0  0  0  0  0  0  0  0  # atno 8010 bound_to 7997
  140.3971  143.2679  151.9191 H   0  0  0  0  0  0  0  0  0  0  0  0  # atno 10167 bound_to 10162
  156.0970  130.6141  150.9048 H   0  0  0  0  0  0  0  0  0  0  0  0  # atno 10718 bound_to 10713
  154.6114  135.5484  153.7478 H   0  0  0  0  0  0  0  0  0  0  0  0  # atno 10763 bound_to 10752
  153.0197  135.6390  154.1572 H   0  0  0  0  0  0  0  0  0  0  0  0  # atno 10764 bound_to 10752
  154.1510  135.2902  155.3115 H   0  0  0  0  0  0  0  0  0  0  0  0  # atno 10765 bound_to 10752
  140.7845  133.8336  155.9322 H   0  0  0  0  0  0  0  0  0  0  0  0  # atno 11005 bound_to 11000
  146.1428  140.7033  142.9358 LP  0  0  0  0  0  0  0  0  0  0  0  0  # atno 17320 bound_to 7965
  144.7230  140.4434  143.6994 LP  0  0  0  0  0  0  0  0  0  0  0  0  # atno 17321 bound_to 7965
  139.4786  144.5671  151.8148 LP  0  0  0  0  0  0  0  0  0  0  0  0  # atno 17342 bound_to 10162
  140.4779  144.1492  150.5928 LP  0  0  0  0  0  0  0  0  0  0  0  0  # atno 17343 bound_to 10162
  157.6133  131.0935  150.8755 LP  0  0  0  0  0  0  0  0  0  0  0  0  # atno 17370 bound_to 10713
  156.8891  130.5206  149.5287 LP  0  0  0  0  0  0  0  0  0  0  0  0  # atno 17371 bound_to 10713
  140.9450  134.1852  157.4770 LP  0  0  0  0  0  0  0  0  0  0  0  0  # atno 17394 bound_to 11000
  139.8738  134.9887  156.5423 LP  0  0  0  0  0  0  0  0  0  0  0  0  # atno 17395 bound_to 11000

$$$$
