AV-unprocessed.smi:2867|AV-procd|sdf|11026|dock4
  -GOLD-   2272015493D 1   1.00000     0.00000
 Structure written by MMmdl.
 40 42  0  0  0  0  0  0  0  0  3 V2000
  153.8171  133.4581  157.5649 C   0  0  0  0  0  0  0  0  0  0  0  0
  152.4217  133.5080  157.8007 O   0  0  0  0  0  0  0  0  0  0  0  0
  151.6861  132.6852  156.9091 C   0  0  0  0  0  0  0  0  0  0  0  0
  150.2231  133.1481  156.8774 C   0  0  0  0  0  0  0  0  0  0  0  0
  149.9869  134.1577  155.8329 N   0  0  0  0  0  0  0  0  0  0  0  0
  149.2968  134.0951  154.6585 C   0  0  0  0  0  0  0  0  0  0  0  0
  148.5678  132.9339  154.1269 C   0  0  0  0  0  0  0  0  0  0  0  0
  148.8014  131.6459  154.6567 C   0  0  0  0  0  0  0  0  0  0  0  0
  148.1068  130.5262  154.1594 C   0  0  0  0  0  0  0  0  0  0  0  0
  147.1721  130.6833  153.1194 C   0  0  0  0  0  0  0  0  0  0  0  0
  146.9357  131.9607  152.5784 C   0  0  0  0  0  0  0  0  0  0  0  0
  146.0393  132.1165  151.5758 F   0  0  0  0  0  0  0  0  0  0  0  0
  147.6325  133.0773  153.0790 C   0  0  0  0  0  0  0  0  0  0  0  0
  149.4225  135.2867  154.0162 N   0  3  0  0  0  0  0  0  0  0  0  0
  150.2052  136.1401  154.7955 C   0  0  0  0  0  0  0  0  0  0  0  0
  150.6126  137.4504  154.5727 C   0  0  0  0  0  0  0  0  0  0  0  0
  151.4241  138.0329  155.5687 C   0  0  0  0  0  0  0  0  0  0  0  0
  151.9909  139.7159  155.3449 S   0  0  0  0  0  0  0  0  0  0  0  0
  153.4178  139.3575  154.6850 N   0  5  0  0  0  0  0  0  0  0  0  0
  151.0626  140.3487  154.3954 O   0  0  0  0  0  0  0  0  0  0  0  0
  152.1135  140.2960  156.6913 O   0  0  0  0  0  0  0  0  0  0  0  0
  151.8026  137.3240  156.7288 C   0  0  0  0  0  0  0  0  0  0  0  0
  151.3809  135.9951  156.9424 C   0  0  0  0  0  0  0  0  0  0  0  0
  150.5755  135.4230  155.9571 C   0  0  0  0  0  0  0  0  0  0  0  0
  154.3304  134.1067  158.2748 H   0  0  0  0  0  0  0  0  0  0  0  0
  154.0602  133.8010  156.5584 H   0  0  0  0  0  0  0  0  0  0  0  0
  154.2021  132.4457  157.6937 H   0  0  0  0  0  0  0  0  0  0  0  0
  152.1141  132.7431  155.9072 H   0  0  0  0  0  0  0  0  0  0  0  0
  151.7411  131.6433  157.2292 H   0  0  0  0  0  0  0  0  0  0  0  0
  149.5698  132.2985  156.6862 H   0  0  0  0  0  0  0  0  0  0  0  0
  149.9186  133.5516  157.8431 H   0  0  0  0  0  0  0  0  0  0  0  0
  149.5135  131.5147  155.4585 H   0  0  0  0  0  0  0  0  0  0  0  0
  148.2907  129.5471  154.5765 H   0  0  0  0  0  0  0  0  0  0  0  0
  146.6387  129.8257  152.7363 H   0  0  0  0  0  0  0  0  0  0  0  0
  147.4479  134.0513  152.6500 H   0  0  0  0  0  0  0  0  0  0  0  0
  150.3277  138.0002  153.6879 H   0  0  0  0  0  0  0  0  0  0  0  0
  153.5983  138.3607  154.8528 H   0  0  0  0  0  0  0  0  0  0  0  0
  152.4237  137.8056  157.4698 H   0  0  0  0  0  0  0  0  0  0  0  0
  151.6769  135.4599  157.8320 H   0  0  0  0  0  0  0  0  0  0  0  0
  149.0080  135.4972  153.1175 H   0  0  0  0  0  0  0  0  0  0  0  0
  1  2  1  0  0  0  0
  1 25  1  0  0  0  0
  1 26  1  0  0  0  0
  1 27  1  0  0  0  0
  2  3  1  0  0  0  0
  3  4  1  0  0  0  0
  3 28  1  0  0  0  0
  3 29  1  0  0  0  0
  4  5  1  0  0  0  0
  4 30  1  0  0  0  0
  4 31  1  0  0  0  0
  5 24  1  0  0  0  0
  5  6  1  0  0  0  0
  6  7  1  0  0  0  0
  6 14  2  0  0  0  0
  7 13  1  0  0  0  0
  7  8  2  0  0  0  0
  8  9  1  0  0  0  0
  8 32  1  0  0  0  0
  9 10  2  0  0  0  0
  9 33  1  0  0  0  0
 10 11  1  0  0  0  0
 10 34  1  0  0  0  0
 11 12  1  0  0  0  0
 11 13  2  0  0  0  0
 13 35  1  0  0  0  0
 14 15  1  0  0  0  0
 14 40  1  0  0  0  0
 15 24  2  0  0  0  0
 15 16  1  0  0  0  0
 16 17  2  0  0  0  0
 16 36  1  0  0  0  0
 17 18  1  0  0  0  0
 17 22  1  0  0  0  0
 18 19  1  0  0  0  0
 18 20  2  0  0  0  0
 18 21  2  0  0  0  0
 19 37  1  0  0  0  0
 22 23  2  0  0  0  0
 22 38  1  0  0  0  0
 23 24  1  0  0  0  0
 23 39  1  0  0  0  0
M  CHG  1  14   1
M  CHG  1  19  -1
M  END
> <s_m_source_file>
AV-unprocessed.smi

> <i_m_source_file_index>
2867

> <i_lp_mmshare_version>
43012

> <i_f3d_flags>
0

> <s_epik_input>
W05IMl1TKD1PKSg9TyljKFtjSF0xKVtjSF1bY0hdYyhjMTIpbihbQ0gyXVtDSDJdT1tDSDNdKWMobjIpLWMzW2NIXVtjSF1bY0hdYyhGKVtjSF0z

> <s_epik_cmdline>
J2VwaWtfcHl0aG9uJywgJy1waCcsICc3LjAnLCAnLXRuJywgJzgnLCAnLW1hJywgJzIwMCcsICctbWV0YWxfYmluZGluZycsICctaW1hZScsICc8aW5maWxlLm1hZT4nLCAnLW9tYWUnLCAnPG91dGZpbGUubWFlPic=

> <r_epik_Ionization_Penalty>
2.60795

> <r_epik_Ionization_Penalty_Charging>
2.60795

> <r_epik_Ionization_Penalty_Neutral>
2.51e-12

> <r_epik_State_Penalty>
3.58678

> <r_epik_Charging_Adjusted_Penalty>
6.19473

> <i_epik_Tot_Q>
0

> <i_epik_Tot_abs_Q>
2

> <r_epik_Metal_State_Penalty>
1.73828

> <b_epik_Metal_Only>
1

> <s_lp_Force_Field>
OPLS_2005

> <r_lp_Energy>
13.6429

> <b_lp_Chiralities_Consistent>
1

> <s_lp_Variant>
AV-unprocessed.smi:2867-4

> <Gold.Version>
5.8.1

> <Gold.Id.Protein>
6NUR|6NUR_protein|mol2

> <Gold.PLP.Fitness>
51.8425

> <Gold.PLP.PLP>
-36.7001

> <Gold.PLP.part.hbond>
-4.8530

> <Gold.PLP.part.metal>
0.0000

> <Gold.PLP.part.buried>
-2.4140

> <Gold.PLP.part.nonpolar>
-31.2007

> <Gold.PLP.part.repulsive>
0.1013

> <Gold.PLP.ligand.clash>
0.0000

> <Gold.PLP.ligand.torsion>
1.5340

> <Gold.PLP.Chemscore.Hbond>
5.3648

> <Gold.PLP.Chemscore.CHOScore>
0.0000

> <Gold.PLP.Chemscore.Metal>
0.0000

> <Gold.Chemscore.Hbonds>
donor molecule, donor type, donor heavy atom, donor atom, acceptor molecule, acceptor atom, score
      L1  H    14    40       P1  7948  1.46
      P1  H  6896  6907       L1     2  0.10
      P1  H  7989  7998       L1    20  0.13
      P1  H  7997  8010       L1    19  2.00

> <Gold.PLP.Chemscore.Internal.Correction>
2.1160

> <Gold.Rescore>
     Score         DG    S(hbond)    S(metal)    S(lipo)     H(rot)  DE(clash)    DE(int)     intcor
     16.30     -20.14       3.04        0.00      70.24       1.45       0.01       3.83       ----

> <Gold.Chemscore.Fitness>
16.3034

> <Gold.Chemscore.DG>
-20.1379

> <Gold.Chemscore.ZeroCoef>
-5.4800

> <Gold.Chemscore.Hbond>
3.0417

> <Gold.Chemscore.Metal>
0.0000

> <Gold.Chemscore.Lipo>
70.2411

> <Gold.Chemscore.Internal_Hbond>
0.0000

> <Gold.Chemscore.DEClash>
0.0059

> <Gold.Chemscore.DEInternal>
3.8286

> <Gold.Chemscore.Rot>
1.4530

> <Gold.Chemscore.Internal.Correction>
   9.000000E+99

> <Gold.Chemscore.Hbonds>
donor molecule, donor type, donor heavy atom, donor atom, acceptor molecule, acceptor atom, score
      L1  H    14    40       P1  7948  0.39
      P1  H  6896  6907       L1     2  0.02
      P1  H  7989  7998       L1    20  0.13
      P1  H  7997  8010       L1    19  0.20

> <Gold.Chemscore.Hbond.Weighted>
-10.1593

> <Gold.Chemscore.Metal.Weighted>
-0.0000

> <Gold.Chemscore.Lipo.Weighted>
-8.2182

> <Gold.Chemscore.Internal_Hbond.Weighted>
0.0000

> <Gold.Chemscore.DEClash.Weighted>
0.0059

> <Gold.Chemscore.DEInternal.Weighted>
3.8286

> <Gold.Chemscore.Rot.Weighted>
3.7196

> <Gold.Chemscore.Internal.Correction.Weighted>
   9.000000E+99

> <Gold.Protein.RotatedTorsions>
[ 6907 6896 6895 6894 ] final -147.05 input  -60.11 | X-H torsion
[ 7974 7965 7964 7962 ] final  -48.34 input  175.53 | X-H torsion
[ 8008 7997 7996 7995 ] final  115.94 input   59.86 | X-H torsion
[ 10167 10162 10161 10158 ] final  -17.83 input  -65.29 | X-H torsion
[ 10718 10713 10712 10709 ] final   63.34 input   66.30 | X-H torsion
[ 10763 10752 10751 10750 ] final  112.22 input  -60.55 | X-H torsion
[ 11005 11000 10999 10996 ] final  -13.11 input  -57.11 | X-H torsion

> <Gold.Protein.ActiveResidues>
 VAL166  LYS551  ARG553  GLY616  TRP617  ASP618  TYR619  PRO620  LYS621  CYS622 
 ASP623  PHE694  ASN695  SER759  ASP760  ASP761  ALA762  ILE779  LEU786  VAL792 
 PHE793  MET794  SER795  GLU796  ALA797  LYS798  CYS799  TRP800  GLU811  SER814 

> <Gold.Protein.RotatedAtoms>
  151.1502  133.4912  159.2595 H   0  0  0  0  0  0  0  0  0  0  0  0  # atno 6907 bound_to 6896
  151.1562  135.0251  159.8700 H   0  0  0  0  0  0  0  0  0  0  0  0  # atno 6908 bound_to 6896
  152.5463  134.1381  159.8520 H   0  0  0  0  0  0  0  0  0  0  0  0  # atno 6909 bound_to 6896
  145.9522  140.7561  142.9499 H   0  0  0  0  0  0  0  0  0  0  0  0  # atno 7974 bound_to 7965
  156.2411  140.2928  156.0447 H   0  0  0  0  0  0  0  0  0  0  0  0  # atno 8008 bound_to 7997
  155.1948  140.0408  157.2924 H   0  0  0  0  0  0  0  0  0  0  0  0  # atno 8009 bound_to 7997
  154.6170  140.2466  155.7604 H   0  0  0  0  0  0  0  0  0  0  0  0  # atno 8010 bound_to 7997
  140.7252  143.4977  150.9910 H   0  0  0  0  0  0  0  0  0  0  0  0  # atno 10167 bound_to 10162
  157.5964  130.9100  149.9703 H   0  0  0  0  0  0  0  0  0  0  0  0  # atno 10718 bound_to 10713
  153.4747  135.3693  155.2410 H   0  0  0  0  0  0  0  0  0  0  0  0  # atno 10763 bound_to 10752
  154.8756  135.3940  154.3770 H   0  0  0  0  0  0  0  0  0  0  0  0  # atno 10764 bound_to 10752
  153.4364  135.7083  153.6262 H   0  0  0  0  0  0  0  0  0  0  0  0  # atno 10765 bound_to 10752
  140.7727  133.8425  155.9221 H   0  0  0  0  0  0  0  0  0  0  0  0  # atno 11005 bound_to 11000
  144.6798  140.2453  143.7338 LP  0  0  0  0  0  0  0  0  0  0  0  0  # atno 17320 bound_to 7965
  145.8156  139.2021  143.1968 LP  0  0  0  0  0  0  0  0  0  0  0  0  # atno 17321 bound_to 7965
  139.8684  143.7224  152.3168 LP  0  0  0  0  0  0  0  0  0  0  0  0  # atno 17342 bound_to 10162
  139.7464  144.7546  151.0573 LP  0  0  0  0  0  0  0  0  0  0  0  0  # atno 17343 bound_to 10162
  156.1028  130.3654  150.0188 LP  0  0  0  0  0  0  0  0  0  0  0  0  # atno 17370 bound_to 10713
  156.8300  130.9389  151.3637 LP  0  0  0  0  0  0  0  0  0  0  0  0  # atno 17371 bound_to 10713
  140.9558  134.1720  157.4693 LP  0  0  0  0  0  0  0  0  0  0  0  0  # atno 17394 bound_to 11000
  139.8753  134.9926  156.5606 LP  0  0  0  0  0  0  0  0  0  0  0  0  # atno 17395 bound_to 11000

$$$$
