AV-unprocessed.smi:2021|AV-procd|sdf|8186|dock5
  -GOLD-   2272010443D 1   1.00000     0.00000
 Structure written by MMmdl.
 40 41  0  0  0  0  0  0  0  0  2 V2000
  152.8983  142.6176  159.7277 C   0  0  0  0  0  0  0  0  0  0  0  0
  152.0313  143.1979  158.5973 C   0  0  0  0  0  0  0  0  0  0  0  0
  151.5985  144.6289  158.9525 C   0  0  0  0  0  0  0  0  0  0  0  0
  150.8036  142.3058  158.2983 C   0  0  0  0  0  0  0  0  0  0  0  0
  151.1049  140.9665  157.7912 N   0  0  0  0  0  0  0  0  0  0  0  0
  151.6194  141.0307  156.4278 C   0  0  0  0  0  0  0  0  0  0  0  0
  151.9452  139.6360  155.8697 C   0  0  0  0  0  0  0  0  0  0  0  0
  150.7816  138.8195  155.9345 O   0  0  0  0  0  0  0  0  0  0  0  0
  150.2757  138.6759  157.2600 C   0  0  2  0  0  0  0  0  0  0  0  0
  149.0347  137.7733  157.2178 C   0  0  0  0  0  0  0  0  0  0  0  0
  148.2890  137.8590  158.4667 N   0  0  0  0  0  0  0  0  0  0  0  0
  148.0870  136.8419  159.3142 C   0  0  0  0  0  0  0  0  0  0  0  0
  148.5531  135.7291  159.0587 O   0  0  0  0  0  0  0  0  0  0  0  0
  147.3594  137.1757  160.4046 N   0  5  0  0  0  0  0  0  0  0  0  0
  146.4968  136.2918  160.9329 C   0  0  0  0  0  0  0  0  0  0  0  0
  145.2458  136.6304  161.2845 N   0  0  0  0  0  0  0  0  0  0  0  0
  144.5215  135.5711  161.8145 N   0  0  0  0  0  0  0  0  0  0  0  0
  145.2518  134.4571  161.8573 C   0  0  0  0  0  0  0  0  0  0  0  0
  146.8907  134.6012  161.2577 S   0  0  0  0  0  0  0  0  0  0  0  0
  149.9480  140.0747  157.8203 C   0  0  0  0  0  0  0  0  0  0  0  0
  152.3440  142.5700  160.6655 H   0  0  0  0  0  0  0  0  0  0  0  0
  153.7823  143.2326  159.8977 H   0  0  0  0  0  0  0  0  0  0  0  0
  153.2430  141.6099  159.4998 H   0  0  0  0  0  0  0  0  0  0  0  0
  152.6439  143.2698  157.6974 H   0  0  0  0  0  0  0  0  0  0  0  0
  150.9706  144.6441  159.8438 H   0  0  0  0  0  0  0  0  0  0  0  0
  151.0331  145.0816  158.1374 H   0  0  0  0  0  0  0  0  0  0  0  0
  152.4624  145.2660  159.1428 H   0  0  0  0  0  0  0  0  0  0  0  0
  150.1656  142.2374  159.1807 H   0  0  0  0  0  0  0  0  0  0  0  0
  150.1952  142.8135  157.5484 H   0  0  0  0  0  0  0  0  0  0  0  0
  150.8881  141.5150  155.7789 H   0  0  0  0  0  0  0  0  0  0  0  0
  152.5182  141.6477  156.3990 H   0  0  0  0  0  0  0  0  0  0  0  0
  152.2723  139.7090  154.8325 H   0  0  0  0  0  0  0  0  0  0  0  0
  152.7575  139.1727  156.4319 H   0  0  0  0  0  0  0  0  0  0  0  0
  151.0379  138.2075  157.8859 H   0  0  0  0  0  0  0  0  0  0  0  0
  148.3826  138.0781  156.3978 H   0  0  0  0  0  0  0  0  0  0  0  0
  149.3252  136.7381  157.0316 H   0  0  0  0  0  0  0  0  0  0  0  0
  147.8974  138.7577  158.7082 H   0  0  0  0  0  0  0  0  0  0  0  0
  144.8241  133.5459  162.2479 H   0  0  0  0  0  0  0  0  0  0  0  0
  149.5928  139.9593  158.8437 H   0  0  0  0  0  0  0  0  0  0  0  0
  149.1284  140.5141  157.2495 H   0  0  0  0  0  0  0  0  0  0  0  0
  1  2  1  0  0  0  0
  1 21  1  0  0  0  0
  1 22  1  0  0  0  0
  1 23  1  0  0  0  0
  2  3  1  0  0  0  0
  2  4  1  0  0  0  0
  2 24  1  0  0  0  0
  3 25  1  0  0  0  0
  3 26  1  0  0  0  0
  3 27  1  0  0  0  0
  4  5  1  0  0  0  0
  4 28  1  0  0  0  0
  4 29  1  0  0  0  0
  5 20  1  0  0  0  0
  5  6  1  0  0  0  0
  6  7  1  0  0  0  0
  6 30  1  0  0  0  0
  6 31  1  0  0  0  0
  7  8  1  0  0  0  0
  7 32  1  0  0  0  0
  7 33  1  0  0  0  0
  8  9  1  0  0  0  0
  9 10  1  0  0  0  0
  9 20  1  0  0  0  0
  9 34  1  0  0  0  0
 10 11  1  0  0  0  0
 10 35  1  0  0  0  0
 10 36  1  0  0  0  0
 11 12  1  0  0  0  0
 11 37  1  0  0  0  0
 12 13  2  0  0  0  0
 12 14  1  0  0  0  0
 14 15  1  0  0  0  0
 15 19  1  0  0  0  0
 15 16  2  0  0  0  0
 16 17  1  0  0  0  0
 17 18  2  0  0  0  0
 18 19  1  0  0  0  0
 18 38  1  0  0  0  0
 20 39  1  0  0  0  0
 20 40  1  0  0  0  0
M  CHG  1  14  -1
M  END
> <s_m_source_file>
AV-unprocessed.smi

> <i_m_source_file_index>
2021

> <i_lp_mmshare_version>
43012

> <i_f3d_flags>
0

> <s_epik_input>
W0NIM11bQ0hdKFtDSDNdKVtDSDJdTjFbQ0gyXVtDSDJdT1tDQEhdKFtDSDJdMSlbQ0gyXVtOSF1DKD1PKVtOSF1jMm5uW2NIXXMy

> <s_epik_cmdline>
J2VwaWtfcHl0aG9uJywgJy1waCcsICc3LjAnLCAnLXRuJywgJzgnLCAnLW1hJywgJzIwMCcsICctbWV0YWxfYmluZGluZycsICctaW1hZScsICc8aW5maWxlLm1hZT4nLCAnLW9tYWUnLCAnPG91dGZpbGUubWFlPic=

> <r_lp_tautomer_probability>
1

> <r_epik_Ionization_Penalty>
4.44864

> <r_epik_Ionization_Penalty_Charging>
3.27383

> <r_epik_Ionization_Penalty_Neutral>
1.17482

> <r_epik_State_Penalty>
4.44168

> <r_epik_Charging_Adjusted_Penalty>
7.7155

> <i_epik_Tot_Q>
-1

> <i_epik_Tot_abs_Q>
1

> <r_epik_Metal_State_Penalty>
1.66628

> <b_epik_Metal_Only>
1

> <s_lp_Force_Field>
OPLS_2005

> <r_lp_Energy>
22.4741

> <b_lp_Chiralities_Consistent>
1

> <s_lp_Variant>
AV-unprocessed.smi:2021-12

> <Gold.Version>
5.8.1

> <Gold.Id.Protein>
6NUR|6NUR_protein|mol2

> <Gold.PLP.Fitness>
46.8213

> <Gold.PLP.PLP>
-35.0784

> <Gold.PLP.part.hbond>
-3.0000

> <Gold.PLP.part.metal>
0.0000

> <Gold.PLP.part.buried>
-5.8034

> <Gold.PLP.part.nonpolar>
-26.4907

> <Gold.PLP.part.repulsive>
0.1826

> <Gold.PLP.ligand.clash>
0.0000

> <Gold.PLP.ligand.torsion>
0.8420

> <Gold.PLP.Chemscore.Hbond>
4.4560

> <Gold.PLP.Chemscore.CHOScore>
0.0000

> <Gold.PLP.Chemscore.Metal>
0.0000

> <Gold.Chemscore.Hbonds>
donor molecule, donor type, donor heavy atom, donor atom, acceptor molecule, acceptor atom, score
      P1  H  6934  6947       L1    14  2.00

> <Gold.PLP.Chemscore.Internal.Correction>
0.0589

> <Gold.Rescore>
     Score         DG    S(hbond)    S(metal)    S(lipo)     H(rot)  DE(clash)    DE(int)     intcor
     15.54     -17.66       2.16        0.00      81.97       1.81       0.09       2.03       ----

> <Gold.Chemscore.Fitness>
15.5400

> <Gold.Chemscore.DG>
-17.6564

> <Gold.Chemscore.ZeroCoef>
-5.4800

> <Gold.Chemscore.Hbond>
2.1581

> <Gold.Chemscore.Metal>
0.0000

> <Gold.Chemscore.Lipo>
81.9736

> <Gold.Chemscore.Internal_Hbond>
0.0000

> <Gold.Chemscore.DEClash>
0.0861

> <Gold.Chemscore.DEInternal>
2.0303

> <Gold.Chemscore.Rot>
1.8056

> <Gold.Chemscore.Internal.Correction>
   9.000000E+99

> <Gold.Chemscore.Hbonds>
donor molecule, donor type, donor heavy atom, donor atom, acceptor molecule, acceptor atom, score
      P1  H  6896  6907       L1    13  0.03
      P1  H  6931  6943       L1    14  0.01
      P1  H  6934  6947       L1    14  0.91

> <Gold.Chemscore.Hbond.Weighted>
-7.2079

> <Gold.Chemscore.Metal.Weighted>
-0.0000

> <Gold.Chemscore.Lipo.Weighted>
-9.5909

> <Gold.Chemscore.Internal_Hbond.Weighted>
0.0000

> <Gold.Chemscore.DEClash.Weighted>
0.0861

> <Gold.Chemscore.DEInternal.Weighted>
2.0303

> <Gold.Chemscore.Rot.Weighted>
4.6224

> <Gold.Chemscore.Internal.Correction.Weighted>
   9.000000E+99

> <Gold.Protein.RotatedTorsions>
[ 6907 6896 6895 6894 ] final  -56.75 input  -60.11 | X-H torsion
[ 7974 7965 7964 7962 ] final  124.02 input  175.53 | X-H torsion
[ 8008 7997 7996 7995 ] final  153.61 input   59.86 | X-H torsion
[ 10167 10162 10161 10158 ] final  -10.34 input  -65.29 | X-H torsion
[ 10718 10713 10712 10709 ] final   44.58 input   66.30 | X-H torsion
[ 10763 10752 10751 10750 ] final  106.02 input  -60.55 | X-H torsion
[ 11005 11000 10999 10996 ] final  -60.50 input  -57.11 | X-H torsion

> <Gold.Protein.ActiveResidues>
 VAL166  LYS551  ARG553  GLY616  TRP617  ASP618  TYR619  PRO620  LYS621  CYS622 
 ASP623  PHE694  ASN695  SER759  ASP760  ASP761  ALA762  ILE779  LEU786  VAL792 
 PHE793  MET794  SER795  GLU796  ALA797  LYS798  CYS799  TRP800  GLU811  SER814 

> <Gold.Protein.RotatedAtoms>
  150.8142  134.7314  159.6714 H   0  0  0  0  0  0  0  0  0  0  0  0  # atno 6907 bound_to 6896
  152.4261  134.5862  159.9971 H   0  0  0  0  0  0  0  0  0  0  0  0  # atno 6908 bound_to 6896
  151.6064  133.3314  159.3094 H   0  0  0  0  0  0  0  0  0  0  0  0  # atno 6909 bound_to 6896
  145.0892  139.3599  143.4869 H   0  0  0  0  0  0  0  0  0  0  0  0  # atno 7974 bound_to 7965
  156.2573  140.1989  156.6517 H   0  0  0  0  0  0  0  0  0  0  0  0  # atno 8008 bound_to 7997
  154.6531  140.0569  157.0004 H   0  0  0  0  0  0  0  0  0  0  0  0  # atno 8009 bound_to 7997
  155.1387  140.3240  155.4460 H   0  0  0  0  0  0  0  0  0  0  0  0  # atno 8010 bound_to 7997
  140.7111  143.5759  150.9043 H   0  0  0  0  0  0  0  0  0  0  0  0  # atno 10167 bound_to 10162
  157.4284  130.8010  149.7580 H   0  0  0  0  0  0  0  0  0  0  0  0  # atno 10718 bound_to 10713
  153.3873  135.3890  155.1899 H   0  0  0  0  0  0  0  0  0  0  0  0  # atno 10763 bound_to 10752
  154.8715  135.3740  154.4781 H   0  0  0  0  0  0  0  0  0  0  0  0  # atno 10764 bound_to 10752
  153.5264  135.7086  153.5766 H   0  0  0  0  0  0  0  0  0  0  0  0  # atno 10765 bound_to 10752
  141.1289  133.6623  156.5233 H   0  0  0  0  0  0  0  0  0  0  0  0  # atno 11005 bound_to 11000
  146.3531  140.0718  142.8623 LP  0  0  0  0  0  0  0  0  0  0  0  0  # atno 17320 bound_to 7965
  145.1086  140.9391  143.4670 LP  0  0  0  0  0  0  0  0  0  0  0  0  # atno 17321 bound_to 7965
  139.9485  143.6299  152.3035 LP  0  0  0  0  0  0  0  0  0  0  0  0  # atno 17342 bound_to 10162
  139.6809  144.7655  151.1609 LP  0  0  0  0  0  0  0  0  0  0  0  0  # atno 17343 bound_to 10162
  155.9904  130.3944  150.3028 LP  0  0  0  0  0  0  0  0  0  0  0  0  # atno 17370 bound_to 10713
  157.1183  131.0240  151.3020 LP  0  0  0  0  0  0  0  0  0  0  0  0  # atno 17371 bound_to 10713
  140.4275  134.7132  157.4924 LP  0  0  0  0  0  0  0  0  0  0  0  0  # atno 17394 bound_to 11000
  140.0317  134.6397  155.9098 LP  0  0  0  0  0  0  0  0  0  0  0  0  # atno 17395 bound_to 11000

$$$$
