AV-unprocessed.smi:2330|AV-procd|sdf|9313|dock9
  -GOLD-   2272012533D 1   1.00000     0.00000
 Structure written by MMmdl.
 42 43  0  0  0  0  0  0  0  0  1 V2000
  148.9623  140.6833  154.5472 C   0  0  0  0  0  0  0  0  0  0  0  0
  149.6924  139.4865  155.1727 C   0  0  2  0  0  0  0  0  0  0  0  0
  150.5003  138.7050  154.1192 C   0  0  0  0  0  0  0  0  0  0  0  0
  151.2373  137.5066  154.7433 C   0  0  0  0  0  0  0  0  0  0  0  0
  150.2853  136.5673  155.5090 C   0  0  2  0  0  0  0  0  0  0  0  0
  149.4220  135.8466  154.5743 N   0  0  0  0  0  0  0  0  0  0  0  0
  148.7038  134.7493  154.8504 C   0  0  0  0  0  0  0  0  0  0  0  0
  148.6570  134.2065  155.9544 O   0  0  0  0  0  0  0  0  0  0  0  0
  148.0549  134.3000  153.7679 N   0  0  0  0  0  0  0  0  0  0  0  0
  147.2537  133.0801  153.7170 C   0  0  0  0  0  0  0  0  0  0  0  0
  146.8603  132.6802  152.2772 C   0  0  1  0  0  0  0  0  0  0  0  0
  146.3897  131.2229  152.1684 C   0  0  0  0  0  0  0  0  0  0  0  0
  145.8958  133.6360  151.6420 C   0  0  0  0  0  0  0  0  0  0  0  0
  146.1338  134.9432  151.4936 N   0  0  0  0  0  0  0  0  0  0  0  0
  145.0857  135.6087  150.8533 C   0  0  0  0  0  0  0  0  0  0  0  0
  144.0432  134.7863  150.5102 C   0  0  0  0  0  0  0  0  0  0  0  0
  144.3406  133.1363  150.9827 S   0  0  0  0  0  0  0  0  0  0  0  0
  149.4415  137.3479  156.5355 C   0  0  0  0  0  0  0  0  0  0  0  0
  148.7134  138.5478  155.9035 C   0  0  0  0  0  0  0  0  0  0  0  0
  148.2395  140.3596  153.7976 H   0  0  0  0  0  0  0  0  0  0  0  0
  149.6648  141.3617  154.0622 H   0  0  0  0  0  0  0  0  0  0  0  0
  148.4243  141.2541  155.3045 H   0  0  0  0  0  0  0  0  0  0  0  0
  150.3943  139.8797  155.9098 H   0  0  0  0  0  0  0  0  0  0  0  0
  149.8356  138.3557  153.3279 H   0  0  0  0  0  0  0  0  0  0  0  0
  151.2243  139.3655  153.6402 H   0  0  0  0  0  0  0  0  0  0  0  0
  151.7729  136.9529  153.9710 H   0  0  0  0  0  0  0  0  0  0  0  0
  151.9985  137.8786  155.4304 H   0  0  0  0  0  0  0  0  0  0  0  0
  150.9004  135.8528  156.0587 H   0  0  0  0  0  0  0  0  0  0  0  0
  149.3867  136.2051  153.6313 H   0  0  0  0  0  0  0  0  0  0  0  0
  148.1536  134.8147  152.9050 H   0  0  0  0  0  0  0  0  0  0  0  0
  147.7807  132.2634  154.2128 H   0  0  0  0  0  0  0  0  0  0  0  0
  146.3524  133.2643  154.3022 H   0  0  0  0  0  0  0  0  0  0  0  0
  147.7720  132.7395  151.6814 H   0  0  0  0  0  0  0  0  0  0  0  0
  146.2176  130.9428  151.1287 H   0  0  0  0  0  0  0  0  0  0  0  0
  145.4594  131.0648  152.7146 H   0  0  0  0  0  0  0  0  0  0  0  0
  147.1346  130.5388  152.5758 H   0  0  0  0  0  0  0  0  0  0  0  0
  145.1660  136.6717  150.6801 H   0  0  0  0  0  0  0  0  0  0  0  0
  143.1228  135.0495  150.0104 H   0  0  0  0  0  0  0  0  0  0  0  0
  148.7216  136.6836  157.0152 H   0  0  0  0  0  0  0  0  0  0  0  0
  150.0943  137.7100  157.3309 H   0  0  0  0  0  0  0  0  0  0  0  0
  148.1803  139.0977  156.6798 H   0  0  0  0  0  0  0  0  0  0  0  0
  147.9541  138.1901  155.2066 H   0  0  0  0  0  0  0  0  0  0  0  0
  1  2  1  0  0  0  0
  1 20  1  0  0  0  0
  1 21  1  0  0  0  0
  1 22  1  0  0  0  0
  2 19  1  0  0  0  0
  2  3  1  0  0  0  0
  2 23  1  0  0  0  0
  3  4  1  0  0  0  0
  3 24  1  0  0  0  0
  3 25  1  0  0  0  0
  4  5  1  0  0  0  0
  4 26  1  0  0  0  0
  4 27  1  0  0  0  0
  5  6  1  0  0  0  0
  5 18  1  0  0  0  0
  5 28  1  0  0  0  0
  6  7  1  0  0  0  0
  6 29  1  0  0  0  0
  7  8  2  0  0  0  0
  7  9  1  0  0  0  0
  9 10  1  0  0  0  0
  9 30  1  0  0  0  0
 10 11  1  0  0  0  0
 10 31  1  0  0  0  0
 10 32  1  0  0  0  0
 11 12  1  0  0  0  0
 11 13  1  0  0  0  0
 11 33  1  0  0  0  0
 12 34  1  0  0  0  0
 12 35  1  0  0  0  0
 12 36  1  0  0  0  0
 13 17  1  0  0  0  0
 13 14  2  0  0  0  0
 14 15  1  0  0  0  0
 15 16  2  0  0  0  0
 15 37  1  0  0  0  0
 16 17  1  0  0  0  0
 16 38  1  0  0  0  0
 18 19  1  0  0  0  0
 18 39  1  0  0  0  0
 18 40  1  0  0  0  0
 19 41  1  0  0  0  0
 19 42  1  0  0  0  0
M  END
> <s_m_source_file>
AV-unprocessed.smi

> <i_m_source_file_index>
2330

> <i_lp_mmshare_version>
43012

> <i_f3d_flags>
0

> <s_epik_input>
W0NIM11bQ0BASF0xW0NIMl1bQ0gyXVtDQEhdKFtDSDJdW0NIMl0xKVtOSF1DKD1PKVtOSF1bQ0gyXVtDQEhdKFtDSDNdKWMybltjSF1bY0hdczI=

> <s_epik_cmdline>
J2VwaWtfcHl0aG9uJywgJy1waCcsICc3LjAnLCAnLXRuJywgJzgnLCAnLW1hJywgJzIwMCcsICctbWV0YWxfYmluZGluZycsICctaW1hZScsICc8aW5maWxlLm1hZT4nLCAnLW9tYWUnLCAnPG91dGZpbGUubWFlPic=

> <r_lp_tautomer_probability>
1

> <r_epik_Ionization_Penalty>
0.000331107

> <r_epik_Ionization_Penalty_Charging>
0

> <r_epik_Ionization_Penalty_Neutral>
0.000331107

> <r_epik_State_Penalty>
-0

> <r_epik_Charging_Adjusted_Penalty>
0

> <i_epik_Tot_Q>
0

> <i_epik_Tot_abs_Q>
0

> <r_epik_Metal_State_Penalty>
-0

> <b_epik_Metal_Only>
0

> <s_lp_Force_Field>
OPLS_2005

> <r_lp_Energy>
-2.32189

> <b_lp_Chiralities_Consistent>
1

> <s_lp_Variant>
AV-unprocessed.smi:2330-4

> <Gold.Version>
5.8.1

> <Gold.Id.Protein>
6NUR|6NUR_protein|mol2

> <Gold.PLP.Fitness>
41.7606

> <Gold.PLP.PLP>
-30.3739

> <Gold.PLP.part.hbond>
-2.0000

> <Gold.PLP.part.metal>
0.0000

> <Gold.PLP.part.buried>
-5.1208

> <Gold.PLP.part.nonpolar>
-25.1452

> <Gold.PLP.part.repulsive>
1.1041

> <Gold.PLP.ligand.clash>
0.0000

> <Gold.PLP.ligand.torsion>
0.3649

> <Gold.PLP.Chemscore.Hbond>
2.0000

> <Gold.PLP.Chemscore.CHOScore>
2.0000

> <Gold.PLP.Chemscore.Metal>
0.0000

> <Gold.Chemscore.Hbonds>
donor molecule, donor type, donor heavy atom, donor atom, acceptor molecule, acceptor atom, score
      L1  H     6    29       P1  7948  1.00
      L1  H     9    30       P1  7948  1.00
      L1  C    15    37       P1 10171  1.00
      L1  C    16    38       P1 10186  1.00

> <Gold.PLP.Chemscore.Internal.Correction>
0.1165

> <Gold.Rescore>
     Score         DG    S(hbond)    S(metal)    S(lipo)     H(rot)  DE(clash)    DE(int)     intcor
     16.45     -16.97       1.77        0.00      79.60       1.45       0.02       0.50       ----

> <Gold.Chemscore.Fitness>
16.4548

> <Gold.Chemscore.DG>
-16.9733

> <Gold.Chemscore.ZeroCoef>
-5.4800

> <Gold.Chemscore.Hbond>
1.7668

> <Gold.Chemscore.Metal>
0.0000

> <Gold.Chemscore.Lipo>
79.6004

> <Gold.Chemscore.Internal_Hbond>
0.0000

> <Gold.Chemscore.DEClash>
0.0163

> <Gold.Chemscore.DEInternal>
0.5021

> <Gold.Chemscore.Rot>
1.4536

> <Gold.Chemscore.Internal.Correction>
   9.000000E+99

> <Gold.Chemscore.Hbonds>
donor molecule, donor type, donor heavy atom, donor atom, acceptor molecule, acceptor atom, score
      L1  H     6    29       P1  7948  0.74
      L1  H     9    30       P1  7948  0.75

> <Gold.Chemscore.Hbond.Weighted>
-5.9012

> <Gold.Chemscore.Metal.Weighted>
-0.0000

> <Gold.Chemscore.Lipo.Weighted>
-9.3132

> <Gold.Chemscore.Internal_Hbond.Weighted>
0.0000

> <Gold.Chemscore.DEClash.Weighted>
0.0163

> <Gold.Chemscore.DEInternal.Weighted>
0.5021

> <Gold.Chemscore.Rot.Weighted>
3.7212

> <Gold.Chemscore.Internal.Correction.Weighted>
   9.000000E+99

> <Gold.Protein.RotatedTorsions>
[ 6907 6896 6895 6894 ] final   80.68 input  -60.11 | X-H torsion
[ 7974 7965 7964 7962 ] final   39.90 input  175.53 | X-H torsion
[ 8008 7997 7996 7995 ] final   88.50 input   59.86 | X-H torsion
[ 10167 10162 10161 10158 ] final  -12.79 input  -65.29 | X-H torsion
[ 10718 10713 10712 10709 ] final  108.26 input   66.30 | X-H torsion
[ 10763 10752 10751 10750 ] final    5.01 input  -60.55 | X-H torsion
[ 11005 11000 10999 10996 ] final -166.72 input  -57.11 | X-H torsion

> <Gold.Protein.ActiveResidues>
 VAL166  LYS551  ARG553  GLY616  TRP617  ASP618  TYR619  PRO620  LYS621  CYS622 
 ASP623  PHE694  ASN695  SER759  ASP760  ASP761  ALA762  ILE779  LEU786  VAL792 
 PHE793  MET794  SER795  GLU796  ALA797  LYS798  CYS799  TRP800  GLU811  SER814 

> <Gold.Protein.RotatedAtoms>
  152.5243  134.3320  159.9186 H   0  0  0  0  0  0  0  0  0  0  0  0  # atno 6907 bound_to 6896
  151.3270  133.4010  159.2667 H   0  0  0  0  0  0  0  0  0  0  0  0  # atno 6908 bound_to 6896
  150.9912  134.9264  159.7958 H   0  0  0  0  0  0  0  0  0  0  0  0  # atno 6909 bound_to 6896
  146.0947  139.5596  142.9453 H   0  0  0  0  0  0  0  0  0  0  0  0  # atno 7974 bound_to 7965
  155.9885  140.3371  155.6731 H   0  0  0  0  0  0  0  0  0  0  0  0  # atno 8008 bound_to 7997
  155.6452  140.0699  157.2623 H   0  0  0  0  0  0  0  0  0  0  0  0  # atno 8009 bound_to 7997
  154.4212  140.1735  156.1603 H   0  0  0  0  0  0  0  0  0  0  0  0  # atno 8010 bound_to 7997
  140.7169  143.5495  150.9317 H   0  0  0  0  0  0  0  0  0  0  0  0  # atno 10167 bound_to 10162
  157.6594  131.0890  150.6279 H   0  0  0  0  0  0  0  0  0  0  0  0  # atno 10718 bound_to 10713
  153.2644  135.6926  153.7545 H   0  0  0  0  0  0  0  0  0  0  0  0  # atno 10763 bound_to 10752
  153.6592  135.3363  155.3123 H   0  0  0  0  0  0  0  0  0  0  0  0  # atno 10764 bound_to 10752
  154.8442  135.4473  154.1645 H   0  0  0  0  0  0  0  0  0  0  0  0  # atno 10765 bound_to 10752
  140.5613  134.5330  157.5143 H   0  0  0  0  0  0  0  0  0  0  0  0  # atno 11005 bound_to 11000
  145.5971  141.0361  143.2039 LP  0  0  0  0  0  0  0  0  0  0  0  0  # atno 17320 bound_to 7965
  144.7386  139.7512  143.7319 LP  0  0  0  0  0  0  0  0  0  0  0  0  # atno 17321 bound_to 7965
  139.9219  143.6596  152.3095 LP  0  0  0  0  0  0  0  0  0  0  0  0  # atno 17342 bound_to 10162
  139.7016  144.7634  151.1264 LP  0  0  0  0  0  0  0  0  0  0  0  0  # atno 17343 bound_to 10162
  156.6583  130.4505  149.5696 LP  0  0  0  0  0  0  0  0  0  0  0  0  # atno 17370 bound_to 10713
  156.2086  130.6665  151.1245 LP  0  0  0  0  0  0  0  0  0  0  0  0  # atno 17371 bound_to 10713
  139.9406  134.7793  156.0687 LP  0  0  0  0  0  0  0  0  0  0  0  0  # atno 17394 bound_to 11000
  141.1113  133.6642  156.2985 LP  0  0  0  0  0  0  0  0  0  0  0  0  # atno 17395 bound_to 11000

$$$$
