AV-unprocessed.smi:1914|AV-procd|sdf|7759|dock5
  -GOLD-   22720 9503D 1   1.00000     0.00000
 Structure written by MMmdl.
 44 45  0  0  0  0  0  0  0  0  2 V2000
  146.5316  132.8158  150.2235 C   0  0  0  0  0  0  0  0  0  0  0  0
  146.7949  133.8788  151.2993 C   0  0  1  0  0  0  0  0  0  0  0  0
  145.4982  134.5981  151.7072 C   0  0  0  0  0  0  0  0  0  0  0  0
  145.7845  135.6310  152.8041 C   0  0  0  0  0  0  0  0  0  0  0  0
  146.4928  134.9795  154.0022 C   0  0  0  0  0  0  0  0  0  0  0  0
  147.7442  134.2994  153.5791 N   0  3  1  0  0  0  0  0  0  0  0  0
  148.5180  133.7792  154.7347 C   0  0  0  0  0  0  0  0  0  0  0  0
  148.8647  134.8805  155.7496 C   0  0  0  0  0  0  0  0  0  0  0  0
  147.7831  135.0517  156.7095 N   0  0  0  0  0  0  0  0  0  0  0  0
  147.8970  134.8148  158.0242 C   0  0  0  0  0  0  0  0  0  0  0  0
  148.9477  134.4473  158.5513 O   0  0  0  0  0  0  0  0  0  0  0  0
  146.6338  135.0492  158.8651 C   0  0  0  0  0  0  0  0  0  0  0  0
  146.8590  134.8846  160.3111 N   0  0  0  0  0  0  0  0  0  0  0  0
  146.4302  133.6762  160.8959 C   0  0  0  0  0  0  0  0  0  0  0  0
  146.5886  133.4258  162.2052 C   0  0  0  0  0  0  0  0  0  0  0  0
  147.2188  134.4357  163.0224 C   0  0  0  0  0  0  0  0  0  0  0  0
  147.6307  135.5958  162.4737 C   0  0  0  0  0  0  0  0  0  0  0  0
  147.4585  135.8743  161.0431 C   0  0  0  0  0  0  0  0  0  0  0  0
  147.8301  136.9320  160.5333 O   0  0  0  0  0  0  0  0  0  0  0  0
  147.4803  133.2686  152.5386 C   0  0  0  0  0  0  0  0  0  0  0  0
  145.8559  132.0412  150.5878 H   0  0  0  0  0  0  0  0  0  0  0  0
  147.4580  132.3307  149.9150 H   0  0  0  0  0  0  0  0  0  0  0  0
  146.0807  133.2591  149.3350 H   0  0  0  0  0  0  0  0  0  0  0  0
  147.4719  134.6191  150.8701 H   0  0  0  0  0  0  0  0  0  0  0  0
  145.0493  135.0895  150.8433 H   0  0  0  0  0  0  0  0  0  0  0  0
  144.7669  133.8735  152.0690 H   0  0  0  0  0  0  0  0  0  0  0  0
  146.4060  136.4321  152.4016 H   0  0  0  0  0  0  0  0  0  0  0  0
  144.8533  136.0960  153.1296 H   0  0  0  0  0  0  0  0  0  0  0  0
  146.7209  135.7490  154.7408 H   0  0  0  0  0  0  0  0  0  0  0  0
  145.8310  134.2599  154.4871 H   0  0  0  0  0  0  0  0  0  0  0  0
  147.9266  133.0221  155.2521 H   0  0  0  0  0  0  0  0  0  0  0  0
  149.4193  133.2760  154.3804 H   0  0  0  0  0  0  0  0  0  0  0  0
  149.7753  134.6377  156.2977 H   0  0  0  0  0  0  0  0  0  0  0  0
  149.0419  135.8237  155.2300 H   0  0  0  0  0  0  0  0  0  0  0  0
  146.8885  135.3573  156.3540 H   0  0  0  0  0  0  0  0  0  0  0  0
  146.2621  136.0507  158.6445 H   0  0  0  0  0  0  0  0  0  0  0  0
  145.8436  134.3722  158.5343 H   0  0  0  0  0  0  0  0  0  0  0  0
  145.9635  132.9754  160.2189 H   0  0  0  0  0  0  0  0  0  0  0  0
  146.2512  132.4949  162.6368 H   0  0  0  0  0  0  0  0  0  0  0  0
  147.3594  134.2603  164.0789 H   0  0  0  0  0  0  0  0  0  0  0  0
  148.0993  136.3402  163.1008 H   0  0  0  0  0  0  0  0  0  0  0  0
  146.8591  132.4773  152.9617 H   0  0  0  0  0  0  0  0  0  0  0  0
  148.4147  132.8012  152.2300 H   0  0  0  0  0  0  0  0  0  0  0  0
  148.3171  135.0120  153.1497 H   0  0  0  0  0  0  0  0  0  0  0  0
  1  2  1  0  0  0  0
  1 21  1  0  0  0  0
  1 22  1  0  0  0  0
  1 23  1  0  0  0  0
  2 20  1  0  0  0  0
  2  3  1  0  0  0  0
  2 24  1  0  0  0  0
  3  4  1  0  0  0  0
  3 25  1  0  0  0  0
  3 26  1  0  0  0  0
  4  5  1  0  0  0  0
  4 27  1  0  0  0  0
  4 28  1  0  0  0  0
  5  6  1  0  0  0  0
  5 29  1  0  0  0  0
  5 30  1  0  0  0  0
  6  7  1  0  0  0  0
  6 20  1  0  0  0  0
  6 44  1  0  0  0  0
  7  8  1  0  0  0  0
  7 31  1  0  0  0  0
  7 32  1  0  0  0  0
  8  9  1  0  0  0  0
  8 33  1  0  0  0  0
  8 34  1  0  0  0  0
  9 10  1  0  0  0  0
  9 35  1  0  0  0  0
 10 11  2  0  0  0  0
 10 12  1  0  0  0  0
 12 13  1  0  0  0  0
 12 36  1  0  0  0  0
 12 37  1  0  0  0  0
 13 18  1  0  0  0  0
 13 14  1  0  0  0  0
 14 15  2  0  0  0  0
 14 38  1  0  0  0  0
 15 16  1  0  0  0  0
 15 39  1  0  0  0  0
 16 17  2  0  0  0  0
 16 40  1  0  0  0  0
 17 18  1  0  0  0  0
 17 41  1  0  0  0  0
 18 19  2  0  0  0  0
 20 42  1  0  0  0  0
 20 43  1  0  0  0  0
M  CHG  1   6   1
M  END
> <s_m_source_file>
AV-unprocessed.smi

> <i_m_source_file_index>
1914

> <i_lp_mmshare_version>
43012

> <i_f3d_flags>
0

> <s_epik_input>
W0NIM11bQ0BASF0xW0NIMl1bQ0gyXVtDSDJdTihbQ0gyXTEpW0NIMl1bQ0gyXVtOSF1DKD1PKVtDSDJdbjJbY0hdW2NIXVtjSF1bY0hdYzI9Tw==

> <s_epik_cmdline>
J2VwaWtfcHl0aG9uJywgJy1waCcsICc3LjAnLCAnLXRuJywgJzgnLCAnLW1hJywgJzIwMCcsICctbWV0YWxfYmluZGluZycsICctaW1hZScsICc8aW5maWxlLm1hZT4nLCAnLW9tYWUnLCAnPG91dGZpbGUubWFlPic=

> <r_lp_tautomer_probability>
1

> <r_epik_Ionization_Penalty>
0.00192477

> <r_epik_Ionization_Penalty_Charging>
0.00192469

> <r_epik_Ionization_Penalty_Neutral>
8.16761e-08

> <r_epik_State_Penalty>
0.00131115

> <r_epik_Charging_Adjusted_Penalty>
0.00323584

> <i_epik_Tot_Q>
1

> <i_epik_Tot_abs_Q>
1

> <r_epik_Metal_State_Penalty>
-0

> <b_epik_Metal_Only>
0

> <s_lp_Force_Field>
OPLS_2005

> <r_lp_Energy>
25.5857

> <b_lp_Chiralities_Consistent>
1

> <s_lp_Variant>
AV-unprocessed.smi:1914-4

> <Gold.Version>
5.8.1

> <Gold.Id.Protein>
6NUR|6NUR_protein|mol2

> <Gold.PLP.Fitness>
46.2987

> <Gold.PLP.PLP>
-33.7779

> <Gold.PLP.part.hbond>
-4.0000

> <Gold.PLP.part.metal>
0.0000

> <Gold.PLP.part.buried>
-2.2332

> <Gold.PLP.part.nonpolar>
-27.7203

> <Gold.PLP.part.repulsive>
0.0000

> <Gold.PLP.ligand.clash>
0.0024

> <Gold.PLP.ligand.torsion>
0.4414

> <Gold.PLP.Chemscore.Hbond>
4.4560

> <Gold.PLP.Chemscore.CHOScore>
0.0000

> <Gold.PLP.Chemscore.Metal>
0.0000

> <Gold.Chemscore.Hbonds>
donor molecule, donor type, donor heavy atom, donor atom, acceptor molecule, acceptor atom, score
      L1  H     6    44       P1  7948  2.00
      P1  H  6896  6907       L1    11  1.00
      P1  H  6931  6943       L1    19  0.39
      P1  H  6934  6947       L1    19  0.47

> <Gold.PLP.Chemscore.Internal.Correction>
0.0380

> <Gold.Rescore>
     Score         DG    S(hbond)    S(metal)    S(lipo)     H(rot)  DE(clash)    DE(int)     intcor
     18.92     -20.77       3.50        0.00      71.47       1.86       0.39       1.47       ----

> <Gold.Chemscore.Fitness>
18.9168

> <Gold.Chemscore.DG>
-20.7749

> <Gold.Chemscore.ZeroCoef>
-5.4800

> <Gold.Chemscore.Hbond>
3.5003

> <Gold.Chemscore.Metal>
0.0000

> <Gold.Chemscore.Lipo>
71.4700

> <Gold.Chemscore.Internal_Hbond>
0.0000

> <Gold.Chemscore.DEClash>
0.3853

> <Gold.Chemscore.DEInternal>
1.4728

> <Gold.Chemscore.Rot>
1.8586

> <Gold.Chemscore.Internal.Correction>
   9.000000E+99

> <Gold.Chemscore.Hbonds>
donor molecule, donor type, donor heavy atom, donor atom, acceptor molecule, acceptor atom, score
      L1  H     6    44       P1  7948  0.88
      P1  H  6896  6907       L1    11  0.97
      P1  H  6931  6943       L1    19  0.35
      P1  H  6934  6947       L1    19  0.46

> <Gold.Chemscore.Hbond.Weighted>
-11.6910

> <Gold.Chemscore.Metal.Weighted>
-0.0000

> <Gold.Chemscore.Lipo.Weighted>
-8.3620

> <Gold.Chemscore.Internal_Hbond.Weighted>
0.0000

> <Gold.Chemscore.DEClash.Weighted>
0.3853

> <Gold.Chemscore.DEInternal.Weighted>
1.4728

> <Gold.Chemscore.Rot.Weighted>
4.7581

> <Gold.Chemscore.Internal.Correction.Weighted>
   9.000000E+99

> <Gold.Protein.RotatedTorsions>
[ 6907 6896 6895 6894 ] final -108.30 input  -60.11 | X-H torsion
[ 7974 7965 7964 7962 ] final -147.07 input  175.53 | X-H torsion
[ 8008 7997 7996 7995 ] final  -72.19 input   59.86 | X-H torsion
[ 10167 10162 10161 10158 ] final  -95.52 input  -65.29 | X-H torsion
[ 10718 10713 10712 10709 ] final   41.12 input   66.30 | X-H torsion
[ 10763 10752 10751 10750 ] final   99.75 input  -60.55 | X-H torsion
[ 11005 11000 10999 10996 ] final -111.03 input  -57.11 | X-H torsion

> <Gold.Protein.ActiveResidues>
 VAL166  LYS551  ARG553  GLY616  TRP617  ASP618  TYR619  PRO620  LYS621  CYS622 
 ASP623  PHE694  ASN695  SER759  ASP760  ASP761  ALA762  ILE779  LEU786  VAL792 
 PHE793  MET794  SER795  GLU796  ALA797  LYS798  CYS799  TRP800  GLU811  SER814 

> <Gold.Protein.RotatedAtoms>
  150.7494  133.9698  159.3541 H   0  0  0  0  0  0  0  0  0  0  0  0  # atno 6907 bound_to 6896
  151.7630  135.0803  160.0358 H   0  0  0  0  0  0  0  0  0  0  0  0  # atno 6908 bound_to 6896
  152.3390  133.6008  159.5899 H   0  0  0  0  0  0  0  0  0  0  0  0  # atno 6909 bound_to 6896
  144.8117  140.5374  143.5638 H   0  0  0  0  0  0  0  0  0  0  0  0  # atno 7974 bound_to 7965
  154.5147  140.0802  156.8057 H   0  0  0  0  0  0  0  0  0  0  0  0  # atno 8008 bound_to 7997
  155.3708  140.3423  155.4225 H   0  0  0  0  0  0  0  0  0  0  0  0  # atno 8009 bound_to 7997
  156.1613  140.1589  156.8594 H   0  0  0  0  0  0  0  0  0  0  0  0  # atno 8010 bound_to 7997
  140.3033  143.3149  152.0225 H   0  0  0  0  0  0  0  0  0  0  0  0  # atno 10167 bound_to 10162
  157.3899  130.7801  149.7261 H   0  0  0  0  0  0  0  0  0  0  0  0  # atno 10718 bound_to 10713
  153.3053  135.4102  155.1289 H   0  0  0  0  0  0  0  0  0  0  0  0  # atno 10763 bound_to 10752
  154.8561  135.3551  154.5796 H   0  0  0  0  0  0  0  0  0  0  0  0  # atno 10764 bound_to 10752
  153.6223  135.7064  153.5364 H   0  0  0  0  0  0  0  0  0  0  0  0  # atno 10765 bound_to 10752
  141.0757  133.9304  157.2393 H   0  0  0  0  0  0  0  0  0  0  0  0  # atno 11005 bound_to 11000
  145.5308  139.1475  143.3501 LP  0  0  0  0  0  0  0  0  0  0  0  0  # atno 17320 bound_to 7965
  146.2417  140.5448  142.8931 LP  0  0  0  0  0  0  0  0  0  0  0  0  # atno 17321 bound_to 7965
  139.4910  144.6439  151.6819 LP  0  0  0  0  0  0  0  0  0  0  0  0  # atno 17342 bound_to 10162
  140.5632  144.0234  150.6179 LP  0  0  0  0  0  0  0  0  0  0  0  0  # atno 17343 bound_to 10162
  155.9796  130.4038  150.3579 LP  0  0  0  0  0  0  0  0  0  0  0  0  # atno 17370 bound_to 10713
  157.1694  131.0365  151.2803 LP  0  0  0  0  0  0  0  0  0  0  0  0  # atno 17371 bound_to 10713
  139.9570  135.0163  156.9155 LP  0  0  0  0  0  0  0  0  0  0  0  0  # atno 17394 bound_to 11000
  140.5577  134.0565  155.7389 LP  0  0  0  0  0  0  0  0  0  0  0  0  # atno 17395 bound_to 11000

$$$$
