AV-unprocessed.smi:772|AV-procd|sdf|3686|dock10
  -GOLD-   22720 1103D 1   1.00000     0.00000
 Structure written by MMmdl.
 46 47  0  0  0  0  0  0  0  0  1 V2000
  145.9407  137.0720  152.0962 C   0  0  0  0  0  0  0  0  0  0  0  0
  146.5724  138.2925  152.7323 C   0  0  0  0  0  0  0  0  0  0  0  0
  146.5613  139.5399  152.0734 C   0  0  0  0  0  0  0  0  0  0  0  0
  147.1647  140.6402  152.7117 C   0  0  0  0  0  0  0  0  0  0  0  0
  147.7552  140.4522  153.9784 C   0  0  0  0  0  0  0  0  0  0  0  0
  148.4392  141.5991  154.7015 C   0  0  0  0  0  0  0  0  0  0  0  0
  148.7764  141.2862  156.1712 C   0  0  0  0  0  0  0  0  0  0  0  0
  149.8396  142.1463  156.6848 N   0  0  0  0  0  0  0  0  0  0  0  0
  150.7157  141.8240  157.6531 C   0  0  0  0  0  0  0  0  0  0  0  0
  150.6770  140.7421  158.2405 O   0  0  0  0  0  0  0  0  0  0  0  0
  151.6506  142.7737  157.9113 N   0  0  0  0  0  0  0  0  0  0  0  0
  151.5636  144.1968  157.5464 C   0  0  0  0  0  0  0  0  0  0  0  0
  151.0646  144.9926  158.7619 C   0  0  0  0  0  0  0  0  0  0  0  0
  152.2403  144.8705  160.1453 S   0  0  0  0  0  0  0  0  0  0  0  0
  152.4823  143.0589  160.2093 C   0  0  2  0  0  0  0  0  0  0  0  0
  153.5397  142.6433  161.2633 C   0  0  0  0  0  0  0  0  0  0  0  0
  153.8385  141.1352  161.2160 C   0  0  0  0  0  0  0  0  0  0  0  0
  153.2024  143.0910  162.6979 C   0  0  0  0  0  0  0  0  0  0  0  0
  152.7906  142.5105  158.7980 C   0  0  0  0  0  0  0  0  0  0  0  0
  147.7105  139.1636  154.5509 C   0  0  0  0  0  0  0  0  0  0  0  0
  147.1328  138.1031  153.9471 N   0  0  0  0  0  0  0  0  0  0  0  0
  145.5247  137.3068  151.1161 H   0  0  0  0  0  0  0  0  0  0  0  0
  145.1354  136.6907  152.7246 H   0  0  0  0  0  0  0  0  0  0  0  0
  146.6828  136.2832  151.9704 H   0  0  0  0  0  0  0  0  0  0  0  0
  146.1040  139.6536  151.1016 H   0  0  0  0  0  0  0  0  0  0  0  0
  147.1804  141.6077  152.2316 H   0  0  0  0  0  0  0  0  0  0  0  0
  149.3511  141.8648  154.1650 H   0  0  0  0  0  0  0  0  0  0  0  0
  147.7936  142.4768  154.6530 H   0  0  0  0  0  0  0  0  0  0  0  0
  147.8904  141.4357  156.7884 H   0  0  0  0  0  0  0  0  0  0  0  0
  149.0431  140.2333  156.2770 H   0  0  0  0  0  0  0  0  0  0  0  0
  149.9366  143.0524  156.2507 H   0  0  0  0  0  0  0  0  0  0  0  0
  152.5445  144.5631  157.2399 H   0  0  0  0  0  0  0  0  0  0  0  0
  150.9173  144.3813  156.6882 H   0  0  0  0  0  0  0  0  0  0  0  0
  150.9384  146.0438  158.5030 H   0  0  0  0  0  0  0  0  0  0  0  0
  150.0912  144.6233  159.0869 H   0  0  0  0  0  0  0  0  0  0  0  0
  151.5282  142.6317  160.5224 H   0  0  0  0  0  0  0  0  0  0  0  0
  154.4695  143.1437  160.9892 H   0  0  0  0  0  0  0  0  0  0  0  0
  152.9738  140.5425  161.5147 H   0  0  0  0  0  0  0  0  0  0  0  0
  154.6591  140.8779  161.8863 H   0  0  0  0  0  0  0  0  0  0  0  0
  154.1271  140.8215  160.2126 H   0  0  0  0  0  0  0  0  0  0  0  0
  152.2882  142.6239  163.0642 H   0  0  0  0  0  0  0  0  0  0  0  0
  153.0765  144.1710  162.7655 H   0  0  0  0  0  0  0  0  0  0  0  0
  154.0035  142.8196  163.3857 H   0  0  0  0  0  0  0  0  0  0  0  0
  153.0212  141.4451  158.8491 H   0  0  0  0  0  0  0  0  0  0  0  0
  153.6872  142.9774  158.3891 H   0  0  0  0  0  0  0  0  0  0  0  0
  148.1559  138.9767  155.5170 H   0  0  0  0  0  0  0  0  0  0  0  0
  1  2  1  0  0  0  0
  1 22  1  0  0  0  0
  1 23  1  0  0  0  0
  1 24  1  0  0  0  0
  2 21  1  0  0  0  0
  2  3  2  0  0  0  0
  3  4  1  0  0  0  0
  3 25  1  0  0  0  0
  4  5  2  0  0  0  0
  4 26  1  0  0  0  0
  5  6  1  0  0  0  0
  5 20  1  0  0  0  0
  6  7  1  0  0  0  0
  6 27  1  0  0  0  0
  6 28  1  0  0  0  0
  7  8  1  0  0  0  0
  7 29  1  0  0  0  0
  7 30  1  0  0  0  0
  8  9  1  0  0  0  0
  8 31  1  0  0  0  0
  9 10  2  0  0  0  0
  9 11  1  0  0  0  0
 11 19  1  0  0  0  0
 11 12  1  0  0  0  0
 12 13  1  0  0  0  0
 12 32  1  0  0  0  0
 12 33  1  0  0  0  0
 13 14  1  0  0  0  0
 13 34  1  0  0  0  0
 13 35  1  0  0  0  0
 14 15  1  0  0  0  0
 15 16  1  0  0  0  0
 15 19  1  0  0  0  0
 15 36  1  0  0  0  0
 16 17  1  0  0  0  0
 16 18  1  0  0  0  0
 16 37  1  0  0  0  0
 17 38  1  0  0  0  0
 17 39  1  0  0  0  0
 17 40  1  0  0  0  0
 18 41  1  0  0  0  0
 18 42  1  0  0  0  0
 18 43  1  0  0  0  0
 19 44  1  0  0  0  0
 19 45  1  0  0  0  0
 20 21  2  0  0  0  0
 20 46  1  0  0  0  0
M  END
> <s_m_source_file>
AV-unprocessed.smi

> <i_m_source_file_index>
772

> <i_lp_mmshare_version>
43012

> <i_f3d_flags>
0

> <s_epik_input>
W0NIM11jMVtjSF1bY0hdYyhbY0hdbjEpW0NIMl1bQ0gyXVtOSF1DKD1PKU4yW0NIMl1bQ0gyXVNbQ0BIXShbQ0gyXTIpW0NIXShbQ0gzXSlbQ0gzXQ==

> <s_epik_cmdline>
J2VwaWtfcHl0aG9uJywgJy1waCcsICc3LjAnLCAnLXRuJywgJzgnLCAnLW1hJywgJzIwMCcsICctbWV0YWxfYmluZGluZycsICctaW1hZScsICc8aW5maWxlLm1hZT4nLCAnLW9tYWUnLCAnPG91dGZpbGUubWFlPic=

> <r_epik_Ionization_Penalty>
0.0566916

> <r_epik_Ionization_Penalty_Charging>
0

> <r_epik_Ionization_Penalty_Neutral>
0.0566916

> <r_epik_State_Penalty>
0.0488669

> <r_epik_Charging_Adjusted_Penalty>
0.0488669

> <i_epik_Tot_Q>
0

> <i_epik_Tot_abs_Q>
0

> <r_epik_Metal_State_Penalty>
0.0445784

> <b_epik_Metal_Only>
0

> <s_lp_Force_Field>
OPLS_2005

> <r_lp_Energy>
25.5588

> <b_lp_Chiralities_Consistent>
1

> <s_lp_Variant>
AV-unprocessed.smi:772-2

> <Gold.Version>
5.8.1

> <Gold.Id.Protein>
6NUR|6NUR_protein|mol2

> <Gold.PLP.Fitness>
49.3022

> <Gold.PLP.PLP>
-47.5327

> <Gold.PLP.part.hbond>
-1.0000

> <Gold.PLP.part.metal>
0.0000

> <Gold.PLP.part.buried>
-0.8817

> <Gold.PLP.part.nonpolar>
-44.9633

> <Gold.PLP.part.repulsive>
0.1951

> <Gold.PLP.ligand.clash>
0.0000

> <Gold.PLP.ligand.torsion>
0.5510

> <Gold.PLP.Chemscore.Hbond>
0.9280

> <Gold.PLP.Chemscore.CHOScore>
0.0000

> <Gold.PLP.Chemscore.Metal>
0.0000

> <Gold.Chemscore.Hbonds>
donor molecule, donor type, donor heavy atom, donor atom, acceptor molecule, acceptor atom, score
      L1  H     8    31       P1  8028  0.83

> <Gold.PLP.Chemscore.Internal.Correction>
0.0875

> <Gold.Rescore>
     Score         DG    S(hbond)    S(metal)    S(lipo)     H(rot)  DE(clash)    DE(int)     intcor
     19.73     -21.85       0.86        0.00     144.40       1.32       1.16       0.96       ----

> <Gold.Chemscore.Fitness>
19.7346

> <Gold.Chemscore.DG>
-21.8500

> <Gold.Chemscore.ZeroCoef>
-5.4800

> <Gold.Chemscore.Hbond>
0.8572

> <Gold.Chemscore.Metal>
0.0000

> <Gold.Chemscore.Lipo>
144.3969

> <Gold.Chemscore.Internal_Hbond>
0.0000

> <Gold.Chemscore.DEClash>
1.1566

> <Gold.Chemscore.DEInternal>
0.9588

> <Gold.Chemscore.Rot>
1.3233

> <Gold.Chemscore.Internal.Correction>
   9.000000E+99

> <Gold.Chemscore.Hbonds>
donor molecule, donor type, donor heavy atom, donor atom, acceptor molecule, acceptor atom, score
      L1  H     8    31       P1  8028  0.78

> <Gold.Chemscore.Hbond.Weighted>
-2.8632

> <Gold.Chemscore.Metal.Weighted>
-0.0000

> <Gold.Chemscore.Lipo.Weighted>
-16.8944

> <Gold.Chemscore.Internal_Hbond.Weighted>
0.0000

> <Gold.Chemscore.DEClash.Weighted>
1.1566

> <Gold.Chemscore.DEInternal.Weighted>
0.9588

> <Gold.Chemscore.Rot.Weighted>
3.3876

> <Gold.Chemscore.Internal.Correction.Weighted>
   9.000000E+99

> <Gold.Protein.RotatedTorsions>
[ 6907 6896 6895 6894 ] final   -4.35 input  -60.11 | X-H torsion
[ 7974 7965 7964 7962 ] final  -55.33 input  175.53 | X-H torsion
[ 8008 7997 7996 7995 ] final  -27.98 input   59.86 | X-H torsion
[ 10167 10162 10161 10158 ] final  129.74 input  -65.29 | X-H torsion
[ 10718 10713 10712 10709 ] final -129.61 input   66.30 | X-H torsion
[ 10763 10752 10751 10750 ] final  -52.22 input  -60.55 | X-H torsion
[ 11005 11000 10999 10996 ] final   30.21 input  -57.11 | X-H torsion

> <Gold.Protein.ActiveResidues>
 VAL166  LYS551  ARG553  GLY616  TRP617  ASP618  TYR619  PRO620  LYS621  CYS622 
 ASP623  PHE694  ASN695  SER759  ASP760  ASP761  ALA762  ILE779  LEU786  VAL792 
 PHE793  MET794  SER795  GLU796  ALA797  LYS798  CYS799  TRP800  GLU811  SER814 

> <Gold.Protein.RotatedAtoms>
  151.4990  135.1061  159.9823 H   0  0  0  0  0  0  0  0  0  0  0  0  # atno 6907 bound_to 6896
  152.4709  133.8024  159.6971 H   0  0  0  0  0  0  0  0  0  0  0  0  # atno 6908 bound_to 6896
  150.8718  133.7431  159.2985 H   0  0  0  0  0  0  0  0  0  0  0  0  # atno 6909 bound_to 6896
  145.8754  140.8185  142.9867 H   0  0  0  0  0  0  0  0  0  0  0  0  # atno 7974 bound_to 7965
  154.4352  140.1857  156.1018 H   0  0  0  0  0  0  0  0  0  0  0  0  # atno 8008 bound_to 7997
  156.0286  140.3333  155.7090 H   0  0  0  0  0  0  0  0  0  0  0  0  # atno 8009 bound_to 7997
  155.5872  140.0627  157.2759 H   0  0  0  0  0  0  0  0  0  0  0  0  # atno 8010 bound_to 7997
  139.5463  144.6776  151.4463 H   0  0  0  0  0  0  0  0  0  0  0  0  # atno 10167 bound_to 10162
  156.2063  130.6890  151.0598 H   0  0  0  0  0  0  0  0  0  0  0  0  # atno 10718 bound_to 10713
  154.1393  135.6508  153.4938 H   0  0  0  0  0  0  0  0  0  0  0  0  # atno 10763 bound_to 10752
  153.0171  135.5311  154.6921 H   0  0  0  0  0  0  0  0  0  0  0  0  # atno 10764 bound_to 10752
  154.6178  135.2961  155.0331 H   0  0  0  0  0  0  0  0  0  0  0  0  # atno 10765 bound_to 10752
  140.2968  134.2802  155.7763 H   0  0  0  0  0  0  0  0  0  0  0  0  # atno 11005 bound_to 11000
  144.6726  140.1302  143.7444 LP  0  0  0  0  0  0  0  0  0  0  0  0  # atno 17320 bound_to 7965
  145.9087  139.2474  143.1450 LP  0  0  0  0  0  0  0  0  0  0  0  0  # atno 17321 bound_to 7965
  140.6712  143.8289  150.7002 LP  0  0  0  0  0  0  0  0  0  0  0  0  # atno 17342 bound_to 10162
  140.1714  143.4191  152.1998 LP  0  0  0  0  0  0  0  0  0  0  0  0  # atno 17343 bound_to 10162
  157.7014  131.0774  150.6808 LP  0  0  0  0  0  0  0  0  0  0  0  0  # atno 17370 bound_to 10713
  156.6867  130.4583  149.5612 LP  0  0  0  0  0  0  0  0  0  0  0  0  # atno 17371 bound_to 10713
  141.2136  133.7620  156.9707 LP  0  0  0  0  0  0  0  0  0  0  0  0  # atno 17394 bound_to 11000
  140.1145  134.9456  157.2114 LP  0  0  0  0  0  0  0  0  0  0  0  0  # atno 17395 bound_to 11000

$$$$
