AV-unprocessed.smi:3274|AV-procd|sdf|12527|dock5
  -GOLD-   2272018443D 1   1.00000     0.00000
 Structure written by MMmdl.
 43 44  0  0  0  0  0  0  0  0  2 V2000
  151.2330  145.1274  158.3120 C   0  0  0  0  0  0  0  0  0  0  0  0
  151.7129  143.8859  159.0454 C   0  0  0  0  0  0  0  0  0  0  0  0
  152.2470  143.9995  160.2766 C   0  0  0  0  0  0  0  0  0  0  0  0
  152.8188  142.8451  161.0673 C   0  0  0  0  0  0  0  0  0  0  0  0
  153.1765  141.6733  160.1497 C   0  0  0  0  0  0  0  0  0  0  0  0
  152.0126  141.3212  159.2088 C   0  0  2  0  0  0  0  0  0  0  0  0
  152.3855  140.0805  158.3731 C   0  0  0  0  0  0  0  0  0  0  0  0
  151.5812  142.5303  158.3222 C   0  0  1  0  0  0  0  0  0  0  0  0
  150.1584  142.2916  157.7531 C   0  0  0  0  0  0  0  0  0  0  0  0
  150.1539  142.0783  156.2883 N   0  3  0  0  0  0  0  0  0  0  0  0
  149.2909  140.9757  155.8037 C   0  0  1  0  0  0  0  0  0  0  0  0
  147.8392  141.4695  155.7426 C   0  0  0  0  0  0  0  0  0  0  0  0
  149.7427  140.4612  154.4179 C   0  0  0  0  0  0  0  0  0  0  0  0
  150.7384  139.4072  154.4849 N   0  0  0  0  0  0  0  0  0  0  0  0
  150.6803  138.1326  154.0949 C   0  0  0  0  0  0  0  0  0  0  0  0
  151.7975  137.4548  154.3152 N   0  0  0  0  0  0  0  0  0  0  0  0
  152.5493  138.4349  154.8991 C   0  0  0  0  0  0  0  0  0  0  0  0
  151.9595  139.6235  155.0281 N   0  0  0  0  0  0  0  0  0  0  0  0
  151.6640  145.1706  157.3116 H   0  0  0  0  0  0  0  0  0  0  0  0
  151.5267  146.0369  158.8375 H   0  0  0  0  0  0  0  0  0  0  0  0
  150.1462  145.1363  158.2317 H   0  0  0  0  0  0  0  0  0  0  0  0
  152.2983  144.9668  160.7554 H   0  0  0  0  0  0  0  0  0  0  0  0
  153.7090  143.1814  161.5995 H   0  0  0  0  0  0  0  0  0  0  0  0
  152.0904  142.5412  161.8196 H   0  0  0  0  0  0  0  0  0  0  0  0
  154.0582  141.9291  159.5599 H   0  0  0  0  0  0  0  0  0  0  0  0
  153.4519  140.8104  160.7575 H   0  0  0  0  0  0  0  0  0  0  0  0
  151.1674  141.0496  159.8436 H   0  0  0  0  0  0  0  0  0  0  0  0
  153.2148  140.2934  157.6977 H   0  0  0  0  0  0  0  0  0  0  0  0
  151.5546  139.7163  157.7710 H   0  0  0  0  0  0  0  0  0  0  0  0
  152.6921  139.2556  159.0170 H   0  0  0  0  0  0  0  0  0  0  0  0
  152.2800  142.5795  157.4854 H   0  0  0  0  0  0  0  0  0  0  0  0
  149.7031  141.4227  158.2188 H   0  0  0  0  0  0  0  0  0  0  0  0
  149.5166  143.1376  158.0026 H   0  0  0  0  0  0  0  0  0  0  0  0
  149.8110  142.9333  155.8739 H   0  0  0  0  0  0  0  0  0  0  0  0
  149.3176  140.1568  156.5245 H   0  0  0  0  0  0  0  0  0  0  0  0
  147.1654  140.6722  155.4269 H   0  0  0  0  0  0  0  0  0  0  0  0
  147.7284  142.2959  155.0392 H   0  0  0  0  0  0  0  0  0  0  0  0
  147.5000  141.8155  156.7196 H   0  0  0  0  0  0  0  0  0  0  0  0
  148.8861  140.0675  153.8691 H   0  0  0  0  0  0  0  0  0  0  0  0
  150.1422  141.2808  153.8190 H   0  0  0  0  0  0  0  0  0  0  0  0
  149.8082  137.6934  153.6331 H   0  0  0  0  0  0  0  0  0  0  0  0
  153.5612  138.2678  155.2378 H   0  0  0  0  0  0  0  0  0  0  0  0
  151.0983  141.9261  155.9643 H   0  0  0  0  0  0  0  0  0  0  0  0
  1  2  1  0  0  0  0
  1 19  1  0  0  0  0
  1 20  1  0  0  0  0
  1 21  1  0  0  0  0
  2  8  1  0  0  0  0
  2  3  2  0  0  0  0
  3  4  1  0  0  0  0
  3 22  1  0  0  0  0
  4  5  1  0  0  0  0
  4 23  1  0  0  0  0
  4 24  1  0  0  0  0
  5  6  1  0  0  0  0
  5 25  1  0  0  0  0
  5 26  1  0  0  0  0
  6  7  1  0  0  0  0
  6  8  1  0  0  0  0
  6 27  1  0  0  0  0
  7 28  1  0  0  0  0
  7 29  1  0  0  0  0
  7 30  1  0  0  0  0
  8  9  1  0  0  0  0
  8 31  1  0  0  0  0
  9 10  1  0  0  0  0
  9 32  1  0  0  0  0
  9 33  1  0  0  0  0
 10 11  1  0  0  0  0
 10 34  1  0  0  0  0
 10 43  1  0  0  0  0
 11 12  1  0  0  0  0
 11 13  1  0  0  0  0
 11 35  1  0  0  0  0
 12 36  1  0  0  0  0
 12 37  1  0  0  0  0
 12 38  1  0  0  0  0
 13 14  1  0  0  0  0
 13 39  1  0  0  0  0
 13 40  1  0  0  0  0
 14 18  1  0  0  0  0
 14 15  1  0  0  0  0
 15 16  2  0  0  0  0
 15 41  1  0  0  0  0
 16 17  1  0  0  0  0
 17 18  2  0  0  0  0
 17 42  1  0  0  0  0
M  CHG  1  10   1
M  END
> <s_m_source_file>
AV-unprocessed.smi

> <i_m_source_file_index>
3274

> <i_lp_mmshare_version>
43012

> <i_f3d_flags>
0

> <s_epik_input>
W0NIM11DMT1bQ0hdW0NIMl1bQ0gyXVtDQEBIXShbQ0gzXSlbQ0BIXTFbQ0gyXVtOSF1bQ0BIXShbQ0gzXSlbQ0gyXW4yW2NIXW5bY0hdbjI=

> <s_epik_cmdline>
J2VwaWtfcHl0aG9uJywgJy1waCcsICc3LjAnLCAnLXRuJywgJzgnLCAnLW1hJywgJzIwMCcsICctbWV0YWxfYmluZGluZycsICctaW1hZScsICc8aW5maWxlLm1hZT4nLCAnLW9tYWUnLCAnPG91dGZpbGUubWFlPic=

> <r_lp_tautomer_probability>
1

> <r_epik_Ionization_Penalty>
0.0017527

> <r_epik_Ionization_Penalty_Charging>
0.00175191

> <r_epik_Ionization_Penalty_Neutral>
7.94565e-07

> <r_epik_State_Penalty>
0.00118605

> <r_epik_Charging_Adjusted_Penalty>
0.00293796

> <i_epik_Tot_Q>
1

> <i_epik_Tot_abs_Q>
1

> <r_epik_Metal_State_Penalty>
-0

> <b_epik_Metal_Only>
0

> <s_lp_Force_Field>
OPLS_2005

> <r_lp_Energy>
18.4066

> <b_lp_Chiralities_Consistent>
1

> <s_lp_Variant>
AV-unprocessed.smi:3274-6

> <Gold.Version>
5.8.1

> <Gold.Id.Protein>
6NUR|6NUR_protein|mol2

> <Gold.PLP.Fitness>
51.1919

> <Gold.PLP.PLP>
-42.9999

> <Gold.PLP.part.hbond>
-3.0000

> <Gold.PLP.part.metal>
0.0000

> <Gold.PLP.part.buried>
-3.5218

> <Gold.PLP.part.nonpolar>
-36.5242

> <Gold.PLP.part.repulsive>
0.2787

> <Gold.PLP.ligand.clash>
0.0000

> <Gold.PLP.ligand.torsion>
1.6210

> <Gold.PLP.Chemscore.Hbond>
2.7930

> <Gold.PLP.Chemscore.CHOScore>
1.0000

> <Gold.PLP.Chemscore.Metal>
0.0000

> <Gold.Chemscore.Hbonds>
donor molecule, donor type, donor heavy atom, donor atom, acceptor molecule, acceptor atom, score
      L1  H    10    34       P1  8028  2.00
      P1  H 10752 10763       L1    16  0.76
      L1  C    15    41       P1  7948  1.00

> <Gold.PLP.Chemscore.Internal.Correction>
0.0550

> <Gold.Rescore>
     Score         DG    S(hbond)    S(metal)    S(lipo)     H(rot)  DE(clash)    DE(int)     intcor
     15.44     -17.24       1.71        0.00     103.26       2.36       0.13       1.67       ----

> <Gold.Chemscore.Fitness>
15.4382

> <Gold.Chemscore.DG>
-17.2371

> <Gold.Chemscore.ZeroCoef>
-5.4800

> <Gold.Chemscore.Hbond>
1.7130

> <Gold.Chemscore.Metal>
0.0000

> <Gold.Chemscore.Lipo>
103.2559

> <Gold.Chemscore.Internal_Hbond>
0.0000

> <Gold.Chemscore.DEClash>
0.1301

> <Gold.Chemscore.DEInternal>
1.6688

> <Gold.Chemscore.Rot>
2.3615

> <Gold.Chemscore.Internal.Correction>
   9.000000E+99

> <Gold.Chemscore.Hbonds>
donor molecule, donor type, donor heavy atom, donor atom, acceptor molecule, acceptor atom, score
      L1  H    10    34       P1  8028  0.94
      P1  H 10752 10763       L1    16  0.47

> <Gold.Chemscore.Hbond.Weighted>
-5.7215

> <Gold.Chemscore.Metal.Weighted>
-0.0000

> <Gold.Chemscore.Lipo.Weighted>
-12.0809

> <Gold.Chemscore.Internal_Hbond.Weighted>
0.0000

> <Gold.Chemscore.DEClash.Weighted>
0.1301

> <Gold.Chemscore.DEInternal.Weighted>
1.6688

> <Gold.Chemscore.Rot.Weighted>
6.0454

> <Gold.Chemscore.Internal.Correction.Weighted>
   9.000000E+99

> <Gold.Protein.RotatedTorsions>
[ 6907 6896 6895 6894 ] final   23.01 input  -60.11 | X-H torsion
[ 7974 7965 7964 7962 ] final   16.55 input  175.53 | X-H torsion
[ 8008 7997 7996 7995 ] final  145.76 input   59.86 | X-H torsion
[ 10167 10162 10161 10158 ] final  165.15 input  -65.29 | X-H torsion
[ 10718 10713 10712 10709 ] final -168.04 input   66.30 | X-H torsion
[ 10763 10752 10751 10750 ] final   38.05 input  -60.55 | X-H torsion
[ 11005 11000 10999 10996 ] final  -59.41 input  -57.11 | X-H torsion

> <Gold.Protein.ActiveResidues>
 VAL166  LYS551  ARG553  GLY616  TRP617  ASP618  TYR619  PRO620  LYS621  CYS622 
 ASP623  PHE694  ASN695  SER759  ASP760  ASP761  ALA762  ILE779  LEU786  VAL792 
 PHE793  MET794  SER795  GLU796  ALA797  LYS798  CYS799  TRP800  GLU811  SER814 

> <Gold.Protein.RotatedAtoms>
  151.9358  135.0236  160.0532 H   0  0  0  0  0  0  0  0  0  0  0  0  # atno 6907 bound_to 6896
  152.2079  133.4884  159.5102 H   0  0  0  0  0  0  0  0  0  0  0  0  # atno 6908 bound_to 6896
  150.6969  134.1422  159.4152 H   0  0  0  0  0  0  0  0  0  0  0  0  # atno 6909 bound_to 6896
  146.2246  139.8731  142.8584 H   0  0  0  0  0  0  0  0  0  0  0  0  # atno 7974 bound_to 7965
  156.2874  140.2200  156.5268 H   0  0  0  0  0  0  0  0  0  0  0  0  # atno 8008 bound_to 7997
  154.7483  140.0482  157.0893 H   0  0  0  0  0  0  0  0  0  0  0  0  # atno 8009 bound_to 7997
  155.0143  140.3116  155.4821 H   0  0  0  0  0  0  0  0  0  0  0  0  # atno 8010 bound_to 7997
  139.4901  144.4162  151.9241 H   0  0  0  0  0  0  0  0  0  0  0  0  # atno 10167 bound_to 10162
  156.6912  130.9160  151.3069 H   0  0  0  0  0  0  0  0  0  0  0  0  # atno 10718 bound_to 10713
  153.0015  135.6260  154.2242 H   0  0  0  0  0  0  0  0  0  0  0  0  # atno 10763 bound_to 10752
  154.1985  135.2805  155.3000 H   0  0  0  0  0  0  0  0  0  0  0  0  # atno 10764 bound_to 10752
  154.5703  135.5678  153.7148 H   0  0  0  0  0  0  0  0  0  0  0  0  # atno 10765 bound_to 10752
  141.1247  133.6616  156.5067 H   0  0  0  0  0  0  0  0  0  0  0  0  # atno 11005 bound_to 11000
  145.2587  141.0069  143.3839 LP  0  0  0  0  0  0  0  0  0  0  0  0  # atno 17320 bound_to 7965
  144.9315  139.4292  143.6492 LP  0  0  0  0  0  0  0  0  0  0  0  0  # atno 17321 bound_to 7965
  140.3604  144.2979  150.5934 LP  0  0  0  0  0  0  0  0  0  0  0  0  # atno 17342 bound_to 10162
  140.5407  143.2224  151.8089 LP  0  0  0  0  0  0  0  0  0  0  0  0  # atno 17343 bound_to 10162
  157.7008  130.9331  150.0780 LP  0  0  0  0  0  0  0  0  0  0  0  0  # atno 17370 bound_to 10713
  156.1796  130.3649  149.9053 LP  0  0  0  0  0  0  0  0  0  0  0  0  # atno 17371 bound_to 10713
  140.4402  134.7023  157.4987 LP  0  0  0  0  0  0  0  0  0  0  0  0  # atno 17394 bound_to 11000
  140.0234  134.6512  155.9206 LP  0  0  0  0  0  0  0  0  0  0  0  0  # atno 17395 bound_to 11000

$$$$
