AV-unprocessed.smi:2926|AV-procd|sdf|11226|dock9
  -GOLD-   2272016113D 1   1.00000     0.00000
 Structure written by MMmdl.
 32 32  0  0  0  0  0  0  0  0  1 V2000
  145.4690  140.1859  155.3052 C   0  0  0  0  0  0  0  0  0  0  0  0
  146.8758  140.6095  154.8374 C   0  0  0  0  0  0  0  0  0  0  0  0
  146.7840  142.0139  154.2107 C   0  0  0  0  0  0  0  0  0  0  0  0
  147.5088  139.5603  153.8809 C   0  0  1  0  0  0  0  0  0  0  0  0
  146.7975  139.4414  152.5152 C   0  0  0  0  0  0  0  0  0  0  0  0
  147.4714  138.5137  151.6910 O   0  0  0  0  0  0  0  0  0  0  0  0
  148.9067  139.9318  153.6256 N   0  0  0  0  0  0  0  0  0  0  0  0
  150.1228  139.4169  154.7372 S   0  0  0  0  0  0  0  0  0  0  0  0
  149.5012  138.4758  155.6819 O   0  0  0  0  0  0  0  0  0  0  0  0
  151.2963  139.0033  153.9528 O   0  0  0  0  0  0  0  0  0  0  0  0
  150.5179  140.9735  155.6399 C   0  0  0  0  0  0  0  0  0  0  0  0
  151.4241  140.6704  156.7996 C   0  0  0  0  0  0  0  0  0  0  0  0
  151.2972  141.0850  158.1546 C   0  0  0  0  0  0  0  0  0  0  0  0
  152.3842  140.5261  158.7623 C   0  0  0  0  0  0  0  0  0  0  0  0
  153.1198  139.8215  157.8658 O   0  0  0  0  0  0  0  0  0  0  0  0
  152.4977  139.9180  156.6159 N   0  0  0  0  0  0  0  0  0  0  0  0
  147.4758  138.5898  154.3789 H   0  0  0  0  0  0  0  0  0  0  0  0
  144.7943  140.0540  154.4587 H   0  0  0  0  0  0  0  0  0  0  0  0
  145.0302  140.9357  155.9641 H   0  0  0  0  0  0  0  0  0  0  0  0
  145.4884  139.2495  155.8633 H   0  0  0  0  0  0  0  0  0  0  0  0
  147.5059  140.6881  155.7246 H   0  0  0  0  0  0  0  0  0  0  0  0
  146.2569  141.9877  153.2564 H   0  0  0  0  0  0  0  0  0  0  0  0
  147.7650  142.4562  154.0437 H   0  0  0  0  0  0  0  0  0  0  0  0
  146.2457  142.7003  154.8650 H   0  0  0  0  0  0  0  0  0  0  0  0
  145.7823  139.0647  152.6217 H   0  0  0  0  0  0  0  0  0  0  0  0
  146.7280  140.4078  152.0142 H   0  0  0  0  0  0  0  0  0  0  0  0
  147.7948  137.8094  152.2314 H   0  0  0  0  0  0  0  0  0  0  0  0
  149.1711  139.7088  152.6663 H   0  0  0  0  0  0  0  0  0  0  0  0
  150.9901  141.6667  154.9445 H   0  0  0  0  0  0  0  0  0  0  0  0
  149.5805  141.4207  155.9724 H   0  0  0  0  0  0  0  0  0  0  0  0
  150.5326  141.6994  158.6068 H   0  0  0  0  0  0  0  0  0  0  0  0
  152.7546  140.5367  159.7766 H   0  0  0  0  0  0  0  0  0  0  0  0
  1  2  1  0  0  0  0
  1 18  1  0  0  0  0
  1 19  1  0  0  0  0
  1 20  1  0  0  0  0
  2  3  1  0  0  0  0
  2  4  1  0  0  0  0
  2 21  1  0  0  0  0
  3 22  1  0  0  0  0
  3 23  1  0  0  0  0
  3 24  1  0  0  0  0
  4 17  1  0  0  0  0
  4  5  1  0  0  0  0
  4  7  1  0  0  0  0
  5  6  1  0  0  0  0
  5 25  1  0  0  0  0
  5 26  1  0  0  0  0
  6 27  1  0  0  0  0
  7  8  1  0  0  0  0
  7 28  1  0  0  0  0
  8  9  2  0  0  0  0
  8 10  2  0  0  0  0
  8 11  1  0  0  0  0
 11 12  1  0  0  0  0
 11 29  1  0  0  0  0
 11 30  1  0  0  0  0
 12 16  2  0  0  0  0
 12 13  1  0  0  0  0
 13 14  2  0  0  0  0
 13 31  1  0  0  0  0
 14 15  1  0  0  0  0
 14 32  1  0  0  0  0
 15 16  1  0  0  0  0
M  END
> <s_m_source_file>
AV-unprocessed.smi

> <i_m_source_file_index>
2926

> <i_lp_mmshare_version>
43012

> <i_f3d_flags>
0

> <s_epik_input>
W0NIM11bQ0hdKFtDSDNdKVtDQEBIXShbQ0gyXVtPSF0pW05IXVMoPU8pKD1PKVtDSDJdYzFbY0hdW2NIXW9uMQ==

> <s_epik_cmdline>
J2VwaWtfcHl0aG9uJywgJy1waCcsICc3LjAnLCAnLXRuJywgJzgnLCAnLW1hJywgJzIwMCcsICctbWV0YWxfYmluZGluZycsICctaW1hZScsICc8aW5maWxlLm1hZT4nLCAnLW9tYWUnLCAnPG91dGZpbGUubWFlPic=

> <r_lp_tautomer_probability>
1

> <r_epik_Ionization_Penalty>
0.000193122

> <r_epik_Ionization_Penalty_Charging>
0

> <r_epik_Ionization_Penalty_Neutral>
0.000193122

> <r_epik_State_Penalty>
-0

> <r_epik_Charging_Adjusted_Penalty>
0

> <i_epik_Tot_Q>
0

> <i_epik_Tot_abs_Q>
0

> <r_epik_Metal_State_Penalty>
0.130256

> <b_epik_Metal_Only>
0

> <s_lp_Force_Field>
OPLS_2005

> <r_lp_Energy>
6.6882

> <b_lp_Chiralities_Consistent>
1

> <s_lp_Variant>
AV-unprocessed.smi:2926-1

> <Gold.Version>
5.8.1

> <Gold.Id.Protein>
6NUR|6NUR_protein|mol2

> <Gold.PLP.Fitness>
36.0220

> <Gold.PLP.PLP>
-26.4502

> <Gold.PLP.part.hbond>
-7.0000

> <Gold.PLP.part.metal>
0.0000

> <Gold.PLP.part.buried>
-0.3647

> <Gold.PLP.part.nonpolar>
-18.5483

> <Gold.PLP.part.repulsive>
0.2417

> <Gold.PLP.ligand.clash>
0.0000

> <Gold.PLP.ligand.torsion>
0.8789

> <Gold.PLP.Chemscore.Hbond>
3.7096

> <Gold.PLP.Chemscore.CHOScore>
0.0000

> <Gold.PLP.Chemscore.Metal>
0.0000

> <Gold.Chemscore.Hbonds>
donor molecule, donor type, donor heavy atom, donor atom, acceptor molecule, acceptor atom, score
      L1  H     6    27       P1  7948  0.64
      L1  H     7    28       P1  7957  1.00
      P1  H  7954  7966       L1     6  0.95
      P1  H  7989  7998       L1    10  0.55
      P1  H  7997  8010       L1    15  0.56

> <Gold.PLP.Chemscore.Internal.Correction>
0.2007

> <Gold.Rescore>
     Score         DG    S(hbond)    S(metal)    S(lipo)     H(rot)  DE(clash)    DE(int)     intcor
      9.23     -11.51       2.33        0.00      49.58       2.96       1.43       0.85       ----

> <Gold.Chemscore.Fitness>
9.2340

> <Gold.Chemscore.DG>
-11.5116

> <Gold.Chemscore.ZeroCoef>
-5.4800

> <Gold.Chemscore.Hbond>
2.3350

> <Gold.Chemscore.Metal>
0.0000

> <Gold.Chemscore.Lipo>
49.5839

> <Gold.Chemscore.Internal_Hbond>
0.0000

> <Gold.Chemscore.DEClash>
1.4255

> <Gold.Chemscore.DEInternal>
0.8521

> <Gold.Chemscore.Rot>
2.9564

> <Gold.Chemscore.Internal.Correction>
   9.000000E+99

> <Gold.Chemscore.Hbonds>
donor molecule, donor type, donor heavy atom, donor atom, acceptor molecule, acceptor atom, score
      L1  H     6    27       P1  7948  0.63
      L1  H     7    28       P1  7957  0.97
      P1  H  7954  7966       L1     6  0.20
      P1  H  7989  7998       L1    10  0.03
      P1  H  7997  8010       L1    15  0.08

> <Gold.Chemscore.Hbond.Weighted>
-7.7988

> <Gold.Chemscore.Metal.Weighted>
-0.0000

> <Gold.Chemscore.Lipo.Weighted>
-5.8013

> <Gold.Chemscore.Internal_Hbond.Weighted>
0.0000

> <Gold.Chemscore.DEClash.Weighted>
1.4255

> <Gold.Chemscore.DEInternal.Weighted>
0.8521

> <Gold.Chemscore.Rot.Weighted>
7.5685

> <Gold.Chemscore.Internal.Correction.Weighted>
   9.000000E+99

> <Gold.Protein.RotatedTorsions>
[ 6907 6896 6895 6894 ] final   92.70 input  -60.11 | X-H torsion
[ 7974 7965 7964 7962 ] final -128.58 input  175.53 | X-H torsion
[ 8008 7997 7996 7995 ] final   13.62 input   59.86 | X-H torsion
[ 10167 10162 10161 10158 ] final -153.83 input  -65.29 | X-H torsion
[ 10718 10713 10712 10709 ] final  -77.82 input   66.30 | X-H torsion
[ 10763 10752 10751 10750 ] final  -86.63 input  -60.55 | X-H torsion
[ 11005 11000 10999 10996 ] final  138.34 input  -57.11 | X-H torsion

> <Gold.Protein.ActiveResidues>
 VAL166  LYS551  ARG553  GLY616  TRP617  ASP618  TYR619  PRO620  LYS621  CYS622 
 ASP623  PHE694  ASN695  SER759  ASP760  ASP761  ALA762  ILE779  LEU786  VAL792 
 PHE793  MET794  SER795  GLU796  ALA797  LYS798  CYS799  TRP800  GLU811  SER814 

> <Gold.Protein.RotatedAtoms>
  152.5453  134.1462  159.8499 H   0  0  0  0  0  0  0  0  0  0  0  0  # atno 6907 bound_to 6896
  151.1493  133.4911  159.2603 H   0  0  0  0  0  0  0  0  0  0  0  0  # atno 6908 bound_to 6896
  151.1489  135.0228  159.8714 H   0  0  0  0  0  0  0  0  0  0  0  0  # atno 6909 bound_to 6896
  144.9657  140.7493  143.4702 H   0  0  0  0  0  0  0  0  0  0  0  0  # atno 7974 bound_to 7965
  154.8371  140.2908  155.5684 H   0  0  0  0  0  0  0  0  0  0  0  0  # atno 8008 bound_to 7997
  156.3009  140.2521  156.3238 H   0  0  0  0  0  0  0  0  0  0  0  0  # atno 8009 bound_to 7997
  154.9167  140.0387  157.1965 H   0  0  0  0  0  0  0  0  0  0  0  0  # atno 8010 bound_to 7997
  139.7064  143.9180  152.2450 H   0  0  0  0  0  0  0  0  0  0  0  0  # atno 10167 bound_to 10162
  156.0134  130.4501  150.3403 H   0  0  0  0  0  0  0  0  0  0  0  0  # atno 10718 bound_to 10713
  154.6246  135.5442  153.7613 H   0  0  0  0  0  0  0  0  0  0  0  0  # atno 10763 bound_to 10752
  153.0254  135.6421  154.1391 H   0  0  0  0  0  0  0  0  0  0  0  0  # atno 10764 bound_to 10752
  154.1323  135.2913  155.3162 H   0  0  0  0  0  0  0  0  0  0  0  0  # atno 10765 bound_to 10752
  140.0177  134.9411  157.0409 H   0  0  0  0  0  0  0  0  0  0  0  0  # atno 11005 bound_to 11000
  145.2634  139.1983  143.4880 LP  0  0  0  0  0  0  0  0  0  0  0  0  # atno 17320 bound_to 7965
  146.3367  140.2568  142.8600 LP  0  0  0  0  0  0  0  0  0  0  0  0  # atno 17321 bound_to 7965
  139.9037  144.6897  150.8638 LP  0  0  0  0  0  0  0  0  0  0  0  0  # atno 17342 bound_to 10162
  140.7722  143.3495  151.2043 LP  0  0  0  0  0  0  0  0  0  0  0  0  # atno 17343 bound_to 10162
  157.1499  131.0318  151.2890 LP  0  0  0  0  0  0  0  0  0  0  0  0  # atno 17370 bound_to 10713
  157.4401  130.7539  149.7062 LP  0  0  0  0  0  0  0  0  0  0  0  0  # atno 17371 bound_to 10713
  140.4442  134.1649  155.7176 LP  0  0  0  0  0  0  0  0  0  0  0  0  # atno 17394 bound_to 11000
  141.1753  133.8526  157.1440 LP  0  0  0  0  0  0  0  0  0  0  0  0  # atno 17395 bound_to 11000

$$$$
