AV-unprocessed.smi:1019|AV-procd|sdf|4443|dock8
  -GOLD-   22720 2403D 1   1.00000     0.00000
 Structure written by MMmdl.
 44 46  0  0  0  0  0  0  0  0  2 V2000
  145.9763  135.3646  153.8873 C   0  0  0  0  0  0  0  0  0  0  0  0
  146.0787  136.4183  152.8502 N   0  3  1  0  0  0  0  0  0  0  0  0
  145.1821  136.1721  151.6913 C   0  0  0  0  0  0  0  0  0  0  0  0
  145.1085  134.6975  151.3374 C   0  0  0  0  0  0  0  0  0  0  0  0
  146.2712  134.0156  150.9204 C   0  0  0  0  0  0  0  0  0  0  0  0
  146.2100  132.6465  150.5954 C   0  0  0  0  0  0  0  0  0  0  0  0
  144.9864  131.9550  150.6842 C   0  0  0  0  0  0  0  0  0  0  0  0
  143.8232  132.6332  151.0969 C   0  0  0  0  0  0  0  0  0  0  0  0
  143.8831  134.0023  151.4220 C   0  0  0  0  0  0  0  0  0  0  0  0
  145.9300  137.7813  153.4215 C   0  0  0  0  0  0  0  0  0  0  0  0
  147.2641  138.5533  153.4376 C   0  0  2  0  0  0  0  0  0  0  0  0
  147.6934  138.7450  152.1028 O   0  0  0  0  0  0  0  0  0  0  0  0
  148.3537  137.8000  154.2247 C   0  0  0  0  0  0  0  0  0  0  0  0
  149.4367  138.6711  154.6455 N   0  0  0  0  0  0  0  0  0  0  0  0
  150.6908  138.6974  154.1548 C   0  0  0  0  0  0  0  0  0  0  0  0
  151.5362  139.5744  154.6878 N   0  0  0  0  0  0  0  0  0  0  0  0
  150.7374  140.1928  155.6341 C   0  0  0  0  0  0  0  0  0  0  0  0
  151.0348  141.2268  156.5504 C   0  0  0  0  0  0  0  0  0  0  0  0
  150.0449  141.7049  157.4341 C   0  0  0  0  0  0  0  0  0  0  0  0
  148.7456  141.1578  157.4160 C   0  0  0  0  0  0  0  0  0  0  0  0
  148.4254  140.1261  156.5127 C   0  0  0  0  0  0  0  0  0  0  0  0
  149.4160  139.6517  155.6323 C   0  0  0  0  0  0  0  0  0  0  0  0
  144.9794  135.3469  154.3294 H   0  0  0  0  0  0  0  0  0  0  0  0
  146.7010  135.5354  154.6841 H   0  0  0  0  0  0  0  0  0  0  0  0
  146.1847  134.3786  153.4725 H   0  0  0  0  0  0  0  0  0  0  0  0
  144.1855  136.5654  151.8985 H   0  0  0  0  0  0  0  0  0  0  0  0
  145.5389  136.7022  150.8088 H   0  0  0  0  0  0  0  0  0  0  0  0
  147.2133  134.5401  150.8512 H   0  0  0  0  0  0  0  0  0  0  0  0
  147.1018  132.1261  150.2779 H   0  0  0  0  0  0  0  0  0  0  0  0
  144.9399  130.9049  150.4353 H   0  0  0  0  0  0  0  0  0  0  0  0
  142.8847  132.1026  151.1641 H   0  0  0  0  0  0  0  0  0  0  0  0
  142.9866  134.5145  151.7394 H   0  0  0  0  0  0  0  0  0  0  0  0
  145.1734  138.3272  152.8554 H   0  0  0  0  0  0  0  0  0  0  0  0
  145.5551  137.7208  154.4448 H   0  0  0  0  0  0  0  0  0  0  0  0
  147.1278  139.5362  153.8888 H   0  0  0  0  0  0  0  0  0  0  0  0
  148.2343  138.0126  151.8484 H   0  0  0  0  0  0  0  0  0  0  0  0
  147.9239  137.3385  155.1147 H   0  0  0  0  0  0  0  0  0  0  0  0
  148.7689  136.9889  153.6250 H   0  0  0  0  0  0  0  0  0  0  0  0
  151.0020  138.0313  153.3631 H   0  0  0  0  0  0  0  0  0  0  0  0
  152.0267  141.6535  156.5736 H   0  0  0  0  0  0  0  0  0  0  0  0
  150.2839  142.4961  158.1296 H   0  0  0  0  0  0  0  0  0  0  0  0
  147.9944  141.5316  158.0964 H   0  0  0  0  0  0  0  0  0  0  0  0
  147.4309  139.7063  156.4983 H   0  0  0  0  0  0  0  0  0  0  0  0
  147.0249  136.3742  152.4979 H   0  0  0  0  0  0  0  0  0  0  0  0
  1  2  1  0  0  0  0
  1 23  1  0  0  0  0
  1 24  1  0  0  0  0
  1 25  1  0  0  0  0
  2  3  1  0  0  0  0
  2 10  1  0  0  0  0
  2 44  1  0  0  0  0
  3  4  1  0  0  0  0
  3 26  1  0  0  0  0
  3 27  1  0  0  0  0
  4  9  1  0  0  0  0
  4  5  2  0  0  0  0
  5  6  1  0  0  0  0
  5 28  1  0  0  0  0
  6  7  2  0  0  0  0
  6 29  1  0  0  0  0
  7  8  1  0  0  0  0
  7 30  1  0  0  0  0
  8  9  2  0  0  0  0
  8 31  1  0  0  0  0
  9 32  1  0  0  0  0
 10 11  1  0  0  0  0
 10 33  1  0  0  0  0
 10 34  1  0  0  0  0
 11 12  1  0  0  0  0
 11 13  1  0  0  0  0
 11 35  1  0  0  0  0
 12 36  1  0  0  0  0
 13 14  1  0  0  0  0
 13 37  1  0  0  0  0
 13 38  1  0  0  0  0
 14 22  1  0  0  0  0
 14 15  1  0  0  0  0
 15 16  2  0  0  0  0
 15 39  1  0  0  0  0
 16 17  1  0  0  0  0
 17 22  2  0  0  0  0
 17 18  1  0  0  0  0
 18 19  2  0  0  0  0
 18 40  1  0  0  0  0
 19 20  1  0  0  0  0
 19 41  1  0  0  0  0
 20 21  2  0  0  0  0
 20 42  1  0  0  0  0
 21 22  1  0  0  0  0
 21 43  1  0  0  0  0
M  CHG  1   2   1
M  END
> <s_m_source_file>
AV-unprocessed.smi

> <i_m_source_file_index>
1019

> <i_lp_mmshare_version>
43012

> <i_f3d_flags>
0

> <s_epik_input>
W2NIXTFbY0hdW2NIXVtjSF1bY0hdYzFbQ0gyXU4oW0NIM10pW0NIMl1bQ0BIXShbT0hdKVtDSDJdbihbY0hdbjIpYyhjMjMpW2NIXVtjSF1bY0hdW2NIXTM=

> <s_epik_cmdline>
J2VwaWtfcHl0aG9uJywgJy1waCcsICc3LjAnLCAnLXRuJywgJzgnLCAnLW1hJywgJzIwMCcsICctbWV0YWxfYmluZGluZycsICctaW1hZScsICc8aW5maWxlLm1hZT4nLCAnLW9tYWUnLCAnPG91dGZpbGUubWFlPic=

> <r_epik_Ionization_Penalty>
0.0996557

> <r_epik_Ionization_Penalty_Charging>
0.0475377

> <r_epik_Ionization_Penalty_Neutral>
0.0521179

> <r_epik_State_Penalty>
0.0851777

> <r_epik_Charging_Adjusted_Penalty>
0.132715

> <i_epik_Tot_Q>
1

> <i_epik_Tot_abs_Q>
1

> <r_epik_Metal_State_Penalty>
0.0423478

> <b_epik_Metal_Only>
0

> <s_lp_Force_Field>
OPLS_2005

> <r_lp_Energy>
15.2714

> <b_lp_Chiralities_Consistent>
1

> <s_lp_Variant>
AV-unprocessed.smi:1019-1

> <Gold.Version>
5.8.1

> <Gold.Id.Protein>
6NUR|6NUR_protein|mol2

> <Gold.PLP.Fitness>
49.0458

> <Gold.PLP.PLP>
-37.8027

> <Gold.PLP.part.hbond>
-3.9273

> <Gold.PLP.part.metal>
0.0000

> <Gold.PLP.part.buried>
-4.8017

> <Gold.PLP.part.nonpolar>
-29.5673

> <Gold.PLP.part.repulsive>
0.0807

> <Gold.PLP.ligand.clash>
0.0000

> <Gold.PLP.ligand.torsion>
1.1808

> <Gold.PLP.Chemscore.Hbond>
4.0000

> <Gold.PLP.Chemscore.CHOScore>
0.4509

> <Gold.PLP.Chemscore.Metal>
0.0000

> <Gold.Chemscore.Hbonds>
donor molecule, donor type, donor heavy atom, donor atom, acceptor molecule, acceptor atom, score
      L1  H     2    44       P1  7948  2.00
      L1  H    12    36       P1  7948  1.00
      P1  H  7989  7998       L1    16  1.00
      L1  C    15    39       P1  7949  0.40

> <Gold.PLP.Chemscore.Internal.Correction>
0.2520

> <Gold.Rescore>
     Score         DG    S(hbond)    S(metal)    S(lipo)     H(rot)  DE(clash)    DE(int)     intcor
     16.27     -18.01       2.34        0.00      92.04       2.36       0.60       1.14       ----

> <Gold.Chemscore.Fitness>
16.2709

> <Gold.Chemscore.DG>
-18.0141

> <Gold.Chemscore.ZeroCoef>
-5.4800

> <Gold.Chemscore.Hbond>
2.3385

> <Gold.Chemscore.Metal>
0.0000

> <Gold.Chemscore.Lipo>
92.0436

> <Gold.Chemscore.Internal_Hbond>
0.0000

> <Gold.Chemscore.DEClash>
0.5985

> <Gold.Chemscore.DEInternal>
1.1447

> <Gold.Chemscore.Rot>
2.3616

> <Gold.Chemscore.Internal.Correction>
   9.000000E+99

> <Gold.Chemscore.Hbonds>
donor molecule, donor type, donor heavy atom, donor atom, acceptor molecule, acceptor atom, score
      L1  H     2    44       P1  7948  0.93
      L1  H    12    36       P1  7948  0.99
      P1  H  7989  7998       L1    16  0.13

> <Gold.Chemscore.Hbond.Weighted>
-7.8107

> <Gold.Chemscore.Metal.Weighted>
-0.0000

> <Gold.Chemscore.Lipo.Weighted>
-10.7691

> <Gold.Chemscore.Internal_Hbond.Weighted>
0.0000

> <Gold.Chemscore.DEClash.Weighted>
0.5985

> <Gold.Chemscore.DEInternal.Weighted>
1.1447

> <Gold.Chemscore.Rot.Weighted>
6.0457

> <Gold.Chemscore.Internal.Correction.Weighted>
   9.000000E+99

> <Gold.Protein.RotatedTorsions>
[ 6907 6896 6895 6894 ] final  -54.47 input  -60.11 | X-H torsion
[ 7974 7965 7964 7962 ] final -124.68 input  175.53 | X-H torsion
[ 8008 7997 7996 7995 ] final  157.51 input   59.86 | X-H torsion
[ 10167 10162 10161 10158 ] final  -96.97 input  -65.29 | X-H torsion
[ 10718 10713 10712 10709 ] final  -73.99 input   66.30 | X-H torsion
[ 10763 10752 10751 10750 ] final   33.81 input  -60.55 | X-H torsion
[ 11005 11000 10999 10996 ] final  -52.21 input  -57.11 | X-H torsion

> <Gold.Protein.ActiveResidues>
 VAL166  LYS551  ARG553  GLY616  TRP617  ASP618  TYR619  PRO620  LYS621  CYS622 
 ASP623  PHE694  ASN695  SER759  ASP760  ASP761  ALA762  ILE779  LEU786  VAL792 
 PHE793  MET794  SER795  GLU796  ALA797  LYS798  CYS799  TRP800  GLU811  SER814 

> <Gold.Protein.RotatedAtoms>
  150.8336  134.7599  159.6873 H   0  0  0  0  0  0  0  0  0  0  0  0  # atno 6907 bound_to 6896
  152.4436  134.5537  159.9884 H   0  0  0  0  0  0  0  0  0  0  0  0  # atno 6908 bound_to 6896
  151.5692  133.3354  159.3022 H   0  0  0  0  0  0  0  0  0  0  0  0  # atno 6909 bound_to 6896
  145.0055  140.7859  143.4470 H   0  0  0  0  0  0  0  0  0  0  0  0  # atno 7974 bound_to 7965
  156.2359  140.1883  156.7119 H   0  0  0  0  0  0  0  0  0  0  0  0  # atno 8008 bound_to 7997
  154.6107  140.0622  156.9516 H   0  0  0  0  0  0  0  0  0  0  0  0  # atno 8009 bound_to 7997
  155.2022  140.3293  155.4344 H   0  0  0  0  0  0  0  0  0  0  0  0  # atno 8010 bound_to 7997
  140.2882  143.3238  152.0372 H   0  0  0  0  0  0  0  0  0  0  0  0  # atno 10167 bound_to 10162
  156.0259  130.4406  150.2825 H   0  0  0  0  0  0  0  0  0  0  0  0  # atno 10718 bound_to 10713
  153.0194  135.6377  154.1571 H   0  0  0  0  0  0  0  0  0  0  0  0  # atno 10763 bound_to 10752
  154.1307  135.2840  155.3187 H   0  0  0  0  0  0  0  0  0  0  0  0  # atno 10764 bound_to 10752
  154.6197  135.5529  153.7623 H   0  0  0  0  0  0  0  0  0  0  0  0  # atno 10765 bound_to 10752
  141.0912  133.6632  156.3991 H   0  0  0  0  0  0  0  0  0  0  0  0  # atno 11005 bound_to 11000
  145.2094  139.2212  143.5151 LP  0  0  0  0  0  0  0  0  0  0  0  0  # atno 17320 bound_to 7965
  146.3460  140.1929  142.8589 LP  0  0  0  0  0  0  0  0  0  0  0  0  # atno 17321 bound_to 7965
  139.4945  144.6543  151.6606 LP  0  0  0  0  0  0  0  0  0  0  0  0  # atno 17342 bound_to 10162
  140.5754  144.0037  150.6239 LP  0  0  0  0  0  0  0  0  0  0  0  0  # atno 17343 bound_to 10162
  157.0928  131.0174  151.3115 LP  0  0  0  0  0  0  0  0  0  0  0  0  # atno 17370 bound_to 10713
  157.4840  130.7782  149.7442 LP  0  0  0  0  0  0  0  0  0  0  0  0  # atno 17371 bound_to 10713
  140.5247  134.6270  157.5330 LP  0  0  0  0  0  0  0  0  0  0  0  0  # atno 17394 bound_to 11000
  139.9739  134.7248  155.9988 LP  0  0  0  0  0  0  0  0  0  0  0  0  # atno 17395 bound_to 11000

$$$$
