AV-unprocessed.smi:2345|AV-procd|sdf|9362|dock3
  -GOLD-   2272012583D 1   1.00000     0.00000
 Structure written by MMmdl.
 37 38  0  0  0  0  0  0  0  0  1 V2000
  149.2285  137.1581  157.9216 C   0  0  0  0  0  0  0  0  0  0  0  0
  149.2327  137.6838  156.4843 C   0  0  0  0  0  0  0  0  0  0  0  0
  148.8053  139.4460  156.4226 S   0  0  0  0  0  0  0  0  0  0  0  0
  149.1903  139.8258  154.6771 C   0  0  1  0  0  0  0  0  0  0  0  0
  148.0911  139.2673  153.7709 C   0  0  0  0  0  0  0  0  0  0  0  0
  147.0122  140.3485  153.7636 C   0  0  0  0  0  0  0  0  0  0  0  0
  147.7731  141.6756  153.8514 C   0  0  0  0  0  0  0  0  0  0  0  0
  149.1931  141.3396  154.3488 C   0  0  1  0  0  0  0  0  0  0  0  0
  149.5782  142.1954  155.4702 N   0  0  0  0  0  0  0  0  0  0  0  0
  150.5517  141.9254  156.3508 C   0  0  0  0  0  0  0  0  0  0  0  0
  151.2489  140.9122  156.3019 O   0  0  0  0  0  0  0  0  0  0  0  0
  150.6312  142.8818  157.2912 N   0  0  0  0  0  0  0  0  0  0  0  0
  151.5039  142.9579  158.4107 C   0  0  0  0  0  0  0  0  0  0  0  0
  152.2715  141.8707  158.8945 C   0  0  0  0  0  0  0  0  0  0  0  0
  153.1141  142.0808  160.0047 C   0  0  0  0  0  0  0  0  0  0  0  0
  153.2371  143.2701  160.6313 N   0  0  0  0  0  0  0  0  0  0  0  0
  152.5147  144.3077  160.1585 C   0  0  0  0  0  0  0  0  0  0  0  0
  151.6431  144.2053  159.0556 C   0  0  0  0  0  0  0  0  0  0  0  0
  150.9493  145.2885  158.6296 F   0  0  0  0  0  0  0  0  0  0  0  0
  149.4871  136.0993  157.9488 H   0  0  0  0  0  0  0  0  0  0  0  0
  148.2466  137.2742  158.3811 H   0  0  0  0  0  0  0  0  0  0  0  0
  149.9532  137.6935  158.5359 H   0  0  0  0  0  0  0  0  0  0  0  0
  150.2168  137.5333  156.0428 H   0  0  0  0  0  0  0  0  0  0  0  0
  148.5207  137.1268  155.8748 H   0  0  0  0  0  0  0  0  0  0  0  0
  150.1490  139.3677  154.4312 H   0  0  0  0  0  0  0  0  0  0  0  0
  148.4828  139.1399  152.7608 H   0  0  0  0  0  0  0  0  0  0  0  0
  147.7140  138.2981  154.0994 H   0  0  0  0  0  0  0  0  0  0  0  0
  146.3715  140.2919  152.8832 H   0  0  0  0  0  0  0  0  0  0  0  0
  146.3749  140.2334  154.6415 H   0  0  0  0  0  0  0  0  0  0  0  0
  147.8266  142.1496  152.8707 H   0  0  0  0  0  0  0  0  0  0  0  0
  147.2506  142.3686  154.5125 H   0  0  0  0  0  0  0  0  0  0  0  0
  149.8753  141.5049  153.5126 H   0  0  0  0  0  0  0  0  0  0  0  0
  149.0454  143.0438  155.5945 H   0  0  0  0  0  0  0  0  0  0  0  0
  149.9334  143.6096  157.2418 H   0  0  0  0  0  0  0  0  0  0  0  0
  152.2418  140.8945  158.4354 H   0  0  0  0  0  0  0  0  0  0  0  0
  153.7114  141.2707  160.3967 H   0  0  0  0  0  0  0  0  0  0  0  0
  152.6359  145.2491  160.6737 H   0  0  0  0  0  0  0  0  0  0  0  0
  1  2  1  0  0  0  0
  1 20  1  0  0  0  0
  1 21  1  0  0  0  0
  1 22  1  0  0  0  0
  2  3  1  0  0  0  0
  2 23  1  0  0  0  0
  2 24  1  0  0  0  0
  3  4  1  0  0  0  0
  4  8  1  0  0  0  0
  4  5  1  0  0  0  0
  4 25  1  0  0  0  0
  5  6  1  0  0  0  0
  5 26  1  0  0  0  0
  5 27  1  0  0  0  0
  6  7  1  0  0  0  0
  6 28  1  0  0  0  0
  6 29  1  0  0  0  0
  7  8  1  0  0  0  0
  7 30  1  0  0  0  0
  7 31  1  0  0  0  0
  8  9  1  0  0  0  0
  8 32  1  0  0  0  0
  9 10  1  0  0  0  0
  9 33  1  0  0  0  0
 10 11  2  0  0  0  0
 10 12  1  0  0  0  0
 12 13  1  0  0  0  0
 12 34  1  0  0  0  0
 13 18  1  0  0  0  0
 13 14  2  0  0  0  0
 14 15  1  0  0  0  0
 14 35  1  0  0  0  0
 15 16  2  0  0  0  0
 15 36  1  0  0  0  0
 16 17  1  0  0  0  0
 17 18  2  0  0  0  0
 17 37  1  0  0  0  0
 18 19  1  0  0  0  0
M  END
> <s_m_source_file>
AV-unprocessed.smi

> <i_m_source_file_index>
2345

> <i_lp_mmshare_version>
43012

> <i_f3d_flags>
0

> <s_epik_input>
W0NIM11bQ0gyXVNbQ0BASF0xW0NIMl1bQ0gyXVtDSDJdW0NASF0xW05IXUMoPU8pW05IXWMyW2NIXVtjSF1uW2NIXWMyRg==

> <s_epik_cmdline>
J2VwaWtfcHl0aG9uJywgJy1waCcsICc3LjAnLCAnLXRuJywgJzgnLCAnLW1hJywgJzIwMCcsICctbWV0YWxfYmluZGluZycsICctaW1hZScsICc8aW5maWxlLm1hZT4nLCAnLW9tYWUnLCAnPG91dGZpbGUubWFlPic=

> <r_epik_Ionization_Penalty>
0.00333745

> <r_epik_Ionization_Penalty_Charging>
0

> <r_epik_Ionization_Penalty_Neutral>
0.00333745

> <r_epik_State_Penalty>
0.00233401

> <r_epik_Charging_Adjusted_Penalty>
0.00233401

> <i_epik_Tot_Q>
0

> <i_epik_Tot_abs_Q>
0

> <r_epik_Metal_State_Penalty>
-0

> <b_epik_Metal_Only>
0

> <s_lp_Force_Field>
OPLS_2005

> <r_lp_Energy>
24.8038

> <b_lp_Chiralities_Consistent>
1

> <s_lp_Variant>
AV-unprocessed.smi:2345-2

> <Gold.Version>
5.8.1

> <Gold.Id.Protein>
6NUR|6NUR_protein|mol2

> <Gold.PLP.Fitness>
40.6870

> <Gold.PLP.PLP>
-36.9515

> <Gold.PLP.part.hbond>
-2.0000

> <Gold.PLP.part.metal>
0.0000

> <Gold.PLP.part.buried>
-3.4756

> <Gold.PLP.part.nonpolar>
-29.2142

> <Gold.PLP.part.repulsive>
0.2280

> <Gold.PLP.ligand.clash>
0.0000

> <Gold.PLP.ligand.torsion>
0.4504

> <Gold.PLP.Chemscore.Hbond>
1.5408

> <Gold.PLP.Chemscore.CHOScore>
0.0000

> <Gold.PLP.Chemscore.Metal>
0.0000

> <Gold.Chemscore.Hbonds>
donor molecule, donor type, donor heavy atom, donor atom, acceptor molecule, acceptor atom, score
      L1  H     9    33       P1  8028  1.00
      L1  H    12    34       P1  8028  0.46

> <Gold.PLP.Chemscore.Internal.Correction>
0.0140

> <Gold.Rescore>
     Score         DG    S(hbond)    S(metal)    S(lipo)     H(rot)  DE(clash)    DE(int)     intcor
     16.02     -18.79       1.73        0.00      93.71       1.35       0.22       2.54       ----

> <Gold.Chemscore.Fitness>
16.0241

> <Gold.Chemscore.DG>
-18.7871

> <Gold.Chemscore.ZeroCoef>
-5.4800

> <Gold.Chemscore.Hbond>
1.7344

> <Gold.Chemscore.Metal>
0.0000

> <Gold.Chemscore.Lipo>
93.7069

> <Gold.Chemscore.Internal_Hbond>
0.0000

> <Gold.Chemscore.DEClash>
0.2182

> <Gold.Chemscore.DEInternal>
2.5447

> <Gold.Chemscore.Rot>
1.3475

> <Gold.Chemscore.Internal.Correction>
   9.000000E+99

> <Gold.Chemscore.Hbonds>
donor molecule, donor type, donor heavy atom, donor atom, acceptor molecule, acceptor atom, score
      L1  H     9    33       P1  8028  0.97
      L1  H    12    34       P1  8028  0.43

> <Gold.Chemscore.Hbond.Weighted>
-5.7930

> <Gold.Chemscore.Metal.Weighted>
-0.0000

> <Gold.Chemscore.Lipo.Weighted>
-10.9637

> <Gold.Chemscore.Internal_Hbond.Weighted>
0.0000

> <Gold.Chemscore.DEClash.Weighted>
0.2182

> <Gold.Chemscore.DEInternal.Weighted>
2.5447

> <Gold.Chemscore.Rot.Weighted>
3.4496

> <Gold.Chemscore.Internal.Correction.Weighted>
   9.000000E+99

> <Gold.Protein.RotatedTorsions>
[ 6907 6896 6895 6894 ] final  -50.97 input  -60.11 | X-H torsion
[ 7974 7965 7964 7962 ] final  -92.28 input  175.53 | X-H torsion
[ 8008 7997 7996 7995 ] final -170.79 input   59.86 | X-H torsion
[ 10167 10162 10161 10158 ] final   -9.63 input  -65.29 | X-H torsion
[ 10718 10713 10712 10709 ] final -131.03 input   66.30 | X-H torsion
[ 10763 10752 10751 10750 ] final -126.63 input  -60.55 | X-H torsion
[ 11005 11000 10999 10996 ] final  -96.11 input  -57.11 | X-H torsion

> <Gold.Protein.ActiveResidues>
 VAL166  LYS551  ARG553  GLY616  TRP617  ASP618  TYR619  PRO620  LYS621  CYS622 
 ASP623  PHE694  ASN695  SER759  ASP760  ASP761  ALA762  ILE779  LEU786  VAL792 
 PHE793  MET794  SER795  GLU796  ALA797  LYS798  CYS799  TRP800  GLU811  SER814 

> <Gold.Protein.RotatedAtoms>
  150.8656  134.8019  159.7115 H   0  0  0  0  0  0  0  0  0  0  0  0  # atno 6907 bound_to 6896
  152.4679  134.5029  159.9740 H   0  0  0  0  0  0  0  0  0  0  0  0  # atno 6908 bound_to 6896
  151.5125  133.3443  159.2923 H   0  0  0  0  0  0  0  0  0  0  0  0  # atno 6909 bound_to 6896
  145.4020  140.9538  143.2282 H   0  0  0  0  0  0  0  0  0  0  0  0  # atno 7974 bound_to 7965
  155.9230  140.1077  157.1192 H   0  0  0  0  0  0  0  0  0  0  0  0  # atno 8008 bound_to 7997
  154.4057  140.1252  156.4770 H   0  0  0  0  0  0  0  0  0  0  0  0  # atno 8009 bound_to 7997
  155.7172  140.3470  155.5002 H   0  0  0  0  0  0  0  0  0  0  0  0  # atno 8010 bound_to 7997
  140.7092  143.5837  150.8965 H   0  0  0  0  0  0  0  0  0  0  0  0  # atno 10167 bound_to 10162
  156.2203  130.6974  151.0749 H   0  0  0  0  0  0  0  0  0  0  0  0  # atno 10718 bound_to 10713
  154.8747  135.3989  154.3461 H   0  0  0  0  0  0  0  0  0  0  0  0  # atno 10763 bound_to 10752
  153.4254  135.7024  153.6272 H   0  0  0  0  0  0  0  0  0  0  0  0  # atno 10764 bound_to 10752
  153.4916  135.3747  155.2464 H   0  0  0  0  0  0  0  0  0  0  0  0  # atno 10765 bound_to 10752
  141.1421  133.8074  157.0527 H   0  0  0  0  0  0  0  0  0  0  0  0  # atno 11005 bound_to 11000
  144.8368  139.5538  143.6919 LP  0  0  0  0  0  0  0  0  0  0  0  0  # atno 17320 bound_to 7965
  146.2747  139.6723  142.9271 LP  0  0  0  0  0  0  0  0  0  0  0  0  # atno 17321 bound_to 7965
  139.9563  143.6215  152.3015 LP  0  0  0  0  0  0  0  0  0  0  0  0  # atno 17342 bound_to 10162
  139.6751  144.7659  151.1711 LP  0  0  0  0  0  0  0  0  0  0  0  0  # atno 17343 bound_to 10162
  157.7084  131.0746  150.6586 LP  0  0  0  0  0  0  0  0  0  0  0  0  # atno 17370 bound_to 10713
  156.6649  130.4523  149.5675 LP  0  0  0  0  0  0  0  0  0  0  0  0  # atno 17371 bound_to 10713
  140.0621  134.9749  157.1323 LP  0  0  0  0  0  0  0  0  0  0  0  0  # atno 17394 bound_to 11000
  140.3832  134.2264  155.7170 LP  0  0  0  0  0  0  0  0  0  0  0  0  # atno 17395 bound_to 11000

$$$$
