AV-unprocessed.smi:1272|AV-procd|sdf|5336|dock1
  -GOLD-   22720 4463D 1   1.00000     0.00000
 Structure written by MMmdl.
 46 48  0  0  0  0  0  0  0  0  2 V2000
  154.8020  139.8587  159.7159 C   0  0  0  0  0  0  0  0  0  0  0  0
  153.4538  140.2748  160.3172 C   0  0  0  0  0  0  0  0  0  0  0  0
  152.7457  141.2008  159.4368 N   0  0  0  0  0  0  0  0  0  0  0  0
  152.3901  140.9798  158.1491 C   0  0  0  0  0  0  0  0  0  0  0  0
  152.5883  139.9470  157.5094 O   0  0  0  0  0  0  0  0  0  0  0  0
  151.7714  142.0918  157.6875 N   0  0  0  0  0  0  0  0  0  0  0  0
  151.1905  142.2755  156.3591 C   0  0  0  0  0  0  0  0  0  0  0  0
  150.5548  140.9734  155.8343 C   0  0  2  0  0  0  0  0  0  0  0  0
  151.5680  140.1901  155.2337 O   0  0  0  0  0  0  0  0  0  0  0  0
  149.4841  141.2529  154.7611 C   0  0  0  0  0  0  0  0  0  0  0  0
  148.3299  142.0126  155.3046 N   0  3  0  0  0  0  0  0  0  0  0  0
  147.1956  142.1268  154.3544 C   0  0  0  0  0  0  0  0  0  0  0  0
  146.0650  142.9684  154.9690 C   0  0  0  0  0  0  0  0  0  0  0  0
  145.6509  142.3848  156.1980 O   0  0  0  0  0  0  0  0  0  0  0  0
  146.7057  142.3449  157.1509 C   0  0  0  0  0  0  0  0  0  0  0  0
  147.8606  141.4859  156.6080 C   0  0  0  0  0  0  0  0  0  0  0  0
  151.7254  143.0501  158.7101 C   0  0  0  0  0  0  0  0  0  0  0  0
  151.1877  144.3488  158.7369 C   0  0  0  0  0  0  0  0  0  0  0  0
  151.3022  145.0704  159.9480 C   0  0  0  0  0  0  0  0  0  0  0  0
  151.9367  144.4953  161.0797 C   0  0  0  0  0  0  0  0  0  0  0  0
  152.4692  143.1858  161.0248 C   0  0  0  0  0  0  0  0  0  0  0  0
  152.3396  142.4900  159.8103 C   0  0  0  0  0  0  0  0  0  0  0  0
  155.3288  139.1762  160.3827 H   0  0  0  0  0  0  0  0  0  0  0  0
  155.4448  140.7237  159.5502 H   0  0  0  0  0  0  0  0  0  0  0  0
  154.6680  139.3515  158.7600 H   0  0  0  0  0  0  0  0  0  0  0  0
  152.8416  139.3902  160.4993 H   0  0  0  0  0  0  0  0  0  0  0  0
  153.6063  140.7418  161.2905 H   0  0  0  0  0  0  0  0  0  0  0  0
  150.4285  143.0512  156.4445 H   0  0  0  0  0  0  0  0  0  0  0  0
  151.9282  142.6641  155.6546 H   0  0  0  0  0  0  0  0  0  0  0  0
  150.1204  140.4168  156.6640 H   0  0  0  0  0  0  0  0  0  0  0  0
  151.2476  139.3065  155.1301 H   0  0  0  0  0  0  0  0  0  0  0  0
  149.9113  141.8086  153.9248 H   0  0  0  0  0  0  0  0  0  0  0  0
  149.1453  140.3012  154.3477 H   0  0  0  0  0  0  0  0  0  0  0  0
  147.5201  142.5849  153.4207 H   0  0  0  0  0  0  0  0  0  0  0  0
  146.8228  141.1315  154.1074 H   0  0  0  0  0  0  0  0  0  0  0  0
  146.3874  143.9984  155.1299 H   0  0  0  0  0  0  0  0  0  0  0  0
  145.2127  143.0037  154.2905 H   0  0  0  0  0  0  0  0  0  0  0  0
  147.0451  143.3567  157.3784 H   0  0  0  0  0  0  0  0  0  0  0  0
  146.3263  141.9206  158.0804 H   0  0  0  0  0  0  0  0  0  0  0  0
  147.5348  140.4514  156.4891 H   0  0  0  0  0  0  0  0  0  0  0  0
  148.6825  141.4848  157.3249 H   0  0  0  0  0  0  0  0  0  0  0  0
  150.7056  144.7802  157.8723 H   0  0  0  0  0  0  0  0  0  0  0  0
  150.9022  146.0717  160.0124 H   0  0  0  0  0  0  0  0  0  0  0  0
  152.0141  145.0637  161.9948 H   0  0  0  0  0  0  0  0  0  0  0  0
  152.9532  142.7429  161.8825 H   0  0  0  0  0  0  0  0  0  0  0  0
  148.6651  142.9490  155.4831 H   0  0  0  0  0  0  0  0  0  0  0  0
  1  2  1  0  0  0  0
  1 23  1  0  0  0  0
  1 24  1  0  0  0  0
  1 25  1  0  0  0  0
  2  3  1  0  0  0  0
  2 26  1  0  0  0  0
  2 27  1  0  0  0  0
  3 22  1  0  0  0  0
  3  4  1  0  0  0  0
  4  5  2  0  0  0  0
  4  6  1  0  0  0  0
  6  7  1  0  0  0  0
  6 17  1  0  0  0  0
  7  8  1  0  0  0  0
  7 28  1  0  0  0  0
  7 29  1  0  0  0  0
  8  9  1  0  0  0  0
  8 10  1  0  0  0  0
  8 30  1  0  0  0  0
  9 31  1  0  0  0  0
 10 11  1  0  0  0  0
 10 32  1  0  0  0  0
 10 33  1  0  0  0  0
 11 16  1  0  0  0  0
 11 12  1  0  0  0  0
 11 46  1  0  0  0  0
 12 13  1  0  0  0  0
 12 34  1  0  0  0  0
 12 35  1  0  0  0  0
 13 14  1  0  0  0  0
 13 36  1  0  0  0  0
 13 37  1  0  0  0  0
 14 15  1  0  0  0  0
 15 16  1  0  0  0  0
 15 38  1  0  0  0  0
 15 39  1  0  0  0  0
 16 40  1  0  0  0  0
 16 41  1  0  0  0  0
 17 22  2  0  0  0  0
 17 18  1  0  0  0  0
 18 19  2  0  0  0  0
 18 42  1  0  0  0  0
 19 20  1  0  0  0  0
 19 43  1  0  0  0  0
 20 21  2  0  0  0  0
 20 44  1  0  0  0  0
 21 22  1  0  0  0  0
 21 45  1  0  0  0  0
M  CHG  1  11   1
M  END
> <s_m_source_file>
AV-unprocessed.smi

> <i_m_source_file_index>
1272

> <i_lp_mmshare_version>
43012

> <i_f3d_flags>
0

> <s_epik_input>
W2NIXTFbY0hdW2NIXVtjSF1jKGMxMiluKFtDSDJdW0NIM10pYyg9TyluMltDSDJdW0NASF0oW09IXSlbQ0gyXU4zW0NIMl1bQ0gyXU9bQ0gyXVtDSDJdMw==

> <s_epik_cmdline>
J2VwaWtfcHl0aG9uJywgJy1waCcsICc3LjAnLCAnLXRuJywgJzgnLCAnLW1hJywgJzIwMCcsICctbWV0YWxfYmluZGluZycsICctaW1hZScsICc8aW5maWxlLm1hZT4nLCAnLW9tYWUnLCAnPG91dGZpbGUubWFlPic=

> <r_epik_Ionization_Penalty>
0.706332

> <r_epik_Ionization_Penalty_Charging>
0.706318

> <r_epik_Ionization_Penalty_Neutral>
1.42224e-05

> <r_epik_State_Penalty>
0.729493

> <r_epik_Charging_Adjusted_Penalty>
1.43581

> <i_epik_Tot_Q>
1

> <i_epik_Tot_abs_Q>
1

> <r_epik_Metal_State_Penalty>
0.729493

> <b_epik_Metal_Only>
0

> <s_lp_Force_Field>
OPLS_2005

> <r_lp_Energy>
52.302

> <b_lp_Chiralities_Consistent>
1

> <s_lp_Variant>
AV-unprocessed.smi:1272-3

> <Gold.Version>
5.8.1

> <Gold.Id.Protein>
6NUR|6NUR_protein|mol2

> <Gold.PLP.Fitness>
59.5581

> <Gold.PLP.PLP>
-48.5481

> <Gold.PLP.part.hbond>
-3.0000

> <Gold.PLP.part.metal>
0.0000

> <Gold.PLP.part.buried>
-7.8060

> <Gold.PLP.part.nonpolar>
-38.8279

> <Gold.PLP.part.repulsive>
0.2210

> <Gold.PLP.ligand.clash>
0.0000

> <Gold.PLP.ligand.torsion>
0.6659

> <Gold.PLP.Chemscore.Hbond>
3.9680

> <Gold.PLP.Chemscore.CHOScore>
0.0000

> <Gold.PLP.Chemscore.Metal>
0.0000

> <Gold.Chemscore.Hbonds>
donor molecule, donor type, donor heavy atom, donor atom, acceptor molecule, acceptor atom, score
      L1  H    11    46       P1  8028  2.00
      P1  H  7989  7998       L1     9  0.96
      P1  H  7997  8008       L1     5  0.98

> <Gold.PLP.Chemscore.Internal.Correction>
0.4378

> <Gold.Rescore>
     Score         DG    S(hbond)    S(metal)    S(lipo)     H(rot)  DE(clash)    DE(int)     intcor
     16.19     -18.64       1.63        0.00     114.84       2.23       0.05       2.40       ----

> <Gold.Chemscore.Fitness>
16.1879

> <Gold.Chemscore.DG>
-18.6399

> <Gold.Chemscore.ZeroCoef>
-5.4800

> <Gold.Chemscore.Hbond>
1.6256

> <Gold.Chemscore.Metal>
0.0000

> <Gold.Chemscore.Lipo>
114.8356

> <Gold.Chemscore.Internal_Hbond>
0.0000

> <Gold.Chemscore.DEClash>
0.0522

> <Gold.Chemscore.DEInternal>
2.3998

> <Gold.Chemscore.Rot>
2.2287

> <Gold.Chemscore.Internal.Correction>
   9.000000E+99

> <Gold.Chemscore.Hbonds>
donor molecule, donor type, donor heavy atom, donor atom, acceptor molecule, acceptor atom, score
      L1  H    11    46       P1  8028  1.00
      P1  H  7989  7998       L1     9  0.18
      P1  H  7997  8008       L1     5  0.39

> <Gold.Chemscore.Hbond.Weighted>
-5.4295

> <Gold.Chemscore.Metal.Weighted>
-0.0000

> <Gold.Chemscore.Lipo.Weighted>
-13.4358

> <Gold.Chemscore.Internal_Hbond.Weighted>
0.0000

> <Gold.Chemscore.DEClash.Weighted>
0.0522

> <Gold.Chemscore.DEInternal.Weighted>
2.3998

> <Gold.Chemscore.Rot.Weighted>
5.7054

> <Gold.Chemscore.Internal.Correction.Weighted>
   9.000000E+99

> <Gold.Protein.RotatedTorsions>
[ 6907 6896 6895 6894 ] final -107.94 input  -60.11 | X-H torsion
[ 7974 7965 7964 7962 ] final   10.01 input  175.53 | X-H torsion
[ 8008 7997 7996 7995 ] final  -82.26 input   59.86 | X-H torsion
[ 10167 10162 10161 10158 ] final  -73.05 input  -65.29 | X-H torsion
[ 10718 10713 10712 10709 ] final   29.14 input   66.30 | X-H torsion
[ 10763 10752 10751 10750 ] final  -31.21 input  -60.55 | X-H torsion
[ 11005 11000 10999 10996 ] final  -75.71 input  -57.11 | X-H torsion

> <Gold.Protein.ActiveResidues>
 VAL166  LYS551  ARG553  GLY616  TRP617  ASP618  TYR619  PRO620  LYS621  CYS622 
 ASP623  PHE694  ASN695  SER759  ASP760  ASP761  ALA762  ILE779  LEU786  VAL792 
 PHE793  MET794  SER795  GLU796  ALA797  LYS798  CYS799  TRP800  GLU811  SER814 

> <Gold.Protein.RotatedAtoms>
  150.7473  133.9751  159.3558 H   0  0  0  0  0  0  0  0  0  0  0  0  # atno 6907 bound_to 6896
  151.7688  135.0789  160.0366 H   0  0  0  0  0  0  0  0  0  0  0  0  # atno 6908 bound_to 6896
  152.3353  133.5968  159.5874 H   0  0  0  0  0  0  0  0  0  0  0  0  # atno 6909 bound_to 6896
  146.2395  139.9698  142.8448 H   0  0  0  0  0  0  0  0  0  0  0  0  # atno 7974 bound_to 7965
  154.6068  140.0635  156.9441 H   0  0  0  0  0  0  0  0  0  0  0  0  # atno 8008 bound_to 7997
  155.2039  140.3317  155.4320 H   0  0  0  0  0  0  0  0  0  0  0  0  # atno 8009 bound_to 7997
  156.2352  140.1859  156.7121 H   0  0  0  0  0  0  0  0  0  0  0  0  # atno 8010 bound_to 7997
  140.5142  143.2340  151.7541 H   0  0  0  0  0  0  0  0  0  0  0  0  # atno 10167 bound_to 10162
  157.2427  130.7077  149.6366 H   0  0  0  0  0  0  0  0  0  0  0  0  # atno 10718 bound_to 10713
  153.7936  135.6896  153.4867 H   0  0  0  0  0  0  0  0  0  0  0  0  # atno 10763 bound_to 10752
  153.1733  135.4534  154.9931 H   0  0  0  0  0  0  0  0  0  0  0  0  # atno 10764 bound_to 10752
  154.8035  135.3347  154.7430 H   0  0  0  0  0  0  0  0  0  0  0  0  # atno 10765 bound_to 10752
  141.1648  133.6956  156.7558 H   0  0  0  0  0  0  0  0  0  0  0  0  # atno 11005 bound_to 11000
  145.1691  140.9712  143.4332 LP  0  0  0  0  0  0  0  0  0  0  0  0  # atno 17320 bound_to 7965
  145.0045  139.3567  143.6151 LP  0  0  0  0  0  0  0  0  0  0  0  0  # atno 17321 bound_to 7965
  139.4904  144.4347  151.9832 LP  0  0  0  0  0  0  0  0  0  0  0  0  # atno 17342 bound_to 10162
  140.3441  144.3168  150.5961 LP  0  0  0  0  0  0  0  0  0  0  0  0  # atno 17343 bound_to 10162
  155.9669  130.4453  150.5495 LP  0  0  0  0  0  0  0  0  0  0  0  0  # atno 17370 bound_to 10713
  157.3361  131.0708  151.1824 LP  0  0  0  0  0  0  0  0  0  0  0  0  # atno 17371 bound_to 10713
  140.2570  134.8496  157.3722 LP  0  0  0  0  0  0  0  0  0  0  0  0  # atno 17394 bound_to 11000
  140.1647  134.4684  155.7871 LP  0  0  0  0  0  0  0  0  0  0  0  0  # atno 17395 bound_to 11000

$$$$
