AV-unprocessed.smi:2276|AV-procd|sdf|9176|dock5
  -GOLD-   2272012393D 1   1.00000     0.00000
 Structure written by MMmdl.
 52 53  0  0  0  0  0  0  0  0  1 V2000
  151.8732  145.9855  160.2667 C   0  0  0  0  0  0  0  0  0  0  0  0
  151.8892  144.5948  159.6680 C   0  0  0  0  0  0  0  0  0  0  0  0
  152.6369  143.5600  160.2623 C   0  0  0  0  0  0  0  0  0  0  0  0
  152.6110  142.2887  159.6561 C   0  0  0  0  0  0  0  0  0  0  0  0
  153.3822  141.1274  160.2471 C   0  0  0  0  0  0  0  0  0  0  0  0
  151.9046  142.0207  158.5373 N   0  0  0  0  0  0  0  0  0  0  0  0
  151.1805  143.0091  157.9565 C   0  0  0  0  0  0  0  0  0  0  0  0
  150.3948  142.8256  156.7879 N   0  0  0  0  0  0  0  0  0  0  0  0
  150.2345  141.7039  156.0639 C   0  0  0  0  0  0  0  0  0  0  0  0
  150.8223  140.6395  156.2590 O   0  0  0  0  0  0  0  0  0  0  0  0
  149.3412  141.8851  155.0802 N   0  0  0  0  0  0  0  0  0  0  0  0
  148.9157  140.8614  154.1294 C   0  0  0  0  0  0  0  0  0  0  0  0
  147.3792  140.7469  154.0114 C   0  0  2  0  0  0  0  0  0  0  0  0
  147.0090  139.6689  152.9799 C   0  0  0  0  0  0  0  0  0  0  0  0
  146.7235  142.1043  153.6600 C   0  0  0  0  0  0  0  0  0  0  0  0
  145.7607  142.6169  154.6359 N   0  0  0  0  0  0  0  0  0  0  0  0
  145.2363  143.9173  154.2151 C   0  0  0  0  0  0  0  0  0  0  0  0
  144.2061  144.4685  155.2183 C   0  0  0  0  0  0  0  0  0  0  0  0
  144.7889  144.6162  156.5497 N   0  0  0  0  0  0  0  0  0  0  0  0
  143.8237  145.1436  157.5018 C   0  0  0  0  0  0  0  0  0  0  0  0
  145.3161  143.3234  156.9802 C   0  0  0  0  0  0  0  0  0  0  0  0
  146.3424  142.7690  155.9743 C   0  0  0  0  0  0  0  0  0  0  0  0
  151.1516  144.3129  158.5005 C   0  0  0  0  0  0  0  0  0  0  0  0
  152.3964  146.0112  161.2229 H   0  0  0  0  0  0  0  0  0  0  0  0
  150.8474  146.3166  160.4313 H   0  0  0  0  0  0  0  0  0  0  0  0
  152.3585  146.6908  159.5919 H   0  0  0  0  0  0  0  0  0  0  0  0
  153.2131  143.7347  161.1594 H   0  0  0  0  0  0  0  0  0  0  0  0
  154.1070  141.4706  160.9857 H   0  0  0  0  0  0  0  0  0  0  0  0
  153.9215  140.5879  159.4678 H   0  0  0  0  0  0  0  0  0  0  0  0
  152.6985  140.4325  160.7352 H   0  0  0  0  0  0  0  0  0  0  0  0
  149.8732  143.6345  156.4848 H   0  0  0  0  0  0  0  0  0  0  0  0
  148.9121  142.7942  154.9892 H   0  0  0  0  0  0  0  0  0  0  0  0
  149.3456  141.1072  153.1579 H   0  0  0  0  0  0  0  0  0  0  0  0
  149.3467  139.9022  154.4211 H   0  0  0  0  0  0  0  0  0  0  0  0
  147.0111  140.4076  154.9784 H   0  0  0  0  0  0  0  0  0  0  0  0
  147.3572  139.9382  151.9823 H   0  0  0  0  0  0  0  0  0  0  0  0
  145.9298  139.5229  152.9280 H   0  0  0  0  0  0  0  0  0  0  0  0
  147.4538  138.7080  153.2400 H   0  0  0  0  0  0  0  0  0  0  0  0
  147.4941  142.8601  153.5040 H   0  0  0  0  0  0  0  0  0  0  0  0
  146.2266  141.9913  152.6954 H   0  0  0  0  0  0  0  0  0  0  0  0
  146.0540  144.6312  154.1010 H   0  0  0  0  0  0  0  0  0  0  0  0
  144.7655  143.8251  153.2359 H   0  0  0  0  0  0  0  0  0  0  0  0
  143.8410  145.4343  154.8670 H   0  0  0  0  0  0  0  0  0  0  0  0
  143.3418  143.8036  155.2586 H   0  0  0  0  0  0  0  0  0  0  0  0
  144.2799  145.2698  158.4840 H   0  0  0  0  0  0  0  0  0  0  0  0
  142.9682  144.4752  157.6079 H   0  0  0  0  0  0  0  0  0  0  0  0
  143.4565  146.1181  157.1788 H   0  0  0  0  0  0  0  0  0  0  0  0
  145.7885  143.4256  157.9576 H   0  0  0  0  0  0  0  0  0  0  0  0
  144.5009  142.6083  157.1011 H   0  0  0  0  0  0  0  0  0  0  0  0
  146.6983  141.8095  156.3464 H   0  0  0  0  0  0  0  0  0  0  0  0
  147.2103  143.4292  155.9337 H   0  0  0  0  0  0  0  0  0  0  0  0
  150.5687  145.0914  158.0296 H   0  0  0  0  0  0  0  0  0  0  0  0
  1  2  1  0  0  0  0
  1 24  1  0  0  0  0
  1 25  1  0  0  0  0
  1 26  1  0  0  0  0
  2 23  1  0  0  0  0
  2  3  2  0  0  0  0
  3  4  1  0  0  0  0
  3 27  1  0  0  0  0
  4  5  1  0  0  0  0
  4  6  2  0  0  0  0
  5 28  1  0  0  0  0
  5 29  1  0  0  0  0
  5 30  1  0  0  0  0
  6  7  1  0  0  0  0
  7  8  1  0  0  0  0
  7 23  2  0  0  0  0
  8  9  1  0  0  0  0
  8 31  1  0  0  0  0
  9 10  2  0  0  0  0
  9 11  1  0  0  0  0
 11 12  1  0  0  0  0
 11 32  1  0  0  0  0
 12 13  1  0  0  0  0
 12 33  1  0  0  0  0
 12 34  1  0  0  0  0
 13 14  1  0  0  0  0
 13 15  1  0  0  0  0
 13 35  1  0  0  0  0
 14 36  1  0  0  0  0
 14 37  1  0  0  0  0
 14 38  1  0  0  0  0
 15 16  1  0  0  0  0
 15 39  1  0  0  0  0
 15 40  1  0  0  0  0
 16 22  1  0  0  0  0
 16 17  1  0  0  0  0
 17 18  1  0  0  0  0
 17 41  1  0  0  0  0
 17 42  1  0  0  0  0
 18 19  1  0  0  0  0
 18 43  1  0  0  0  0
 18 44  1  0  0  0  0
 19 20  1  0  0  0  0
 19 21  1  0  0  0  0
 20 45  1  0  0  0  0
 20 46  1  0  0  0  0
 20 47  1  0  0  0  0
 21 22  1  0  0  0  0
 21 48  1  0  0  0  0
 21 49  1  0  0  0  0
 22 50  1  0  0  0  0
 22 51  1  0  0  0  0
 23 52  1  0  0  0  0
M  END
> <s_m_source_file>
AV-unprocessed.smi

> <i_m_source_file_index>
2276

> <i_lp_mmshare_version>
43012

> <i_f3d_flags>
0

> <s_epik_input>
W0NIM11jMVtjSF1jKFtDSDNdKW5jKFtjSF0xKVtOSF1DKD1PKVtOSF1bQ0gyXVtDQEhdKFtDSDNdKVtDSDJdTjJbQ0gyXVtDSDJdTihbQ0gzXSlbQ0gyXVtDSDJdMg==

> <s_epik_cmdline>
J2VwaWtfcHl0aG9uJywgJy1waCcsICc3LjAnLCAnLXRuJywgJzgnLCAnLW1hJywgJzIwMCcsICctbWV0YWxfYmluZGluZycsICctaW1hZScsICc8aW5maWxlLm1hZT4nLCAnLW9tYWUnLCAnPG91dGZpbGUubWFlPic=

> <r_epik_Ionization_Penalty>
3.46991

> <r_epik_Ionization_Penalty_Charging>
0

> <r_epik_Ionization_Penalty_Neutral>
3.46991

> <r_epik_State_Penalty>
2.28006

> <r_epik_Charging_Adjusted_Penalty>
2.28006

> <i_epik_Tot_Q>
0

> <i_epik_Tot_abs_Q>
0

> <r_epik_Metal_State_Penalty>
2.28005

> <b_epik_Metal_Only>
0

> <s_lp_Force_Field>
OPLS_2005

> <r_lp_Energy>
36.9952

> <b_lp_Chiralities_Consistent>
1

> <s_lp_Variant>
AV-unprocessed.smi:2276-5

> <Gold.Version>
5.8.1

> <Gold.Id.Protein>
6NUR|6NUR_protein|mol2

> <Gold.PLP.Fitness>
53.0696

> <Gold.PLP.PLP>
-48.7966

> <Gold.PLP.part.hbond>
-2.0000

> <Gold.PLP.part.metal>
0.0000

> <Gold.PLP.part.buried>
-7.1576

> <Gold.PLP.part.nonpolar>
-41.2894

> <Gold.PLP.part.repulsive>
0.5698

> <Gold.PLP.ligand.clash>
0.0000

> <Gold.PLP.ligand.torsion>
0.8037

> <Gold.PLP.Chemscore.Hbond>
1.9440

> <Gold.PLP.Chemscore.CHOScore>
0.0000

> <Gold.PLP.Chemscore.Metal>
0.0000

> <Gold.Chemscore.Hbonds>
donor molecule, donor type, donor heavy atom, donor atom, acceptor molecule, acceptor atom, score
      L1  H     8    31       P1  8028  1.00
      L1  H    11    32       P1  8028  0.94

> <Gold.PLP.Chemscore.Internal.Correction>
0.0484

> <Gold.Rescore>
     Score         DG    S(hbond)    S(metal)    S(lipo)     H(rot)  DE(clash)    DE(int)     intcor
     19.13     -21.26       1.93        0.00     114.24       1.57       0.04       2.09       ----

> <Gold.Chemscore.Fitness>
19.1342

> <Gold.Chemscore.DG>
-21.2559

> <Gold.Chemscore.ZeroCoef>
-5.4800

> <Gold.Chemscore.Hbond>
1.9260

> <Gold.Chemscore.Metal>
0.0000

> <Gold.Chemscore.Lipo>
114.2395

> <Gold.Chemscore.Internal_Hbond>
0.0000

> <Gold.Chemscore.DEClash>
0.0351

> <Gold.Chemscore.DEInternal>
2.0866

> <Gold.Chemscore.Rot>
1.5715

> <Gold.Chemscore.Internal.Correction>
   9.000000E+99

> <Gold.Chemscore.Hbonds>
donor molecule, donor type, donor heavy atom, donor atom, acceptor molecule, acceptor atom, score
      L1  H     8    31       P1  8028  1.00
      L1  H    11    32       P1  8028  0.85

> <Gold.Chemscore.Hbond.Weighted>
-6.4330

> <Gold.Chemscore.Metal.Weighted>
-0.0000

> <Gold.Chemscore.Lipo.Weighted>
-13.3660

> <Gold.Chemscore.Internal_Hbond.Weighted>
0.0000

> <Gold.Chemscore.DEClash.Weighted>
0.0351

> <Gold.Chemscore.DEInternal.Weighted>
2.0866

> <Gold.Chemscore.Rot.Weighted>
4.0231

> <Gold.Chemscore.Internal.Correction.Weighted>
   9.000000E+99

> <Gold.Protein.RotatedTorsions>
[ 6907 6896 6895 6894 ] final -159.34 input  -60.11 | X-H torsion
[ 7974 7965 7964 7962 ] final    6.97 input  175.53 | X-H torsion
[ 8008 7997 7996 7995 ] final  -34.35 input   59.86 | X-H torsion
[ 10167 10162 10161 10158 ] final  116.62 input  -65.29 | X-H torsion
[ 10718 10713 10712 10709 ] final -173.75 input   66.30 | X-H torsion
[ 10763 10752 10751 10750 ] final -164.62 input  -60.55 | X-H torsion
[ 11005 11000 10999 10996 ] final -119.74 input  -57.11 | X-H torsion

> <Gold.Protein.ActiveResidues>
 VAL166  LYS551  ARG553  GLY616  TRP617  ASP618  TYR619  PRO620  LYS621  CYS622 
 ASP623  PHE694  ASN695  SER759  ASP760  ASP761  ALA762  ILE779  LEU786  VAL792 
 PHE793  MET794  SER795  GLU796  ALA797  LYS798  CYS799  TRP800  GLU811  SER814 

> <Gold.Protein.RotatedAtoms>
  151.3320  133.3997  159.2663 H   0  0  0  0  0  0  0  0  0  0  0  0  # atno 6907 bound_to 6896
  150.9948  134.9275  159.7930 H   0  0  0  0  0  0  0  0  0  0  0  0  # atno 6908 bound_to 6896
  152.5258  134.3285  159.9226 H   0  0  0  0  0  0  0  0  0  0  0  0  # atno 6909 bound_to 6896
  146.2430  140.0154  142.8403 H   0  0  0  0  0  0  0  0  0  0  0  0  # atno 7974 bound_to 7965
  154.4123  140.1686  156.2035 H   0  0  0  0  0  0  0  0  0  0  0  0  # atno 8008 bound_to 7997
  155.9504  140.3401  155.6379 H   0  0  0  0  0  0  0  0  0  0  0  0  # atno 8009 bound_to 7997
  155.6877  140.0730  157.2451 H   0  0  0  0  0  0  0  0  0  0  0  0  # atno 8010 bound_to 7997
  139.6234  144.7105  151.2585 H   0  0  0  0  0  0  0  0  0  0  0  0  # atno 10167 bound_to 10162
  156.7750  130.9462  151.3120 H   0  0  0  0  0  0  0  0  0  0  0  0  # atno 10718 bound_to 10713
  154.7011  135.2988  154.9340 H   0  0  0  0  0  0  0  0  0  0  0  0  # atno 10763 bound_to 10752
  154.0272  135.6675  153.4781 H   0  0  0  0  0  0  0  0  0  0  0  0  # atno 10764 bound_to 10752
  153.0682  135.5076  154.8155 H   0  0  0  0  0  0  0  0  0  0  0  0  # atno 10765 bound_to 10752
  141.0194  134.0147  157.3304 H   0  0  0  0  0  0  0  0  0  0  0  0  # atno 11005 bound_to 11000
  145.1289  140.9506  143.4556 LP  0  0  0  0  0  0  0  0  0  0  0  0  # atno 17320 bound_to 7965
  145.0407  139.3263  143.5978 LP  0  0  0  0  0  0  0  0  0  0  0  0  # atno 17321 bound_to 7965
  140.7396  143.6612  150.8162 LP  0  0  0  0  0  0  0  0  0  0  0  0  # atno 17342 bound_to 10162
  140.0227  143.5526  152.2794 LP  0  0  0  0  0  0  0  0  0  0  0  0  # atno 17343 bound_to 10162
  157.6673  130.9019  149.9961 LP  0  0  0  0  0  0  0  0  0  0  0  0  # atno 17370 bound_to 10713
  156.1254  130.3644  149.9818 LP  0  0  0  0  0  0  0  0  0  0  0  0  # atno 17371 bound_to 10713
  139.9136  135.0194  156.7794 LP  0  0  0  0  0  0  0  0  0  0  0  0  # atno 17394 bound_to 11000
  140.6599  133.9654  155.7799 LP  0  0  0  0  0  0  0  0  0  0  0  0  # atno 17395 bound_to 11000

$$$$
