AV-unprocessed.smi:435|AV-procd|sdf|2557|dock4
  -GOLD-   2262022523D 1   1.00000     0.00000
 Structure written by MMmdl.
 44 45  0  0  0  0  0  0  0  0  1 V2000
  148.2621  132.9522  152.4965 C   0  0  0  0  0  0  0  0  0  0  0  0
  148.9780  132.9226  153.8200 C   0  0  0  0  0  0  0  0  0  0  0  0
  149.0600  134.0422  154.4606 N   0  0  0  0  0  0  0  0  0  0  0  0
  149.7010  134.1272  155.6816 N   0  0  0  0  0  0  0  0  0  0  0  0
  149.7134  135.4777  156.2625 C   0  0  0  0  0  0  0  0  0  0  0  0
  150.4713  136.4963  155.3993 C   0  0  0  0  0  0  0  0  0  0  0  0
  151.6187  136.2634  155.0162 O   0  0  0  0  0  0  0  0  0  0  0  0
  149.8004  137.6140  155.0824 N   0  0  0  0  0  0  0  0  0  0  0  0
  150.3117  138.7103  154.2616 C   0  0  2  0  0  0  0  0  0  0  0  0
  151.7222  139.1157  154.7308 C   0  0  0  0  0  0  0  0  0  0  0  0
  151.7037  139.8211  156.0988 C   0  0  0  0  0  0  0  0  0  0  0  0
  150.7569  141.0364  156.1016 C   0  0  2  0  0  0  0  0  0  0  0  0
  150.7396  141.7290  157.4716 C   0  0  0  0  0  0  0  0  0  0  0  0
  149.3406  140.6169  155.6630 C   0  0  0  0  0  0  0  0  0  0  0  0
  149.3546  139.9197  154.2908 C   0  0  0  0  0  0  0  0  0  0  0  0
  150.2891  133.0774  156.3247 C   0  0  0  0  0  0  0  0  0  0  0  0
  150.8460  133.1979  157.4172 O   0  0  0  0  0  0  0  0  0  0  0  0
  150.1913  131.8121  155.5939 C   0  0  0  0  0  0  0  0  0  0  0  0
  150.7999  130.6885  156.2299 C   0  0  0  0  0  0  0  0  0  0  0  0
  151.3002  129.7709  156.7278 N   0  0  0  0  0  0  0  0  0  0  0  0
  149.5658  131.7161  154.3940 C   0  0  0  0  0  0  0  0  0  0  0  0
  149.4379  130.4259  153.5956 C   0  0  0  0  0  0  0  0  0  0  0  0
  147.3596  132.3418  152.5318 H   0  0  0  0  0  0  0  0  0  0  0  0
  148.9008  132.5673  151.7014 H   0  0  0  0  0  0  0  0  0  0  0  0
  147.9654  133.9646  152.2173 H   0  0  0  0  0  0  0  0  0  0  0  0
  148.6936  135.8435  156.3940 H   0  0  0  0  0  0  0  0  0  0  0  0
  150.1436  135.4464  157.2655 H   0  0  0  0  0  0  0  0  0  0  0  0
  148.8603  137.7158  155.4367 H   0  0  0  0  0  0  0  0  0  0  0  0
  150.3955  138.3588  153.2316 H   0  0  0  0  0  0  0  0  0  0  0  0
  152.3730  138.2412  154.7703 H   0  0  0  0  0  0  0  0  0  0  0  0
  152.1634  139.7863  153.9925 H   0  0  0  0  0  0  0  0  0  0  0  0
  151.3994  139.1146  156.8721 H   0  0  0  0  0  0  0  0  0  0  0  0
  152.7150  140.1377  156.3563 H   0  0  0  0  0  0  0  0  0  0  0  0
  151.1336  141.7574  155.3745 H   0  0  0  0  0  0  0  0  0  0  0  0
  150.3718  141.0595  158.2497 H   0  0  0  0  0  0  0  0  0  0  0  0
  150.0967  142.6093  157.4590 H   0  0  0  0  0  0  0  0  0  0  0  0
  151.7393  142.0560  157.7584 H   0  0  0  0  0  0  0  0  0  0  0  0
  148.9049  139.9499  156.4084 H   0  0  0  0  0  0  0  0  0  0  0  0
  148.6903  141.4913  155.6188 H   0  0  0  0  0  0  0  0  0  0  0  0
  149.6659  140.6381  153.5315 H   0  0  0  0  0  0  0  0  0  0  0  0
  148.3444  139.6132  154.0170 H   0  0  0  0  0  0  0  0  0  0  0  0
  149.8268  129.5648  154.1382 H   0  0  0  0  0  0  0  0  0  0  0  0
  149.9903  130.5023  152.6585 H   0  0  0  0  0  0  0  0  0  0  0  0
  148.3930  130.2173  153.3637 H   0  0  0  0  0  0  0  0  0  0  0  0
  1  2  1  0  0  0  0
  1 23  1  0  0  0  0
  1 24  1  0  0  0  0
  1 25  1  0  0  0  0
  2 21  1  0  0  0  0
  2  3  2  0  0  0  0
  3  4  1  0  0  0  0
  4  5  1  0  0  0  0
  4 16  1  0  0  0  0
  5  6  1  0  0  0  0
  5 26  1  0  0  0  0
  5 27  1  0  0  0  0
  6  7  2  0  0  0  0
  6  8  1  0  0  0  0
  8  9  1  0  0  0  0
  8 28  1  0  0  0  0
  9 15  1  0  0  0  0
  9 10  1  0  0  0  0
  9 29  1  0  0  0  0
 10 11  1  0  0  0  0
 10 30  1  0  0  0  0
 10 31  1  0  0  0  0
 11 12  1  0  0  0  0
 11 32  1  0  0  0  0
 11 33  1  0  0  0  0
 12 13  1  0  0  0  0
 12 14  1  0  0  0  0
 12 34  1  0  0  0  0
 13 35  1  0  0  0  0
 13 36  1  0  0  0  0
 13 37  1  0  0  0  0
 14 15  1  0  0  0  0
 14 38  1  0  0  0  0
 14 39  1  0  0  0  0
 15 40  1  0  0  0  0
 15 41  1  0  0  0  0
 16 17  2  0  0  0  0
 16 18  1  0  0  0  0
 18 19  1  0  0  0  0
 18 21  2  0  0  0  0
 19 20  3  0  0  0  0
 21 22  1  0  0  0  0
 22 42  1  0  0  0  0
 22 43  1  0  0  0  0
 22 44  1  0  0  0  0
M  END
> <s_m_source_file>
AV-unprocessed.smi

> <i_m_source_file_index>
435

> <i_lp_mmshare_version>
43012

> <i_f3d_flags>
0

> <s_epik_input>
TiNDYyhjMVtDSDNdKWMoPU8pbihuYzFbQ0gzXSlbQ0gyXUMoPU8pW05IXVtDQEBIXTJbQ0gyXVtDSDJdW0NAQEhdKFtDSDNdKVtDSDJdW0NIMl0y

> <s_epik_cmdline>
J2VwaWtfcHl0aG9uJywgJy1waCcsICc3LjAnLCAnLXRuJywgJzgnLCAnLW1hJywgJzIwMCcsICctbWV0YWxfYmluZGluZycsICctaW1hZScsICc8aW5maWxlLm1hZT4nLCAnLW9tYWUnLCAnPG91dGZpbGUubWFlPic=

> <r_lp_tautomer_probability>
1

> <r_epik_Ionization_Penalty>
1.90703e-08

> <r_epik_Ionization_Penalty_Charging>
2.32563e-11

> <r_epik_Ionization_Penalty_Neutral>
1.90471e-08

> <r_epik_State_Penalty>
-0

> <r_epik_Charging_Adjusted_Penalty>
2.32563e-11

> <i_epik_Tot_Q>
0

> <i_epik_Tot_abs_Q>
0

> <r_epik_Metal_State_Penalty>
-0

> <b_epik_Metal_Only>
0

> <s_lp_Force_Field>
OPLS_2005

> <r_lp_Energy>
22.9488

> <b_lp_Chiralities_Consistent>
1

> <s_lp_Variant>
AV-unprocessed.smi:435-2

> <Gold.Version>
5.8.1

> <Gold.Id.Protein>
6NUR|6NUR_protein|mol2

> <Gold.PLP.Fitness>
43.9190

> <Gold.PLP.PLP>
-38.4082

> <Gold.PLP.part.hbond>
-1.9405

> <Gold.PLP.part.metal>
0.0000

> <Gold.PLP.part.buried>
-4.0996

> <Gold.PLP.part.nonpolar>
-33.6419

> <Gold.PLP.part.repulsive>
0.2662

> <Gold.PLP.ligand.clash>
0.0000

> <Gold.PLP.ligand.torsion>
0.1645

> <Gold.PLP.Chemscore.Hbond>
1.9440

> <Gold.PLP.Chemscore.CHOScore>
0.0000

> <Gold.PLP.Chemscore.Metal>
0.0000

> <Gold.Chemscore.Hbonds>
donor molecule, donor type, donor heavy atom, donor atom, acceptor molecule, acceptor atom, score
      P1  H  6896  6909       L1    17  0.91
      P1  H 10752 10765       L1     7  1.00

> <Gold.PLP.Chemscore.Internal.Correction>
0.0078

> <Gold.Rescore>
     Score         DG    S(hbond)    S(metal)    S(lipo)     H(rot)  DE(clash)    DE(int)     intcor
     16.07     -17.31       1.89        0.00      79.16       1.46       0.01       1.23       ----

> <Gold.Chemscore.Fitness>
16.0726

> <Gold.Chemscore.DG>
-17.3108

> <Gold.Chemscore.ZeroCoef>
-5.4800

> <Gold.Chemscore.Hbond>
1.8892

> <Gold.Chemscore.Metal>
0.0000

> <Gold.Chemscore.Lipo>
79.1647

> <Gold.Chemscore.Internal_Hbond>
0.0000

> <Gold.Chemscore.DEClash>
0.0073

> <Gold.Chemscore.DEInternal>
1.2309

> <Gold.Chemscore.Rot>
1.4615

> <Gold.Chemscore.Internal.Correction>
   9.000000E+99

> <Gold.Chemscore.Hbonds>
donor molecule, donor type, donor heavy atom, donor atom, acceptor molecule, acceptor atom, score
      P1  H  6896  6909       L1    17  0.90
      P1  H 10752 10765       L1     7  0.96

> <Gold.Chemscore.Hbond.Weighted>
-6.3099

> <Gold.Chemscore.Metal.Weighted>
-0.0000

> <Gold.Chemscore.Lipo.Weighted>
-9.2623

> <Gold.Chemscore.Internal_Hbond.Weighted>
0.0000

> <Gold.Chemscore.DEClash.Weighted>
0.0073

> <Gold.Chemscore.DEInternal.Weighted>
1.2309

> <Gold.Chemscore.Rot.Weighted>
3.7414

> <Gold.Chemscore.Internal.Correction.Weighted>
   9.000000E+99

> <Gold.Protein.RotatedTorsions>
[ 6907 6896 6895 6894 ] final  -31.03 input  -60.11 | X-H torsion
[ 7974 7965 7964 7962 ] final   21.21 input  175.53 | X-H torsion
[ 8008 7997 7996 7995 ] final -103.75 input   59.86 | X-H torsion
[ 10167 10162 10161 10158 ] final -158.26 input  -65.29 | X-H torsion
[ 10718 10713 10712 10709 ] final   38.13 input   66.30 | X-H torsion
[ 10763 10752 10751 10750 ] final  168.26 input  -60.55 | X-H torsion
[ 11005 11000 10999 10996 ] final   83.57 input  -57.11 | X-H torsion

> <Gold.Protein.ActiveResidues>
 VAL166  LYS551  ARG553  GLY616  TRP617  ASP618  TYR619  PRO620  LYS621  CYS622 
 ASP623  PHE694  ASN695  SER759  ASP760  ASP761  ALA762  ILE779  LEU786  VAL792 
 PHE793  MET794  SER795  GLU796  ALA797  LYS798  CYS799  TRP800  GLU811  SER814 

> <Gold.Protein.RotatedAtoms>
  151.0975  134.9953  159.8432 H   0  0  0  0  0  0  0  0  0  0  0  0  # atno 6907 bound_to 6896
  152.5434  134.1990  159.8714 H   0  0  0  0  0  0  0  0  0  0  0  0  # atno 6908 bound_to 6896
  151.2031  133.4555  159.2630 H   0  0  0  0  0  0  0  0  0  0  0  0  # atno 6909 bound_to 6896
  146.2081  139.8060  142.8710 H   0  0  0  0  0  0  0  0  0  0  0  0  # atno 7974 bound_to 7965
  154.8754  140.0421  157.1750 H   0  0  0  0  0  0  0  0  0  0  0  0  # atno 8008 bound_to 7997
  154.8694  140.2956  155.5469 H   0  0  0  0  0  0  0  0  0  0  0  0  # atno 8009 bound_to 7997
  156.2999  140.2432  156.3681 H   0  0  0  0  0  0  0  0  0  0  0  0  # atno 8010 bound_to 7997
  139.6706  143.9752  152.2281 H   0  0  0  0  0  0  0  0  0  0  0  0  # atno 10167 bound_to 10162
  157.3552  130.7620  149.7007 H   0  0  0  0  0  0  0  0  0  0  0  0  # atno 10718 bound_to 10713
  154.3659  135.2753  155.2294 H   0  0  0  0  0  0  0  0  0  0  0  0  # atno 10763 bound_to 10752
  154.4462  135.5942  153.6165 H   0  0  0  0  0  0  0  0  0  0  0  0  # atno 10764 bound_to 10752
  152.9841  135.6030  154.3885 H   0  0  0  0  0  0  0  0  0  0  0  0  # atno 10765 bound_to 10752
  139.9027  134.8154  156.2327 H   0  0  0  0  0  0  0  0  0  0  0  0  # atno 11005 bound_to 11000
  145.3246  141.0252  143.3481 LP  0  0  0  0  0  0  0  0  0  0  0  0  # atno 17320 bound_to 7965
  144.8842  139.4862  143.6708 LP  0  0  0  0  0  0  0  0  0  0  0  0  # atno 17321 bound_to 7965
  139.9515  144.6617  150.8167 LP  0  0  0  0  0  0  0  0  0  0  0  0  # atno 17342 bound_to 10162
  140.7616  143.3179  151.2690 LP  0  0  0  0  0  0  0  0  0  0  0  0  # atno 17343 bound_to 10162
  155.9728  130.4129  150.4056 LP  0  0  0  0  0  0  0  0  0  0  0  0  # atno 17370 bound_to 10713
  157.2125  131.0464  151.2591 LP  0  0  0  0  0  0  0  0  0  0  0  0  # atno 17371 bound_to 10713
  141.0335  133.6976  156.1471 LP  0  0  0  0  0  0  0  0  0  0  0  0  # atno 17394 bound_to 11000
  140.7062  134.4511  157.5584 LP  0  0  0  0  0  0  0  0  0  0  0  0  # atno 17395 bound_to 11000

$$$$
