AV-unprocessed.smi:544|AV-procd|sdf|2879|dock7
  -GOLD-   2262023373D 1   1.00000     0.00000
 Structure written by MMmdl.
 48 50  0  0  0  0  0  0  0  0  2 V2000
  147.8020  141.5920  154.2408 C   0  0  0  0  0  0  0  0  0  0  0  0
  149.2300  141.3321  154.7255 C   0  0  0  0  0  0  0  0  0  0  0  0
  149.3000  141.6045  156.1147 O   0  0  0  0  0  0  0  0  0  0  0  0
  150.6327  141.6590  156.5951 C   0  0  0  0  0  0  0  0  0  0  0  0
  150.6259  141.3533  158.1022 C   0  0  0  0  0  0  0  0  0  0  0  0
  151.6547  140.3880  158.4808 N   0  0  0  0  0  0  0  0  0  0  0  0
  152.7216  140.5504  159.3176 C   0  0  0  0  0  0  0  0  0  0  0  0
  153.0001  141.7409  160.0049 N   0  0  0  0  0  0  0  0  0  0  0  0
  153.8393  141.9141  161.1936 C   0  0  0  0  0  0  0  0  0  0  0  0
  153.1286  142.7277  162.2899 C   0  0  0  0  0  0  0  0  0  0  0  0
  152.7127  144.1026  161.7540 C   0  0  0  0  0  0  0  0  0  0  0  0
  151.9102  143.9401  160.4528 C   0  0  1  0  0  0  0  0  0  0  0  0
  151.5483  145.3002  159.8415 C   0  0  0  0  0  0  0  0  0  0  0  0
  152.6965  143.0649  159.4555 C   0  0  0  0  0  0  0  0  0  0  0  0
  153.5133  139.4780  159.4050 N   0  0  0  0  0  0  0  0  0  0  0  0
  152.9007  138.5553  158.5745 C   0  0  0  0  0  0  0  0  0  0  0  0
  151.7879  139.0802  157.9976 C   0  0  0  0  0  0  0  0  0  0  0  0
  150.9419  138.3436  157.0304 C   0  0  0  0  0  0  0  0  0  0  0  0
  149.9594  138.8707  156.5131 O   0  0  0  0  0  0  0  0  0  0  0  0
  151.3951  137.0687  156.8112 N   0  5  0  0  0  0  0  0  0  0  0  0
  152.5110  136.4960  157.3821 C   0  0  0  0  0  0  0  0  0  0  0  0
  152.8492  135.3387  157.1299 O   0  0  0  0  0  0  0  0  0  0  0  0
  153.2758  137.2215  158.2567 N   0  0  0  0  0  0  0  0  0  0  0  0
  154.4707  136.6405  158.8755 C   0  0  0  0  0  0  0  0  0  0  0  0
  147.7117  141.3934  153.1729 H   0  0  0  0  0  0  0  0  0  0  0  0
  147.5125  142.6286  154.4144 H   0  0  0  0  0  0  0  0  0  0  0  0
  147.0895  140.9523  154.7622 H   0  0  0  0  0  0  0  0  0  0  0  0
  149.5054  140.2946  154.5305 H   0  0  0  0  0  0  0  0  0  0  0  0
  149.9294  141.9683  154.1812 H   0  0  0  0  0  0  0  0  0  0  0  0
  151.2510  140.9427  156.0547 H   0  0  0  0  0  0  0  0  0  0  0  0
  151.0557  142.6450  156.4040 H   0  0  0  0  0  0  0  0  0  0  0  0
  150.7760  142.2691  158.6734 H   0  0  0  0  0  0  0  0  0  0  0  0
  149.6511  140.9904  158.4169 H   0  0  0  0  0  0  0  0  0  0  0  0
  154.1584  140.9547  161.5883 H   0  0  0  0  0  0  0  0  0  0  0  0
  154.7572  142.4239  160.8980 H   0  0  0  0  0  0  0  0  0  0  0  0
  152.2481  142.1921  162.6452 H   0  0  0  0  0  0  0  0  0  0  0  0
  153.7864  142.8469  163.1514 H   0  0  0  0  0  0  0  0  0  0  0  0
  152.1258  144.6362  162.5023 H   0  0  0  0  0  0  0  0  0  0  0  0
  153.6035  144.7037  161.5666 H   0  0  0  0  0  0  0  0  0  0  0  0
  150.9774  143.4253  160.6896 H   0  0  0  0  0  0  0  0  0  0  0  0
  152.4419  145.8649  159.5743 H   0  0  0  0  0  0  0  0  0  0  0  0
  150.9690  145.9032  160.5413 H   0  0  0  0  0  0  0  0  0  0  0  0
  150.9494  145.1776  158.9385 H   0  0  0  0  0  0  0  0  0  0  0  0
  153.6269  143.5563  159.1678 H   0  0  0  0  0  0  0  0  0  0  0  0
  152.1115  142.9574  158.5417 H   0  0  0  0  0  0  0  0  0  0  0  0
  154.2053  135.7632  159.4667 H   0  0  0  0  0  0  0  0  0  0  0  0
  154.9832  137.3371  159.5382 H   0  0  0  0  0  0  0  0  0  0  0  0
  155.1861  136.3336  158.1114 H   0  0  0  0  0  0  0  0  0  0  0  0
  1  2  1  0  0  0  0
  1 25  1  0  0  0  0
  1 26  1  0  0  0  0
  1 27  1  0  0  0  0
  2  3  1  0  0  0  0
  2 28  1  0  0  0  0
  2 29  1  0  0  0  0
  3  4  1  0  0  0  0
  4  5  1  0  0  0  0
  4 30  1  0  0  0  0
  4 31  1  0  0  0  0
  5  6  1  0  0  0  0
  5 32  1  0  0  0  0
  5 33  1  0  0  0  0
  6 17  1  0  0  0  0
  6  7  1  0  0  0  0
  7  8  1  0  0  0  0
  7 15  2  0  0  0  0
  8 14  1  0  0  0  0
  8  9  1  0  0  0  0
  9 10  1  0  0  0  0
  9 34  1  0  0  0  0
  9 35  1  0  0  0  0
 10 11  1  0  0  0  0
 10 36  1  0  0  0  0
 10 37  1  0  0  0  0
 11 12  1  0  0  0  0
 11 38  1  0  0  0  0
 11 39  1  0  0  0  0
 12 13  1  0  0  0  0
 12 14  1  0  0  0  0
 12 40  1  0  0  0  0
 13 41  1  0  0  0  0
 13 42  1  0  0  0  0
 13 43  1  0  0  0  0
 14 44  1  0  0  0  0
 14 45  1  0  0  0  0
 15 16  1  0  0  0  0
 16 23  1  0  0  0  0
 16 17  2  0  0  0  0
 17 18  1  0  0  0  0
 18 19  2  0  0  0  0
 18 20  1  0  0  0  0
 20 21  1  0  0  0  0
 21 22  2  0  0  0  0
 21 23  1  0  0  0  0
 23 24  1  0  0  0  0
 24 46  1  0  0  0  0
 24 47  1  0  0  0  0
 24 48  1  0  0  0  0
M  CHG  1  20  -1
M  END
> <s_m_source_file>
AV-unprocessed.smi

> <i_m_source_file_index>
544

> <i_lp_mmshare_version>
43012

> <i_f3d_flags>
0

> <s_epik_input>
W0NIM11uMWMoPU8pW25IXWMoPU8pYyhjMTIpbihbQ0gyXVtDSDJdT1tDSDJdW0NIM10pYyhuMilOM1tDSDJdW0NIMl1bQ0gyXVtDQEBIXShbQ0gzXSlbQ0gyXTM=

> <s_epik_cmdline>
J2VwaWtfcHl0aG9uJywgJy1waCcsICc3LjAnLCAnLXRuJywgJzgnLCAnLW1hJywgJzIwMCcsICctbWV0YWxfYmluZGluZycsICctaW1hZScsICc8aW5maWxlLm1hZT4nLCAnLW9tYWUnLCAnPG91dGZpbGUubWFlPic=

> <r_lp_tautomer_probability>
1

> <r_epik_Ionization_Penalty>
5.1213

> <r_epik_Ionization_Penalty_Charging>
0.0741877

> <r_epik_Ionization_Penalty_Neutral>
5.04711

> <r_epik_State_Penalty>
5.04142

> <r_epik_Charging_Adjusted_Penalty>
5.11561

> <i_epik_Tot_Q>
-1

> <i_epik_Tot_abs_Q>
1

> <r_epik_Metal_State_Penalty>
1.14934

> <b_epik_Metal_Only>
1

> <s_lp_Force_Field>
OPLS_2005

> <r_lp_Energy>
41.9091

> <b_lp_Chiralities_Consistent>
1

> <s_lp_Variant>
AV-unprocessed.smi:544-3

> <Gold.Version>
5.8.1

> <Gold.Id.Protein>
6NUR|6NUR_protein|mol2

> <Gold.PLP.Fitness>
51.4924

> <Gold.PLP.PLP>
-50.0038

> <Gold.PLP.part.hbond>
-1.0966

> <Gold.PLP.part.metal>
0.0000

> <Gold.PLP.part.buried>
-7.3760

> <Gold.PLP.part.nonpolar>
-41.2240

> <Gold.PLP.part.repulsive>
0.1779

> <Gold.PLP.ligand.clash>
0.0000

> <Gold.PLP.ligand.torsion>
0.8293

> <Gold.PLP.Chemscore.Hbond>
1.0000

> <Gold.PLP.Chemscore.CHOScore>
0.0000

> <Gold.PLP.Chemscore.Metal>
0.0000

> <Gold.Chemscore.Hbonds>
donor molecule, donor type, donor heavy atom, donor atom, acceptor molecule, acceptor atom, score
      P1  H 10752 10765       L1    22  1.00

> <Gold.PLP.Chemscore.Internal.Correction>
0.1471

> <Gold.Rescore>
     Score         DG    S(hbond)    S(metal)    S(lipo)     H(rot)  DE(clash)    DE(int)     intcor
     13.20     -16.84       0.90        0.00     105.27       1.55       0.06       3.58       ----

> <Gold.Chemscore.Fitness>
13.1988

> <Gold.Chemscore.DG>
-16.8416

> <Gold.Chemscore.ZeroCoef>
-5.4800

> <Gold.Chemscore.Hbond>
0.9046

> <Gold.Chemscore.Metal>
0.0000

> <Gold.Chemscore.Lipo>
105.2731

> <Gold.Chemscore.Internal_Hbond>
0.0000

> <Gold.Chemscore.DEClash>
0.0624

> <Gold.Chemscore.DEInternal>
3.5805

> <Gold.Chemscore.Rot>
1.5534

> <Gold.Chemscore.Internal.Correction>
   9.000000E+99

> <Gold.Chemscore.Hbonds>
donor molecule, donor type, donor heavy atom, donor atom, acceptor molecule, acceptor atom, score
      P1  H 10752 10765       L1    22  0.55

> <Gold.Chemscore.Hbond.Weighted>
-3.0215

> <Gold.Chemscore.Metal.Weighted>
-0.0000

> <Gold.Chemscore.Lipo.Weighted>
-12.3169

> <Gold.Chemscore.Internal_Hbond.Weighted>
0.0000

> <Gold.Chemscore.DEClash.Weighted>
0.0624

> <Gold.Chemscore.DEInternal.Weighted>
3.5805

> <Gold.Chemscore.Rot.Weighted>
3.9768

> <Gold.Chemscore.Internal.Correction.Weighted>
   9.000000E+99

> <Gold.Protein.RotatedTorsions>
[ 6907 6896 6895 6894 ] final  175.81 input  -60.11 | X-H torsion
[ 7974 7965 7964 7962 ] final -170.16 input  175.53 | X-H torsion
[ 8008 7997 7996 7995 ] final  141.58 input   59.86 | X-H torsion
[ 10167 10162 10161 10158 ] final  169.05 input  -65.29 | X-H torsion
[ 10718 10713 10712 10709 ] final  -44.49 input   66.30 | X-H torsion
[ 10763 10752 10751 10750 ] final -125.84 input  -60.55 | X-H torsion
[ 11005 11000 10999 10996 ] final  -74.17 input  -57.11 | X-H torsion

> <Gold.Protein.ActiveResidues>
 VAL166  LYS551  ARG553  GLY616  TRP617  ASP618  TYR619  PRO620  LYS621  CYS622 
 ASP623  PHE694  ASN695  SER759  ASP760  ASP761  ALA762  ILE779  LEU786  VAL792 
 PHE793  MET794  SER795  GLU796  ALA797  LYS798  CYS799  TRP800  GLU811  SER814 

> <Gold.Protein.RotatedAtoms>
  151.7303  133.3317  159.3338 H   0  0  0  0  0  0  0  0  0  0  0  0  # atno 6907 bound_to 6896
  150.7615  134.6369  159.6226 H   0  0  0  0  0  0  0  0  0  0  0  0  # atno 6908 bound_to 6896
  152.3596  134.6893  160.0263 H   0  0  0  0  0  0  0  0  0  0  0  0  # atno 6909 bound_to 6896
  144.7174  140.2113  143.6327 H   0  0  0  0  0  0  0  0  0  0  0  0  # atno 7974 bound_to 7965
  156.2963  140.2311  156.4588 H   0  0  0  0  0  0  0  0  0  0  0  0  # atno 8008 bound_to 7997
  154.8037  140.0447  157.1312 H   0  0  0  0  0  0  0  0  0  0  0  0  # atno 8009 bound_to 7997
  154.9504  140.3041  155.5081 H   0  0  0  0  0  0  0  0  0  0  0  0  # atno 8010 bound_to 7997
  139.4982  144.3749  151.9685 H   0  0  0  0  0  0  0  0  0  0  0  0  # atno 10167 bound_to 10162
  156.2380  130.4177  149.8794 H   0  0  0  0  0  0  0  0  0  0  0  0  # atno 10718 bound_to 10713
  154.8740  135.4016  154.3333 H   0  0  0  0  0  0  0  0  0  0  0  0  # atno 10763 bound_to 10752
  153.4144  135.7021  153.6342 H   0  0  0  0  0  0  0  0  0  0  0  0  # atno 10764 bound_to 10752
  153.5032  135.3723  155.2520 H   0  0  0  0  0  0  0  0  0  0  0  0  # atno 10765 bound_to 10752
  141.1632  133.6902  156.7324 H   0  0  0  0  0  0  0  0  0  0  0  0  # atno 11005 bound_to 11000
  145.8588  139.2212  143.1729 LP  0  0  0  0  0  0  0  0  0  0  0  0  # atno 17320 bound_to 7965
  146.0193  140.8363  142.9931 LP  0  0  0  0  0  0  0  0  0  0  0  0  # atno 17321 bound_to 7965
  140.3185  144.3456  150.6015 LP  0  0  0  0  0  0  0  0  0  0  0  0  # atno 17342 bound_to 10162
  140.5742  143.2178  151.7545 LP  0  0  0  0  0  0  0  0  0  0  0  0  # atno 17343 bound_to 10162
  156.6386  130.8695  151.3509 LP  0  0  0  0  0  0  0  0  0  0  0  0  # atno 17370 bound_to 10713
  157.7163  130.9501  150.1267 LP  0  0  0  0  0  0  0  0  0  0  0  0  # atno 17371 bound_to 10713
  140.2735  134.8373  157.3869 LP  0  0  0  0  0  0  0  0  0  0  0  0  # atno 17394 bound_to 11000
  140.1499  134.4863  155.7969 LP  0  0  0  0  0  0  0  0  0  0  0  0  # atno 17395 bound_to 11000

$$$$
