AV-unprocessed.smi:1870|AV-procd|sdf|7594|dock10
  -GOLD-   22720 9303D 1   1.00000     0.00000
 Structure written by MMmdl.
 48 50  0  0  0  0  0  0  0  0  2 V2000
  147.4382  137.3084  163.1212 C   0  0  0  0  0  0  0  0  0  0  0  0
  147.8179  136.2993  162.0713 C   0  0  0  0  0  0  0  0  0  0  0  0
  148.4062  136.7557  161.0147 N   0  0  0  0  0  0  0  0  0  0  0  0
  148.7951  135.9176  159.9878 N   0  0  0  0  0  0  0  0  0  0  0  0
  149.4598  136.6051  158.8724 C   0  0  0  0  0  0  0  0  0  0  0  0
  150.4236  137.7200  159.3381 C   0  0  1  0  0  0  0  0  0  0  0  0
  151.5704  137.0890  159.8726 O   0  0  0  0  0  0  0  0  0  0  0  0
  150.8552  138.6657  158.1942 C   0  0  0  0  0  0  0  0  0  0  0  0
  151.3033  140.0002  158.6702 N   0  3  1  0  0  0  0  0  0  0  0  0
  152.7071  139.9846  159.1443 C   0  0  0  0  0  0  0  0  0  0  0  0
  153.0140  141.2673  159.9271 C   0  0  0  0  0  0  0  0  0  0  0  0
  152.6005  142.5159  159.1703 C   0  0  0  0  0  0  0  0  0  0  0  0
  153.1284  143.7688  159.5446 C   0  0  0  0  0  0  0  0  0  0  0  0
  152.7236  144.9366  158.8706 C   0  0  0  0  0  0  0  0  0  0  0  0
  151.7882  144.8552  157.8218 C   0  0  0  0  0  0  0  0  0  0  0  0
  151.2575  143.6062  157.4462 C   0  0  0  0  0  0  0  0  0  0  0  0
  151.6582  142.4316  158.1169 C   0  0  0  0  0  0  0  0  0  0  0  0
  151.0841  141.0886  157.6789 C   0  0  0  0  0  0  0  0  0  0  0  0
  148.5890  134.5698  159.9664 C   0  0  0  0  0  0  0  0  0  0  0  0
  148.9360  133.8625  159.0197 O   0  0  0  0  0  0  0  0  0  0  0  0
  147.9312  134.0574  161.1703 C   0  0  0  0  0  0  0  0  0  0  0  0
  147.7096  132.6476  161.1956 C   0  0  0  0  0  0  0  0  0  0  0  0
  147.5493  131.5013  161.2105 N   0  0  0  0  0  0  0  0  0  0  0  0
  147.5595  134.8680  162.1925 C   0  0  0  0  0  0  0  0  0  0  0  0
  146.8714  134.3834  163.4613 C   0  0  0  0  0  0  0  0  0  0  0  0
  146.3854  137.2138  163.3887 H   0  0  0  0  0  0  0  0  0  0  0  0
  147.5968  138.3320  162.7778 H   0  0  0  0  0  0  0  0  0  0  0  0
  148.0317  137.1671  164.0248 H   0  0  0  0  0  0  0  0  0  0  0  0
  150.0015  135.8724  158.2709 H   0  0  0  0  0  0  0  0  0  0  0  0
  148.7111  137.0299  158.2002 H   0  0  0  0  0  0  0  0  0  0  0  0
  149.9470  138.2788  160.1420 H   0  0  0  0  0  0  0  0  0  0  0  0
  152.2561  137.7310  159.9747 H   0  0  0  0  0  0  0  0  0  0  0  0
  151.6614  138.1839  157.6388 H   0  0  0  0  0  0  0  0  0  0  0  0
  150.0415  138.8113  157.4826 H   0  0  0  0  0  0  0  0  0  0  0  0
  152.8887  139.1243  159.7900 H   0  0  0  0  0  0  0  0  0  0  0  0
  153.3771  139.8866  158.2884 H   0  0  0  0  0  0  0  0  0  0  0  0
  152.4820  141.2564  160.8791 H   0  0  0  0  0  0  0  0  0  0  0  0
  154.0785  141.3145  160.1604 H   0  0  0  0  0  0  0  0  0  0  0  0
  153.8409  143.8384  160.3539 H   0  0  0  0  0  0  0  0  0  0  0  0
  153.1287  145.8953  159.1600 H   0  0  0  0  0  0  0  0  0  0  0  0
  151.4781  145.7517  157.3050 H   0  0  0  0  0  0  0  0  0  0  0  0
  150.5432  143.5523  156.6374 H   0  0  0  0  0  0  0  0  0  0  0  0
  151.5425  140.8177  156.7267 H   0  0  0  0  0  0  0  0  0  0  0  0
  150.0177  141.2187  157.4971 H   0  0  0  0  0  0  0  0  0  0  0  0
  146.8690  133.2964  163.5384 H   0  0  0  0  0  0  0  0  0  0  0  0
  145.8348  134.7205  163.4814 H   0  0  0  0  0  0  0  0  0  0  0  0
  147.3756  134.7670  164.3488 H   0  0  0  0  0  0  0  0  0  0  0  0
  150.7418  140.2187  159.4807 H   0  0  0  0  0  0  0  0  0  0  0  0
  1  2  1  0  0  0  0
  1 26  1  0  0  0  0
  1 27  1  0  0  0  0
  1 28  1  0  0  0  0
  2 24  1  0  0  0  0
  2  3  2  0  0  0  0
  3  4  1  0  0  0  0
  4  5  1  0  0  0  0
  4 19  1  0  0  0  0
  5  6  1  0  0  0  0
  5 29  1  0  0  0  0
  5 30  1  0  0  0  0
  6  7  1  0  0  0  0
  6  8  1  0  0  0  0
  6 31  1  0  0  0  0
  7 32  1  0  0  0  0
  8  9  1  0  0  0  0
  8 33  1  0  0  0  0
  8 34  1  0  0  0  0
  9 18  1  0  0  0  0
  9 10  1  0  0  0  0
  9 48  1  0  0  0  0
 10 11  1  0  0  0  0
 10 35  1  0  0  0  0
 10 36  1  0  0  0  0
 11 12  1  0  0  0  0
 11 37  1  0  0  0  0
 11 38  1  0  0  0  0
 12 17  2  0  0  0  0
 12 13  1  0  0  0  0
 13 14  2  0  0  0  0
 13 39  1  0  0  0  0
 14 15  1  0  0  0  0
 14 40  1  0  0  0  0
 15 16  2  0  0  0  0
 15 41  1  0  0  0  0
 16 17  1  0  0  0  0
 16 42  1  0  0  0  0
 17 18  1  0  0  0  0
 18 43  1  0  0  0  0
 18 44  1  0  0  0  0
 19 20  2  0  0  0  0
 19 21  1  0  0  0  0
 21 22  1  0  0  0  0
 21 24  2  0  0  0  0
 22 23  3  0  0  0  0
 24 25  1  0  0  0  0
 25 45  1  0  0  0  0
 25 46  1  0  0  0  0
 25 47  1  0  0  0  0
M  CHG  1   9   1
M  END
> <s_m_source_file>
AV-unprocessed.smi

> <i_m_source_file_index>
1870

> <i_lp_mmshare_version>
43012

> <i_f3d_flags>
0

> <s_epik_input>
TiNDYyhjMVtDSDNdKWMoPU8pbihuYzFbQ0gzXSlbQ0gyXVtDQEhdKFtPSF0pW0NIMl1OKFtDSDJdW0NIMl0yKVtDSDJdYyhjMjMpW2NIXVtjSF1bY0hdW2NIXTM=

> <s_epik_cmdline>
J2VwaWtfcHl0aG9uJywgJy1waCcsICc3LjAnLCAnLXRuJywgJzgnLCAnLW1hJywgJzIwMCcsICctbWV0YWxfYmluZGluZycsICctaW1hZScsICc8aW5maWxlLm1hZT4nLCAnLW9tYWUnLCAnPG91dGZpbGUubWFlPic=

> <r_epik_Ionization_Penalty>
0.0122865

> <r_epik_Ionization_Penalty_Charging>
0.0122864

> <r_epik_Ionization_Penalty_Neutral>
1.48087e-07

> <r_epik_State_Penalty>
0.00950248

> <r_epik_Charging_Adjusted_Penalty>
0.0217889

> <i_epik_Tot_Q>
1

> <i_epik_Tot_abs_Q>
1

> <r_epik_Metal_State_Penalty>
0.00950248

> <b_epik_Metal_Only>
0

> <s_lp_Force_Field>
OPLS_2005

> <r_lp_Energy>
36.9803

> <b_lp_Chiralities_Consistent>
1

> <s_lp_Variant>
AV-unprocessed.smi:1870-2

> <Gold.Version>
5.8.1

> <Gold.Id.Protein>
6NUR|6NUR_protein|mol2

> <Gold.PLP.Fitness>
54.6124

> <Gold.PLP.PLP>
-48.3632

> <Gold.PLP.part.hbond>
-3.4371

> <Gold.PLP.part.metal>
0.0000

> <Gold.PLP.part.buried>
0.4564

> <Gold.PLP.part.nonpolar>
-44.9282

> <Gold.PLP.part.repulsive>
0.1605

> <Gold.PLP.ligand.clash>
0.0000

> <Gold.PLP.ligand.torsion>
0.9066

> <Gold.PLP.Chemscore.Hbond>
2.6676

> <Gold.PLP.Chemscore.CHOScore>
0.0000

> <Gold.PLP.Chemscore.Metal>
0.0000

> <Gold.Chemscore.Hbonds>
donor molecule, donor type, donor heavy atom, donor atom, acceptor molecule, acceptor atom, score
      P1  H  6896  6907       L1    20  0.85
      P1  H  6896  6908       L1     7  1.00
      P1  H  6931  6943       L1     3  0.65

> <Gold.PLP.Chemscore.Internal.Correction>
0.0596

> <Gold.Rescore>
     Score         DG    S(hbond)    S(metal)    S(lipo)     H(rot)  DE(clash)    DE(int)     intcor
     20.57     -21.70       1.55        0.00     141.83       2.16       0.32       0.81       ----

> <Gold.Chemscore.Fitness>
20.5693

> <Gold.Chemscore.DG>
-21.7004

> <Gold.Chemscore.ZeroCoef>
-5.4800

> <Gold.Chemscore.Hbond>
1.5457

> <Gold.Chemscore.Metal>
0.0000

> <Gold.Chemscore.Lipo>
141.8318

> <Gold.Chemscore.Internal_Hbond>
0.0000

> <Gold.Chemscore.DEClash>
0.3173

> <Gold.Chemscore.DEInternal>
0.8138

> <Gold.Chemscore.Rot>
2.1628

> <Gold.Chemscore.Internal.Correction>
   9.000000E+99

> <Gold.Chemscore.Hbonds>
donor molecule, donor type, donor heavy atom, donor atom, acceptor molecule, acceptor atom, score
      P1  H  6896  6907       L1    20  0.16
      P1  H  6896  6908       L1     7  0.98
      P1  H  6931  6943       L1     3  0.06

> <Gold.Chemscore.Hbond.Weighted>
-5.1628

> <Gold.Chemscore.Metal.Weighted>
-0.0000

> <Gold.Chemscore.Lipo.Weighted>
-16.5943

> <Gold.Chemscore.Internal_Hbond.Weighted>
0.0000

> <Gold.Chemscore.DEClash.Weighted>
0.3173

> <Gold.Chemscore.DEInternal.Weighted>
0.8138

> <Gold.Chemscore.Rot.Weighted>
5.5367

> <Gold.Chemscore.Internal.Correction.Weighted>
   9.000000E+99

> <Gold.Protein.RotatedTorsions>
[ 6907 6896 6895 6894 ] final -114.29 input  -60.11 | X-H torsion
[ 7974 7965 7964 7962 ] final  140.98 input  175.53 | X-H torsion
[ 8008 7997 7996 7995 ] final -160.29 input   59.86 | X-H torsion
[ 10167 10162 10161 10158 ] final   87.63 input  -65.29 | X-H torsion
[ 10718 10713 10712 10709 ] final   87.56 input   66.30 | X-H torsion
[ 10763 10752 10751 10750 ] final  139.13 input  -60.55 | X-H torsion
[ 11005 11000 10999 10996 ] final  -82.62 input  -57.11 | X-H torsion

> <Gold.Protein.ActiveResidues>
 VAL166  LYS551  ARG553  GLY616  TRP617  ASP618  TYR619  PRO620  LYS621  CYS622 
 ASP623  PHE694  ASN695  SER759  ASP760  ASP761  ALA762  ILE779  LEU786  VAL792 
 PHE793  MET794  SER795  GLU796  ALA797  LYS798  CYS799  TRP800  GLU811  SER814 

> <Gold.Protein.RotatedAtoms>
  150.7891  133.8823  159.3289 H   0  0  0  0  0  0  0  0  0  0  0  0  # atno 6907 bound_to 6896
  151.6665  135.0980  160.0199 H   0  0  0  0  0  0  0  0  0  0  0  0  # atno 6908 bound_to 6896
  152.3961  133.6710  159.6313 H   0  0  0  0  0  0  0  0  0  0  0  0  # atno 6909 bound_to 6896
  144.9137  139.5258  143.5696 H   0  0  0  0  0  0  0  0  0  0  0  0  # atno 7974 bound_to 7965
  155.7752  140.0857  157.2087 H   0  0  0  0  0  0  0  0  0  0  0  0  # atno 8008 bound_to 7997
  154.3993  140.1518  156.3046 H   0  0  0  0  0  0  0  0  0  0  0  0  # atno 8009 bound_to 7997
  155.8708  140.3425  155.5822 H   0  0  0  0  0  0  0  0  0  0  0  0  # atno 8010 bound_to 7997
  139.8754  144.6470  150.8902 H   0  0  0  0  0  0  0  0  0  0  0  0  # atno 10167 bound_to 10162
  157.6941  131.0260  150.3142 H   0  0  0  0  0  0  0  0  0  0  0  0  # atno 10718 bound_to 10713
  153.9011  135.3022  155.3448 H   0  0  0  0  0  0  0  0  0  0  0  0  # atno 10763 bound_to 10752
  154.7670  135.4905  153.9576 H   0  0  0  0  0  0  0  0  0  0  0  0  # atno 10764 bound_to 10752
  153.1244  135.6790  153.9381 H   0  0  0  0  0  0  0  0  0  0  0  0  # atno 10765 bound_to 10752
  141.1662  133.7253  156.8599 H   0  0  0  0  0  0  0  0  0  0  0  0  # atno 11005 bound_to 11000
  146.3171  139.7963  142.8975 LP  0  0  0  0  0  0  0  0  0  0  0  0  # atno 17320 bound_to 7965
  145.3411  141.0288  143.3392 LP  0  0  0  0  0  0  0  0  0  0  0  0  # atno 17321 bound_to 7965
  140.7754  143.3629  151.1794 LP  0  0  0  0  0  0  0  0  0  0  0  0  # atno 17342 bound_to 10162
  139.7245  143.9170  152.2997 LP  0  0  0  0  0  0  0  0  0  0  0  0  # atno 17343 bound_to 10162
  156.3639  130.3851  149.7229 LP  0  0  0  0  0  0  0  0  0  0  0  0  # atno 17370 bound_to 10713
  156.4667  130.7977  151.2996 LP  0  0  0  0  0  0  0  0  0  0  0  0  # atno 17371 bound_to 10713
  140.1856  134.9002  157.3000 LP  0  0  0  0  0  0  0  0  0  0  0  0  # atno 17394 bound_to 11000
  140.2346  134.3868  155.7506 LP  0  0  0  0  0  0  0  0  0  0  0  0  # atno 17395 bound_to 11000

$$$$
