AV-unprocessed.smi:3348|AV-procd|sdf|12929|dock1
  -GOLD-   2272019353D 1   1.00000     0.00000
 Structure written by MMmdl.
 46 47  0  0  0  0  0  0  0  0  1 V2000
  147.6617  140.2653  156.3416 C   0  0  0  0  0  0  0  0  0  0  0  0
  148.3684  141.4518  155.6717 C   0  0  2  0  0  0  0  0  0  0  0  0
  149.0711  140.9813  154.3747 C   0  0  0  0  0  0  0  0  0  0  0  0
  149.8964  139.7982  154.5369 N   0  0  0  0  0  0  0  0  0  0  0  0
  149.5100  138.4740  154.5010 C   0  0  0  0  0  0  0  0  0  0  0  0
  150.6301  137.7191  154.7013 C   0  0  0  0  0  0  0  0  0  0  0  0
  151.6665  138.6838  154.8445 C   0  0  0  0  0  0  0  0  0  0  0  0
  151.2253  139.9274  154.7425 N   0  0  0  0  0  0  0  0  0  0  0  0
  149.3147  142.0417  156.6236 N   0  0  0  0  0  0  0  0  0  0  0  0
  150.3875  141.1526  157.0698 C   0  0  0  0  0  0  0  0  0  0  0  0
  150.9039  141.5670  158.4496 C   0  0  0  0  0  0  0  0  0  0  0  0
  152.0121  142.4327  158.2527 O   0  0  0  0  0  0  0  0  0  0  0  0
  152.6330  142.8927  159.4456 C   0  0  1  0  0  0  0  0  0  0  0  0
  151.6777  143.8453  160.1956 C   0  0  0  0  0  0  0  0  0  0  0  0
  152.2442  144.2521  161.5641 C   0  0  0  0  0  0  0  0  0  0  0  0
  152.5650  143.0169  162.4169 C   0  0  0  0  0  0  0  0  0  0  0  0
  153.5250  142.0720  161.6784 C   0  0  0  0  0  0  0  0  0  0  0  0
  152.9683  141.6511  160.3034 C   0  0  2  0  0  0  0  0  0  0  0  0
  153.9503  140.7104  159.5851 C   0  0  0  0  0  0  0  0  0  0  0  0
  146.9195  139.8241  155.6757 H   0  0  0  0  0  0  0  0  0  0  0  0
  147.1419  140.5775  157.2478 H   0  0  0  0  0  0  0  0  0  0  0  0
  148.3696  139.4821  156.6158 H   0  0  0  0  0  0  0  0  0  0  0  0
  147.5985  142.1825  155.4195 H   0  0  0  0  0  0  0  0  0  0  0  0
  148.3324  140.7836  153.5963 H   0  0  0  0  0  0  0  0  0  0  0  0
  149.7110  141.7770  153.9907 H   0  0  0  0  0  0  0  0  0  0  0  0
  148.4812  138.1835  154.3467 H   0  0  0  0  0  0  0  0  0  0  0  0
  150.6977  136.6421  154.7405 H   0  0  0  0  0  0  0  0  0  0  0  0
  152.7196  138.5180  155.0181 H   0  0  0  0  0  0  0  0  0  0  0  0
  149.7230  142.8809  156.2246 H   0  0  0  0  0  0  0  0  0  0  0  0
  150.0721  140.1125  157.1040 H   0  0  0  0  0  0  0  0  0  0  0  0
  151.2062  141.1966  156.3511 H   0  0  0  0  0  0  0  0  0  0  0  0
  150.1170  142.1044  158.9806 H   0  0  0  0  0  0  0  0  0  0  0  0
  151.1674  140.6941  159.0472 H   0  0  0  0  0  0  0  0  0  0  0  0
  153.5631  143.4140  159.2102 H   0  0  0  0  0  0  0  0  0  0  0  0
  151.4889  144.7422  159.6067 H   0  0  0  0  0  0  0  0  0  0  0  0
  150.7114  143.3583  160.3337 H   0  0  0  0  0  0  0  0  0  0  0  0
  153.1483  144.8460  161.4241 H   0  0  0  0  0  0  0  0  0  0  0  0
  151.5316  144.8908  162.0869 H   0  0  0  0  0  0  0  0  0  0  0  0
  153.0028  143.3246  163.3670 H   0  0  0  0  0  0  0  0  0  0  0  0
  151.6424  142.4870  162.6580 H   0  0  0  0  0  0  0  0  0  0  0  0
  154.4900  142.5647  161.5499 H   0  0  0  0  0  0  0  0  0  0  0  0
  153.7092  141.1894  162.2920 H   0  0  0  0  0  0  0  0  0  0  0  0
  152.0438  141.0966  160.4728 H   0  0  0  0  0  0  0  0  0  0  0  0
  154.8929  141.2133  159.3668 H   0  0  0  0  0  0  0  0  0  0  0  0
  153.5395  140.3517  158.6411 H   0  0  0  0  0  0  0  0  0  0  0  0
  154.1735  139.8351  160.1956 H   0  0  0  0  0  0  0  0  0  0  0  0
  1  2  1  0  0  0  0
  1 20  1  0  0  0  0
  1 21  1  0  0  0  0
  1 22  1  0  0  0  0
  2  3  1  0  0  0  0
  2  9  1  0  0  0  0
  2 23  1  0  0  0  0
  3  4  1  0  0  0  0
  3 24  1  0  0  0  0
  3 25  1  0  0  0  0
  4  8  1  0  0  0  0
  4  5  1  0  0  0  0
  5  6  2  0  0  0  0
  5 26  1  0  0  0  0
  6  7  1  0  0  0  0
  6 27  1  0  0  0  0
  7  8  2  0  0  0  0
  7 28  1  0  0  0  0
  9 10  1  0  0  0  0
  9 29  1  0  0  0  0
 10 11  1  0  0  0  0
 10 30  1  0  0  0  0
 10 31  1  0  0  0  0
 11 12  1  0  0  0  0
 11 32  1  0  0  0  0
 11 33  1  0  0  0  0
 12 13  1  0  0  0  0
 13 18  1  0  0  0  0
 13 14  1  0  0  0  0
 13 34  1  0  0  0  0
 14 15  1  0  0  0  0
 14 35  1  0  0  0  0
 14 36  1  0  0  0  0
 15 16  1  0  0  0  0
 15 37  1  0  0  0  0
 15 38  1  0  0  0  0
 16 17  1  0  0  0  0
 16 39  1  0  0  0  0
 16 40  1  0  0  0  0
 17 18  1  0  0  0  0
 17 41  1  0  0  0  0
 17 42  1  0  0  0  0
 18 19  1  0  0  0  0
 18 43  1  0  0  0  0
 19 44  1  0  0  0  0
 19 45  1  0  0  0  0
 19 46  1  0  0  0  0
M  END
> <s_m_source_file>
AV-unprocessed.smi

> <i_m_source_file_index>
3348

> <i_lp_mmshare_version>
43012

> <i_f3d_flags>
0

> <s_epik_input>
bjFbY0hdW2NIXVtjSF1uMVtDSDJdW0NAQEhdKFtDSDNdKVtOSF1bQ0gyXVtDSDJdT1tDQEBIXTJbQ0gyXVtDSDJdW0NIMl1bQ0gyXVtDQEhdMltDSDNd

> <s_epik_cmdline>
J2VwaWtfcHl0aG9uJywgJy1waCcsICc3LjAnLCAnLXRuJywgJzgnLCAnLW1hJywgJzIwMCcsICctbWV0YWxfYmluZGluZycsICctaW1hZScsICc8aW5maWxlLm1hZT4nLCAnLW9tYWUnLCAnPG91dGZpbGUubWFlPic=

> <r_lp_tautomer_probability>
1

> <r_epik_Ionization_Penalty>
2.46945

> <r_epik_Ionization_Penalty_Charging>
0

> <r_epik_Ionization_Penalty_Neutral>
2.46945

> <r_epik_State_Penalty>
2.6322

> <r_epik_Charging_Adjusted_Penalty>
2.6322

> <i_epik_Tot_Q>
0

> <i_epik_Tot_abs_Q>
0

> <r_epik_Metal_State_Penalty>
2.63217

> <b_epik_Metal_Only>
0

> <s_lp_Force_Field>
OPLS_2005

> <r_lp_Energy>
18.1963

> <b_lp_Chiralities_Consistent>
1

> <s_lp_Variant>
AV-unprocessed.smi:3348-15

> <Gold.Version>
5.8.1

> <Gold.Id.Protein>
6NUR|6NUR_protein|mol2

> <Gold.PLP.Fitness>
49.6482

> <Gold.PLP.PLP>
-46.2421

> <Gold.PLP.part.hbond>
-1.9850

> <Gold.PLP.part.metal>
0.0000

> <Gold.PLP.part.buried>
-4.9999

> <Gold.PLP.part.nonpolar>
-40.2915

> <Gold.PLP.part.repulsive>
0.0925

> <Gold.PLP.ligand.clash>
0.0000

> <Gold.PLP.ligand.torsion>
0.8014

> <Gold.PLP.Chemscore.Hbond>
1.6100

> <Gold.PLP.Chemscore.CHOScore>
0.0000

> <Gold.PLP.Chemscore.Metal>
0.0000

> <Gold.Chemscore.Hbonds>
donor molecule, donor type, donor heavy atom, donor atom, acceptor molecule, acceptor atom, score
      L1  H     9    29       P1  8028  0.53
      P1  H  7989  7998       L1     8  1.00

> <Gold.PLP.Chemscore.Internal.Correction>
0.1790

> <Gold.Rescore>
     Score         DG    S(hbond)    S(metal)    S(lipo)     H(rot)  DE(clash)    DE(int)     intcor
     17.57     -20.74       1.58        0.00     123.03       1.72       0.02       3.15       ----

> <Gold.Chemscore.Fitness>
17.5701

> <Gold.Chemscore.DG>
-20.7387

> <Gold.Chemscore.ZeroCoef>
-5.4800

> <Gold.Chemscore.Hbond>
1.5798

> <Gold.Chemscore.Metal>
0.0000

> <Gold.Chemscore.Lipo>
123.0304

> <Gold.Chemscore.Internal_Hbond>
0.0000

> <Gold.Chemscore.DEClash>
0.0223

> <Gold.Chemscore.DEInternal>
3.1462

> <Gold.Chemscore.Rot>
1.7237

> <Gold.Chemscore.Internal.Correction>
   9.000000E+99

> <Gold.Chemscore.Hbonds>
donor molecule, donor type, donor heavy atom, donor atom, acceptor molecule, acceptor atom, score
      L1  H     9    29       P1  8028  0.53
      P1  H  7989  7998       L1     8  0.29

> <Gold.Chemscore.Hbond.Weighted>
-5.2767

> <Gold.Chemscore.Metal.Weighted>
-0.0000

> <Gold.Chemscore.Lipo.Weighted>
-14.3946

> <Gold.Chemscore.Internal_Hbond.Weighted>
0.0000

> <Gold.Chemscore.DEClash.Weighted>
0.0223

> <Gold.Chemscore.DEInternal.Weighted>
3.1462

> <Gold.Chemscore.Rot.Weighted>
4.4126

> <Gold.Chemscore.Internal.Correction.Weighted>
   9.000000E+99

> <Gold.Protein.RotatedTorsions>
[ 6907 6896 6895 6894 ] final   79.10 input  -60.11 | X-H torsion
[ 7974 7965 7964 7962 ] final  -85.07 input  175.53 | X-H torsion
[ 8008 7997 7996 7995 ] final  -99.98 input   59.86 | X-H torsion
[ 10167 10162 10161 10158 ] final -115.26 input  -65.29 | X-H torsion
[ 10718 10713 10712 10709 ] final   45.07 input   66.30 | X-H torsion
[ 10763 10752 10751 10750 ] final -124.39 input  -60.55 | X-H torsion
[ 11005 11000 10999 10996 ] final -104.80 input  -57.11 | X-H torsion

> <Gold.Protein.ActiveResidues>
 VAL166  LYS551  ARG553  GLY616  TRP617  ASP618  TYR619  PRO620  LYS621  CYS622 
 ASP623  PHE694  ASN695  SER759  ASP760  ASP761  ALA762  ILE779  LEU786  VAL792 
 PHE793  MET794  SER795  GLU796  ALA797  LYS798  CYS799  TRP800  GLU811  SER814 

> <Gold.Protein.RotatedAtoms>
  152.5185  134.3563  159.9268 H   0  0  0  0  0  0  0  0  0  0  0  0  # atno 6907 bound_to 6896
  151.3514  133.3917  159.2688 H   0  0  0  0  0  0  0  0  0  0  0  0  # atno 6908 bound_to 6896
  150.9724  134.9113  159.7854 H   0  0  0  0  0  0  0  0  0  0  0  0  # atno 6909 bound_to 6896
  145.4981  140.9549  143.1775 H   0  0  0  0  0  0  0  0  0  0  0  0  # atno 7974 bound_to 7965
  154.8222  140.0444  157.1419 H   0  0  0  0  0  0  0  0  0  0  0  0  # atno 8008 bound_to 7997
  154.9246  140.3031  155.5178 H   0  0  0  0  0  0  0  0  0  0  0  0  # atno 8009 bound_to 7997
  156.2981  140.2334  156.4300 H   0  0  0  0  0  0  0  0  0  0  0  0  # atno 8010 bound_to 7997
  140.0920  143.4691  152.1864 H   0  0  0  0  0  0  0  0  0  0  0  0  # atno 10167 bound_to 10162
  157.4336  130.8039  149.7627 H   0  0  0  0  0  0  0  0  0  0  0  0  # atno 10718 bound_to 10713
  154.8722  135.4065  154.3098 H   0  0  0  0  0  0  0  0  0  0  0  0  # atno 10763 bound_to 10752
  153.3944  135.7016  153.6477 H   0  0  0  0  0  0  0  0  0  0  0  0  # atno 10764 bound_to 10752
  153.5246  135.3680  155.2619 H   0  0  0  0  0  0  0  0  0  0  0  0  # atno 10765 bound_to 10752
  141.1083  133.8754  157.1656 H   0  0  0  0  0  0  0  0  0  0  0  0  # atno 11005 bound_to 11000
  144.7795  139.6556  143.7160 LP  0  0  0  0  0  0  0  0  0  0  0  0  # atno 17320 bound_to 7965
  146.2243  139.5693  142.9598 LP  0  0  0  0  0  0  0  0  0  0  0  0  # atno 17321 bound_to 7965
  139.5719  144.7467  151.3867 LP  0  0  0  0  0  0  0  0  0  0  0  0  # atno 17342 bound_to 10162
  140.7023  143.7600  150.7424 LP  0  0  0  0  0  0  0  0  0  0  0  0  # atno 17343 bound_to 10162
  155.9922  130.3932  150.2951 LP  0  0  0  0  0  0  0  0  0  0  0  0  # atno 17370 bound_to 10713
  157.1110  131.0221  151.3048 LP  0  0  0  0  0  0  0  0  0  0  0  0  # atno 17371 bound_to 10713
  139.9964  135.0045  157.0093 LP  0  0  0  0  0  0  0  0  0  0  0  0  # atno 17394 bound_to 11000
  140.4842  134.1258  155.7222 LP  0  0  0  0  0  0  0  0  0  0  0  0  # atno 17395 bound_to 11000

$$$$
