AV-unprocessed.smi:1184|AV-procd|sdf|4969|dock3
  -GOLD-   22720 3563D 1   1.00000     0.00000
 Structure written by MMmdl.
 43 44  0  0  0  0  0  0  0  0  2 V2000
  148.0143  136.6740  156.3496 C   0  0  0  0  0  0  0  0  0  0  0  0
  148.1497  136.4745  154.8331 C   0  0  0  0  0  0  0  0  0  0  0  0
  149.0509  137.4761  154.2169 N   0  3  1  0  0  0  0  0  0  0  0  0
  148.5351  138.8660  154.2317 C   0  0  0  0  0  0  0  0  0  0  0  0
  149.7177  139.7788  154.5907 C   0  0  0  0  0  0  0  0  0  0  0  0
  150.9521  138.8967  154.4111 C   0  0  1  0  0  0  0  0  0  0  0  0
  152.1877  139.3451  155.2196 C   0  0  0  0  0  0  0  0  0  0  0  0
  151.8383  139.6382  156.6044 N   0  0  0  0  0  0  0  0  0  0  0  0
  152.4874  139.1719  157.6821 C   0  0  0  0  0  0  0  0  0  0  0  0
  153.5660  138.5821  157.6250 O   0  0  0  0  0  0  0  0  0  0  0  0
  151.7723  139.3406  159.0219 C   0  0  0  0  0  0  0  0  0  0  0  0
  151.7929  140.8019  159.3987 C   0  0  0  0  0  0  0  0  0  0  0  0
  152.7676  141.4941  160.1744 C   0  0  0  0  0  0  0  0  0  0  0  0
  154.0231  140.9536  160.7960 C   0  0  0  0  0  0  0  0  0  0  0  0
  152.4462  142.7644  160.3528 N   0  0  0  0  0  0  0  0  0  0  0  0
  151.2363  142.9517  159.6777 O   0  0  0  0  0  0  0  0  0  0  0  0
  150.8690  141.7708  159.1182 C   0  0  0  0  0  0  0  0  0  0  0  0
  149.5820  141.7572  158.3655 C   0  0  0  0  0  0  0  0  0  0  0  0
  150.4172  137.5110  154.7735 C   0  0  0  0  0  0  0  0  0  0  0  0
  147.3988  135.8883  156.7880 H   0  0  0  0  0  0  0  0  0  0  0  0
  147.5453  137.6282  156.5917 H   0  0  0  0  0  0  0  0  0  0  0  0
  148.9876  136.6448  156.8405 H   0  0  0  0  0  0  0  0  0  0  0  0
  148.5553  135.4797  154.6447 H   0  0  0  0  0  0  0  0  0  0  0  0
  147.1693  136.5109  154.3560 H   0  0  0  0  0  0  0  0  0  0  0  0
  148.1390  139.1039  153.2439 H   0  0  0  0  0  0  0  0  0  0  0  0
  147.7252  138.9924  154.9520 H   0  0  0  0  0  0  0  0  0  0  0  0
  149.7545  140.6788  153.9762 H   0  0  0  0  0  0  0  0  0  0  0  0
  149.6294  140.0928  155.6318 H   0  0  0  0  0  0  0  0  0  0  0  0
  151.2061  138.8901  153.3495 H   0  0  0  0  0  0  0  0  0  0  0  0
  152.9694  138.5849  155.1811 H   0  0  0  0  0  0  0  0  0  0  0  0
  152.6114  140.2517  154.7867 H   0  0  0  0  0  0  0  0  0  0  0  0
  150.9701  140.1306  156.7581 H   0  0  0  0  0  0  0  0  0  0  0  0
  150.7518  138.9647  158.9386 H   0  0  0  0  0  0  0  0  0  0  0  0
  152.2670  138.7215  159.7711 H   0  0  0  0  0  0  0  0  0  0  0  0
  153.8035  140.4501  161.7376 H   0  0  0  0  0  0  0  0  0  0  0  0
  154.7445  141.7454  161.0008 H   0  0  0  0  0  0  0  0  0  0  0  0
  154.5065  140.2306  160.1388 H   0  0  0  0  0  0  0  0  0  0  0  0
  149.7053  141.2714  157.3974 H   0  0  0  0  0  0  0  0  0  0  0  0
  149.2178  142.7698  158.1898 H   0  0  0  0  0  0  0  0  0  0  0  0
  148.8177  141.2142  158.9220 H   0  0  0  0  0  0  0  0  0  0  0  0
  150.3815  137.3940  155.8582 H   0  0  0  0  0  0  0  0  0  0  0  0
  151.0311  136.7081  154.3656 H   0  0  0  0  0  0  0  0  0  0  0  0
  149.1490  137.2304  153.2420 H   0  0  0  0  0  0  0  0  0  0  0  0
  1  2  1  0  0  0  0
  1 20  1  0  0  0  0
  1 21  1  0  0  0  0
  1 22  1  0  0  0  0
  2  3  1  0  0  0  0
  2 23  1  0  0  0  0
  2 24  1  0  0  0  0
  3 19  1  0  0  0  0
  3  4  1  0  0  0  0
  3 43  1  0  0  0  0
  4  5  1  0  0  0  0
  4 25  1  0  0  0  0
  4 26  1  0  0  0  0
  5  6  1  0  0  0  0
  5 27  1  0  0  0  0
  5 28  1  0  0  0  0
  6  7  1  0  0  0  0
  6 19  1  0  0  0  0
  6 29  1  0  0  0  0
  7  8  1  0  0  0  0
  7 30  1  0  0  0  0
  7 31  1  0  0  0  0
  8  9  1  0  0  0  0
  8 32  1  0  0  0  0
  9 10  2  0  0  0  0
  9 11  1  0  0  0  0
 11 12  1  0  0  0  0
 11 33  1  0  0  0  0
 11 34  1  0  0  0  0
 12 17  2  0  0  0  0
 12 13  1  0  0  0  0
 13 14  1  0  0  0  0
 13 15  2  0  0  0  0
 14 35  1  0  0  0  0
 14 36  1  0  0  0  0
 14 37  1  0  0  0  0
 15 16  1  0  0  0  0
 16 17  1  0  0  0  0
 17 18  1  0  0  0  0
 18 38  1  0  0  0  0
 18 39  1  0  0  0  0
 18 40  1  0  0  0  0
 19 41  1  0  0  0  0
 19 42  1  0  0  0  0
M  CHG  1   3   1
M  END
> <s_m_source_file>
AV-unprocessed.smi

> <i_m_source_file_index>
1184

> <i_lp_mmshare_version>
43012

> <i_f3d_flags>
0

> <s_epik_input>
W0NIM11bQ0gyXU4xW0NIMl1bQ0gyXVtDQEhdKFtDSDJdMSlbQ0gyXVtOSF1DKD1PKVtDSDJdYzJjKFtDSDNdKW5vYzJbQ0gzXQ==

> <s_epik_cmdline>
J2VwaWtfcHl0aG9uJywgJy1waCcsICc3LjAnLCAnLXRuJywgJzgnLCAnLW1hJywgJzIwMCcsICctbWV0YWxfYmluZGluZycsICctaW1hZScsICc8aW5maWxlLm1hZT4nLCAnLW9tYWUnLCAnPG91dGZpbGUubWFlPic=

> <r_epik_Ionization_Penalty>
0.000590726

> <r_epik_Ionization_Penalty_Charging>
0.000590692

> <r_epik_Ionization_Penalty_Neutral>
3.44741e-08

> <r_epik_State_Penalty>
0.000371644

> <r_epik_Charging_Adjusted_Penalty>
0.000962336

> <i_epik_Tot_Q>
1

> <i_epik_Tot_abs_Q>
1

> <r_epik_Metal_State_Penalty>
-0

> <b_epik_Metal_Only>
0

> <s_lp_Force_Field>
OPLS_2005

> <r_lp_Energy>
20.0287

> <b_lp_Chiralities_Consistent>
1

> <s_lp_Variant>
AV-unprocessed.smi:1184-1

> <Gold.Version>
5.8.1

> <Gold.Id.Protein>
6NUR|6NUR_protein|mol2

> <Gold.PLP.Fitness>
40.3484

> <Gold.PLP.PLP>
-32.5393

> <Gold.PLP.part.hbond>
-2.0000

> <Gold.PLP.part.metal>
0.0000

> <Gold.PLP.part.buried>
-2.9509

> <Gold.PLP.part.nonpolar>
-26.0384

> <Gold.PLP.part.repulsive>
0.1892

> <Gold.PLP.ligand.clash>
0.0000

> <Gold.PLP.ligand.torsion>
0.6068

> <Gold.PLP.Chemscore.Hbond>
3.0000

> <Gold.PLP.Chemscore.CHOScore>
0.0000

> <Gold.PLP.Chemscore.Metal>
0.0000

> <Gold.Chemscore.Hbonds>
donor molecule, donor type, donor heavy atom, donor atom, acceptor molecule, acceptor atom, score
      L1  H     3    43       P1  7948  2.00
      P1  H  7997  8010       L1    10  0.90

> <Gold.PLP.Chemscore.Internal.Correction>
0.0227

> <Gold.Rescore>
     Score         DG    S(hbond)    S(metal)    S(lipo)     H(rot)  DE(clash)    DE(int)     intcor
     16.83     -17.77       1.92        0.00      86.82       1.67       0.06       0.87       ----

> <Gold.Chemscore.Fitness>
16.8295

> <Gold.Chemscore.DG>
-17.7652

> <Gold.Chemscore.ZeroCoef>
-5.4800

> <Gold.Chemscore.Hbond>
1.9158

> <Gold.Chemscore.Metal>
0.0000

> <Gold.Chemscore.Lipo>
86.8185

> <Gold.Chemscore.Internal_Hbond>
0.0000

> <Gold.Chemscore.DEClash>
0.0618

> <Gold.Chemscore.DEInternal>
0.8739

> <Gold.Chemscore.Rot>
1.6684

> <Gold.Chemscore.Internal.Correction>
   9.000000E+99

> <Gold.Chemscore.Hbonds>
donor molecule, donor type, donor heavy atom, donor atom, acceptor molecule, acceptor atom, score
      L1  H     3    43       P1  7948  0.98
      P1  H  7997  8010       L1    10  0.18

> <Gold.Chemscore.Hbond.Weighted>
-6.3987

> <Gold.Chemscore.Metal.Weighted>
-0.0000

> <Gold.Chemscore.Lipo.Weighted>
-10.1578

> <Gold.Chemscore.Internal_Hbond.Weighted>
0.0000

> <Gold.Chemscore.DEClash.Weighted>
0.0618

> <Gold.Chemscore.DEInternal.Weighted>
0.8739

> <Gold.Chemscore.Rot.Weighted>
4.2712

> <Gold.Chemscore.Internal.Correction.Weighted>
   9.000000E+99

> <Gold.Protein.RotatedTorsions>
[ 6907 6896 6895 6894 ] final -114.22 input  -60.11 | X-H torsion
[ 7974 7965 7964 7962 ] final  -17.61 input  175.53 | X-H torsion
[ 8008 7997 7996 7995 ] final   32.64 input   59.86 | X-H torsion
[ 10167 10162 10161 10158 ] final  -43.05 input  -65.29 | X-H torsion
[ 10718 10713 10712 10709 ] final -105.26 input   66.30 | X-H torsion
[ 10763 10752 10751 10750 ] final  172.75 input  -60.55 | X-H torsion
[ 11005 11000 10999 10996 ] final -153.16 input  -57.11 | X-H torsion

> <Gold.Protein.ActiveResidues>
 VAL166  LYS551  ARG553  GLY616  TRP617  ASP618  TYR619  PRO620  LYS621  CYS622 
 ASP623  PHE694  ASN695  SER759  ASP760  ASP761  ALA762  ILE779  LEU786  VAL792 
 PHE793  MET794  SER795  GLU796  ALA797  LYS798  CYS799  TRP800  GLU811  SER814 

> <Gold.Protein.RotatedAtoms>
  150.7886  133.8833  159.3291 H   0  0  0  0  0  0  0  0  0  0  0  0  # atno 6907 bound_to 6896
  151.6677  135.0978  160.0201 H   0  0  0  0  0  0  0  0  0  0  0  0  # atno 6908 bound_to 6896
  152.3955  133.6702  159.6308 H   0  0  0  0  0  0  0  0  0  0  0  0  # atno 6909 bound_to 6896
  146.1932  140.3804  142.8450 H   0  0  0  0  0  0  0  0  0  0  0  0  # atno 7974 bound_to 7965
  155.1258  140.3252  155.4486 H   0  0  0  0  0  0  0  0  0  0  0  0  # atno 8008 bound_to 7997
  156.2649  140.2019  156.6327 H   0  0  0  0  0  0  0  0  0  0  0  0  # atno 8009 bound_to 7997
  154.6650  140.0543  157.0090 H   0  0  0  0  0  0  0  0  0  0  0  0  # atno 8010 bound_to 7997
  140.6947  143.3004  151.3297 H   0  0  0  0  0  0  0  0  0  0  0  0  # atno 10167 bound_to 10162
  156.0338  130.5555  150.7514 H   0  0  0  0  0  0  0  0  0  0  0  0  # atno 10718 bound_to 10713
  154.4304  135.2759  155.1916 H   0  0  0  0  0  0  0  0  0  0  0  0  # atno 10763 bound_to 10752
  154.3824  135.6084  153.5802 H   0  0  0  0  0  0  0  0  0  0  0  0  # atno 10764 bound_to 10752
  152.9836  135.5883  154.4615 H   0  0  0  0  0  0  0  0  0  0  0  0  # atno 10765 bound_to 10752
  140.7111  134.3831  157.5197 H   0  0  0  0  0  0  0  0  0  0  0  0  # atno 11005 bound_to 11000
  144.8528  140.7027  143.6157 LP  0  0  0  0  0  0  0  0  0  0  0  0  # atno 17320 bound_to 7965
  145.3726  139.1655  143.4324 LP  0  0  0  0  0  0  0  0  0  0  0  0  # atno 17321 bound_to 7965
  139.6389  144.0577  152.2538 LP  0  0  0  0  0  0  0  0  0  0  0  0  # atno 17342 bound_to 10162
  140.0076  144.6248  150.7675 LP  0  0  0  0  0  0  0  0  0  0  0  0  # atno 17343 bound_to 10162
  157.5057  131.0922  151.0260 LP  0  0  0  0  0  0  0  0  0  0  0  0  # atno 17370 bound_to 10713
  157.0629  130.5832  149.5389 LP  0  0  0  0  0  0  0  0  0  0  0  0  # atno 17371 bound_to 10713
  139.8871  134.8891  156.2546 LP  0  0  0  0  0  0  0  0  0  0  0  0  # atno 17394 bound_to 11000
  141.0083  133.7110  156.1071 LP  0  0  0  0  0  0  0  0  0  0  0  0  # atno 17395 bound_to 11000

$$$$
