AV-unprocessed.smi:779|AV-procd|sdf|3705|dock6
  -GOLD-   22720 1123D 1   1.00000     0.00000
 Structure written by MMmdl.
 20 20  0  0  0  0  0  0  0  0  3 V2000
  152.3194  136.7272  155.8971 O   0  0  0  0  0  0  0  0  0  0  0  0
  151.1006  136.7002  155.6124 C   0  0  0  0  0  0  0  0  0  0  0  0
  150.3618  135.6930  155.6870 O   0  5  0  0  0  0  0  0  0  0  0  0
  150.4911  138.0915  155.1429 C   0  0  0  0  0  0  0  0  0  0  0  0
  149.2202  138.2423  154.7125 C   0  0  0  0  0  0  0  0  0  0  0  0
  148.7078  139.4784  154.2883 N   0  0  0  0  0  0  0  0  0  0  0  0
  147.3119  139.5147  153.8325 C   0  0  0  0  0  0  0  0  0  0  0  0
  147.0279  138.3912  152.8232 C   0  0  0  0  0  0  0  0  0  0  0  0
  147.4036  138.8024  151.5263 O   0  0  0  0  0  0  0  0  0  0  0  0
  149.5083  140.5824  154.2807 C   0  0  0  0  0  0  0  0  0  0  0  0
  149.0456  141.6517  153.8801 O   0  0  0  0  0  0  0  0  0  0  0  0
  150.7988  140.4619  154.7160 N   0  5  0  0  0  0  0  0  0  0  0  0
  151.3543  139.2932  155.1556 C   0  0  0  0  0  0  0  0  0  0  0  0
  152.5223  139.2690  155.5431 O   0  0  0  0  0  0  0  0  0  0  0  0
  148.5184  137.4228  154.6572 H   0  0  0  0  0  0  0  0  0  0  0  0
  146.6409  139.4186  154.6876 H   0  0  0  0  0  0  0  0  0  0  0  0
  147.0758  140.4858  153.3937 H   0  0  0  0  0  0  0  0  0  0  0  0
  147.5791  137.4869  153.0829 H   0  0  0  0  0  0  0  0  0  0  0  0
  145.9674  138.1377  152.8189 H   0  0  0  0  0  0  0  0  0  0  0  0
  148.0808  139.4565  151.6061 H   0  0  0  0  0  0  0  0  0  0  0  0
  1  2  2  0  0  0  0
  2  3  1  0  0  0  0
  2  4  1  0  0  0  0
  4 13  1  0  0  0  0
  4  5  2  0  0  0  0
  5  6  1  0  0  0  0
  5 15  1  0  0  0  0
  6  7  1  0  0  0  0
  6 10  1  0  0  0  0
  7  8  1  0  0  0  0
  7 16  1  0  0  0  0
  7 17  1  0  0  0  0
  8  9  1  0  0  0  0
  8 18  1  0  0  0  0
  8 19  1  0  0  0  0
  9 20  1  0  0  0  0
 10 11  2  0  0  0  0
 10 12  1  0  0  0  0
 12 13  1  0  0  0  0
 13 14  2  0  0  0  0
M  CHG  1   3  -1
M  CHG  1  12  -1
M  END
> <s_m_source_file>
AV-unprocessed.smi

> <i_m_source_file_index>
779

> <i_lp_mmshare_version>
43012

> <i_f3d_flags>
0

> <s_epik_input>
Tz1DKFtPSF0pYzFbY0hdbihbQ0gyXVtDSDJdW09IXSljKD1PKVtuSF1jMT1P

> <s_epik_cmdline>
J2VwaWtfcHl0aG9uJywgJy1waCcsICc3LjAnLCAnLXRuJywgJzgnLCAnLW1hJywgJzIwMCcsICctbWV0YWxfYmluZGluZycsICctaW1hZScsICc8aW5maWxlLm1hZT4nLCAnLW9tYWUnLCAnPG91dGZpbGUubWFlPic=

> <r_lp_tautomer_probability>
1

> <r_epik_Ionization_Penalty>
3.89082

> <r_epik_Ionization_Penalty_Charging>
0.00124607

> <r_epik_Ionization_Penalty_Neutral>
3.88958

> <r_epik_State_Penalty>
3.88874

> <r_epik_Charging_Adjusted_Penalty>
3.88999

> <i_epik_Tot_Q>
-2

> <i_epik_Tot_abs_Q>
2

> <r_epik_Metal_State_Penalty>
0.317414

> <b_epik_Metal_Only>
1

> <s_lp_Force_Field>
OPLS_2005

> <r_lp_Energy>
29.4188

> <b_lp_Chiralities_Consistent>
1

> <s_lp_Variant>
AV-unprocessed.smi:779-2

> <Gold.Version>
5.8.1

> <Gold.Id.Protein>
6NUR|6NUR_protein|mol2

> <Gold.PLP.Fitness>
40.3019

> <Gold.PLP.PLP>
-22.5189

> <Gold.PLP.part.hbond>
-6.7587

> <Gold.PLP.part.metal>
0.0000

> <Gold.PLP.part.buried>
0.1711

> <Gold.PLP.part.nonpolar>
-15.5506

> <Gold.PLP.part.repulsive>
0.4034

> <Gold.PLP.ligand.clash>
0.0000

> <Gold.PLP.ligand.torsion>
0.2447

> <Gold.PLP.Chemscore.Hbond>
6.0897

> <Gold.PLP.Chemscore.CHOScore>
0.0000

> <Gold.PLP.Chemscore.Metal>
0.0000

> <Gold.Chemscore.Hbonds>
donor molecule, donor type, donor heavy atom, donor atom, acceptor molecule, acceptor atom, score
      L1  H     9    20       P1  7957  0.96
      P1  H  7954  7966       L1     9  0.74
      P1  H  7989  7998       L1    12  0.99
      P1  H  7997  8008       L1    14  0.76
      P1  H  8011  8017       L1    11  0.64
      P1  H 10752 10765       L1     1  1.98

> <Gold.PLP.Chemscore.Internal.Correction>
0.0034

> <Gold.Rescore>
     Score         DG    S(hbond)    S(metal)    S(lipo)     H(rot)  DE(clash)    DE(int)     intcor
     11.25     -13.66       3.30        0.00      23.18       2.17       0.53       1.88       ----

> <Gold.Chemscore.Fitness>
11.2532

> <Gold.Chemscore.DG>
-13.6621

> <Gold.Chemscore.ZeroCoef>
-5.4800

> <Gold.Chemscore.Hbond>
3.2984

> <Gold.Chemscore.Metal>
0.0000

> <Gold.Chemscore.Lipo>
23.1811

> <Gold.Chemscore.Internal_Hbond>
0.0000

> <Gold.Chemscore.DEClash>
0.5264

> <Gold.Chemscore.DEInternal>
1.8825

> <Gold.Chemscore.Rot>
2.1667

> <Gold.Chemscore.Internal.Correction>
   9.000000E+99

> <Gold.Chemscore.Hbonds>
donor molecule, donor type, donor heavy atom, donor atom, acceptor molecule, acceptor atom, score
      L1  H     9    20       P1  7957  0.91
      P1  H  7954  7966       L1     9  0.10
      P1  H  7989  7998       L1    12  0.22
      P1  H  7997  8008       L1    14  0.77
      P1  H  8011  8017       L1    11  0.62
      P1  H 10752 10765       L1     1  0.47

> <Gold.Chemscore.Hbond.Weighted>
-11.0166

> <Gold.Chemscore.Metal.Weighted>
-0.0000

> <Gold.Chemscore.Lipo.Weighted>
-2.7122

> <Gold.Chemscore.Internal_Hbond.Weighted>
0.0000

> <Gold.Chemscore.DEClash.Weighted>
0.5264

> <Gold.Chemscore.DEInternal.Weighted>
1.8825

> <Gold.Chemscore.Rot.Weighted>
5.5467

> <Gold.Chemscore.Internal.Correction.Weighted>
   9.000000E+99

> <Gold.Protein.RotatedTorsions>
[ 6907 6896 6895 6894 ] final  104.07 input  -60.11 | X-H torsion
[ 7974 7965 7964 7962 ] final  -26.38 input  175.53 | X-H torsion
[ 8008 7997 7996 7995 ] final  -28.60 input   59.86 | X-H torsion
[ 10167 10162 10161 10158 ] final  -71.07 input  -65.29 | X-H torsion
[ 10718 10713 10712 10709 ] final  -83.84 input   66.30 | X-H torsion
[ 10763 10752 10751 10750 ] final -162.69 input  -60.55 | X-H torsion
[ 11005 11000 10999 10996 ] final -135.75 input  -57.11 | X-H torsion

> <Gold.Protein.ActiveResidues>
 VAL166  LYS551  ARG553  GLY616  TRP617  ASP618  TYR619  PRO620  LYS621  CYS622 
 ASP623  PHE694  ASN695  SER759  ASP760  ASP761  ALA762  ILE779  LEU786  VAL792 
 PHE793  MET794  SER795  GLU796  ALA797  LYS798  CYS799  TRP800  GLU811  SER814 

> <Gold.Protein.RotatedAtoms>
  152.5276  133.9731  159.7770 H   0  0  0  0  0  0  0  0  0  0  0  0  # atno 6907 bound_to 6896
  150.9999  133.6059  159.2703 H   0  0  0  0  0  0  0  0  0  0  0  0  # atno 6908 bound_to 6896
  151.3171  135.0815  159.9346 H   0  0  0  0  0  0  0  0  0  0  0  0  # atno 6909 bound_to 6896
  146.1429  140.5012  142.8644 H   0  0  0  0  0  0  0  0  0  0  0  0  # atno 7974 bound_to 7965
  154.4325  140.1841  156.1115 H   0  0  0  0  0  0  0  0  0  0  0  0  # atno 8008 bound_to 7997
  156.0214  140.3340  155.7017 H   0  0  0  0  0  0  0  0  0  0  0  0  # atno 8009 bound_to 7997
  155.5971  140.0636  157.2734 H   0  0  0  0  0  0  0  0  0  0  0  0  # atno 8010 bound_to 7997
  140.5302  143.2322  151.7276 H   0  0  0  0  0  0  0  0  0  0  0  0  # atno 10167 bound_to 10162
  156.0013  130.4678  150.4319 H   0  0  0  0  0  0  0  0  0  0  0  0  # atno 10718 bound_to 10713
  154.7191  135.3022  154.9076 H   0  0  0  0  0  0  0  0  0  0  0  0  # atno 10763 bound_to 10752
  153.9953  135.6713  153.4760 H   0  0  0  0  0  0  0  0  0  0  0  0  # atno 10764 bound_to 10752
  153.0819  135.5004  154.8436 H   0  0  0  0  0  0  0  0  0  0  0  0  # atno 10765 bound_to 10752
  140.8869  134.1860  157.4554 H   0  0  0  0  0  0  0  0  0  0  0  0  # atno 11005 bound_to 11000
  144.7813  140.5846  143.6603 LP  0  0  0  0  0  0  0  0  0  0  0  0  # atno 17320 bound_to 7965
  145.5004  139.1483  143.3660 LP  0  0  0  0  0  0  0  0  0  0  0  0  # atno 17321 bound_to 7965
  139.4951  144.4126  152.0065 LP  0  0  0  0  0  0  0  0  0  0  0  0  # atno 17342 bound_to 10162
  140.3227  144.3408  150.6005 LP  0  0  0  0  0  0  0  0  0  0  0  0  # atno 17343 bound_to 10162
  157.2367  131.0516  151.2460 LP  0  0  0  0  0  0  0  0  0  0  0  0  # atno 17370 bound_to 10713
  157.3659  130.7155  149.6532 LP  0  0  0  0  0  0  0  0  0  0  0  0  # atno 17371 bound_to 10713
  139.8725  134.9842  156.5229 LP  0  0  0  0  0  0  0  0  0  0  0  0  # atno 17394 bound_to 11000
  140.8393  133.8217  155.9060 LP  0  0  0  0  0  0  0  0  0  0  0  0  # atno 17395 bound_to 11000

$$$$
