AV-unprocessed.smi:2033|AV-procd|sdf|8261|dock8
  -GOLD-   2272010533D 1   1.00000     0.00000
 Structure written by MMmdl.
 32 33  0  0  0  0  0  0  0  0  2 V2000
  144.2519  143.9688  162.3243 C   0  0  0  0  0  0  0  0  0  0  0  0
  145.0763  143.3274  161.2615 C   0  0  0  0  0  0  0  0  0  0  0  0
  145.4884  142.0593  161.3334 N   0  0  0  0  0  0  0  0  0  0  0  0
  146.2385  141.6901  160.2261 N   0  0  0  0  0  0  0  0  0  0  0  0
  146.3736  142.6775  159.3294 C   0  0  0  0  0  0  0  0  0  0  0  0
  147.0652  142.5259  158.1879 N   0  5  0  0  0  0  0  0  0  0  0  0
  147.8714  141.4521  158.0248 C   0  0  0  0  0  0  0  0  0  0  0  0
  148.1052  140.5800  158.8652 O   0  0  0  0  0  0  0  0  0  0  0  0
  148.4414  141.3832  156.8118 N   0  0  0  0  0  0  0  0  0  0  0  0
  149.3464  140.3337  156.3375 C   0  0  2  0  0  0  0  0  0  0  0  0
  150.7985  140.8606  156.4569 C   0  0  0  0  0  0  0  0  0  0  0  0
  151.8773  140.0855  155.6670 C   0  0  0  0  0  0  0  0  0  0  0  0
  151.7775  138.5487  155.7556 C   0  0  0  0  0  0  0  0  0  0  0  0
  150.4761  137.9019  155.2135 C   0  0  0  0  0  0  0  0  0  0  0  0
  149.6260  138.7948  154.4256 N   0  0  0  0  0  0  0  0  0  0  0  0
  149.0543  139.9247  154.8761 C   0  0  0  0  0  0  0  0  0  0  0  0
  148.3519  140.6218  154.1447 O   0  0  0  0  0  0  0  0  0  0  0  0
  145.5820  144.1777  159.8115 S   0  0  0  0  0  0  0  0  0  0  0  0
  143.2130  143.6523  162.2312 H   0  0  0  0  0  0  0  0  0  0  0  0
  144.2970  145.0543  162.2349 H   0  0  0  0  0  0  0  0  0  0  0  0
  144.6196  143.6856  163.3109 H   0  0  0  0  0  0  0  0  0  0  0  0
  148.2152  142.1161  156.1559 H   0  0  0  0  0  0  0  0  0  0  0  0
  149.2249  139.4661  156.9874 H   0  0  0  0  0  0  0  0  0  0  0  0
  150.8412  141.9049  156.1429 H   0  0  0  0  0  0  0  0  0  0  0  0
  151.0713  140.8615  157.5130 H   0  0  0  0  0  0  0  0  0  0  0  0
  151.8500  140.3863  154.6188 H   0  0  0  0  0  0  0  0  0  0  0  0
  152.8593  140.3983  156.0229 H   0  0  0  0  0  0  0  0  0  0  0  0
  152.6200  138.1309  155.2032 H   0  0  0  0  0  0  0  0  0  0  0  0
  151.9268  138.2352  156.7894 H   0  0  0  0  0  0  0  0  0  0  0  0
  150.7293  137.0418  154.5932 H   0  0  0  0  0  0  0  0  0  0  0  0
  149.8881  137.4986  156.0389 H   0  0  0  0  0  0  0  0  0  0  0  0
  149.4477  138.5292  153.4680 H   0  0  0  0  0  0  0  0  0  0  0  0
  1  2  1  0  0  0  0
  1 19  1  0  0  0  0
  1 20  1  0  0  0  0
  1 21  1  0  0  0  0
  2 18  1  0  0  0  0
  2  3  2  0  0  0  0
  3  4  1  0  0  0  0
  4  5  2  0  0  0  0
  5  6  1  0  0  0  0
  5 18  1  0  0  0  0
  6  7  1  0  0  0  0
  7  8  2  0  0  0  0
  7  9  1  0  0  0  0
  9 10  1  0  0  0  0
  9 22  1  0  0  0  0
 10 16  1  0  0  0  0
 10 11  1  0  0  0  0
 10 23  1  0  0  0  0
 11 12  1  0  0  0  0
 11 24  1  0  0  0  0
 11 25  1  0  0  0  0
 12 13  1  0  0  0  0
 12 26  1  0  0  0  0
 12 27  1  0  0  0  0
 13 14  1  0  0  0  0
 13 28  1  0  0  0  0
 13 29  1  0  0  0  0
 14 15  1  0  0  0  0
 14 30  1  0  0  0  0
 14 31  1  0  0  0  0
 15 16  1  0  0  0  0
 15 32  1  0  0  0  0
 16 17  2  0  0  0  0
M  CHG  1   6  -1
M  END
> <s_m_source_file>
AV-unprocessed.smi

> <i_m_source_file_index>
2033

> <i_lp_mmshare_version>
43012

> <i_f3d_flags>
0

> <s_epik_input>
W0NIM11jMW5uYyhzMSlbTkhdQyg9TylbTkhdW0NAQEhdMltDSDJdW0NIMl1bQ0gyXVtDSDJdW05IXUMyPU8=

> <s_epik_cmdline>
J2VwaWtfcHl0aG9uJywgJy1waCcsICc3LjAnLCAnLXRuJywgJzgnLCAnLW1hJywgJzIwMCcsICctbWV0YWxfYmluZGluZycsICctaW1hZScsICc8aW5maWxlLm1hZT4nLCAnLW9tYWUnLCAnPG91dGZpbGUubWFlPic=

> <r_lp_tautomer_probability>
1

> <r_epik_Ionization_Penalty>
4.07233

> <r_epik_Ionization_Penalty_Charging>
3.9374

> <r_epik_Ionization_Penalty_Neutral>
0.134927

> <r_epik_State_Penalty>
3.93663

> <r_epik_Charging_Adjusted_Penalty>
7.87404

> <i_epik_Tot_Q>
-1

> <i_epik_Tot_abs_Q>
1

> <r_epik_Metal_State_Penalty>
0.602812

> <b_epik_Metal_Only>
1

> <s_lp_Force_Field>
OPLS_2005

> <r_lp_Energy>
13.5644

> <b_lp_Chiralities_Consistent>
1

> <s_lp_Variant>
AV-unprocessed.smi:2033-3

> <Gold.Version>
5.8.1

> <Gold.Id.Protein>
6NUR|6NUR_protein|mol2

> <Gold.PLP.Fitness>
39.7689

> <Gold.PLP.PLP>
-31.5632

> <Gold.PLP.part.hbond>
-5.8559

> <Gold.PLP.part.metal>
0.0000

> <Gold.PLP.part.buried>
-5.0772

> <Gold.PLP.part.nonpolar>
-22.5924

> <Gold.PLP.part.repulsive>
0.7881

> <Gold.PLP.ligand.clash>
0.0000

> <Gold.PLP.ligand.torsion>
0.3227

> <Gold.PLP.Chemscore.Hbond>
2.9500

> <Gold.PLP.Chemscore.CHOScore>
0.0000

> <Gold.PLP.Chemscore.Metal>
0.0000

> <Gold.Chemscore.Hbonds>
donor molecule, donor type, donor heavy atom, donor atom, acceptor molecule, acceptor atom, score
      P1  H  6934  6946       L1     4  0.09

> <Gold.PLP.Chemscore.Internal.Correction>
0.0011

> <Gold.Rescore>
     Score         DG    S(hbond)    S(metal)    S(lipo)     H(rot)  DE(clash)    DE(int)     intcor
     15.36     -17.42       2.82        0.00      43.43       1.00       0.03       2.03       ----

> <Gold.Chemscore.Fitness>
15.3553

> <Gold.Chemscore.DG>
-17.4164

> <Gold.Chemscore.ZeroCoef>
-5.4800

> <Gold.Chemscore.Hbond>
2.8189

> <Gold.Chemscore.Metal>
0.0000

> <Gold.Chemscore.Lipo>
43.4291

> <Gold.Chemscore.Internal_Hbond>
0.0000

> <Gold.Chemscore.DEClash>
0.0316

> <Gold.Chemscore.DEInternal>
2.0296

> <Gold.Chemscore.Rot>
1.0000

> <Gold.Chemscore.Internal.Correction>
   9.000000E+99

> <Gold.Chemscore.Hbonds>
donor molecule, donor type, donor heavy atom, donor atom, acceptor molecule, acceptor atom, score
      P1  H  6934  6946       L1     4  0.03

> <Gold.Chemscore.Hbond.Weighted>
-9.4152

> <Gold.Chemscore.Metal.Weighted>
-0.0000

> <Gold.Chemscore.Lipo.Weighted>
-5.0812

> <Gold.Chemscore.Internal_Hbond.Weighted>
0.0000

> <Gold.Chemscore.DEClash.Weighted>
0.0316

> <Gold.Chemscore.DEInternal.Weighted>
2.0296

> <Gold.Chemscore.Rot.Weighted>
2.5600

> <Gold.Chemscore.Internal.Correction.Weighted>
   9.000000E+99

> <Gold.Protein.RotatedTorsions>
[ 6907 6896 6895 6894 ] final -131.75 input  -60.11 | X-H torsion
[ 7974 7965 7964 7962 ] final -129.29 input  175.53 | X-H torsion
[ 8008 7997 7996 7995 ] final  165.40 input   59.86 | X-H torsion
[ 10167 10162 10161 10158 ] final  137.51 input  -65.29 | X-H torsion
[ 10718 10713 10712 10709 ] final  122.71 input   66.30 | X-H torsion
[ 10763 10752 10751 10750 ] final -163.35 input  -60.55 | X-H torsion
[ 11005 11000 10999 10996 ] final    7.36 input  -57.11 | X-H torsion

> <Gold.Protein.ActiveResidues>
 VAL166  LYS551  ARG553  GLY616  TRP617  ASP618  TYR619  PRO620  LYS621  CYS622 
 ASP623  PHE694  ASN695  SER759  ASP760  ASP761  ALA762  ILE779  LEU786  VAL792 
 PHE793  MET794  SER795  GLU796  ALA797  LYS798  CYS799  TRP800  GLU811  SER814 

> <Gold.Protein.RotatedAtoms>
  150.9545  133.6513  159.2765 H   0  0  0  0  0  0  0  0  0  0  0  0  # atno 6907 bound_to 6896
  151.3857  135.0946  159.9520 H   0  0  0  0  0  0  0  0  0  0  0  0  # atno 6908 bound_to 6896
  152.5123  133.9070  159.7524 H   0  0  0  0  0  0  0  0  0  0  0  0  # atno 6909 bound_to 6896
  144.9586  140.7423  143.4743 H   0  0  0  0  0  0  0  0  0  0  0  0  # atno 7974 bound_to 7965
  156.1803  140.1671  156.8286 H   0  0  0  0  0  0  0  0  0  0  0  0  # atno 8008 bound_to 7997
  154.5352  140.0748  156.8449 H   0  0  0  0  0  0  0  0  0  0  0  0  # atno 8009 bound_to 7997
  155.3325  140.3380  155.4242 H   0  0  0  0  0  0  0  0  0  0  0  0  # atno 8010 bound_to 7997
  139.5142  144.6405  151.5580 H   0  0  0  0  0  0  0  0  0  0  0  0  # atno 10167 bound_to 10162
  157.5721  131.1082  150.8347 H   0  0  0  0  0  0  0  0  0  0  0  0  # atno 10718 bound_to 10713
  154.7131  135.3010  154.9167 H   0  0  0  0  0  0  0  0  0  0  0  0  # atno 10763 bound_to 10752
  154.0062  135.6700  153.4766 H   0  0  0  0  0  0  0  0  0  0  0  0  # atno 10764 bound_to 10752
  153.0771  135.5029  154.8340 H   0  0  0  0  0  0  0  0  0  0  0  0  # atno 10765 bound_to 10752
  140.5492  134.0300  155.7931 H   0  0  0  0  0  0  0  0  0  0  0  0  # atno 11005 bound_to 11000
  145.2734  139.1946  143.4829 LP  0  0  0  0  0  0  0  0  0  0  0  0  # atno 17320 bound_to 7965
  146.3346  140.2684  142.8605 LP  0  0  0  0  0  0  0  0  0  0  0  0  # atno 17321 bound_to 7965
  140.6170  143.9329  150.6496 LP  0  0  0  0  0  0  0  0  0  0  0  0  # atno 17342 bound_to 10162
  140.2590  143.3537  152.1339 LP  0  0  0  0  0  0  0  0  0  0  0  0  # atno 17343 bound_to 10162
  156.8816  130.5181  149.5290 LP  0  0  0  0  0  0  0  0  0  0  0  0  # atno 17370 bound_to 10713
  156.0766  130.5787  150.9486 LP  0  0  0  0  0  0  0  0  0  0  0  0  # atno 17371 bound_to 10713
  141.1182  133.9505  157.2782 LP  0  0  0  0  0  0  0  0  0  0  0  0  # atno 17394 bound_to 11000
  139.9464  135.0183  156.8865 LP  0  0  0  0  0  0  0  0  0  0  0  0  # atno 17395 bound_to 11000

$$$$
