AV-unprocessed.smi:667|AV-procd|sdf|3256|dock2
  -GOLD-   22720 0203D 1   1.00000     0.00000
 Structure written by MMmdl.
 48 49  0  0  0  0  0  0  0  0  1 V2000
  151.5855  144.3731  158.8230 C   0  0  0  0  0  0  0  0  0  0  0  0
  152.2124  143.6435  159.9764 C   0  0  0  0  0  0  0  0  0  0  0  0
  152.1588  144.1784  161.1848 N   0  0  0  0  0  0  0  0  0  0  0  0
  152.7974  143.2974  161.9806 N   0  0  0  0  0  0  0  0  0  0  0  0
  152.9278  143.5833  163.3961 C   0  0  0  0  0  0  0  0  0  0  0  0
  153.2520  142.2009  161.2735 C   0  0  0  0  0  0  0  0  0  0  0  0
  153.9865  141.0749  161.9274 C   0  0  0  0  0  0  0  0  0  0  0  0
  152.9006  142.3942  159.9640 C   0  0  0  0  0  0  0  0  0  0  0  0
  153.1719  141.5051  158.7761 C   0  0  0  0  0  0  0  0  0  0  0  0
  151.8719  140.8602  158.2905 C   0  0  0  0  0  0  0  0  0  0  0  0
  151.2531  140.0862  159.0217 O   0  0  0  0  0  0  0  0  0  0  0  0
  151.4653  141.1926  157.0556 N   0  0  0  0  0  0  0  0  0  0  0  0
  150.2392  140.7195  156.4223 C   0  0  0  0  0  0  0  0  0  0  0  0
  150.5024  140.1494  155.0067 C   0  0  1  0  0  0  0  0  0  0  0  0
  151.4680  138.9707  155.0279 C   0  0  0  0  0  0  0  0  0  0  0  0
  150.5555  137.7547  155.2142 C   0  0  0  0  0  0  0  0  0  0  0  0
  149.2277  138.2201  154.9923 O   0  0  0  0  0  0  0  0  0  0  0  0
  149.2829  139.4843  154.3459 C   0  0  1  0  0  0  0  0  0  0  0  0
  147.9300  140.2265  154.4315 C   0  0  0  0  0  0  0  0  0  0  0  0
  146.8874  139.5769  153.5073 C   0  0  0  0  0  0  0  0  0  0  0  0
  148.0760  141.7199  154.0909 C   0  0  0  0  0  0  0  0  0  0  0  0
  151.1184  143.6776  158.1265 H   0  0  0  0  0  0  0  0  0  0  0  0
  152.3323  144.9445  158.2718 H   0  0  0  0  0  0  0  0  0  0  0  0
  150.8141  145.0672  159.1582 H   0  0  0  0  0  0  0  0  0  0  0  0
  153.9806  143.5604  163.6788 H   0  0  0  0  0  0  0  0  0  0  0  0
  152.3869  142.8329  163.9732 H   0  0  0  0  0  0  0  0  0  0  0  0
  152.5223  144.5687  163.6300 H   0  0  0  0  0  0  0  0  0  0  0  0
  153.9584  140.1772  161.3098 H   0  0  0  0  0  0  0  0  0  0  0  0
  153.5449  140.8227  162.8914 H   0  0  0  0  0  0  0  0  0  0  0  0
  155.0310  141.3397  162.0913 H   0  0  0  0  0  0  0  0  0  0  0  0
  153.6320  142.0703  157.9645 H   0  0  0  0  0  0  0  0  0  0  0  0
  153.8768  140.7111  159.0235 H   0  0  0  0  0  0  0  0  0  0  0  0
  152.0367  141.8326  156.5231 H   0  0  0  0  0  0  0  0  0  0  0  0
  149.7959  139.9570  157.0633 H   0  0  0  0  0  0  0  0  0  0  0  0
  149.5237  141.5414  156.3892 H   0  0  0  0  0  0  0  0  0  0  0  0
  150.8871  140.9458  154.3681 H   0  0  0  0  0  0  0  0  0  0  0  0
  151.9782  138.9000  154.0663 H   0  0  0  0  0  0  0  0  0  0  0  0
  152.2354  139.0381  155.7988 H   0  0  0  0  0  0  0  0  0  0  0  0
  150.8058  136.9616  154.5088 H   0  0  0  0  0  0  0  0  0  0  0  0
  150.6285  137.3480  156.2231 H   0  0  0  0  0  0  0  0  0  0  0  0
  149.5151  139.3028  153.2941 H   0  0  0  0  0  0  0  0  0  0  0  0
  147.5470  140.1453  155.4488 H   0  0  0  0  0  0  0  0  0  0  0  0
  147.2061  139.6097  152.4647 H   0  0  0  0  0  0  0  0  0  0  0  0
  145.9269  140.0879  153.5781 H   0  0  0  0  0  0  0  0  0  0  0  0
  146.7191  138.5323  153.7708 H   0  0  0  0  0  0  0  0  0  0  0  0
  148.4540  141.8583  153.0776 H   0  0  0  0  0  0  0  0  0  0  0  0
  148.7613  142.2257  154.7708 H   0  0  0  0  0  0  0  0  0  0  0  0
  147.1169  142.2334  154.1597 H   0  0  0  0  0  0  0  0  0  0  0  0
  1  2  1  0  0  0  0
  1 22  1  0  0  0  0
  1 23  1  0  0  0  0
  1 24  1  0  0  0  0
  2  8  1  0  0  0  0
  2  3  2  0  0  0  0
  3  4  1  0  0  0  0
  4  5  1  0  0  0  0
  4  6  1  0  0  0  0
  5 25  1  0  0  0  0
  5 26  1  0  0  0  0
  5 27  1  0  0  0  0
  6  7  1  0  0  0  0
  6  8  2  0  0  0  0
  7 28  1  0  0  0  0
  7 29  1  0  0  0  0
  7 30  1  0  0  0  0
  8  9  1  0  0  0  0
  9 10  1  0  0  0  0
  9 31  1  0  0  0  0
  9 32  1  0  0  0  0
 10 11  2  0  0  0  0
 10 12  1  0  0  0  0
 12 13  1  0  0  0  0
 12 33  1  0  0  0  0
 13 14  1  0  0  0  0
 13 34  1  0  0  0  0
 13 35  1  0  0  0  0
 14 18  1  0  0  0  0
 14 15  1  0  0  0  0
 14 36  1  0  0  0  0
 15 16  1  0  0  0  0
 15 37  1  0  0  0  0
 15 38  1  0  0  0  0
 16 17  1  0  0  0  0
 16 39  1  0  0  0  0
 16 40  1  0  0  0  0
 17 18  1  0  0  0  0
 18 19  1  0  0  0  0
 18 41  1  0  0  0  0
 19 20  1  0  0  0  0
 19 21  1  0  0  0  0
 19 42  1  0  0  0  0
 20 43  1  0  0  0  0
 20 44  1  0  0  0  0
 20 45  1  0  0  0  0
 21 46  1  0  0  0  0
 21 47  1  0  0  0  0
 21 48  1  0  0  0  0
M  END
> <s_m_source_file>
AV-unprocessed.smi

> <i_m_source_file_index>
667

> <i_lp_mmshare_version>
43012

> <i_f3d_flags>
0

> <s_epik_input>
W0NIM11jMW5uKFtDSDNdKWMoW0NIM10pYzFbQ0gyXUMoPU8pW05IXVtDSDJdW0NAQEhdMltDSDJdW0NIMl1PW0NASF0yW0NIXShbQ0gzXSlbQ0gzXQ==

> <s_epik_cmdline>
J2VwaWtfcHl0aG9uJywgJy1waCcsICc3LjAnLCAnLXRuJywgJzgnLCAnLW1hJywgJzIwMCcsICctbWV0YWxfYmluZGluZycsICctaW1hZScsICc8aW5maWxlLm1hZT4nLCAnLW9tYWUnLCAnPG91dGZpbGUubWFlPic=

> <r_lp_tautomer_probability>
1

> <r_epik_Ionization_Penalty>
0.00315488

> <r_epik_Ionization_Penalty_Charging>
0

> <r_epik_Ionization_Penalty_Neutral>
0.00315488

> <r_epik_State_Penalty>
0.00222269

> <r_epik_Charging_Adjusted_Penalty>
0.00222269

> <i_epik_Tot_Q>
0

> <i_epik_Tot_abs_Q>
0

> <r_epik_Metal_State_Penalty>
-0

> <b_epik_Metal_Only>
0

> <s_lp_Force_Field>
OPLS_2005

> <r_lp_Energy>
16.6838

> <b_lp_Chiralities_Consistent>
1

> <s_lp_Variant>
AV-unprocessed.smi:667-2

> <Gold.Version>
5.8.1

> <Gold.Id.Protein>
6NUR|6NUR_protein|mol2

> <Gold.PLP.Fitness>
44.7580

> <Gold.PLP.PLP>
-45.4025

> <Gold.PLP.part.hbond>
0.0000

> <Gold.PLP.part.metal>
0.0000

> <Gold.PLP.part.buried>
-2.1531

> <Gold.PLP.part.nonpolar>
-43.0525

> <Gold.PLP.part.repulsive>
0.3650

> <Gold.PLP.ligand.clash>
0.0000

> <Gold.PLP.ligand.torsion>
0.3455

> <Gold.PLP.Chemscore.Hbond>
0.0000

> <Gold.PLP.Chemscore.CHOScore>
0.0000

> <Gold.PLP.Chemscore.Metal>
0.0000

> <Gold.PLP.Chemscore.Internal.Correction>
0.0466

> <Gold.Rescore>
     Score         DG    S(hbond)    S(metal)    S(lipo)     H(rot)  DE(clash)    DE(int)     intcor
     15.53     -16.40       0.00        0.00     126.66       1.52       0.71       0.16       ----

> <Gold.Chemscore.Fitness>
15.5320

> <Gold.Chemscore.DG>
-16.4046

> <Gold.Chemscore.ZeroCoef>
-5.4800

> <Gold.Chemscore.Hbond>
0.0000

> <Gold.Chemscore.Metal>
0.0000

> <Gold.Chemscore.Lipo>
126.6592

> <Gold.Chemscore.Internal_Hbond>
0.0000

> <Gold.Chemscore.DEClash>
0.7108

> <Gold.Chemscore.DEInternal>
0.1619

> <Gold.Chemscore.Rot>
1.5213

> <Gold.Chemscore.Internal.Correction>
   9.000000E+99

> <Gold.Chemscore.Hbond.Weighted>
-0.0000

> <Gold.Chemscore.Metal.Weighted>
-0.0000

> <Gold.Chemscore.Lipo.Weighted>
-14.8191

> <Gold.Chemscore.Internal_Hbond.Weighted>
0.0000

> <Gold.Chemscore.DEClash.Weighted>
0.7108

> <Gold.Chemscore.DEInternal.Weighted>
0.1619

> <Gold.Chemscore.Rot.Weighted>
3.8945

> <Gold.Chemscore.Internal.Correction.Weighted>
   9.000000E+99

> <Gold.Protein.RotatedTorsions>
[ 6907 6896 6895 6894 ] final -113.83 input  -60.11 | X-H torsion
[ 7974 7965 7964 7962 ] final -141.93 input  175.53 | X-H torsion
[ 8008 7997 7996 7995 ] final   -7.49 input   59.86 | X-H torsion
[ 10167 10162 10161 10158 ] final  -45.84 input  -65.29 | X-H torsion
[ 10718 10713 10712 10709 ] final   17.18 input   66.30 | X-H torsion
[ 10763 10752 10751 10750 ] final  -33.62 input  -60.55 | X-H torsion
[ 11005 11000 10999 10996 ] final   91.39 input  -57.11 | X-H torsion

> <Gold.Protein.ActiveResidues>
 VAL166  LYS551  ARG553  GLY616  TRP617  ASP618  TYR619  PRO620  LYS621  CYS622 
 ASP623  PHE694  ASN695  SER759  ASP760  ASP761  ALA762  ILE779  LEU786  VAL792 
 PHE793  MET794  SER795  GLU796  ALA797  LYS798  CYS799  TRP800  GLU811  SER814 

> <Gold.Protein.RotatedAtoms>
  150.7858  133.8888  159.3307 H   0  0  0  0  0  0  0  0  0  0  0  0  # atno 6907 bound_to 6896
  151.6739  135.0970  160.0212 H   0  0  0  0  0  0  0  0  0  0  0  0  # atno 6908 bound_to 6896
  152.3921  133.6655  159.6281 H   0  0  0  0  0  0  0  0  0  0  0  0  # atno 6909 bound_to 6896
  144.8482  140.6020  143.5408 H   0  0  0  0  0  0  0  0  0  0  0  0  # atno 7974 bound_to 7965
  154.5833  140.2406  155.8022 H   0  0  0  0  0  0  0  0  0  0  0  0  # atno 8008 bound_to 7997
  156.2195  140.3002  155.9874 H   0  0  0  0  0  0  0  0  0  0  0  0  # atno 8009 bound_to 7997
  155.2502  140.0410  157.2976 H   0  0  0  0  0  0  0  0  0  0  0  0  # atno 8010 bound_to 7997
  140.6842  143.2860  151.3697 H   0  0  0  0  0  0  0  0  0  0  0  0  # atno 10167 bound_to 10162
  157.0785  130.6378  149.5821 H   0  0  0  0  0  0  0  0  0  0  0  0  # atno 10718 bound_to 10713
  153.8333  135.6864  153.4812 H   0  0  0  0  0  0  0  0  0  0  0  0  # atno 10763 bound_to 10752
  153.1498  135.4623  154.9617 H   0  0  0  0  0  0  0  0  0  0  0  0  # atno 10764 bound_to 10752
  154.7877  135.3290  154.7794 H   0  0  0  0  0  0  0  0  0  0  0  0  # atno 10765 bound_to 10752
  139.8839  134.8671  156.3422 H   0  0  0  0  0  0  0  0  0  0  0  0  # atno 11005 bound_to 11000
  145.4554  139.1518  143.3895 LP  0  0  0  0  0  0  0  0  0  0  0  0  # atno 17320 bound_to 7965
  146.2762  140.4682  142.8794 LP  0  0  0  0  0  0  0  0  0  0  0  0  # atno 17321 bound_to 7965
  139.6187  144.0951  152.2370 LP  0  0  0  0  0  0  0  0  0  0  0  0  # atno 17342 bound_to 10162
  140.0388  144.6023  150.7427 LP  0  0  0  0  0  0  0  0  0  0  0  0  # atno 17343 bound_to 10162
  155.9930  130.4990  150.7364 LP  0  0  0  0  0  0  0  0  0  0  0  0  # atno 17370 bound_to 10713
  157.4820  131.0903  151.0525 LP  0  0  0  0  0  0  0  0  0  0  0  0  # atno 17371 bound_to 10713
  140.9651  133.7363  156.0455 LP  0  0  0  0  0  0  0  0  0  0  0  0  # atno 17394 bound_to 11000
  140.7941  134.3584  157.5457 LP  0  0  0  0  0  0  0  0  0  0  0  0  # atno 17395 bound_to 11000

$$$$
