AV-unprocessed.smi:761|AV-procd|sdf|3632|dock8
  -GOLD-   22720 1 23D 1   1.00000     0.00000
 Structure written by MMmdl.
 34 35  0  0  0  0  0  0  0  0  4 V2000
  154.1451  140.1657  159.2410 O   0  0  0  0  0  0  0  0  0  0  0  0
  154.3310  141.0267  160.1085 C   0  0  0  0  0  0  0  0  0  0  0  0
  155.1316  140.9412  161.2049 N   0  5  0  0  0  0  0  0  0  0  0  0
  156.0733  139.8552  161.4736 C   0  0  0  0  0  0  0  0  0  0  0  0
  155.3138  138.5147  161.5206 C   0  0  0  0  0  0  0  0  0  0  0  0
  154.5206  138.3486  162.7662 N   0  3  0  0  0  0  0  0  0  0  0  0
  155.3031  138.3338  164.0411 C   0  0  0  0  0  0  0  0  0  0  0  0
  154.5939  137.3018  164.8708 C   0  0  0  0  0  0  0  0  0  0  0  0
  153.6675  136.6640  164.1648 C   0  0  0  0  0  0  0  0  0  0  0  0
  153.6112  137.1671  162.7502 C   0  0  0  0  0  0  0  0  0  0  0  0
  153.7251  142.2240  160.0155 N   0  0  0  0  0  0  0  0  0  0  0  0
  152.7760  142.6743  159.0584 C   0  0  0  0  0  0  0  0  0  0  0  0
  152.7257  144.0587  158.7839 C   0  0  0  0  0  0  0  0  0  0  0  0
  151.7811  144.5498  157.8602 C   0  0  0  0  0  0  0  0  0  0  0  0
  150.9256  143.6976  157.2555 N   0  3  0  0  0  0  0  0  0  0  0  0
  150.9247  142.3691  157.4981 C   0  0  0  0  0  0  0  0  0  0  0  0
  151.8466  141.8203  158.4124 C   0  0  0  0  0  0  0  0  0  0  0  0
  156.8588  139.7833  160.7203 H   0  0  0  0  0  0  0  0  0  0  0  0
  156.5890  140.0030  162.4228 H   0  0  0  0  0  0  0  0  0  0  0  0
  154.6310  138.4846  160.6695 H   0  0  0  0  0  0  0  0  0  0  0  0
  155.9939  137.6700  161.3991 H   0  0  0  0  0  0  0  0  0  0  0  0
  156.3395  138.0285  163.8904 H   0  0  0  0  0  0  0  0  0  0  0  0
  155.2847  139.3121  164.5220 H   0  0  0  0  0  0  0  0  0  0  0  0
  154.8438  137.1104  165.9041 H   0  0  0  0  0  0  0  0  0  0  0  0
  153.0372  135.8650  164.5266 H   0  0  0  0  0  0  0  0  0  0  0  0
  152.5995  137.4579  162.4665 H   0  0  0  0  0  0  0  0  0  0  0  0
  153.9629  136.3848  162.0757 H   0  0  0  0  0  0  0  0  0  0  0  0
  154.0212  142.9114  160.6931 H   0  0  0  0  0  0  0  0  0  0  0  0
  153.4088  144.7394  159.2715 H   0  0  0  0  0  0  0  0  0  0  0  0
  151.6830  145.5913  157.5913 H   0  0  0  0  0  0  0  0  0  0  0  0
  150.1869  141.7890  156.9636 H   0  0  0  0  0  0  0  0  0  0  0  0
  151.8176  140.7599  158.6129 H   0  0  0  0  0  0  0  0  0  0  0  0
  153.9102  139.1513  162.8234 H   0  0  0  0  0  0  0  0  0  0  0  0
  150.2478  144.0736  156.5921 H   0  0  0  0  0  0  0  0  0  0  0  0
  1  2  2  0  0  0  0
  2  3  1  0  0  0  0
  2 11  1  0  0  0  0
  3  4  1  0  0  0  0
  4  5  1  0  0  0  0
  4 18  1  0  0  0  0
  4 19  1  0  0  0  0
  5  6  1  0  0  0  0
  5 20  1  0  0  0  0
  5 21  1  0  0  0  0
  6 10  1  0  0  0  0
  6  7  1  0  0  0  0
  6 33  1  0  0  0  0
  7  8  1  0  0  0  0
  7 22  1  0  0  0  0
  7 23  1  0  0  0  0
  8  9  2  0  0  0  0
  8 24  1  0  0  0  0
  9 10  1  0  0  0  0
  9 25  1  0  0  0  0
 10 26  1  0  0  0  0
 10 27  1  0  0  0  0
 11 12  1  0  0  0  0
 11 28  1  0  0  0  0
 12 17  1  0  0  0  0
 12 13  2  0  0  0  0
 13 14  1  0  0  0  0
 13 29  1  0  0  0  0
 14 15  2  0  0  0  0
 14 30  1  0  0  0  0
 15 16  1  0  0  0  0
 15 34  1  0  0  0  0
 16 17  2  0  0  0  0
 16 31  1  0  0  0  0
 17 32  1  0  0  0  0
M  CHG  1   3  -1
M  CHG  1   6   1
M  CHG  1  15   1
M  END
> <s_m_source_file>
AV-unprocessed.smi

> <i_m_source_file_index>
761

> <i_lp_mmshare_version>
43012

> <i_f3d_flags>
0

> <s_epik_input>
W2NIXTFbY0hdbltjSF1bY0hdYzFbTkhdQyg9TylbTkhdW0NIMl1bQ0gyXU4yW0NIMl1bQ0hdPVtDSF1bQ0gyXTI=

> <s_epik_cmdline>
J2VwaWtfcHl0aG9uJywgJy1waCcsICc3LjAnLCAnLXRuJywgJzgnLCAnLW1hJywgJzIwMCcsICctbWV0YWxfYmluZGluZycsICctaW1hZScsICc8aW5maWxlLm1hZT4nLCAnLW9tYWUnLCAnPG91dGZpbGUubWFlPic=

> <r_epik_Ionization_Penalty>
8.30346

> <r_epik_Ionization_Penalty_Charging>
8.30346

> <r_epik_Ionization_Penalty_Neutral>
3.3887e-06

> <r_epik_State_Penalty>
7.87421

> <r_epik_Charging_Adjusted_Penalty>
16.1777

> <i_epik_Tot_Q>
1

> <i_epik_Tot_abs_Q>
3

> <r_epik_Metal_State_Penalty>
3.87237

> <b_epik_Metal_Only>
1

> <s_lp_Force_Field>
OPLS_2005

> <r_lp_Energy>
27.0573

> <b_lp_Chiralities_Consistent>
1

> <s_lp_Variant>
AV-unprocessed.smi:761-3

> <Gold.Version>
5.8.1

> <Gold.Id.Protein>
6NUR|6NUR_protein|mol2

> <Gold.PLP.Fitness>
47.7548

> <Gold.PLP.PLP>
-39.4734

> <Gold.PLP.part.hbond>
-3.0000

> <Gold.PLP.part.metal>
0.0000

> <Gold.PLP.part.buried>
-4.3782

> <Gold.PLP.part.nonpolar>
-32.2929

> <Gold.PLP.part.repulsive>
0.0413

> <Gold.PLP.ligand.clash>
0.0000

> <Gold.PLP.ligand.torsion>
0.2685

> <Gold.PLP.Chemscore.Hbond>
2.9280

> <Gold.PLP.Chemscore.CHOScore>
0.0000

> <Gold.PLP.Chemscore.Metal>
0.0000

> <Gold.Chemscore.Hbonds>
donor molecule, donor type, donor heavy atom, donor atom, acceptor molecule, acceptor atom, score
      L1  H    15    34       P1  8028  2.00
      P1  H  7997  8008       L1     1  0.76

> <Gold.PLP.Chemscore.Internal.Correction>
0.0344

> <Gold.Rescore>
     Score         DG    S(hbond)    S(metal)    S(lipo)     H(rot)  DE(clash)    DE(int)     intcor
     18.46     -19.97       1.94        0.00     101.52       1.51       0.25       1.26       ----

> <Gold.Chemscore.Fitness>
18.4644

> <Gold.Chemscore.DG>
-19.9717

> <Gold.Chemscore.ZeroCoef>
-5.4800

> <Gold.Chemscore.Hbond>
1.9412

> <Gold.Chemscore.Metal>
0.0000

> <Gold.Chemscore.Lipo>
101.5232

> <Gold.Chemscore.Internal_Hbond>
0.0000

> <Gold.Chemscore.DEClash>
0.2480

> <Gold.Chemscore.DEInternal>
1.2594

> <Gold.Chemscore.Rot>
1.5117

> <Gold.Chemscore.Internal.Correction>
   9.000000E+99

> <Gold.Chemscore.Hbonds>
donor molecule, donor type, donor heavy atom, donor atom, acceptor molecule, acceptor atom, score
      L1  H    15    34       P1  8028  1.00
      P1  H  7997  8008       L1     1  0.72

> <Gold.Chemscore.Hbond.Weighted>
-6.4835

> <Gold.Chemscore.Metal.Weighted>
-0.0000

> <Gold.Chemscore.Lipo.Weighted>
-11.8782

> <Gold.Chemscore.Internal_Hbond.Weighted>
0.0000

> <Gold.Chemscore.DEClash.Weighted>
0.2480

> <Gold.Chemscore.DEInternal.Weighted>
1.2594

> <Gold.Chemscore.Rot.Weighted>
3.8700

> <Gold.Chemscore.Internal.Correction.Weighted>
   9.000000E+99

> <Gold.Protein.RotatedTorsions>
[ 6907 6896 6895 6894 ] final   70.93 input  -60.11 | X-H torsion
[ 7974 7965 7964 7962 ] final -109.62 input  175.53 | X-H torsion
[ 8008 7997 7996 7995 ] final -113.06 input   59.86 | X-H torsion
[ 10167 10162 10161 10158 ] final   39.51 input  -65.29 | X-H torsion
[ 10718 10713 10712 10709 ] final  124.02 input   66.30 | X-H torsion
[ 10763 10752 10751 10750 ] final  140.99 input  -60.55 | X-H torsion
[ 11005 11000 10999 10996 ] final  -64.73 input  -57.11 | X-H torsion

> <Gold.Protein.ActiveResidues>
 VAL166  LYS551  ARG553  GLY616  TRP617  ASP618  TYR619  PRO620  LYS621  CYS622 
 ASP623  PHE694  ASN695  SER759  ASP760  ASP761  ALA762  ILE779  LEU786  VAL792 
 PHE793  MET794  SER795  GLU796  ALA797  LYS798  CYS799  TRP800  GLU811  SER814 

> <Gold.Protein.RotatedAtoms>
  152.4779  134.4796  159.9661 H   0  0  0  0  0  0  0  0  0  0  0  0  # atno 6907 bound_to 6896
  151.4808  133.3541  159.2846 H   0  0  0  0  0  0  0  0  0  0  0  0  # atno 6908 bound_to 6896
  150.8831  134.8251  159.7300 H   0  0  0  0  0  0  0  0  0  0  0  0  # atno 6909 bound_to 6896
  145.1783  140.8959  143.3494 H   0  0  0  0  0  0  0  0  0  0  0  0  # atno 7974 bound_to 7965
  155.0149  140.0393  157.2414 H   0  0  0  0  0  0  0  0  0  0  0  0  # atno 8008 bound_to 7997
  154.7428  140.2752  155.6335 H   0  0  0  0  0  0  0  0  0  0  0  0  # atno 8009 bound_to 7997
  156.2868  140.2662  156.2160 H   0  0  0  0  0  0  0  0  0  0  0  0  # atno 8010 bound_to 7997
  140.3833  144.1951  150.6130 H   0  0  0  0  0  0  0  0  0  0  0  0  # atno 10167 bound_to 10162
  157.5619  131.1089  150.8523 H   0  0  0  0  0  0  0  0  0  0  0  0  # atno 10718 bound_to 10713
  153.9319  135.2989  155.3445 H   0  0  0  0  0  0  0  0  0  0  0  0  # atno 10763 bound_to 10752
  154.7522  135.4975  153.9313 H   0  0  0  0  0  0  0  0  0  0  0  0  # atno 10764 bound_to 10752
  153.1087  135.6753  153.9644 H   0  0  0  0  0  0  0  0  0  0  0  0  # atno 10765 bound_to 10752
  141.1433  133.6670  156.5878 H   0  0  0  0  0  0  0  0  0  0  0  0  # atno 11005 bound_to 11000
  145.0162  139.3465  143.6095 LP  0  0  0  0  0  0  0  0  0  0  0  0  # atno 17320 bound_to 7965
  146.3457  139.9444  142.8737 LP  0  0  0  0  0  0  0  0  0  0  0  0  # atno 17321 bound_to 7965
  140.4915  143.2346  151.8811 LP  0  0  0  0  0  0  0  0  0  0  0  0  # atno 17342 bound_to 10162
  139.4794  144.5160  151.8867 LP  0  0  0  0  0  0  0  0  0  0  0  0  # atno 17343 bound_to 10162
  156.9019  130.5249  149.5282 LP  0  0  0  0  0  0  0  0  0  0  0  0  # atno 17370 bound_to 10713
  156.0670  130.5711  150.9309 LP  0  0  0  0  0  0  0  0  0  0  0  0  # atno 17371 bound_to 10713
  140.3787  134.7542  157.4646 LP  0  0  0  0  0  0  0  0  0  0  0  0  # atno 17394 bound_to 11000
  140.0655  134.5936  155.8701 LP  0  0  0  0  0  0  0  0  0  0  0  0  # atno 17395 bound_to 11000

$$$$
