AV-unprocessed.smi:2083|AV-procd|sdf|8500|dock6
  -GOLD-   2272011213D 1   1.00000     0.00000
 Structure written by MMmdl.
 44 45  0  0  0  0  0  0  0  0  3 V2000
  152.2611  140.8920  158.7755 C   0  0  0  0  0  0  0  0  0  0  0  0
  152.0028  140.2893  157.4371 C   0  0  0  0  0  0  0  0  0  0  0  0
  151.0007  140.4542  156.5236 C   0  0  0  0  0  0  0  0  0  0  0  0
  151.3793  139.5829  155.4658 C   0  0  0  0  0  0  0  0  0  0  0  0
  150.7011  139.3839  154.3252 N   0  5  0  0  0  0  0  0  0  0  0  0
  149.3674  139.6024  154.2815 C   0  0  0  0  0  0  0  0  0  0  0  0
  148.7537  140.5048  154.8561 O   0  0  0  0  0  0  0  0  0  0  0  0
  148.7001  138.7166  153.5285 N   0  0  0  0  0  0  0  0  0  0  0  0
  147.2563  138.6992  153.3123 C   0  0  0  0  0  0  0  0  0  0  0  0
  146.5683  137.4489  153.9290 C   0  0  2  0  0  0  0  0  0  0  0  0
  147.3227  136.9956  155.1992 C   0  0  0  0  0  0  0  0  0  0  0  0
  146.4270  136.2921  152.9847 N   0  3  2  0  0  0  0  0  0  0  0  0
  145.6132  136.5401  151.7587 C   0  0  0  0  0  0  0  0  0  0  0  0
  145.6569  135.3408  150.7966 C   0  0  0  0  0  0  0  0  0  0  0  0
  145.2206  134.0455  151.4904 C   0  0  0  0  0  0  0  0  0  0  0  0
  146.0296  133.8122  152.7764 C   0  0  1  0  0  0  0  0  0  0  0  0
  147.4773  133.3663  152.5048 C   0  0  0  0  0  0  0  0  0  0  0  0
  145.9623  135.0575  153.6823 C   0  0  0  0  0  0  0  0  0  0  0  0
  152.5020  138.9330  155.7231 N   0  0  0  0  0  0  0  0  0  0  0  0
  152.9114  139.3844  156.9834 O   0  0  0  0  0  0  0  0  0  0  0  0
  151.5226  140.5492  159.5003 H   0  0  0  0  0  0  0  0  0  0  0  0
  152.2077  141.9794  158.7250 H   0  0  0  0  0  0  0  0  0  0  0  0
  153.2499  140.6198  159.1456 H   0  0  0  0  0  0  0  0  0  0  0  0
  150.1369  141.0979  156.5973 H   0  0  0  0  0  0  0  0  0  0  0  0
  149.2414  137.9971  153.0712 H   0  0  0  0  0  0  0  0  0  0  0  0
  146.8543  139.6243  153.7279 H   0  0  0  0  0  0  0  0  0  0  0  0
  147.0818  138.7333  152.2363 H   0  0  0  0  0  0  0  0  0  0  0  0
  145.5614  137.7514  154.2206 H   0  0  0  0  0  0  0  0  0  0  0  0
  147.3813  137.7924  155.9408 H   0  0  0  0  0  0  0  0  0  0  0  0
  148.3429  136.6933  154.9608 H   0  0  0  0  0  0  0  0  0  0  0  0
  146.8408  136.1562  155.6972 H   0  0  0  0  0  0  0  0  0  0  0  0
  144.5835  136.7650  152.0408 H   0  0  0  0  0  0  0  0  0  0  0  0
  145.9945  137.3965  151.2040 H   0  0  0  0  0  0  0  0  0  0  0  0
  145.0132  135.5329  149.9377 H   0  0  0  0  0  0  0  0  0  0  0  0
  146.6657  135.2272  150.3988 H   0  0  0  0  0  0  0  0  0  0  0  0
  144.1605  134.1137  151.7391 H   0  0  0  0  0  0  0  0  0  0  0  0
  145.3220  133.1972  150.8126 H   0  0  0  0  0  0  0  0  0  0  0  0
  145.5517  132.9917  153.3133 H   0  0  0  0  0  0  0  0  0  0  0  0
  148.0533  134.1377  151.9936 H   0  0  0  0  0  0  0  0  0  0  0  0
  147.5015  132.4691  151.8858 H   0  0  0  0  0  0  0  0  0  0  0  0
  147.9949  133.1348  153.4362 H   0  0  0  0  0  0  0  0  0  0  0  0
  146.5461  134.8685  154.5815 H   0  0  0  0  0  0  0  0  0  0  0  0
  144.9346  135.2094  154.0169 H   0  0  0  0  0  0  0  0  0  0  0  0
  147.3606  136.1018  152.6504 H   0  0  0  0  0  0  0  0  0  0  0  0
  1  2  1  0  0  0  0
  1 21  1  0  0  0  0
  1 22  1  0  0  0  0
  1 23  1  0  0  0  0
  2 20  1  0  0  0  0
  2  3  2  0  0  0  0
  3  4  1  0  0  0  0
  3 24  1  0  0  0  0
  4  5  1  0  0  0  0
  4 19  2  0  0  0  0
  5  6  1  0  0  0  0
  6  7  2  0  0  0  0
  6  8  1  0  0  0  0
  8  9  1  0  0  0  0
  8 25  1  0  0  0  0
  9 10  1  0  0  0  0
  9 26  1  0  0  0  0
  9 27  1  0  0  0  0
 10 11  1  0  0  0  0
 10 12  1  0  0  0  0
 10 28  1  0  0  0  0
 11 29  1  0  0  0  0
 11 30  1  0  0  0  0
 11 31  1  0  0  0  0
 12 18  1  0  0  0  0
 12 13  1  0  0  0  0
 12 44  1  0  0  0  0
 13 14  1  0  0  0  0
 13 32  1  0  0  0  0
 13 33  1  0  0  0  0
 14 15  1  0  0  0  0
 14 34  1  0  0  0  0
 14 35  1  0  0  0  0
 15 16  1  0  0  0  0
 15 36  1  0  0  0  0
 15 37  1  0  0  0  0
 16 17  1  0  0  0  0
 16 18  1  0  0  0  0
 16 38  1  0  0  0  0
 17 39  1  0  0  0  0
 17 40  1  0  0  0  0
 17 41  1  0  0  0  0
 18 42  1  0  0  0  0
 18 43  1  0  0  0  0
 19 20  1  0  0  0  0
M  CHG  1   5  -1
M  CHG  1  12   1
M  END
> <s_m_source_file>
AV-unprocessed.smi

> <i_m_source_file_index>
2083

> <i_lp_mmshare_version>
43012

> <i_f3d_flags>
0

> <s_epik_input>
W0NIM11jMVtjSF1jKG5vMSlbTkhdQyg9TylbTkhdW0NIMl1bQ0BIXShbQ0gzXSlOMltDSDJdW0NIMl1bQ0gyXVtDQEBIXShbQ0gzXSlbQ0gyXTI=

> <s_epik_cmdline>
J2VwaWtfcHl0aG9uJywgJy1waCcsICc3LjAnLCAnLXRuJywgJzgnLCAnLW1hJywgJzIwMCcsICctbWV0YWxfYmluZGluZycsICctaW1hZScsICc8aW5maWxlLm1hZT4nLCAnLW9tYWUnLCAnPG91dGZpbGUubWFlPic=

> <r_epik_Ionization_Penalty>
6.22434

> <r_epik_Ionization_Penalty_Charging>
6.22425

> <r_epik_Ionization_Penalty_Neutral>
9.62407e-05

> <r_epik_State_Penalty>
6.22423

> <r_epik_Charging_Adjusted_Penalty>
12.4485

> <i_epik_Tot_Q>
0

> <i_epik_Tot_abs_Q>
2

> <r_epik_Metal_State_Penalty>
2.16764

> <b_epik_Metal_Only>
1

> <s_lp_Force_Field>
OPLS_2005

> <r_lp_Energy>
12.2094

> <b_lp_Chiralities_Consistent>
1

> <s_lp_Variant>
AV-unprocessed.smi:2083-11

> <Gold.Version>
5.8.1

> <Gold.Id.Protein>
6NUR|6NUR_protein|mol2

> <Gold.PLP.Fitness>
41.5490

> <Gold.PLP.PLP>
-30.5442

> <Gold.PLP.part.hbond>
-5.2944

> <Gold.PLP.part.metal>
0.0000

> <Gold.PLP.part.buried>
-2.3543

> <Gold.PLP.part.nonpolar>
-23.1439

> <Gold.PLP.part.repulsive>
0.3293

> <Gold.PLP.ligand.clash>
0.0000

> <Gold.PLP.ligand.torsion>
0.8940

> <Gold.PLP.Chemscore.Hbond>
4.2342

> <Gold.PLP.Chemscore.CHOScore>
0.0000

> <Gold.PLP.Chemscore.Metal>
0.0000

> <Gold.Chemscore.Hbonds>
donor molecule, donor type, donor heavy atom, donor atom, acceptor molecule, acceptor atom, score
      L1  H     8    25       P1  7948  0.62
      L1  H    12    44       P1  7948  2.00
      P1  H  7989  7998       L1     5  0.55
      P1  H  7997  8009       L1    20  1.00

> <Gold.PLP.Chemscore.Internal.Correction>
0.0903

> <Gold.Rescore>
     Score         DG    S(hbond)    S(metal)    S(lipo)     H(rot)  DE(clash)    DE(int)     intcor
     14.99     -17.32       2.77        0.00      55.37       1.52       0.04       2.28       ----

> <Gold.Chemscore.Fitness>
14.9891

> <Gold.Chemscore.DG>
-17.3180

> <Gold.Chemscore.ZeroCoef>
-5.4800

> <Gold.Chemscore.Hbond>
2.7690

> <Gold.Chemscore.Metal>
0.0000

> <Gold.Chemscore.Lipo>
55.3693

> <Gold.Chemscore.Internal_Hbond>
0.0000

> <Gold.Chemscore.DEClash>
0.0448

> <Gold.Chemscore.DEInternal>
2.2840

> <Gold.Chemscore.Rot>
1.5190

> <Gold.Chemscore.Internal.Correction>
   9.000000E+99

> <Gold.Chemscore.Hbonds>
donor molecule, donor type, donor heavy atom, donor atom, acceptor molecule, acceptor atom, score
      L1  H     8    25       P1  7948  0.59
      L1  H    12    44       P1  7948  1.00
      P1  H  7989  7998       L1     5  0.02
      P1  H  7997  8009       L1    20  0.22

> <Gold.Chemscore.Hbond.Weighted>
-9.2484

> <Gold.Chemscore.Metal.Weighted>
-0.0000

> <Gold.Chemscore.Lipo.Weighted>
-6.4782

> <Gold.Chemscore.Internal_Hbond.Weighted>
0.0000

> <Gold.Chemscore.DEClash.Weighted>
0.0448

> <Gold.Chemscore.DEInternal.Weighted>
2.2840

> <Gold.Chemscore.Rot.Weighted>
3.8886

> <Gold.Chemscore.Internal.Correction.Weighted>
   9.000000E+99

> <Gold.Protein.RotatedTorsions>
[ 6907 6896 6895 6894 ] final  123.10 input  -60.11 | X-H torsion
[ 7974 7965 7964 7962 ] final   90.99 input  175.53 | X-H torsion
[ 8008 7997 7996 7995 ] final -177.06 input   59.86 | X-H torsion
[ 10167 10162 10161 10158 ] final -136.47 input  -65.29 | X-H torsion
[ 10718 10713 10712 10709 ] final -175.88 input   66.30 | X-H torsion
[ 10763 10752 10751 10750 ] final  -50.20 input  -60.55 | X-H torsion
[ 11005 11000 10999 10996 ] final   13.76 input  -57.11 | X-H torsion

> <Gold.Protein.ActiveResidues>
 VAL166  LYS551  ARG553  GLY616  TRP617  ASP618  TYR619  PRO620  LYS621  CYS622 
 ASP623  PHE694  ASN695  SER759  ASP760  ASP761  ALA762  ILE779  LEU786  VAL792 
 PHE793  MET794  SER795  GLU796  ALA797  LYS798  CYS799  TRP800  GLU811  SER814 

> <Gold.Protein.RotatedAtoms>
  152.4189  133.7084  159.6464 H   0  0  0  0  0  0  0  0  0  0  0  0  # atno 6907 bound_to 6896
  150.8066  133.8488  159.3208 H   0  0  0  0  0  0  0  0  0  0  0  0  # atno 6908 bound_to 6896
  151.6210  135.1034  160.0153 H   0  0  0  0  0  0  0  0  0  0  0  0  # atno 6909 bound_to 6896
  145.5116  139.2277  143.2721 H   0  0  0  0  0  0  0  0  0  0  0  0  # atno 7974 bound_to 7965
  156.0023  140.1223  157.0535 H   0  0  0  0  0  0  0  0  0  0  0  0  # atno 8008 bound_to 7997
  154.4247  140.1104  156.5783 H   0  0  0  0  0  0  0  0  0  0  0  0  # atno 8009 bound_to 7997
  155.6195  140.3472  155.4649 H   0  0  0  0  0  0  0  0  0  0  0  0  # atno 8010 bound_to 7997
  139.8675  143.6999  152.2643 H   0  0  0  0  0  0  0  0  0  0  0  0  # atno 10167 bound_to 10162
  156.8064  130.9570  151.3117 H   0  0  0  0  0  0  0  0  0  0  0  0  # atno 10718 bound_to 10713
  154.1066  135.6555  153.4877 H   0  0  0  0  0  0  0  0  0  0  0  0  # atno 10763 bound_to 10752
  153.0271  135.5237  154.7234 H   0  0  0  0  0  0  0  0  0  0  0  0  # atno 10764 bound_to 10752
  154.6401  135.2987  155.0082 H   0  0  0  0  0  0  0  0  0  0  0  0  # atno 10765 bound_to 10752
  140.4771  134.0972  155.7743 H   0  0  0  0  0  0  0  0  0  0  0  0  # atno 11005 bound_to 11000
  146.2163  140.5923  142.9037 LP  0  0  0  0  0  0  0  0  0  0  0  0  # atno 17320 bound_to 7965
  144.7724  140.5667  143.6661 LP  0  0  0  0  0  0  0  0  0  0  0  0  # atno 17321 bound_to 7965
  139.7315  144.7581  151.0794 LP  0  0  0  0  0  0  0  0  0  0  0  0  # atno 17342 bound_to 10162
  140.7766  143.5082  150.9686 LP  0  0  0  0  0  0  0  0  0  0  0  0  # atno 17343 bound_to 10162
  157.6528  130.8899  149.9667 LP  0  0  0  0  0  0  0  0  0  0  0  0  # atno 17370 bound_to 10713
  156.1070  130.3652  150.0115 LP  0  0  0  0  0  0  0  0  0  0  0  0  # atno 17371 bound_to 10713
  141.1549  133.8901  157.2003 LP  0  0  0  0  0  0  0  0  0  0  0  0  # atno 17394 bound_to 11000
  139.9849  135.0085  156.9838 LP  0  0  0  0  0  0  0  0  0  0  0  0  # atno 17395 bound_to 11000

$$$$
