AV-unprocessed.smi:625|AV-procd|sdf|3101|dock10
  -GOLD-   22720 0 23D 1   1.00000     0.00000
 Structure written by MMmdl.
 49 51  0  0  0  0  0  0  0  0  1 V2000
  149.6210  130.9101  153.6123 C   0  0  0  0  0  0  0  0  0  0  0  0
  148.5462  131.5645  152.8811 N   0  0  0  0  0  0  0  0  0  0  0  0
  147.6800  132.4375  153.4211 C   0  0  0  0  0  0  0  0  0  0  0  0
  147.7373  132.7540  154.6107 O   0  0  0  0  0  0  0  0  0  0  0  0
  146.6943  132.9579  152.4706 C   0  0  0  0  0  0  0  0  0  0  0  0
  145.8384  132.1031  151.6614 C   0  0  0  0  0  0  0  0  0  0  0  0
  144.9757  132.6388  150.7755 C   0  0  0  0  0  0  0  0  0  0  0  0
  144.8606  134.0880  150.5883 C   0  0  0  0  0  0  0  0  0  0  0  0
  144.0964  134.5804  149.7584 O   0  0  0  0  0  0  0  0  0  0  0  0
  145.6634  134.8548  151.3865 N   0  0  0  0  0  0  0  0  0  0  0  0
  145.6651  136.3252  151.2760 C   0  0  0  0  0  0  0  0  0  0  0  0
  145.5992  137.0640  152.6243 C   0  0  0  0  0  0  0  0  0  0  0  0
  144.5018  137.2917  153.1315 O   0  0  0  0  0  0  0  0  0  0  0  0
  146.7589  137.4173  153.2041 N   0  0  0  0  0  0  0  0  0  0  0  0
  146.9195  138.0357  154.5155 C   0  0  2  0  0  0  0  0  0  0  0  0
  146.2932  137.1390  155.5968 C   0  0  0  0  0  0  0  0  0  0  0  0
  146.2830  139.4451  154.4755 C   0  0  2  0  0  0  0  0  0  0  0  0
  146.7479  140.3359  153.2991 C   0  0  0  0  0  0  0  0  0  0  0  0
  147.1079  141.6629  153.9919 C   0  0  2  0  0  0  0  0  0  0  0  0
  148.4362  141.4880  154.7506 C   0  0  0  0  0  0  0  0  0  0  0  0
  148.0280  140.6105  155.9480 C   0  0  0  0  0  0  0  0  0  0  0  0
  146.5254  140.3648  155.6978 C   0  0  1  0  0  0  0  0  0  0  0  0
  146.0985  141.7169  155.1335 C   0  0  0  0  0  0  0  0  0  0  0  0
  146.5678  134.2890  152.3069 C   0  0  0  0  0  0  0  0  0  0  0  0
  150.1847  130.2612  152.9424 H   0  0  0  0  0  0  0  0  0  0  0  0
  149.2227  130.2995  154.4237 H   0  0  0  0  0  0  0  0  0  0  0  0
  150.3084  131.6449  154.0335 H   0  0  0  0  0  0  0  0  0  0  0  0
  148.4529  131.3417  151.9008 H   0  0  0  0  0  0  0  0  0  0  0  0
  145.8724  131.0273  151.7508 H   0  0  0  0  0  0  0  0  0  0  0  0
  144.3507  131.9841  150.1860 H   0  0  0  0  0  0  0  0  0  0  0  0
  146.5408  136.6792  150.7296 H   0  0  0  0  0  0  0  0  0  0  0  0
  144.8130  136.6443  150.6742 H   0  0  0  0  0  0  0  0  0  0  0  0
  147.6106  137.1946  152.7098 H   0  0  0  0  0  0  0  0  0  0  0  0
  147.9876  138.1302  154.7129 H   0  0  0  0  0  0  0  0  0  0  0  0
  146.4397  137.5588  156.5919 H   0  0  0  0  0  0  0  0  0  0  0  0
  146.7435  136.1459  155.5965 H   0  0  0  0  0  0  0  0  0  0  0  0
  145.2208  137.0181  155.4399 H   0  0  0  0  0  0  0  0  0  0  0  0
  145.2033  139.3123  154.3822 H   0  0  0  0  0  0  0  0  0  0  0  0
  147.6001  139.9218  152.7582 H   0  0  0  0  0  0  0  0  0  0  0  0
  145.9385  140.4729  152.5804 H   0  0  0  0  0  0  0  0  0  0  0  0
  147.0969  142.5233  153.3222 H   0  0  0  0  0  0  0  0  0  0  0  0
  149.2066  141.0214  154.1356 H   0  0  0  0  0  0  0  0  0  0  0  0
  148.8189  142.4500  155.0934 H   0  0  0  0  0  0  0  0  0  0  0  0
  148.6137  139.6955  156.0226 H   0  0  0  0  0  0  0  0  0  0  0  0
  148.1709  141.1589  156.8801 H   0  0  0  0  0  0  0  0  0  0  0  0
  145.9789  140.0588  156.5903 H   0  0  0  0  0  0  0  0  0  0  0  0
  146.2670  142.5475  155.8212 H   0  0  0  0  0  0  0  0  0  0  0  0
  145.0614  141.7405  154.7933 H   0  0  0  0  0  0  0  0  0  0  0  0
  147.1605  135.0147  152.8470 H   0  0  0  0  0  0  0  0  0  0  0  0
  1  2  1  0  0  0  0
  1 25  1  0  0  0  0
  1 26  1  0  0  0  0
  1 27  1  0  0  0  0
  2  3  1  0  0  0  0
  2 28  1  0  0  0  0
  3  4  2  0  0  0  0
  3  5  1  0  0  0  0
  5 24  2  0  0  0  0
  5  6  1  0  0  0  0
  6  7  2  0  0  0  0
  6 29  1  0  0  0  0
  7  8  1  0  0  0  0
  7 30  1  0  0  0  0
  8  9  2  0  0  0  0
  8 10  1  0  0  0  0
 10 11  1  0  0  0  0
 10 24  1  0  0  0  0
 11 12  1  0  0  0  0
 11 31  1  0  0  0  0
 11 32  1  0  0  0  0
 12 13  2  0  0  0  0
 12 14  1  0  0  0  0
 14 15  1  0  0  0  0
 14 33  1  0  0  0  0
 15 16  1  0  0  0  0
 15 17  1  0  0  0  0
 15 34  1  0  0  0  0
 16 35  1  0  0  0  0
 16 36  1  0  0  0  0
 16 37  1  0  0  0  0
 17 22  1  0  0  0  0
 17 18  1  0  0  0  0
 17 38  1  0  0  0  0
 18 19  1  0  0  0  0
 18 39  1  0  0  0  0
 18 40  1  0  0  0  0
 19 23  1  0  0  0  0
 19 20  1  0  0  0  0
 19 41  1  0  0  0  0
 20 21  1  0  0  0  0
 20 42  1  0  0  0  0
 20 43  1  0  0  0  0
 21 22  1  0  0  0  0
 21 44  1  0  0  0  0
 21 45  1  0  0  0  0
 22 23  1  0  0  0  0
 22 46  1  0  0  0  0
 23 47  1  0  0  0  0
 23 48  1  0  0  0  0
 24 49  1  0  0  0  0
M  END
> <s_m_source_file>
AV-unprocessed.smi

> <i_m_source_file_index>
625

> <i_lp_mmshare_version>
43012

> <i_f3d_flags>
0

> <s_epik_input>
W0NIM11bTkhdQyg9TyljMVtjSF1bY0hdYyg9TyluKFtjSF0xKVtDSDJdQyg9TylbTkhdW0NASF0oW0NIM10pW0NASF0oW0NIMl1bQ0BIXTIzKVtDQEhdKFtDSDJdMylbQ0gyXVtDSDJdMg==

> <s_epik_cmdline>
J2VwaWtfcHl0aG9uJywgJy1waCcsICc3LjAnLCAnLXRuJywgJzgnLCAnLW1hJywgJzIwMCcsICctbWV0YWxfYmluZGluZycsICctaW1hZScsICc8aW5maWxlLm1hZT4nLCAnLW9tYWUnLCAnPG91dGZpbGUubWFlPic=

> <r_lp_tautomer_probability>
1

> <r_epik_Ionization_Penalty>
3.7129e-07

> <r_epik_Ionization_Penalty_Charging>
5.04114e-08

> <r_epik_Ionization_Penalty_Neutral>
3.20879e-07

> <r_epik_State_Penalty>
-0

> <r_epik_Charging_Adjusted_Penalty>
5.04114e-08

> <i_epik_Tot_Q>
0

> <i_epik_Tot_abs_Q>
0

> <r_epik_Metal_State_Penalty>
-0

> <b_epik_Metal_Only>
0

> <s_lp_Force_Field>
OPLS_2005

> <r_lp_Energy>
63.5822

> <b_lp_Chiralities_Consistent>
1

> <s_lp_Variant>
AV-unprocessed.smi:625-1

> <Gold.Version>
5.8.1

> <Gold.Id.Protein>
6NUR|6NUR_protein|mol2

> <Gold.PLP.Fitness>
40.4031

> <Gold.PLP.PLP>
-34.7370

> <Gold.PLP.part.hbond>
-2.0000

> <Gold.PLP.part.metal>
0.0000

> <Gold.PLP.part.buried>
-4.7484

> <Gold.PLP.part.nonpolar>
-29.6100

> <Gold.PLP.part.repulsive>
2.3417

> <Gold.PLP.ligand.clash>
0.0000

> <Gold.PLP.ligand.torsion>
1.5906

> <Gold.PLP.Chemscore.Hbond>
1.9920

> <Gold.PLP.Chemscore.CHOScore>
0.9262

> <Gold.PLP.Chemscore.Metal>
0.0000

> <Gold.Chemscore.Hbonds>
donor molecule, donor type, donor heavy atom, donor atom, acceptor molecule, acceptor atom, score
      L1  H     2    28       P1 10747  1.00
      L1  H    14    33       P1  7948  1.00
      L1  C    24    49       P1  7948  0.84

> <Gold.PLP.Chemscore.Internal.Correction>
0.0928

> <Gold.Rescore>
     Score         DG    S(hbond)    S(metal)    S(lipo)     H(rot)  DE(clash)    DE(int)     intcor
     13.50     -16.49       1.96        0.00      74.73       1.67       0.40       2.58       ----

> <Gold.Chemscore.Fitness>
13.5046

> <Gold.Chemscore.DG>
-16.4892

> <Gold.Chemscore.ZeroCoef>
-5.4800

> <Gold.Chemscore.Hbond>
1.9590

> <Gold.Chemscore.Metal>
0.0000

> <Gold.Chemscore.Lipo>
74.7299

> <Gold.Chemscore.Internal_Hbond>
0.0000

> <Gold.Chemscore.DEClash>
0.3998

> <Gold.Chemscore.DEInternal>
2.5848

> <Gold.Chemscore.Rot>
1.6709

> <Gold.Chemscore.Internal.Correction>
   9.000000E+99

> <Gold.Chemscore.Hbonds>
donor molecule, donor type, donor heavy atom, donor atom, acceptor molecule, acceptor atom, score
      L1  H     2    28       P1 10747  0.98
      L1  H    14    33       P1  7948  1.00

> <Gold.Chemscore.Hbond.Weighted>
-6.5432

> <Gold.Chemscore.Metal.Weighted>
-0.0000

> <Gold.Chemscore.Lipo.Weighted>
-8.7434

> <Gold.Chemscore.Internal_Hbond.Weighted>
0.0000

> <Gold.Chemscore.DEClash.Weighted>
0.3998

> <Gold.Chemscore.DEInternal.Weighted>
2.5848

> <Gold.Chemscore.Rot.Weighted>
4.2774

> <Gold.Chemscore.Internal.Correction.Weighted>
   9.000000E+99

> <Gold.Protein.RotatedTorsions>
[ 6907 6896 6895 6894 ] final  110.58 input  -60.11 | X-H torsion
[ 7974 7965 7964 7962 ] final  -78.71 input  175.53 | X-H torsion
[ 8008 7997 7996 7995 ] final -103.90 input   59.86 | X-H torsion
[ 10167 10162 10161 10158 ] final  -99.00 input  -65.29 | X-H torsion
[ 10718 10713 10712 10709 ] final  179.40 input   66.30 | X-H torsion
[ 10763 10752 10751 10750 ] final  -97.63 input  -60.55 | X-H torsion
[ 11005 11000 10999 10996 ] final  134.88 input  -57.11 | X-H torsion

> <Gold.Protein.ActiveResidues>
 VAL166  LYS551  ARG553  GLY616  TRP617  ASP618  TYR619  PRO620  LYS621  CYS622 
 ASP623  PHE694  ASN695  SER759  ASP760  ASP761  ALA762  ILE779  LEU786  VAL792 
 PHE793  MET794  SER795  GLU796  ALA797  LYS798  CYS799  TRP800  GLU811  SER814 

> <Gold.Protein.RotatedAtoms>
  152.5012  133.8780  159.7331 H   0  0  0  0  0  0  0  0  0  0  0  0  # atno 6907 bound_to 6896
  150.9249  133.6826  159.2830 H   0  0  0  0  0  0  0  0  0  0  0  0  # atno 6908 bound_to 6896
  151.4190  135.1000  159.9661 H   0  0  0  0  0  0  0  0  0  0  0  0  # atno 6909 bound_to 6896
  145.5828  140.9445  143.1334 H   0  0  0  0  0  0  0  0  0  0  0  0  # atno 7974 bound_to 7965
  154.8775  140.0420  157.1762 H   0  0  0  0  0  0  0  0  0  0  0  0  # atno 8008 bound_to 7997
  154.8674  140.2953  155.5481 H   0  0  0  0  0  0  0  0  0  0  0  0  # atno 8009 bound_to 7997
  156.2999  140.2435  156.3657 H   0  0  0  0  0  0  0  0  0  0  0  0  # atno 8010 bound_to 7997
  140.2671  143.3369  152.0571 H   0  0  0  0  0  0  0  0  0  0  0  0  # atno 10167 bound_to 10162
  156.8764  130.9801  151.3067 H   0  0  0  0  0  0  0  0  0  0  0  0  # atno 10718 bound_to 10713
  154.7344  135.5039  153.9017 H   0  0  0  0  0  0  0  0  0  0  0  0  # atno 10763 bound_to 10752
  153.0981  135.6678  153.9733 H   0  0  0  0  0  0  0  0  0  0  0  0  # atno 10764 bound_to 10752
  153.9526  135.3056  155.3417 H   0  0  0  0  0  0  0  0  0  0  0  0  # atno 10765 bound_to 10752
  139.9944  134.9503  156.9929 H   0  0  0  0  0  0  0  0  0  0  0  0  # atno 11005 bound_to 11000
  144.7386  139.7514  143.7319 LP  0  0  0  0  0  0  0  0  0  0  0  0  # atno 17320 bound_to 7965
  146.1703  139.4851  142.9931 LP  0  0  0  0  0  0  0  0  0  0  0  0  # atno 17321 bound_to 7965
  139.5000  144.6681  151.6308 LP  0  0  0  0  0  0  0  0  0  0  0  0  # atno 17342 bound_to 10162
  140.5920  143.9763  150.6330 LP  0  0  0  0  0  0  0  0  0  0  0  0  # atno 17343 bound_to 10162
  157.6166  130.8623  149.9038 LP  0  0  0  0  0  0  0  0  0  0  0  0  # atno 17370 bound_to 10713
  156.0700  130.3686  150.0796 LP  0  0  0  0  0  0  0  0  0  0  0  0  # atno 17371 bound_to 10713
  140.4847  134.1254  155.7222 LP  0  0  0  0  0  0  0  0  0  0  0  0  # atno 17394 bound_to 11000
  141.1592  133.8825  157.1894 LP  0  0  0  0  0  0  0  0  0  0  0  0  # atno 17395 bound_to 11000

$$$$
