AV-unprocessed.smi:1412|AV-procd|sdf|5746|dock1
  -GOLD-   22720 5383D 1   1.00000     0.00000
 Structure written by MMmdl.
 41 42  0  0  0  0  0  0  0  0  3 V2000
  144.8640  140.4412  155.7942 C   0  0  0  0  0  0  0  0  0  0  0  0
  146.3959  140.5002  155.6589 C   0  0  0  0  0  0  0  0  0  0  0  0
  146.9504  140.9892  154.2862 C   0  0  1  0  0  0  0  0  0  0  0  0
  146.4107  142.4149  153.9930 C   0  0  0  0  0  0  0  0  0  0  0  0
  148.5049  141.0939  154.3359 C   0  0  0  0  0  0  0  0  0  0  0  0
  148.9756  141.7796  155.5410 N   0  0  0  0  0  0  0  0  0  0  0  0
  150.1085  141.5326  156.2139 C   0  0  0  0  0  0  0  0  0  0  0  0
  150.8174  140.5735  155.9036 O   0  0  0  0  0  0  0  0  0  0  0  0
  150.3671  142.4348  157.1853 N   0  5  0  0  0  0  0  0  0  0  0  0
  151.2004  142.1144  158.1888 C   0  0  0  0  0  0  0  0  0  0  0  0
  151.5298  140.8425  158.4674 N   0  0  0  0  0  0  0  0  0  0  0  0
  152.3997  140.7279  159.5429 N   0  0  0  0  0  0  0  0  0  0  0  0
  152.7122  141.9225  160.0445 C   0  0  0  0  0  0  0  0  0  0  0  0
  151.9722  143.2958  159.2488 S   0  0  0  0  0  0  0  0  0  0  0  0
  146.5613  140.0373  153.1806 N   0  3  0  0  0  0  0  0  0  0  0  0
  147.1481  140.3300  151.8437 C   0  0  0  0  0  0  0  0  0  0  0  0
  146.4472  139.4894  150.7671 C   0  0  0  0  0  0  0  0  0  0  0  0
  146.6246  138.1124  151.0719 O   0  0  0  0  0  0  0  0  0  0  0  0
  146.0376  137.7679  152.3201 C   0  0  0  0  0  0  0  0  0  0  0  0
  146.6839  138.5792  153.4585 C   0  0  0  0  0  0  0  0  0  0  0  0
  144.5854  140.1234  156.7990 H   0  0  0  0  0  0  0  0  0  0  0  0
  144.4198  139.7282  155.1005 H   0  0  0  0  0  0  0  0  0  0  0  0
  144.4024  141.4137  155.6258 H   0  0  0  0  0  0  0  0  0  0  0  0
  146.7576  141.1476  156.4578 H   0  0  0  0  0  0  0  0  0  0  0  0
  146.7905  139.5074  155.8772 H   0  0  0  0  0  0  0  0  0  0  0  0
  146.8518  143.1585  154.6570 H   0  0  0  0  0  0  0  0  0  0  0  0
  145.3305  142.4789  154.1289 H   0  0  0  0  0  0  0  0  0  0  0  0
  146.6398  142.7337  152.9754 H   0  0  0  0  0  0  0  0  0  0  0  0
  148.9526  140.1003  154.3456 H   0  0  0  0  0  0  0  0  0  0  0  0
  148.8998  141.5704  153.4384 H   0  0  0  0  0  0  0  0  0  0  0  0
  148.4236  142.5650  155.8546 H   0  0  0  0  0  0  0  0  0  0  0  0
  153.3834  141.9955  160.8870 H   0  0  0  0  0  0  0  0  0  0  0  0
  147.0580  141.3842  151.5899 H   0  0  0  0  0  0  0  0  0  0  0  0
  148.2130  140.0946  151.8390 H   0  0  0  0  0  0  0  0  0  0  0  0
  145.3855  139.7350  150.7040 H   0  0  0  0  0  0  0  0  0  0  0  0
  146.8819  139.6929  149.7885 H   0  0  0  0  0  0  0  0  0  0  0  0
  144.9608  137.9425  152.2850 H   0  0  0  0  0  0  0  0  0  0  0  0
  146.1796  136.7009  152.4927 H   0  0  0  0  0  0  0  0  0  0  0  0
  147.7344  138.3079  153.5690 H   0  0  0  0  0  0  0  0  0  0  0  0
  146.1774  138.2937  154.3784 H   0  0  0  0  0  0  0  0  0  0  0  0
  145.5678  140.1911  153.0726 H   0  0  0  0  0  0  0  0  0  0  0  0
  1  2  1  0  0  0  0
  1 21  1  0  0  0  0
  1 22  1  0  0  0  0
  1 23  1  0  0  0  0
  2  3  1  0  0  0  0
  2 24  1  0  0  0  0
  2 25  1  0  0  0  0
  3  4  1  0  0  0  0
  3  5  1  0  0  0  0
  3 15  1  0  0  0  0
  4 26  1  0  0  0  0
  4 27  1  0  0  0  0
  4 28  1  0  0  0  0
  5  6  1  0  0  0  0
  5 29  1  0  0  0  0
  5 30  1  0  0  0  0
  6  7  1  0  0  0  0
  6 31  1  0  0  0  0
  7  8  2  0  0  0  0
  7  9  1  0  0  0  0
  9 10  1  0  0  0  0
 10 14  1  0  0  0  0
 10 11  2  0  0  0  0
 11 12  1  0  0  0  0
 12 13  2  0  0  0  0
 13 14  1  0  0  0  0
 13 32  1  0  0  0  0
 15 20  1  0  0  0  0
 15 16  1  0  0  0  0
 15 41  1  0  0  0  0
 16 17  1  0  0  0  0
 16 33  1  0  0  0  0
 16 34  1  0  0  0  0
 17 18  1  0  0  0  0
 17 35  1  0  0  0  0
 17 36  1  0  0  0  0
 18 19  1  0  0  0  0
 19 20  1  0  0  0  0
 19 37  1  0  0  0  0
 19 38  1  0  0  0  0
 20 39  1  0  0  0  0
 20 40  1  0  0  0  0
M  CHG  1   9  -1
M  CHG  1  15   1
M  END
> <s_m_source_file>
AV-unprocessed.smi

> <i_m_source_file_index>
1412

> <i_lp_mmshare_version>
43012

> <i_f3d_flags>
0

> <s_epik_input>
W0NIMl0xW0NIMl1PW0NIMl1bQ0gyXU4xW0NAQF0oW0NIM10pKFtDSDJdW0NIM10pW0NIMl1bTkhdQyg9TylbTkhdYzJubltjSF1zMg==

> <s_epik_cmdline>
J2VwaWtfcHl0aG9uJywgJy1waCcsICc3LjAnLCAnLXRuJywgJzgnLCAnLW1hJywgJzIwMCcsICctbWV0YWxfYmluZGluZycsICctaW1hZScsICc8aW5maWxlLm1hZT4nLCAnLW9tYWUnLCAnPG91dGZpbGUubWFlPic=

> <r_lp_tautomer_probability>
1

> <r_epik_Ionization_Penalty>
4.35651

> <r_epik_Ionization_Penalty_Charging>
4.3235

> <r_epik_Ionization_Penalty_Neutral>
0.0330098

> <r_epik_State_Penalty>
4.4846

> <r_epik_Charging_Adjusted_Penalty>
8.8081

> <i_epik_Tot_Q>
0

> <i_epik_Tot_abs_Q>
2

> <r_epik_Metal_State_Penalty>
1.11611

> <b_epik_Metal_Only>
1

> <s_lp_Force_Field>
OPLS_2005

> <r_lp_Energy>
23.2339

> <b_lp_Chiralities_Consistent>
1

> <s_lp_Variant>
AV-unprocessed.smi:1412-7

> <Gold.Version>
5.8.1

> <Gold.Id.Protein>
6NUR|6NUR_protein|mol2

> <Gold.PLP.Fitness>
39.1462

> <Gold.PLP.PLP>
-27.7101

> <Gold.PLP.part.hbond>
-4.0000

> <Gold.PLP.part.metal>
0.0000

> <Gold.PLP.part.buried>
0.1211

> <Gold.PLP.part.nonpolar>
-27.0822

> <Gold.PLP.part.repulsive>
2.8289

> <Gold.PLP.ligand.clash>
0.0000

> <Gold.PLP.ligand.torsion>
0.6999

> <Gold.PLP.Chemscore.Hbond>
4.1283

> <Gold.PLP.Chemscore.CHOScore>
0.0000

> <Gold.PLP.Chemscore.Metal>
0.0000

> <Gold.Chemscore.Hbonds>
donor molecule, donor type, donor heavy atom, donor atom, acceptor molecule, acceptor atom, score
      L1  H     6    31       P1  8028  0.33
      L1  H    15    41       P1 10175  2.00
      P1  H  7954  7966       L1    18  0.75

> <Gold.PLP.Chemscore.Internal.Correction>
0.4511

> <Gold.Rescore>
     Score         DG    S(hbond)    S(metal)    S(lipo)     H(rot)  DE(clash)    DE(int)     intcor
     10.48     -17.37       2.10        0.00      82.78       1.88       4.76       2.13       ----

> <Gold.Chemscore.Fitness>
10.4830

> <Gold.Chemscore.DG>
-17.3732

> <Gold.Chemscore.ZeroCoef>
-5.4800

> <Gold.Chemscore.Hbond>
2.1005

> <Gold.Chemscore.Metal>
0.0000

> <Gold.Chemscore.Lipo>
82.7764

> <Gold.Chemscore.Internal_Hbond>
0.0000

> <Gold.Chemscore.DEClash>
4.7609

> <Gold.Chemscore.DEInternal>
2.1293

> <Gold.Chemscore.Rot>
1.8779

> <Gold.Chemscore.Internal.Correction>
   9.000000E+99

> <Gold.Chemscore.Hbonds>
donor molecule, donor type, donor heavy atom, donor atom, acceptor molecule, acceptor atom, score
      L1  H     6    31       P1  8028  0.32
      L1  H    15    41       P1 10175  0.95
      P1  H  7954  7966       L1    18  0.09

> <Gold.Chemscore.Hbond.Weighted>
-7.0158

> <Gold.Chemscore.Metal.Weighted>
-0.0000

> <Gold.Chemscore.Lipo.Weighted>
-9.6848

> <Gold.Chemscore.Internal_Hbond.Weighted>
0.0000

> <Gold.Chemscore.DEClash.Weighted>
4.7609

> <Gold.Chemscore.DEInternal.Weighted>
2.1293

> <Gold.Chemscore.Rot.Weighted>
4.8074

> <Gold.Chemscore.Internal.Correction.Weighted>
   9.000000E+99

> <Gold.Protein.RotatedTorsions>
[ 6907 6896 6895 6894 ] final   -0.19 input  -60.11 | X-H torsion
[ 7974 7965 7964 7962 ] final   61.89 input  175.53 | X-H torsion
[ 8008 7997 7996 7995 ] final -179.13 input   59.86 | X-H torsion
[ 10167 10162 10161 10158 ] final   72.37 input  -65.29 | X-H torsion
[ 10718 10713 10712 10709 ] final   56.77 input   66.30 | X-H torsion
[ 10763 10752 10751 10750 ] final    1.11 input  -60.55 | X-H torsion
[ 11005 11000 10999 10996 ] final -164.50 input  -57.11 | X-H torsion

> <Gold.Protein.ActiveResidues>
 VAL166  LYS551  ARG553  GLY616  TRP617  ASP618  TYR619  PRO620  LYS621  CYS622 
 ASP623  PHE694  ASN695  SER759  ASP760  ASP761  ALA762  ILE779  LEU786  VAL792 
 PHE793  MET794  SER795  GLU796  ALA797  LYS798  CYS799  TRP800  GLU811  SER814 

> <Gold.Protein.RotatedAtoms>
  151.5662  135.1064  159.9984 H   0  0  0  0  0  0  0  0  0  0  0  0  # atno 6907 bound_to 6896
  152.4423  133.7466  159.6681 H   0  0  0  0  0  0  0  0  0  0  0  0  # atno 6908 bound_to 6896
  150.8331  133.7990  159.3114 H   0  0  0  0  0  0  0  0  0  0  0  0  # atno 6909 bound_to 6896
  145.8796  139.3434  143.0714 H   0  0  0  0  0  0  0  0  0  0  0  0  # atno 7974 bound_to 7965
  156.0269  140.1273  157.0299 H   0  0  0  0  0  0  0  0  0  0  0  0  # atno 8008 bound_to 7997
  154.4334  140.1057  156.6114 H   0  0  0  0  0  0  0  0  0  0  0  0  # atno 8009 bound_to 7997
  155.5863  140.3468  155.4556 H   0  0  0  0  0  0  0  0  0  0  0  0  # atno 8010 bound_to 7997
  140.0361  144.5427  150.7470 H   0  0  0  0  0  0  0  0  0  0  0  0  # atno 10167 bound_to 10162
  157.5458  130.8730  149.8890 H   0  0  0  0  0  0  0  0  0  0  0  0  # atno 10718 bound_to 10713
  153.3122  135.6963  153.7106 H   0  0  0  0  0  0  0  0  0  0  0  0  # atno 10763 bound_to 10752
  153.5979  135.3467  155.2935 H   0  0  0  0  0  0  0  0  0  0  0  0  # atno 10764 bound_to 10752
  154.8578  135.4333  154.2263 H   0  0  0  0  0  0  0  0  0  0  0  0  # atno 10765 bound_to 10752
  140.5862  134.5092  157.5186 H   0  0  0  0  0  0  0  0  0  0  0  0  # atno 11005 bound_to 11000
  145.9040  140.9224  143.0488 LP  0  0  0  0  0  0  0  0  0  0  0  0  # atno 17320 bound_to 7965
  144.6727  140.1070  143.7457 LP  0  0  0  0  0  0  0  0  0  0  0  0  # atno 17321 bound_to 7965
  140.7281  143.2658  151.4050 LP  0  0  0  0  0  0  0  0  0  0  0  0  # atno 17342 bound_to 10162
  139.6044  144.1227  152.2233 LP  0  0  0  0  0  0  0  0  0  0  0  0  # atno 17343 bound_to 10162
  156.0535  130.3713  150.1146 LP  0  0  0  0  0  0  0  0  0  0  0  0  # atno 17370 bound_to 10713
  156.9322  130.9717  151.3531 LP  0  0  0  0  0  0  0  0  0  0  0  0  # atno 17371 bound_to 10713
  139.9295  134.7991  156.0972 LP  0  0  0  0  0  0  0  0  0  0  0  0  # atno 17394 bound_to 11000
  141.0965  133.6694  156.2656 LP  0  0  0  0  0  0  0  0  0  0  0  0  # atno 17395 bound_to 11000

$$$$
