AV-unprocessed.smi:2336|AV-procd|sdf|9330|dock3
  -GOLD-   2272012553D 1   1.00000     0.00000
 Structure written by MMmdl.
 50 51  0  0  0  0  0  0  0  0  2 V2000
  144.5000  137.7684  155.5462 C   0  0  0  0  0  0  0  0  0  0  0  0
  145.4407  138.9500  155.8574 C   0  0  0  0  0  0  0  0  0  0  0  0
  144.6455  140.2629  155.7226 C   0  0  0  0  0  0  0  0  0  0  0  0
  146.7259  138.9244  154.9776 C   0  0  1  0  0  0  0  0  0  0  0  0
  146.4050  138.8625  153.4553 C   0  0  0  0  0  0  0  0  0  0  0  0
  146.6314  137.5447  152.8672 N   0  0  0  0  0  0  0  0  0  0  0  0
  145.6798  136.6666  152.5175 C   0  0  0  0  0  0  0  0  0  0  0  0
  144.4765  136.8700  152.6743 O   0  0  0  0  0  0  0  0  0  0  0  0
  146.2187  135.5566  151.9858 N   0  0  0  0  0  0  0  0  0  0  0  0
  145.5625  134.4209  151.4360 C   0  0  0  0  0  0  0  0  0  0  0  0
  144.3331  134.4734  150.7351 C   0  0  0  0  0  0  0  0  0  0  0  0
  143.7979  133.2744  150.2218 C   0  0  0  0  0  0  0  0  0  0  0  0
  144.3994  132.0736  150.3552 N   0  0  0  0  0  0  0  0  0  0  0  0
  145.5777  132.0295  151.0120 C   0  0  0  0  0  0  0  0  0  0  0  0
  146.1994  133.1684  151.5624 C   0  0  0  0  0  0  0  0  0  0  0  0
  147.3876  133.0564  152.2040 F   0  0  0  0  0  0  0  0  0  0  0  0
  147.6316  140.0525  155.3654 N   0  3  0  0  0  0  0  0  0  0  0  0
  148.7833  140.3120  154.4642 C   0  0  0  0  0  0  0  0  0  0  0  0
  149.4661  141.6424  154.8419 C   0  0  0  0  0  0  0  0  0  0  0  0
  149.8933  141.6652  156.2424 N   0  0  0  0  0  0  0  0  0  0  0  0
  151.0257  140.7853  156.5118 C   0  0  0  0  0  0  0  0  0  0  0  0
  148.7472  141.4133  157.1181 C   0  0  0  0  0  0  0  0  0  0  0  0
  148.0482  140.0779  156.7906 C   0  0  0  0  0  0  0  0  0  0  0  0
  144.1984  137.7667  154.4983 H   0  0  0  0  0  0  0  0  0  0  0  0
  143.5931  137.8194  156.1497 H   0  0  0  0  0  0  0  0  0  0  0  0
  144.9642  136.8062  155.7625 H   0  0  0  0  0  0  0  0  0  0  0  0
  145.7344  138.8641  156.9041 H   0  0  0  0  0  0  0  0  0  0  0  0
  144.3972  140.4729  154.6817 H   0  0  0  0  0  0  0  0  0  0  0  0
  145.1929  141.1170  156.1195 H   0  0  0  0  0  0  0  0  0  0  0  0
  143.7094  140.2130  156.2798 H   0  0  0  0  0  0  0  0  0  0  0  0
  147.2456  137.9995  155.2331 H   0  0  0  0  0  0  0  0  0  0  0  0
  145.3502  139.0713  153.2849 H   0  0  0  0  0  0  0  0  0  0  0  0
  146.9497  139.6434  152.9223 H   0  0  0  0  0  0  0  0  0  0  0  0
  147.5936  137.2783  152.7158 H   0  0  0  0  0  0  0  0  0  0  0  0
  147.2264  135.4960  152.0093 H   0  0  0  0  0  0  0  0  0  0  0  0
  143.7999  135.3967  150.5706 H   0  0  0  0  0  0  0  0  0  0  0  0
  142.8625  133.2821  149.6822 H   0  0  0  0  0  0  0  0  0  0  0  0
  146.0407  131.0576  151.0992 H   0  0  0  0  0  0  0  0  0  0  0  0
  149.5035  139.4982  154.5024 H   0  0  0  0  0  0  0  0  0  0  0  0
  148.4381  140.3714  153.4325 H   0  0  0  0  0  0  0  0  0  0  0  0
  150.3241  141.8267  154.1942 H   0  0  0  0  0  0  0  0  0  0  0  0
  148.7721  142.4679  154.6774 H   0  0  0  0  0  0  0  0  0  0  0  0
  151.3431  140.8877  157.5500 H   0  0  0  0  0  0  0  0  0  0  0  0
  151.8722  141.0563  155.8799 H   0  0  0  0  0  0  0  0  0  0  0  0
  150.7960  139.7355  156.3328 H   0  0  0  0  0  0  0  0  0  0  0  0
  149.0713  141.4280  158.1594 H   0  0  0  0  0  0  0  0  0  0  0  0
  148.0371  142.2337  157.0053 H   0  0  0  0  0  0  0  0  0  0  0  0
  147.1700  139.9756  157.4288 H   0  0  0  0  0  0  0  0  0  0  0  0
  148.7037  139.2434  157.0300 H   0  0  0  0  0  0  0  0  0  0  0  0
  147.0460  140.8705  155.2748 H   0  0  0  0  0  0  0  0  0  0  0  0
  1  2  1  0  0  0  0
  1 24  1  0  0  0  0
  1 25  1  0  0  0  0
  1 26  1  0  0  0  0
  2  3  1  0  0  0  0
  2  4  1  0  0  0  0
  2 27  1  0  0  0  0
  3 28  1  0  0  0  0
  3 29  1  0  0  0  0
  3 30  1  0  0  0  0
  4  5  1  0  0  0  0
  4 17  1  0  0  0  0
  4 31  1  0  0  0  0
  5  6  1  0  0  0  0
  5 32  1  0  0  0  0
  5 33  1  0  0  0  0
  6  7  1  0  0  0  0
  6 34  1  0  0  0  0
  7  8  2  0  0  0  0
  7  9  1  0  0  0  0
  9 10  1  0  0  0  0
  9 35  1  0  0  0  0
 10 15  1  0  0  0  0
 10 11  2  0  0  0  0
 11 12  1  0  0  0  0
 11 36  1  0  0  0  0
 12 13  2  0  0  0  0
 12 37  1  0  0  0  0
 13 14  1  0  0  0  0
 14 15  2  0  0  0  0
 14 38  1  0  0  0  0
 15 16  1  0  0  0  0
 17 23  1  0  0  0  0
 17 18  1  0  0  0  0
 17 50  1  0  0  0  0
 18 19  1  0  0  0  0
 18 39  1  0  0  0  0
 18 40  1  0  0  0  0
 19 20  1  0  0  0  0
 19 41  1  0  0  0  0
 19 42  1  0  0  0  0
 20 21  1  0  0  0  0
 20 22  1  0  0  0  0
 21 43  1  0  0  0  0
 21 44  1  0  0  0  0
 21 45  1  0  0  0  0
 22 23  1  0  0  0  0
 22 46  1  0  0  0  0
 22 47  1  0  0  0  0
 23 48  1  0  0  0  0
 23 49  1  0  0  0  0
M  CHG  1  17   1
M  END
> <s_m_source_file>
AV-unprocessed.smi

> <i_m_source_file_index>
2336

> <i_lp_mmshare_version>
43012

> <i_f3d_flags>
0

> <s_epik_input>
W0NIMl0xW0NIMl1OKFtDSDNdKVtDSDJdW0NIMl1OMVtDQEhdKFtDSF0oW0NIM10pW0NIM10pW0NIMl1bTkhdQyg9TylbTkhdYzJbY0hdW2NIXW5bY0hdYzJG

> <s_epik_cmdline>
J2VwaWtfcHl0aG9uJywgJy1waCcsICc3LjAnLCAnLXRuJywgJzgnLCAnLW1hJywgJzIwMCcsICctbWV0YWxfYmluZGluZycsICctaW1hZScsICc8aW5maWxlLm1hZT4nLCAnLW9tYWUnLCAnPG91dGZpbGUubWFlPic=

> <r_epik_Ionization_Penalty>
0.204575

> <r_epik_Ionization_Penalty_Charging>
0.20006

> <r_epik_Ionization_Penalty_Neutral>
0.00451444

> <r_epik_State_Penalty>
1.43207

> <r_epik_Charging_Adjusted_Penalty>
1.63213

> <i_epik_Tot_Q>
1

> <i_epik_Tot_abs_Q>
1

> <r_epik_Metal_State_Penalty>
1.43277

> <b_epik_Metal_Only>
0

> <s_lp_Force_Field>
OPLS_2005

> <r_lp_Energy>
38.4551

> <b_lp_Chiralities_Consistent>
1

> <s_lp_Variant>
AV-unprocessed.smi:2336-4

> <Gold.Version>
5.8.1

> <Gold.Id.Protein>
6NUR|6NUR_protein|mol2

> <Gold.PLP.Fitness>
39.1899

> <Gold.PLP.PLP>
-30.2660

> <Gold.PLP.part.hbond>
-2.0000

> <Gold.PLP.part.metal>
0.0000

> <Gold.PLP.part.buried>
-2.3602

> <Gold.PLP.part.nonpolar>
-25.2337

> <Gold.PLP.part.repulsive>
0.5447

> <Gold.PLP.ligand.clash>
0.0000

> <Gold.PLP.ligand.torsion>
1.1246

> <Gold.PLP.Chemscore.Hbond>
1.9600

> <Gold.PLP.Chemscore.CHOScore>
1.6448

> <Gold.PLP.Chemscore.Metal>
0.0000

> <Gold.Chemscore.Hbonds>
donor molecule, donor type, donor heavy atom, donor atom, acceptor molecule, acceptor atom, score
      L1  H     6    34       P1  7948  1.00
      L1  H     9    35       P1  7948  1.00
      L1  C    12    37       P1 10186  1.00

> <Gold.PLP.Chemscore.Internal.Correction>
0.3587

> <Gold.Rescore>
     Score         DG    S(hbond)    S(metal)    S(lipo)     H(rot)  DE(clash)    DE(int)     intcor
     14.41     -15.55       1.89        0.00      68.82       1.67       0.04       1.09       ----

> <Gold.Chemscore.Fitness>
14.4132

> <Gold.Chemscore.DG>
-15.5480

> <Gold.Chemscore.ZeroCoef>
-5.4800

> <Gold.Chemscore.Hbond>
1.8864

> <Gold.Chemscore.Metal>
0.0000

> <Gold.Chemscore.Lipo>
68.8245

> <Gold.Chemscore.Internal_Hbond>
0.0000

> <Gold.Chemscore.DEClash>
0.0405

> <Gold.Chemscore.DEInternal>
1.0944

> <Gold.Chemscore.Rot>
1.6739

> <Gold.Chemscore.Internal.Correction>
   9.000000E+99

> <Gold.Chemscore.Hbonds>
donor molecule, donor type, donor heavy atom, donor atom, acceptor molecule, acceptor atom, score
      L1  H     6    34       P1  7948  0.96
      L1  H     9    35       P1  7948  0.97

> <Gold.Chemscore.Hbond.Weighted>
-6.3007

> <Gold.Chemscore.Metal.Weighted>
-0.0000

> <Gold.Chemscore.Lipo.Weighted>
-8.0525

> <Gold.Chemscore.Internal_Hbond.Weighted>
0.0000

> <Gold.Chemscore.DEClash.Weighted>
0.0405

> <Gold.Chemscore.DEInternal.Weighted>
1.0944

> <Gold.Chemscore.Rot.Weighted>
4.2851

> <Gold.Chemscore.Internal.Correction.Weighted>
   9.000000E+99

> <Gold.Protein.RotatedTorsions>
[ 6907 6896 6895 6894 ] final   47.35 input  -60.11 | X-H torsion
[ 7974 7965 7964 7962 ] final  169.54 input  175.53 | X-H torsion
[ 8008 7997 7996 7995 ] final  -96.62 input   59.86 | X-H torsion
[ 10167 10162 10161 10158 ] final  125.06 input  -65.29 | X-H torsion
[ 10718 10713 10712 10709 ] final  105.64 input   66.30 | X-H torsion
[ 10763 10752 10751 10750 ] final    0.36 input  -60.55 | X-H torsion
[ 11005 11000 10999 10996 ] final  -65.68 input  -57.11 | X-H torsion

> <Gold.Protein.ActiveResidues>
 VAL166  LYS551  ARG553  GLY616  TRP617  ASP618  TYR619  PRO620  LYS621  CYS622 
 ASP623  PHE694  ASN695  SER759  ASP760  ASP761  ALA762  ILE779  LEU786  VAL792 
 PHE793  MET794  SER795  GLU796  ALA797  LYS798  CYS799  TRP800  GLU811  SER814 

> <Gold.Protein.RotatedAtoms>
  152.2670  134.7973  160.0420 H   0  0  0  0  0  0  0  0  0  0  0  0  # atno 6907 bound_to 6896
  151.8599  133.3450  159.3708 H   0  0  0  0  0  0  0  0  0  0  0  0  # atno 6908 bound_to 6896
  150.7137  134.5144  159.5667 H   0  0  0  0  0  0  0  0  0  0  0  0  # atno 6909 bound_to 6896
  144.7352  139.9070  143.6413 H   0  0  0  0  0  0  0  0  0  0  0  0  # atno 7974 bound_to 7965
  154.7768  140.0470  157.1096 H   0  0  0  0  0  0  0  0  0  0  0  0  # atno 8008 bound_to 7997
  154.9753  140.3094  155.4950 H   0  0  0  0  0  0  0  0  0  0  0  0  # atno 8009 bound_to 7997
  156.2930  140.2246  156.4848 H   0  0  0  0  0  0  0  0  0  0  0  0  # atno 8010 bound_to 7997
  139.5706  144.6937  151.3789 H   0  0  0  0  0  0  0  0  0  0  0  0  # atno 10167 bound_to 10162
  157.6698  131.0832  150.5887 H   0  0  0  0  0  0  0  0  0  0  0  0  # atno 10718 bound_to 10713
  153.3216  135.6969  153.7025 H   0  0  0  0  0  0  0  0  0  0  0  0  # atno 10763 bound_to 10752
  153.5863  135.3488  155.2894 H   0  0  0  0  0  0  0  0  0  0  0  0  # atno 10764 bound_to 10752
  154.8599  135.4307  154.2382 H   0  0  0  0  0  0  0  0  0  0  0  0  # atno 10765 bound_to 10752
  141.1461  133.6686  156.6023 H   0  0  0  0  0  0  0  0  0  0  0  0  # atno 11005 bound_to 11000
  146.1029  139.4026  143.0335 LP  0  0  0  0  0  0  0  0  0  0  0  0  # atno 17320 bound_to 7965
  145.7553  140.9957  143.1229 LP  0  0  0  0  0  0  0  0  0  0  0  0  # atno 17321 bound_to 7965
  140.6990  143.7677  150.7373 LP  0  0  0  0  0  0  0  0  0  0  0  0  # atno 17342 bound_to 10162
  140.1182  143.4636  152.2329 LP  0  0  0  0  0  0  0  0  0  0  0  0  # atno 17343 bound_to 10162
  156.6188  130.4400  149.5830 LP  0  0  0  0  0  0  0  0  0  0  0  0  # atno 17370 bound_to 10713
  156.2372  130.6830  151.1521 LP  0  0  0  0  0  0  0  0  0  0  0  0  # atno 17371 bound_to 10713
  140.3678  134.7631  157.4578 LP  0  0  0  0  0  0  0  0  0  0  0  0  # atno 17394 bound_to 11000
  140.0734  134.5831  155.8617 LP  0  0  0  0  0  0  0  0  0  0  0  0  # atno 17395 bound_to 11000

$$$$
