AV-unprocessed.smi:3229|AV-procd|sdf|12328|dock3
  -GOLD-   2272018173D 1   1.00000     0.00000
 Structure written by MMmdl.
 35 36  0  0  0  0  0  0  0  0  1 V2000
  151.7763  145.0706  159.5811 C   0  0  0  0  0  0  0  0  0  0  0  0
  151.9513  144.3636  158.2325 C   0  0  0  0  0  0  0  0  0  0  0  0
  151.7055  142.8924  158.3023 C   0  0  0  0  0  0  0  0  0  0  0  0
  152.2915  141.9841  159.1493 C   0  0  0  0  0  0  0  0  0  0  0  0
  151.8488  140.6723  158.9654 N   0  0  0  0  0  0  0  0  0  0  0  0
  150.9297  140.5747  158.0011 C   0  0  0  0  0  0  0  0  0  0  0  0
  150.3092  139.2836  157.5737 C   0  0  0  0  0  0  0  0  0  0  0  0
  150.6596  138.0981  158.4880 C   0  0  0  0  0  0  0  0  0  0  0  0
  149.5599  137.7664  159.3852 N   0  0  0  0  0  0  0  0  0  0  0  0
  148.9087  136.5951  159.3894 C   0  0  0  0  0  0  0  0  0  0  0  0
  149.1849  135.6687  158.6265 O   0  0  0  0  0  0  0  0  0  0  0  0
  147.7849  136.4494  160.4207 C   0  0  1  0  0  0  0  0  0  0  0  0
  147.1934  135.0400  160.5224 C   0  0  0  0  0  0  0  0  0  0  0  0
  146.6863  135.0299  161.9467 C   0  0  0  0  0  0  0  0  0  0  0  0
  147.7670  135.8234  162.6754 C   0  0  0  0  0  0  0  0  0  0  0  0
  148.3053  136.7314  161.7173 O   0  0  0  0  0  0  0  0  0  0  0  0
  150.5673  142.1149  157.2320 S   0  0  0  0  0  0  0  0  0  0  0  0
  151.9566  146.1414  159.4848 H   0  0  0  0  0  0  0  0  0  0  0  0
  152.4727  144.6819  160.3248 H   0  0  0  0  0  0  0  0  0  0  0  0
  150.7650  144.9363  159.9665 H   0  0  0  0  0  0  0  0  0  0  0  0
  151.2763  144.8114  157.5023 H   0  0  0  0  0  0  0  0  0  0  0  0
  152.9600  144.5430  157.8594 H   0  0  0  0  0  0  0  0  0  0  0  0
  153.0325  142.1842  159.9093 H   0  0  0  0  0  0  0  0  0  0  0  0
  149.2268  139.4126  157.5325 H   0  0  0  0  0  0  0  0  0  0  0  0
  150.6300  139.0669  156.5546 H   0  0  0  0  0  0  0  0  0  0  0  0
  150.9097  137.2259  157.8823 H   0  0  0  0  0  0  0  0  0  0  0  0
  151.5432  138.3400  159.0808 H   0  0  0  0  0  0  0  0  0  0  0  0
  149.2823  138.4716  160.0531 H   0  0  0  0  0  0  0  0  0  0  0  0
  146.9850  137.1642  160.2185 H   0  0  0  0  0  0  0  0  0  0  0  0
  146.3999  134.8631  159.7957 H   0  0  0  0  0  0  0  0  0  0  0  0
  147.9527  134.2668  160.3948 H   0  0  0  0  0  0  0  0  0  0  0  0
  145.7313  135.5539  162.0060 H   0  0  0  0  0  0  0  0  0  0  0  0
  146.5503  134.0252  162.3478 H   0  0  0  0  0  0  0  0  0  0  0  0
  147.3785  136.3490  163.5479 H   0  0  0  0  0  0  0  0  0  0  0  0
  148.5663  135.1602  163.0079 H   0  0  0  0  0  0  0  0  0  0  0  0
  1  2  1  0  0  0  0
  1 18  1  0  0  0  0
  1 19  1  0  0  0  0
  1 20  1  0  0  0  0
  2  3  1  0  0  0  0
  2 21  1  0  0  0  0
  2 22  1  0  0  0  0
  3 17  1  0  0  0  0
  3  4  2  0  0  0  0
  4  5  1  0  0  0  0
  4 23  1  0  0  0  0
  5  6  2  0  0  0  0
  6  7  1  0  0  0  0
  6 17  1  0  0  0  0
  7  8  1  0  0  0  0
  7 24  1  0  0  0  0
  7 25  1  0  0  0  0
  8  9  1  0  0  0  0
  8 26  1  0  0  0  0
  8 27  1  0  0  0  0
  9 10  1  0  0  0  0
  9 28  1  0  0  0  0
 10 11  2  0  0  0  0
 10 12  1  0  0  0  0
 12 16  1  0  0  0  0
 12 13  1  0  0  0  0
 12 29  1  0  0  0  0
 13 14  1  0  0  0  0
 13 30  1  0  0  0  0
 13 31  1  0  0  0  0
 14 15  1  0  0  0  0
 14 32  1  0  0  0  0
 14 33  1  0  0  0  0
 15 16  1  0  0  0  0
 15 34  1  0  0  0  0
 15 35  1  0  0  0  0
M  END
> <s_m_source_file>
AV-unprocessed.smi

> <i_m_source_file_index>
3229

> <i_lp_mmshare_version>
43012

> <i_f3d_flags>
0

> <s_epik_input>
W0NIM11bQ0gyXWMxW2NIXW5jKHMxKVtDSDJdW0NIMl1bTkhdQyg9TylbQ0BASF0yW0NIMl1bQ0gyXVtDSDJdTzI=

> <s_epik_cmdline>
J2VwaWtfcHl0aG9uJywgJy1waCcsICc3LjAnLCAnLXRuJywgJzgnLCAnLW1hJywgJzIwMCcsICctbWV0YWxfYmluZGluZycsICctaW1hZScsICc8aW5maWxlLm1hZT4nLCAnLW9tYWUnLCAnPG91dGZpbGUubWFlPic=

> <r_epik_Ionization_Penalty>
0.000508191

> <r_epik_Ionization_Penalty_Charging>
0

> <r_epik_Ionization_Penalty_Neutral>
0.000508191

> <r_epik_State_Penalty>
0.000316483

> <r_epik_Charging_Adjusted_Penalty>
0.000316483

> <i_epik_Tot_Q>
0

> <i_epik_Tot_abs_Q>
0

> <r_epik_Metal_State_Penalty>
-0

> <b_epik_Metal_Only>
0

> <s_lp_Force_Field>
OPLS_2005

> <r_lp_Energy>
10.5911

> <b_lp_Chiralities_Consistent>
1

> <s_lp_Variant>
AV-unprocessed.smi:3229-2

> <Gold.Version>
5.8.1

> <Gold.Id.Protein>
6NUR|6NUR_protein|mol2

> <Gold.PLP.Fitness>
42.0760

> <Gold.PLP.PLP>
-37.0079

> <Gold.PLP.part.hbond>
-2.3020

> <Gold.PLP.part.metal>
0.0000

> <Gold.PLP.part.buried>
-6.1176

> <Gold.PLP.part.nonpolar>
-31.1078

> <Gold.PLP.part.repulsive>
1.7382

> <Gold.PLP.ligand.clash>
0.0000

> <Gold.PLP.ligand.torsion>
0.4850

> <Gold.PLP.Chemscore.Hbond>
2.0000

> <Gold.PLP.Chemscore.CHOScore>
0.0000

> <Gold.PLP.Chemscore.Metal>
0.0000

> <Gold.Chemscore.Hbonds>
donor molecule, donor type, donor heavy atom, donor atom, acceptor molecule, acceptor atom, score
      P1  H  6896  6909       L1    11  0.86
      P1  H  6931  6943       L1    16  1.00

> <Gold.PLP.Chemscore.Internal.Correction>
0.0382

> <Gold.Rescore>
     Score         DG    S(hbond)    S(metal)    S(lipo)     H(rot)  DE(clash)    DE(int)     intcor
     18.83     -20.24       2.43        0.00      91.85       1.60       0.55       0.86       ----

> <Gold.Chemscore.Fitness>
18.8255

> <Gold.Chemscore.DG>
-20.2379

> <Gold.Chemscore.ZeroCoef>
-5.4800

> <Gold.Chemscore.Hbond>
2.4306

> <Gold.Chemscore.Metal>
0.0000

> <Gold.Chemscore.Lipo>
91.8450

> <Gold.Chemscore.Internal_Hbond>
0.0000

> <Gold.Chemscore.DEClash>
0.5480

> <Gold.Chemscore.DEInternal>
0.8644

> <Gold.Chemscore.Rot>
1.6040

> <Gold.Chemscore.Internal.Correction>
   9.000000E+99

> <Gold.Chemscore.Hbonds>
donor molecule, donor type, donor heavy atom, donor atom, acceptor molecule, acceptor atom, score
      P1  H  6896  6909       L1    11  0.25
      P1  H  6931  6943       L1    16  0.93

> <Gold.Chemscore.Hbond.Weighted>
-8.1183

> <Gold.Chemscore.Metal.Weighted>
-0.0000

> <Gold.Chemscore.Lipo.Weighted>
-10.7459

> <Gold.Chemscore.Internal_Hbond.Weighted>
0.0000

> <Gold.Chemscore.DEClash.Weighted>
0.5480

> <Gold.Chemscore.DEInternal.Weighted>
0.8644

> <Gold.Chemscore.Rot.Weighted>
4.1062

> <Gold.Chemscore.Internal.Correction.Weighted>
   9.000000E+99

> <Gold.Protein.RotatedTorsions>
[ 6907 6896 6895 6894 ] final   63.89 input  -60.11 | X-H torsion
[ 7974 7965 7964 7962 ] final  -89.64 input  175.53 | X-H torsion
[ 8008 7997 7996 7995 ] final   17.50 input   59.86 | X-H torsion
[ 10167 10162 10161 10158 ] final  -39.59 input  -65.29 | X-H torsion
[ 10718 10713 10712 10709 ] final  -78.48 input   66.30 | X-H torsion
[ 10763 10752 10751 10750 ] final -109.97 input  -60.55 | X-H torsion
[ 11005 11000 10999 10996 ] final   25.29 input  -57.11 | X-H torsion

> <Gold.Protein.ActiveResidues>
 VAL166  LYS551  ARG553  GLY616  TRP617  ASP618  TYR619  PRO620  LYS621  CYS622 
 ASP623  PHE694  ASN695  SER759  ASP760  ASP761  ALA762  ILE779  LEU786  VAL792 
 PHE793  MET794  SER795  GLU796  ALA797  LYS798  CYS799  TRP800  GLU811  SER814 

> <Gold.Protein.RotatedAtoms>
  152.4289  134.5816  159.9949 H   0  0  0  0  0  0  0  0  0  0  0  0  # atno 6907 bound_to 6896
  151.5944  133.3357  159.3042 H   0  0  0  0  0  0  0  0  0  0  0  0  # atno 6908 bound_to 6896
  150.8180  134.7409  159.6812 H   0  0  0  0  0  0  0  0  0  0  0  0  # atno 6909 bound_to 6896
  145.4372  140.9558  143.2095 H   0  0  0  0  0  0  0  0  0  0  0  0  # atno 7974 bound_to 7965
  154.8924  140.2989  155.5363 H   0  0  0  0  0  0  0  0  0  0  0  0  # atno 8008 bound_to 7997
  156.3020  140.2422  156.3876 H   0  0  0  0  0  0  0  0  0  0  0  0  # atno 8009 bound_to 7997
  154.8605  140.0405  157.1651 H   0  0  0  0  0  0  0  0  0  0  0  0  # atno 8010 bound_to 7997
  140.7060  143.3205  151.2803 H   0  0  0  0  0  0  0  0  0  0  0  0  # atno 10167 bound_to 10162
  156.0116  130.4519  150.3503 H   0  0  0  0  0  0  0  0  0  0  0  0  # atno 10718 bound_to 10713
  154.8222  135.4581  154.0813 H   0  0  0  0  0  0  0  0  0  0  0  0  # atno 10763 bound_to 10752
  153.2157  135.6887  153.8067 H   0  0  0  0  0  0  0  0  0  0  0  0  # atno 10764 bound_to 10752
  153.7502  135.3299  155.3296 H   0  0  0  0  0  0  0  0  0  0  0  0  # atno 10765 bound_to 10752
  140.3494  134.2245  155.7681 H   0  0  0  0  0  0  0  0  0  0  0  0  # atno 11005 bound_to 11000
  144.8145  139.5902  143.7014 LP  0  0  0  0  0  0  0  0  0  0  0  0  # atno 17320 bound_to 7965
  146.2576  139.6337  142.9384 LP  0  0  0  0  0  0  0  0  0  0  0  0  # atno 17321 bound_to 7965
  139.6657  144.0109  152.2721 LP  0  0  0  0  0  0  0  0  0  0  0  0  # atno 17342 bound_to 10162
  139.9691  144.6506  150.8006 LP  0  0  0  0  0  0  0  0  0  0  0  0  # atno 17343 bound_to 10162
  157.1595  131.0341  151.2847 LP  0  0  0  0  0  0  0  0  0  0  0  0  # atno 17370 bound_to 10713
  157.4323  130.7497  149.7000 LP  0  0  0  0  0  0  0  0  0  0  0  0  # atno 17371 bound_to 10713
  141.2016  133.7958  157.0431 LP  0  0  0  0  0  0  0  0  0  0  0  0  # atno 17394 bound_to 11000
  140.0715  134.9699  157.1475 LP  0  0  0  0  0  0  0  0  0  0  0  0  # atno 17395 bound_to 11000

$$$$
