AV-unprocessed.smi:43|AV-procd|sdf|393|dock4
  -GOLD-   2262016243D 1   1.00000     0.00000
 Structure written by MMmdl.
 25 26  0  0  0  0  0  0  0  0  2 V2000
  149.5010  137.3781  158.9034 C   0  0  0  0  0  0  0  0  0  0  0  0
  150.8966  137.7735  158.9530 N   0  0  0  0  0  0  0  0  0  0  0  0
  151.7973  136.9801  159.5851 N   0  0  0  0  0  0  0  0  0  0  0  0
  152.9628  137.5419  159.4442 N   0  0  0  0  0  0  0  0  0  0  0  0
  152.8704  138.7138  158.7204 N   0  0  0  0  0  0  0  0  0  0  0  0
  151.5749  138.8200  158.4493 C   0  0  0  0  0  0  0  0  0  0  0  0
  150.9789  139.8639  157.7311 N   0  0  0  0  0  0  0  0  0  0  0  0
  149.6942  140.5146  157.9686 C   0  0  0  0  0  0  0  0  0  0  0  0
  149.8421  141.9523  157.4884 C   0  0  2  0  0  0  0  0  0  0  0  0
  148.5990  142.5672  157.2220 O   0  0  0  0  0  0  0  0  0  0  0  0
  150.6884  141.7768  156.2428 C   0  0  0  0  0  0  0  0  0  0  0  0
  151.5942  140.5882  156.6104 C   0  0  2  0  0  0  0  0  0  0  0  0
  151.8451  139.6670  155.4069 C   0  0  0  0  0  0  0  0  0  0  0  0
  152.8467  138.9215  155.4665 O   0  0  0  0  0  0  0  0  0  0  0  0
  151.0380  139.7242  154.4519 O   0  5  0  0  0  0  0  0  0  0  0  0
  150.3894  142.5376  158.2288 H   0  0  0  0  0  0  0  0  0  0  0  0
  152.5518  140.9725  156.9644 H   0  0  0  0  0  0  0  0  0  0  0  0
  149.1050  137.5325  157.8999 H   0  0  0  0  0  0  0  0  0  0  0  0
  148.9253  137.9636  159.6198 H   0  0  0  0  0  0  0  0  0  0  0  0
  149.3977  136.3211  159.1520 H   0  0  0  0  0  0  0  0  0  0  0  0
  148.9254  139.9879  157.4008 H   0  0  0  0  0  0  0  0  0  0  0  0
  149.4165  140.4944  159.0218 H   0  0  0  0  0  0  0  0  0  0  0  0
  148.7470  143.3025  156.6472 H   0  0  0  0  0  0  0  0  0  0  0  0
  150.0502  141.5401  155.3889 H   0  0  0  0  0  0  0  0  0  0  0  0
  151.2560  142.6740  155.9941 H   0  0  0  0  0  0  0  0  0  0  0  0
  1  2  1  0  0  0  0
  1 18  1  0  0  0  0
  1 19  1  0  0  0  0
  1 20  1  0  0  0  0
  2  6  1  0  0  0  0
  2  3  1  0  0  0  0
  3  4  2  0  0  0  0
  4  5  1  0  0  0  0
  5  6  2  0  0  0  0
  6  7  1  0  0  0  0
  7 12  1  0  0  0  0
  7  8  1  0  0  0  0
  8  9  1  0  0  0  0
  8 21  1  0  0  0  0
  8 22  1  0  0  0  0
  9 16  1  0  0  0  0
  9 10  1  0  0  0  0
  9 11  1  0  0  0  0
 10 23  1  0  0  0  0
 11 12  1  0  0  0  0
 11 24  1  0  0  0  0
 11 25  1  0  0  0  0
 12 17  1  0  0  0  0
 12 13  1  0  0  0  0
 13 14  2  0  0  0  0
 13 15  1  0  0  0  0
M  CHG  1  15  -1
M  END
> <s_m_source_file>
AV-unprocessed.smi

> <i_m_source_file_index>
43

> <i_lp_mmshare_version>
43012

> <i_f3d_flags>
0

> <s_epik_input>
W0NIM11uMW5ubmMxTjJbQ0gyXVtDQEhdKFtPSF0pW0NIMl1bQ0BIXTJDKD1PKVtPSF0=

> <s_epik_cmdline>
J2VwaWtfcHl0aG9uJywgJy1waCcsICc3LjAnLCAnLXRuJywgJzgnLCAnLW1hJywgJzIwMCcsICctbWV0YWxfYmluZGluZycsICctaW1hZScsICc8aW5maWxlLm1hZT4nLCAnLW9tYWUnLCAnPG91dGZpbGUubWFlPic=

> <r_lp_tautomer_probability>
1

> <r_epik_Ionization_Penalty>
0.000193127

> <r_epik_Ionization_Penalty_Charging>
0.000192933

> <r_epik_Ionization_Penalty_Neutral>
1.93728e-07

> <r_epik_State_Penalty>
-0

> <r_epik_Charging_Adjusted_Penalty>
0.000192933

> <i_epik_Tot_Q>
-1

> <i_epik_Tot_abs_Q>
1

> <r_epik_Metal_State_Penalty>
-0

> <b_epik_Metal_Only>
0

> <s_lp_Force_Field>
OPLS_2005

> <r_lp_Energy>
21.0116

> <b_lp_Chiralities_Consistent>
1

> <s_lp_Variant>
AV-unprocessed.smi:43-3

> <Gold.Version>
5.8.1

> <Gold.Id.Protein>
6NUR|6NUR_protein|mol2

> <Gold.PLP.Fitness>
36.0244

> <Gold.PLP.PLP>
-23.1710

> <Gold.PLP.part.hbond>
-4.0000

> <Gold.PLP.part.metal>
0.0000

> <Gold.PLP.part.buried>
-3.4488

> <Gold.PLP.part.nonpolar>
-14.7678

> <Gold.PLP.part.repulsive>
0.1131

> <Gold.PLP.ligand.clash>
0.0000

> <Gold.PLP.ligand.torsion>
1.0773

> <Gold.PLP.Chemscore.Hbond>
5.0000

> <Gold.PLP.Chemscore.CHOScore>
0.0000

> <Gold.PLP.Chemscore.Metal>
0.0000

> <Gold.Chemscore.Hbonds>
donor molecule, donor type, donor heavy atom, donor atom, acceptor molecule, acceptor atom, score
      L1  H    10    23       P1  8028  1.00
      P1  H  6896  6908       L1     3  1.00
      P1  H  7989  7998       L1    15  1.00
      P1  H  7997  8009       L1    14  1.79

> <Gold.PLP.Chemscore.Internal.Correction>
0.0080

> <Gold.Rescore>
     Score         DG    S(hbond)    S(metal)    S(lipo)     H(rot)  DE(clash)    DE(int)     intcor
     14.95     -16.08       3.62        0.00      24.14       1.69       0.00       1.14       ----

> <Gold.Chemscore.Fitness>
14.9451

> <Gold.Chemscore.DG>
-16.0822

> <Gold.Chemscore.ZeroCoef>
-5.4800

> <Gold.Chemscore.Hbond>
3.6231

> <Gold.Chemscore.Metal>
0.0000

> <Gold.Chemscore.Lipo>
24.1400

> <Gold.Chemscore.Internal_Hbond>
0.0000

> <Gold.Chemscore.DEClash>
0.0000

> <Gold.Chemscore.DEInternal>
1.1371

> <Gold.Chemscore.Rot>
1.6887

> <Gold.Chemscore.Internal.Correction>
   9.000000E+99

> <Gold.Chemscore.Hbonds>
donor molecule, donor type, donor heavy atom, donor atom, acceptor molecule, acceptor atom, score
      L1  H    10    23       P1  8028  0.78
      P1  H  6896  6908       L1     3  0.88
      P1  H  7989  7998       L1    15  0.44
      P1  H  7997  8009       L1    14  0.43

> <Gold.Chemscore.Hbond.Weighted>
-12.1010

> <Gold.Chemscore.Metal.Weighted>
-0.0000

> <Gold.Chemscore.Lipo.Weighted>
-2.8244

> <Gold.Chemscore.Internal_Hbond.Weighted>
0.0000

> <Gold.Chemscore.DEClash.Weighted>
0.0000

> <Gold.Chemscore.DEInternal.Weighted>
1.1371

> <Gold.Chemscore.Rot.Weighted>
4.3232

> <Gold.Chemscore.Internal.Correction.Weighted>
   9.000000E+99

> <Gold.Protein.RotatedTorsions>
[ 6907 6896 6895 6894 ] final -103.02 input  -60.11 | X-H torsion
[ 7974 7965 7964 7962 ] final  -48.03 input  175.53 | X-H torsion
[ 8008 7997 7996 7995 ] final -138.84 input   59.86 | X-H torsion
[ 10167 10162 10161 10158 ] final  -11.76 input  -65.29 | X-H torsion
[ 10718 10713 10712 10709 ] final   22.09 input   66.30 | X-H torsion
[ 10763 10752 10751 10750 ] final  142.67 input  -60.55 | X-H torsion
[ 11005 11000 10999 10996 ] final   26.81 input  -57.11 | X-H torsion

> <Gold.Protein.ActiveResidues>
 VAL166  LYS551  ARG553  GLY616  TRP617  ASP618  TYR619  PRO620  LYS621  CYS622 
 ASP623  PHE694  ASN695  SER759  ASP760  ASP761  ALA762  ILE779  LEU786  VAL792 
 PHE793  MET794  SER795  GLU796  ALA797  LYS798  CYS799  TRP800  GLU811  SER814 

> <Gold.Protein.RotatedAtoms>
  150.7221  134.0493  159.3792 H   0  0  0  0  0  0  0  0  0  0  0  0  # atno 6907 bound_to 6896
  151.8469  135.0569  160.0464 H   0  0  0  0  0  0  0  0  0  0  0  0  # atno 6908 bound_to 6896
  152.2820  133.5443  159.5540 H   0  0  0  0  0  0  0  0  0  0  0  0  # atno 6909 bound_to 6896
  145.9554  140.7531  142.9483 H   0  0  0  0  0  0  0  0  0  0  0  0  # atno 7974 bound_to 7965
  155.4350  140.0528  157.3015 H   0  0  0  0  0  0  0  0  0  0  0  0  # atno 8008 bound_to 7997
  154.4843  140.2094  155.9649 H   0  0  0  0  0  0  0  0  0  0  0  0  # atno 8009 bound_to 7997
  156.1252  140.3181  155.8271 H   0  0  0  0  0  0  0  0  0  0  0  0  # atno 8010 bound_to 7997
  140.7146  143.5605  150.9201 H   0  0  0  0  0  0  0  0  0  0  0  0  # atno 10167 bound_to 10162
  157.1474  130.6659  149.6001 H   0  0  0  0  0  0  0  0  0  0  0  0  # atno 10718 bound_to 10713
  153.9597  135.2961  155.3434 H   0  0  0  0  0  0  0  0  0  0  0  0  # atno 10763 bound_to 10752
  154.7382  135.5037  153.9080 H   0  0  0  0  0  0  0  0  0  0  0  0  # atno 10764 bound_to 10752
  153.0953  135.6719  153.9885 H   0  0  0  0  0  0  0  0  0  0  0  0  # atno 10765 bound_to 10752
  140.3331  134.2416  155.7699 H   0  0  0  0  0  0  0  0  0  0  0  0  # atno 11005 bound_to 11000
  144.6804  140.2504  143.7332 LP  0  0  0  0  0  0  0  0  0  0  0  0  # atno 17320 bound_to 7965
  145.8113  139.2004  143.1991 LP  0  0  0  0  0  0  0  0  0  0  0  0  # atno 17321 bound_to 7965
  139.9330  143.6470  152.3072 LP  0  0  0  0  0  0  0  0  0  0  0  0  # atno 17342 bound_to 10162
  139.6928  144.7645  151.1408 LP  0  0  0  0  0  0  0  0  0  0  0  0  # atno 17343 bound_to 10162
  155.9777  130.4756  150.6608 LP  0  0  0  0  0  0  0  0  0  0  0  0  # atno 17370 bound_to 10713
  157.4251  131.0842  151.1093 LP  0  0  0  0  0  0  0  0  0  0  0  0  # atno 17371 bound_to 10713
  141.2058  133.7850  157.0211 LP  0  0  0  0  0  0  0  0  0  0  0  0  # atno 17394 bound_to 11000
  140.0844  134.9629  157.1676 LP  0  0  0  0  0  0  0  0  0  0  0  0  # atno 17395 bound_to 11000

$$$$
