AV-unprocessed.smi:1433|AV-procd|sdf|5839|dock9
  -GOLD-   22720 5503D 1   1.00000     0.00000
 Structure written by MMmdl.
 44 45  0  0  0  0  0  0  0  0  1 V2000
  150.7972  141.9758  156.1873 C   0  0  0  0  0  0  0  0  0  0  0  0
  150.3519  140.5485  155.8522 C   0  0  1  0  0  0  0  0  0  0  0  0
  148.9989  140.5214  155.1167 C   0  0  0  0  0  0  0  0  0  0  0  0
  148.6105  139.1682  154.7173 N   0  0  0  0  0  0  0  0  0  0  0  0
  147.2869  139.1085  154.0604 C   0  0  2  0  0  0  0  0  0  0  0  0
  146.2823  140.1583  154.5887 C   0  0  0  0  0  0  0  0  0  0  0  0
  146.6113  137.7146  154.1477 C   0  0  0  0  0  0  0  0  0  0  0  0
  146.5790  137.0456  152.8483 N   0  0  0  0  0  0  0  0  0  0  0  0
  145.5013  136.4827  152.2793 C   0  0  0  0  0  0  0  0  0  0  0  0
  144.3987  136.4130  152.8212 O   0  0  0  0  0  0  0  0  0  0  0  0
  145.6921  135.9203  150.8703 C   0  0  0  0  0  0  0  0  0  0  0  0
  145.5171  134.4790  150.8485 N   0  0  0  0  0  0  0  0  0  0  0  0
  144.3427  133.7594  150.7689 C   0  0  0  0  0  0  0  0  0  0  0  0
  144.6756  132.4352  150.7795 C   0  0  0  0  0  0  0  0  0  0  0  0
  146.0960  132.4446  150.8669 C   0  0  0  0  0  0  0  0  0  0  0  0
  146.5969  133.6688  150.9088 N   0  0  0  0  0  0  0  0  0  0  0  0
  149.6806  138.6250  153.8762 C   0  0  0  0  0  0  0  0  0  0  0  0
  151.0558  138.6397  154.5691 C   0  0  2  0  0  0  0  0  0  0  0  0
  151.1811  137.5878  155.6854 C   0  0  0  0  0  0  0  0  0  0  0  0
  151.3568  139.9540  155.0353 O   0  0  0  0  0  0  0  0  0  0  0  0
  150.0638  142.4778  156.8188 H   0  0  0  0  0  0  0  0  0  0  0  0
  150.9248  142.5719  155.2832 H   0  0  0  0  0  0  0  0  0  0  0  0
  151.7480  141.9719  156.7206 H   0  0  0  0  0  0  0  0  0  0  0  0
  150.2679  139.9896  156.7846 H   0  0  0  0  0  0  0  0  0  0  0  0
  148.2574  140.9495  155.7893 H   0  0  0  0  0  0  0  0  0  0  0  0
  149.0405  141.1683  154.2389 H   0  0  0  0  0  0  0  0  0  0  0  0
  147.4284  139.3222  152.9998 H   0  0  0  0  0  0  0  0  0  0  0  0
  145.2901  140.0059  154.1629 H   0  0  0  0  0  0  0  0  0  0  0  0
  146.5718  141.1736  154.3191 H   0  0  0  0  0  0  0  0  0  0  0  0
  146.1855  140.1114  155.6740 H   0  0  0  0  0  0  0  0  0  0  0  0
  147.1740  137.0765  154.8296 H   0  0  0  0  0  0  0  0  0  0  0  0
  145.6195  137.7791  154.5950 H   0  0  0  0  0  0  0  0  0  0  0  0
  147.4396  137.0464  152.3198 H   0  0  0  0  0  0  0  0  0  0  0  0
  144.9694  136.3696  150.1881 H   0  0  0  0  0  0  0  0  0  0  0  0
  146.6857  136.1775  150.4993 H   0  0  0  0  0  0  0  0  0  0  0  0
  143.3795  134.2454  150.7141 H   0  0  0  0  0  0  0  0  0  0  0  0
  144.0068  131.5888  150.7314 H   0  0  0  0  0  0  0  0  0  0  0  0
  146.7735  131.6042  150.9009 H   0  0  0  0  0  0  0  0  0  0  0  0
  149.4688  137.6003  153.5812 H   0  0  0  0  0  0  0  0  0  0  0  0
  149.7418  139.2016  152.9519 H   0  0  0  0  0  0  0  0  0  0  0  0
  151.8113  138.4005  153.8204 H   0  0  0  0  0  0  0  0  0  0  0  0
  151.0560  136.5818  155.2844 H   0  0  0  0  0  0  0  0  0  0  0  0
  150.4279  137.7214  156.4618 H   0  0  0  0  0  0  0  0  0  0  0  0
  152.1622  137.6358  156.1577 H   0  0  0  0  0  0  0  0  0  0  0  0
  1  2  1  0  0  0  0
  1 21  1  0  0  0  0
  1 22  1  0  0  0  0
  1 23  1  0  0  0  0
  2 20  1  0  0  0  0
  2  3  1  0  0  0  0
  2 24  1  0  0  0  0
  3  4  1  0  0  0  0
  3 25  1  0  0  0  0
  3 26  1  0  0  0  0
  4  5  1  0  0  0  0
  4 17  1  0  0  0  0
  5  6  1  0  0  0  0
  5  7  1  0  0  0  0
  5 27  1  0  0  0  0
  6 28  1  0  0  0  0
  6 29  1  0  0  0  0
  6 30  1  0  0  0  0
  7  8  1  0  0  0  0
  7 31  1  0  0  0  0
  7 32  1  0  0  0  0
  8  9  1  0  0  0  0
  8 33  1  0  0  0  0
  9 10  2  0  0  0  0
  9 11  1  0  0  0  0
 11 12  1  0  0  0  0
 11 34  1  0  0  0  0
 11 35  1  0  0  0  0
 12 16  1  0  0  0  0
 12 13  1  0  0  0  0
 13 14  2  0  0  0  0
 13 36  1  0  0  0  0
 14 15  1  0  0  0  0
 14 37  1  0  0  0  0
 15 16  2  0  0  0  0
 15 38  1  0  0  0  0
 17 18  1  0  0  0  0
 17 39  1  0  0  0  0
 17 40  1  0  0  0  0
 18 19  1  0  0  0  0
 18 20  1  0  0  0  0
 18 41  1  0  0  0  0
 19 42  1  0  0  0  0
 19 43  1  0  0  0  0
 19 44  1  0  0  0  0
M  END
> <s_m_source_file>
AV-unprocessed.smi

> <i_m_source_file_index>
1433

> <i_lp_mmshare_version>
43012

> <i_f3d_flags>
0

> <s_epik_input>
W0NIM11bQ0BASF0xW0NIMl1OKFtDSDJdW0NASF0oTzEpW0NIM10pW0NASF0oW0NIM10pW0NIMl1bTkhdQyg9TylbQ0gyXW4yW2NIXVtjSF1bY0hdbjI=

> <s_epik_cmdline>
J2VwaWtfcHl0aG9uJywgJy1waCcsICc3LjAnLCAnLXRuJywgJzgnLCAnLW1hJywgJzIwMCcsICctbWV0YWxfYmluZGluZycsICctaW1hZScsICc8aW5maWxlLm1hZT4nLCAnLW9tYWUnLCAnPG91dGZpbGUubWFlPic=

> <r_lp_tautomer_probability>
1

> <r_epik_Ionization_Penalty>
0.196927

> <r_epik_Ionization_Penalty_Charging>
0

> <r_epik_Ionization_Penalty_Neutral>
0.196927

> <r_epik_State_Penalty>
0.186684

> <r_epik_Charging_Adjusted_Penalty>
0.186684

> <i_epik_Tot_Q>
0

> <i_epik_Tot_abs_Q>
0

> <r_epik_Metal_State_Penalty>
0.186682

> <b_epik_Metal_Only>
0

> <s_lp_Force_Field>
OPLS_2005

> <r_lp_Energy>
34.0923

> <b_lp_Chiralities_Consistent>
1

> <s_lp_Variant>
AV-unprocessed.smi:1433-5

> <Gold.Version>
5.8.1

> <Gold.Id.Protein>
6NUR|6NUR_protein|mol2

> <Gold.PLP.Fitness>
40.5944

> <Gold.PLP.PLP>
-31.9124

> <Gold.PLP.part.hbond>
-2.0000

> <Gold.PLP.part.metal>
0.0000

> <Gold.PLP.part.buried>
-4.1955

> <Gold.PLP.part.nonpolar>
-26.4841

> <Gold.PLP.part.repulsive>
0.5464

> <Gold.PLP.ligand.clash>
0.0000

> <Gold.PLP.ligand.torsion>
1.6428

> <Gold.PLP.Chemscore.Hbond>
1.9920

> <Gold.PLP.Chemscore.CHOScore>
1.9871

> <Gold.PLP.Chemscore.Metal>
0.0000

> <Gold.Chemscore.Hbonds>
donor molecule, donor type, donor heavy atom, donor atom, acceptor molecule, acceptor atom, score
      L1  H     8    33       P1  7948  1.00
      P1  H  7989  7998       L1    20  1.00
      L1  C    13    36       P1 10186  0.72
      L1  C    15    38       P1 10747  1.00

> <Gold.PLP.Chemscore.Internal.Correction>
0.0303

> <Gold.Rescore>
     Score         DG    S(hbond)    S(metal)    S(lipo)     H(rot)  DE(clash)    DE(int)     intcor
     14.05     -15.33       1.55        0.00      79.55       1.80       0.04       1.25       ----

> <Gold.Chemscore.Fitness>
14.0493

> <Gold.Chemscore.DG>
-15.3349

> <Gold.Chemscore.ZeroCoef>
-5.4800

> <Gold.Chemscore.Hbond>
1.5465

> <Gold.Chemscore.Metal>
0.0000

> <Gold.Chemscore.Lipo>
79.5511

> <Gold.Chemscore.Internal_Hbond>
0.0000

> <Gold.Chemscore.DEClash>
0.0380

> <Gold.Chemscore.DEInternal>
1.2477

> <Gold.Chemscore.Rot>
1.8038

> <Gold.Chemscore.Internal.Correction>
   9.000000E+99

> <Gold.Chemscore.Hbonds>
donor molecule, donor type, donor heavy atom, donor atom, acceptor molecule, acceptor atom, score
      L1  H     8    33       P1  7948  0.94
      P1  H  7989  7998       L1    20  0.34

> <Gold.Chemscore.Hbond.Weighted>
-5.1652

> <Gold.Chemscore.Metal.Weighted>
-0.0000

> <Gold.Chemscore.Lipo.Weighted>
-9.3075

> <Gold.Chemscore.Internal_Hbond.Weighted>
0.0000

> <Gold.Chemscore.DEClash.Weighted>
0.0380

> <Gold.Chemscore.DEInternal.Weighted>
1.2477

> <Gold.Chemscore.Rot.Weighted>
4.6178

> <Gold.Chemscore.Internal.Correction.Weighted>
   9.000000E+99

> <Gold.Protein.RotatedTorsions>
[ 6907 6896 6895 6894 ] final -121.62 input  -60.11 | X-H torsion
[ 7974 7965 7964 7962 ] final  116.94 input  175.53 | X-H torsion
[ 8008 7997 7996 7995 ] final   65.42 input   59.86 | X-H torsion
[ 10167 10162 10161 10158 ] final -132.48 input  -65.29 | X-H torsion
[ 10718 10713 10712 10709 ] final   77.36 input   66.30 | X-H torsion
[ 10763 10752 10751 10750 ] final  146.67 input  -60.55 | X-H torsion
[ 11005 11000 10999 10996 ] final  -19.01 input  -57.11 | X-H torsion

> <Gold.Protein.ActiveResidues>
 VAL166  LYS551  ARG553  GLY616  TRP617  ASP618  TYR619  PRO620  LYS621  CYS622 
 ASP623  PHE694  ASN695  SER759  ASP760  ASP761  ALA762  ILE779  LEU786  VAL792 
 PHE793  MET794  SER795  GLU796  ALA797  LYS798  CYS799  TRP800  GLU811  SER814 

> <Gold.Protein.RotatedAtoms>
  150.8500  133.7801  159.3028 H   0  0  0  0  0  0  0  0  0  0  0  0  # atno 6907 bound_to 6896
  151.5476  135.1066  159.9951 H   0  0  0  0  0  0  0  0  0  0  0  0  # atno 6908 bound_to 6896
  152.4545  133.7652  159.6825 H   0  0  0  0  0  0  0  0  0  0  0  0  # atno 6909 bound_to 6896
  145.1735  139.3089  143.4455 H   0  0  0  0  0  0  0  0  0  0  0  0  # atno 7974 bound_to 7965
  155.6615  140.3497  155.4784 H   0  0  0  0  0  0  0  0  0  0  0  0  # atno 8008 bound_to 7997
  155.9765  140.1166  157.0789 H   0  0  0  0  0  0  0  0  0  0  0  0  # atno 8009 bound_to 7997
  154.4180  140.1147  156.5363 H   0  0  0  0  0  0  0  0  0  0  0  0  # atno 8010 bound_to 7997
  139.9081  143.6527  152.2581 H   0  0  0  0  0  0  0  0  0  0  0  0  # atno 10167 bound_to 10162
  157.6707  130.9818  150.1630 H   0  0  0  0  0  0  0  0  0  0  0  0  # atno 10718 bound_to 10713
  154.0258  135.2902  155.3375 H   0  0  0  0  0  0  0  0  0  0  0  0  # atno 10763 bound_to 10752
  154.7018  135.5185  153.8541 H   0  0  0  0  0  0  0  0  0  0  0  0  # atno 10764 bound_to 10752
  153.0661  135.6631  154.0475 H   0  0  0  0  0  0  0  0  0  0  0  0  # atno 10765 bound_to 10752
  140.8324  133.7987  155.9773 H   0  0  0  0  0  0  0  0  0  0  0  0  # atno 11005 bound_to 11000
  146.3465  140.1888  142.8589 LP  0  0  0  0  0  0  0  0  0  0  0  0  # atno 17320 bound_to 7965
  145.0209  140.8793  143.5167 LP  0  0  0  0  0  0  0  0  0  0  0  0  # atno 17321 bound_to 7965
  139.6966  144.7640  151.1345 LP  0  0  0  0  0  0  0  0  0  0  0  0  # atno 17342 bound_to 10162
  140.7692  143.5515  150.9200 LP  0  0  0  0  0  0  0  0  0  0  0  0  # atno 17343 bound_to 10162
  156.2402  130.3690  149.8346 LP  0  0  0  0  0  0  0  0  0  0  0  0  # atno 17370 bound_to 10713
  156.6148  130.8601  151.3462 LP  0  0  0  0  0  0  0  0  0  0  0  0  # atno 17371 bound_to 10713
  140.8984  134.2409  157.5056 LP  0  0  0  0  0  0  0  0  0  0  0  0  # atno 17394 bound_to 11000
  139.8704  134.9695  156.4667 LP  0  0  0  0  0  0  0  0  0  0  0  0  # atno 17395 bound_to 11000

$$$$
