AV-unprocessed.smi:1774|AV-procd|sdf|7169|dock7
  -GOLD-   22720 8403D 1   1.00000     0.00000
 Structure written by MMmdl.
 46 47  0  0  0  0  0  0  0  0  2 V2000
  146.7067  132.9385  152.3998 C   0  0  0  0  0  0  0  0  0  0  0  0
  145.6867  133.1960  151.3027 C   0  0  0  0  0  0  0  0  0  0  0  0
  144.9962  132.1053  150.7323 C   0  0  0  0  0  0  0  0  0  0  0  0
  144.0529  132.3455  149.7188 C   0  0  0  0  0  0  0  0  0  0  0  0
  143.8391  133.6746  149.3153 C   0  0  0  0  0  0  0  0  0  0  0  0
  144.4942  134.7226  149.8551 N   0  0  0  0  0  0  0  0  0  0  0  0
  145.4068  134.5082  150.8359 C   0  0  0  0  0  0  0  0  0  0  0  0
  146.1326  135.5664  151.4528 N   0  0  0  0  0  0  0  0  0  0  0  0
  145.6566  136.5896  152.1841 C   0  0  0  0  0  0  0  0  0  0  0  0
  144.4690  136.7996  152.4330 O   0  0  0  0  0  0  0  0  0  0  0  0
  146.6487  137.3749  152.6286 N   0  0  0  0  0  0  0  0  0  0  0  0
  146.4602  138.5416  153.4829 C   0  0  0  0  0  0  0  0  0  0  0  0
  147.4481  139.6704  153.1317 C   0  0  0  0  0  0  0  0  0  0  0  0
  148.4922  139.8400  154.1720 N   0  3  1  0  0  0  0  0  0  0  0  0
  149.5494  138.8060  154.0949 C   0  0  0  0  0  0  0  0  0  0  0  0
  150.5407  138.9647  155.2623 C   0  0  1  0  0  0  0  0  0  0  0  0
  151.7010  137.9676  155.1712 C   0  0  0  0  0  0  0  0  0  0  0  0
  151.0904  140.2797  155.2445 O   0  0  0  0  0  0  0  0  0  0  0  0
  150.1304  141.3339  155.3167 C   0  0  2  0  0  0  0  0  0  0  0  0
  149.4927  141.4488  156.7127 C   0  0  0  0  0  0  0  0  0  0  0  0
  149.0997  141.1938  154.1795 C   0  0  0  0  0  0  0  0  0  0  0  0
  146.7622  131.8787  152.6493 H   0  0  0  0  0  0  0  0  0  0  0  0
  146.4395  133.4820  153.3065 H   0  0  0  0  0  0  0  0  0  0  0  0
  147.6982  133.2611  152.0811 H   0  0  0  0  0  0  0  0  0  0  0  0
  145.1841  131.0955  151.0660 H   0  0  0  0  0  0  0  0  0  0  0  0
  143.5075  131.5328  149.2623 H   0  0  0  0  0  0  0  0  0  0  0  0
  143.1238  133.9033  148.5393 H   0  0  0  0  0  0  0  0  0  0  0  0
  147.1344  135.5235  151.3398 H   0  0  0  0  0  0  0  0  0  0  0  0
  147.5977  137.1362  152.3795 H   0  0  0  0  0  0  0  0  0  0  0  0
  145.4254  138.8766  153.4046 H   0  0  0  0  0  0  0  0  0  0  0  0
  146.6058  138.2308  154.5179 H   0  0  0  0  0  0  0  0  0  0  0  0
  147.9219  139.4193  152.1813 H   0  0  0  0  0  0  0  0  0  0  0  0
  146.9302  140.6181  152.9754 H   0  0  0  0  0  0  0  0  0  0  0  0
  149.0985  137.8135  154.1335 H   0  0  0  0  0  0  0  0  0  0  0  0
  150.0687  138.8863  153.1383 H   0  0  0  0  0  0  0  0  0  0  0  0
  150.0241  138.7949  156.2070 H   0  0  0  0  0  0  0  0  0  0  0  0
  151.3380  136.9395  155.1875 H   0  0  0  0  0  0  0  0  0  0  0  0
  152.3862  138.0900  156.0102 H   0  0  0  0  0  0  0  0  0  0  0  0
  152.2716  138.1068  154.2526 H   0  0  0  0  0  0  0  0  0  0  0  0
  150.6851  142.2574  155.1483 H   0  0  0  0  0  0  0  0  0  0  0  0
  148.8681  142.3398  156.7795 H   0  0  0  0  0  0  0  0  0  0  0  0
  150.2590  141.5269  157.4842 H   0  0  0  0  0  0  0  0  0  0  0  0
  148.8620  140.5934  156.9531 H   0  0  0  0  0  0  0  0  0  0  0  0
  149.5914  141.3668  153.2206 H   0  0  0  0  0  0  0  0  0  0  0  0
  148.3356  141.9638  154.2804 H   0  0  0  0  0  0  0  0  0  0  0  0
  148.0351  139.7119  155.0634 H   0  0  0  0  0  0  0  0  0  0  0  0
  1  2  1  0  0  0  0
  1 22  1  0  0  0  0
  1 23  1  0  0  0  0
  1 24  1  0  0  0  0
  2  7  1  0  0  0  0
  2  3  2  0  0  0  0
  3  4  1  0  0  0  0
  3 25  1  0  0  0  0
  4  5  2  0  0  0  0
  4 26  1  0  0  0  0
  5  6  1  0  0  0  0
  5 27  1  0  0  0  0
  6  7  2  0  0  0  0
  7  8  1  0  0  0  0
  8  9  1  0  0  0  0
  8 28  1  0  0  0  0
  9 10  2  0  0  0  0
  9 11  1  0  0  0  0
 11 12  1  0  0  0  0
 11 29  1  0  0  0  0
 12 13  1  0  0  0  0
 12 30  1  0  0  0  0
 12 31  1  0  0  0  0
 13 14  1  0  0  0  0
 13 32  1  0  0  0  0
 13 33  1  0  0  0  0
 14 21  1  0  0  0  0
 14 15  1  0  0  0  0
 14 46  1  0  0  0  0
 15 16  1  0  0  0  0
 15 34  1  0  0  0  0
 15 35  1  0  0  0  0
 16 17  1  0  0  0  0
 16 18  1  0  0  0  0
 16 36  1  0  0  0  0
 17 37  1  0  0  0  0
 17 38  1  0  0  0  0
 17 39  1  0  0  0  0
 18 19  1  0  0  0  0
 19 20  1  0  0  0  0
 19 21  1  0  0  0  0
 19 40  1  0  0  0  0
 20 41  1  0  0  0  0
 20 42  1  0  0  0  0
 20 43  1  0  0  0  0
 21 44  1  0  0  0  0
 21 45  1  0  0  0  0
M  CHG  1  14   1
M  END
> <s_m_source_file>
AV-unprocessed.smi

> <i_m_source_file_index>
1774

> <i_lp_mmshare_version>
43012

> <i_f3d_flags>
0

> <s_epik_input>
W0NIM11jMVtjSF1bY0hdW2NIXW5jMVtOSF1DKD1PKVtOSF1bQ0gyXVtDSDJdTjJbQ0gyXVtDQEBIXShbQ0gzXSlPW0NAQEhdKFtDSDNdKVtDSDJdMg==

> <s_epik_cmdline>
J2VwaWtfcHl0aG9uJywgJy1waCcsICc3LjAnLCAnLXRuJywgJzgnLCAnLW1hJywgJzIwMCcsICctbWV0YWxfYmluZGluZycsICctaW1hZScsICc8aW5maWxlLm1hZT4nLCAnLW9tYWUnLCAnPG91dGZpbGUubWFlPic=

> <r_epik_Ionization_Penalty>
0.602573

> <r_epik_Ionization_Penalty_Charging>
0.602531

> <r_epik_Ionization_Penalty_Neutral>
4.21996e-05

> <r_epik_State_Penalty>
0.617039

> <r_epik_Charging_Adjusted_Penalty>
1.21957

> <i_epik_Tot_Q>
1

> <i_epik_Tot_abs_Q>
1

> <r_epik_Metal_State_Penalty>
0.617042

> <b_epik_Metal_Only>
0

> <s_lp_Force_Field>
OPLS_2005

> <r_lp_Energy>
18.7656

> <b_lp_Chiralities_Consistent>
1

> <s_lp_Variant>
AV-unprocessed.smi:1774-6

> <Gold.Version>
5.8.1

> <Gold.Id.Protein>
6NUR|6NUR_protein|mol2

> <Gold.PLP.Fitness>
47.6878

> <Gold.PLP.PLP>
-38.4328

> <Gold.PLP.part.hbond>
-3.0000

> <Gold.PLP.part.metal>
0.0000

> <Gold.PLP.part.buried>
-4.7436

> <Gold.PLP.part.nonpolar>
-31.3512

> <Gold.PLP.part.repulsive>
0.4863

> <Gold.PLP.ligand.clash>
0.0000

> <Gold.PLP.ligand.torsion>
1.3018

> <Gold.PLP.Chemscore.Hbond>
2.9520

> <Gold.PLP.Chemscore.CHOScore>
0.9943

> <Gold.PLP.Chemscore.Metal>
0.0000

> <Gold.Chemscore.Hbonds>
donor molecule, donor type, donor heavy atom, donor atom, acceptor molecule, acceptor atom, score
      L1  H     8    28       P1  7948  0.99
      L1  H    11    29       P1  7948  1.00
      P1  H  7989  7998       L1    18  0.50
      L1  C     5    27       P1 10186  0.60

> <Gold.PLP.Chemscore.Internal.Correction>
0.0196

> <Gold.Rescore>
     Score         DG    S(hbond)    S(metal)    S(lipo)     H(rot)  DE(clash)    DE(int)     intcor
     18.85     -20.03       2.17        0.00      95.18       1.49       0.09       1.08       ----

> <Gold.Chemscore.Fitness>
18.8506

> <Gold.Chemscore.DG>
-20.0283

> <Gold.Chemscore.ZeroCoef>
-5.4800

> <Gold.Chemscore.Hbond>
2.1672

> <Gold.Chemscore.Metal>
0.0000

> <Gold.Chemscore.Lipo>
95.1788

> <Gold.Chemscore.Internal_Hbond>
0.0000

> <Gold.Chemscore.DEClash>
0.0932

> <Gold.Chemscore.DEInternal>
1.0845

> <Gold.Chemscore.Rot>
1.4946

> <Gold.Chemscore.Internal.Correction>
   9.000000E+99

> <Gold.Chemscore.Hbonds>
donor molecule, donor type, donor heavy atom, donor atom, acceptor molecule, acceptor atom, score
      L1  H     8    28       P1  7948  0.89
      L1  H    11    29       P1  7948  1.00
      P1  H  7989  7998       L1    18  0.02

> <Gold.Chemscore.Hbond.Weighted>
-7.2384

> <Gold.Chemscore.Metal.Weighted>
-0.0000

> <Gold.Chemscore.Lipo.Weighted>
-11.1359

> <Gold.Chemscore.Internal_Hbond.Weighted>
0.0000

> <Gold.Chemscore.DEClash.Weighted>
0.0932

> <Gold.Chemscore.DEInternal.Weighted>
1.0845

> <Gold.Chemscore.Rot.Weighted>
3.8261

> <Gold.Chemscore.Internal.Correction.Weighted>
   9.000000E+99

> <Gold.Protein.RotatedTorsions>
[ 6907 6896 6895 6894 ] final  -98.37 input  -60.11 | X-H torsion
[ 7974 7965 7964 7962 ] final   37.74 input  175.53 | X-H torsion
[ 8008 7997 7996 7995 ] final  -25.28 input   59.86 | X-H torsion
[ 10167 10162 10161 10158 ] final -112.77 input  -65.29 | X-H torsion
[ 10718 10713 10712 10709 ] final  -70.32 input   66.30 | X-H torsion
[ 10763 10752 10751 10750 ] final  -21.23 input  -60.55 | X-H torsion
[ 11005 11000 10999 10996 ] final  -43.03 input  -57.11 | X-H torsion

> <Gold.Protein.ActiveResidues>
 VAL166  LYS551  ARG553  GLY616  TRP617  ASP618  TYR619  PRO620  LYS621  CYS622 
 ASP623  PHE694  ASN695  SER759  ASP760  ASP761  ALA762  ILE779  LEU786  VAL792 
 PHE793  MET794  SER795  GLU796  ALA797  LYS798  CYS799  TRP800  GLU811  SER814 

> <Gold.Protein.RotatedAtoms>
  150.7045  134.1205  159.4032 H   0  0  0  0  0  0  0  0  0  0  0  0  # atno 6907 bound_to 6896
  151.9191  135.0303  160.0530 H   0  0  0  0  0  0  0  0  0  0  0  0  # atno 6908 bound_to 6896
  152.2271  133.4993  159.5231 H   0  0  0  0  0  0  0  0  0  0  0  0  # atno 6909 bound_to 6896
  146.1114  139.5856  142.9349 H   0  0  0  0  0  0  0  0  0  0  0  0  # atno 7974 bound_to 7965
  154.4484  140.1931  156.0595 H   0  0  0  0  0  0  0  0  0  0  0  0  # atno 8008 bound_to 7997
  156.0594  140.3298  155.7416 H   0  0  0  0  0  0  0  0  0  0  0  0  # atno 8009 bound_to 7997
  155.5435  140.0588  157.2856 H   0  0  0  0  0  0  0  0  0  0  0  0  # atno 8010 bound_to 7997
  140.1191  143.4459  152.1702 H   0  0  0  0  0  0  0  0  0  0  0  0  # atno 10167 bound_to 10162
  156.0413  130.4329  150.2278 H   0  0  0  0  0  0  0  0  0  0  0  0  # atno 10718 bound_to 10713
  153.6329  135.6988  153.5269 H   0  0  0  0  0  0  0  0  0  0  0  0  # atno 10763 bound_to 10752
  153.2844  135.4176  155.1109 H   0  0  0  0  0  0  0  0  0  0  0  0  # atno 10764 bound_to 10752
  154.8518  135.3610  154.5872 H   0  0  0  0  0  0  0  0  0  0  0  0  # atno 10765 bound_to 10752
  141.0356  133.6801  156.2676 H   0  0  0  0  0  0  0  0  0  0  0  0  # atno 11005 bound_to 11000
  145.5655  141.0400  143.2203 LP  0  0  0  0  0  0  0  0  0  0  0  0  # atno 17320 bound_to 7965
  144.7515  139.7182  143.7271 LP  0  0  0  0  0  0  0  0  0  0  0  0  # atno 17321 bound_to 7965
  139.5578  144.7385  151.4243 LP  0  0  0  0  0  0  0  0  0  0  0  0  # atno 17342 bound_to 10162
  140.6882  143.7924  150.7217 LP  0  0  0  0  0  0  0  0  0  0  0  0  # atno 17343 bound_to 10162
  157.0373  131.0025  151.3294 LP  0  0  0  0  0  0  0  0  0  0  0  0  # atno 17370 bound_to 10713
  157.5235  130.8013  149.7835 LP  0  0  0  0  0  0  0  0  0  0  0  0  # atno 17371 bound_to 10713
  140.6328  134.5246  157.5561 LP  0  0  0  0  0  0  0  0  0  0  0  0  # atno 17394 bound_to 11000
  139.9238  134.8096  156.1130 LP  0  0  0  0  0  0  0  0  0  0  0  0  # atno 17395 bound_to 11000

$$$$
