AV-unprocessed.smi:2556|AV-procd|sdf|10023|dock9
  -GOLD-   2272014 63D 1   1.00000     0.00000
 Structure written by MMmdl.
 35 37  0  0  0  0  0  0  0  0  1 V2000
  146.7996  141.7320  153.2499 C   0  0  0  0  0  0  0  0  0  0  0  0
  147.0308  141.6493  154.6934 N   0  0  0  0  0  0  0  0  0  0  0  0
  146.0741  142.0230  155.6053 C   0  0  0  0  0  0  0  0  0  0  0  0
  144.9666  142.4434  155.2719 O   0  0  0  0  0  0  0  0  0  0  0  0
  146.3855  141.9163  156.9339 N   0  0  0  0  0  0  0  0  0  0  0  0
  147.5479  141.4786  157.4769 C   0  0  0  0  0  0  0  0  0  0  0  0
  147.7507  141.4130  158.6873 O   0  0  0  0  0  0  0  0  0  0  0  0
  148.5392  141.0900  156.4674 C   0  0  0  0  0  0  0  0  0  0  0  0
  148.2954  141.1686  155.1330 C   0  0  0  0  0  0  0  0  0  0  0  0
  149.3917  140.7372  154.3948 N   0  0  0  0  0  0  0  0  0  0  0  0
  150.2615  140.4116  155.3529 C   0  0  0  0  0  0  0  0  0  0  0  0
  149.8315  140.5925  156.6187 N   0  0  0  0  0  0  0  0  0  0  0  0
  150.5867  140.3147  157.8308 C   0  0  0  0  0  0  0  0  0  0  0  0
  152.0501  140.7929  157.7438 C   0  0  2  0  0  0  0  0  0  0  0  0
  152.9222  139.8011  158.2503 O   0  0  0  0  0  0  0  0  0  0  0  0
  152.2352  142.1284  158.4463 C   0  0  0  0  0  0  0  0  0  0  0  0
  152.1893  143.3292  157.7058 C   0  0  0  0  0  0  0  0  0  0  0  0
  152.3510  144.5692  158.3543 C   0  0  0  0  0  0  0  0  0  0  0  0
  152.5568  144.6156  159.7464 C   0  0  0  0  0  0  0  0  0  0  0  0
  152.5998  143.4212  160.4907 C   0  0  0  0  0  0  0  0  0  0  0  0
  152.4393  142.1809  159.8428 C   0  0  0  0  0  0  0  0  0  0  0  0
  145.6660  142.1956  157.5846 H   0  0  0  0  0  0  0  0  0  0  0  0
  145.7923  142.0491  152.9783 H   0  0  0  0  0  0  0  0  0  0  0  0
  146.9674  140.7581  152.7889 H   0  0  0  0  0  0  0  0  0  0  0  0
  147.4985  142.4392  152.8024 H   0  0  0  0  0  0  0  0  0  0  0  0
  151.2457  140.0279  155.1267 H   0  0  0  0  0  0  0  0  0  0  0  0
  150.0859  140.8195  158.6580 H   0  0  0  0  0  0  0  0  0  0  0  0
  150.5331  139.2499  158.0555 H   0  0  0  0  0  0  0  0  0  0  0  0
  152.3105  140.9219  156.6924 H   0  0  0  0  0  0  0  0  0  0  0  0
  152.4037  139.1377  158.6793 H   0  0  0  0  0  0  0  0  0  0  0  0
  152.0292  143.3054  156.6377 H   0  0  0  0  0  0  0  0  0  0  0  0
  152.3157  145.4855  157.7835 H   0  0  0  0  0  0  0  0  0  0  0  0
  152.6797  145.5666  160.2432 H   0  0  0  0  0  0  0  0  0  0  0  0
  152.7543  143.4561  161.5591 H   0  0  0  0  0  0  0  0  0  0  0  0
  152.4699  141.2692  160.4218 H   0  0  0  0  0  0  0  0  0  0  0  0
  1  2  1  0  0  0  0
  1 23  1  0  0  0  0
  1 24  1  0  0  0  0
  1 25  1  0  0  0  0
  2  9  1  0  0  0  0
  2  3  1  0  0  0  0
  3  4  2  0  0  0  0
  3  5  1  0  0  0  0
  5 22  1  0  0  0  0
  5  6  1  0  0  0  0
  6  7  2  0  0  0  0
  6  8  1  0  0  0  0
  8 12  1  0  0  0  0
  8  9  2  0  0  0  0
  9 10  1  0  0  0  0
 10 11  2  0  0  0  0
 11 12  1  0  0  0  0
 11 26  1  0  0  0  0
 12 13  1  0  0  0  0
 13 14  1  0  0  0  0
 13 27  1  0  0  0  0
 13 28  1  0  0  0  0
 14 15  1  0  0  0  0
 14 16  1  0  0  0  0
 14 29  1  0  0  0  0
 15 30  1  0  0  0  0
 16 21  1  0  0  0  0
 16 17  2  0  0  0  0
 17 18  1  0  0  0  0
 17 31  1  0  0  0  0
 18 19  2  0  0  0  0
 18 32  1  0  0  0  0
 19 20  1  0  0  0  0
 19 33  1  0  0  0  0
 20 21  2  0  0  0  0
 20 34  1  0  0  0  0
 21 35  1  0  0  0  0
M  END
> <s_m_source_file>
AV-unprocessed.smi

> <i_m_source_file_index>
2556

> <i_lp_mmshare_version>
43012

> <i_f3d_flags>
0

> <s_epik_input>
Tz1jMVtuSF1jKD1PKW4oW0NIM10pYyhjMTIpbltjSF1uMltDSDJdW0NASF0oW09IXSljM1tjSF1bY0hdW2NIXVtjSF1bY0hdMw==

> <s_epik_cmdline>
J2VwaWtfcHl0aG9uJywgJy1waCcsICc3LjAnLCAnLXRuJywgJzgnLCAnLW1hJywgJzIwMCcsICctbWV0YWxfYmluZGluZycsICctaW1hZScsICc8aW5maWxlLm1hZT4nLCAnLW9tYWUnLCAnPG91dGZpbGUubWFlPic=

> <r_lp_tautomer_probability>
1

> <r_epik_Ionization_Penalty>
0.000177505

> <r_epik_Ionization_Penalty_Charging>
0.000176585

> <r_epik_Ionization_Penalty_Neutral>
9.19728e-07

> <r_epik_State_Penalty>
-0

> <r_epik_Charging_Adjusted_Penalty>
0.000176585

> <i_epik_Tot_Q>
0

> <i_epik_Tot_abs_Q>
0

> <r_epik_Metal_State_Penalty>
0.122509

> <b_epik_Metal_Only>
0

> <s_lp_Force_Field>
OPLS_2005

> <r_lp_Energy>
28.9299

> <b_lp_Chiralities_Consistent>
1

> <s_lp_Variant>
AV-unprocessed.smi:2556-1

> <Gold.Version>
5.8.1

> <Gold.Id.Protein>
6NUR|6NUR_protein|mol2

> <Gold.PLP.Fitness>
42.3019

> <Gold.PLP.PLP>
-40.6243

> <Gold.PLP.part.hbond>
-3.5581

> <Gold.PLP.part.metal>
0.0000

> <Gold.PLP.part.buried>
-4.0647

> <Gold.PLP.part.nonpolar>
-31.7367

> <Gold.PLP.part.repulsive>
0.3793

> <Gold.PLP.ligand.clash>
0.0000

> <Gold.PLP.ligand.torsion>
1.4276

> <Gold.PLP.Chemscore.Hbond>
1.5029

> <Gold.PLP.Chemscore.CHOScore>
0.0000

> <Gold.PLP.Chemscore.Metal>
0.0000

> <Gold.Chemscore.Hbonds>
donor molecule, donor type, donor heavy atom, donor atom, acceptor molecule, acceptor atom, score
      P1  H  6934  6946       L1     7  0.07
      P1  H  7997  8010       L1    15  0.70

> <Gold.PLP.Chemscore.Internal.Correction>
0.0241

> <Gold.Rescore>
     Score         DG    S(hbond)    S(metal)    S(lipo)     H(rot)  DE(clash)    DE(int)     intcor
     12.51     -14.88       1.35        0.00      92.42       2.31       1.36       1.02       ----

> <Gold.Chemscore.Fitness>
12.5075

> <Gold.Chemscore.DG>
-14.8819

> <Gold.Chemscore.ZeroCoef>
-5.4800

> <Gold.Chemscore.Hbond>
1.3491

> <Gold.Chemscore.Metal>
0.0000

> <Gold.Chemscore.Lipo>
92.4215

> <Gold.Chemscore.Internal_Hbond>
0.0000

> <Gold.Chemscore.DEClash>
1.3586

> <Gold.Chemscore.DEInternal>
1.0157

> <Gold.Chemscore.Rot>
2.3115

> <Gold.Chemscore.Internal.Correction>
   9.000000E+99

> <Gold.Chemscore.Hbonds>
donor molecule, donor type, donor heavy atom, donor atom, acceptor molecule, acceptor atom, score
      P1  H  6934  6946       L1     7  0.08
      P1  H  7997  8010       L1    15  0.12

> <Gold.Chemscore.Hbond.Weighted>
-4.5060

> <Gold.Chemscore.Metal.Weighted>
-0.0000

> <Gold.Chemscore.Lipo.Weighted>
-10.8133

> <Gold.Chemscore.Internal_Hbond.Weighted>
0.0000

> <Gold.Chemscore.DEClash.Weighted>
1.3586

> <Gold.Chemscore.DEInternal.Weighted>
1.0157

> <Gold.Chemscore.Rot.Weighted>
5.9174

> <Gold.Chemscore.Internal.Correction.Weighted>
   9.000000E+99

> <Gold.Protein.RotatedTorsions>
[ 6907 6896 6895 6894 ] final -126.88 input  -60.11 | X-H torsion
[ 7974 7965 7964 7962 ] final   65.78 input  175.53 | X-H torsion
[ 8008 7997 7996 7995 ] final   48.69 input   59.86 | X-H torsion
[ 10167 10162 10161 10158 ] final  -56.89 input  -65.29 | X-H torsion
[ 10718 10713 10712 10709 ] final  149.20 input   66.30 | X-H torsion
[ 10763 10752 10751 10750 ] final   93.58 input  -60.55 | X-H torsion
[ 11005 11000 10999 10996 ] final  148.77 input  -57.11 | X-H torsion

> <Gold.Protein.ActiveResidues>
 VAL166  LYS551  ARG553  GLY616  TRP617  ASP618  TYR619  PRO620  LYS621  CYS622 
 ASP623  PHE694  ASN695  SER759  ASP760  ASP761  ALA762  ILE779  LEU786  VAL792 
 PHE793  MET794  SER795  GLU796  ALA797  LYS798  CYS799  TRP800  GLU811  SER814 

> <Gold.Protein.RotatedAtoms>
  150.9015  133.7112  159.2877 H   0  0  0  0  0  0  0  0  0  0  0  0  # atno 6907 bound_to 6896
  151.4629  135.1038  159.9739 H   0  0  0  0  0  0  0  0  0  0  0  0  # atno 6908 bound_to 6896
  152.4879  133.8374  159.7190 H   0  0  0  0  0  0  0  0  0  0  0  0  # atno 6909 bound_to 6896
  145.8344  139.3158  143.0968 H   0  0  0  0  0  0  0  0  0  0  0  0  # atno 7974 bound_to 7965
  155.3898  140.3433  155.4251 H   0  0  0  0  0  0  0  0  0  0  0  0  # atno 8008 bound_to 7997
  156.1564  140.1587  156.8718 H   0  0  0  0  0  0  0  0  0  0  0  0  # atno 8009 bound_to 7997
  154.5099  140.0793  156.7950 H   0  0  0  0  0  0  0  0  0  0  0  0  # atno 8010 bound_to 7997
  140.6290  143.2451  151.5289 H   0  0  0  0  0  0  0  0  0  0  0  0  # atno 10167 bound_to 10162
  157.2991  131.0867  151.1404 H   0  0  0  0  0  0  0  0  0  0  0  0  # atno 10718 bound_to 10713
  153.2319  135.4320  155.0604 H   0  0  0  0  0  0  0  0  0  0  0  0  # atno 10763 bound_to 10752
  154.8300  135.3381  154.6775 H   0  0  0  0  0  0  0  0  0  0  0  0  # atno 10764 bound_to 10752
  153.7202  135.7017  153.5071 H   0  0  0  0  0  0  0  0  0  0  0  0  # atno 10765 bound_to 10752
  140.0987  134.8996  157.1763 H   0  0  0  0  0  0  0  0  0  0  0  0  # atno 11005 bound_to 11000
  145.9535  140.8890  143.0247 LP  0  0  0  0  0  0  0  0  0  0  0  0  # atno 17320 bound_to 7965
  144.6737  140.1713  143.7414 LP  0  0  0  0  0  0  0  0  0  0  0  0  # atno 17321 bound_to 7965
  139.5507  144.2404  152.1524 LP  0  0  0  0  0  0  0  0  0  0  0  0  # atno 17342 bound_to 10162
  140.1643  144.4996  150.6615 LP  0  0  0  0  0  0  0  0  0  0  0  0  # atno 17343 bound_to 10162
  157.2770  130.6732  149.6047 LP  0  0  0  0  0  0  0  0  0  0  0  0  # atno 17370 bound_to 10713
  155.9670  130.4461  150.5529 LP  0  0  0  0  0  0  0  0  0  0  0  0  # atno 17371 bound_to 10713
  140.3250  134.2874  155.7239 LP  0  0  0  0  0  0  0  0  0  0  0  0  # atno 17394 bound_to 11000
  141.2099  133.7734  156.9963 LP  0  0  0  0  0  0  0  0  0  0  0  0  # atno 17395 bound_to 11000

$$$$
