AV-unprocessed.smi:3234|AV-procd|sdf|12356|dock10
  -GOLD-   2272018213D 1   1.00000     0.00000
 Structure written by MMmdl.
 37 39  0  0  0  0  0  0  0  0  4 V2000
  151.2298  137.2371  156.4575 O   0  0  0  0  0  0  0  0  0  0  0  0
  150.7392  136.8560  155.3885 C   0  0  0  0  0  0  0  0  0  0  0  0
  150.1055  137.7273  154.5835 N   0  0  0  0  0  0  0  0  0  0  0  0
  149.8432  139.1073  154.7956 C   0  0  0  0  0  0  0  0  0  0  0  0
  148.6691  139.6491  154.2280 C   0  0  0  0  0  0  0  0  0  0  0  0
  148.3619  141.0093  154.4348 C   0  0  0  0  0  0  0  0  0  0  0  0
  149.1820  141.7777  155.1832 N   0  3  0  0  0  0  0  0  0  0  0  0
  150.3050  141.2996  155.7614 C   0  0  0  0  0  0  0  0  0  0  0  0
  150.6643  139.9475  155.5890 C   0  0  0  0  0  0  0  0  0  0  0  0
  150.7729  135.6020  154.8613 N   0  5  0  0  0  0  0  0  0  0  0  0
  149.8006  134.5451  155.1543 C   0  0  2  0  0  0  0  0  0  0  0  0
  150.0820  133.2884  154.3083 C   0  0  0  0  0  0  0  0  0  0  0  0
  148.7195  132.8715  153.7576 C   0  0  0  0  0  0  0  0  0  0  0  0
  147.9833  134.1383  153.6119 N   0  3  1  0  0  0  0  0  0  0  0  0
  146.5233  133.9797  153.4442 C   0  0  0  0  0  0  0  0  0  0  0  0
  146.1044  133.7274  152.0158 C   0  0  0  0  0  0  0  0  0  0  0  0
  145.8853  135.0879  152.6414 C   0  0  0  0  0  0  0  0  0  0  0  0
  148.3794  134.9854  154.7544 C   0  0  0  0  0  0  0  0  0  0  0  0
  149.8349  137.3647  153.6811 H   0  0  0  0  0  0  0  0  0  0  0  0
  148.0120  139.0312  153.6327 H   0  0  0  0  0  0  0  0  0  0  0  0
  147.4897  141.5005  154.0290 H   0  0  0  0  0  0  0  0  0  0  0  0
  150.8754  142.0057  156.3468 H   0  0  0  0  0  0  0  0  0  0  0  0
  151.5523  139.5735  156.0762 H   0  0  0  0  0  0  0  0  0  0  0  0
  149.7879  134.2737  156.2110 H   0  0  0  0  0  0  0  0  0  0  0  0
  150.7454  133.5159  153.4717 H   0  0  0  0  0  0  0  0  0  0  0  0
  150.5533  132.4947  154.8888 H   0  0  0  0  0  0  0  0  0  0  0  0
  148.8001  132.3440  152.8066 H   0  0  0  0  0  0  0  0  0  0  0  0
  148.2017  132.2157  154.4618 H   0  0  0  0  0  0  0  0  0  0  0  0
  145.9861  133.5161  154.2701 H   0  0  0  0  0  0  0  0  0  0  0  0
  146.8817  133.6423  151.2583 H   0  0  0  0  0  0  0  0  0  0  0  0
  145.2257  133.1068  151.8524 H   0  0  0  0  0  0  0  0  0  0  0  0
  144.8623  135.3630  152.8896 H   0  0  0  0  0  0  0  0  0  0  0  0
  146.5175  135.9061  152.3009 H   0  0  0  0  0  0  0  0  0  0  0  0
  147.7008  134.8073  155.5904 H   0  0  0  0  0  0  0  0  0  0  0  0
  148.3027  136.0426  154.4950 H   0  0  0  0  0  0  0  0  0  0  0  0
  148.3492  134.5893  152.7857 H   0  0  0  0  0  0  0  0  0  0  0  0
  148.9403  142.7591  155.3227 H   0  0  0  0  0  0  0  0  0  0  0  0
  1  2  2  0  0  0  0
  2  3  1  0  0  0  0
  2 10  1  0  0  0  0
  3  4  1  0  0  0  0
  3 19  1  0  0  0  0
  4  9  1  0  0  0  0
  4  5  2  0  0  0  0
  5  6  1  0  0  0  0
  5 20  1  0  0  0  0
  6  7  2  0  0  0  0
  6 21  1  0  0  0  0
  7  8  1  0  0  0  0
  7 37  1  0  0  0  0
  8  9  2  0  0  0  0
  8 22  1  0  0  0  0
  9 23  1  0  0  0  0
 10 11  1  0  0  0  0
 11 18  1  0  0  0  0
 11 12  1  0  0  0  0
 11 24  1  0  0  0  0
 12 13  1  0  0  0  0
 12 25  1  0  0  0  0
 12 26  1  0  0  0  0
 13 14  1  0  0  0  0
 13 27  1  0  0  0  0
 13 28  1  0  0  0  0
 14 15  1  0  0  0  0
 14 18  1  0  0  0  0
 14 36  1  0  0  0  0
 15 17  1  0  0  0  0
 15 16  1  0  0  0  0
 15 29  1  0  0  0  0
 16 17  1  0  0  0  0
 16 30  1  0  0  0  0
 16 31  1  0  0  0  0
 17 32  1  0  0  0  0
 17 33  1  0  0  0  0
 18 34  1  0  0  0  0
 18 35  1  0  0  0  0
M  CHG  1   7   1
M  CHG  1  10  -1
M  CHG  1  14   1
M  END
> <s_m_source_file>
AV-unprocessed.smi

> <i_m_source_file_index>
3234

> <i_lp_mmshare_version>
43012

> <i_f3d_flags>
0

> <s_epik_input>
W2NIXTFbY0hdbltjSF1bY0hdYzFbTkhdQyg9TylbTkhdW0NAQEhdMltDSDJdW0NIMl1OKFtDSDJdMilbQ0hdM1tDSDJdW0NIMl0z

> <s_epik_cmdline>
J2VwaWtfcHl0aG9uJywgJy1waCcsICc3LjAnLCAnLXRuJywgJzgnLCAnLW1hJywgJzIwMCcsICctbWV0YWxfYmluZGluZycsICctaW1hZScsICc8aW5maWxlLm1hZT4nLCAnLW9tYWUnLCAnPG91dGZpbGUubWFlPic=

> <r_epik_Ionization_Penalty>
8.3234

> <r_epik_Ionization_Penalty_Charging>
8.3234

> <r_epik_Ionization_Penalty_Neutral>
3.58513e-06

> <r_epik_State_Penalty>
7.99376

> <r_epik_Charging_Adjusted_Penalty>
16.3172

> <i_epik_Tot_Q>
1

> <i_epik_Tot_abs_Q>
3

> <r_epik_Metal_State_Penalty>
3.98956

> <b_epik_Metal_Only>
1

> <s_lp_Force_Field>
OPLS_2005

> <r_lp_Energy>
40.8871

> <b_lp_Chiralities_Consistent>
1

> <s_lp_Variant>
AV-unprocessed.smi:3234-9

> <Gold.Version>
5.8.1

> <Gold.Id.Protein>
6NUR|6NUR_protein|mol2

> <Gold.PLP.Fitness>
43.4307

> <Gold.PLP.PLP>
-28.2136

> <Gold.PLP.part.hbond>
-3.1141

> <Gold.PLP.part.metal>
0.0000

> <Gold.PLP.part.buried>
-2.2348

> <Gold.PLP.part.nonpolar>
-22.0689

> <Gold.PLP.part.repulsive>
0.4159

> <Gold.PLP.ligand.clash>
0.0000

> <Gold.PLP.ligand.torsion>
1.5701

> <Gold.PLP.Chemscore.Hbond>
5.6968

> <Gold.PLP.Chemscore.CHOScore>
0.0000

> <Gold.PLP.Chemscore.Metal>
0.0000

> <Gold.Chemscore.Hbonds>
donor molecule, donor type, donor heavy atom, donor atom, acceptor molecule, acceptor atom, score
      L1  H     3    19       P1  7948  0.37
      L1  H     7    37       P1  8028  2.00
      L1  H    14    36       P1  7948  2.00
      P1  H 10752 10763       L1    10  1.00

> <Gold.PLP.Chemscore.Internal.Correction>
1.2671

> <Gold.Rescore>
     Score         DG    S(hbond)    S(metal)    S(lipo)     H(rot)  DE(clash)    DE(int)     intcor
     14.33     -17.17       2.19        0.00      63.90       1.21       0.02       2.83       ----

> <Gold.Chemscore.Fitness>
14.3314

> <Gold.Chemscore.DG>
-17.1748

> <Gold.Chemscore.ZeroCoef>
-5.4800

> <Gold.Chemscore.Hbond>
2.1910

> <Gold.Chemscore.Metal>
0.0000

> <Gold.Chemscore.Lipo>
63.9018

> <Gold.Chemscore.Internal_Hbond>
0.0000

> <Gold.Chemscore.DEClash>
0.0156

> <Gold.Chemscore.DEInternal>
2.8278

> <Gold.Chemscore.Rot>
1.2108

> <Gold.Chemscore.Internal.Correction>
   9.000000E+99

> <Gold.Chemscore.Hbonds>
donor molecule, donor type, donor heavy atom, donor atom, acceptor molecule, acceptor atom, score
      L1  H     3    19       P1  7948  0.24
      L1  H     7    37       P1  8028  0.97
      L1  H    14    36       P1  7948  0.33
      P1  H 10752 10763       L1    10  0.06

> <Gold.Chemscore.Hbond.Weighted>
-7.3179

> <Gold.Chemscore.Metal.Weighted>
-0.0000

> <Gold.Chemscore.Lipo.Weighted>
-7.4765

> <Gold.Chemscore.Internal_Hbond.Weighted>
0.0000

> <Gold.Chemscore.DEClash.Weighted>
0.0156

> <Gold.Chemscore.DEInternal.Weighted>
2.8278

> <Gold.Chemscore.Rot.Weighted>
3.0996

> <Gold.Chemscore.Internal.Correction.Weighted>
   9.000000E+99

> <Gold.Protein.RotatedTorsions>
[ 6907 6896 6895 6894 ] final  -93.46 input  -60.11 | X-H torsion
[ 7974 7965 7964 7962 ] final  -99.35 input  175.53 | X-H torsion
[ 8008 7997 7996 7995 ] final  -54.64 input   59.86 | X-H torsion
[ 10167 10162 10161 10158 ] final  163.75 input  -65.29 | X-H torsion
[ 10718 10713 10712 10709 ] final   65.76 input   66.30 | X-H torsion
[ 10763 10752 10751 10750 ] final   58.29 input  -60.55 | X-H torsion
[ 11005 11000 10999 10996 ] final -133.63 input  -57.11 | X-H torsion

> <Gold.Protein.ActiveResidues>
 VAL166  LYS551  ARG553  GLY616  TRP617  ASP618  TYR619  PRO620  LYS621  CYS622 
 ASP623  PHE694  ASN695  SER759  ASP760  ASP761  ALA762  ILE779  LEU786  VAL792 
 PHE793  MET794  SER795  GLU796  ALA797  LYS798  CYS799  TRP800  GLU811  SER814 

> <Gold.Protein.RotatedAtoms>
  150.6923  134.1964  159.4304 H   0  0  0  0  0  0  0  0  0  0  0  0  # atno 6907 bound_to 6896
  151.9933  134.9965  160.0571 H   0  0  0  0  0  0  0  0  0  0  0  0  # atno 6908 bound_to 6896
  152.1647  133.4570  159.4916 H   0  0  0  0  0  0  0  0  0  0  0  0  # atno 6909 bound_to 6896
  145.3087  140.9395  143.2782 H   0  0  0  0  0  0  0  0  0  0  0  0  # atno 7974 bound_to 7965
  154.4169  140.1171  156.5348 H   0  0  0  0  0  0  0  0  0  0  0  0  # atno 8008 bound_to 7997
  155.6568  140.3496  155.4749 H   0  0  0  0  0  0  0  0  0  0  0  0  # atno 8009 bound_to 7997
  155.9746  140.1148  157.0771 H   0  0  0  0  0  0  0  0  0  0  0  0  # atno 8010 bound_to 7997
  139.4878  144.4305  151.9076 H   0  0  0  0  0  0  0  0  0  0  0  0  # atno 10167 bound_to 10162
  157.6126  130.9231  150.0019 H   0  0  0  0  0  0  0  0  0  0  0  0  # atno 10718 bound_to 10713
  152.9868  135.5612  154.5529 H   0  0  0  0  0  0  0  0  0  0  0  0  # atno 10763 bound_to 10752
  154.4962  135.2795  155.1459 H   0  0  0  0  0  0  0  0  0  0  0  0  # atno 10764 bound_to 10752
  154.2908  135.6326  153.5437 H   0  0  0  0  0  0  0  0  0  0  0  0  # atno 10765 bound_to 10752
  140.9063  134.1626  157.4423 H   0  0  0  0  0  0  0  0  0  0  0  0  # atno 11005 bound_to 11000
  144.9033  139.4621  143.6622 LP  0  0  0  0  0  0  0  0  0  0  0  0  # atno 17320 bound_to 7965
  146.3126  139.7800  142.9008 LP  0  0  0  0  0  0  0  0  0  0  0  0  # atno 17321 bound_to 7965
  140.3752  144.2805  150.5915 LP  0  0  0  0  0  0  0  0  0  0  0  0  # atno 17342 bound_to 10162
  140.5283  143.2249  151.8280 LP  0  0  0  0  0  0  0  0  0  0  0  0  # atno 17343 bound_to 10162
  156.1235  130.3645  149.9848 LP  0  0  0  0  0  0  0  0  0  0  0  0  # atno 17370 bound_to 10713
  156.7923  130.9260  151.3646 LP  0  0  0  0  0  0  0  0  0  0  0  0  # atno 17371 bound_to 10713
  139.8750  134.9918  156.5566 LP  0  0  0  0  0  0  0  0  0  0  0  0  # atno 17394 bound_to 11000
  140.8167  133.8386  155.8858 LP  0  0  0  0  0  0  0  0  0  0  0  0  # atno 17395 bound_to 11000

$$$$
