AV-unprocessed.smi:2351|AV-procd|sdf|9374|dock9
  -GOLD-   2272013 03D 1   1.00000     0.00000
 Structure written by MMmdl.
 47 49  0  0  0  0  0  0  0  0  2 V2000
  150.9778  140.5831  156.1828 O   0  0  0  0  0  0  0  0  0  0  0  0
  150.3914  141.6646  156.1326 C   0  0  0  0  0  0  0  0  0  0  0  0
  150.5799  142.6828  156.9878 N   0  0  0  0  0  0  0  0  0  0  0  0
  151.4558  142.7059  158.1036 C   0  0  0  0  0  0  0  0  0  0  0  0
  151.9221  141.4760  158.6120 C   0  0  0  0  0  0  0  0  0  0  0  0
  152.8101  141.4892  159.7062 C   0  0  0  0  0  0  0  0  0  0  0  0
  153.2535  142.6234  160.2885 N   0  0  0  0  0  0  0  0  0  0  0  0
  152.8257  143.8002  159.7831 C   0  0  0  0  0  0  0  0  0  0  0  0
  151.9396  143.9009  158.6913 C   0  0  0  0  0  0  0  0  0  0  0  0
  151.5977  145.1216  158.2130 F   0  0  0  0  0  0  0  0  0  0  0  0
  149.4894  141.9750  155.1901 N   0  0  0  0  0  0  0  0  0  0  0  0
  149.0639  141.0856  154.1133 C   0  0  2  0  0  0  0  0  0  0  0  0
  147.8166  141.6590  153.4228 C   0  0  0  0  0  0  0  0  0  0  0  0
  147.2913  140.7018  152.3397 C   0  0  0  0  0  0  0  0  0  0  0  0
  147.0000  139.3583  152.9036 N   0  3  1  0  0  0  0  0  0  0  0  0
  146.3607  138.4572  151.9106 C   0  0  0  0  0  0  0  0  0  0  0  0
  145.6919  137.2324  152.5656 C   0  0  2  0  0  0  0  0  0  0  0  0
  145.3651  136.1221  151.5874 C   0  0  0  0  0  0  0  0  0  0  0  0
  144.3292  135.3126  152.3619 C   0  0  0  0  0  0  0  0  0  0  0  0
  143.6396  136.2511  153.1826 O   0  0  0  0  0  0  0  0  0  0  0  0
  144.3080  137.5082  153.1563 C   0  0  0  0  0  0  0  0  0  0  0  0
  148.2040  138.7654  153.5445 C   0  0  0  0  0  0  0  0  0  0  0  0
  148.7492  139.6788  154.6544 C   0  0  0  0  0  0  0  0  0  0  0  0
  150.1341  143.5587  156.7579 H   0  0  0  0  0  0  0  0  0  0  0  0
  151.6003  140.5385  158.1824 H   0  0  0  0  0  0  0  0  0  0  0  0
  153.1759  140.5626  160.1235 H   0  0  0  0  0  0  0  0  0  0  0  0
  153.2132  144.6910  160.2549 H   0  0  0  0  0  0  0  0  0  0  0  0
  149.0641  142.8902  155.2222 H   0  0  0  0  0  0  0  0  0  0  0  0
  149.8632  141.0135  153.3730 H   0  0  0  0  0  0  0  0  0  0  0  0
  147.0317  141.8368  154.1597 H   0  0  0  0  0  0  0  0  0  0  0  0
  148.0474  142.6274  152.9773 H   0  0  0  0  0  0  0  0  0  0  0  0
  146.3850  141.1234  151.9034 H   0  0  0  0  0  0  0  0  0  0  0  0
  148.0192  140.6095  151.5319 H   0  0  0  0  0  0  0  0  0  0  0  0
  145.5995  139.0070  151.3547 H   0  0  0  0  0  0  0  0  0  0  0  0
  147.1024  138.1411  151.1755 H   0  0  0  0  0  0  0  0  0  0  0  0
  146.3316  136.8124  153.3421 H   0  0  0  0  0  0  0  0  0  0  0  0
  144.9157  136.5299  150.6805 H   0  0  0  0  0  0  0  0  0  0  0  0
  146.2359  135.5316  151.3006 H   0  0  0  0  0  0  0  0  0  0  0  0
  143.6438  134.7760  151.7054 H   0  0  0  0  0  0  0  0  0  0  0  0
  144.8205  134.5835  153.0075 H   0  0  0  0  0  0  0  0  0  0  0  0
  144.3598  137.9501  154.1518 H   0  0  0  0  0  0  0  0  0  0  0  0
  143.7397  138.1848  152.5164 H   0  0  0  0  0  0  0  0  0  0  0  0
  147.9672  137.7938  153.9759 H   0  0  0  0  0  0  0  0  0  0  0  0
  148.9734  138.5951  152.7900 H   0  0  0  0  0  0  0  0  0  0  0  0
  149.6447  139.2307  155.0869 H   0  0  0  0  0  0  0  0  0  0  0  0
  148.0175  139.7455  155.4610 H   0  0  0  0  0  0  0  0  0  0  0  0
  146.3187  139.5047  153.6349 H   0  0  0  0  0  0  0  0  0  0  0  0
  1  2  2  0  0  0  0
  2  3  1  0  0  0  0
  2 11  1  0  0  0  0
  3  4  1  0  0  0  0
  3 24  1  0  0  0  0
  4  9  1  0  0  0  0
  4  5  2  0  0  0  0
  5  6  1  0  0  0  0
  5 25  1  0  0  0  0
  6  7  2  0  0  0  0
  6 26  1  0  0  0  0
  7  8  1  0  0  0  0
  8  9  2  0  0  0  0
  8 27  1  0  0  0  0
  9 10  1  0  0  0  0
 11 12  1  0  0  0  0
 11 28  1  0  0  0  0
 12 23  1  0  0  0  0
 12 13  1  0  0  0  0
 12 29  1  0  0  0  0
 13 14  1  0  0  0  0
 13 30  1  0  0  0  0
 13 31  1  0  0  0  0
 14 15  1  0  0  0  0
 14 32  1  0  0  0  0
 14 33  1  0  0  0  0
 15 16  1  0  0  0  0
 15 22  1  0  0  0  0
 15 47  1  0  0  0  0
 16 17  1  0  0  0  0
 16 34  1  0  0  0  0
 16 35  1  0  0  0  0
 17 21  1  0  0  0  0
 17 18  1  0  0  0  0
 17 36  1  0  0  0  0
 18 19  1  0  0  0  0
 18 37  1  0  0  0  0
 18 38  1  0  0  0  0
 19 20  1  0  0  0  0
 19 39  1  0  0  0  0
 19 40  1  0  0  0  0
 20 21  1  0  0  0  0
 21 41  1  0  0  0  0
 21 42  1  0  0  0  0
 22 23  1  0  0  0  0
 22 43  1  0  0  0  0
 22 44  1  0  0  0  0
 23 45  1  0  0  0  0
 23 46  1  0  0  0  0
M  CHG  1  15   1
M  END
> <s_m_source_file>
AV-unprocessed.smi

> <i_m_source_file_index>
2351

> <i_lp_mmshare_version>
43012

> <i_f3d_flags>
0

> <s_epik_input>
RmMxW2NIXW5bY0hdW2NIXWMxW05IXUMoPU8pW05IXVtDSF0yW0NIMl1bQ0gyXU4oW0NIMl1bQ0gyXTIpW0NIMl1bQ0BASF0zW0NIMl1bQ0gyXU9bQ0gyXTM=

> <s_epik_cmdline>
J2VwaWtfcHl0aG9uJywgJy1waCcsICc3LjAnLCAnLXRuJywgJzgnLCAnLW1hJywgJzIwMCcsICctbWV0YWxfYmluZGluZycsICctaW1hZScsICc8aW5maWxlLm1hZT4nLCAnLW9tYWUnLCAnPG91dGZpbGUubWFlPic=

> <r_epik_Ionization_Penalty>
0.0102464

> <r_epik_Ionization_Penalty_Charging>
0.00747775

> <r_epik_Ionization_Penalty_Neutral>
0.00276864

> <r_epik_State_Penalty>
0.00558817

> <r_epik_Charging_Adjusted_Penalty>
0.0130659

> <i_epik_Tot_Q>
1

> <i_epik_Tot_abs_Q>
1

> <r_epik_Metal_State_Penalty>
-0

> <b_epik_Metal_Only>
0

> <s_lp_Force_Field>
OPLS_2005

> <r_lp_Energy>
40.2239

> <b_lp_Chiralities_Consistent>
1

> <s_lp_Variant>
AV-unprocessed.smi:2351-1

> <Gold.Version>
5.8.1

> <Gold.Id.Protein>
6NUR|6NUR_protein|mol2

> <Gold.PLP.Fitness>
47.6222

> <Gold.PLP.PLP>
-42.4791

> <Gold.PLP.part.hbond>
-2.1977

> <Gold.PLP.part.metal>
0.0000

> <Gold.PLP.part.buried>
-2.7981

> <Gold.PLP.part.nonpolar>
-37.7579

> <Gold.PLP.part.repulsive>
0.3169

> <Gold.PLP.ligand.clash>
0.0000

> <Gold.PLP.ligand.torsion>
0.4735

> <Gold.PLP.Chemscore.Hbond>
1.9753

> <Gold.PLP.Chemscore.CHOScore>
0.0000

> <Gold.PLP.Chemscore.Metal>
0.0000

> <Gold.Chemscore.Hbonds>
donor molecule, donor type, donor heavy atom, donor atom, acceptor molecule, acceptor atom, score
      L1  H     3    24       P1  8028  1.00
      L1  H    11    28       P1  8028  1.00

> <Gold.PLP.Chemscore.Internal.Correction>
0.1642

> <Gold.Rescore>
     Score         DG    S(hbond)    S(metal)    S(lipo)     H(rot)  DE(clash)    DE(int)     intcor
     17.53     -21.16       1.83        0.00     113.32       1.45       0.44       3.18       ----

> <Gold.Chemscore.Fitness>
17.5305

> <Gold.Chemscore.DG>
-21.1557

> <Gold.Chemscore.ZeroCoef>
-5.4800

> <Gold.Chemscore.Hbond>
1.8337

> <Gold.Chemscore.Metal>
0.0000

> <Gold.Chemscore.Lipo>
113.3246

> <Gold.Chemscore.Internal_Hbond>
0.0000

> <Gold.Chemscore.DEClash>
0.4408

> <Gold.Chemscore.DEInternal>
3.1844

> <Gold.Chemscore.Rot>
1.4483

> <Gold.Chemscore.Internal.Correction>
   9.000000E+99

> <Gold.Chemscore.Hbonds>
donor molecule, donor type, donor heavy atom, donor atom, acceptor molecule, acceptor atom, score
      L1  H     3    24       P1  8028  0.92
      L1  H    11    28       P1  8028  0.99

> <Gold.Chemscore.Hbond.Weighted>
-6.1245

> <Gold.Chemscore.Metal.Weighted>
-0.0000

> <Gold.Chemscore.Lipo.Weighted>
-13.2590

> <Gold.Chemscore.Internal_Hbond.Weighted>
0.0000

> <Gold.Chemscore.DEClash.Weighted>
0.4408

> <Gold.Chemscore.DEInternal.Weighted>
3.1844

> <Gold.Chemscore.Rot.Weighted>
3.7077

> <Gold.Chemscore.Internal.Correction.Weighted>
   9.000000E+99

> <Gold.Protein.RotatedTorsions>
[ 6907 6896 6895 6894 ] final -124.72 input  -60.11 | X-H torsion
[ 7974 7965 7964 7962 ] final  -21.77 input  175.53 | X-H torsion
[ 8008 7997 7996 7995 ] final  145.73 input   59.86 | X-H torsion
[ 10167 10162 10161 10158 ] final -153.55 input  -65.29 | X-H torsion
[ 10718 10713 10712 10709 ] final   16.96 input   66.30 | X-H torsion
[ 10763 10752 10751 10750 ] final  -74.31 input  -60.55 | X-H torsion
[ 11005 11000 10999 10996 ] final -162.56 input  -57.11 | X-H torsion

> <Gold.Protein.ActiveResidues>
 VAL166  LYS551  ARG553  GLY616  TRP617  ASP618  TYR619  PRO620  LYS621  CYS622 
 ASP623  PHE694  ASN695  SER759  ASP760  ASP761  ALA762  ILE779  LEU786  VAL792 
 PHE793  MET794  SER795  GLU796  ALA797  LYS798  CYS799  TRP800  GLU811  SER814 

> <Gold.Protein.RotatedAtoms>
  150.8796  133.7390  159.2935 H   0  0  0  0  0  0  0  0  0  0  0  0  # atno 6907 bound_to 6896
  151.4976  135.1059  159.9830 H   0  0  0  0  0  0  0  0  0  0  0  0  # atno 6908 bound_to 6896
  152.4751  133.8073  159.7040 H   0  0  0  0  0  0  0  0  0  0  0  0  # atno 6909 bound_to 6896
  146.1714  140.4387  142.8531 H   0  0  0  0  0  0  0  0  0  0  0  0  # atno 7974 bound_to 7965
  156.2875  140.2201  156.5262 H   0  0  0  0  0  0  0  0  0  0  0  0  # atno 8008 bound_to 7997
  154.7487  140.0482  157.0896 H   0  0  0  0  0  0  0  0  0  0  0  0  # atno 8009 bound_to 7997
  155.0137  140.3116  155.4823 H   0  0  0  0  0  0  0  0  0  0  0  0  # atno 8010 bound_to 7997
  139.7087  143.9144  152.2459 H   0  0  0  0  0  0  0  0  0  0  0  0  # atno 10167 bound_to 10162
  157.0753  130.6365  149.5814 H   0  0  0  0  0  0  0  0  0  0  0  0  # atno 10718 bound_to 10713
  154.4714  135.5868  153.6324 H   0  0  0  0  0  0  0  0  0  0  0  0  # atno 10763 bound_to 10752
  152.9835  135.6067  154.3362 H   0  0  0  0  0  0  0  0  0  0  0  0  # atno 10764 bound_to 10752
  154.3244  135.2843  155.2482 H   0  0  0  0  0  0  0  0  0  0  0  0  # atno 10765 bound_to 10752
  140.6079  134.4879  157.5212 H   0  0  0  0  0  0  0  0  0  0  0  0  # atno 11005 bound_to 11000
  144.8169  140.6483  143.6379 LP  0  0  0  0  0  0  0  0  0  0  0  0  # atno 17320 bound_to 7965
  145.4330  139.1546  143.4012 LP  0  0  0  0  0  0  0  0  0  0  0  0  # atno 17321 bound_to 7965
  139.9007  144.6913  150.8668 LP  0  0  0  0  0  0  0  0  0  0  0  0  # atno 17342 bound_to 10162
  140.7728  143.3516  151.2003 LP  0  0  0  0  0  0  0  0  0  0  0  0  # atno 17343 bound_to 10162
  155.9939  130.5001  150.7398 LP  0  0  0  0  0  0  0  0  0  0  0  0  # atno 17370 bound_to 10713
  157.4845  131.0905  151.0498 LP  0  0  0  0  0  0  0  0  0  0  0  0  # atno 17371 bound_to 10713
  139.9204  134.8160  156.1229 LP  0  0  0  0  0  0  0  0  0  0  0  0  # atno 17394 bound_to 11000
  141.0828  133.6747  156.2372 LP  0  0  0  0  0  0  0  0  0  0  0  0  # atno 17395 bound_to 11000

$$$$
