AV-unprocessed.smi:3186|AV-procd|sdf|12174|dock8
  -GOLD-   2272018 13D 1   1.00000     0.00000
 Structure written by MMmdl.
 37 38  0  0  0  0  0  0  0  0  2 V2000
  151.5914  145.8938  160.5766 C   0  0  0  0  0  0  0  0  0  0  0  0
  152.0933  144.4614  160.5310 C   0  0  0  0  0  0  0  0  0  0  0  0
  152.4334  143.8016  161.7325 C   0  0  0  0  0  0  0  0  0  0  0  0
  152.8884  142.5323  161.7849 N   0  0  0  0  0  0  0  0  0  0  0  0
  153.0260  141.8630  160.6222 C   0  0  0  0  0  0  0  0  0  0  0  0
  152.7169  142.4231  159.3674 C   0  0  0  0  0  0  0  0  0  0  0  0
  152.2411  143.7502  159.3141 C   0  0  0  0  0  0  0  0  0  0  0  0
  151.8975  144.3648  157.9665 C   0  0  0  0  0  0  0  0  0  0  0  0
  151.8738  143.3193  156.8427 C   0  0  0  0  0  0  0  0  0  0  0  0
  150.5737  142.6177  156.7997 N   0  3  0  0  0  0  0  0  0  0  0  0
  150.4555  141.5707  155.7601 C   0  0  1  0  0  0  0  0  0  0  0  0
  151.3035  140.3311  156.1242 C   0  0  0  0  0  0  0  0  0  0  0  0
  151.2541  139.2354  155.0467 C   0  0  0  0  0  0  0  0  0  0  0  0
  149.8334  138.7060  154.8091 C   0  0  0  0  0  0  0  0  0  0  0  0
  148.7377  140.0235  154.2188 S   0  0  0  0  0  0  0  0  0  0  0  0
  148.9726  141.1978  155.5804 C   0  0  0  0  0  0  0  0  0  0  0  0
  151.4408  146.2259  161.6044 H   0  0  0  0  0  0  0  0  0  0  0  0
  150.6397  145.9904  160.0546 H   0  0  0  0  0  0  0  0  0  0  0  0
  152.3138  146.5640  160.1105 H   0  0  0  0  0  0  0  0  0  0  0  0
  152.3381  144.3058  162.6831 H   0  0  0  0  0  0  0  0  0  0  0  0
  153.3919  140.8493  160.6928 H   0  0  0  0  0  0  0  0  0  0  0  0
  152.8442  141.8408  158.4666 H   0  0  0  0  0  0  0  0  0  0  0  0
  150.9388  144.8802  158.0270 H   0  0  0  0  0  0  0  0  0  0  0  0
  152.6340  145.1360  157.7359 H   0  0  0  0  0  0  0  0  0  0  0  0
  152.0510  143.8033  155.8812 H   0  0  0  0  0  0  0  0  0  0  0  0
  152.6792  142.6011  156.9914 H   0  0  0  0  0  0  0  0  0  0  0  0
  150.3861  142.2026  157.7011 H   0  0  0  0  0  0  0  0  0  0  0  0
  150.8131  141.9889  154.8176 H   0  0  0  0  0  0  0  0  0  0  0  0
  152.3452  140.6157  156.2691 H   0  0  0  0  0  0  0  0  0  0  0  0
  150.9672  139.9196  157.0769 H   0  0  0  0  0  0  0  0  0  0  0  0
  151.6662  139.6169  154.1117 H   0  0  0  0  0  0  0  0  0  0  0  0
  151.8979  138.4080  155.3472 H   0  0  0  0  0  0  0  0  0  0  0  0
  149.8471  137.9049  154.0697 H   0  0  0  0  0  0  0  0  0  0  0  0
  149.4240  138.2862  155.7286 H   0  0  0  0  0  0  0  0  0  0  0  0
  148.5702  140.7616  156.4957 H   0  0  0  0  0  0  0  0  0  0  0  0
  148.3801  142.0875  155.3641 H   0  0  0  0  0  0  0  0  0  0  0  0
  149.8658  143.3144  156.6152 H   0  0  0  0  0  0  0  0  0  0  0  0
  1  2  1  0  0  0  0
  1 17  1  0  0  0  0
  1 18  1  0  0  0  0
  1 19  1  0  0  0  0
  2  7  1  0  0  0  0
  2  3  2  0  0  0  0
  3  4  1  0  0  0  0
  3 20  1  0  0  0  0
  4  5  2  0  0  0  0
  5  6  1  0  0  0  0
  5 21  1  0  0  0  0
  6  7  2  0  0  0  0
  6 22  1  0  0  0  0
  7  8  1  0  0  0  0
  8  9  1  0  0  0  0
  8 23  1  0  0  0  0
  8 24  1  0  0  0  0
  9 10  1  0  0  0  0
  9 25  1  0  0  0  0
  9 26  1  0  0  0  0
 10 11  1  0  0  0  0
 10 27  1  0  0  0  0
 10 37  1  0  0  0  0
 11 16  1  0  0  0  0
 11 12  1  0  0  0  0
 11 28  1  0  0  0  0
 12 13  1  0  0  0  0
 12 29  1  0  0  0  0
 12 30  1  0  0  0  0
 13 14  1  0  0  0  0
 13 31  1  0  0  0  0
 13 32  1  0  0  0  0
 14 15  1  0  0  0  0
 14 33  1  0  0  0  0
 14 34  1  0  0  0  0
 15 16  1  0  0  0  0
 16 35  1  0  0  0  0
 16 36  1  0  0  0  0
M  CHG  1  10   1
M  END
> <s_m_source_file>
AV-unprocessed.smi

> <i_m_source_file_index>
3186

> <i_lp_mmshare_version>
43012

> <i_f3d_flags>
0

> <s_epik_input>
W0NIM11jMVtjSF1uW2NIXVtjSF1jMVtDSDJdW0NIMl1bTkhdW0NAQEhdMltDSDJdW0NIMl1bQ0gyXVNbQ0gyXTI=

> <s_epik_cmdline>
J2VwaWtfcHl0aG9uJywgJy1waCcsICc3LjAnLCAnLXRuJywgJzgnLCAnLW1hJywgJzIwMCcsICctbWV0YWxfYmluZGluZycsICctaW1hZScsICc8aW5maWxlLm1hZT4nLCAnLW9tYWUnLCAnPG91dGZpbGUubWFlPic=

> <r_epik_Ionization_Penalty>
0.00563987

> <r_epik_Ionization_Penalty_Charging>
0.00306352

> <r_epik_Ionization_Penalty_Neutral>
0.00257635

> <r_epik_State_Penalty>
0.00506628

> <r_epik_Charging_Adjusted_Penalty>
0.0081298

> <i_epik_Tot_Q>
1

> <i_epik_Tot_abs_Q>
1

> <r_epik_Metal_State_Penalty>
-0

> <b_epik_Metal_Only>
0

> <s_lp_Force_Field>
OPLS_2005

> <r_lp_Energy>
10.8164

> <b_lp_Chiralities_Consistent>
1

> <s_lp_Variant>
AV-unprocessed.smi:3186-2

> <Gold.Version>
5.8.1

> <Gold.Id.Protein>
6NUR|6NUR_protein|mol2

> <Gold.PLP.Fitness>
48.0199

> <Gold.PLP.PLP>
-42.6663

> <Gold.PLP.part.hbond>
-1.0000

> <Gold.PLP.part.metal>
0.0000

> <Gold.PLP.part.buried>
-2.2768

> <Gold.PLP.part.nonpolar>
-38.8219

> <Gold.PLP.part.repulsive>
0.0981

> <Gold.PLP.ligand.clash>
0.0000

> <Gold.PLP.ligand.torsion>
0.3281

> <Gold.PLP.Chemscore.Hbond>
2.0000

> <Gold.PLP.Chemscore.CHOScore>
0.0000

> <Gold.PLP.Chemscore.Metal>
0.0000

> <Gold.Chemscore.Hbonds>
donor molecule, donor type, donor heavy atom, donor atom, acceptor molecule, acceptor atom, score
      L1  H    10    37       P1  8028  2.00

> <Gold.PLP.Chemscore.Internal.Correction>
0.0098

> <Gold.Rescore>
     Score         DG    S(hbond)    S(metal)    S(lipo)     H(rot)  DE(clash)    DE(int)     intcor
     19.72     -21.64       1.00        0.00     138.16       1.30       1.65       0.27       ----

> <Gold.Chemscore.Fitness>
19.7209

> <Gold.Chemscore.DG>
-21.6438

> <Gold.Chemscore.ZeroCoef>
-5.4800

> <Gold.Chemscore.Hbond>
0.9986

> <Gold.Chemscore.Metal>
0.0000

> <Gold.Chemscore.Lipo>
138.1582

> <Gold.Chemscore.Internal_Hbond>
0.0000

> <Gold.Chemscore.DEClash>
1.6548

> <Gold.Chemscore.DEInternal>
0.2681

> <Gold.Chemscore.Rot>
1.3031

> <Gold.Chemscore.Internal.Correction>
   9.000000E+99

> <Gold.Chemscore.Hbonds>
donor molecule, donor type, donor heavy atom, donor atom, acceptor molecule, acceptor atom, score
      L1  H    10    37       P1  8028  0.98

> <Gold.Chemscore.Hbond.Weighted>
-3.3353

> <Gold.Chemscore.Metal.Weighted>
-0.0000

> <Gold.Chemscore.Lipo.Weighted>
-16.1645

> <Gold.Chemscore.Internal_Hbond.Weighted>
0.0000

> <Gold.Chemscore.DEClash.Weighted>
1.6548

> <Gold.Chemscore.DEInternal.Weighted>
0.2681

> <Gold.Chemscore.Rot.Weighted>
3.3361

> <Gold.Chemscore.Internal.Correction.Weighted>
   9.000000E+99

> <Gold.Protein.RotatedTorsions>
[ 6907 6896 6895 6894 ] final -157.10 input  -60.11 | X-H torsion
[ 7974 7965 7964 7962 ] final  -75.56 input  175.53 | X-H torsion
[ 8008 7997 7996 7995 ] final -145.16 input   59.86 | X-H torsion
[ 10167 10162 10161 10158 ] final  -30.57 input  -65.29 | X-H torsion
[ 10718 10713 10712 10709 ] final  118.87 input   66.30 | X-H torsion
[ 10763 10752 10751 10750 ] final -149.87 input  -60.55 | X-H torsion
[ 11005 11000 10999 10996 ] final   37.93 input  -57.11 | X-H torsion

> <Gold.Protein.ActiveResidues>
 VAL166  LYS551  ARG553  GLY616  TRP617  ASP618  TYR619  PRO620  LYS621  CYS622 
 ASP623  PHE694  ASN695  SER759  ASP760  ASP761  ALA762  ILE779  LEU786  VAL792 
 PHE793  MET794  SER795  GLU796  ALA797  LYS798  CYS799  TRP800  GLU811  SER814 

> <Gold.Protein.RotatedAtoms>
  151.2977  133.4136  159.2637 H   0  0  0  0  0  0  0  0  0  0  0  0  # atno 6907 bound_to 6896
  151.0222  134.9478  159.8076 H   0  0  0  0  0  0  0  0  0  0  0  0  # atno 6908 bound_to 6896
  152.5327  134.2940  159.9106 H   0  0  0  0  0  0  0  0  0  0  0  0  # atno 6909 bound_to 6896
  145.6244  140.9354  143.1120 H   0  0  0  0  0  0  0  0  0  0  0  0  # atno 7974 bound_to 7965
  155.5387  140.0606  157.2874 H   0  0  0  0  0  0  0  0  0  0  0  0  # atno 8008 bound_to 7997
  154.4459  140.1923  156.0613 H   0  0  0  0  0  0  0  0  0  0  0  0  # atno 8009 bound_to 7997
  156.0600  140.3273  155.7454 H   0  0  0  0  0  0  0  0  0  0  0  0  # atno 8010 bound_to 7997
  140.7247  143.3838  151.1552 H   0  0  0  0  0  0  0  0  0  0  0  0  # atno 10167 bound_to 10162
  157.6000  131.1052  150.7817 H   0  0  0  0  0  0  0  0  0  0  0  0  # atno 10718 bound_to 10713
  154.8152  135.3298  154.7195 H   0  0  0  0  0  0  0  0  0  0  0  0  # atno 10763 bound_to 10752
  153.7837  135.6916  153.4888 H   0  0  0  0  0  0  0  0  0  0  0  0  # atno 10764 bound_to 10752
  153.1963  135.4532  155.0159 H   0  0  0  0  0  0  0  0  0  0  0  0  # atno 10765 bound_to 10752
  140.2177  134.3679  155.8019 H   0  0  0  0  0  0  0  0  0  0  0  0  # atno 11005 bound_to 11000
  144.7218  139.8005  143.7379 LP  0  0  0  0  0  0  0  0  0  0  0  0  # atno 17320 bound_to 7965
  146.1406  139.4462  143.0111 LP  0  0  0  0  0  0  0  0  0  0  0  0  # atno 17321 bound_to 7965
  139.7431  143.8893  152.3056 LP  0  0  0  0  0  0  0  0  0  0  0  0  # atno 17342 bound_to 10162
  139.8721  144.7062  150.8975 LP  0  0  0  0  0  0  0  0  0  0  0  0  # atno 17343 bound_to 10162
  156.8218  130.4986  149.5342 LP  0  0  0  0  0  0  0  0  0  0  0  0  # atno 17370 bound_to 10713
  156.1071  130.6013  150.9989 LP  0  0  0  0  0  0  0  0  0  0  0  0  # atno 17371 bound_to 10713
  141.2224  133.7177  156.8524 LP  0  0  0  0  0  0  0  0  0  0  0  0  # atno 17394 bound_to 11000
  140.1883  134.8984  157.3030 LP  0  0  0  0  0  0  0  0  0  0  0  0  # atno 17395 bound_to 11000

$$$$
