AV-unprocessed.smi:788|AV-procd|sdf|3734|dock6
  -GOLD-   22720 1173D 1   1.00000     0.00000
 Structure written by MMmdl.
 35 36  0  0  0  0  0  0  0  0  1 V2000
  145.3645  135.6274  150.9404 C   0  0  0  0  0  0  0  0  0  0  0  0
  144.7740  134.8200  152.1159 C   0  0  1  0  0  0  0  0  0  0  0  0
  143.5003  134.0554  151.7044 C   0  0  0  0  0  0  0  0  0  0  0  0
  143.8131  132.8350  150.8249 C   0  0  0  0  0  0  0  0  0  0  0  0
  144.8103  131.8946  151.5163 C   0  0  0  0  0  0  0  0  0  0  0  0
  146.1084  132.6230  151.9168 C   0  0  2  0  0  0  0  0  0  0  0  0
  147.0817  131.6460  152.6016 C   0  0  0  0  0  0  0  0  0  0  0  0
  145.7869  133.8590  152.7967 C   0  0  1  0  0  0  0  0  0  0  0  0
  147.0167  134.5610  153.1596 N   0  0  0  0  0  0  0  0  0  0  0  0
  147.5712  134.6020  154.3819 C   0  0  0  0  0  0  0  0  0  0  0  0
  147.0826  134.0274  155.3530 O   0  0  0  0  0  0  0  0  0  0  0  0
  148.7114  135.3160  154.4988 N   0  0  0  0  0  0  0  0  0  0  0  0
  149.5599  135.5770  155.6149 C   0  0  0  0  0  0  0  0  0  0  0  0
  149.4317  135.0050  156.8236 N   0  0  0  0  0  0  0  0  0  0  0  0
  150.3999  135.4440  157.7165 N   0  0  0  0  0  0  0  0  0  0  0  0
  151.2246  136.3277  157.1480 C   0  0  0  0  0  0  0  0  0  0  0  0
  150.8966  136.7099  155.4672 S   0  0  0  0  0  0  0  0  0  0  0  0
  145.7386  134.9820  150.1466 H   0  0  0  0  0  0  0  0  0  0  0  0
  146.1890  136.2630  151.2638 H   0  0  0  0  0  0  0  0  0  0  0  0
  144.6111  136.2826  150.5027 H   0  0  0  0  0  0  0  0  0  0  0  0
  144.4689  135.5547  152.8625 H   0  0  0  0  0  0  0  0  0  0  0  0
  142.9800  133.7200  152.6023 H   0  0  0  0  0  0  0  0  0  0  0  0
  142.8088  134.7216  151.1871 H   0  0  0  0  0  0  0  0  0  0  0  0
  142.8922  132.2955  150.6026 H   0  0  0  0  0  0  0  0  0  0  0  0
  144.2161  133.1587  149.8650 H   0  0  0  0  0  0  0  0  0  0  0  0
  144.3439  131.4625  152.4027 H   0  0  0  0  0  0  0  0  0  0  0  0
  145.0404  131.0602  150.8530 H   0  0  0  0  0  0  0  0  0  0  0  0
  146.5927  132.9669  151.0020 H   0  0  0  0  0  0  0  0  0  0  0  0
  146.6809  131.2887  153.5506 H   0  0  0  0  0  0  0  0  0  0  0  0
  148.0476  132.1105  152.8011 H   0  0  0  0  0  0  0  0  0  0  0  0
  147.2686  130.7755  151.9723 H   0  0  0  0  0  0  0  0  0  0  0  0
  145.3277  133.4861  153.7147 H   0  0  0  0  0  0  0  0  0  0  0  0
  147.4844  135.0622  152.4175 H   0  0  0  0  0  0  0  0  0  0  0  0
  149.0276  135.7317  153.6348 H   0  0  0  0  0  0  0  0  0  0  0  0
  152.0318  136.7581  157.7221 H   0  0  0  0  0  0  0  0  0  0  0  0
  1  2  1  0  0  0  0
  1 18  1  0  0  0  0
  1 19  1  0  0  0  0
  1 20  1  0  0  0  0
  2  8  1  0  0  0  0
  2  3  1  0  0  0  0
  2 21  1  0  0  0  0
  3  4  1  0  0  0  0
  3 22  1  0  0  0  0
  3 23  1  0  0  0  0
  4  5  1  0  0  0  0
  4 24  1  0  0  0  0
  4 25  1  0  0  0  0
  5  6  1  0  0  0  0
  5 26  1  0  0  0  0
  5 27  1  0  0  0  0
  6  7  1  0  0  0  0
  6  8  1  0  0  0  0
  6 28  1  0  0  0  0
  7 29  1  0  0  0  0
  7 30  1  0  0  0  0
  7 31  1  0  0  0  0
  8  9  1  0  0  0  0
  8 32  1  0  0  0  0
  9 10  1  0  0  0  0
  9 33  1  0  0  0  0
 10 11  2  0  0  0  0
 10 12  1  0  0  0  0
 12 13  1  0  0  0  0
 12 34  1  0  0  0  0
 13 17  1  0  0  0  0
 13 14  2  0  0  0  0
 14 15  1  0  0  0  0
 15 16  2  0  0  0  0
 16 17  1  0  0  0  0
 16 35  1  0  0  0  0
M  END
> <s_m_source_file>
AV-unprocessed.smi

> <i_m_source_file_index>
788

> <i_lp_mmshare_version>
43012

> <i_f3d_flags>
0

> <s_epik_input>
W0NIM11bQ0BASF0xW0NIMl1bQ0gyXVtDSDJdW0NAQEhdKFtDSDNdKVtDQEhdMVtOSF1DKD1PKVtOSF1jMm5uW2NIXXMy

> <s_epik_cmdline>
J2VwaWtfcHl0aG9uJywgJy1waCcsICc3LjAnLCAnLXRuJywgJzgnLCAnLW1hJywgJzIwMCcsICctbWV0YWxfYmluZGluZycsICctaW1hZScsICc8aW5maWxlLm1hZT4nLCAnLW9tYWUnLCAnPG91dGZpbGUubWFlPic=

> <r_lp_tautomer_probability>
1

> <r_epik_Ionization_Penalty>
0.000304078

> <r_epik_Ionization_Penalty_Charging>
0

> <r_epik_Ionization_Penalty_Neutral>
0.000304078

> <r_epik_State_Penalty>
-0

> <r_epik_Charging_Adjusted_Penalty>
0

> <i_epik_Tot_Q>
0

> <i_epik_Tot_abs_Q>
0

> <r_epik_Metal_State_Penalty>
0.164801

> <b_epik_Metal_Only>
0

> <s_lp_Force_Field>
OPLS_2005

> <r_lp_Energy>
15.5702

> <b_lp_Chiralities_Consistent>
1

> <s_lp_Variant>
AV-unprocessed.smi:788-4

> <Gold.Version>
5.8.1

> <Gold.Id.Protein>
6NUR|6NUR_protein|mol2

> <Gold.PLP.Fitness>
31.8749

> <Gold.PLP.PLP>
-24.1687

> <Gold.PLP.part.hbond>
-3.0000

> <Gold.PLP.part.metal>
0.0000

> <Gold.PLP.part.buried>
-3.3212

> <Gold.PLP.part.nonpolar>
-18.1663

> <Gold.PLP.part.repulsive>
0.0232

> <Gold.PLP.ligand.clash>
0.0000

> <Gold.PLP.ligand.torsion>
0.0781

> <Gold.PLP.Chemscore.Hbond>
2.6160

> <Gold.PLP.Chemscore.CHOScore>
0.0000

> <Gold.PLP.Chemscore.Metal>
0.0000

> <Gold.Chemscore.Hbonds>
donor molecule, donor type, donor heavy atom, donor atom, acceptor molecule, acceptor atom, score
      L1  H     9    33       P1  7948  0.99
      L1  H    12    34       P1  7948  1.00
      P1  H  6896  6909       L1    15  0.62

> <Gold.PLP.Chemscore.Internal.Correction>
0.0145

> <Gold.Rescore>
     Score         DG    S(hbond)    S(metal)    S(lipo)     H(rot)  DE(clash)    DE(int)     intcor
     16.82     -18.34       2.72        0.00      54.14       1.00       0.28       1.25       ----

> <Gold.Chemscore.Fitness>
16.8152

> <Gold.Chemscore.DG>
-18.3402

> <Gold.Chemscore.ZeroCoef>
-5.4800

> <Gold.Chemscore.Hbond>
2.7205

> <Gold.Chemscore.Metal>
0.0000

> <Gold.Chemscore.Lipo>
54.1352

> <Gold.Chemscore.Internal_Hbond>
0.0000

> <Gold.Chemscore.DEClash>
0.2753

> <Gold.Chemscore.DEInternal>
1.2497

> <Gold.Chemscore.Rot>
1.0000

> <Gold.Chemscore.Internal.Correction>
   9.000000E+99

> <Gold.Chemscore.Hbonds>
donor molecule, donor type, donor heavy atom, donor atom, acceptor molecule, acceptor atom, score
      L1  H     9    33       P1  7948  0.92
      L1  H    12    34       P1  7948  0.85
      P1  H  6896  6909       L1    15  0.57

> <Gold.Chemscore.Hbond.Weighted>
-9.0864

> <Gold.Chemscore.Metal.Weighted>
-0.0000

> <Gold.Chemscore.Lipo.Weighted>
-6.3338

> <Gold.Chemscore.Internal_Hbond.Weighted>
0.0000

> <Gold.Chemscore.DEClash.Weighted>
0.2753

> <Gold.Chemscore.DEInternal.Weighted>
1.2497

> <Gold.Chemscore.Rot.Weighted>
2.5600

> <Gold.Chemscore.Internal.Correction.Weighted>
   9.000000E+99

> <Gold.Protein.RotatedTorsions>
[ 6907 6896 6895 6894 ] final   45.59 input  -60.11 | X-H torsion
[ 7974 7965 7964 7962 ] final  163.76 input  175.53 | X-H torsion
[ 8008 7997 7996 7995 ] final  104.56 input   59.86 | X-H torsion
[ 10167 10162 10161 10158 ] final -106.20 input  -65.29 | X-H torsion
[ 10718 10713 10712 10709 ] final  -93.12 input   66.30 | X-H torsion
[ 10763 10752 10751 10750 ] final  123.92 input  -60.55 | X-H torsion
[ 11005 11000 10999 10996 ] final  -20.37 input  -57.11 | X-H torsion

> <Gold.Protein.ActiveResidues>
 VAL166  LYS551  ARG553  GLY616  TRP617  ASP618  TYR619  PRO620  LYS621  CYS622 
 ASP623  PHE694  ASN695  SER759  ASP760  ASP761  ALA762  ILE779  LEU786  VAL792 
 PHE793  MET794  SER795  GLU796  ALA797  LYS798  CYS799  TRP800  GLU811  SER814 

> <Gold.Protein.RotatedAtoms>
  152.2463  134.8178  160.0452 H   0  0  0  0  0  0  0  0  0  0  0  0  # atno 6907 bound_to 6896
  151.8874  133.3503  159.3795 H   0  0  0  0  0  0  0  0  0  0  0  0  # atno 6908 bound_to 6896
  150.7069  134.4884  159.5548 H   0  0  0  0  0  0  0  0  0  0  0  0  # atno 6909 bound_to 6896
  144.7575  139.8228  143.6344 H   0  0  0  0  0  0  0  0  0  0  0  0  # atno 7974 bound_to 7965
  156.1583  140.3145  155.8764 H   0  0  0  0  0  0  0  0  0  0  0  0  # atno 8008 bound_to 7997
  155.3833  140.0489  157.3060 H   0  0  0  0  0  0  0  0  0  0  0  0  # atno 8009 bound_to 7997
  154.5122  140.2168  155.9145 H   0  0  0  0  0  0  0  0  0  0  0  0  # atno 8010 bound_to 7997
  140.1903  143.3897  152.1211 H   0  0  0  0  0  0  0  0  0  0  0  0  # atno 10167 bound_to 10162
  156.0010  130.5014  150.5729 H   0  0  0  0  0  0  0  0  0  0  0  0  # atno 10718 bound_to 10713
  153.6532  135.3359  155.3106 H   0  0  0  0  0  0  0  0  0  0  0  0  # atno 10763 bound_to 10752
  154.8532  135.4346  154.1882 H   0  0  0  0  0  0  0  0  0  0  0  0  # atno 10764 bound_to 10752
  153.2830  135.7010  153.7442 H   0  0  0  0  0  0  0  0  0  0  0  0  # atno 10765 bound_to 10752
  140.8458  133.7893  155.9910 H   0  0  0  0  0  0  0  0  0  0  0  0  # atno 11005 bound_to 11000
  146.1602  139.4714  142.9993 LP  0  0  0  0  0  0  0  0  0  0  0  0  # atno 17320 bound_to 7965
  145.6729  141.0212  143.1648 LP  0  0  0  0  0  0  0  0  0  0  0  0  # atno 17321 bound_to 7965
  139.5258  144.7101  151.5233 LP  0  0  0  0  0  0  0  0  0  0  0  0  # atno 17342 bound_to 10162
  140.6460  143.8793  150.6738 LP  0  0  0  0  0  0  0  0  0  0  0  0  # atno 17343 bound_to 10162
  157.3621  131.0751  151.1628 LP  0  0  0  0  0  0  0  0  0  0  0  0  # atno 17370 bound_to 10713
  157.2409  130.6569  149.5889 LP  0  0  0  0  0  0  0  0  0  0  0  0  # atno 17371 bound_to 10713
  140.8845  134.2570  157.5127 LP  0  0  0  0  0  0  0  0  0  0  0  0  # atno 17394 bound_to 11000
  139.8703  134.9631  156.4452 LP  0  0  0  0  0  0  0  0  0  0  0  0  # atno 17395 bound_to 11000

$$$$
