AV-unprocessed.smi:72|AV-procd|sdf|669|dock3
  -GOLD-   2262016573D 1   1.00000     0.00000
 Structure written by MMmdl.
 29 30  0  0  0  0  0  0  0  0  1 V2000
  141.0438  134.6762  153.9784 N   0  0  0  0  0  0  0  0  0  0  0  0
  142.1506  135.2144  153.6083 C   0  0  0  0  0  0  0  0  0  0  0  0
  142.2818  136.4915  153.0436 N   0  0  0  0  0  0  0  0  0  0  0  0
  143.4623  136.9006  152.6939 C   0  0  0  0  0  0  0  0  0  0  0  0
  144.6510  136.0696  152.8447 N   0  0  0  0  0  0  0  0  0  0  0  0
  146.0434  136.5481  152.4619 C   0  0  2  0  0  0  0  0  0  0  0  0
  146.8599  136.6257  153.5919 O   0  0  0  0  0  0  0  0  0  0  0  0
  146.8307  137.9493  154.1112 C   0  0  1  0  0  0  0  0  0  0  0  0
  148.0462  138.1809  155.0207 C   0  0  0  0  0  0  0  0  0  0  0  0
  149.2344  137.8813  154.3198 O   0  0  0  0  0  0  0  0  0  0  0  0
  146.8463  138.7907  152.8342 C   0  0  2  0  0  0  0  0  0  0  0  0
  146.2513  140.0513  153.0690 O   0  0  0  0  0  0  0  0  0  0  0  0
  146.0053  137.9706  151.8577 C   0  0  1  0  0  0  0  0  0  0  0  0
  146.5833  138.0039  150.5691 O   0  0  0  0  0  0  0  0  0  0  0  0
  144.5387  134.8018  153.4688 C   0  0  0  0  0  0  0  0  0  0  0  0
  145.5157  134.0852  153.6857 O   0  0  0  0  0  0  0  0  0  0  0  0
  143.2884  134.4232  153.8105 N   0  0  0  0  0  0  0  0  0  0  0  0
  146.4216  135.7792  151.7856 H   0  0  0  0  0  0  0  0  0  0  0  0
  145.8981  138.1185  154.6531 H   0  0  0  0  0  0  0  0  0  0  0  0
  147.8690  138.9095  152.4715 H   0  0  0  0  0  0  0  0  0  0  0  0
  144.9779  138.3363  151.8146 H   0  0  0  0  0  0  0  0  0  0  0  0
  141.2063  133.7551  154.3574 H   0  0  0  0  0  0  0  0  0  0  0  0
  143.6275  137.8910  152.2697 H   0  0  0  0  0  0  0  0  0  0  0  0
  148.0726  139.2038  155.3971 H   0  0  0  0  0  0  0  0  0  0  0  0
  147.9997  137.5176  155.8849 H   0  0  0  0  0  0  0  0  0  0  0  0
  149.0103  137.3913  153.5437 H   0  0  0  0  0  0  0  0  0  0  0  0
  145.4298  140.0840  152.6026 H   0  0  0  0  0  0  0  0  0  0  0  0
  145.9307  138.3121  149.9583 H   0  0  0  0  0  0  0  0  0  0  0  0
  143.1787  133.5187  154.2450 H   0  0  0  0  0  0  0  0  0  0  0  0
  1  2  2  0  0  0  0
  1 22  1  0  0  0  0
  2 17  1  0  0  0  0
  2  3  1  0  0  0  0
  3  4  2  0  0  0  0
  4  5  1  0  0  0  0
  4 23  1  0  0  0  0
  5  6  1  0  0  0  0
  5 15  1  0  0  0  0
  6 18  1  0  0  0  0
  6 13  1  0  0  0  0
  6  7  1  0  0  0  0
  7  8  1  0  0  0  0
  8 19  1  0  0  0  0
  8  9  1  0  0  0  0
  8 11  1  0  0  0  0
  9 10  1  0  0  0  0
  9 24  1  0  0  0  0
  9 25  1  0  0  0  0
 10 26  1  0  0  0  0
 11 20  1  0  0  0  0
 11 12  1  0  0  0  0
 11 13  1  0  0  0  0
 12 27  1  0  0  0  0
 13 21  1  0  0  0  0
 13 14  1  0  0  0  0
 14 28  1  0  0  0  0
 15 16  2  0  0  0  0
 15 17  1  0  0  0  0
 17 29  1  0  0  0  0
M  END
> <s_m_source_file>
AV-unprocessed.smi

> <i_m_source_file_index>
72

> <i_lp_mmshare_version>
43012

> <i_f3d_flags>
0

> <s_epik_input>
W05IMl1jMW5bY0hdbihjKD1PKW4xKVtDQEBIXTJPW0NASF0oW0NIMl1bT0hdKVtDQEBIXShbT0hdKVtDQEhdMltPSF0=

> <s_epik_cmdline>
J2VwaWtfcHl0aG9uJywgJy1waCcsICc3LjAnLCAnLXRuJywgJzgnLCAnLW1hJywgJzIwMCcsICctbWV0YWxfYmluZGluZycsICctaW1hZScsICc8aW5maWxlLm1hZT4nLCAnLW9tYWUnLCAnPG91dGZpbGUubWFlPic=

> <r_lp_tautomer_probability>
7.17554e-07

> <r_epik_Ionization_Penalty>
0.0066451

> <r_epik_Ionization_Penalty_Charging>
0.00663793

> <r_epik_Ionization_Penalty_Neutral>
7.17052e-06

> <r_epik_State_Penalty>
0.419231

> <r_epik_Charging_Adjusted_Penalty>
0.425868

> <i_epik_Tot_Q>
0

> <i_epik_Tot_abs_Q>
0

> <r_epik_Metal_State_Penalty>
1.44144

> <b_epik_Metal_Only>
0

> <s_epik_Chemistry_Notes>
This compound contains an acetal/aminal-like group ( X-CH(R)-Y where X, Y are N, S, or O) that may be acid/base labile, releasing an aldehyde.

> <s_lp_Force_Field>
OPLS_2005

> <r_lp_Energy>
35.5906

> <b_lp_Chiralities_Consistent>
1

> <s_lp_Variant>
AV-unprocessed.smi:72-7

> <Gold.Version>
5.8.1

> <Gold.Id.Protein>
6NUR|6NUR_protein|mol2

> <Gold.PLP.Fitness>
41.0755

> <Gold.PLP.PLP>
-20.2039

> <Gold.PLP.part.hbond>
-7.1483

> <Gold.PLP.part.metal>
0.0000

> <Gold.PLP.part.buried>
-2.1567

> <Gold.PLP.part.nonpolar>
-13.3494

> <Gold.PLP.part.repulsive>
3.3235

> <Gold.PLP.ligand.clash>
0.0000

> <Gold.PLP.ligand.torsion>
0.0243

> <Gold.PLP.Chemscore.Hbond>
5.1335

> <Gold.PLP.Chemscore.CHOScore>
1.8261

> <Gold.PLP.Chemscore.Metal>
0.0000

> <Gold.Chemscore.Hbonds>
donor molecule, donor type, donor heavy atom, donor atom, acceptor molecule, acceptor atom, score
      L1  H    10    26       P1  7948  1.00
      L1  H    12    27       P1 10175  1.00
      L1  H    14    28       P1 10171  0.78
      L1  H    17    29       P1 10957  1.00
      P1  H  7954  7966       L1    14  0.98
      L1  C     4    23       P1 10171  0.94
      L1  C     4    23       P1 10175  0.96

> <Gold.PLP.Chemscore.Internal.Correction>
0.0414

> <Gold.Rescore>
     Score         DG    S(hbond)    S(metal)    S(lipo)     H(rot)  DE(clash)    DE(int)     intcor
     14.09     -16.55       5.77        0.00      18.74       4.06       2.00       0.46       ----

> <Gold.Chemscore.Fitness>
14.0905

> <Gold.Chemscore.DG>
-16.5466

> <Gold.Chemscore.ZeroCoef>
-5.4800

> <Gold.Chemscore.Hbond>
5.7688

> <Gold.Chemscore.Metal>
0.0000

> <Gold.Chemscore.Lipo>
18.7391

> <Gold.Chemscore.Internal_Hbond>
0.0000

> <Gold.Chemscore.DEClash>
2.0010

> <Gold.Chemscore.DEInternal>
0.4551

> <Gold.Chemscore.Rot>
4.0600

> <Gold.Chemscore.Internal.Correction>
   9.000000E+99

> <Gold.Chemscore.Hbonds>
donor molecule, donor type, donor heavy atom, donor atom, acceptor molecule, acceptor atom, score
      L1  H     1    22       P1 10957  0.03
      L1  H    10    26       P1  7948  0.93
      L1  H    12    27       P1 10175  0.91
      L1  H    14    28       P1 10171  0.75
      L1  H    17    29       P1 10957  1.00
      P1  H  7954  7966       L1    14  0.80

> <Gold.Chemscore.Hbond.Weighted>
-19.2678

> <Gold.Chemscore.Metal.Weighted>
-0.0000

> <Gold.Chemscore.Lipo.Weighted>
-2.1925

> <Gold.Chemscore.Internal_Hbond.Weighted>
0.0000

> <Gold.Chemscore.DEClash.Weighted>
2.0010

> <Gold.Chemscore.DEInternal.Weighted>
0.4551

> <Gold.Chemscore.Rot.Weighted>
10.3936

> <Gold.Chemscore.Internal.Correction.Weighted>
   9.000000E+99

> <Gold.Protein.RotatedTorsions>
[ 6907 6896 6895 6894 ] final   53.61 input  -60.11 | X-H torsion
[ 7974 7965 7964 7962 ] final  -85.97 input  175.53 | X-H torsion
[ 8008 7997 7996 7995 ] final -130.75 input   59.86 | X-H torsion
[ 10167 10162 10161 10158 ] final  -88.80 input  -65.29 | X-H torsion
[ 10718 10713 10712 10709 ] final  -32.44 input   66.30 | X-H torsion
[ 10763 10752 10751 10750 ] final  -30.38 input  -60.55 | X-H torsion
[ 11005 11000 10999 10996 ] final   33.14 input  -57.11 | X-H torsion

> <Gold.Protein.ActiveResidues>
 VAL166  LYS551  ARG553  GLY616  TRP617  ASP618  TYR619  PRO620  LYS621  CYS622 
 ASP623  PHE694  ASN695  SER759  ASP760  ASP761  ALA762  ILE779  LEU786  VAL792 
 PHE793  MET794  SER795  GLU796  ALA797  LYS798  CYS799  TRP800  GLU811  SER814 

> <Gold.Protein.RotatedAtoms>
  152.3355  134.7204  160.0277 H   0  0  0  0  0  0  0  0  0  0  0  0  # atno 6907 bound_to 6896
  151.7606  133.3328  159.3425 H   0  0  0  0  0  0  0  0  0  0  0  0  # atno 6908 bound_to 6896
  150.7448  134.6041  159.6096 H   0  0  0  0  0  0  0  0  0  0  0  0  # atno 6909 bound_to 6896
  145.4862  140.9555  143.1837 H   0  0  0  0  0  0  0  0  0  0  0  0  # atno 7974 bound_to 7965
  155.3010  140.0453  157.3029 H   0  0  0  0  0  0  0  0  0  0  0  0  # atno 8008 bound_to 7997
  154.5487  140.2310  155.8488 H   0  0  0  0  0  0  0  0  0  0  0  0  # atno 8009 bound_to 7997
  156.1947  140.3041  155.9410 H   0  0  0  0  0  0  0  0  0  0  0  0  # atno 8010 bound_to 7997
  140.3712  143.2794  151.9498 H   0  0  0  0  0  0  0  0  0  0  0  0  # atno 10167 bound_to 10162
  156.3749  130.4346  149.7515 H   0  0  0  0  0  0  0  0  0  0  0  0  # atno 10718 bound_to 10713
  153.7800  135.6906  153.4890 H   0  0  0  0  0  0  0  0  0  0  0  0  # atno 10763 bound_to 10752
  153.1818  135.4503  155.0036 H   0  0  0  0  0  0  0  0  0  0  0  0  # atno 10764 bound_to 10752
  154.8085  135.3367  154.7304 H   0  0  0  0  0  0  0  0  0  0  0  0  # atno 10765 bound_to 10752
  140.2662  134.3135  155.7842 H   0  0  0  0  0  0  0  0  0  0  0  0  # atno 11005 bound_to 11000
  144.7860  139.6426  143.7134 LP  0  0  0  0  0  0  0  0  0  0  0  0  # atno 17320 bound_to 7965
  146.2312  139.5816  142.9554 LP  0  0  0  0  0  0  0  0  0  0  0  0  # atno 17321 bound_to 7965
  139.4803  144.5905  151.7779 LP  0  0  0  0  0  0  0  0  0  0  0  0  # atno 17342 bound_to 10162
  140.5032  144.1138  150.5976 LP  0  0  0  0  0  0  0  0  0  0  0  0  # atno 17343 bound_to 10162
  156.4628  130.7960  151.2980 LP  0  0  0  0  0  0  0  0  0  0  0  0  # atno 17370 bound_to 10713
  157.7487  131.0060  150.3136 LP  0  0  0  0  0  0  0  0  0  0  0  0  # atno 17371 bound_to 10713
  141.2184  133.7439  156.9264 LP  0  0  0  0  0  0  0  0  0  0  0  0  # atno 17394 bound_to 11000
  140.1417  134.9289  157.2475 LP  0  0  0  0  0  0  0  0  0  0  0  0  # atno 17395 bound_to 11000

$$$$
