AV-unprocessed.smi:3122|AV-procd|sdf|11898|dock4
  -GOLD-   2272017283D 1   1.00000     0.00000
 Structure written by MMmdl.
 29 30  0  0  0  0  0  0  0  0  1 V2000
  152.0618  145.1660  158.8086 C   0  0  0  0  0  0  0  0  0  0  0  0
  151.6763  143.9768  159.7009 C   0  0  0  0  0  0  0  0  0  0  0  0
  152.8877  143.3822  160.4329 C   0  0  0  0  0  0  0  0  0  0  0  0
  150.9242  142.9270  158.9449 C   0  0  0  0  0  0  0  0  0  0  0  0
  149.6699  142.5155  159.1523 N   0  0  0  0  0  0  0  0  0  0  0  0
  149.3946  141.6223  158.1418 N   0  0  0  0  0  0  0  0  0  0  0  0
  150.4975  141.5718  157.3892 C   0  0  0  0  0  0  0  0  0  0  0  0
  150.7098  140.8059  156.1232 C   0  0  2  0  0  0  0  0  0  0  0  0
  149.6128  141.0869  155.0784 C   0  0  0  0  0  0  0  0  0  0  0  0
  149.8165  140.2543  153.8938 N   0  0  0  0  0  0  0  0  0  0  0  0
  149.8910  138.8376  154.2493 C   0  0  0  0  0  0  0  0  0  0  0  0
  150.9730  138.6091  155.3201 C   0  0  0  0  0  0  0  0  0  0  0  0
  150.6989  139.4204  156.4572 O   0  0  0  0  0  0  0  0  0  0  0  0
  151.4807  142.4027  157.8221 O   0  0  0  0  0  0  0  0  0  0  0  0
  151.1804  145.6076  158.3424 H   0  0  0  0  0  0  0  0  0  0  0  0
  152.7436  144.8633  158.0130 H   0  0  0  0  0  0  0  0  0  0  0  0
  152.5542  145.9478  159.3875 H   0  0  0  0  0  0  0  0  0  0  0  0
  150.9982  144.3617  160.4635 H   0  0  0  0  0  0  0  0  0  0  0  0
  152.5815  142.5882  161.1149 H   0  0  0  0  0  0  0  0  0  0  0  0
  153.4039  144.1414  161.0208 H   0  0  0  0  0  0  0  0  0  0  0  0
  153.6061  142.9586  159.7300 H   0  0  0  0  0  0  0  0  0  0  0  0
  151.6893  141.0766  155.7247 H   0  0  0  0  0  0  0  0  0  0  0  0
  148.6322  140.8813  155.5098 H   0  0  0  0  0  0  0  0  0  0  0  0
  149.6192  142.1411  154.8005 H   0  0  0  0  0  0  0  0  0  0  0  0
  149.0543  140.4011  153.2397 H   0  0  0  0  0  0  0  0  0  0  0  0
  148.9256  138.4985  154.6269 H   0  0  0  0  0  0  0  0  0  0  0  0
  150.1081  138.2403  153.3637 H   0  0  0  0  0  0  0  0  0  0  0  0
  150.9804  137.5635  155.6280 H   0  0  0  0  0  0  0  0  0  0  0  0
  151.9663  138.8322  154.9272 H   0  0  0  0  0  0  0  0  0  0  0  0
  1  2  1  0  0  0  0
  1 15  1  0  0  0  0
  1 16  1  0  0  0  0
  1 17  1  0  0  0  0
  2  3  1  0  0  0  0
  2  4  1  0  0  0  0
  2 18  1  0  0  0  0
  3 19  1  0  0  0  0
  3 20  1  0  0  0  0
  3 21  1  0  0  0  0
  4 14  1  0  0  0  0
  4  5  2  0  0  0  0
  5  6  1  0  0  0  0
  6  7  2  0  0  0  0
  7  8  1  0  0  0  0
  7 14  1  0  0  0  0
  8 13  1  0  0  0  0
  8  9  1  0  0  0  0
  8 22  1  0  0  0  0
  9 10  1  0  0  0  0
  9 23  1  0  0  0  0
  9 24  1  0  0  0  0
 10 11  1  0  0  0  0
 10 25  1  0  0  0  0
 11 12  1  0  0  0  0
 11 26  1  0  0  0  0
 11 27  1  0  0  0  0
 12 13  1  0  0  0  0
 12 28  1  0  0  0  0
 12 29  1  0  0  0  0
M  END
> <s_m_source_file>
AV-unprocessed.smi

> <i_m_source_file_index>
3122

> <i_lp_mmshare_version>
43012

> <i_f3d_flags>
0

> <s_epik_input>
W0NIM11bQ0hdKFtDSDNdKWMxbm5jKG8xKVtDQEBIXTJbQ0gyXVtOSF1bQ0gyXVtDSDJdTzI=

> <s_epik_cmdline>
J2VwaWtfcHl0aG9uJywgJy1waCcsICc3LjAnLCAnLXRuJywgJzgnLCAnLW1hJywgJzIwMCcsICctbWV0YWxfYmluZGluZycsICctaW1hZScsICc8aW5maWxlLm1hZT4nLCAnLW9tYWUnLCAnPG91dGZpbGUubWFlPic=

> <r_lp_tautomer_probability>
1

> <r_epik_Ionization_Penalty>
1.64488

> <r_epik_Ionization_Penalty_Charging>
0

> <r_epik_Ionization_Penalty_Neutral>
1.64488

> <r_epik_State_Penalty>
1.74649

> <r_epik_Charging_Adjusted_Penalty>
1.74649

> <i_epik_Tot_Q>
0

> <i_epik_Tot_abs_Q>
0

> <r_epik_Metal_State_Penalty>
1.74649

> <b_epik_Metal_Only>
0

> <s_lp_Force_Field>
OPLS_2005

> <r_lp_Energy>
11.6401

> <b_lp_Chiralities_Consistent>
1

> <s_lp_Variant>
AV-unprocessed.smi:3122-3

> <Gold.Version>
5.8.1

> <Gold.Id.Protein>
6NUR|6NUR_protein|mol2

> <Gold.PLP.Fitness>
33.2232

> <Gold.PLP.PLP>
-29.9499

> <Gold.PLP.part.hbond>
-2.9116

> <Gold.PLP.part.metal>
0.0000

> <Gold.PLP.part.buried>
-3.2864

> <Gold.PLP.part.nonpolar>
-23.7737

> <Gold.PLP.part.repulsive>
0.2172

> <Gold.PLP.ligand.clash>
0.0000

> <Gold.PLP.ligand.torsion>
0.1518

> <Gold.PLP.Chemscore.Hbond>
1.1488

> <Gold.PLP.Chemscore.CHOScore>
0.0000

> <Gold.PLP.Chemscore.Metal>
0.0000

> <Gold.Chemscore.Hbonds>
donor molecule, donor type, donor heavy atom, donor atom, acceptor molecule, acceptor atom, score
      L1  H    10    25       P1  7957  0.17
      P1  H  7989  7998       L1    10  0.63

> <Gold.PLP.Chemscore.Internal.Correction>
0.1306

> <Gold.Rescore>
     Score         DG    S(hbond)    S(metal)    S(lipo)     H(rot)  DE(clash)    DE(int)     intcor
     12.20     -12.32       0.71        0.00      65.42       1.24       0.05       0.07       ----

> <Gold.Chemscore.Fitness>
12.1982

> <Gold.Chemscore.DG>
-12.3214

> <Gold.Chemscore.ZeroCoef>
-5.4800

> <Gold.Chemscore.Hbond>
0.7088

> <Gold.Chemscore.Metal>
0.0000

> <Gold.Chemscore.Lipo>
65.4173

> <Gold.Chemscore.Internal_Hbond>
0.0000

> <Gold.Chemscore.DEClash>
0.0548

> <Gold.Chemscore.DEInternal>
0.0684

> <Gold.Chemscore.Rot>
1.2422

> <Gold.Chemscore.Internal.Correction>
   9.000000E+99

> <Gold.Chemscore.Hbonds>
donor molecule, donor type, donor heavy atom, donor atom, acceptor molecule, acceptor atom, score
      L1  H    10    25       P1  7957  0.18
      P1  H  7989  7998       L1    10  0.07

> <Gold.Chemscore.Hbond.Weighted>
-2.3675

> <Gold.Chemscore.Metal.Weighted>
-0.0000

> <Gold.Chemscore.Lipo.Weighted>
-7.6538

> <Gold.Chemscore.Internal_Hbond.Weighted>
0.0000

> <Gold.Chemscore.DEClash.Weighted>
0.0548

> <Gold.Chemscore.DEInternal.Weighted>
0.0684

> <Gold.Chemscore.Rot.Weighted>
3.1799

> <Gold.Chemscore.Internal.Correction.Weighted>
   9.000000E+99

> <Gold.Protein.RotatedTorsions>
[ 6907 6896 6895 6894 ] final -139.26 input  -60.11 | X-H torsion
[ 7974 7965 7964 7962 ] final -134.41 input  175.53 | X-H torsion
[ 8008 7997 7996 7995 ] final   41.46 input   59.86 | X-H torsion
[ 10167 10162 10161 10158 ] final  -27.40 input  -65.29 | X-H torsion
[ 10718 10713 10712 10709 ] final -133.10 input   66.30 | X-H torsion
[ 10763 10752 10751 10750 ] final -102.13 input  -60.55 | X-H torsion
[ 11005 11000 10999 10996 ] final  -71.63 input  -57.11 | X-H torsion

> <Gold.Protein.ActiveResidues>
 VAL166  LYS551  ARG553  GLY616  TRP617  ASP618  TYR619  PRO620  LYS621  CYS622 
 ASP623  PHE694  ASN695  SER759  ASP760  ASP761  ALA762  ILE779  LEU786  VAL792 
 PHE793  MET794  SER795  GLU796  ALA797  LYS798  CYS799  TRP800  GLU811  SER814 

> <Gold.Protein.RotatedAtoms>
  151.0456  133.5668  159.2646 H   0  0  0  0  0  0  0  0  0  0  0  0  # atno 6907 bound_to 6896
  151.2699  135.0680  159.9140 H   0  0  0  0  0  0  0  0  0  0  0  0  # atno 6908 bound_to 6896
  152.5372  134.0188  159.8026 H   0  0  0  0  0  0  0  0  0  0  0  0  # atno 6909 bound_to 6896
  144.9105  140.6888  143.5028 H   0  0  0  0  0  0  0  0  0  0  0  0  # atno 7974 bound_to 7965
  155.2699  140.3365  155.4266 H   0  0  0  0  0  0  0  0  0  0  0  0  # atno 8008 bound_to 7997
  156.2137  140.1780  156.7679 H   0  0  0  0  0  0  0  0  0  0  0  0  # atno 8009 bound_to 7997
  154.5723  140.0668  156.8967 H   0  0  0  0  0  0  0  0  0  0  0  0  # atno 8010 bound_to 7997
  140.7277  143.4097  151.1126 H   0  0  0  0  0  0  0  0  0  0  0  0  # atno 10167 bound_to 10162
  156.2415  130.7098  151.0961 H   0  0  0  0  0  0  0  0  0  0  0  0  # atno 10718 bound_to 10713
  154.7711  135.4872  153.9650 H   0  0  0  0  0  0  0  0  0  0  0  0  # atno 10763 bound_to 10752
  153.1368  135.6764  153.9097 H   0  0  0  0  0  0  0  0  0  0  0  0  # atno 10764 bound_to 10752
  153.8784  135.3135  155.3423 H   0  0  0  0  0  0  0  0  0  0  0  0  # atno 10765 bound_to 10752
  141.1595  133.6823  156.6935 H   0  0  0  0  0  0  0  0  0  0  0  0  # atno 11005 bound_to 11000
  145.3463  139.1718  143.4459 LP  0  0  0  0  0  0  0  0  0  0  0  0  # atno 17320 bound_to 7965
  146.3156  140.3510  142.8656 LP  0  0  0  0  0  0  0  0  0  0  0  0  # atno 17321 bound_to 7965
  139.7728  143.8469  152.3124 LP  0  0  0  0  0  0  0  0  0  0  0  0  # atno 17342 bound_to 10162
  139.8393  144.7217  150.9351 LP  0  0  0  0  0  0  0  0  0  0  0  0  # atno 17343 bound_to 10162
  157.7177  131.0700  150.6262 LP  0  0  0  0  0  0  0  0  0  0  0  0  # atno 17370 bound_to 10713
  156.6335  130.4438  149.5778 LP  0  0  0  0  0  0  0  0  0  0  0  0  # atno 17371 bound_to 10713
  140.3012  134.8162  157.4099 LP  0  0  0  0  0  0  0  0  0  0  0  0  # atno 17394 bound_to 11000
  140.1260  134.5157  155.8144 LP  0  0  0  0  0  0  0  0  0  0  0  0  # atno 17395 bound_to 11000

$$$$
