AV-unprocessed.smi:2945|AV-procd|sdf|11279|dock1
  -GOLD-   2272016173D 1   1.00000     0.00000
 Structure written by MMmdl.
 36 37  0  0  0  0  0  0  0  0  1 V2000
  154.6582  134.9102  157.6301 C   0  0  0  0  0  0  0  0  0  0  0  0
  154.3013  135.8458  158.7338 C   0  0  0  0  0  0  0  0  0  0  0  0
  154.0289  137.1845  158.7667 C   0  0  0  0  0  0  0  0  0  0  0  0
  153.7698  137.4243  160.1423 C   0  0  0  0  0  0  0  0  0  0  0  0
  153.4382  138.7237  160.6036 N   0  0  0  0  0  0  0  0  0  0  0  0
  153.5378  139.8828  159.9309 C   0  0  0  0  0  0  0  0  0  0  0  0
  153.9389  139.9967  158.7724 O   0  0  0  0  0  0  0  0  0  0  0  0
  153.1405  140.9167  160.6878 N   0  0  0  0  0  0  0  0  0  0  0  0
  153.0940  142.3187  160.2731 C   0  0  1  0  0  0  0  0  0  0  0  0
  152.3132  142.4139  158.9473 C   0  0  0  0  0  0  0  0  0  0  0  0
  152.1597  143.8678  158.4788 C   0  0  0  0  0  0  0  0  0  0  0  0
  151.4939  144.7246  159.5633 C   0  0  0  0  0  0  0  0  0  0  0  0
  152.2798  144.6516  160.8808 C   0  0  0  0  0  0  0  0  0  0  0  0
  152.4475  143.1994  161.3737 C   0  0  2  0  0  0  0  0  0  0  0  0
  153.2336  143.1698  162.6967 C   0  0  0  0  0  0  0  0  0  0  0  0
  153.8732  136.3308  160.8822 N   0  0  0  0  0  0  0  0  0  0  0  0
  154.2143  135.3134  159.9830 O   0  0  0  0  0  0  0  0  0  0  0  0
  154.8140  135.4506  156.6963 H   0  0  0  0  0  0  0  0  0  0  0  0
  153.8641  134.1806  157.4705 H   0  0  0  0  0  0  0  0  0  0  0  0
  155.5747  134.3679  157.8637 H   0  0  0  0  0  0  0  0  0  0  0  0
  154.0183  137.8776  157.9387 H   0  0  0  0  0  0  0  0  0  0  0  0
  153.0861  138.7759  161.5479 H   0  0  0  0  0  0  0  0  0  0  0  0
  152.8339  140.7188  161.6289 H   0  0  0  0  0  0  0  0  0  0  0  0
  154.1040  142.6898  160.0884 H   0  0  0  0  0  0  0  0  0  0  0  0
  152.8186  141.8338  158.1742 H   0  0  0  0  0  0  0  0  0  0  0  0
  151.3239  141.9699  159.0683 H   0  0  0  0  0  0  0  0  0  0  0  0
  153.1394  144.2802  158.2339 H   0  0  0  0  0  0  0  0  0  0  0  0
  151.5697  143.9034  157.5625 H   0  0  0  0  0  0  0  0  0  0  0  0
  151.4242  145.7600  159.2284 H   0  0  0  0  0  0  0  0  0  0  0  0
  150.4712  144.3820  159.7258 H   0  0  0  0  0  0  0  0  0  0  0  0
  153.2608  145.1080  160.7420 H   0  0  0  0  0  0  0  0  0  0  0  0
  151.7696  145.2462  161.6395 H   0  0  0  0  0  0  0  0  0  0  0  0
  151.4504  142.8059  161.5781 H   0  0  0  0  0  0  0  0  0  0  0  0
  154.2575  143.5170  162.5546 H   0  0  0  0  0  0  0  0  0  0  0  0
  153.2785  142.1656  163.1177 H   0  0  0  0  0  0  0  0  0  0  0  0
  152.7663  143.8109  163.4445 H   0  0  0  0  0  0  0  0  0  0  0  0
  1  2  1  0  0  0  0
  1 18  1  0  0  0  0
  1 19  1  0  0  0  0
  1 20  1  0  0  0  0
  2 17  1  0  0  0  0
  2  3  2  0  0  0  0
  3  4  1  0  0  0  0
  3 21  1  0  0  0  0
  4  5  1  0  0  0  0
  4 16  2  0  0  0  0
  5  6  1  0  0  0  0
  5 22  1  0  0  0  0
  6  7  2  0  0  0  0
  6  8  1  0  0  0  0
  8  9  1  0  0  0  0
  8 23  1  0  0  0  0
  9 14  1  0  0  0  0
  9 10  1  0  0  0  0
  9 24  1  0  0  0  0
 10 11  1  0  0  0  0
 10 25  1  0  0  0  0
 10 26  1  0  0  0  0
 11 12  1  0  0  0  0
 11 27  1  0  0  0  0
 11 28  1  0  0  0  0
 12 13  1  0  0  0  0
 12 29  1  0  0  0  0
 12 30  1  0  0  0  0
 13 14  1  0  0  0  0
 13 31  1  0  0  0  0
 13 32  1  0  0  0  0
 14 15  1  0  0  0  0
 14 33  1  0  0  0  0
 15 34  1  0  0  0  0
 15 35  1  0  0  0  0
 15 36  1  0  0  0  0
 16 17  1  0  0  0  0
M  END
> <s_m_source_file>
AV-unprocessed.smi

> <i_m_source_file_index>
2945

> <i_lp_mmshare_version>
43012

> <i_f3d_flags>
0

> <s_epik_input>
W0NIM11jMVtjSF1jKG5vMSlbTkhdQyg9TylbTkhdW0NAQEhdMltDSDJdW0NIMl1bQ0gyXVtDSDJdW0NASF0yW0NIM10=

> <s_epik_cmdline>
J2VwaWtfcHl0aG9uJywgJy1waCcsICc3LjAnLCAnLXRuJywgJzgnLCAnLW1hJywgJzIwMCcsICctbWV0YWxfYmluZGluZycsICctaW1hZScsICc8aW5maWxlLm1hZT4nLCAnLW9tYWUnLCAnPG91dGZpbGUubWFlPic=

> <r_lp_tautomer_probability>
1

> <r_epik_Ionization_Penalty>
2.357e-05

> <r_epik_Ionization_Penalty_Charging>
0

> <r_epik_Ionization_Penalty_Neutral>
2.357e-05

> <r_epik_State_Penalty>
-0

> <r_epik_Charging_Adjusted_Penalty>
0

> <i_epik_Tot_Q>
0

> <i_epik_Tot_abs_Q>
0

> <r_epik_Metal_State_Penalty>
-0

> <b_epik_Metal_Only>
0

> <s_lp_Force_Field>
OPLS_2005

> <r_lp_Energy>
8.52615

> <b_lp_Chiralities_Consistent>
1

> <s_lp_Variant>
AV-unprocessed.smi:2945-4

> <Gold.Version>
5.8.1

> <Gold.Id.Protein>
6NUR|6NUR_protein|mol2

> <Gold.PLP.Fitness>
39.4322

> <Gold.PLP.PLP>
-33.5905

> <Gold.PLP.part.hbond>
-2.0000

> <Gold.PLP.part.metal>
0.0000

> <Gold.PLP.part.buried>
-4.4122

> <Gold.PLP.part.nonpolar>
-27.4751

> <Gold.PLP.part.repulsive>
0.1369

> <Gold.PLP.ligand.clash>
0.0000

> <Gold.PLP.ligand.torsion>
0.0815

> <Gold.PLP.Chemscore.Hbond>
2.0000

> <Gold.PLP.Chemscore.CHOScore>
0.0000

> <Gold.PLP.Chemscore.Metal>
0.0000

> <Gold.Chemscore.Hbonds>
donor molecule, donor type, donor heavy atom, donor atom, acceptor molecule, acceptor atom, score
      P1  H  6896  6908       L1    17  1.00
      P1  H  7997  8010       L1     7  1.00

> <Gold.PLP.Chemscore.Internal.Correction>
0.0046

> <Gold.Rescore>
     Score         DG    S(hbond)    S(metal)    S(lipo)     H(rot)  DE(clash)    DE(int)     intcor
     15.02     -17.69       1.13        0.00      93.99       1.00       0.09       2.58       ----

> <Gold.Chemscore.Fitness>
15.0211

> <Gold.Chemscore.DG>
-17.6950

> <Gold.Chemscore.ZeroCoef>
-5.4800

> <Gold.Chemscore.Hbond>
1.1313

> <Gold.Chemscore.Metal>
0.0000

> <Gold.Chemscore.Lipo>
93.9867

> <Gold.Chemscore.Internal_Hbond>
0.0000

> <Gold.Chemscore.DEClash>
0.0937

> <Gold.Chemscore.DEInternal>
2.5802

> <Gold.Chemscore.Rot>
1.0000

> <Gold.Chemscore.Internal.Correction>
   9.000000E+99

> <Gold.Chemscore.Hbonds>
donor molecule, donor type, donor heavy atom, donor atom, acceptor molecule, acceptor atom, score
      P1  H  6896  6908       L1    17  0.14
      P1  H  7997  8010       L1     7  0.96

> <Gold.Chemscore.Hbond.Weighted>
-3.7785

> <Gold.Chemscore.Metal.Weighted>
-0.0000

> <Gold.Chemscore.Lipo.Weighted>
-10.9964

> <Gold.Chemscore.Internal_Hbond.Weighted>
0.0000

> <Gold.Chemscore.DEClash.Weighted>
0.0937

> <Gold.Chemscore.DEInternal.Weighted>
2.5802

> <Gold.Chemscore.Rot.Weighted>
2.5600

> <Gold.Chemscore.Internal.Correction.Weighted>
   9.000000E+99

> <Gold.Protein.RotatedTorsions>
[ 6907 6896 6895 6894 ] final  -34.76 input  -60.11 | X-H torsion
[ 7974 7965 7964 7962 ] final  -31.75 input  175.53 | X-H torsion
[ 8008 7997 7996 7995 ] final   18.96 input   59.86 | X-H torsion
[ 10167 10162 10161 10158 ] final -171.24 input  -65.29 | X-H torsion
[ 10718 10713 10712 10709 ] final  -59.82 input   66.30 | X-H torsion
[ 10763 10752 10751 10750 ] final  135.32 input  -60.55 | X-H torsion
[ 11005 11000 10999 10996 ] final -120.96 input  -57.11 | X-H torsion

> <Gold.Protein.ActiveResidues>
 VAL166  LYS551  ARG553  GLY616  TRP617  ASP618  TYR619  PRO620  LYS621  CYS622 
 ASP623  PHE694  ASN695  SER759  ASP760  ASP761  ALA762  ILE779  LEU786  VAL792 
 PHE793  MET794  SER795  GLU796  ALA797  LYS798  CYS799  TRP800  GLU811  SER814 

> <Gold.Protein.RotatedAtoms>
  151.0485  134.9656  159.8198 H   0  0  0  0  0  0  0  0  0  0  0  0  # atno 6907 bound_to 6896
  152.5376  134.2568  159.8930 H   0  0  0  0  0  0  0  0  0  0  0  0  # atno 6908 bound_to 6896
  151.2583  133.4272  159.2648 H   0  0  0  0  0  0  0  0  0  0  0  0  # atno 6909 bound_to 6896
  146.1043  140.5706  142.8806 H   0  0  0  0  0  0  0  0  0  0  0  0  # atno 7974 bound_to 7965
  154.9137  140.3017  155.5252 H   0  0  0  0  0  0  0  0  0  0  0  0  # atno 8008 bound_to 7997
  156.3013  140.2384  156.4115 H   0  0  0  0  0  0  0  0  0  0  0  0  # atno 8009 bound_to 7997
  154.8400  140.0414  157.1523 H   0  0  0  0  0  0  0  0  0  0  0  0  # atno 8010 bound_to 7997
  139.5814  144.1414  152.1520 H   0  0  0  0  0  0  0  0  0  0  0  0  # atno 10167 bound_to 10162
  156.1034  130.4183  150.0769 H   0  0  0  0  0  0  0  0  0  0  0  0  # atno 10718 bound_to 10713
  153.8380  135.3095  155.3424 H   0  0  0  0  0  0  0  0  0  0  0  0  # atno 10763 bound_to 10752
  154.7945  135.4763  154.0131 H   0  0  0  0  0  0  0  0  0  0  0  0  # atno 10764 bound_to 10752
  153.1593  135.6858  153.8858 H   0  0  0  0  0  0  0  0  0  0  0  0  # atno 10765 bound_to 10752
  141.0105  134.0271  157.3420 H   0  0  0  0  0  0  0  0  0  0  0  0  # atno 11005 bound_to 11000
  144.7458  140.5064  143.6836 LP  0  0  0  0  0  0  0  0  0  0  0  0  # atno 17320 bound_to 7965
  145.5791  139.1488  143.3245 LP  0  0  0  0  0  0  0  0  0  0  0  0  # atno 17321 bound_to 7965
  140.0969  144.5573  150.7016 LP  0  0  0  0  0  0  0  0  0  0  0  0  # atno 17342 bound_to 10162
  140.7092  143.2491  151.4634 LP  0  0  0  0  0  0  0  0  0  0  0  0  # atno 17343 bound_to 10162
  156.8750  130.9537  151.3605 LP  0  0  0  0  0  0  0  0  0  0  0  0  # atno 17370 bound_to 10713
  157.6207  130.8653  149.9104 LP  0  0  0  0  0  0  0  0  0  0  0  0  # atno 17371 bound_to 10713
  139.9087  135.0185  156.7599 LP  0  0  0  0  0  0  0  0  0  0  0  0  # atno 17394 bound_to 11000
  140.6741  133.9533  155.7873 LP  0  0  0  0  0  0  0  0  0  0  0  0  # atno 17395 bound_to 11000

$$$$
