AV-unprocessed.smi:481|AV-procd|sdf|2683|dock3
  -GOLD-   2262023113D 1   1.00000     0.00000
 Structure written by MMmdl.
 42 44  0  0  0  0  0  0  0  0  2 V2000
  149.2617  132.4794  155.3838 C   0  0  0  0  0  0  0  0  0  0  0  0
  148.8767  132.4211  156.7485 O   0  0  0  0  0  0  0  0  0  0  0  0
  149.4441  133.4466  157.5517 C   0  0  0  0  0  0  0  0  0  0  0  0
  148.5128  134.6653  157.6694 C   0  0  0  0  0  0  0  0  0  0  0  0
  149.2590  135.8772  157.9921 N   0  0  0  0  0  0  0  0  0  0  0  0
  149.0833  136.6980  159.0584 C   0  0  0  0  0  0  0  0  0  0  0  0
  148.0806  136.4081  159.9944 N   0  0  0  0  0  0  0  0  0  0  0  0
  147.8572  137.1743  161.0629 N   0  0  0  0  0  0  0  0  0  0  0  0
  147.2208  136.7351  162.1003 C   0  0  0  0  0  0  0  0  0  0  0  0
  146.5390  135.4321  162.2521 C   0  0  0  0  0  0  0  0  0  0  0  0
  147.1757  134.2008  161.9675 C   0  0  0  0  0  0  0  0  0  0  0  0
  146.4832  132.9852  162.1272 C   0  0  0  0  0  0  0  0  0  0  0  0
  145.1448  132.9882  162.5617 C   0  0  0  0  0  0  0  0  0  0  0  0
  144.4974  134.2088  162.8299 C   0  0  0  0  0  0  0  0  0  0  0  0
  145.1904  135.4246  162.6703 C   0  0  0  0  0  0  0  0  0  0  0  0
  149.9246  137.7372  159.0992 N   0  0  0  0  0  0  0  0  0  0  0  0
  150.6954  137.5606  157.9601 C   0  0  0  0  0  0  0  0  0  0  0  0
  150.3081  136.4540  157.2721 C   0  0  0  0  0  0  0  0  0  0  0  0
  150.9275  136.0116  156.0043 C   0  0  0  0  0  0  0  0  0  0  0  0
  150.5221  135.0110  155.4159 O   0  0  0  0  0  0  0  0  0  0  0  0
  151.9490  136.8384  155.6139 N   0  5  0  0  0  0  0  0  0  0  0  0
  152.3792  137.9657  156.2816 C   0  0  0  0  0  0  0  0  0  0  0  0
  153.3067  138.6572  155.8592 O   0  0  0  0  0  0  0  0  0  0  0  0
  151.7679  138.3412  157.4493 N   0  0  0  0  0  0  0  0  0  0  0  0
  152.2040  139.5336  158.1816 C   0  0  0  0  0  0  0  0  0  0  0  0
  148.7290  131.7106  154.8244 H   0  0  0  0  0  0  0  0  0  0  0  0
  150.3287  132.2997  155.2544 H   0  0  0  0  0  0  0  0  0  0  0  0
  149.0141  133.4452  154.9416 H   0  0  0  0  0  0  0  0  0  0  0  0
  149.7185  133.0585  158.5337 H   0  0  0  0  0  0  0  0  0  0  0  0
  150.3738  133.7567  157.0741 H   0  0  0  0  0  0  0  0  0  0  0  0
  147.9669  134.8088  156.7371 H   0  0  0  0  0  0  0  0  0  0  0  0
  147.7480  134.5165  158.4294 H   0  0  0  0  0  0  0  0  0  0  0  0
  147.3039  135.8975  159.5995 H   0  0  0  0  0  0  0  0  0  0  0  0
  147.1887  137.3924  162.9695 H   0  0  0  0  0  0  0  0  0  0  0  0
  148.1986  134.1765  161.6217 H   0  0  0  0  0  0  0  0  0  0  0  0
  146.9796  132.0501  161.9141 H   0  0  0  0  0  0  0  0  0  0  0  0
  144.6141  132.0557  162.6853 H   0  0  0  0  0  0  0  0  0  0  0  0
  143.4691  134.2133  163.1599 H   0  0  0  0  0  0  0  0  0  0  0  0
  144.6811  136.3535  162.8835 H   0  0  0  0  0  0  0  0  0  0  0  0
  152.0826  140.4249  157.5648 H   0  0  0  0  0  0  0  0  0  0  0  0
  153.2558  139.4500  158.4582 H   0  0  0  0  0  0  0  0  0  0  0  0
  151.6392  139.6928  159.0998 H   0  0  0  0  0  0  0  0  0  0  0  0
  1  2  1  0  0  0  0
  1 26  1  0  0  0  0
  1 27  1  0  0  0  0
  1 28  1  0  0  0  0
  2  3  1  0  0  0  0
  3  4  1  0  0  0  0
  3 29  1  0  0  0  0
  3 30  1  0  0  0  0
  4  5  1  0  0  0  0
  4 31  1  0  0  0  0
  4 32  1  0  0  0  0
  5 18  1  0  0  0  0
  5  6  1  0  0  0  0
  6  7  1  0  0  0  0
  6 16  2  0  0  0  0
  7  8  1  0  0  0  0
  7 33  1  0  0  0  0
  8  9  2  0  0  0  0
  9 10  1  0  0  0  0
  9 34  1  0  0  0  0
 10 15  1  0  0  0  0
 10 11  2  0  0  0  0
 11 12  1  0  0  0  0
 11 35  1  0  0  0  0
 12 13  2  0  0  0  0
 12 36  1  0  0  0  0
 13 14  1  0  0  0  0
 13 37  1  0  0  0  0
 14 15  2  0  0  0  0
 14 38  1  0  0  0  0
 15 39  1  0  0  0  0
 16 17  1  0  0  0  0
 17 24  1  0  0  0  0
 17 18  2  0  0  0  0
 18 19  1  0  0  0  0
 19 20  2  0  0  0  0
 19 21  1  0  0  0  0
 21 22  1  0  0  0  0
 22 23  2  0  0  0  0
 22 24  1  0  0  0  0
 24 25  1  0  0  0  0
 25 40  1  0  0  0  0
 25 41  1  0  0  0  0
 25 42  1  0  0  0  0
M  CHG  1  21  -1
M  END
> <s_m_source_file>
AV-unprocessed.smi

> <i_m_source_file_index>
481

> <i_lp_mmshare_version>
43012

> <i_f3d_flags>
0

> <s_epik_input>
W0NIM11uMWMoPU8pW25IXWMoPU8pYyhjMTIpbihbQ0gyXVtDSDJdT1tDSDNdKWMobjIpW05IXS9OPVtDSF0vYzNbY0hdW2NIXVtjSF1bY0hdW2NIXTM=

> <s_epik_cmdline>
J2VwaWtfcHl0aG9uJywgJy1waCcsICc3LjAnLCAnLXRuJywgJzgnLCAnLW1hJywgJzIwMCcsICctbWV0YWxfYmluZGluZycsICctaW1hZScsICc8aW5maWxlLm1hZT4nLCAnLW9tYWUnLCAnPG91dGZpbGUubWFlPic=

> <r_epik_Ionization_Penalty>
4.48471

> <r_epik_Ionization_Penalty_Charging>
4.58449e-09

> <r_epik_Ionization_Penalty_Neutral>
4.48471

> <r_epik_State_Penalty>
4.48428

> <r_epik_Charging_Adjusted_Penalty>
4.48428

> <i_epik_Tot_Q>
-1

> <i_epik_Tot_abs_Q>
1

> <r_epik_Metal_State_Penalty>
0.811551

> <b_epik_Metal_Only>
1

> <s_epik_Chemistry_Notes>
This compound has an imine and may undergo hydrolysis.

> <s_lp_Force_Field>
OPLS_2005

> <r_lp_Energy>
49.411

> <b_lp_Chiralities_Consistent>
1

> <s_lp_Variant>
AV-unprocessed.smi:481-4

> <Gold.Version>
5.8.1

> <Gold.Id.Protein>
6NUR|6NUR_protein|mol2

> <Gold.PLP.Fitness>
48.0088

> <Gold.PLP.PLP>
-35.7531

> <Gold.PLP.part.hbond>
-4.5150

> <Gold.PLP.part.metal>
0.0000

> <Gold.PLP.part.buried>
-4.9724

> <Gold.PLP.part.nonpolar>
-26.6579

> <Gold.PLP.part.repulsive>
0.3594

> <Gold.PLP.ligand.clash>
0.0000

> <Gold.PLP.ligand.torsion>
0.8653

> <Gold.PLP.Chemscore.Hbond>
4.4320

> <Gold.PLP.Chemscore.CHOScore>
0.0000

> <Gold.PLP.Chemscore.Metal>
0.0000

> <Gold.Chemscore.Hbonds>
donor molecule, donor type, donor heavy atom, donor atom, acceptor molecule, acceptor atom, score
      P1  H  6931  6943       L1     8  0.90
      P1  H  6934  6947       L1     8  0.80
      P1  H  7997  8009       L1    23  0.96
      P1  H 10752 10765       L1    21  1.80

> <Gold.PLP.Chemscore.Internal.Correction>
0.6904

> <Gold.Rescore>
     Score         DG    S(hbond)    S(metal)    S(lipo)     H(rot)  DE(clash)    DE(int)     intcor
     14.81     -17.79       2.23        0.00      74.80       1.52       0.10       2.88       ----

> <Gold.Chemscore.Fitness>
14.8113

> <Gold.Chemscore.DG>
-17.7926

> <Gold.Chemscore.ZeroCoef>
-5.4800

> <Gold.Chemscore.Hbond>
2.2335

> <Gold.Chemscore.Metal>
0.0000

> <Gold.Chemscore.Lipo>
74.7995

> <Gold.Chemscore.Internal_Hbond>
0.0000

> <Gold.Chemscore.DEClash>
0.1001

> <Gold.Chemscore.DEInternal>
2.8811

> <Gold.Chemscore.Rot>
1.5230

> <Gold.Chemscore.Internal.Correction>
   9.000000E+99

> <Gold.Chemscore.Hbonds>
donor molecule, donor type, donor heavy atom, donor atom, acceptor molecule, acceptor atom, score
      P1  H  6931  6943       L1     8  0.20
      P1  H  6934  6947       L1     8  0.27
      P1  H  7997  8009       L1    23  0.92
      P1  H 10752 10765       L1    21  0.17

> <Gold.Chemscore.Hbond.Weighted>
-7.4599

> <Gold.Chemscore.Metal.Weighted>
-0.0000

> <Gold.Chemscore.Lipo.Weighted>
-8.7515

> <Gold.Chemscore.Internal_Hbond.Weighted>
0.0000

> <Gold.Chemscore.DEClash.Weighted>
0.1001

> <Gold.Chemscore.DEInternal.Weighted>
2.8811

> <Gold.Chemscore.Rot.Weighted>
3.8989

> <Gold.Chemscore.Internal.Correction.Weighted>
   9.000000E+99

> <Gold.Protein.RotatedTorsions>
[ 6907 6896 6895 6894 ] final  -34.68 input  -60.11 | X-H torsion
[ 7974 7965 7964 7962 ] final -153.90 input  175.53 | X-H torsion
[ 8008 7997 7996 7995 ] final -155.17 input   59.86 | X-H torsion
[ 10167 10162 10161 10158 ] final  -98.62 input  -65.29 | X-H torsion
[ 10718 10713 10712 10709 ] final  174.94 input   66.30 | X-H torsion
[ 10763 10752 10751 10750 ] final -173.28 input  -60.55 | X-H torsion
[ 11005 11000 10999 10996 ] final  -11.16 input  -57.11 | X-H torsion

> <Gold.Protein.ActiveResidues>
 VAL166  LYS551  ARG553  GLY616  TRP617  ASP618  TYR619  PRO620  LYS621  CYS622 
 ASP623  PHE694  ASN695  SER759  ASP760  ASP761  ALA762  ILE779  LEU786  VAL792 
 PHE793  MET794  SER795  GLU796  ALA797  LYS798  CYS799  TRP800  GLU811  SER814 

> <Gold.Protein.RotatedAtoms>
  151.0495  134.9663  159.8203 H   0  0  0  0  0  0  0  0  0  0  0  0  # atno 6907 bound_to 6896
  152.5378  134.2555  159.8925 H   0  0  0  0  0  0  0  0  0  0  0  0  # atno 6908 bound_to 6896
  151.2570  133.4278  159.2648 H   0  0  0  0  0  0  0  0  0  0  0  0  # atno 6909 bound_to 6896
  144.7716  140.4461  143.5903 H   0  0  0  0  0  0  0  0  0  0  0  0  # atno 7974 bound_to 7965
  155.6977  140.0763  157.2423 H   0  0  0  0  0  0  0  0  0  0  0  0  # atno 8008 bound_to 7997
  154.4078  140.1653  156.2209 H   0  0  0  0  0  0  0  0  0  0  0  0  # atno 8009 bound_to 7997
  155.9395  140.3385  155.6319 H   0  0  0  0  0  0  0  0  0  0  0  0  # atno 8010 bound_to 7997
  140.2710  143.3344  152.0534 H   0  0  0  0  0  0  0  0  0  0  0  0  # atno 10167 bound_to 10162
  156.9422  131.0005  151.2966 H   0  0  0  0  0  0  0  0  0  0  0  0  # atno 10718 bound_to 10713
  154.6097  135.2863  155.0446 H   0  0  0  0  0  0  0  0  0  0  0  0  # atno 10763 bound_to 10752
  154.1680  135.6477  153.5006 H   0  0  0  0  0  0  0  0  0  0  0  0  # atno 10764 bound_to 10752
  153.0190  135.5394  154.6846 H   0  0  0  0  0  0  0  0  0  0  0  0  # atno 10765 bound_to 10752
  140.7524  133.8582  155.9056 H   0  0  0  0  0  0  0  0  0  0  0  0  # atno 11005 bound_to 11000
  145.6306  139.1536  143.2971 LP  0  0  0  0  0  0  0  0  0  0  0  0  # atno 17320 bound_to 7965
  146.1867  140.6410  142.9164 LP  0  0  0  0  0  0  0  0  0  0  0  0  # atno 17321 bound_to 7965
  139.4989  144.6656  151.6364 LP  0  0  0  0  0  0  0  0  0  0  0  0  # atno 17342 bound_to 10162
  140.5889  143.9815  150.6312 LP  0  0  0  0  0  0  0  0  0  0  0  0  # atno 17343 bound_to 10162
  157.5777  130.8354  149.8479 LP  0  0  0  0  0  0  0  0  0  0  0  0  # atno 17370 bound_to 10713
  156.0399  130.3741  150.1462 LP  0  0  0  0  0  0  0  0  0  0  0  0  # atno 17371 bound_to 10713
  140.9739  134.1495  157.4553 LP  0  0  0  0  0  0  0  0  0  0  0  0  # atno 17394 bound_to 11000
  139.8785  134.9988  156.5918 LP  0  0  0  0  0  0  0  0  0  0  0  0  # atno 17395 bound_to 11000

$$$$
