AV-unprocessed.smi:3140|AV-procd|sdf|11961|dock4
  -GOLD-   2272017363D 1   1.00000     0.00000
 Structure written by MMmdl.
 37 38  0  0  0  0  0  0  0  0  1 V2000
  150.4952  142.0165  157.0444 C   0  0  0  0  0  0  0  0  0  0  0  0
  150.8623  140.5221  157.0379 C   0  0  1  0  0  0  0  0  0  0  0  0
  150.8768  139.9651  155.5999 C   0  0  0  0  0  0  0  0  0  0  0  0
  149.6318  140.2156  154.8939 N   0  0  0  0  0  0  0  0  0  0  0  0
  149.1409  141.4172  154.4281 C   0  0  0  0  0  0  0  0  0  0  0  0
  147.9393  141.1624  153.8316 C   0  0  0  0  0  0  0  0  0  0  0  0
  147.7799  139.7564  153.9813 C   0  0  0  0  0  0  0  0  0  0  0  0
  148.7956  139.1919  154.6145 N   0  0  0  0  0  0  0  0  0  0  0  0
  152.1795  140.3270  157.6351 N   0  0  0  0  0  0  0  0  0  0  0  0
  152.2147  140.6995  159.0408 C   0  0  0  0  0  0  0  0  0  0  0  0
  152.6122  142.1777  159.1656 C   0  0  0  0  0  0  0  0  0  0  0  0
  152.8866  142.5382  160.5533 N   0  0  0  0  0  0  0  0  0  0  0  0
  153.8427  141.7795  161.3420 C   0  0  0  0  0  0  0  0  0  0  0  0
  153.7017  142.3250  162.7704 C   0  0  0  0  0  0  0  0  0  0  0  0
  152.9067  143.6292  162.6421 C   0  0  0  0  0  0  0  0  0  0  0  0
  152.3650  143.5724  161.2237 C   0  0  0  0  0  0  0  0  0  0  0  0
  151.5557  144.3886  160.7851 O   0  0  0  0  0  0  0  0  0  0  0  0
  149.5336  142.1808  156.5576 H   0  0  0  0  0  0  0  0  0  0  0  0
  151.2386  142.6114  156.5124 H   0  0  0  0  0  0  0  0  0  0  0  0
  150.4105  142.4136  158.0555 H   0  0  0  0  0  0  0  0  0  0  0  0
  150.1181  139.9684  157.6123 H   0  0  0  0  0  0  0  0  0  0  0  0
  151.6772  140.4357  155.0279 H   0  0  0  0  0  0  0  0  0  0  0  0
  151.0860  138.8936  155.5989 H   0  0  0  0  0  0  0  0  0  0  0  0
  149.6814  142.3426  154.5611 H   0  0  0  0  0  0  0  0  0  0  0  0
  147.2759  141.8720  153.3599 H   0  0  0  0  0  0  0  0  0  0  0  0
  146.9626  139.1331  153.6491 H   0  0  0  0  0  0  0  0  0  0  0  0
  152.8795  140.8348  157.1130 H   0  0  0  0  0  0  0  0  0  0  0  0
  151.2400  140.5356  159.4992 H   0  0  0  0  0  0  0  0  0  0  0  0
  152.9359  140.0734  159.5677 H   0  0  0  0  0  0  0  0  0  0  0  0
  153.4961  142.3807  158.5587 H   0  0  0  0  0  0  0  0  0  0  0  0
  151.8180  142.8189  158.7788 H   0  0  0  0  0  0  0  0  0  0  0  0
  153.6373  140.7093  161.2946 H   0  0  0  0  0  0  0  0  0  0  0  0
  154.8471  141.9534  160.9539 H   0  0  0  0  0  0  0  0  0  0  0  0
  153.1506  141.6157  163.3892 H   0  0  0  0  0  0  0  0  0  0  0  0
  154.6732  142.4833  163.2396 H   0  0  0  0  0  0  0  0  0  0  0  0
  152.1014  143.6951  163.3741 H   0  0  0  0  0  0  0  0  0  0  0  0
  153.5520  144.5015  162.7496 H   0  0  0  0  0  0  0  0  0  0  0  0
  1  2  1  0  0  0  0
  1 18  1  0  0  0  0
  1 19  1  0  0  0  0
  1 20  1  0  0  0  0
  2  3  1  0  0  0  0
  2  9  1  0  0  0  0
  2 21  1  0  0  0  0
  3  4  1  0  0  0  0
  3 22  1  0  0  0  0
  3 23  1  0  0  0  0
  4  8  1  0  0  0  0
  4  5  1  0  0  0  0
  5  6  2  0  0  0  0
  5 24  1  0  0  0  0
  6  7  1  0  0  0  0
  6 25  1  0  0  0  0
  7  8  2  0  0  0  0
  7 26  1  0  0  0  0
  9 10  1  0  0  0  0
  9 27  1  0  0  0  0
 10 11  1  0  0  0  0
 10 28  1  0  0  0  0
 10 29  1  0  0  0  0
 11 12  1  0  0  0  0
 11 30  1  0  0  0  0
 11 31  1  0  0  0  0
 12 16  1  0  0  0  0
 12 13  1  0  0  0  0
 13 14  1  0  0  0  0
 13 32  1  0  0  0  0
 13 33  1  0  0  0  0
 14 15  1  0  0  0  0
 14 34  1  0  0  0  0
 14 35  1  0  0  0  0
 15 16  1  0  0  0  0
 15 36  1  0  0  0  0
 15 37  1  0  0  0  0
 16 17  2  0  0  0  0
M  END
> <s_m_source_file>
AV-unprocessed.smi

> <i_m_source_file_index>
3140

> <i_lp_mmshare_version>
43012

> <i_f3d_flags>
0

> <s_epik_input>
bjFbY0hdW2NIXVtjSF1uMVtDSDJdW0NAQEhdKFtDSDNdKVtOSF1bQ0gyXVtDSDJdTjJbQ0gyXVtDSDJdW0NIMl1DMj1P

> <s_epik_cmdline>
J2VwaWtfcHl0aG9uJywgJy1waCcsICc3LjAnLCAnLXRuJywgJzgnLCAnLW1hJywgJzIwMCcsICctbWV0YWxfYmluZGluZycsICctaW1hZScsICc8aW5maWxlLm1hZT4nLCAnLW9tYWUnLCAnPG91dGZpbGUubWFlPic=

> <r_lp_tautomer_probability>
1

> <r_epik_Ionization_Penalty>
2.53587

> <r_epik_Ionization_Penalty_Charging>
0

> <r_epik_Ionization_Penalty_Neutral>
2.53587

> <r_epik_State_Penalty>
2.70334

> <r_epik_Charging_Adjusted_Penalty>
2.70334

> <i_epik_Tot_Q>
0

> <i_epik_Tot_abs_Q>
0

> <r_epik_Metal_State_Penalty>
2.7033

> <b_epik_Metal_Only>
0

> <s_lp_Force_Field>
OPLS_2005

> <r_lp_Energy>
20.5339

> <b_lp_Chiralities_Consistent>
1

> <s_lp_Variant>
AV-unprocessed.smi:3140-4

> <Gold.Version>
5.8.1

> <Gold.Id.Protein>
6NUR|6NUR_protein|mol2

> <Gold.PLP.Fitness>
43.8812

> <Gold.PLP.PLP>
-41.6097

> <Gold.PLP.part.hbond>
-0.4275

> <Gold.PLP.part.metal>
0.0000

> <Gold.PLP.part.buried>
-0.9788

> <Gold.PLP.part.nonpolar>
-39.9087

> <Gold.PLP.part.repulsive>
0.2911

> <Gold.PLP.ligand.clash>
0.0000

> <Gold.PLP.ligand.torsion>
0.4030

> <Gold.PLP.Chemscore.Hbond>
0.0000

> <Gold.PLP.Chemscore.CHOScore>
1.0000

> <Gold.PLP.Chemscore.Metal>
0.0000

> <Gold.Chemscore.Hbonds>
donor molecule, donor type, donor heavy atom, donor atom, acceptor molecule, acceptor atom, score
      L1  C     5    24       P1  8028  0.52

> <Gold.PLP.Chemscore.Internal.Correction>
0.0775

> <Gold.Rescore>
     Score         DG    S(hbond)    S(metal)    S(lipo)     H(rot)  DE(clash)    DE(int)     intcor
     10.71     -11.54       0.00        0.00      94.91       1.97       0.26       0.56       ----

> <Gold.Chemscore.Fitness>
10.7096

> <Gold.Chemscore.DG>
-11.5358

> <Gold.Chemscore.ZeroCoef>
-5.4800

> <Gold.Chemscore.Hbond>
0.0000

> <Gold.Chemscore.Metal>
0.0000

> <Gold.Chemscore.Lipo>
94.9104

> <Gold.Chemscore.Internal_Hbond>
0.0000

> <Gold.Chemscore.DEClash>
0.2614

> <Gold.Chemscore.DEInternal>
0.5648

> <Gold.Chemscore.Rot>
1.9722

> <Gold.Chemscore.Internal.Correction>
   9.000000E+99

> <Gold.Chemscore.Hbond.Weighted>
-0.0000

> <Gold.Chemscore.Metal.Weighted>
-0.0000

> <Gold.Chemscore.Lipo.Weighted>
-11.1045

> <Gold.Chemscore.Internal_Hbond.Weighted>
0.0000

> <Gold.Chemscore.DEClash.Weighted>
0.2614

> <Gold.Chemscore.DEInternal.Weighted>
0.5648

> <Gold.Chemscore.Rot.Weighted>
5.0487

> <Gold.Chemscore.Internal.Correction.Weighted>
   9.000000E+99

> <Gold.Protein.RotatedTorsions>
[ 6907 6896 6895 6894 ] final -149.70 input  -60.11 | X-H torsion
[ 7974 7965 7964 7962 ] final    4.06 input  175.53 | X-H torsion
[ 8008 7997 7996 7995 ] final -169.45 input   59.86 | X-H torsion
[ 10167 10162 10161 10158 ] final -162.62 input  -65.29 | X-H torsion
[ 10718 10713 10712 10709 ] final  132.93 input   66.30 | X-H torsion
[ 10763 10752 10751 10750 ] final  -95.00 input  -60.55 | X-H torsion
[ 11005 11000 10999 10996 ] final  -43.58 input  -57.11 | X-H torsion

> <Gold.Protein.ActiveResidues>
 VAL166  LYS551  ARG553  GLY616  TRP617  ASP618  TYR619  PRO620  LYS621  CYS622 
 ASP623  PHE694  ASN695  SER759  ASP760  ASP761  ALA762  ILE779  LEU786  VAL792 
 PHE793  MET794  SER795  GLU796  ALA797  LYS798  CYS799  TRP800  GLU811  SER814 

> <Gold.Protein.RotatedAtoms>
  151.1879  133.4685  159.2594 H   0  0  0  0  0  0  0  0  0  0  0  0  # atno 6907 bound_to 6896
  151.1193  135.0070  159.8541 H   0  0  0  0  0  0  0  0  0  0  0  0  # atno 6908 bound_to 6896
  152.5455  134.1792  159.8681 H   0  0  0  0  0  0  0  0  0  0  0  0  # atno 6909 bound_to 6896
  146.2444  140.0591  142.8369 H   0  0  0  0  0  0  0  0  0  0  0  0  # atno 7974 bound_to 7965
  155.9051  140.1047  157.1321 H   0  0  0  0  0  0  0  0  0  0  0  0  # atno 8008 bound_to 7997
  154.4031  140.1285  156.4550 H   0  0  0  0  0  0  0  0  0  0  0  0  # atno 8009 bound_to 7997
  155.7376  140.3467  155.5091 H   0  0  0  0  0  0  0  0  0  0  0  0  # atno 8010 bound_to 7997
  139.6379  144.0315  152.2069 H   0  0  0  0  0  0  0  0  0  0  0  0  # atno 10167 bound_to 10162
  157.4823  131.1086  150.9666 H   0  0  0  0  0  0  0  0  0  0  0  0  # atno 10718 bound_to 10713
  154.7108  135.5137  153.8663 H   0  0  0  0  0  0  0  0  0  0  0  0  # atno 10763 bound_to 10752
  153.0779  135.6622  154.0116 H   0  0  0  0  0  0  0  0  0  0  0  0  # atno 10764 bound_to 10752
  153.9959  135.3015  155.3387 H   0  0  0  0  0  0  0  0  0  0  0  0  # atno 10765 bound_to 10752
  141.0393  133.6786  156.2752 H   0  0  0  0  0  0  0  0  0  0  0  0  # atno 11005 bound_to 11000
  145.0916  140.9288  143.4766 LP  0  0  0  0  0  0  0  0  0  0  0  0  # atno 17320 bound_to 7965
  145.0765  139.2992  143.5805 LP  0  0  0  0  0  0  0  0  0  0  0  0  # atno 17321 bound_to 7965
  139.9997  144.6302  150.7741 LP  0  0  0  0  0  0  0  0  0  0  0  0  # atno 17342 bound_to 10162
  140.7475  143.2908  151.3337 LP  0  0  0  0  0  0  0  0  0  0  0  0  # atno 17343 bound_to 10162
  157.0395  130.5743  149.5354 LP  0  0  0  0  0  0  0  0  0  0  0  0  # atno 17370 bound_to 10713
  156.0128  130.5220  150.8042 LP  0  0  0  0  0  0  0  0  0  0  0  0  # atno 17371 bound_to 10713
  140.6264  134.5309  157.5554 LP  0  0  0  0  0  0  0  0  0  0  0  0  # atno 17394 bound_to 11000
  139.9264  134.8048  156.1057 LP  0  0  0  0  0  0  0  0  0  0  0  0  # atno 17395 bound_to 11000

$$$$
