AV-unprocessed.smi:1005|AV-procd|sdf|4374|dock2
  -GOLD-   22720 2283D 1   1.00000     0.00000
 Structure written by MMmdl.
 57 59  0  0  0  0  0  0  0  0  3 V2000
  152.2504  144.1049  161.4728 C   0  0  0  0  0  0  0  0  0  0  0  0
  152.1183  143.2496  160.2240 C   0  0  0  0  0  0  0  0  0  0  0  0
  151.3236  143.7302  159.1583 C   0  0  0  0  0  0  0  0  0  0  0  0
  151.2232  142.9259  158.0293 C   0  0  0  0  0  0  0  0  0  0  0  0
  150.5325  143.1120  156.8296 N   0  3  0  0  0  0  0  0  0  0  0  0
  150.7380  142.0394  156.0155 C   0  0  0  0  0  0  0  0  0  0  0  0
  151.5493  141.1717  156.6791 N   0  0  0  0  0  0  0  0  0  0  0  0
  152.0854  139.8698  156.2620 C   0  0  0  0  0  0  0  0  0  0  0  0
  150.9942  138.9214  155.7293 C   0  0  2  0  0  0  0  0  0  0  0  0
  150.7047  139.2644  154.3881 O   0  0  0  0  0  0  0  0  0  0  0  0
  149.6986  139.0269  156.5580 C   0  0  0  0  0  0  0  0  0  0  0  0
  148.6196  138.1187  156.1634 N   0  0  0  0  0  0  0  0  0  0  0  0
  147.8399  138.6231  155.0347 C   0  0  0  0  0  0  0  0  0  0  0  0
  146.7412  137.6350  154.6110 C   0  0  0  0  0  0  0  0  0  0  0  0
  147.3244  136.3693  154.3198 O   0  0  0  0  0  0  0  0  0  0  0  0
  148.0333  135.8100  155.4228 C   0  0  1  0  0  0  0  0  0  0  0  0
  148.5728  134.4319  154.9831 C   0  0  0  0  0  0  0  0  0  0  0  0
  148.1199  134.0182  153.6296 N   0  3  0  0  0  0  0  0  0  0  0  0
  146.6656  133.7557  153.5397 C   0  0  0  0  0  0  0  0  0  0  0  0
  148.9104  132.8804  153.1086 C   0  0  0  0  0  0  0  0  0  0  0  0
  149.1492  136.8041  155.8170 C   0  0  0  0  0  0  0  0  0  0  0  0
  151.8780  141.6827  157.9384 C   0  0  0  0  0  0  0  0  0  0  0  0
  152.6650  141.1940  158.9780 C   0  0  0  0  0  0  0  0  0  0  0  0
  152.7813  141.9979  160.1342 C   0  0  0  0  0  0  0  0  0  0  0  0
  153.6348  141.4921  161.2847 C   0  0  0  0  0  0  0  0  0  0  0  0
  151.6620  145.0196  161.3940 H   0  0  0  0  0  0  0  0  0  0  0  0
  153.2902  144.3909  161.6321 H   0  0  0  0  0  0  0  0  0  0  0  0
  151.9022  143.5601  162.3505 H   0  0  0  0  0  0  0  0  0  0  0  0
  150.8174  144.6826  159.2190 H   0  0  0  0  0  0  0  0  0  0  0  0
  150.3353  141.9035  155.0218 H   0  0  0  0  0  0  0  0  0  0  0  0
  152.8563  140.0415  155.5099 H   0  0  0  0  0  0  0  0  0  0  0  0
  152.5880  139.4288  157.1242 H   0  0  0  0  0  0  0  0  0  0  0  0
  151.3824  137.9042  155.7482 H   0  0  0  0  0  0  0  0  0  0  0  0
  150.6397  138.4673  153.8840 H   0  0  0  0  0  0  0  0  0  0  0  0
  149.9339  138.8597  157.6104 H   0  0  0  0  0  0  0  0  0  0  0  0
  149.3437  140.0570  156.4967 H   0  0  0  0  0  0  0  0  0  0  0  0
  147.3683  139.5717  155.2866 H   0  0  0  0  0  0  0  0  0  0  0  0
  148.4980  138.8154  154.1858 H   0  0  0  0  0  0  0  0  0  0  0  0
  145.9933  137.5275  155.3981 H   0  0  0  0  0  0  0  0  0  0  0  0
  146.2230  138.0008  153.7244 H   0  0  0  0  0  0  0  0  0  0  0  0
  147.3281  135.6832  156.2467 H   0  0  0  0  0  0  0  0  0  0  0  0
  149.6618  134.4938  154.9484 H   0  0  0  0  0  0  0  0  0  0  0  0
  148.3417  133.6616  155.7209 H   0  0  0  0  0  0  0  0  0  0  0  0
  146.3562  133.0018  154.2646 H   0  0  0  0  0  0  0  0  0  0  0  0
  146.3985  133.3996  152.5441 H   0  0  0  0  0  0  0  0  0  0  0  0
  146.0919  134.6651  153.7140 H   0  0  0  0  0  0  0  0  0  0  0  0
  148.7740  131.9938  153.7294 H   0  0  0  0  0  0  0  0  0  0  0  0
  149.9734  133.1231  153.0872 H   0  0  0  0  0  0  0  0  0  0  0  0
  148.6109  132.6339  152.0894 H   0  0  0  0  0  0  0  0  0  0  0  0
  149.8551  136.9006  154.9903 H   0  0  0  0  0  0  0  0  0  0  0  0
  149.7183  136.4108  156.6579 H   0  0  0  0  0  0  0  0  0  0  0  0
  153.1693  140.2414  158.9080 H   0  0  0  0  0  0  0  0  0  0  0  0
  154.1088  140.5405  161.0422 H   0  0  0  0  0  0  0  0  0  0  0  0
  153.0249  141.3434  162.1758 H   0  0  0  0  0  0  0  0  0  0  0  0
  154.4250  142.2052  161.5199 H   0  0  0  0  0  0  0  0  0  0  0  0
  148.3113  134.7942  153.0119 H   0  0  0  0  0  0  0  0  0  0  0  0
  149.9646  143.9116  156.5803 H   0  0  0  0  0  0  0  0  0  0  0  0
  1  2  1  0  0  0  0
  1 26  1  0  0  0  0
  1 27  1  0  0  0  0
  1 28  1  0  0  0  0
  2 24  1  0  0  0  0
  2  3  2  0  0  0  0
  3  4  1  0  0  0  0
  3 29  1  0  0  0  0
  4 22  2  0  0  0  0
  4  5  1  0  0  0  0
  5  6  2  0  0  0  0
  5 57  1  0  0  0  0
  6  7  1  0  0  0  0
  6 30  1  0  0  0  0
  7  8  1  0  0  0  0
  7 22  1  0  0  0  0
  8  9  1  0  0  0  0
  8 31  1  0  0  0  0
  8 32  1  0  0  0  0
  9 10  1  0  0  0  0
  9 11  1  0  0  0  0
  9 33  1  0  0  0  0
 10 34  1  0  0  0  0
 11 12  1  0  0  0  0
 11 35  1  0  0  0  0
 11 36  1  0  0  0  0
 12 21  1  0  0  0  0
 12 13  1  0  0  0  0
 13 14  1  0  0  0  0
 13 37  1  0  0  0  0
 13 38  1  0  0  0  0
 14 15  1  0  0  0  0
 14 39  1  0  0  0  0
 14 40  1  0  0  0  0
 15 16  1  0  0  0  0
 16 17  1  0  0  0  0
 16 21  1  0  0  0  0
 16 41  1  0  0  0  0
 17 18  1  0  0  0  0
 17 42  1  0  0  0  0
 17 43  1  0  0  0  0
 18 19  1  0  0  0  0
 18 20  1  0  0  0  0
 18 56  1  0  0  0  0
 19 44  1  0  0  0  0
 19 45  1  0  0  0  0
 19 46  1  0  0  0  0
 20 47  1  0  0  0  0
 20 48  1  0  0  0  0
 20 49  1  0  0  0  0
 21 50  1  0  0  0  0
 21 51  1  0  0  0  0
 22 23  1  0  0  0  0
 23 24  2  0  0  0  0
 23 52  1  0  0  0  0
 24 25  1  0  0  0  0
 25 53  1  0  0  0  0
 25 54  1  0  0  0  0
 25 55  1  0  0  0  0
M  CHG  1   5   1
M  CHG  1  18   1
M  END
> <s_m_source_file>
AV-unprocessed.smi

> <i_m_source_file_index>
1005

> <i_lp_mmshare_version>
43012

> <i_f3d_flags>
0

> <s_epik_input>
W0NIM11jKFtjSF0xKWMoW0NIM10pW2NIXWMoYzEyKW4oW2NIXW4yKVtDSDJdW0NASF0oW09IXSlbQ0gyXU4zW0NIMl1bQ0gyXU9bQ0BIXShbQ0gyXTMpW0NIMl1OKFtDSDNdKVtDSDNd

> <s_epik_cmdline>
J2VwaWtfcHl0aG9uJywgJy1waCcsICc3LjAnLCAnLXRuJywgJzgnLCAnLW1hJywgJzIwMCcsICctbWV0YWxfYmluZGluZycsICctaW1hZScsICc8aW5maWxlLm1hZT4nLCAnLW9tYWUnLCAnPG91dGZpbGUubWFlPic=

> <r_epik_Ionization_Penalty>
1.3281

> <r_epik_Ionization_Penalty_Charging>
1.21988

> <r_epik_Ionization_Penalty_Neutral>
0.10822

> <r_epik_State_Penalty>
1.32886

> <r_epik_Charging_Adjusted_Penalty>
2.54875

> <i_epik_Tot_Q>
2

> <i_epik_Tot_abs_Q>
2

> <r_epik_Metal_State_Penalty>
5.33912

> <b_epik_Metal_Only>
0

> <s_lp_Force_Field>
OPLS_2005

> <r_lp_Energy>
44.7977

> <b_lp_Chiralities_Consistent>
1

> <s_lp_Variant>
AV-unprocessed.smi:1005-13

> <Gold.Version>
5.8.1

> <Gold.Id.Protein>
6NUR|6NUR_protein|mol2

> <Gold.PLP.Fitness>
54.1472

> <Gold.PLP.PLP>
-41.6792

> <Gold.PLP.part.hbond>
-3.0000

> <Gold.PLP.part.metal>
0.0000

> <Gold.PLP.part.buried>
-6.4636

> <Gold.PLP.part.nonpolar>
-31.7756

> <Gold.PLP.part.repulsive>
1.1658

> <Gold.PLP.ligand.clash>
0.0000

> <Gold.PLP.ligand.torsion>
1.2972

> <Gold.PLP.Chemscore.Hbond>
4.9520

> <Gold.PLP.Chemscore.CHOScore>
0.0000

> <Gold.PLP.Chemscore.Metal>
0.0000

> <Gold.Chemscore.Hbonds>
donor molecule, donor type, donor heavy atom, donor atom, acceptor molecule, acceptor atom, score
      L1  H     5    57       P1  8028  2.00
      L1  H    18    56       P1  7948  2.00
      P1  H  7989  7998       L1    10  0.94

> <Gold.PLP.Chemscore.Internal.Correction>
0.2064

> <Gold.Rescore>
     Score         DG    S(hbond)    S(metal)    S(lipo)     H(rot)  DE(clash)    DE(int)     intcor
     18.03     -21.78       2.78        0.00     114.33       2.49       0.33       3.42       ----

> <Gold.Chemscore.Fitness>
18.0285

> <Gold.Chemscore.DG>
-21.7804

> <Gold.Chemscore.ZeroCoef>
-5.4800

> <Gold.Chemscore.Hbond>
2.7838

> <Gold.Chemscore.Metal>
0.0000

> <Gold.Chemscore.Lipo>
114.3272

> <Gold.Chemscore.Internal_Hbond>
0.0000

> <Gold.Chemscore.DEClash>
0.3328

> <Gold.Chemscore.DEInternal>
3.4191

> <Gold.Chemscore.Rot>
2.4897

> <Gold.Chemscore.Internal.Correction>
   9.000000E+99

> <Gold.Chemscore.Hbonds>
donor molecule, donor type, donor heavy atom, donor atom, acceptor molecule, acceptor atom, score
      L1  H     5    57       P1  8028  0.98
      L1  H    18    56       P1  7948  0.70
      P1  H  7989  7998       L1    10  0.84

> <Gold.Chemscore.Hbond.Weighted>
-9.2978

> <Gold.Chemscore.Metal.Weighted>
-0.0000

> <Gold.Chemscore.Lipo.Weighted>
-13.3763

> <Gold.Chemscore.Internal_Hbond.Weighted>
0.0000

> <Gold.Chemscore.DEClash.Weighted>
0.3328

> <Gold.Chemscore.DEInternal.Weighted>
3.4191

> <Gold.Chemscore.Rot.Weighted>
6.3737

> <Gold.Chemscore.Internal.Correction.Weighted>
   9.000000E+99

> <Gold.Protein.RotatedTorsions>
[ 6907 6896 6895 6894 ] final -165.80 input  -60.11 | X-H torsion
[ 7974 7965 7964 7962 ] final -170.70 input  175.53 | X-H torsion
[ 8008 7997 7996 7995 ] final   81.01 input   59.86 | X-H torsion
[ 10167 10162 10161 10158 ] final  -49.13 input  -65.29 | X-H torsion
[ 10718 10713 10712 10709 ] final  -15.72 input   66.30 | X-H torsion
[ 10763 10752 10751 10750 ] final -119.88 input  -60.55 | X-H torsion
[ 11005 11000 10999 10996 ] final  112.64 input  -57.11 | X-H torsion

> <Gold.Protein.ActiveResidues>
 VAL166  LYS551  ARG553  GLY616  TRP617  ASP618  TYR619  PRO620  LYS621  CYS622 
 ASP623  PHE694  ASN695  SER759  ASP760  ASP761  ALA762  ILE779  LEU786  VAL792 
 PHE793  MET794  SER795  GLU796  ALA797  LYS798  CYS799  TRP800  GLU811  SER814 

> <Gold.Protein.RotatedAtoms>
  151.4335  133.3663  159.2771 H   0  0  0  0  0  0  0  0  0  0  0  0  # atno 6907 bound_to 6896
  150.9208  134.8627  159.7498 H   0  0  0  0  0  0  0  0  0  0  0  0  # atno 6908 bound_to 6896
  152.4981  134.4272  159.9552 H   0  0  0  0  0  0  0  0  0  0  0  0  # atno 6909 bound_to 6896
  144.7166  140.2033  143.6336 H   0  0  0  0  0  0  0  0  0  0  0  0  # atno 7974 bound_to 7965
  155.8913  140.3438  155.5958 H   0  0  0  0  0  0  0  0  0  0  0  0  # atno 8008 bound_to 7997
  155.7608  140.0832  157.2175 H   0  0  0  0  0  0  0  0  0  0  0  0  # atno 8009 bound_to 7997
  154.4033  140.1536  156.2817 H   0  0  0  0  0  0  0  0  0  0  0  0  # atno 8010 bound_to 7997
  140.6699  143.2711  151.4170 H   0  0  0  0  0  0  0  0  0  0  0  0  # atno 10167 bound_to 10162
  156.5977  130.4816  149.6253 H   0  0  0  0  0  0  0  0  0  0  0  0  # atno 10718 bound_to 10713
  154.8629  135.4223  154.2369 H   0  0  0  0  0  0  0  0  0  0  0  0  # atno 10763 bound_to 10752
  153.3343  135.6990  153.6927 H   0  0  0  0  0  0  0  0  0  0  0  0  # atno 10764 bound_to 10752
  153.5931  135.3551  155.2891 H   0  0  0  0  0  0  0  0  0  0  0  0  # atno 10765 bound_to 10752
  139.8932  134.9534  156.6617 H   0  0  0  0  0  0  0  0  0  0  0  0  # atno 11005 bound_to 11000
  145.8659  139.2247  143.1689 LP  0  0  0  0  0  0  0  0  0  0  0  0  # atno 17320 bound_to 7965
  146.0130  140.8418  142.9961 LP  0  0  0  0  0  0  0  0  0  0  0  0  # atno 17321 bound_to 7965
  139.5963  144.1389  152.2148 LP  0  0  0  0  0  0  0  0  0  0  0  0  # atno 17342 bound_to 10162
  140.0760  144.5740  150.7157 LP  0  0  0  0  0  0  0  0  0  0  0  0  # atno 17343 bound_to 10162
  156.2496  130.6899  151.1632 LP  0  0  0  0  0  0  0  0  0  0  0  0  # atno 17370 bound_to 10713
  157.7287  131.0629  150.5805 LP  0  0  0  0  0  0  0  0  0  0  0  0  # atno 17371 bound_to 10713
  140.7442  133.8952  155.8300 LP  0  0  0  0  0  0  0  0  0  0  0  0  # atno 17394 bound_to 11000
  141.0053  134.1094  157.4276 LP  0  0  0  0  0  0  0  0  0  0  0  0  # atno 17395 bound_to 11000

$$$$
