AV-unprocessed.smi:247|AV-procd|sdf|1889|dock7
  -GOLD-   2262020553D 1   1.00000     0.00000
 Structure written by MMmdl.
 61 65  0  0  0  0  0  0  0  0  1 V2000
  152.4046  137.1951  154.2127 O   0  0  0  0  0  0  0  0  0  0  0  0
  152.2561  138.0140  155.3560 C   0  0  0  0  0  0  0  0  0  0  0  0
  150.8691  138.7105  155.4423 C   0  0  0  0  0  0  0  0  0  0  0  0
  150.7107  139.3324  156.8660 C   0  0  0  0  0  0  0  0  0  0  0  0
  150.2688  138.4068  157.8998 N   0  0  0  0  0  0  0  0  0  0  0  0
  151.0677  137.6743  158.7493 C   0  0  0  0  0  0  0  0  0  0  0  0
  150.4306  136.9126  159.5958 N   0  0  0  0  0  0  0  0  0  0  0  0
  149.0891  137.1541  159.3264 C   0  0  0  0  0  0  0  0  0  0  0  0
  147.8672  136.6603  159.8620 C   0  0  0  0  0  0  0  0  0  0  0  0
  147.8325  135.7532  160.8700 N   0  0  0  0  0  0  0  0  0  0  0  0
  147.7315  136.3181  162.2058 C   0  0  0  0  0  0  0  0  0  0  0  0
  147.4267  135.1314  163.1119 C   0  0  0  0  0  0  0  0  0  0  0  0
  146.5638  134.2342  162.2273 C   0  0  0  0  0  0  0  0  0  0  0  0
  147.0168  134.5357  160.7849 C   0  0  2  0  0  0  0  0  0  0  0  0
  147.7626  133.3491  160.1089 C   0  0  2  0  0  0  0  0  0  0  0  0
  148.6173  132.5283  161.1054 C   0  0  0  0  0  0  0  0  0  0  0  0
  149.2180  131.4127  160.4571 O   0  0  0  0  0  0  0  0  0  0  0  0
  150.1183  131.7889  159.4225 C   0  0  0  0  0  0  0  0  0  0  0  0
  149.3502  132.5319  158.3214 C   0  0  0  0  0  0  0  0  0  0  0  0
  148.6381  133.7603  158.9031 C   0  0  1  0  0  0  0  0  0  0  0  0
  147.8504  134.3435  157.8842 O   0  0  0  0  0  0  0  0  0  0  0  0
  146.7121  137.1357  159.3260 N   0  0  0  0  0  0  0  0  0  0  0  0
  146.7452  138.0303  158.3346 C   0  0  0  0  0  0  0  0  0  0  0  0
  147.8071  138.5738  157.7375 N   0  0  0  0  0  0  0  0  0  0  0  0
  148.9701  138.0978  158.2676 C   0  0  0  0  0  0  0  0  0  0  0  0
  150.7482  139.7793  154.3251 C   0  0  0  0  0  0  0  0  0  0  0  0
  149.3207  140.3425  154.2050 C   0  0  0  0  0  0  0  0  0  0  0  0
  148.4014  139.2826  153.9704 O   0  0  0  0  0  0  0  0  0  0  0  0
  148.3559  138.3379  155.0330 C   0  0  0  0  0  0  0  0  0  0  0  0
  149.7355  137.6767  155.2168 C   0  0  0  0  0  0  0  0  0  0  0  0
  151.6286  137.2796  153.6800 H   0  0  0  0  0  0  0  0  0  0  0  0
  152.4249  137.3948  156.2374 H   0  0  0  0  0  0  0  0  0  0  0  0
  153.0589  138.7508  155.3281 H   0  0  0  0  0  0  0  0  0  0  0  0
  151.6411  139.7789  157.2125 H   0  0  0  0  0  0  0  0  0  0  0  0
  149.9952  140.1549  156.8289 H   0  0  0  0  0  0  0  0  0  0  0  0
  152.1467  137.7156  158.7157 H   0  0  0  0  0  0  0  0  0  0  0  0
  148.6509  136.8188  162.5093 H   0  0  0  0  0  0  0  0  0  0  0  0
  146.9181  137.0448  162.2370 H   0  0  0  0  0  0  0  0  0  0  0  0
  148.3530  134.6178  163.3714 H   0  0  0  0  0  0  0  0  0  0  0  0
  146.9319  135.4220  164.0387 H   0  0  0  0  0  0  0  0  0  0  0  0
  146.6400  133.1812  162.5003 H   0  0  0  0  0  0  0  0  0  0  0  0
  145.5173  134.5196  162.3412 H   0  0  0  0  0  0  0  0  0  0  0  0
  146.1061  134.7281  160.2180 H   0  0  0  0  0  0  0  0  0  0  0  0
  146.9955  132.6756  159.7222 H   0  0  0  0  0  0  0  0  0  0  0  0
  149.3930  133.1436  161.5646 H   0  0  0  0  0  0  0  0  0  0  0  0
  147.9989  132.1453  161.9165 H   0  0  0  0  0  0  0  0  0  0  0  0
  150.9208  132.4083  159.8266 H   0  0  0  0  0  0  0  0  0  0  0  0
  150.5827  130.8905  159.0157 H   0  0  0  0  0  0  0  0  0  0  0  0
  150.0328  132.8310  157.5251 H   0  0  0  0  0  0  0  0  0  0  0  0
  148.6218  131.8547  157.8724 H   0  0  0  0  0  0  0  0  0  0  0  0
  149.3927  134.4829  159.2139 H   0  0  0  0  0  0  0  0  0  0  0  0
  148.1316  135.2381  157.7653 H   0  0  0  0  0  0  0  0  0  0  0  0
  145.7836  138.3549  157.9654 H   0  0  0  0  0  0  0  0  0  0  0  0
  151.4640  140.5872  154.4718 H   0  0  0  0  0  0  0  0  0  0  0  0
  151.0050  139.3372  153.3620 H   0  0  0  0  0  0  0  0  0  0  0  0
  149.0321  140.9045  155.0934 H   0  0  0  0  0  0  0  0  0  0  0  0
  149.2672  141.0378  153.3674 H   0  0  0  0  0  0  0  0  0  0  0  0
  148.0107  138.8179  155.9489 H   0  0  0  0  0  0  0  0  0  0  0  0
  147.6139  137.5782  154.7868 H   0  0  0  0  0  0  0  0  0  0  0  0
  149.9337  137.0888  154.3203 H   0  0  0  0  0  0  0  0  0  0  0  0
  149.7002  136.9627  156.0403 H   0  0  0  0  0  0  0  0  0  0  0  0
  1  2  1  0  0  0  0
  1 31  1  0  0  0  0
  2  3  1  0  0  0  0
  2 32  1  0  0  0  0
  2 33  1  0  0  0  0
  3 30  1  0  0  0  0
  3  4  1  0  0  0  0
  3 26  1  0  0  0  0
  4  5  1  0  0  0  0
  4 34  1  0  0  0  0
  4 35  1  0  0  0  0
  5 25  1  0  0  0  0
  5  6  1  0  0  0  0
  6  7  2  0  0  0  0
  6 36  1  0  0  0  0
  7  8  1  0  0  0  0
  8 25  2  0  0  0  0
  8  9  1  0  0  0  0
  9 10  1  0  0  0  0
  9 22  2  0  0  0  0
 10 14  1  0  0  0  0
 10 11  1  0  0  0  0
 11 12  1  0  0  0  0
 11 37  1  0  0  0  0
 11 38  1  0  0  0  0
 12 13  1  0  0  0  0
 12 39  1  0  0  0  0
 12 40  1  0  0  0  0
 13 14  1  0  0  0  0
 13 41  1  0  0  0  0
 13 42  1  0  0  0  0
 14 15  1  0  0  0  0
 14 43  1  0  0  0  0
 15 20  1  0  0  0  0
 15 16  1  0  0  0  0
 15 44  1  0  0  0  0
 16 17  1  0  0  0  0
 16 45  1  0  0  0  0
 16 46  1  0  0  0  0
 17 18  1  0  0  0  0
 18 19  1  0  0  0  0
 18 47  1  0  0  0  0
 18 48  1  0  0  0  0
 19 20  1  0  0  0  0
 19 49  1  0  0  0  0
 19 50  1  0  0  0  0
 20 21  1  0  0  0  0
 20 51  1  0  0  0  0
 21 52  1  0  0  0  0
 22 23  1  0  0  0  0
 23 24  2  0  0  0  0
 23 53  1  0  0  0  0
 24 25  1  0  0  0  0
 26 27  1  0  0  0  0
 26 54  1  0  0  0  0
 26 55  1  0  0  0  0
 27 28  1  0  0  0  0
 27 56  1  0  0  0  0
 27 57  1  0  0  0  0
 28 29  1  0  0  0  0
 29 30  1  0  0  0  0
 29 58  1  0  0  0  0
 29 59  1  0  0  0  0
 30 60  1  0  0  0  0
 30 61  1  0  0  0  0
M  END
> <s_m_source_file>
AV-unprocessed.smi

> <i_m_source_file_index>
247

> <i_lp_mmshare_version>
43012

> <i_f3d_flags>
0

> <s_epik_input>
W0NIMl0xW0NIMl1PW0NIMl1bQ0gyXUMxKFtDSDJdW09IXSlbQ0gyXW4oW2NIXW4yKWMoYzIzKW5bY0hdbmMzTjRbQ0gyXVtDSDJdW0NIMl1bQ0BIXTRbQ0BASF01W0NIMl1PW0NIMl1bQ0gyXVtDQEhdNVtPSF0=

> <s_epik_cmdline>
J2VwaWtfcHl0aG9uJywgJy1waCcsICc3LjAnLCAnLXRuJywgJzgnLCAnLW1hJywgJzIwMCcsICctbWV0YWxfYmluZGluZycsICctaW1hZScsICc8aW5maWxlLm1hZT4nLCAnLW9tYWUnLCAnPG91dGZpbGUubWFlPic=

> <r_lp_tautomer_probability>
1

> <r_epik_Ionization_Penalty>
0.00362597

> <r_epik_Ionization_Penalty_Charging>
0

> <r_epik_Ionization_Penalty_Neutral>
0.00362597

> <r_epik_State_Penalty>
0.00241433

> <r_epik_Charging_Adjusted_Penalty>
0.00241433

> <i_epik_Tot_Q>
0

> <i_epik_Tot_abs_Q>
0

> <r_epik_Metal_State_Penalty>
-0

> <b_epik_Metal_Only>
0

> <s_lp_Force_Field>
OPLS_2005

> <r_lp_Energy>
60.2507

> <b_lp_Chiralities_Consistent>
1

> <s_lp_Variant>
AV-unprocessed.smi:247-2

> <Gold.Version>
5.8.1

> <Gold.Id.Protein>
6NUR|6NUR_protein|mol2

> <Gold.PLP.Fitness>
40.5461

> <Gold.PLP.PLP>
-37.5353

> <Gold.PLP.part.hbond>
-4.3159

> <Gold.PLP.part.metal>
0.0000

> <Gold.PLP.part.buried>
-1.3506

> <Gold.PLP.part.nonpolar>
-32.4580

> <Gold.PLP.part.repulsive>
0.1215

> <Gold.PLP.ligand.clash>
0.0000

> <Gold.PLP.ligand.torsion>
1.7618

> <Gold.PLP.Chemscore.Hbond>
2.0728

> <Gold.PLP.Chemscore.CHOScore>
0.0000

> <Gold.PLP.Chemscore.Metal>
0.0000

> <Gold.Chemscore.Hbonds>
donor molecule, donor type, donor heavy atom, donor atom, acceptor molecule, acceptor atom, score
      P1  H  6896  6907       L1     7  0.83
      P1  H 10752 10765       L1     1  0.77

> <Gold.PLP.Chemscore.Internal.Correction>
0.3160

> <Gold.Rescore>
     Score         DG    S(hbond)    S(metal)    S(lipo)     H(rot)  DE(clash)    DE(int)     intcor
     11.32     -14.24       1.90        0.00      91.36       3.23       1.65       1.27       ----

> <Gold.Chemscore.Fitness>
11.3169

> <Gold.Chemscore.DG>
-14.2413

> <Gold.Chemscore.ZeroCoef>
-5.4800

> <Gold.Chemscore.Hbond>
1.8969

> <Gold.Chemscore.Metal>
0.0000

> <Gold.Chemscore.Lipo>
91.3599

> <Gold.Chemscore.Internal_Hbond>
0.0000

> <Gold.Chemscore.DEClash>
1.6501

> <Gold.Chemscore.DEInternal>
1.2743

> <Gold.Chemscore.Rot>
3.2278

> <Gold.Chemscore.Internal.Correction>
   9.000000E+99

> <Gold.Chemscore.Hbonds>
donor molecule, donor type, donor heavy atom, donor atom, acceptor molecule, acceptor atom, score
      P1  H  6896  6907       L1     7  0.62
      P1  H 10752 10765       L1     1  0.60

> <Gold.Chemscore.Hbond.Weighted>
-6.3355

> <Gold.Chemscore.Metal.Weighted>
-0.0000

> <Gold.Chemscore.Lipo.Weighted>
-10.6891

> <Gold.Chemscore.Internal_Hbond.Weighted>
0.0000

> <Gold.Chemscore.DEClash.Weighted>
1.6501

> <Gold.Chemscore.DEInternal.Weighted>
1.2743

> <Gold.Chemscore.Rot.Weighted>
8.2633

> <Gold.Chemscore.Internal.Correction.Weighted>
   9.000000E+99

> <Gold.Protein.RotatedTorsions>
[ 6907 6896 6895 6894 ] final  -50.19 input  -60.11 | X-H torsion
[ 7974 7965 7964 7962 ] final  177.47 input  175.53 | X-H torsion
[ 8008 7997 7996 7995 ] final -175.11 input   59.86 | X-H torsion
[ 10167 10162 10161 10158 ] final -138.42 input  -65.29 | X-H torsion
[ 10718 10713 10712 10709 ] final   86.84 input   66.30 | X-H torsion
[ 10763 10752 10751 10750 ] final  148.01 input  -60.55 | X-H torsion
[ 11005 11000 10999 10996 ] final   86.27 input  -57.11 | X-H torsion

> <Gold.Protein.ActiveResidues>
 VAL166  LYS551  ARG553  GLY616  TRP617  ASP618  TYR619  PRO620  LYS621  CYS622 
 ASP623  PHE694  ASN695  SER759  ASP760  ASP761  ALA762  ILE779  LEU786  VAL792 
 PHE793  MET794  SER795  GLU796  ALA797  LYS798  CYS799  TRP800  GLU811  SER814 

> <Gold.Protein.RotatedAtoms>
  150.8731  134.8109  159.7169 H   0  0  0  0  0  0  0  0  0  0  0  0  # atno 6907 bound_to 6896
  152.4728  134.4915  159.9706 H   0  0  0  0  0  0  0  0  0  0  0  0  # atno 6908 bound_to 6896
  151.5000  133.3468  159.2903 H   0  0  0  0  0  0  0  0  0  0  0  0  # atno 6909 bound_to 6896
  144.7168  140.0252  143.6439 H   0  0  0  0  0  0  0  0  0  0  0  0  # atno 7974 bound_to 7965
  155.9784  140.1177  157.0748 H   0  0  0  0  0  0  0  0  0  0  0  0  # atno 8008 bound_to 7997
  154.4176  140.1149  156.5470 H   0  0  0  0  0  0  0  0  0  0  0  0  # atno 8009 bound_to 7997
  155.6503  140.3473  155.4748 H   0  0  0  0  0  0  0  0  0  0  0  0  # atno 8010 bound_to 7997
  139.8479  143.7236  152.2659 H   0  0  0  0  0  0  0  0  0  0  0  0  # atno 10167 bound_to 10162
  157.6933  131.0231  150.3033 H   0  0  0  0  0  0  0  0  0  0  0  0  # atno 10718 bound_to 10713
  154.0478  135.2884  155.3345 H   0  0  0  0  0  0  0  0  0  0  0  0  # atno 10763 bound_to 10752
  154.6888  135.5234  153.8367 H   0  0  0  0  0  0  0  0  0  0  0  0  # atno 10764 bound_to 10752
  153.0573  135.6600  154.0677 H   0  0  0  0  0  0  0  0  0  0  0  0  # atno 10765 bound_to 10752
  139.8949  134.8344  156.2698 H   0  0  0  0  0  0  0  0  0  0  0  0  # atno 11005 bound_to 11000
  146.0147  139.3200  143.0849 LP  0  0  0  0  0  0  0  0  0  0  0  0  # atno 17320 bound_to 7965
  145.8639  140.9459  143.0685 LP  0  0  0  0  0  0  0  0  0  0  0  0  # atno 17321 bound_to 7965
  139.7494  144.7538  151.0530 LP  0  0  0  0  0  0  0  0  0  0  0  0  # atno 17342 bound_to 10162
  140.7791  143.4878  150.9933 LP  0  0  0  0  0  0  0  0  0  0  0  0  # atno 17343 bound_to 10162
  156.3545  130.3836  149.7301 LP  0  0  0  0  0  0  0  0  0  0  0  0  # atno 17370 bound_to 10713
  156.4768  130.8022  151.3038 LP  0  0  0  0  0  0  0  0  0  0  0  0  # atno 17371 bound_to 10713
  141.0108  133.7097  156.1109 LP  0  0  0  0  0  0  0  0  0  0  0  0  # atno 17394 bound_to 11000
  140.7370  134.4192  157.5559 LP  0  0  0  0  0  0  0  0  0  0  0  0  # atno 17395 bound_to 11000

$$$$
