AV-unprocessed.smi:1208|AV-procd|sdf|5065|dock2
  -GOLD-   22720 4103D 1   1.00000     0.00000
 Structure written by MMmdl.
 36 37  0  0  0  0  0  0  0  0  1 V2000
  154.0184  141.9398  160.0327 C   0  0  0  0  0  0  0  0  0  0  0  0
  152.5056  141.9775  159.7565 C   0  0  2  0  0  0  0  0  0  0  0  0
  152.2336  141.3779  158.4529 N   0  0  0  0  0  0  0  0  0  0  0  0
  152.7022  140.1955  158.0253 C   0  0  0  0  0  0  0  0  0  0  0  0
  153.4602  139.4872  158.6893 O   0  0  0  0  0  0  0  0  0  0  0  0
  152.2632  139.7640  156.6188 C   0  0  0  0  0  0  0  0  0  0  0  0
  150.8843  140.1615  156.3017 N   0  0  0  0  0  0  0  0  0  0  0  0
  150.7347  140.7518  155.0558 N   0  0  0  0  0  0  0  0  0  0  0  0
  149.5668  141.1289  154.6576 C   0  0  0  0  0  0  0  0  0  0  0  0
  149.4633  141.7054  153.4156 O   0  0  0  0  0  0  0  0  0  0  0  0
  148.3980  140.9521  155.4910 C   0  0  0  0  0  0  0  0  0  0  0  0
  148.5549  140.3820  156.7057 C   0  0  0  0  0  0  0  0  0  0  0  0
  149.8654  139.9440  157.1894 C   0  0  0  0  0  0  0  0  0  0  0  0
  150.0381  139.4269  158.2930 O   0  0  0  0  0  0  0  0  0  0  0  0
  151.9377  143.4099  159.7813 C   0  0  2  0  0  0  0  0  0  0  0  0
  152.8086  144.4526  159.0757 C   0  0  0  0  0  0  0  0  0  0  0  0
  152.4301  145.7208  159.8048 C   0  0  0  0  0  0  0  0  0  0  0  0
  152.2937  145.2158  161.2360 C   0  0  0  0  0  0  0  0  0  0  0  0
  151.8251  143.8751  161.1268 O   0  0  0  0  0  0  0  0  0  0  0  0
  149.5660  140.9953  152.8007 H   0  0  0  0  0  0  0  0  0  0  0  0
  154.2522  142.3383  161.0199 H   0  0  0  0  0  0  0  0  0  0  0  0
  154.5704  142.5262  159.2975 H   0  0  0  0  0  0  0  0  0  0  0  0
  154.4001  140.9189  159.9984 H   0  0  0  0  0  0  0  0  0  0  0  0
  151.9970  141.4010  160.5314 H   0  0  0  0  0  0  0  0  0  0  0  0
  151.6161  141.8906  157.8401 H   0  0  0  0  0  0  0  0  0  0  0  0
  152.9486  140.1711  155.8726 H   0  0  0  0  0  0  0  0  0  0  0  0
  152.3696  138.6798  156.5526 H   0  0  0  0  0  0  0  0  0  0  0  0
  147.4273  141.2715  155.1416 H   0  0  0  0  0  0  0  0  0  0  0  0
  147.6907  140.2433  157.3387 H   0  0  0  0  0  0  0  0  0  0  0  0
  150.9377  143.4281  159.3445 H   0  0  0  0  0  0  0  0  0  0  0  0
  153.8677  144.2400  159.2298 H   0  0  0  0  0  0  0  0  0  0  0  0
  152.6236  144.5065  158.0025 H   0  0  0  0  0  0  0  0  0  0  0  0
  153.1691  146.5156  159.7004 H   0  0  0  0  0  0  0  0  0  0  0  0
  151.4707  146.0920  159.4417 H   0  0  0  0  0  0  0  0  0  0  0  0
  153.2668  145.2023  161.7284 H   0  0  0  0  0  0  0  0  0  0  0  0
  151.6188  145.8284  161.8340 H   0  0  0  0  0  0  0  0  0  0  0  0
  1  2  1  0  0  0  0
  1 21  1  0  0  0  0
  1 22  1  0  0  0  0
  1 23  1  0  0  0  0
  2  3  1  0  0  0  0
  2 15  1  0  0  0  0
  2 24  1  0  0  0  0
  3  4  1  0  0  0  0
  3 25  1  0  0  0  0
  4  5  2  0  0  0  0
  4  6  1  0  0  0  0
  6 26  1  0  0  0  0
  6 27  1  0  0  0  0
  6  7  1  0  0  0  0
  7  8  1  0  0  0  0
  7 13  1  0  0  0  0
  8  9  2  0  0  0  0
  9 10  1  0  0  0  0
  9 11  1  0  0  0  0
 10 20  1  0  0  0  0
 11 28  1  0  0  0  0
 11 12  2  0  0  0  0
 12 29  1  0  0  0  0
 12 13  1  0  0  0  0
 13 14  2  0  0  0  0
 15 19  1  0  0  0  0
 15 16  1  0  0  0  0
 15 30  1  0  0  0  0
 16 17  1  0  0  0  0
 16 31  1  0  0  0  0
 16 32  1  0  0  0  0
 17 18  1  0  0  0  0
 17 33  1  0  0  0  0
 17 34  1  0  0  0  0
 18 19  1  0  0  0  0
 18 35  1  0  0  0  0
 18 36  1  0  0  0  0
M  END
> <s_m_source_file>
AV-unprocessed.smi

> <i_m_source_file_index>
1208

> <i_lp_mmshare_version>
43012

> <i_f3d_flags>
0

> <s_epik_input>
TzFbQ0gyXVtDSDJdW0NIMl1bQ0BIXTFbQ0BIXShbQ0gzXSlbTkhdQyg9TylbQ0gyXW4yW25IXWMoPU8pW2NIXVtjSF1jMj1P

> <s_epik_cmdline>
J2VwaWtfcHl0aG9uJywgJy1waCcsICc3LjAnLCAnLXRuJywgJzgnLCAnLW1hJywgJzIwMCcsICctbWV0YWxfYmluZGluZycsICctaW1hZScsICc8aW5maWxlLm1hZT4nLCAnLW9tYWUnLCAnPG91dGZpbGUubWFlPic=

> <r_lp_tautomer_probability>
0.9996

> <r_epik_Ionization_Penalty>
2.12735

> <r_epik_Ionization_Penalty_Charging>
3.86665e-08

> <r_epik_Ionization_Penalty_Neutral>
2.12735

> <r_epik_State_Penalty>
1.70441

> <r_epik_Charging_Adjusted_Penalty>
1.70441

> <i_epik_Tot_Q>
0

> <i_epik_Tot_abs_Q>
0

> <r_epik_Metal_State_Penalty>
1.70441

> <b_epik_Metal_Only>
0

> <s_lp_Force_Field>
OPLS_2005

> <r_lp_Energy>
29.6219

> <b_lp_Chiralities_Consistent>
1

> <s_lp_Variant>
AV-unprocessed.smi:1208-5

> <Gold.Version>
5.8.1

> <Gold.Id.Protein>
6NUR|6NUR_protein|mol2

> <Gold.PLP.Fitness>
44.7040

> <Gold.PLP.PLP>
-35.8748

> <Gold.PLP.part.hbond>
-4.6616

> <Gold.PLP.part.metal>
0.0000

> <Gold.PLP.part.buried>
-0.3022

> <Gold.PLP.part.nonpolar>
-29.6526

> <Gold.PLP.part.repulsive>
0.2893

> <Gold.PLP.ligand.clash>
0.0000

> <Gold.PLP.ligand.torsion>
0.8635

> <Gold.PLP.Chemscore.Hbond>
3.5100

> <Gold.PLP.Chemscore.CHOScore>
0.0000

> <Gold.PLP.Chemscore.Metal>
0.0000

> <Gold.Chemscore.Hbonds>
donor molecule, donor type, donor heavy atom, donor atom, acceptor molecule, acceptor atom, score
      L1  H    10    20       P1  7957  1.00
      P1  H  7989  7998       L1     8  0.82
      P1  H  7997  8010       L1     5  0.20
      P1  H  8011  8017       L1    10  0.04

> <Gold.PLP.Chemscore.Internal.Correction>
0.0263

> <Gold.Rescore>
     Score         DG    S(hbond)    S(metal)    S(lipo)     H(rot)  DE(clash)    DE(int)     intcor
     11.45     -15.01       1.96        0.00      83.11       2.63       0.20       3.36       ----

> <Gold.Chemscore.Fitness>
11.4474

> <Gold.Chemscore.DG>
-15.0098

> <Gold.Chemscore.ZeroCoef>
-5.4800

> <Gold.Chemscore.Hbond>
1.9550

> <Gold.Chemscore.Metal>
0.0000

> <Gold.Chemscore.Lipo>
83.1079

> <Gold.Chemscore.Internal_Hbond>
0.0000

> <Gold.Chemscore.DEClash>
0.1974

> <Gold.Chemscore.DEInternal>
3.3649

> <Gold.Chemscore.Rot>
2.6264

> <Gold.Chemscore.Internal.Correction>
   9.000000E+99

> <Gold.Chemscore.Hbonds>
donor molecule, donor type, donor heavy atom, donor atom, acceptor molecule, acceptor atom, score
      L1  H    10    20       P1  7957  0.99
      P1  H  7989  7998       L1     8  0.18

> <Gold.Chemscore.Hbond.Weighted>
-6.5298

> <Gold.Chemscore.Metal.Weighted>
-0.0000

> <Gold.Chemscore.Lipo.Weighted>
-9.7236

> <Gold.Chemscore.Internal_Hbond.Weighted>
0.0000

> <Gold.Chemscore.DEClash.Weighted>
0.1974

> <Gold.Chemscore.DEInternal.Weighted>
3.3649

> <Gold.Chemscore.Rot.Weighted>
6.7237

> <Gold.Chemscore.Internal.Correction.Weighted>
   9.000000E+99

> <Gold.Protein.RotatedTorsions>
[ 6907 6896 6895 6894 ] final   68.75 input  -60.11 | X-H torsion
[ 7974 7965 7964 7962 ] final   21.19 input  175.53 | X-H torsion
[ 8008 7997 7996 7995 ] final    9.69 input   59.86 | X-H torsion
[ 10167 10162 10161 10158 ] final   90.53 input  -65.29 | X-H torsion
[ 10718 10713 10712 10709 ] final -131.49 input   66.30 | X-H torsion
[ 10763 10752 10751 10750 ] final -137.41 input  -60.55 | X-H torsion
[ 11005 11000 10999 10996 ] final  -63.24 input  -57.11 | X-H torsion

> <Gold.Protein.ActiveResidues>
 VAL166  LYS551  ARG553  GLY616  TRP617  ASP618  TYR619  PRO620  LYS621  CYS622 
 ASP623  PHE694  ASN695  SER759  ASP760  ASP761  ALA762  ILE779  LEU786  VAL792 
 PHE793  MET794  SER795  GLU796  ALA797  LYS798  CYS799  TRP800  GLU811  SER814 

> <Gold.Protein.RotatedAtoms>
  152.4641  134.5116  159.9755 H   0  0  0  0  0  0  0  0  0  0  0  0  # atno 6907 bound_to 6896
  151.5158  133.3470  159.2900 H   0  0  0  0  0  0  0  0  0  0  0  0  # atno 6908 bound_to 6896
  150.8617  134.8000  159.7150 H   0  0  0  0  0  0  0  0  0  0  0  0  # atno 6909 bound_to 6896
  146.2081  139.8062  142.8710 H   0  0  0  0  0  0  0  0  0  0  0  0  # atno 7974 bound_to 7965
  154.7834  140.2823  155.6046 H   0  0  0  0  0  0  0  0  0  0  0  0  # atno 8008 bound_to 7997
  156.2953  140.2618  156.2593 H   0  0  0  0  0  0  0  0  0  0  0  0  # atno 8009 bound_to 7997
  154.9757  140.0375  157.2244 H   0  0  0  0  0  0  0  0  0  0  0  0  # atno 8010 bound_to 7997
  139.8464  144.6615  150.9221 H   0  0  0  0  0  0  0  0  0  0  0  0  # atno 10167 bound_to 10162
  156.2249  130.7002  151.0796 H   0  0  0  0  0  0  0  0  0  0  0  0  # atno 10718 bound_to 10713
  154.8662  135.3643  154.5219 H   0  0  0  0  0  0  0  0  0  0  0  0  # atno 10763 bound_to 10752
  153.5849  135.7017  153.5452 H   0  0  0  0  0  0  0  0  0  0  0  0  # atno 10764 bound_to 10752
  153.3424  135.4094  155.1545 H   0  0  0  0  0  0  0  0  0  0  0  0  # atno 10765 bound_to 10752
  141.1386  133.6649  156.5650 H   0  0  0  0  0  0  0  0  0  0  0  0  # atno 11005 bound_to 11000
  145.3244  141.0252  143.3482 LP  0  0  0  0  0  0  0  0  0  0  0  0  # atno 17320 bound_to 7965
  144.8843  139.4860  143.6708 LP  0  0  0  0  0  0  0  0  0  0  0  0  # atno 17321 bound_to 7965
  140.7792  143.3866  151.1383 LP  0  0  0  0  0  0  0  0  0  0  0  0  # atno 17342 bound_to 10162
  139.7508  143.8782  152.3076 LP  0  0  0  0  0  0  0  0  0  0  0  0  # atno 17343 bound_to 10162
  157.7106  131.0736  150.6515 LP  0  0  0  0  0  0  0  0  0  0  0  0  # atno 17370 bound_to 10713
  156.6580  130.4504  149.5697 LP  0  0  0  0  0  0  0  0  0  0  0  0  # atno 17371 bound_to 10713
  140.3958  134.7400  157.4750 LP  0  0  0  0  0  0  0  0  0  0  0  0  # atno 17394 bound_to 11000
  140.0532  134.6100  155.8836 LP  0  0  0  0  0  0  0  0  0  0  0  0  # atno 17395 bound_to 11000

$$$$
