AV-unprocessed.smi:75|AV-procd|sdf|765|dock2
  -GOLD-   2262017103D 1   1.00000     0.00000
 Structure written by MMmdl.
 51 54  0  0  0  0  0  0  0  0  1 V2000
  151.8237  137.4695  153.9059 N   0  0  0  0  0  0  0  0  0  0  0  0
  151.4124  138.5370  154.5941 C   0  0  0  0  0  0  0  0  0  0  0  0
  152.1831  139.4435  154.9025 O   0  0  0  0  0  0  0  0  0  0  0  0
  149.9249  138.5658  154.9838 C   0  0  0  0  0  0  0  0  0  0  0  0
  149.0399  139.6458  154.2965 C   0  0  2  0  0  0  0  0  0  0  0  0
  149.5294  141.0783  154.6123 C   0  0  0  0  0  0  0  0  0  0  0  0
  148.7324  142.0292  153.9154 O   0  0  0  0  0  0  0  0  0  0  0  0
  147.3689  141.9694  154.3159 C   0  0  0  0  0  0  0  0  0  0  0  0
  146.8023  140.5832  153.9753 C   0  0  0  0  0  0  0  0  0  0  0  0
  147.6060  139.5389  154.5994 N   0  0  0  0  0  0  0  0  0  0  0  0
  147.0348  138.3239  154.4382 C   0  0  0  0  0  0  0  0  0  0  0  0
  146.9370  137.5407  155.5402 N   0  0  0  0  0  0  0  0  0  0  0  0
  146.3851  136.3273  155.4508 C   0  0  0  0  0  0  0  0  0  0  0  0
  145.8734  135.7192  154.3784 N   0  0  0  0  0  0  0  0  0  0  0  0
  145.9596  136.5097  153.2695 C   0  0  0  0  0  0  0  0  0  0  0  0
  146.5176  137.8181  153.2114 C   0  0  0  0  0  0  0  0  0  0  0  0
  146.4171  138.3180  151.9189 N   0  0  0  0  0  0  0  0  0  0  0  0
  145.8366  137.3596  151.2506 C   0  0  0  0  0  0  0  0  0  0  0  0
  145.5347  136.2318  151.9811 N   0  0  0  0  0  0  0  0  0  0  0  0
  144.8854  135.0458  151.4992 C   0  0  0  0  0  0  0  0  0  0  0  0
  144.5651  133.8760  152.4346 C   0  0  0  0  0  0  0  0  0  0  0  0
  144.8275  132.8904  151.2710 C   0  0  0  0  0  0  0  0  0  0  0  0
  145.5992  131.5967  151.5992 C   0  0  0  0  0  0  0  0  0  0  0  0
  146.8629  131.8522  152.1797 O   0  0  0  0  0  0  0  0  0  0  0  0
  143.5851  132.4861  150.4553 C   0  0  0  0  0  0  0  0  0  0  0  0
  143.9401  131.9491  149.1971 O   0  0  0  0  0  0  0  0  0  0  0  0
  145.6492  134.0376  150.6384 C   0  0  0  0  0  0  0  0  0  0  0  0
  152.7913  137.3979  153.6265 H   0  0  0  0  0  0  0  0  0  0  0  0
  151.1702  136.7373  153.6689 H   0  0  0  0  0  0  0  0  0  0  0  0
  149.5005  137.5848  154.7657 H   0  0  0  0  0  0  0  0  0  0  0  0
  149.8675  138.6687  156.0678 H   0  0  0  0  0  0  0  0  0  0  0  0
  149.1538  139.5157  153.2203 H   0  0  0  0  0  0  0  0  0  0  0  0
  149.4976  141.2921  155.6814 H   0  0  0  0  0  0  0  0  0  0  0  0
  150.5660  141.1995  154.2971 H   0  0  0  0  0  0  0  0  0  0  0  0
  147.2788  142.1768  155.3835 H   0  0  0  0  0  0  0  0  0  0  0  0
  146.8090  142.7433  153.7910 H   0  0  0  0  0  0  0  0  0  0  0  0
  145.7685  140.5138  154.3164 H   0  0  0  0  0  0  0  0  0  0  0  0
  146.7950  140.4412  152.8936 H   0  0  0  0  0  0  0  0  0  0  0  0
  146.3484  135.7625  156.3707 H   0  0  0  0  0  0  0  0  0  0  0  0
  145.6084  137.4529  150.1987 H   0  0  0  0  0  0  0  0  0  0  0  0
  143.9773  135.3671  150.9868 H   0  0  0  0  0  0  0  0  0  0  0  0
  145.2785  133.7804  153.2540 H   0  0  0  0  0  0  0  0  0  0  0  0
  143.5435  133.8782  152.8155 H   0  0  0  0  0  0  0  0  0  0  0  0
  145.0404  130.9697  152.2943 H   0  0  0  0  0  0  0  0  0  0  0  0
  145.7591  131.0028  150.6987 H   0  0  0  0  0  0  0  0  0  0  0  0
  147.5208  131.7953  151.5035 H   0  0  0  0  0  0  0  0  0  0  0  0
  142.9917  131.7375  150.9807 H   0  0  0  0  0  0  0  0  0  0  0  0
  142.9257  133.3403  150.2970 H   0  0  0  0  0  0  0  0  0  0  0  0
  144.8827  131.9414  149.1293 H   0  0  0  0  0  0  0  0  0  0  0  0
  145.5047  134.1662  149.5653 H   0  0  0  0  0  0  0  0  0  0  0  0
  146.7122  134.0066  150.8821 H   0  0  0  0  0  0  0  0  0  0  0  0
  1  2  1  0  0  0  0
  1 28  1  0  0  0  0
  1 29  1  0  0  0  0
  2  3  2  0  0  0  0
  2  4  1  0  0  0  0
  4  5  1  0  0  0  0
  4 30  1  0  0  0  0
  4 31  1  0  0  0  0
  5 10  1  0  0  0  0
  5  6  1  0  0  0  0
  5 32  1  0  0  0  0
  6  7  1  0  0  0  0
  6 33  1  0  0  0  0
  6 34  1  0  0  0  0
  7  8  1  0  0  0  0
  8  9  1  0  0  0  0
  8 35  1  0  0  0  0
  8 36  1  0  0  0  0
  9 10  1  0  0  0  0
  9 37  1  0  0  0  0
  9 38  1  0  0  0  0
 10 11  1  0  0  0  0
 11 16  1  0  0  0  0
 11 12  2  0  0  0  0
 12 13  1  0  0  0  0
 13 14  2  0  0  0  0
 13 39  1  0  0  0  0
 14 15  1  0  0  0  0
 15 19  1  0  0  0  0
 15 16  2  0  0  0  0
 16 17  1  0  0  0  0
 17 18  2  0  0  0  0
 18 19  1  0  0  0  0
 18 40  1  0  0  0  0
 19 20  1  0  0  0  0
 20 27  1  0  0  0  0
 20 21  1  0  0  0  0
 20 41  1  0  0  0  0
 21 22  1  0  0  0  0
 21 42  1  0  0  0  0
 21 43  1  0  0  0  0
 22 23  1  0  0  0  0
 22 25  1  0  0  0  0
 22 27  1  0  0  0  0
 23 24  1  0  0  0  0
 23 44  1  0  0  0  0
 23 45  1  0  0  0  0
 24 46  1  0  0  0  0
 25 26  1  0  0  0  0
 25 47  1  0  0  0  0
 25 48  1  0  0  0  0
 26 49  1  0  0  0  0
 27 50  1  0  0  0  0
 27 51  1  0  0  0  0
M  END
> <s_m_source_file>
AV-unprocessed.smi

> <i_m_source_file_index>
75

> <i_lp_mmshare_version>
43012

> <i_f3d_flags>
0

> <s_epik_input>
W05IMl1DKD1PKVtDSDJdW0NAQEhdMVtDSDJdT1tDSDJdW0NIMl1OMWMobltjSF1uMiljKGMyMyluW2NIXW4zW0NIXShbQ0gyXTQpW0NIMl1DNChbQ0gyXVtPSF0pW0NIMl1bT0hd

> <s_epik_cmdline>
J2VwaWtfcHl0aG9uJywgJy1waCcsICc3LjAnLCAnLXRuJywgJzgnLCAnLW1hJywgJzIwMCcsICctbWV0YWxfYmluZGluZycsICctaW1hZScsICc8aW5maWxlLm1hZT4nLCAnLW9tYWUnLCAnPG91dGZpbGUubWFlPic=

> <r_lp_tautomer_probability>
1

> <r_epik_Ionization_Penalty>
5.29078e-05

> <r_epik_Ionization_Penalty_Charging>
0

> <r_epik_Ionization_Penalty_Neutral>
5.29078e-05

> <r_epik_State_Penalty>
-0

> <r_epik_Charging_Adjusted_Penalty>
0

> <i_epik_Tot_Q>
0

> <i_epik_Tot_abs_Q>
0

> <r_epik_Metal_State_Penalty>
-0

> <b_epik_Metal_Only>
0

> <s_lp_Force_Field>
OPLS_2005

> <r_lp_Energy>
38.8238

> <b_lp_Chiralities_Consistent>
1

> <s_lp_Variant>
AV-unprocessed.smi:75-1

> <Gold.Version>
5.8.1

> <Gold.Id.Protein>
6NUR|6NUR_protein|mol2

> <Gold.PLP.Fitness>
50.1084

> <Gold.PLP.PLP>
-39.3899

> <Gold.PLP.part.hbond>
-5.0000

> <Gold.PLP.part.metal>
0.0000

> <Gold.PLP.part.buried>
-3.3823

> <Gold.PLP.part.nonpolar>
-33.0490

> <Gold.PLP.part.repulsive>
1.1908

> <Gold.PLP.ligand.clash>
0.0000

> <Gold.PLP.ligand.torsion>
0.9348

> <Gold.PLP.Chemscore.Hbond>
3.1908

> <Gold.PLP.Chemscore.CHOScore>
0.7708

> <Gold.PLP.Chemscore.Metal>
0.0000

> <Gold.Chemscore.Hbonds>
donor molecule, donor type, donor heavy atom, donor atom, acceptor molecule, acceptor atom, score
      L1  H     1    29       P1  7949  0.11
      L1  H    24    46       P1 10747  0.76
      P1  H  7989  7998       L1     3  0.78
      P1  H  8011  8017       L1     7  0.42
      P1  H 10785 10796       L1    26  0.72
      L1  C    18    40       P1 10171  0.69

> <Gold.PLP.Chemscore.Internal.Correction>
0.7033

> <Gold.Rescore>
     Score         DG    S(hbond)    S(metal)    S(lipo)     H(rot)  DE(clash)    DE(int)     intcor
      5.94     -10.50       2.39        0.00      75.80       4.63       1.73       2.83       ----

> <Gold.Chemscore.Fitness>
5.9361

> <Gold.Chemscore.DG>
-10.4977

> <Gold.Chemscore.ZeroCoef>
-5.4800

> <Gold.Chemscore.Hbond>
2.3928

> <Gold.Chemscore.Metal>
0.0000

> <Gold.Chemscore.Lipo>
75.8012

> <Gold.Chemscore.Internal_Hbond>
0.0000

> <Gold.Chemscore.DEClash>
1.7339

> <Gold.Chemscore.DEInternal>
2.8277

> <Gold.Chemscore.Rot>
4.6261

> <Gold.Chemscore.Internal.Correction>
   9.000000E+99

> <Gold.Chemscore.Hbonds>
donor molecule, donor type, donor heavy atom, donor atom, acceptor molecule, acceptor atom, score
      L1  H     1    29       P1  7949  0.06
      L1  H    24    46       P1 10747  0.76
      P1  H  7989  7998       L1     3  0.19
      P1  H  8011  8017       L1     7  0.19
      P1  H 10785 10796       L1    26  0.46

> <Gold.Chemscore.Hbond.Weighted>
-7.9918

> <Gold.Chemscore.Metal.Weighted>
-0.0000

> <Gold.Chemscore.Lipo.Weighted>
-8.8687

> <Gold.Chemscore.Internal_Hbond.Weighted>
0.0000

> <Gold.Chemscore.DEClash.Weighted>
1.7339

> <Gold.Chemscore.DEInternal.Weighted>
2.8277

> <Gold.Chemscore.Rot.Weighted>
11.8429

> <Gold.Chemscore.Internal.Correction.Weighted>
   9.000000E+99

> <Gold.Protein.RotatedTorsions>
[ 6907 6896 6895 6894 ] final  -48.49 input  -60.11 | X-H torsion
[ 7974 7965 7964 7962 ] final  -77.62 input  175.53 | X-H torsion
[ 8008 7997 7996 7995 ] final   24.35 input   59.86 | X-H torsion
[ 10167 10162 10161 10158 ] final -141.24 input  -65.29 | X-H torsion
[ 10718 10713 10712 10709 ] final  -93.51 input   66.30 | X-H torsion
[ 10763 10752 10751 10750 ] final  145.53 input  -60.55 | X-H torsion
[ 11005 11000 10999 10996 ] final  -51.88 input  -57.11 | X-H torsion

> <Gold.Protein.ActiveResidues>
 VAL166  LYS551  ARG553  GLY616  TRP617  ASP618  TYR619  PRO620  LYS621  CYS622 
 ASP623  PHE694  ASN695  SER759  ASP760  ASP761  ALA762  ILE779  LEU786  VAL792 
 PHE793  MET794  SER795  GLU796  ALA797  LYS798  CYS799  TRP800  GLU811  SER814 

> <Gold.Protein.RotatedAtoms>
  150.8900  134.8303  159.7286 H   0  0  0  0  0  0  0  0  0  0  0  0  # atno 6907 bound_to 6896
  152.4831  134.4662  159.9631 H   0  0  0  0  0  0  0  0  0  0  0  0  # atno 6908 bound_to 6896
  151.4726  133.3526  159.2861 H   0  0  0  0  0  0  0  0  0  0  0  0  # atno 6909 bound_to 6896
  145.5972  140.9416  143.1260 H   0  0  0  0  0  0  0  0  0  0  0  0  # atno 7974 bound_to 7965
  154.9950  140.3118  155.4890 H   0  0  0  0  0  0  0  0  0  0  0  0  # atno 8008 bound_to 7997
  156.2934  140.2242  156.4997 H   0  0  0  0  0  0  0  0  0  0  0  0  # atno 8009 bound_to 7997
  154.7669  140.0455  157.1008 H   0  0  0  0  0  0  0  0  0  0  0  0  # atno 8010 bound_to 7997
  139.8204  143.7582  152.2666 H   0  0  0  0  0  0  0  0  0  0  0  0  # atno 10167 bound_to 10162
  156.0014  130.5030  150.5787 H   0  0  0  0  0  0  0  0  0  0  0  0  # atno 10718 bound_to 10713
  154.0068  135.2918  155.3396 H   0  0  0  0  0  0  0  0  0  0  0  0  # atno 10763 bound_to 10752
  154.7127  135.5143  153.8693 H   0  0  0  0  0  0  0  0  0  0  0  0  # atno 10764 bound_to 10752
  153.0741  135.6657  154.0304 H   0  0  0  0  0  0  0  0  0  0  0  0  # atno 10765 bound_to 10752
  141.0895  133.6635  156.3943 H   0  0  0  0  0  0  0  0  0  0  0  0  # atno 11005 bound_to 11000
  144.7325  139.7682  143.7341 LP  0  0  0  0  0  0  0  0  0  0  0  0  # atno 17320 bound_to 7965
  146.1603  139.4715  142.9992 LP  0  0  0  0  0  0  0  0  0  0  0  0  # atno 17321 bound_to 7965
  139.7758  144.7461  151.0158 LP  0  0  0  0  0  0  0  0  0  0  0  0  # atno 17342 bound_to 10162
  140.7813  143.4595  151.0298 LP  0  0  0  0  0  0  0  0  0  0  0  0  # atno 17343 bound_to 10162
  157.3671  131.0759  151.1589 LP  0  0  0  0  0  0  0  0  0  0  0  0  # atno 17370 bound_to 10713
  157.2354  130.6544  149.5867 LP  0  0  0  0  0  0  0  0  0  0  0  0  # atno 17371 bound_to 10713
  140.5285  134.6235  157.5342 LP  0  0  0  0  0  0  0  0  0  0  0  0  # atno 17394 bound_to 11000
  139.9718  134.7280  156.0026 LP  0  0  0  0  0  0  0  0  0  0  0  0  # atno 17395 bound_to 11000

$$$$
