AV-unprocessed.smi:3168|AV-procd|sdf|12102|dock10
  -GOLD-   2272017533D 1   1.00000     0.00000
 Structure written by MMmdl.
 33 34  0  0  0  0  0  0  0  0  1 V2000
  151.6018  139.1869  155.0892 C   0  0  0  0  0  0  0  0  0  0  0  0
  150.7576  139.8655  156.1877 C   0  0  1  0  0  0  0  0  0  0  0  0
  151.6021  140.6891  157.1780 C   0  0  0  0  0  0  0  0  0  0  0  0
  152.5843  140.1947  157.7329 O   0  0  0  0  0  0  0  0  0  0  0  0
  151.1962  141.9490  157.4050 N   0  0  0  0  0  0  0  0  0  0  0  0
  151.8416  142.8907  158.3115 C   0  0  0  0  0  0  0  0  0  0  0  0
  151.8771  142.3527  159.7510 C   0  0  1  0  0  0  0  0  0  0  0  0
  153.2703  141.9333  160.2148 C   0  0  0  0  0  0  0  0  0  0  0  0
  153.1385  142.0518  161.7158 C   0  0  0  0  0  0  0  0  0  0  0  0
  152.2723  143.3005  161.8550 C   0  0  0  0  0  0  0  0  0  0  0  0
  151.4751  143.3619  160.6748 O   0  0  0  0  0  0  0  0  0  0  0  0
  149.6834  140.6733  155.6188 N   0  0  0  0  0  0  0  0  0  0  0  0
  149.4512  140.9612  154.2890 C   0  0  0  0  0  0  0  0  0  0  0  0
  148.3183  141.7205  154.2247 C   0  0  0  0  0  0  0  0  0  0  0  0
  147.9159  141.8422  155.5835 C   0  0  0  0  0  0  0  0  0  0  0  0
  148.7294  141.2114  156.4141 N   0  0  0  0  0  0  0  0  0  0  0  0
  152.3424  138.5120  155.5196 H   0  0  0  0  0  0  0  0  0  0  0  0
  152.1343  139.9147  154.4756 H   0  0  0  0  0  0  0  0  0  0  0  0
  150.9705  138.5955  154.4254 H   0  0  0  0  0  0  0  0  0  0  0  0
  150.2872  139.0711  156.7691 H   0  0  0  0  0  0  0  0  0  0  0  0
  150.3782  142.2792  156.9141 H   0  0  0  0  0  0  0  0  0  0  0  0
  152.8529  143.1090  157.9642 H   0  0  0  0  0  0  0  0  0  0  0  0
  151.2927  143.8320  158.2763 H   0  0  0  0  0  0  0  0  0  0  0  0
  151.1991  141.5044  159.8604 H   0  0  0  0  0  0  0  0  0  0  0  0
  153.5443  140.9303  159.8860 H   0  0  0  0  0  0  0  0  0  0  0  0
  154.0258  142.6314  159.8512 H   0  0  0  0  0  0  0  0  0  0  0  0
  152.6137  141.1826  162.1152 H   0  0  0  0  0  0  0  0  0  0  0  0
  154.0977  142.1384  162.2268 H   0  0  0  0  0  0  0  0  0  0  0  0
  151.6537  143.2772  162.7522 H   0  0  0  0  0  0  0  0  0  0  0  0
  152.8957  144.1942  161.8969 H   0  0  0  0  0  0  0  0  0  0  0  0
  150.1043  140.6042  153.5063 H   0  0  0  0  0  0  0  0  0  0  0  0
  147.8469  142.1244  153.3411 H   0  0  0  0  0  0  0  0  0  0  0  0
  147.0606  142.3628  155.9882 H   0  0  0  0  0  0  0  0  0  0  0  0
  1  2  1  0  0  0  0
  1 17  1  0  0  0  0
  1 18  1  0  0  0  0
  1 19  1  0  0  0  0
  2  3  1  0  0  0  0
  2 12  1  0  0  0  0
  2 20  1  0  0  0  0
  3  4  2  0  0  0  0
  3  5  1  0  0  0  0
  5  6  1  0  0  0  0
  5 21  1  0  0  0  0
  6  7  1  0  0  0  0
  6 22  1  0  0  0  0
  6 23  1  0  0  0  0
  7 11  1  0  0  0  0
  7  8  1  0  0  0  0
  7 24  1  0  0  0  0
  8  9  1  0  0  0  0
  8 25  1  0  0  0  0
  8 26  1  0  0  0  0
  9 10  1  0  0  0  0
  9 27  1  0  0  0  0
  9 28  1  0  0  0  0
 10 11  1  0  0  0  0
 10 29  1  0  0  0  0
 10 30  1  0  0  0  0
 12 16  1  0  0  0  0
 12 13  1  0  0  0  0
 13 14  2  0  0  0  0
 13 31  1  0  0  0  0
 14 15  1  0  0  0  0
 14 32  1  0  0  0  0
 15 16  2  0  0  0  0
 15 33  1  0  0  0  0
M  END
> <s_m_source_file>
AV-unprocessed.smi

> <i_m_source_file_index>
3168

> <i_lp_mmshare_version>
43012

> <i_f3d_flags>
0

> <s_epik_input>
bjFbY0hdW2NIXVtjSF1uMVtDQEhdKFtDSDNdKUMoPU8pW05IXVtDSDJdW0NAQEhdMltDSDJdW0NIMl1bQ0gyXU8y

> <s_epik_cmdline>
J2VwaWtfcHl0aG9uJywgJy1waCcsICc3LjAnLCAnLXRuJywgJzgnLCAnLW1hJywgJzIwMCcsICctbWV0YWxfYmluZGluZycsICctaW1hZScsICc8aW5maWxlLm1hZT4nLCAnLW9tYWUnLCAnPG91dGZpbGUubWFlPic=

> <r_lp_tautomer_probability>
1

> <r_epik_Ionization_Penalty>
4.14877e-05

> <r_epik_Ionization_Penalty_Charging>
0

> <r_epik_Ionization_Penalty_Neutral>
4.14877e-05

> <r_epik_State_Penalty>
-0

> <r_epik_Charging_Adjusted_Penalty>
0

> <i_epik_Tot_Q>
0

> <i_epik_Tot_abs_Q>
0

> <r_epik_Metal_State_Penalty>
-0

> <b_epik_Metal_Only>
0

> <s_lp_Force_Field>
OPLS_2005

> <r_lp_Energy>
21.2002

> <b_lp_Chiralities_Consistent>
1

> <s_lp_Variant>
AV-unprocessed.smi:3168-4

> <Gold.Version>
5.8.1

> <Gold.Id.Protein>
6NUR|6NUR_protein|mol2

> <Gold.PLP.Fitness>
39.6142

> <Gold.PLP.PLP>
-35.1468

> <Gold.PLP.part.hbond>
-1.5635

> <Gold.PLP.part.metal>
0.0000

> <Gold.PLP.part.buried>
-1.8172

> <Gold.PLP.part.nonpolar>
-31.3595

> <Gold.PLP.part.repulsive>
0.2102

> <Gold.PLP.ligand.clash>
0.0000

> <Gold.PLP.ligand.torsion>
0.8091

> <Gold.PLP.Chemscore.Hbond>
0.9920

> <Gold.PLP.Chemscore.CHOScore>
1.0000

> <Gold.PLP.Chemscore.Metal>
0.0000

> <Gold.Chemscore.Hbonds>
donor molecule, donor type, donor heavy atom, donor atom, acceptor molecule, acceptor atom, score
      P1  H  7997  8008       L1     4  0.88
      L1  C    13    31       P1  7957  1.00

> <Gold.PLP.Chemscore.Internal.Correction>
0.1095

> <Gold.Rescore>
     Score         DG    S(hbond)    S(metal)    S(lipo)     H(rot)  DE(clash)    DE(int)     intcor
     12.58     -14.84       0.94        0.00      88.48       1.61       0.03       2.23       ----

> <Gold.Chemscore.Fitness>
12.5824

> <Gold.Chemscore.DG>
-14.8433

> <Gold.Chemscore.ZeroCoef>
-5.4800

> <Gold.Chemscore.Hbond>
0.9375

> <Gold.Chemscore.Metal>
0.0000

> <Gold.Chemscore.Lipo>
88.4804

> <Gold.Chemscore.Internal_Hbond>
0.0000

> <Gold.Chemscore.DEClash>
0.0263

> <Gold.Chemscore.DEInternal>
2.2346

> <Gold.Chemscore.Rot>
1.6094

> <Gold.Chemscore.Internal.Correction>
   9.000000E+99

> <Gold.Chemscore.Hbonds>
donor molecule, donor type, donor heavy atom, donor atom, acceptor molecule, acceptor atom, score
      P1  H  7997  8008       L1     4  0.79

> <Gold.Chemscore.Hbond.Weighted>
-3.1312

> <Gold.Chemscore.Metal.Weighted>
-0.0000

> <Gold.Chemscore.Lipo.Weighted>
-10.3522

> <Gold.Chemscore.Internal_Hbond.Weighted>
0.0000

> <Gold.Chemscore.DEClash.Weighted>
0.0263

> <Gold.Chemscore.DEInternal.Weighted>
2.2346

> <Gold.Chemscore.Rot.Weighted>
4.1201

> <Gold.Chemscore.Internal.Correction.Weighted>
   9.000000E+99

> <Gold.Protein.RotatedTorsions>
[ 6907 6896 6895 6894 ] final   63.02 input  -60.11 | X-H torsion
[ 7974 7965 7964 7962 ] final -139.35 input  175.53 | X-H torsion
[ 8008 7997 7996 7995 ] final  -65.77 input   59.86 | X-H torsion
[ 10167 10162 10161 10158 ] final  166.47 input  -65.29 | X-H torsion
[ 10718 10713 10712 10709 ] final  100.33 input   66.30 | X-H torsion
[ 10763 10752 10751 10750 ] final -174.01 input  -60.55 | X-H torsion
[ 11005 11000 10999 10996 ] final   69.81 input  -57.11 | X-H torsion

> <Gold.Protein.ActiveResidues>
 VAL166  LYS551  ARG553  GLY616  TRP617  ASP618  TYR619  PRO620  LYS621  CYS622 
 ASP623  PHE694  ASN695  SER759  ASP760  ASP761  ALA762  ILE779  LEU786  VAL792 
 PHE793  MET794  SER795  GLU796  ALA797  LYS798  CYS799  TRP800  GLU811  SER814 

> <Gold.Protein.RotatedAtoms>
  152.4219  134.5939  159.9981 H   0  0  0  0  0  0  0  0  0  0  0  0  # atno 6907 bound_to 6896
  151.6086  133.3344  159.3070 H   0  0  0  0  0  0  0  0  0  0  0  0  # atno 6908 bound_to 6896
  150.8108  134.7299  159.6751 H   0  0  0  0  0  0  0  0  0  0  0  0  # atno 6909 bound_to 6896
  144.8684  140.6329  143.5283 H   0  0  0  0  0  0  0  0  0  0  0  0  # atno 7974 bound_to 7965
  154.4692  140.0926  156.7101 H   0  0  0  0  0  0  0  0  0  0  0  0  # atno 8008 bound_to 7997
  155.4771  140.3466  155.4316 H   0  0  0  0  0  0  0  0  0  0  0  0  # atno 8009 bound_to 7997
  156.1010  140.1422  156.9455 H   0  0  0  0  0  0  0  0  0  0  0  0  # atno 8010 bound_to 7997
  139.4925  144.4024  151.9394 H   0  0  0  0  0  0  0  0  0  0  0  0  # atno 10167 bound_to 10162
  157.6856  131.0695  150.5083 H   0  0  0  0  0  0  0  0  0  0  0  0  # atno 10718 bound_to 10713
  154.6012  135.2855  155.0533 H   0  0  0  0  0  0  0  0  0  0  0  0  # atno 10763 bound_to 10752
  154.1797  135.6459  153.5035 H   0  0  0  0  0  0  0  0  0  0  0  0  # atno 10764 bound_to 10752
  153.0158  135.5420  154.6732 H   0  0  0  0  0  0  0  0  0  0  0  0  # atno 10765 bound_to 10752
  139.9633  134.7024  156.0599 H   0  0  0  0  0  0  0  0  0  0  0  0  # atno 11005 bound_to 11000
  145.4177  139.1569  143.4091 LP  0  0  0  0  0  0  0  0  0  0  0  0  # atno 17320 bound_to 7965
  146.2912  140.4285  142.8738 LP  0  0  0  0  0  0  0  0  0  0  0  0  # atno 17321 bound_to 7965
  140.3463  144.3143  150.5957 LP  0  0  0  0  0  0  0  0  0  0  0  0  # atno 17342 bound_to 10162
  140.5523  143.2204  151.7906 LP  0  0  0  0  0  0  0  0  0  0  0  0  # atno 17343 bound_to 10162
  156.5402  130.4206  149.6158 LP  0  0  0  0  0  0  0  0  0  0  0  0  # atno 17370 bound_to 10713
  156.2992  130.7167  151.2035 LP  0  0  0  0  0  0  0  0  0  0  0  0  # atno 17371 bound_to 10713
  141.1311  133.6586  156.3468 LP  0  0  0  0  0  0  0  0  0  0  0  0  # atno 17394 bound_to 11000
  140.5452  134.6081  157.5392 LP  0  0  0  0  0  0  0  0  0  0  0  0  # atno 17395 bound_to 11000

$$$$
