AV-unprocessed.smi:2027|AV-procd|sdf|8214|dock6
  -GOLD-   2272010483D 1   1.00000     0.00000
 Structure written by MMmdl.
 50 52  0  0  0  0  0  0  0  0  2 V2000
  152.4669  142.5044  160.8769 C   0  0  0  0  0  0  0  0  0  0  0  0
  152.1886  141.8267  159.5467 C   0  0  0  0  0  0  0  0  0  0  0  0
  152.8975  140.6508  159.2130 C   0  0  0  0  0  0  0  0  0  0  0  0
  152.6663  139.9887  157.9875 C   0  0  0  0  0  0  0  0  0  0  0  0
  153.2347  138.8394  157.4655 N   0  0  0  0  0  0  0  0  0  0  0  0
  152.6059  138.7354  156.2985 C   0  0  0  0  0  0  0  0  0  0  0  0
  151.6955  139.6825  156.0017 N   0  0  0  0  0  0  0  0  0  0  0  0
  150.8897  139.7726  154.7973 C   0  0  0  0  0  0  0  0  0  0  0  0
  150.1257  138.4682  154.4978 C   0  0  1  0  0  0  0  0  0  0  0  0
  149.2429  138.6750  153.4105 O   0  0  0  0  0  0  0  0  0  0  0  0
  151.0811  137.3152  154.1400 C   0  0  0  0  0  0  0  0  0  0  0  0
  150.3686  136.0116  154.0682 N   0  3  2  0  0  0  0  0  0  0  0  0
  149.2743  135.9045  155.0606 C   0  0  0  0  0  0  0  0  0  0  0  0
  151.2731  134.8355  154.1045 C   0  0  0  0  0  0  0  0  0  0  0  0
  150.6510  133.6504  153.4144 C   0  0  0  0  0  0  0  0  0  0  0  0
  151.1285  132.3087  153.3754 C   0  0  0  0  0  0  0  0  0  0  0  0
  150.3556  131.5081  152.6610 N   0  0  0  0  0  0  0  0  0  0  0  0
  149.3547  132.3029  152.2301 N   0  0  0  0  0  0  0  0  0  0  0  0
  148.3071  131.7461  151.4011 C   0  0  0  0  0  0  0  0  0  0  0  0
  149.5040  133.5994  152.6727 C   0  0  0  0  0  0  0  0  0  0  0  0
  151.7005  140.5411  157.0963 C   0  0  0  0  0  0  0  0  0  0  0  0
  150.9897  141.7116  157.4163 C   0  0  0  0  0  0  0  0  0  0  0  0
  151.2309  142.3588  158.6462 C   0  0  0  0  0  0  0  0  0  0  0  0
  150.4547  143.6191  158.9851 C   0  0  0  0  0  0  0  0  0  0  0  0
  153.2446  141.9820  161.4348 H   0  0  0  0  0  0  0  0  0  0  0  0
  151.5673  142.5211  161.4925 H   0  0  0  0  0  0  0  0  0  0  0  0
  152.8005  143.5307  160.7214 H   0  0  0  0  0  0  0  0  0  0  0  0
  153.6263  140.2447  159.8990 H   0  0  0  0  0  0  0  0  0  0  0  0
  152.8180  137.9223  155.6196 H   0  0  0  0  0  0  0  0  0  0  0  0
  150.1966  140.6083  154.9044 H   0  0  0  0  0  0  0  0  0  0  0  0
  151.5485  140.0219  153.9644 H   0  0  0  0  0  0  0  0  0  0  0  0
  149.5299  138.2021  155.3714 H   0  0  0  0  0  0  0  0  0  0  0  0
  149.6883  139.1828  152.7490 H   0  0  0  0  0  0  0  0  0  0  0  0
  151.5625  137.5514  153.1908 H   0  0  0  0  0  0  0  0  0  0  0  0
  151.8904  137.2462  154.8684 H   0  0  0  0  0  0  0  0  0  0  0  0
  149.6698  135.8853  156.0770 H   0  0  0  0  0  0  0  0  0  0  0  0
  148.6981  134.9922  154.9024 H   0  0  0  0  0  0  0  0  0  0  0  0
  148.5840  136.7439  154.9789 H   0  0  0  0  0  0  0  0  0  0  0  0
  152.2318  135.1039  153.6581 H   0  0  0  0  0  0  0  0  0  0  0  0
  151.4873  134.5799  155.1430 H   0  0  0  0  0  0  0  0  0  0  0  0
  152.0157  131.8981  153.8348 H   0  0  0  0  0  0  0  0  0  0  0  0
  147.4831  132.4550  151.3138 H   0  0  0  0  0  0  0  0  0  0  0  0
  147.9326  130.8224  151.8437 H   0  0  0  0  0  0  0  0  0  0  0  0
  148.6999  131.5336  150.4067 H   0  0  0  0  0  0  0  0  0  0  0  0
  148.7935  134.3724  152.4186 H   0  0  0  0  0  0  0  0  0  0  0  0
  150.2627  142.1066  156.7226 H   0  0  0  0  0  0  0  0  0  0  0  0
  149.7628  143.8876  158.1863 H   0  0  0  0  0  0  0  0  0  0  0  0
  151.1344  144.4583  159.1348 H   0  0  0  0  0  0  0  0  0  0  0  0
  149.8740  143.4763  159.8967 H   0  0  0  0  0  0  0  0  0  0  0  0
  149.9301  135.9853  153.1583 H   0  0  0  0  0  0  0  0  0  0  0  0
  1  2  1  0  0  0  0
  1 25  1  0  0  0  0
  1 26  1  0  0  0  0
  1 27  1  0  0  0  0
  2 23  1  0  0  0  0
  2  3  2  0  0  0  0
  3  4  1  0  0  0  0
  3 28  1  0  0  0  0
  4 21  2  0  0  0  0
  4  5  1  0  0  0  0
  5  6  2  0  0  0  0
  6  7  1  0  0  0  0
  6 29  1  0  0  0  0
  7  8  1  0  0  0  0
  7 21  1  0  0  0  0
  8  9  1  0  0  0  0
  8 30  1  0  0  0  0
  8 31  1  0  0  0  0
  9 10  1  0  0  0  0
  9 11  1  0  0  0  0
  9 32  1  0  0  0  0
 10 33  1  0  0  0  0
 11 12  1  0  0  0  0
 11 34  1  0  0  0  0
 11 35  1  0  0  0  0
 12 13  1  0  0  0  0
 12 14  1  0  0  0  0
 12 50  1  0  0  0  0
 13 36  1  0  0  0  0
 13 37  1  0  0  0  0
 13 38  1  0  0  0  0
 14 15  1  0  0  0  0
 14 39  1  0  0  0  0
 14 40  1  0  0  0  0
 15 20  2  0  0  0  0
 15 16  1  0  0  0  0
 16 17  2  0  0  0  0
 16 41  1  0  0  0  0
 17 18  1  0  0  0  0
 18 19  1  0  0  0  0
 18 20  1  0  0  0  0
 19 42  1  0  0  0  0
 19 43  1  0  0  0  0
 19 44  1  0  0  0  0
 20 45  1  0  0  0  0
 21 22  1  0  0  0  0
 22 23  2  0  0  0  0
 22 46  1  0  0  0  0
 23 24  1  0  0  0  0
 24 47  1  0  0  0  0
 24 48  1  0  0  0  0
 24 49  1  0  0  0  0
M  CHG  1  12   1
M  END
> <s_m_source_file>
AV-unprocessed.smi

> <i_m_source_file_index>
2027

> <i_lp_mmshare_version>
43012

> <i_f3d_flags>
0

> <s_epik_input>
W0NIM11jKFtjSF0xKWMoW0NIM10pW2NIXWMoYzEyKW4oW2NIXW4yKVtDSDJdW0NASF0oW09IXSlbQ0gyXU4oW0NIM10pW0NIMl1jM1tjSF1ubihbQ0gzXSlbY0hdMw==

> <s_epik_cmdline>
J2VwaWtfcHl0aG9uJywgJy1waCcsICc3LjAnLCAnLXRuJywgJzgnLCAnLW1hJywgJzIwMCcsICctbWV0YWxfYmluZGluZycsICctaW1hZScsICc8aW5maWxlLm1hZT4nLCAnLW9tYWUnLCAnPG91dGZpbGUubWFlPic=

> <r_lp_tautomer_probability>
1

> <r_epik_Ionization_Penalty>
0.646578

> <r_epik_Ionization_Penalty_Charging>
0.559419

> <r_epik_Ionization_Penalty_Neutral>
0.087159

> <r_epik_State_Penalty>
0.661677

> <r_epik_Charging_Adjusted_Penalty>
1.2211

> <i_epik_Tot_Q>
1

> <i_epik_Tot_abs_Q>
1

> <r_epik_Metal_State_Penalty>
0.649174

> <b_epik_Metal_Only>
0

> <s_lp_Force_Field>
OPLS_2005

> <r_lp_Energy>
10.2185

> <b_lp_Chiralities_Consistent>
1

> <s_lp_Variant>
AV-unprocessed.smi:2027-6

> <Gold.Version>
5.8.1

> <Gold.Id.Protein>
6NUR|6NUR_protein|mol2

> <Gold.PLP.Fitness>
57.4567

> <Gold.PLP.PLP>
-47.4716

> <Gold.PLP.part.hbond>
-3.5599

> <Gold.PLP.part.metal>
0.0000

> <Gold.PLP.part.buried>
-1.8826

> <Gold.PLP.part.nonpolar>
-41.8063

> <Gold.PLP.part.repulsive>
0.1029

> <Gold.PLP.ligand.clash>
0.0000

> <Gold.PLP.ligand.torsion>
0.6030

> <Gold.PLP.Chemscore.Hbond>
2.7840

> <Gold.PLP.Chemscore.CHOScore>
0.8881

> <Gold.PLP.Chemscore.Metal>
0.0000

> <Gold.Chemscore.Hbonds>
donor molecule, donor type, donor heavy atom, donor atom, acceptor molecule, acceptor atom, score
      L1  H    10    33       P1  7957  0.96
      L1  H    12    50       P1  7948  0.60
      P1  H  7997  8008       L1     5  0.04
      L1  C    20    45       P1  7948  0.13

> <Gold.PLP.Chemscore.Internal.Correction>
0.1748

> <Gold.Rescore>
     Score         DG    S(hbond)    S(metal)    S(lipo)     H(rot)  DE(clash)    DE(int)     intcor
     17.42     -19.65       1.88        0.00     122.34       2.50       0.88       1.35       ----

> <Gold.Chemscore.Fitness>
17.4224

> <Gold.Chemscore.DG>
-19.6496

> <Gold.Chemscore.ZeroCoef>
-5.4800

> <Gold.Chemscore.Hbond>
1.8767

> <Gold.Chemscore.Metal>
0.0000

> <Gold.Chemscore.Lipo>
122.3376

> <Gold.Chemscore.Internal_Hbond>
0.0000

> <Gold.Chemscore.DEClash>
0.8806

> <Gold.Chemscore.DEInternal>
1.3465

> <Gold.Chemscore.Rot>
2.5047

> <Gold.Chemscore.Internal.Correction>
   9.000000E+99

> <Gold.Chemscore.Hbonds>
donor molecule, donor type, donor heavy atom, donor atom, acceptor molecule, acceptor atom, score
      L1  H    10    33       P1  7957  0.89

> <Gold.Chemscore.Hbond.Weighted>
-6.2681

> <Gold.Chemscore.Metal.Weighted>
-0.0000

> <Gold.Chemscore.Lipo.Weighted>
-14.3135

> <Gold.Chemscore.Internal_Hbond.Weighted>
0.0000

> <Gold.Chemscore.DEClash.Weighted>
0.8806

> <Gold.Chemscore.DEInternal.Weighted>
1.3465

> <Gold.Chemscore.Rot.Weighted>
6.4120

> <Gold.Chemscore.Internal.Correction.Weighted>
   9.000000E+99

> <Gold.Protein.RotatedTorsions>
[ 6907 6896 6895 6894 ] final  135.74 input  -60.11 | X-H torsion
[ 7974 7965 7964 7962 ] final  -46.80 input  175.53 | X-H torsion
[ 8008 7997 7996 7995 ] final  -54.73 input   59.86 | X-H torsion
[ 10167 10162 10161 10158 ] final   53.99 input  -65.29 | X-H torsion
[ 10718 10713 10712 10709 ] final  -46.24 input   66.30 | X-H torsion
[ 10763 10752 10751 10750 ] final  -59.73 input  -60.55 | X-H torsion
[ 11005 11000 10999 10996 ] final  -35.01 input  -57.11 | X-H torsion

> <Gold.Protein.ActiveResidues>
 VAL166  LYS551  ARG553  GLY616  TRP617  ASP618  TYR619  PRO620  LYS621  CYS622 
 ASP623  PHE694  ASN695  SER759  ASP760  ASP761  ALA762  ILE779  LEU786  VAL792 
 PHE793  MET794  SER795  GLU796  ALA797  LYS798  CYS799  TRP800  GLU811  SER814 

> <Gold.Protein.RotatedAtoms>
  152.2970  133.5618  159.5593 H   0  0  0  0  0  0  0  0  0  0  0  0  # atno 6907 bound_to 6896
  150.7260  134.0346  159.3754 H   0  0  0  0  0  0  0  0  0  0  0  0  # atno 6908 bound_to 6896
  151.8248  135.0640  160.0480 H   0  0  0  0  0  0  0  0  0  0  0  0  # atno 6909 bound_to 6896
  145.9682  140.7410  142.9423 H   0  0  0  0  0  0  0  0  0  0  0  0  # atno 7974 bound_to 7965
  154.4172  140.1169  156.5362 H   0  0  0  0  0  0  0  0  0  0  0  0  # atno 8008 bound_to 7997
  155.6555  140.3496  155.4744 H   0  0  0  0  0  0  0  0  0  0  0  0  # atno 8009 bound_to 7997
  155.9757  140.1150  157.0762 H   0  0  0  0  0  0  0  0  0  0  0  0  # atno 8010 bound_to 7997
  140.2349  144.3646  150.6401 H   0  0  0  0  0  0  0  0  0  0  0  0  # atno 10167 bound_to 10162
  156.2203  130.4166  149.9001 H   0  0  0  0  0  0  0  0  0  0  0  0  # atno 10718 bound_to 10713
  154.2582  135.6313  153.5265 H   0  0  0  0  0  0  0  0  0  0  0  0  # atno 10763 bound_to 10752
  152.9900  135.5581  154.5733 H   0  0  0  0  0  0  0  0  0  0  0  0  # atno 10764 bound_to 10752
  154.5276  135.2886  155.1183 H   0  0  0  0  0  0  0  0  0  0  0  0  # atno 10765 bound_to 10752
  140.9762  133.7082  156.1606 H   0  0  0  0  0  0  0  0  0  0  0  0  # atno 11005 bound_to 11000
  144.6830  140.2705  143.7306 LP  0  0  0  0  0  0  0  0  0  0  0  0  # atno 17320 bound_to 7965
  145.7943  139.1939  143.2084 LP  0  0  0  0  0  0  0  0  0  0  0  0  # atno 17321 bound_to 7965
  140.6157  143.2172  151.6796 LP  0  0  0  0  0  0  0  0  0  0  0  0  # atno 17342 bound_to 10162
  139.5097  144.3568  152.0600 LP  0  0  0  0  0  0  0  0  0  0  0  0  # atno 17343 bound_to 10162
  156.6650  130.8797  151.3553 LP  0  0  0  0  0  0  0  0  0  0  0  0  # atno 17370 bound_to 10713
  157.7084  130.9411  150.1007 LP  0  0  0  0  0  0  0  0  0  0  0  0  # atno 17371 bound_to 10713
  140.7255  134.4311  157.5571 LP  0  0  0  0  0  0  0  0  0  0  0  0  # atno 17394 bound_to 11000
  139.8931  134.8738  156.2237 LP  0  0  0  0  0  0  0  0  0  0  0  0  # atno 17395 bound_to 11000

$$$$
