AV-unprocessed.smi:3280|AV-procd|sdf|12554|dock1
  -GOLD-   2272018473D 1   1.00000     0.00000
 Structure written by MMmdl.
 38 39  0  0  0  0  0  0  0  0  1 V2000
  146.8361  142.3116  154.2282 C   0  0  0  0  0  0  0  0  0  0  0  0
  147.6715  141.1665  153.6371 C   0  0  0  0  0  0  0  0  0  0  0  0
  146.8698  139.8677  153.4638 C   0  0  0  0  0  0  0  0  0  0  0  0
  148.9315  140.9430  154.4160 C   0  0  0  0  0  0  0  0  0  0  0  0
  149.8157  140.0234  154.0462 N   0  0  0  0  0  0  0  0  0  0  0  0
  150.8352  140.1496  155.0005 O   0  0  0  0  0  0  0  0  0  0  0  0
  150.4298  141.1260  155.8475 C   0  0  0  0  0  0  0  0  0  0  0  0
  151.3355  141.5384  156.9589 C   0  0  0  0  0  0  0  0  0  0  0  0
  150.7530  142.6953  157.7805 C   0  0  0  0  0  0  0  0  0  0  0  0
  151.7615  143.7321  157.9520 N   0  0  0  0  0  0  0  0  0  0  0  0
  152.4851  143.5891  159.2106 C   0  0  2  0  0  0  0  0  0  0  0  0
  152.9817  142.1369  159.3967 C   0  0  0  0  0  0  0  0  0  0  0  0
  153.7549  141.9423  160.7111 C   0  0  0  0  0  0  0  0  0  0  0  0
  152.9007  142.2502  161.9482 C   0  0  0  0  0  0  0  0  0  0  0  0
  152.3623  143.9810  161.9560 S   0  0  0  0  0  0  0  0  0  0  0  0
  151.5307  144.0070  160.3446 C   0  0  0  0  0  0  0  0  0  0  0  0
  149.2588  141.6676  155.5230 N   0  0  0  0  0  0  0  0  0  0  0  0
  147.4137  143.2356  154.2724 H   0  0  0  0  0  0  0  0  0  0  0  0
  146.5025  142.0786  155.2401 H   0  0  0  0  0  0  0  0  0  0  0  0
  145.9503  142.5045  153.6228 H   0  0  0  0  0  0  0  0  0  0  0  0
  147.9620  141.4840  152.6341 H   0  0  0  0  0  0  0  0  0  0  0  0
  147.4705  139.0977  152.9785 H   0  0  0  0  0  0  0  0  0  0  0  0
  145.9849  140.0326  152.8488 H   0  0  0  0  0  0  0  0  0  0  0  0
  146.5369  139.4747  154.4250 H   0  0  0  0  0  0  0  0  0  0  0  0
  151.5178  140.6732  157.5977 H   0  0  0  0  0  0  0  0  0  0  0  0
  152.2985  141.8241  156.5334 H   0  0  0  0  0  0  0  0  0  0  0  0
  149.8746  143.0959  157.2754 H   0  0  0  0  0  0  0  0  0  0  0  0
  150.4324  142.3288  158.7567 H   0  0  0  0  0  0  0  0  0  0  0  0
  152.4194  143.6702  157.1879 H   0  0  0  0  0  0  0  0  0  0  0  0
  153.3345  144.2741  159.2109 H   0  0  0  0  0  0  0  0  0  0  0  0
  152.1365  141.4480  159.3661 H   0  0  0  0  0  0  0  0  0  0  0  0
  153.6377  141.8486  158.5760 H   0  0  0  0  0  0  0  0  0  0  0  0
  154.1102  140.9130  160.7682 H   0  0  0  0  0  0  0  0  0  0  0  0
  154.6452  142.5723  160.7116 H   0  0  0  0  0  0  0  0  0  0  0  0
  152.0229  141.6037  161.9752 H   0  0  0  0  0  0  0  0  0  0  0  0
  153.4696  142.0568  162.8578 H   0  0  0  0  0  0  0  0  0  0  0  0
  151.1529  145.0163  160.1762 H   0  0  0  0  0  0  0  0  0  0  0  0
  150.6651  143.3444  160.3859 H   0  0  0  0  0  0  0  0  0  0  0  0
  1  2  1  0  0  0  0
  1 18  1  0  0  0  0
  1 19  1  0  0  0  0
  1 20  1  0  0  0  0
  2  3  1  0  0  0  0
  2  4  1  0  0  0  0
  2 21  1  0  0  0  0
  3 22  1  0  0  0  0
  3 23  1  0  0  0  0
  3 24  1  0  0  0  0
  4 17  1  0  0  0  0
  4  5  2  0  0  0  0
  5  6  1  0  0  0  0
  6  7  1  0  0  0  0
  7  8  1  0  0  0  0
  7 17  2  0  0  0  0
  8  9  1  0  0  0  0
  8 25  1  0  0  0  0
  8 26  1  0  0  0  0
  9 10  1  0  0  0  0
  9 27  1  0  0  0  0
  9 28  1  0  0  0  0
 10 11  1  0  0  0  0
 10 29  1  0  0  0  0
 11 16  1  0  0  0  0
 11 12  1  0  0  0  0
 11 30  1  0  0  0  0
 12 13  1  0  0  0  0
 12 31  1  0  0  0  0
 12 32  1  0  0  0  0
 13 14  1  0  0  0  0
 13 33  1  0  0  0  0
 13 34  1  0  0  0  0
 14 15  1  0  0  0  0
 14 35  1  0  0  0  0
 14 36  1  0  0  0  0
 15 16  1  0  0  0  0
 16 37  1  0  0  0  0
 16 38  1  0  0  0  0
M  END
> <s_m_source_file>
AV-unprocessed.smi

> <i_m_source_file_index>
3280

> <i_lp_mmshare_version>
43012

> <i_f3d_flags>
0

> <s_epik_input>
W0NIM11bQ0hdKFtDSDNdKWMxbm9jKG4xKVtDSDJdW0NIMl1bTkhdW0NAQEhdMltDSDJdW0NIMl1bQ0gyXVNbQ0gyXTI=

> <s_epik_cmdline>
J2VwaWtfcHl0aG9uJywgJy1waCcsICc3LjAnLCAnLXRuJywgJzgnLCAnLW1hJywgJzIwMCcsICctbWV0YWxfYmluZGluZycsICctaW1hZScsICc8aW5maWxlLm1hZT4nLCAnLW9tYWUnLCAnPG91dGZpbGUubWFlPic=

> <r_lp_tautomer_probability>
1

> <r_epik_Ionization_Penalty>
2.40576

> <r_epik_Ionization_Penalty_Charging>
0

> <r_epik_Ionization_Penalty_Neutral>
2.40576

> <r_epik_State_Penalty>
2.56401

> <r_epik_Charging_Adjusted_Penalty>
2.56401

> <i_epik_Tot_Q>
0

> <i_epik_Tot_abs_Q>
0

> <r_epik_Metal_State_Penalty>
2.56401

> <b_epik_Metal_Only>
0

> <s_lp_Force_Field>
OPLS_2005

> <r_lp_Energy>
1.17925

> <b_lp_Chiralities_Consistent>
1

> <s_lp_Variant>
AV-unprocessed.smi:3280-3

> <Gold.Version>
5.8.1

> <Gold.Id.Protein>
6NUR|6NUR_protein|mol2

> <Gold.PLP.Fitness>
42.6742

> <Gold.PLP.PLP>
-43.9173

> <Gold.PLP.part.hbond>
-2.0000

> <Gold.PLP.part.metal>
0.0000

> <Gold.PLP.part.buried>
-8.0860

> <Gold.PLP.part.nonpolar>
-36.6800

> <Gold.PLP.part.repulsive>
2.2238

> <Gold.PLP.ligand.clash>
0.0000

> <Gold.PLP.ligand.torsion>
0.6900

> <Gold.PLP.Chemscore.Hbond>
0.0000

> <Gold.PLP.Chemscore.CHOScore>
0.0000

> <Gold.PLP.Chemscore.Metal>
0.0000

> <Gold.PLP.Chemscore.Internal.Correction>
0.1369

> <Gold.Rescore>
     Score         DG    S(hbond)    S(metal)    S(lipo)     H(rot)  DE(clash)    DE(int)     intcor
     12.93     -13.77       0.00        0.00     107.69       1.68       0.11       0.73       ----

> <Gold.Chemscore.Fitness>
12.9292

> <Gold.Chemscore.DG>
-13.7708

> <Gold.Chemscore.ZeroCoef>
-5.4800

> <Gold.Chemscore.Hbond>
0.0000

> <Gold.Chemscore.Metal>
0.0000

> <Gold.Chemscore.Lipo>
107.6922

> <Gold.Chemscore.Internal_Hbond>
0.0000

> <Gold.Chemscore.DEClash>
0.1143

> <Gold.Chemscore.DEInternal>
0.7273

> <Gold.Chemscore.Rot>
1.6833

> <Gold.Chemscore.Internal.Correction>
   9.000000E+99

> <Gold.Chemscore.Hbond.Weighted>
-0.0000

> <Gold.Chemscore.Metal.Weighted>
-0.0000

> <Gold.Chemscore.Lipo.Weighted>
-12.6000

> <Gold.Chemscore.Internal_Hbond.Weighted>
0.0000

> <Gold.Chemscore.DEClash.Weighted>
0.1143

> <Gold.Chemscore.DEInternal.Weighted>
0.7273

> <Gold.Chemscore.Rot.Weighted>
4.3092

> <Gold.Chemscore.Internal.Correction.Weighted>
   9.000000E+99

> <Gold.Protein.RotatedTorsions>
[ 6907 6896 6895 6894 ] final -156.77 input  -60.11 | X-H torsion
[ 7974 7965 7964 7962 ] final  -50.01 input  175.53 | X-H torsion
[ 8008 7997 7996 7995 ] final   87.39 input   59.86 | X-H torsion
[ 10167 10162 10161 10158 ] final  120.40 input  -65.29 | X-H torsion
[ 10718 10713 10712 10709 ] final   -4.52 input   66.30 | X-H torsion
[ 10763 10752 10751 10750 ] final -150.34 input  -60.55 | X-H torsion
[ 11005 11000 10999 10996 ] final  111.35 input  -57.11 | X-H torsion

> <Gold.Protein.ActiveResidues>
 VAL166  LYS551  ARG553  GLY616  TRP617  ASP618  TYR619  PRO620  LYS621  CYS622 
 ASP623  PHE694  ASN695  SER759  ASP760  ASP761  ALA762  ILE779  LEU786  VAL792 
 PHE793  MET794  SER795  GLU796  ALA797  LYS798  CYS799  TRP800  GLU811  SER814 

> <Gold.Protein.RotatedAtoms>
  151.2927  133.4158  159.2633 H   0  0  0  0  0  0  0  0  0  0  0  0  # atno 6907 bound_to 6896
  151.0263  134.9507  159.8097 H   0  0  0  0  0  0  0  0  0  0  0  0  # atno 6908 bound_to 6896
  152.5336  134.2889  159.9088 H   0  0  0  0  0  0  0  0  0  0  0  0  # atno 6909 bound_to 6896
  145.9344  140.7719  142.9583 H   0  0  0  0  0  0  0  0  0  0  0  0  # atno 7974 bound_to 7965
  155.9747  140.3382  155.6608 H   0  0  0  0  0  0  0  0  0  0  0  0  # atno 8008 bound_to 7997
  155.6628  140.0718  157.2566 H   0  0  0  0  0  0  0  0  0  0  0  0  # atno 8009 bound_to 7997
  154.4176  140.1705  156.1782 H   0  0  0  0  0  0  0  0  0  0  0  0  # atno 8010 bound_to 7997
  139.5984  144.7049  151.3120 H   0  0  0  0  0  0  0  0  0  0  0  0  # atno 10167 bound_to 10162
  156.7600  130.5266  149.5787 H   0  0  0  0  0  0  0  0  0  0  0  0  # atno 10718 bound_to 10713
  154.8124  135.3287  154.7268 H   0  0  0  0  0  0  0  0  0  0  0  0  # atno 10763 bound_to 10752
  153.7914  135.6910  153.4875 H   0  0  0  0  0  0  0  0  0  0  0  0  # atno 10764 bound_to 10752
  153.1914  135.4549  155.0100 H   0  0  0  0  0  0  0  0  0  0  0  0  # atno 10765 bound_to 10752
  139.8902  134.9506  156.6418 H   0  0  0  0  0  0  0  0  0  0  0  0  # atno 11005 bound_to 11000
  144.6769  140.2180  143.7369 LP  0  0  0  0  0  0  0  0  0  0  0  0  # atno 17320 bound_to 7965
  145.8383  139.2118  143.1842 LP  0  0  0  0  0  0  0  0  0  0  0  0  # atno 17321 bound_to 7965
  140.7231  143.7081  150.7791 LP  0  0  0  0  0  0  0  0  0  0  0  0  # atno 17342 bound_to 10162
  140.0652  143.5115  152.2607 LP  0  0  0  0  0  0  0  0  0  0  0  0  # atno 17343 bound_to 10162
  156.1345  130.6201  151.0381 LP  0  0  0  0  0  0  0  0  0  0  0  0  # atno 17370 bound_to 10713
  157.6739  131.0855  150.7544 LP  0  0  0  0  0  0  0  0  0  0  0  0  # atno 17371 bound_to 10713
  140.7587  133.8835  155.8402 LP  0  0  0  0  0  0  0  0  0  0  0  0  # atno 17394 bound_to 11000
  140.9940  134.1240  157.4381 LP  0  0  0  0  0  0  0  0  0  0  0  0  # atno 17395 bound_to 11000

$$$$
