AV-unprocessed.smi:2749|AV-procd|sdf|10585|dock10
  -GOLD-   2272015 33D 1   1.00000     0.00000
 Structure written by MMmdl.
 32 34  0  0  0  0  0  0  0  0  1 V2000
  150.8479  141.1429  156.8282 O   0  0  0  0  0  0  0  0  0  0  0  0
  150.3834  142.2635  156.6255 C   0  0  0  0  0  0  0  0  0  0  0  0
  150.5634  143.2600  157.5193 N   0  0  0  0  0  0  0  0  0  0  0  0
  151.2464  143.2996  158.7710 C   0  0  0  0  0  0  0  0  0  0  0  0
  151.0100  144.4697  159.5288 C   0  0  0  0  0  0  0  0  0  0  0  0
  151.6260  144.6223  160.7863 C   0  0  0  0  0  0  0  0  0  0  0  0
  152.4647  143.5964  161.2564 C   0  0  0  0  0  0  0  0  0  0  0  0
  153.0788  143.6972  162.4590 F   0  0  0  0  0  0  0  0  0  0  0  0
  152.6481  142.4624  160.4448 C   0  0  0  0  0  0  0  0  0  0  0  0
  152.0579  142.3166  159.2394 N   0  0  0  0  0  0  0  0  0  0  0  0
  149.6752  142.5714  155.5270 N   0  0  0  0  0  0  0  0  0  0  0  0
  149.3527  141.6685  154.4259 C   0  0  2  0  0  0  0  0  0  0  0  0
  148.0326  142.0470  153.7465 C   0  0  0  0  0  0  0  0  0  0  0  0
  147.2010  140.7717  153.9406 C   0  0  1  0  0  0  0  0  0  0  0  0
  147.7220  139.6056  153.0877 C   0  0  0  0  0  0  0  0  0  0  0  0
  149.0090  139.2286  153.8222 C   0  0  0  0  0  0  0  0  0  0  0  0
  149.0321  140.2612  154.9570 C   0  0  2  0  0  0  0  0  0  0  0  0
  147.6438  140.3735  155.2253 O   0  0  0  0  0  0  0  0  0  0  0  0
  150.1202  144.1300  157.2624 H   0  0  0  0  0  0  0  0  0  0  0  0
  150.3617  145.2484  159.1532 H   0  0  0  0  0  0  0  0  0  0  0  0
  151.4569  145.5098  161.3781 H   0  0  0  0  0  0  0  0  0  0  0  0
  153.2832  141.6514  160.7697 H   0  0  0  0  0  0  0  0  0  0  0  0
  149.3317  143.5183  155.4465 H   0  0  0  0  0  0  0  0  0  0  0  0
  150.1674  141.6220  153.7011 H   0  0  0  0  0  0  0  0  0  0  0  0
  147.5521  142.8915  154.2430 H   0  0  0  0  0  0  0  0  0  0  0  0
  148.1591  142.3034  152.6941 H   0  0  0  0  0  0  0  0  0  0  0  0
  146.1248  140.9296  153.8649 H   0  0  0  0  0  0  0  0  0  0  0  0
  147.0189  138.7720  153.0971 H   0  0  0  0  0  0  0  0  0  0  0  0
  147.8949  139.8957  152.0508 H   0  0  0  0  0  0  0  0  0  0  0  0
  148.9378  138.2164  154.2219 H   0  0  0  0  0  0  0  0  0  0  0  0
  149.8938  139.2836  153.1871 H   0  0  0  0  0  0  0  0  0  0  0  0
  149.6341  139.9544  155.8134 H   0  0  0  0  0  0  0  0  0  0  0  0
  1  2  2  0  0  0  0
  2  3  1  0  0  0  0
  2 11  1  0  0  0  0
  3  4  1  0  0  0  0
  3 19  1  0  0  0  0
  4 10  1  0  0  0  0
  4  5  2  0  0  0  0
  5  6  1  0  0  0  0
  5 20  1  0  0  0  0
  6  7  2  0  0  0  0
  6 21  1  0  0  0  0
  7  8  1  0  0  0  0
  7  9  1  0  0  0  0
  9 10  2  0  0  0  0
  9 22  1  0  0  0  0
 11 12  1  0  0  0  0
 11 23  1  0  0  0  0
 12 17  1  0  0  0  0
 12 13  1  0  0  0  0
 12 24  1  0  0  0  0
 13 14  1  0  0  0  0
 13 25  1  0  0  0  0
 13 26  1  0  0  0  0
 14 18  1  0  0  0  0
 14 15  1  0  0  0  0
 14 27  1  0  0  0  0
 15 16  1  0  0  0  0
 15 28  1  0  0  0  0
 15 29  1  0  0  0  0
 16 17  1  0  0  0  0
 16 30  1  0  0  0  0
 16 31  1  0  0  0  0
 17 18  1  0  0  0  0
 17 32  1  0  0  0  0
M  END
> <s_m_source_file>
AV-unprocessed.smi

> <i_m_source_file_index>
2749

> <i_lp_mmshare_version>
43012

> <i_f3d_flags>
0

> <s_epik_input>
W0NIMl0xW0NIMl1bQ0BIXShPMilbQ0BASF0oW0NIMl1bQ0BASF0xMilbTkhdQyg9TylbTkhdYzNbY0hdW2NIXWMoRilbY0hdbjM=

> <s_epik_cmdline>
J2VwaWtfcHl0aG9uJywgJy1waCcsICc3LjAnLCAnLXRuJywgJzgnLCAnLW1hJywgJzIwMCcsICctbWV0YWxfYmluZGluZycsICctaW1hZScsICc8aW5maWxlLm1hZT4nLCAnLW9tYWUnLCAnPG91dGZpbGUubWFlPic=

> <r_lp_tautomer_probability>
1

> <r_epik_Ionization_Penalty>
3.37159e-05

> <r_epik_Ionization_Penalty_Charging>
0

> <r_epik_Ionization_Penalty_Neutral>
3.37159e-05

> <r_epik_State_Penalty>
-0

> <r_epik_Charging_Adjusted_Penalty>
0

> <i_epik_Tot_Q>
0

> <i_epik_Tot_abs_Q>
0

> <r_epik_Metal_State_Penalty>
-0

> <b_epik_Metal_Only>
0

> <s_lp_Force_Field>
OPLS_2005

> <r_lp_Energy>
42.1362

> <b_lp_Chiralities_Consistent>
1

> <s_lp_Variant>
AV-unprocessed.smi:2749-1

> <Gold.Version>
5.8.1

> <Gold.Id.Protein>
6NUR|6NUR_protein|mol2

> <Gold.PLP.Fitness>
41.1860

> <Gold.PLP.PLP>
-36.2455

> <Gold.PLP.part.hbond>
-2.0000

> <Gold.PLP.part.metal>
0.0000

> <Gold.PLP.part.buried>
-3.6650

> <Gold.PLP.part.nonpolar>
-29.1606

> <Gold.PLP.part.repulsive>
0.2524

> <Gold.PLP.ligand.clash>
0.0000

> <Gold.PLP.ligand.torsion>
0.3647

> <Gold.PLP.Chemscore.Hbond>
1.8800

> <Gold.PLP.Chemscore.CHOScore>
0.0000

> <Gold.PLP.Chemscore.Metal>
0.0000

> <Gold.Chemscore.Hbonds>
donor molecule, donor type, donor heavy atom, donor atom, acceptor molecule, acceptor atom, score
      L1  H     3    19       P1  8028  0.62
      L1  H    11    23       P1  8028  0.41

> <Gold.PLP.Chemscore.Internal.Correction>
0.0299

> <Gold.Rescore>
     Score         DG    S(hbond)    S(metal)    S(lipo)     H(rot)  DE(clash)    DE(int)     intcor
     15.59     -19.07       1.93        0.00      82.86       1.00       0.77       2.70       ----

> <Gold.Chemscore.Fitness>
15.5921

> <Gold.Chemscore.DG>
-19.0661

> <Gold.Chemscore.ZeroCoef>
-5.4800

> <Gold.Chemscore.Hbond>
1.9315

> <Gold.Chemscore.Metal>
0.0000

> <Gold.Chemscore.Lipo>
82.8607

> <Gold.Chemscore.Internal_Hbond>
0.0000

> <Gold.Chemscore.DEClash>
0.7716

> <Gold.Chemscore.DEInternal>
2.7023

> <Gold.Chemscore.Rot>
1.0000

> <Gold.Chemscore.Internal.Correction>
   9.000000E+99

> <Gold.Chemscore.Hbonds>
donor molecule, donor type, donor heavy atom, donor atom, acceptor molecule, acceptor atom, score
      L1  H     3    19       P1  8028  0.46
      L1  H    11    23       P1  8028  0.41

> <Gold.Chemscore.Hbond.Weighted>
-6.4513

> <Gold.Chemscore.Metal.Weighted>
-0.0000

> <Gold.Chemscore.Lipo.Weighted>
-9.6947

> <Gold.Chemscore.Internal_Hbond.Weighted>
0.0000

> <Gold.Chemscore.DEClash.Weighted>
0.7716

> <Gold.Chemscore.DEInternal.Weighted>
2.7023

> <Gold.Chemscore.Rot.Weighted>
2.5600

> <Gold.Chemscore.Internal.Correction.Weighted>
   9.000000E+99

> <Gold.Protein.RotatedTorsions>
[ 6907 6896 6895 6894 ] final -107.02 input  -60.11 | X-H torsion
[ 7974 7965 7964 7962 ] final  170.67 input  175.53 | X-H torsion
[ 8008 7997 7996 7995 ] final  142.60 input   59.86 | X-H torsion
[ 10167 10162 10161 10158 ] final  -66.02 input  -65.29 | X-H torsion
[ 10718 10713 10712 10709 ] final   30.36 input   66.30 | X-H torsion
[ 10763 10752 10751 10750 ] final  154.03 input  -60.55 | X-H torsion
[ 11005 11000 10999 10996 ] final  -90.93 input  -57.11 | X-H torsion

> <Gold.Protein.ActiveResidues>
 VAL166  LYS551  ARG553  GLY616  TRP617  ASP618  TYR619  PRO620  LYS621  CYS622 
 ASP623  PHE694  ASN695  SER759  ASP760  ASP761  ALA762  ILE779  LEU786  VAL792 
 PHE793  MET794  SER795  GLU796  ALA797  LYS798  CYS799  TRP800  GLU811  SER814 

> <Gold.Protein.RotatedAtoms>
  150.7421  133.9889  159.3600 H   0  0  0  0  0  0  0  0  0  0  0  0  # atno 6907 bound_to 6896
  151.7835  135.0753  160.0386 H   0  0  0  0  0  0  0  0  0  0  0  0  # atno 6908 bound_to 6896
  152.3257  133.5866  159.5811 H   0  0  0  0  0  0  0  0  0  0  0  0  # atno 6909 bound_to 6896
  144.7317  139.9237  143.6421 H   0  0  0  0  0  0  0  0  0  0  0  0  # atno 7974 bound_to 7965
  156.2946  140.2284  156.4754 H   0  0  0  0  0  0  0  0  0  0  0  0  # atno 8008 bound_to 7997
  154.7899  140.0455  157.1213 H   0  0  0  0  0  0  0  0  0  0  0  0  # atno 8009 bound_to 7997
  154.9658  140.3060  155.5013 H   0  0  0  0  0  0  0  0  0  0  0  0  # atno 8010 bound_to 7997
  140.5687  143.2316  151.6582 H   0  0  0  0  0  0  0  0  0  0  0  0  # atno 10167 bound_to 10162
  157.2585  130.7150  149.6442 H   0  0  0  0  0  0  0  0  0  0  0  0  # atno 10718 bound_to 10713
  154.1457  135.2818  155.3149 H   0  0  0  0  0  0  0  0  0  0  0  0  # atno 10763 bound_to 10752
  154.6254  135.5453  153.7625 H   0  0  0  0  0  0  0  0  0  0  0  0  # atno 10764 bound_to 10752
  153.0236  135.6449  154.1603 H   0  0  0  0  0  0  0  0  0  0  0  0  # atno 10765 bound_to 10752
  141.1555  133.7723  156.9807 H   0  0  0  0  0  0  0  0  0  0  0  0  # atno 11005 bound_to 11000
  146.0910  139.3900  143.0405 LP  0  0  0  0  0  0  0  0  0  0  0  0  # atno 17320 bound_to 7965
  145.7711  140.9896  143.1149 LP  0  0  0  0  0  0  0  0  0  0  0  0  # atno 17321 bound_to 7965
  139.5106  144.3537  152.0628 LP  0  0  0  0  0  0  0  0  0  0  0  0  # atno 17342 bound_to 10162
  140.2672  144.4004  150.6164 LP  0  0  0  0  0  0  0  0  0  0  0  0  # atno 17343 bound_to 10162
  155.9664  130.4405  150.5301 LP  0  0  0  0  0  0  0  0  0  0  0  0  # atno 17370 bound_to 10713
  157.3201  131.0680  151.1938 LP  0  0  0  0  0  0  0  0  0  0  0  0  # atno 17371 bound_to 10713
  140.1068  134.9502  157.2005 LP  0  0  0  0  0  0  0  0  0  0  0  0  # atno 17394 bound_to 11000
  140.3246  134.2878  155.7239 LP  0  0  0  0  0  0  0  0  0  0  0  0  # atno 17395 bound_to 11000

$$$$
