AV-unprocessed.smi:3058|AV-procd|sdf|11670|dock6
  -GOLD-   2272017 73D 1   1.00000     0.00000
 Structure written by MMmdl.
 38 40  0  0  0  0  0  0  0  0  1 V2000
  151.5853  141.0532  158.9866 O   0  0  0  0  0  0  0  0  0  0  0  0
  151.3053  141.7472  158.0082 C   0  0  0  0  0  0  0  0  0  0  0  0
  150.9594  141.2276  156.8203 N   0  0  0  0  0  0  0  0  0  0  0  0
  150.8825  139.8028  156.5212 C   0  0  0  0  0  0  0  0  0  0  0  0
  150.8194  139.5453  155.0070 C   0  0  0  0  0  0  0  0  0  0  0  0
  149.4943  139.9780  154.4116 C   0  0  0  0  0  0  0  0  0  0  0  0
  149.0755  141.3225  154.4824 C   0  0  0  0  0  0  0  0  0  0  0  0
  147.8396  141.6788  153.9092 C   0  0  0  0  0  0  0  0  0  0  0  0
  147.0739  140.6722  153.2873 C   0  0  0  0  0  0  0  0  0  0  0  0
  147.4655  139.3817  153.2130 N   0  0  0  0  0  0  0  0  0  0  0  0
  148.6518  139.0485  153.7656 C   0  0  0  0  0  0  0  0  0  0  0  0
  151.3143  143.2835  158.0967 C   0  0  1  0  0  0  0  0  0  0  0  0
  150.2998  143.8808  159.1034 C   0  0  0  0  0  0  0  0  0  0  0  0
  151.1792  144.7899  159.9827 C   0  0  1  0  0  0  0  0  0  0  0  0
  152.0508  143.9223  160.9102 C   0  0  0  0  0  0  0  0  0  0  0  0
  153.1099  143.3552  159.9474 C   0  0  0  0  0  0  0  0  0  0  0  0
  152.6531  143.9043  158.5776 C   0  0  2  0  0  0  0  0  0  0  0  0
  152.2005  145.3063  158.9755 C   0  0  0  0  0  0  0  0  0  0  0  0
  150.7362  141.8651  156.0698 H   0  0  0  0  0  0  0  0  0  0  0  0
  151.7337  139.2822  156.9636 H   0  0  0  0  0  0  0  0  0  0  0  0
  149.9899  139.4037  157.0039 H   0  0  0  0  0  0  0  0  0  0  0  0
  151.6268  140.0775  154.5021 H   0  0  0  0  0  0  0  0  0  0  0  0
  150.9701  138.4859  154.7952 H   0  0  0  0  0  0  0  0  0  0  0  0
  149.6898  142.0688  154.9646 H   0  0  0  0  0  0  0  0  0  0  0  0
  147.4875  142.6991  153.9445 H   0  0  0  0  0  0  0  0  0  0  0  0
  146.1215  140.9105  152.8371 H   0  0  0  0  0  0  0  0  0  0  0  0
  148.9378  138.0098  153.6862 H   0  0  0  0  0  0  0  0  0  0  0  0
  151.0839  143.6817  157.1065 H   0  0  0  0  0  0  0  0  0  0  0  0
  149.5516  144.4725  158.5745 H   0  0  0  0  0  0  0  0  0  0  0  0
  149.7617  143.1404  159.6967 H   0  0  0  0  0  0  0  0  0  0  0  0
  150.6178  145.5626  160.5084 H   0  0  0  0  0  0  0  0  0  0  0  0
  152.5222  144.5273  161.6856 H   0  0  0  0  0  0  0  0  0  0  0  0
  151.4737  143.1376  161.4010 H   0  0  0  0  0  0  0  0  0  0  0  0
  154.0945  143.7505  160.2006 H   0  0  0  0  0  0  0  0  0  0  0  0
  153.1855  142.2693  159.9882 H   0  0  0  0  0  0  0  0  0  0  0  0
  153.4361  143.8870  157.8190 H   0  0  0  0  0  0  0  0  0  0  0  0
  151.7531  145.8692  158.1542 H   0  0  0  0  0  0  0  0  0  0  0  0
  152.9906  145.9069  159.4299 H   0  0  0  0  0  0  0  0  0  0  0  0
  1  2  2  0  0  0  0
  2  3  1  0  0  0  0
  2 12  1  0  0  0  0
  3  4  1  0  0  0  0
  3 19  1  0  0  0  0
  4  5  1  0  0  0  0
  4 20  1  0  0  0  0
  4 21  1  0  0  0  0
  5  6  1  0  0  0  0
  5 22  1  0  0  0  0
  5 23  1  0  0  0  0
  6 11  1  0  0  0  0
  6  7  2  0  0  0  0
  7  8  1  0  0  0  0
  7 24  1  0  0  0  0
  8  9  2  0  0  0  0
  8 25  1  0  0  0  0
  9 10  1  0  0  0  0
  9 26  1  0  0  0  0
 10 11  2  0  0  0  0
 11 27  1  0  0  0  0
 12 17  1  0  0  0  0
 12 13  1  0  0  0  0
 12 28  1  0  0  0  0
 13 14  1  0  0  0  0
 13 29  1  0  0  0  0
 13 30  1  0  0  0  0
 14 18  1  0  0  0  0
 14 15  1  0  0  0  0
 14 31  1  0  0  0  0
 15 16  1  0  0  0  0
 15 32  1  0  0  0  0
 15 33  1  0  0  0  0
 16 17  1  0  0  0  0
 16 34  1  0  0  0  0
 16 35  1  0  0  0  0
 17 18  1  0  0  0  0
 17 36  1  0  0  0  0
 18 37  1  0  0  0  0
 18 38  1  0  0  0  0
M  END
> <s_m_source_file>
AV-unprocessed.smi

> <i_m_source_file_index>
3058

> <i_lp_mmshare_version>
43012

> <i_f3d_flags>
0

> <s_epik_input>
W0NIMl0xW0NIMl1bQ0BIXShbQ0gyXTIpW0NAQEhdKFtDSDJdW0NAQEhdMTIpQyg9TylbTkhdW0NIMl1bQ0gyXWMzW2NIXVtjSF1bY0hdbltjSF0z

> <s_epik_cmdline>
J2VwaWtfcHl0aG9uJywgJy1waCcsICc3LjAnLCAnLXRuJywgJzgnLCAnLW1hJywgJzIwMCcsICctbWV0YWxfYmluZGluZycsICctaW1hZScsICc8aW5maWxlLm1hZT4nLCAnLW9tYWUnLCAnPG91dGZpbGUubWFlPic=

> <r_epik_Ionization_Penalty>
0.0135821

> <r_epik_Ionization_Penalty_Charging>
0

> <r_epik_Ionization_Penalty_Neutral>
0.0135821

> <r_epik_State_Penalty>
0.0105782

> <r_epik_Charging_Adjusted_Penalty>
0.0105782

> <i_epik_Tot_Q>
0

> <i_epik_Tot_abs_Q>
0

> <r_epik_Metal_State_Penalty>
0.0103407

> <b_epik_Metal_Only>
0

> <s_lp_Force_Field>
OPLS_2005

> <r_lp_Energy>
46.4092

> <b_lp_Chiralities_Consistent>
1

> <s_lp_Variant>
AV-unprocessed.smi:3058-2

> <Gold.Version>
5.8.1

> <Gold.Id.Protein>
6NUR|6NUR_protein|mol2

> <Gold.PLP.Fitness>
50.0052

> <Gold.PLP.PLP>
-44.2831

> <Gold.PLP.part.hbond>
0.0000

> <Gold.PLP.part.metal>
0.0000

> <Gold.PLP.part.buried>
-3.0876

> <Gold.PLP.part.nonpolar>
-41.0568

> <Gold.PLP.part.repulsive>
1.0515

> <Gold.PLP.ligand.clash>
0.0000

> <Gold.PLP.ligand.torsion>
0.1460

> <Gold.PLP.Chemscore.Hbond>
0.0000

> <Gold.PLP.Chemscore.CHOScore>
2.0000

> <Gold.PLP.Chemscore.Metal>
0.0000

> <Gold.Chemscore.Hbonds>
donor molecule, donor type, donor heavy atom, donor atom, acceptor molecule, acceptor atom, score
      L1  C     9    26       P1 10175  1.00
      L1  C    11    27       P1  7948  1.00

> <Gold.PLP.Chemscore.Internal.Correction>
0.0141

> <Gold.Rescore>
     Score         DG    S(hbond)    S(metal)    S(lipo)     H(rot)  DE(clash)    DE(int)     intcor
     16.19     -17.55       0.00        0.00     133.00       1.37       0.13       1.23       ----

> <Gold.Chemscore.Fitness>
16.1924

> <Gold.Chemscore.DG>
-17.5462

> <Gold.Chemscore.ZeroCoef>
-5.4800

> <Gold.Chemscore.Hbond>
0.0000

> <Gold.Chemscore.Metal>
0.0000

> <Gold.Chemscore.Lipo>
133.0033

> <Gold.Chemscore.Internal_Hbond>
0.0000

> <Gold.Chemscore.DEClash>
0.1251

> <Gold.Chemscore.DEInternal>
1.2287

> <Gold.Chemscore.Rot>
1.3653

> <Gold.Chemscore.Internal.Correction>
   9.000000E+99

> <Gold.Chemscore.Hbond.Weighted>
-0.0000

> <Gold.Chemscore.Metal.Weighted>
-0.0000

> <Gold.Chemscore.Lipo.Weighted>
-15.5614

> <Gold.Chemscore.Internal_Hbond.Weighted>
0.0000

> <Gold.Chemscore.DEClash.Weighted>
0.1251

> <Gold.Chemscore.DEInternal.Weighted>
1.2287

> <Gold.Chemscore.Rot.Weighted>
3.4951

> <Gold.Chemscore.Internal.Correction.Weighted>
   9.000000E+99

> <Gold.Protein.RotatedTorsions>
[ 6907 6896 6895 6894 ] final  -54.78 input  -60.11 | X-H torsion
[ 7974 7965 7964 7962 ] final -129.96 input  175.53 | X-H torsion
[ 8008 7997 7996 7995 ] final  175.76 input   59.86 | X-H torsion
[ 10167 10162 10161 10158 ] final   90.39 input  -65.29 | X-H torsion
[ 10718 10713 10712 10709 ] final   69.74 input   66.30 | X-H torsion
[ 10763 10752 10751 10750 ] final  145.85 input  -60.55 | X-H torsion
[ 11005 11000 10999 10996 ] final  167.64 input  -57.11 | X-H torsion

> <Gold.Protein.ActiveResidues>
 VAL166  LYS551  ARG553  GLY616  TRP617  ASP618  TYR619  PRO620  LYS621  CYS622 
 ASP623  PHE694  ASN695  SER759  ASP760  ASP761  ALA762  ILE779  LEU786  VAL792 
 PHE793  MET794  SER795  GLU796  ALA797  LYS798  CYS799  TRP800  GLU811  SER814 

> <Gold.Protein.RotatedAtoms>
  150.8308  134.7560  159.6851 H   0  0  0  0  0  0  0  0  0  0  0  0  # atno 6907 bound_to 6896
  152.4413  134.5582  159.9896 H   0  0  0  0  0  0  0  0  0  0  0  0  # atno 6908 bound_to 6896
  151.5744  133.3348  159.3032 H   0  0  0  0  0  0  0  0  0  0  0  0  # atno 6909 bound_to 6896
  144.9521  140.7355  143.4781 H   0  0  0  0  0  0  0  0  0  0  0  0  # atno 7974 bound_to 7965
  156.0837  140.1401  156.9681 H   0  0  0  0  0  0  0  0  0  0  0  0  # atno 8008 bound_to 7997
  154.4600  140.0947  156.6914 H   0  0  0  0  0  0  0  0  0  0  0  0  # atno 8009 bound_to 7997
  155.5034  140.3451  155.4377 H   0  0  0  0  0  0  0  0  0  0  0  0  # atno 8010 bound_to 7997
  139.8478  144.6609  150.9205 H   0  0  0  0  0  0  0  0  0  0  0  0  # atno 10167 bound_to 10162
  157.6362  130.9441  150.0555 H   0  0  0  0  0  0  0  0  0  0  0  0  # atno 10718 bound_to 10713
  154.0122  135.2913  155.3391 H   0  0  0  0  0  0  0  0  0  0  0  0  # atno 10763 bound_to 10752
  154.7096  135.5155  153.8650 H   0  0  0  0  0  0  0  0  0  0  0  0  # atno 10764 bound_to 10752
  153.0718  135.6650  154.0353 H   0  0  0  0  0  0  0  0  0  0  0  0  # atno 10765 bound_to 10752
  140.2789  134.7767  157.3740 H   0  0  0  0  0  0  0  0  0  0  0  0  # atno 11005 bound_to 11000
  145.2828  139.1912  143.4781 LP  0  0  0  0  0  0  0  0  0  0  0  0  # atno 17320 bound_to 7965
  146.3324  140.2793  142.8609 LP  0  0  0  0  0  0  0  0  0  0  0  0  # atno 17321 bound_to 7965
  140.7791  143.3854  151.1403 LP  0  0  0  0  0  0  0  0  0  0  0  0  # atno 17342 bound_to 10162
  139.7495  143.8801  152.3073 LP  0  0  0  0  0  0  0  0  0  0  0  0  # atno 17343 bound_to 10162
  156.1604  130.3644  149.9308 LP  0  0  0  0  0  0  0  0  0  0  0  0  # atno 17370 bound_to 10713
  156.7307  130.9042  151.3625 LP  0  0  0  0  0  0  0  0  0  0  0  0  # atno 17371 bound_to 10713
  140.1302  134.5104  155.8111 LP  0  0  0  0  0  0  0  0  0  0  0  0  # atno 17394 bound_to 11000
  141.2166  133.6787  156.7026 LP  0  0  0  0  0  0  0  0  0  0  0  0  # atno 17395 bound_to 11000

$$$$
