AV-unprocessed.smi:1295|AV-procd|sdf|5412|dock7
  -GOLD-   22720 4573D 1   1.00000     0.00000
 Structure written by MMmdl.
 42 43  0  0  0  0  0  0  0  0  2 V2000
  152.9456  143.7107  163.4197 C   0  0  0  0  0  0  0  0  0  0  0  0
  152.4522  143.7549  161.9895 C   0  0  0  0  0  0  0  0  0  0  0  0
  151.7145  144.7284  161.6122 N   0  0  0  0  0  0  0  0  0  0  0  0
  151.2506  144.7707  160.2864 C   0  0  0  0  0  0  0  0  0  0  0  0
  150.3816  145.9632  159.9253 C   0  0  0  0  0  0  0  0  0  0  0  0
  151.5716  143.7897  159.3946 C   0  0  0  0  0  0  0  0  0  0  0  0
  151.0909  143.7912  157.9440 C   0  0  0  0  0  0  0  0  0  0  0  0
  150.0316  142.7430  157.5968 C   0  0  0  0  0  0  0  0  0  0  0  0
  149.0981  142.5236  158.3686 O   0  0  0  0  0  0  0  0  0  0  0  0
  150.1914  142.1069  156.4257 N   0  0  0  0  0  0  0  0  0  0  0  0
  149.2895  141.1040  155.8619 C   0  0  1  0  0  0  0  0  0  0  0  0
  147.9371  141.7783  155.5583 C   0  0  0  0  0  0  0  0  0  0  0  0
  146.9499  140.8060  154.8971 C   0  0  0  0  0  0  0  0  0  0  0  0
  147.5518  140.1923  153.6263 C   0  0  0  0  0  0  0  0  0  0  0  0
  148.8878  139.4992  153.9311 C   0  0  0  0  0  0  0  0  0  0  0  0
  149.8990  140.4598  154.5894 C   0  0  2  0  0  0  0  0  0  0  0  0
  151.2262  139.7314  154.8675 C   0  0  0  0  0  0  0  0  0  0  0  0
  152.4226  142.6843  159.8703 C   0  0  0  0  0  0  0  0  0  0  0  0
  152.7339  141.7678  159.1107 O   0  0  0  0  0  0  0  0  0  0  0  0
  152.8398  142.7206  161.1679 N   0  5  0  0  0  0  0  0  0  0  0  0
  152.4364  144.4542  164.0343 H   0  0  0  0  0  0  0  0  0  0  0  0
  154.0165  143.9111  163.4538 H   0  0  0  0  0  0  0  0  0  0  0  0
  152.7631  142.7275  163.8551 H   0  0  0  0  0  0  0  0  0  0  0  0
  150.8555  146.5604  159.1462 H   0  0  0  0  0  0  0  0  0  0  0  0
  150.2188  146.6088  160.7893 H   0  0  0  0  0  0  0  0  0  0  0  0
  149.4060  145.6338  159.5672 H   0  0  0  0  0  0  0  0  0  0  0  0
  150.6951  144.7821  157.7195 H   0  0  0  0  0  0  0  0  0  0  0  0
  151.9274  143.6680  157.2558 H   0  0  0  0  0  0  0  0  0  0  0  0
  150.9943  142.3552  155.8665 H   0  0  0  0  0  0  0  0  0  0  0  0
  149.1061  140.3128  156.5914 H   0  0  0  0  0  0  0  0  0  0  0  0
  147.5022  142.1701  156.4789 H   0  0  0  0  0  0  0  0  0  0  0  0
  148.0904  142.6358  154.9011 H   0  0  0  0  0  0  0  0  0  0  0  0
  146.6893  140.0134  155.5998 H   0  0  0  0  0  0  0  0  0  0  0  0
  146.0219  141.3251  154.6563 H   0  0  0  0  0  0  0  0  0  0  0  0
  146.8526  139.4772  153.1917 H   0  0  0  0  0  0  0  0  0  0  0  0
  147.7041  140.9709  152.8777 H   0  0  0  0  0  0  0  0  0  0  0  0
  148.7109  138.6461  154.5876 H   0  0  0  0  0  0  0  0  0  0  0  0
  149.3044  139.0951  153.0079 H   0  0  0  0  0  0  0  0  0  0  0  0
  150.1079  141.2570  153.8740 H   0  0  0  0  0  0  0  0  0  0  0  0
  151.0976  138.9488  155.6158 H   0  0  0  0  0  0  0  0  0  0  0  0
  151.9939  140.4152  155.2300 H   0  0  0  0  0  0  0  0  0  0  0  0
  151.6145  139.2647  153.9619 H   0  0  0  0  0  0  0  0  0  0  0  0
  1  2  1  0  0  0  0
  1 21  1  0  0  0  0
  1 22  1  0  0  0  0
  1 23  1  0  0  0  0
  2 20  1  0  0  0  0
  2  3  2  0  0  0  0
  3  4  1  0  0  0  0
  4  5  1  0  0  0  0
  4  6  2  0  0  0  0
  5 24  1  0  0  0  0
  5 25  1  0  0  0  0
  5 26  1  0  0  0  0
  6  7  1  0  0  0  0
  6 18  1  0  0  0  0
  7  8  1  0  0  0  0
  7 27  1  0  0  0  0
  7 28  1  0  0  0  0
  8  9  2  0  0  0  0
  8 10  1  0  0  0  0
 10 11  1  0  0  0  0
 10 29  1  0  0  0  0
 11 16  1  0  0  0  0
 11 12  1  0  0  0  0
 11 30  1  0  0  0  0
 12 13  1  0  0  0  0
 12 31  1  0  0  0  0
 12 32  1  0  0  0  0
 13 14  1  0  0  0  0
 13 33  1  0  0  0  0
 13 34  1  0  0  0  0
 14 15  1  0  0  0  0
 14 35  1  0  0  0  0
 14 36  1  0  0  0  0
 15 16  1  0  0  0  0
 15 37  1  0  0  0  0
 15 38  1  0  0  0  0
 16 17  1  0  0  0  0
 16 39  1  0  0  0  0
 17 40  1  0  0  0  0
 17 41  1  0  0  0  0
 17 42  1  0  0  0  0
 18 19  2  0  0  0  0
 18 20  1  0  0  0  0
M  CHG  1  20  -1
M  END
> <s_m_source_file>
AV-unprocessed.smi

> <i_m_source_file_index>
1295

> <i_lp_mmshare_version>
43012

> <i_f3d_flags>
0

> <s_epik_input>
W0NIM11jMW5jKFtDSDNdKWMoYyg9TylbbkhdMSlbQ0gyXUMoPU8pW05IXVtDQEBIXTJbQ0gyXVtDSDJdW0NIMl1bQ0gyXVtDQEhdMltDSDNd

> <s_epik_cmdline>
J2VwaWtfcHl0aG9uJywgJy1waCcsICc3LjAnLCAnLXRuJywgJzgnLCAnLW1hJywgJzIwMCcsICctbWV0YWxfYmluZGluZycsICctaW1hZScsICc8aW5maWxlLm1hZT4nLCAnLW9tYWUnLCAnPG91dGZpbGUubWFlPic=

> <r_lp_tautomer_probability>
0.839158

> <r_epik_Ionization_Penalty>
6.67742

> <r_epik_Ionization_Penalty_Charging>
7.78154e-08

> <r_epik_Ionization_Penalty_Neutral>
6.67742

> <r_epik_State_Penalty>
4.51991

> <r_epik_Charging_Adjusted_Penalty>
4.51991

> <i_epik_Tot_Q>
-1

> <i_epik_Tot_abs_Q>
1

> <r_epik_Metal_State_Penalty>
0.853272

> <b_epik_Metal_Only>
1

> <s_lp_Force_Field>
OPLS_2005

> <r_lp_Energy>
15.3241

> <b_lp_Chiralities_Consistent>
1

> <s_lp_Variant>
AV-unprocessed.smi:1295-12

> <Gold.Version>
5.8.1

> <Gold.Id.Protein>
6NUR|6NUR_protein|mol2

> <Gold.PLP.Fitness>
41.1630

> <Gold.PLP.PLP>
-41.9487

> <Gold.PLP.part.hbond>
0.0000

> <Gold.PLP.part.metal>
0.0000

> <Gold.PLP.part.buried>
-2.6416

> <Gold.PLP.part.nonpolar>
-38.0862

> <Gold.PLP.part.repulsive>
0.3574

> <Gold.PLP.ligand.clash>
0.0000

> <Gold.PLP.ligand.torsion>
0.3954

> <Gold.PLP.Chemscore.Hbond>
0.0000

> <Gold.PLP.Chemscore.CHOScore>
0.0000

> <Gold.PLP.Chemscore.Metal>
0.0000

> <Gold.PLP.Chemscore.Internal.Correction>
0.0050

> <Gold.Rescore>
     Score         DG    S(hbond)    S(metal)    S(lipo)     H(rot)  DE(clash)    DE(int)     intcor
     12.81     -13.27       0.00        0.00      98.21       1.45       0.11       0.36       ----

> <Gold.Chemscore.Fitness>
12.8078

> <Gold.Chemscore.DG>
-13.2713

> <Gold.Chemscore.ZeroCoef>
-5.4800

> <Gold.Chemscore.Hbond>
0.0000

> <Gold.Chemscore.Metal>
0.0000

> <Gold.Chemscore.Lipo>
98.2098

> <Gold.Chemscore.Internal_Hbond>
0.0000

> <Gold.Chemscore.DEClash>
0.1072

> <Gold.Chemscore.DEInternal>
0.3564

> <Gold.Chemscore.Rot>
1.4450

> <Gold.Chemscore.Internal.Correction>
   9.000000E+99

> <Gold.Chemscore.Hbond.Weighted>
-0.0000

> <Gold.Chemscore.Metal.Weighted>
-0.0000

> <Gold.Chemscore.Lipo.Weighted>
-11.4905

> <Gold.Chemscore.Internal_Hbond.Weighted>
0.0000

> <Gold.Chemscore.DEClash.Weighted>
0.1072

> <Gold.Chemscore.DEInternal.Weighted>
0.3564

> <Gold.Chemscore.Rot.Weighted>
3.6992

> <Gold.Chemscore.Internal.Correction.Weighted>
   9.000000E+99

> <Gold.Protein.RotatedTorsions>
[ 6907 6896 6895 6894 ] final -123.57 input  -60.11 | X-H torsion
[ 7974 7965 7964 7962 ] final   35.66 input  175.53 | X-H torsion
[ 8008 7997 7996 7995 ] final   23.82 input   59.86 | X-H torsion
[ 10167 10162 10161 10158 ] final   67.43 input  -65.29 | X-H torsion
[ 10718 10713 10712 10709 ] final  -36.48 input   66.30 | X-H torsion
[ 10763 10752 10751 10750 ] final  -49.80 input  -60.55 | X-H torsion
[ 11005 11000 10999 10996 ] final  -92.71 input  -57.11 | X-H torsion

> <Gold.Protein.ActiveResidues>
 VAL166  LYS551  ARG553  GLY616  TRP617  ASP618  TYR619  PRO620  LYS621  CYS622 
 ASP623  PHE694  ASN695  SER759  ASP760  ASP761  ALA762  ILE779  LEU786  VAL792 
 PHE793  MET794  SER795  GLU796  ALA797  LYS798  CYS799  TRP800  GLU811  SER814 

> <Gold.Protein.RotatedAtoms>
  150.8684  133.7541  159.2968 H   0  0  0  0  0  0  0  0  0  0  0  0  # atno 6907 bound_to 6896
  151.5161  135.1064  159.9876 H   0  0  0  0  0  0  0  0  0  0  0  0  # atno 6908 bound_to 6896
  152.4677  133.7916  159.6960 H   0  0  0  0  0  0  0  0  0  0  0  0  # atno 6909 bound_to 6896
  146.1267  139.6115  142.9253 H   0  0  0  0  0  0  0  0  0  0  0  0  # atno 7974 bound_to 7965
  154.9868  140.3109  155.4923 H   0  0  0  0  0  0  0  0  0  0  0  0  # atno 8008 bound_to 7997
  156.2945  140.2256  156.4910 H   0  0  0  0  0  0  0  0  0  0  0  0  # atno 8009 bound_to 7997
  154.7739  140.0450  157.1062 H   0  0  0  0  0  0  0  0  0  0  0  0  # atno 8010 bound_to 7997
  140.0896  144.4999  150.7107 H   0  0  0  0  0  0  0  0  0  0  0  0  # atno 10167 bound_to 10162
  156.3263  130.4273  149.7913 H   0  0  0  0  0  0  0  0  0  0  0  0  # atno 10718 bound_to 10713
  154.1000  135.6565  153.4866 H   0  0  0  0  0  0  0  0  0  0  0  0  # atno 10763 bound_to 10752
  153.0292  135.5223  154.7296 H   0  0  0  0  0  0  0  0  0  0  0  0  # atno 10764 bound_to 10752
  154.6445  135.2993  155.0032 H   0  0  0  0  0  0  0  0  0  0  0  0  # atno 10765 bound_to 10752
  141.1515  133.7839  157.0057 H   0  0  0  0  0  0  0  0  0  0  0  0  # atno 11005 bound_to 11000
  145.5349  141.0425  143.2362 LP  0  0  0  0  0  0  0  0  0  0  0  0  # atno 17320 bound_to 7965
  144.7650  139.6867  143.7219 LP  0  0  0  0  0  0  0  0  0  0  0  0  # atno 17321 bound_to 7965
  140.7035  143.2451  151.4794 LP  0  0  0  0  0  0  0  0  0  0  0  0  # atno 17342 bound_to 10162
  139.5732  144.1880  152.1866 LP  0  0  0  0  0  0  0  0  0  0  0  0  # atno 17343 bound_to 10162
  156.5202  130.8212  151.3201 LP  0  0  0  0  0  0  0  0  0  0  0  0  # atno 17370 bound_to 10713
  157.7422  130.9885  150.2498 LP  0  0  0  0  0  0  0  0  0  0  0  0  # atno 17371 bound_to 10713
  140.0910  134.9592  157.1776 LP  0  0  0  0  0  0  0  0  0  0  0  0  # atno 17394 bound_to 11000
  140.3446  134.2666  155.7207 LP  0  0  0  0  0  0  0  0  0  0  0  0  # atno 17395 bound_to 11000

$$$$
