AV-unprocessed.smi:1464|AV-procd|sdf|5938|dock2
  -GOLD-   22720 6 23D 1   1.00000     0.00000
 Structure written by MMmdl.
 40 41  0  0  0  0  0  0  0  0  2 V2000
  152.2382  144.0111  160.9855 C   0  0  0  0  0  0  0  0  0  0  0  0
  153.1254  143.4749  159.8433 C   0  0  1  0  0  0  0  0  0  0  0  0
  153.9095  142.2192  160.2747 C   0  0  0  0  0  0  0  0  0  0  0  0
  153.0032  140.9845  160.3951 C   0  0  0  0  0  0  0  0  0  0  0  0
  152.2513  140.7207  159.0834 C   0  0  0  0  0  0  0  0  0  0  0  0
  151.4543  141.9554  158.6127 C   0  0  2  0  0  0  0  0  0  0  0  0
  150.8462  141.6711  157.3146 N   0  0  0  0  0  0  0  0  0  0  0  0
  149.5302  141.6454  157.0538 C   0  0  0  0  0  0  0  0  0  0  0  0
  148.6701  141.8666  157.9078 O   0  0  0  0  0  0  0  0  0  0  0  0
  149.1537  141.3126  155.6011 C   0  0  0  0  0  0  0  0  0  0  0  0
  149.3931  139.9143  155.2145 N   0  0  0  0  0  0  0  0  0  0  0  0
  148.1734  139.1192  155.0964 N   0  5  0  0  0  0  0  0  0  0  0  0
  148.2675  137.8099  154.7432 C   0  0  0  0  0  0  0  0  0  0  0  0
  147.2871  137.0773  154.6328 O   0  0  0  0  0  0  0  0  0  0  0  0
  149.5897  137.2646  154.4840 C   0  0  0  0  0  0  0  0  0  0  0  0
  150.6970  138.0261  154.5837 C   0  0  0  0  0  0  0  0  0  0  0  0
  150.6434  139.4343  154.9569 C   0  0  0  0  0  0  0  0  0  0  0  0
  151.6498  140.1395  155.0350 O   0  0  0  0  0  0  0  0  0  0  0  0
  152.3635  143.2084  158.5172 C   0  0  1  0  0  0  0  0  0  0  0  0
  151.6127  144.4565  158.0116 C   0  0  0  0  0  0  0  0  0  0  0  0
  151.4219  143.3314  161.2279 H   0  0  0  0  0  0  0  0  0  0  0  0
  151.7997  144.9762  160.7328 H   0  0  0  0  0  0  0  0  0  0  0  0
  152.8228  144.1579  161.8942 H   0  0  0  0  0  0  0  0  0  0  0  0
  153.8641  144.2520  159.6423 H   0  0  0  0  0  0  0  0  0  0  0  0
  154.6911  142.0153  159.5414 H   0  0  0  0  0  0  0  0  0  0  0  0
  154.4237  142.3990  161.2194 H   0  0  0  0  0  0  0  0  0  0  0  0
  153.6012  140.1116  160.6583 H   0  0  0  0  0  0  0  0  0  0  0  0
  152.2898  141.1206  161.2081 H   0  0  0  0  0  0  0  0  0  0  0  0
  152.9688  140.4322  158.3137 H   0  0  0  0  0  0  0  0  0  0  0  0
  151.5821  139.8690  159.2129 H   0  0  0  0  0  0  0  0  0  0  0  0
  150.6638  142.1602  159.3367 H   0  0  0  0  0  0  0  0  0  0  0  0
  151.4778  141.4803  156.5504 H   0  0  0  0  0  0  0  0  0  0  0  0
  148.1023  141.5676  155.4549 H   0  0  0  0  0  0  0  0  0  0  0  0
  149.7082  141.9770  154.9362 H   0  0  0  0  0  0  0  0  0  0  0  0
  149.6855  136.2261  154.2034 H   0  0  0  0  0  0  0  0  0  0  0  0
  151.6587  137.5790  154.3813 H   0  0  0  0  0  0  0  0  0  0  0  0
  153.1258  142.9904  157.7671 H   0  0  0  0  0  0  0  0  0  0  0  0
  150.7448  144.6815  158.6318 H   0  0  0  0  0  0  0  0  0  0  0  0
  151.2558  144.3225  156.9902 H   0  0  0  0  0  0  0  0  0  0  0  0
  152.2619  145.3323  158.0124 H   0  0  0  0  0  0  0  0  0  0  0  0
  1  2  1  0  0  0  0
  1 21  1  0  0  0  0
  1 22  1  0  0  0  0
  1 23  1  0  0  0  0
  2 19  1  0  0  0  0
  2  3  1  0  0  0  0
  2 24  1  0  0  0  0
  3  4  1  0  0  0  0
  3 25  1  0  0  0  0
  3 26  1  0  0  0  0
  4  5  1  0  0  0  0
  4 27  1  0  0  0  0
  4 28  1  0  0  0  0
  5  6  1  0  0  0  0
  5 29  1  0  0  0  0
  5 30  1  0  0  0  0
  6  7  1  0  0  0  0
  6 19  1  0  0  0  0
  6 31  1  0  0  0  0
  7  8  1  0  0  0  0
  7 32  1  0  0  0  0
  8  9  2  0  0  0  0
  8 10  1  0  0  0  0
 10 33  1  0  0  0  0
 10 34  1  0  0  0  0
 10 11  1  0  0  0  0
 11 12  1  0  0  0  0
 11 17  1  0  0  0  0
 12 13  1  0  0  0  0
 13 14  2  0  0  0  0
 13 15  1  0  0  0  0
 15 35  1  0  0  0  0
 15 16  2  0  0  0  0
 16 36  1  0  0  0  0
 16 17  1  0  0  0  0
 17 18  2  0  0  0  0
 19 20  1  0  0  0  0
 19 37  1  0  0  0  0
 20 38  1  0  0  0  0
 20 39  1  0  0  0  0
 20 40  1  0  0  0  0
M  CHG  1  12  -1
M  END
> <s_m_source_file>
AV-unprocessed.smi

> <i_m_source_file_index>
1464

> <i_lp_mmshare_version>
43012

> <i_f3d_flags>
0

> <s_epik_input>
W0NIM11bQ0BASF0xW0NIMl1bQ0gyXVtDSDJdW0NASF0oW0NASF0xW0NIM10pW05IXUMoPU8pW0NIMl1uMltuSF1jKD1PKVtjSF1bY0hdYzI9Tw==

> <s_epik_cmdline>
J2VwaWtfcHl0aG9uJywgJy1waCcsICc3LjAnLCAnLXRuJywgJzgnLCAnLW1hJywgJzIwMCcsICctbWV0YWxfYmluZGluZycsICctaW1hZScsICc8aW5maWxlLm1hZT4nLCAnLW9tYWUnLCAnPG91dGZpbGUubWFlPic=

> <r_lp_tautomer_probability>
1

> <r_epik_Ionization_Penalty>
0.101366

> <r_epik_Ionization_Penalty_Charging>
0.101366

> <r_epik_Ionization_Penalty_Neutral>
1.90469e-08

> <r_epik_State_Penalty>
0.035861

> <r_epik_Charging_Adjusted_Penalty>
0.137227

> <i_epik_Tot_Q>
-1

> <i_epik_Tot_abs_Q>
1

> <r_epik_Metal_State_Penalty>
0.035861

> <b_epik_Metal_Only>
0

> <s_lp_Force_Field>
OPLS_2005

> <r_lp_Energy>
30.3142

> <b_lp_Chiralities_Consistent>
1

> <s_lp_Variant>
AV-unprocessed.smi:1464-4

> <Gold.Version>
5.8.1

> <Gold.Id.Protein>
6NUR|6NUR_protein|mol2

> <Gold.PLP.Fitness>
38.3393

> <Gold.PLP.PLP>
-36.0497

> <Gold.PLP.part.hbond>
-1.0000

> <Gold.PLP.part.metal>
0.0000

> <Gold.PLP.part.buried>
-2.3382

> <Gold.PLP.part.nonpolar>
-33.0351

> <Gold.PLP.part.repulsive>
0.3637

> <Gold.PLP.ligand.clash>
0.0000

> <Gold.PLP.ligand.torsion>
0.2982

> <Gold.PLP.Chemscore.Hbond>
0.9600

> <Gold.PLP.Chemscore.CHOScore>
0.0000

> <Gold.PLP.Chemscore.Metal>
0.0000

> <Gold.Chemscore.Hbonds>
donor molecule, donor type, donor heavy atom, donor atom, acceptor molecule, acceptor atom, score
      P1  H  7989  7998       L1    18  0.98

> <Gold.PLP.Chemscore.Internal.Correction>
0.0061

> <Gold.Rescore>
     Score         DG    S(hbond)    S(metal)    S(lipo)     H(rot)  DE(clash)    DE(int)     intcor
     16.14     -16.65       0.97        0.00     103.64       1.64       0.02       0.49       ----

> <Gold.Chemscore.Fitness>
16.1439

> <Gold.Chemscore.DG>
-16.6529

> <Gold.Chemscore.ZeroCoef>
-5.4800

> <Gold.Chemscore.Hbond>
0.9746

> <Gold.Chemscore.Metal>
0.0000

> <Gold.Chemscore.Lipo>
103.6396

> <Gold.Chemscore.Internal_Hbond>
0.0000

> <Gold.Chemscore.DEClash>
0.0232

> <Gold.Chemscore.DEInternal>
0.4858

> <Gold.Chemscore.Rot>
1.6438

> <Gold.Chemscore.Internal.Correction>
   9.000000E+99

> <Gold.Chemscore.Hbonds>
donor molecule, donor type, donor heavy atom, donor atom, acceptor molecule, acceptor atom, score
      P1  H  7989  7998       L1    18  0.28

> <Gold.Chemscore.Hbond.Weighted>
-3.2551

> <Gold.Chemscore.Metal.Weighted>
-0.0000

> <Gold.Chemscore.Lipo.Weighted>
-12.1258

> <Gold.Chemscore.Internal_Hbond.Weighted>
0.0000

> <Gold.Chemscore.DEClash.Weighted>
0.0232

> <Gold.Chemscore.DEInternal.Weighted>
0.4858

> <Gold.Chemscore.Rot.Weighted>
4.2080

> <Gold.Chemscore.Internal.Correction.Weighted>
   9.000000E+99

> <Gold.Protein.RotatedTorsions>
[ 6907 6896 6895 6894 ] final  173.81 input  -60.11 | X-H torsion
[ 7974 7965 7964 7962 ] final  147.08 input  175.53 | X-H torsion
[ 8008 7997 7996 7995 ] final  -13.38 input   59.86 | X-H torsion
[ 10167 10162 10161 10158 ] final   15.34 input  -65.29 | X-H torsion
[ 10718 10713 10712 10709 ] final  122.04 input   66.30 | X-H torsion
[ 10763 10752 10751 10750 ] final   42.10 input  -60.55 | X-H torsion
[ 11005 11000 10999 10996 ] final   48.92 input  -57.11 | X-H torsion

> <Gold.Protein.ActiveResidues>
 VAL166  LYS551  ARG553  GLY616  TRP617  ASP618  TYR619  PRO620  LYS621  CYS622 
 ASP623  PHE694  ASN695  SER759  ASP760  ASP761  ALA762  ILE779  LEU786  VAL792 
 PHE793  MET794  SER795  GLU796  ALA797  LYS798  CYS799  TRP800  GLU811  SER814 

> <Gold.Protein.RotatedAtoms>
  151.7624  133.3335  159.3421 H   0  0  0  0  0  0  0  0  0  0  0  0  # atno 6907 bound_to 6896
  150.7493  134.6094  159.6087 H   0  0  0  0  0  0  0  0  0  0  0  0  # atno 6908 bound_to 6896
  152.3396  134.7153  160.0319 H   0  0  0  0  0  0  0  0  0  0  0  0  # atno 6909 bound_to 6896
  144.8620  139.5984  143.5926 H   0  0  0  0  0  0  0  0  0  0  0  0  # atno 7974 bound_to 7965
  154.5297  140.2251  155.8826 H   0  0  0  0  0  0  0  0  0  0  0  0  # atno 8008 bound_to 7997
  156.1751  140.3113  155.9008 H   0  0  0  0  0  0  0  0  0  0  0  0  # atno 8009 bound_to 7997
  155.3476  140.0454  157.3036 H   0  0  0  0  0  0  0  0  0  0  0  0  # atno 8010 bound_to 7997
  140.5874  143.8863  150.6842 H   0  0  0  0  0  0  0  0  0  0  0  0  # atno 10167 bound_to 10162
  157.5773  131.1078  150.8255 H   0  0  0  0  0  0  0  0  0  0  0  0  # atno 10718 bound_to 10713
  152.9891  135.6142  154.2895 H   0  0  0  0  0  0  0  0  0  0  0  0  # atno 10763 bound_to 10752
  154.2620  135.2782  155.2775 H   0  0  0  0  0  0  0  0  0  0  0  0  # atno 10764 bound_to 10752
  154.5197  135.5818  153.6728 H   0  0  0  0  0  0  0  0  0  0  0  0  # atno 10765 bound_to 10752
  140.1148  134.4906  155.8646 H   0  0  0  0  0  0  0  0  0  0  0  0  # atno 11005 bound_to 11000
  146.2867  139.7025  142.9190 LP  0  0  0  0  0  0  0  0  0  0  0  0  # atno 17320 bound_to 7965
  145.4294  141.0414  143.2919 LP  0  0  0  0  0  0  0  0  0  0  0  0  # atno 17321 bound_to 7965
  140.2377  143.3687  152.1513 LP  0  0  0  0  0  0  0  0  0  0  0  0  # atno 17342 bound_to 10162
  139.5206  144.7035  151.5424 LP  0  0  0  0  0  0  0  0  0  0  0  0  # atno 17343 bound_to 10162
  156.8711  130.5146  149.5297 LP  0  0  0  0  0  0  0  0  0  0  0  0  # atno 17370 bound_to 10713
  156.0817  130.5826  150.9576 LP  0  0  0  0  0  0  0  0  0  0  0  0  # atno 17371 bound_to 10713
  141.2139  133.6740  156.6776 LP  0  0  0  0  0  0  0  0  0  0  0  0  # atno 17394 bound_to 11000
  140.3042  134.8139  157.4123 LP  0  0  0  0  0  0  0  0  0  0  0  0  # atno 17395 bound_to 11000

$$$$
