AV-unprocessed.smi:1313|AV-procd|sdf|5452|dock7
  -GOLD-   22720 5 23D 1   1.00000     0.00000
 Structure written by MMmdl.
 36 37  0  0  0  0  0  0  0  0  2 V2000
  148.1374  136.0987  159.6259 C   0  0  0  0  0  0  0  0  0  0  0  0
  149.1478  137.0242  158.9825 C   0  0  0  0  0  0  0  0  0  0  0  0
  148.7487  137.8971  158.1382 N   0  0  0  0  0  0  0  0  0  0  0  0
  149.6836  138.7585  157.5392 C   0  0  0  0  0  0  0  0  0  0  0  0
  149.1174  139.7632  156.5504 C   0  0  0  0  0  0  0  0  0  0  0  0
  151.0112  138.6817  157.8440 C   0  0  0  0  0  0  0  0  0  0  0  0
  152.0672  139.5935  157.2202 C   0  0  0  0  0  0  0  0  0  0  0  0
  152.8469  140.4600  158.2104 C   0  0  0  0  0  0  0  0  0  0  0  0
  153.6598  139.9423  158.9760 O   0  0  0  0  0  0  0  0  0  0  0  0
  152.5868  141.7764  158.1904 N   0  0  0  0  0  0  0  0  0  0  0  0
  153.1949  142.7665  159.0744 C   0  0  0  0  0  0  0  0  0  0  0  0
  152.7370  142.5552  160.5300 C   0  0  0  0  0  0  0  0  0  0  0  0
  152.3546  143.9393  161.0559 C   0  0  0  0  0  0  0  0  0  0  0  0
  151.8562  144.6835  159.8215 C   0  0  0  0  0  0  0  0  0  0  0  0
  152.7753  144.2020  158.6975 C   0  0  0  0  0  0  0  0  0  0  0  0
  151.4292  137.6637  158.8252 C   0  0  0  0  0  0  0  0  0  0  0  0
  152.6124  137.5568  159.1452 O   0  0  0  0  0  0  0  0  0  0  0  0
  150.4626  136.8616  159.3561 N   0  5  0  0  0  0  0  0  0  0  0  0
  147.1197  136.3634  159.3356 H   0  0  0  0  0  0  0  0  0  0  0  0
  148.2079  136.1570  160.7126 H   0  0  0  0  0  0  0  0  0  0  0  0
  148.3236  135.0683  159.3218 H   0  0  0  0  0  0  0  0  0  0  0  0
  149.5929  139.6576  155.5752 H   0  0  0  0  0  0  0  0  0  0  0  0
  149.2749  140.7809  156.9080 H   0  0  0  0  0  0  0  0  0  0  0  0
  148.0449  139.6198  156.4143 H   0  0  0  0  0  0  0  0  0  0  0  0
  152.7849  139.0147  156.6384 H   0  0  0  0  0  0  0  0  0  0  0  0
  151.5798  140.2349  156.4854 H   0  0  0  0  0  0  0  0  0  0  0  0
  151.9040  142.1135  157.5275 H   0  0  0  0  0  0  0  0  0  0  0  0
  154.2821  142.6815  159.0228 H   0  0  0  0  0  0  0  0  0  0  0  0
  151.8578  141.9095  160.5664 H   0  0  0  0  0  0  0  0  0  0  0  0
  153.5073  142.0837  161.1411 H   0  0  0  0  0  0  0  0  0  0  0  0
  151.6103  143.8963  161.8515 H   0  0  0  0  0  0  0  0  0  0  0  0
  153.2392  144.4394  161.4530 H   0  0  0  0  0  0  0  0  0  0  0  0
  150.8274  144.3903  159.6075 H   0  0  0  0  0  0  0  0  0  0  0  0
  151.8763  145.7667  159.9460 H   0  0  0  0  0  0  0  0  0  0  0  0
  153.6626  144.8355  158.6621 H   0  0  0  0  0  0  0  0  0  0  0  0
  152.2947  144.2734  157.7206 H   0  0  0  0  0  0  0  0  0  0  0  0
  1  2  1  0  0  0  0
  1 19  1  0  0  0  0
  1 20  1  0  0  0  0
  1 21  1  0  0  0  0
  2 18  1  0  0  0  0
  2  3  2  0  0  0  0
  3  4  1  0  0  0  0
  4  5  1  0  0  0  0
  4  6  2  0  0  0  0
  5 22  1  0  0  0  0
  5 23  1  0  0  0  0
  5 24  1  0  0  0  0
  6  7  1  0  0  0  0
  6 16  1  0  0  0  0
  7  8  1  0  0  0  0
  7 25  1  0  0  0  0
  7 26  1  0  0  0  0
  8  9  2  0  0  0  0
  8 10  1  0  0  0  0
 10 11  1  0  0  0  0
 10 27  1  0  0  0  0
 11 15  1  0  0  0  0
 11 12  1  0  0  0  0
 11 28  1  0  0  0  0
 12 13  1  0  0  0  0
 12 29  1  0  0  0  0
 12 30  1  0  0  0  0
 13 14  1  0  0  0  0
 13 31  1  0  0  0  0
 13 32  1  0  0  0  0
 14 15  1  0  0  0  0
 14 33  1  0  0  0  0
 14 34  1  0  0  0  0
 15 35  1  0  0  0  0
 15 36  1  0  0  0  0
 16 17  2  0  0  0  0
 16 18  1  0  0  0  0
M  CHG  1  18  -1
M  END
> <s_m_source_file>
AV-unprocessed.smi

> <i_m_source_file_index>
1313

> <i_lp_mmshare_version>
43012

> <i_f3d_flags>
0

> <s_epik_input>
W0NIM11jMW5jKFtDSDNdKWMoYyg9TylbbkhdMSlbQ0gyXUMoPU8pW05IXVtDSF0yW0NIMl1bQ0gyXVtDSDJdW0NIMl0y

> <s_epik_cmdline>
J2VwaWtfcHl0aG9uJywgJy1waCcsICc3LjAnLCAnLXRuJywgJzgnLCAnLW1hJywgJzIwMCcsICctbWV0YWxfYmluZGluZycsICctaW1hZScsICc8aW5maWxlLm1hZT4nLCAnLW9tYWUnLCAnPG91dGZpbGUubWFlPic=

> <r_lp_tautomer_probability>
0.839158

> <r_epik_Ionization_Penalty>
6.62586

> <r_epik_Ionization_Penalty_Charging>
7.38068e-08

> <r_epik_Ionization_Penalty_Neutral>
6.62586

> <r_epik_State_Penalty>
4.443

> <r_epik_Charging_Adjusted_Penalty>
4.443

> <i_epik_Tot_Q>
-1

> <i_epik_Tot_abs_Q>
1

> <r_epik_Metal_State_Penalty>
0.804085

> <b_epik_Metal_Only>
1

> <s_lp_Force_Field>
OPLS_2005

> <r_lp_Energy>
23.3314

> <b_lp_Chiralities_Consistent>
1

> <s_lp_Variant>
AV-unprocessed.smi:1313-3

> <Gold.Version>
5.8.1

> <Gold.Id.Protein>
6NUR|6NUR_protein|mol2

> <Gold.PLP.Fitness>
43.6066

> <Gold.PLP.PLP>
-35.0369

> <Gold.PLP.part.hbond>
-2.4398

> <Gold.PLP.part.metal>
0.0000

> <Gold.PLP.part.buried>
-4.7778

> <Gold.PLP.part.nonpolar>
-27.8799

> <Gold.PLP.part.repulsive>
0.0719

> <Gold.PLP.ligand.clash>
0.0000

> <Gold.PLP.ligand.torsion>
0.1441

> <Gold.PLP.Chemscore.Hbond>
2.9516

> <Gold.PLP.Chemscore.CHOScore>
0.0000

> <Gold.PLP.Chemscore.Metal>
0.0000

> <Gold.Chemscore.Hbonds>
donor molecule, donor type, donor heavy atom, donor atom, acceptor molecule, acceptor atom, score
      P1  H  6896  6907       L1    18  2.00

> <Gold.PLP.Chemscore.Internal.Correction>
0.0031

> <Gold.Rescore>
     Score         DG    S(hbond)    S(metal)    S(lipo)     H(rot)  DE(clash)    DE(int)     intcor
     14.70     -16.81       1.97        0.00      72.90       1.48       0.05       2.06       ----

> <Gold.Chemscore.Fitness>
14.6971

> <Gold.Chemscore.DG>
-16.8124

> <Gold.Chemscore.ZeroCoef>
-5.4800

> <Gold.Chemscore.Hbond>
1.9718

> <Gold.Chemscore.Metal>
0.0000

> <Gold.Chemscore.Lipo>
72.8995

> <Gold.Chemscore.Internal_Hbond>
0.0000

> <Gold.Chemscore.DEClash>
0.0515

> <Gold.Chemscore.DEInternal>
2.0639

> <Gold.Chemscore.Rot>
1.4776

> <Gold.Chemscore.Internal.Correction>
   9.000000E+99

> <Gold.Chemscore.Hbonds>
donor molecule, donor type, donor heavy atom, donor atom, acceptor molecule, acceptor atom, score
      P1  H  6896  6907       L1    18  0.74

> <Gold.Chemscore.Hbond.Weighted>
-6.5859

> <Gold.Chemscore.Metal.Weighted>
-0.0000

> <Gold.Chemscore.Lipo.Weighted>
-8.5292

> <Gold.Chemscore.Internal_Hbond.Weighted>
0.0000

> <Gold.Chemscore.DEClash.Weighted>
0.0515

> <Gold.Chemscore.DEInternal.Weighted>
2.0639

> <Gold.Chemscore.Rot.Weighted>
3.7827

> <Gold.Chemscore.Internal.Correction.Weighted>
   9.000000E+99

> <Gold.Protein.RotatedTorsions>
[ 6907 6896 6895 6894 ] final  -45.15 input  -60.11 | X-H torsion
[ 7974 7965 7964 7962 ] final  139.20 input  175.53 | X-H torsion
[ 8008 7997 7996 7995 ] final  145.63 input   59.86 | X-H torsion
[ 10167 10162 10161 10158 ] final  -90.44 input  -65.29 | X-H torsion
[ 10718 10713 10712 10709 ] final -123.30 input   66.30 | X-H torsion
[ 10763 10752 10751 10750 ] final  -21.85 input  -60.55 | X-H torsion
[ 11005 11000 10999 10996 ] final -140.46 input  -57.11 | X-H torsion

> <Gold.Protein.ActiveResidues>
 VAL166  LYS551  ARG553  GLY616  TRP617  ASP618  TYR619  PRO620  LYS621  CYS622 
 ASP623  PHE694  ASN695  SER759  ASP760  ASP761  ALA762  ILE779  LEU786  VAL792 
 PHE793  MET794  SER795  GLU796  ALA797  LYS798  CYS799  TRP800  GLU811  SER814 

> <Gold.Protein.RotatedAtoms>
  150.9250  134.8667  159.7513 H   0  0  0  0  0  0  0  0  0  0  0  0  # atno 6907 bound_to 6896
  152.5011  134.4162  159.9475 H   0  0  0  0  0  0  0  0  0  0  0  0  # atno 6908 bound_to 6896
  151.4193  133.3663  159.2789 H   0  0  0  0  0  0  0  0  0  0  0  0  # atno 6909 bound_to 6896
  144.9300  139.5059  143.5622 H   0  0  0  0  0  0  0  0  0  0  0  0  # atno 7974 bound_to 7965
  156.2878  140.2204  156.5246 H   0  0  0  0  0  0  0  0  0  0  0  0  # atno 8008 bound_to 7997
  154.7500  140.0481  157.0907 H   0  0  0  0  0  0  0  0  0  0  0  0  # atno 8009 bound_to 7997
  155.0122  140.3114  155.4828 H   0  0  0  0  0  0  0  0  0  0  0  0  # atno 8010 bound_to 7997
  140.3549  143.2872  151.9683 H   0  0  0  0  0  0  0  0  0  0  0  0  # atno 10167 bound_to 10162
  156.1491  130.6521  150.9886 H   0  0  0  0  0  0  0  0  0  0  0  0  # atno 10718 bound_to 10713
  153.6427  135.6984  153.5236 H   0  0  0  0  0  0  0  0  0  0  0  0  # atno 10763 bound_to 10752
  153.2770  135.4197  155.1041 H   0  0  0  0  0  0  0  0  0  0  0  0  # atno 10764 bound_to 10752
  154.8496  135.3592  154.5971 H   0  0  0  0  0  0  0  0  0  0  0  0  # atno 10765 bound_to 10752
  140.8420  134.2390  157.4805 H   0  0  0  0  0  0  0  0  0  0  0  0  # atno 11005 bound_to 11000
  146.3243  139.8244  142.8920 LP  0  0  0  0  0  0  0  0  0  0  0  0  # atno 17320 bound_to 7965
  145.3157  141.0231  143.3529 LP  0  0  0  0  0  0  0  0  0  0  0  0  # atno 17321 bound_to 7965
  139.4821  144.6044  151.7548 LP  0  0  0  0  0  0  0  0  0  0  0  0  # atno 17342 bound_to 10162
  140.5183  144.0918  150.6015 LP  0  0  0  0  0  0  0  0  0  0  0  0  # atno 17343 bound_to 10162
  157.6642  131.0875  150.7768 LP  0  0  0  0  0  0  0  0  0  0  0  0  # atno 17370 bound_to 10713
  156.7838  130.4868  149.5396 LP  0  0  0  0  0  0  0  0  0  0  0  0  # atno 17371 bound_to 10713
  139.8703  134.9640  156.4481 LP  0  0  0  0  0  0  0  0  0  0  0  0  # atno 17394 bound_to 11000
  140.8884  133.7866  155.9544 LP  0  0  0  0  0  0  0  0  0  0  0  0  # atno 17395 bound_to 11000

$$$$
