AV-unprocessed.smi:666|AV-procd|sdf|3254|dock7
  -GOLD-   22720 0203D 1   1.00000     0.00000
 Structure written by MMmdl.
 34 35  0  0  0  0  0  0  0  0  2 V2000
  151.5119  140.0857  159.0500 O   0  0  0  0  0  0  0  0  0  0  0  0
  152.7219  139.9130  158.9003 C   0  0  0  0  0  0  0  0  0  0  0  0
  153.7063  140.8917  159.5524 C   0  0  0  0  0  0  0  0  0  0  0  0
  153.1044  142.2049  160.0243 C   0  0  0  0  0  0  0  0  0  0  0  0
  153.1075  142.5713  161.3211 C   0  0  0  0  0  0  0  0  0  0  0  0
  152.5070  143.8651  161.8420 C   0  0  0  0  0  0  0  0  0  0  0  0
  151.5911  144.5418  160.8083 C   0  0  0  0  0  0  0  0  0  0  0  0
  152.2247  144.5235  159.4115 C   0  0  0  0  0  0  0  0  0  0  0  0
  152.5021  143.0856  158.9365 C   0  0  0  0  0  0  0  0  0  0  0  0
  153.3626  138.9312  158.2244 N   0  5  0  0  0  0  0  0  0  0  0  0
  152.7993  137.4132  158.1164 S   0  0  0  0  0  0  0  0  0  0  0  0
  153.3920  136.6783  156.9876 O   0  0  0  0  0  0  0  0  0  0  0  0
  152.8127  136.7434  159.4262 O   0  0  0  0  0  0  0  0  0  0  0  0
  151.0148  137.6717  157.6839 C   0  0  0  0  0  0  0  0  0  0  0  0
  150.8637  138.0838  156.2443 C   0  0  0  0  0  0  0  0  0  0  0  0
  151.1242  137.3228  155.0702 C   0  0  0  0  0  0  0  0  0  0  0  0
  150.8080  138.1792  154.0560 C   0  0  0  0  0  0  0  0  0  0  0  0
  150.3778  139.3658  154.5532 O   0  0  0  0  0  0  0  0  0  0  0  0
  150.4134  139.2943  155.9505 N   0  0  0  0  0  0  0  0  0  0  0  0
  154.2350  140.4345  160.3915 H   0  0  0  0  0  0  0  0  0  0  0  0
  154.4721  141.1117  158.8073 H   0  0  0  0  0  0  0  0  0  0  0  0
  153.5689  141.9292  162.0573 H   0  0  0  0  0  0  0  0  0  0  0  0
  151.9478  143.6604  162.7552 H   0  0  0  0  0  0  0  0  0  0  0  0
  153.3267  144.5312  162.1130 H   0  0  0  0  0  0  0  0  0  0  0  0
  150.6333  144.0209  160.7736 H   0  0  0  0  0  0  0  0  0  0  0  0
  151.3744  145.5654  161.1152 H   0  0  0  0  0  0  0  0  0  0  0  0
  151.5804  145.0336  158.6949 H   0  0  0  0  0  0  0  0  0  0  0  0
  153.1605  145.0834  159.4370 H   0  0  0  0  0  0  0  0  0  0  0  0
  153.1731  143.1127  158.0777 H   0  0  0  0  0  0  0  0  0  0  0  0
  151.5764  142.6182  158.5988 H   0  0  0  0  0  0  0  0  0  0  0  0
  150.4482  136.7682  157.9040 H   0  0  0  0  0  0  0  0  0  0  0  0
  150.6350  138.4510  158.3450 H   0  0  0  0  0  0  0  0  0  0  0  0
  151.4927  136.3114  154.9872 H   0  0  0  0  0  0  0  0  0  0  0  0
  150.8314  138.0952  152.9796 H   0  0  0  0  0  0  0  0  0  0  0  0
  1  2  2  0  0  0  0
  2  3  1  0  0  0  0
  2 10  1  0  0  0  0
  3  4  1  0  0  0  0
  3 20  1  0  0  0  0
  3 21  1  0  0  0  0
  4  9  1  0  0  0  0
  4  5  2  0  0  0  0
  5  6  1  0  0  0  0
  5 22  1  0  0  0  0
  6  7  1  0  0  0  0
  6 23  1  0  0  0  0
  6 24  1  0  0  0  0
  7  8  1  0  0  0  0
  7 25  1  0  0  0  0
  7 26  1  0  0  0  0
  8  9  1  0  0  0  0
  8 27  1  0  0  0  0
  8 28  1  0  0  0  0
  9 29  1  0  0  0  0
  9 30  1  0  0  0  0
 10 11  1  0  0  0  0
 11 12  2  0  0  0  0
 11 13  2  0  0  0  0
 11 14  1  0  0  0  0
 14 15  1  0  0  0  0
 14 31  1  0  0  0  0
 14 32  1  0  0  0  0
 15 19  2  0  0  0  0
 15 16  1  0  0  0  0
 16 17  2  0  0  0  0
 16 33  1  0  0  0  0
 17 18  1  0  0  0  0
 17 34  1  0  0  0  0
 18 19  1  0  0  0  0
M  CHG  1  10  -1
M  END
> <s_m_source_file>
AV-unprocessed.smi

> <i_m_source_file_index>
666

> <i_lp_mmshare_version>
43012

> <i_f3d_flags>
0

> <s_epik_input>
W0NIMl0xW0NIMl1bQ0gyXVtDSDJdW0NIXT1DMVtDSDJdQyg9TylbTkhdUyg9TykoPU8pW0NIMl1jMltjSF1bY0hdb24y

> <s_epik_cmdline>
J2VwaWtfcHl0aG9uJywgJy1waCcsICc3LjAnLCAnLXRuJywgJzgnLCAnLW1hJywgJzIwMCcsICctbWV0YWxfYmluZGluZycsICctaW1hZScsICc8aW5maWxlLm1hZT4nLCAnLW9tYWUnLCAnPG91dGZpbGUubWFlPic=

> <r_epik_Ionization_Penalty>
0.000833246

> <r_epik_Ionization_Penalty_Charging>
0.000833246

> <r_epik_Ionization_Penalty_Neutral>
1.62659e-10

> <r_epik_State_Penalty>
0.000536532

> <r_epik_Charging_Adjusted_Penalty>
0.00136978

> <i_epik_Tot_Q>
-1

> <i_epik_Tot_abs_Q>
1

> <r_epik_Metal_State_Penalty>
-0

> <b_epik_Metal_Only>
0

> <s_lp_Force_Field>
OPLS_2005

> <r_lp_Energy>
4.18867

> <b_lp_Chiralities_Consistent>
1

> <s_lp_Variant>
AV-unprocessed.smi:666-1

> <Gold.Version>
5.8.1

> <Gold.Id.Protein>
6NUR|6NUR_protein|mol2

> <Gold.PLP.Fitness>
54.9279

> <Gold.PLP.PLP>
-39.0358

> <Gold.PLP.part.hbond>
-3.9770

> <Gold.PLP.part.metal>
0.0000

> <Gold.PLP.part.buried>
-6.5193

> <Gold.PLP.part.nonpolar>
-28.8527

> <Gold.PLP.part.repulsive>
0.1551

> <Gold.PLP.ligand.clash>
0.0000

> <Gold.PLP.ligand.torsion>
1.3015

> <Gold.PLP.Chemscore.Hbond>
4.9680

> <Gold.PLP.Chemscore.CHOScore>
0.8524

> <Gold.PLP.Chemscore.Metal>
0.0000

> <Gold.Chemscore.Hbonds>
donor molecule, donor type, donor heavy atom, donor atom, acceptor molecule, acceptor atom, score
      P1  H  6896  6908       L1    13  0.98
      P1  H  7989  7998       L1    18  0.52
      P1  H  7997  8008       L1    10  1.95
      P1  H 10752 10765       L1    12  0.81
      L1  C    17    34       P1  7948  0.08
      L1  C    17    34       P1  7949  0.73
      L1  C    17    34       P1  7957  0.04

> <Gold.PLP.Chemscore.Internal.Correction>
1.0340

> <Gold.Rescore>
     Score         DG    S(hbond)    S(metal)    S(lipo)     H(rot)  DE(clash)    DE(int)     intcor
     20.14     -22.98       2.93        0.00     103.16       1.70       0.16       2.68       ----

> <Gold.Chemscore.Fitness>
20.1433

> <Gold.Chemscore.DG>
-22.9838

> <Gold.Chemscore.ZeroCoef>
-5.4800

> <Gold.Chemscore.Hbond>
2.9337

> <Gold.Chemscore.Metal>
0.0000

> <Gold.Chemscore.Lipo>
103.1554

> <Gold.Chemscore.Internal_Hbond>
0.0000

> <Gold.Chemscore.DEClash>
0.1617

> <Gold.Chemscore.DEInternal>
2.6788

> <Gold.Chemscore.Rot>
1.7046

> <Gold.Chemscore.Internal.Correction>
   9.000000E+99

> <Gold.Chemscore.Hbonds>
donor molecule, donor type, donor heavy atom, donor atom, acceptor molecule, acceptor atom, score
      P1  H  6896  6908       L1    13  0.90
      P1  H  7989  7998       L1    18  0.20
      P1  H  7997  8008       L1    10  0.28
      P1  H 10752 10765       L1    12  0.76

> <Gold.Chemscore.Hbond.Weighted>
-9.7984

> <Gold.Chemscore.Metal.Weighted>
-0.0000

> <Gold.Chemscore.Lipo.Weighted>
-12.0692

> <Gold.Chemscore.Internal_Hbond.Weighted>
0.0000

> <Gold.Chemscore.DEClash.Weighted>
0.1617

> <Gold.Chemscore.DEInternal.Weighted>
2.6788

> <Gold.Chemscore.Rot.Weighted>
4.3638

> <Gold.Chemscore.Internal.Correction.Weighted>
   9.000000E+99

> <Gold.Protein.RotatedTorsions>
[ 6907 6896 6895 6894 ] final -111.32 input  -60.11 | X-H torsion
[ 7974 7965 7964 7962 ] final  103.36 input  175.53 | X-H torsion
[ 8008 7997 7996 7995 ] final  -86.27 input   59.86 | X-H torsion
[ 10167 10162 10161 10158 ] final -114.26 input  -65.29 | X-H torsion
[ 10718 10713 10712 10709 ] final  -91.92 input   66.30 | X-H torsion
[ 10763 10752 10751 10750 ] final -124.97 input  -60.55 | X-H torsion
[ 11005 11000 10999 10996 ] final  134.28 input  -57.11 | X-H torsion

> <Gold.Protein.ActiveResidues>
 VAL166  LYS551  ARG553  GLY616  TRP617  ASP618  TYR619  PRO620  LYS621  CYS622 
 ASP623  PHE694  ASN695  SER759  ASP760  ASP761  ALA762  ILE779  LEU786  VAL792 
 PHE793  MET794  SER795  GLU796  ALA797  LYS798  CYS799  TRP800  GLU811  SER814 

> <Gold.Protein.RotatedAtoms>
  150.7682  133.9253  159.3410 H   0  0  0  0  0  0  0  0  0  0  0  0  # atno 6907 bound_to 6896
  151.7145  135.0904  160.0283 H   0  0  0  0  0  0  0  0  0  0  0  0  # atno 6908 bound_to 6896
  152.3688  133.6354  159.6107 H   0  0  0  0  0  0  0  0  0  0  0  0  # atno 6909 bound_to 6896
  145.3470  139.2448  143.3579 H   0  0  0  0  0  0  0  0  0  0  0  0  # atno 7974 bound_to 7965
  154.6500  140.0580  156.9944 H   0  0  0  0  0  0  0  0  0  0  0  0  # atno 8008 bound_to 7997
  155.1386  140.3263  155.4439 H   0  0  0  0  0  0  0  0  0  0  0  0  # atno 8009 bound_to 7997
  156.2571  140.1968  156.6502 H   0  0  0  0  0  0  0  0  0  0  0  0  # atno 8010 bound_to 7997
  140.1029  143.4596  152.1801 H   0  0  0  0  0  0  0  0  0  0  0  0  # atno 10167 bound_to 10162
  155.9997  130.4966  150.5547 H   0  0  0  0  0  0  0  0  0  0  0  0  # atno 10718 bound_to 10713
  154.8730  135.4045  154.3192 H   0  0  0  0  0  0  0  0  0  0  0  0  # atno 10763 bound_to 10752
  153.4023  135.7018  153.6423 H   0  0  0  0  0  0  0  0  0  0  0  0  # atno 10764 bound_to 10752
  153.5160  135.3697  155.2580 H   0  0  0  0  0  0  0  0  0  0  0  0  # atno 10765 bound_to 10752
  139.9905  134.9517  156.9844 H   0  0  0  0  0  0  0  0  0  0  0  0  # atno 11005 bound_to 11000
  146.2984  140.4078  142.8713 LP  0  0  0  0  0  0  0  0  0  0  0  0  # atno 17320 bound_to 7965
  144.8747  140.7320  143.6025 LP  0  0  0  0  0  0  0  0  0  0  0  0  # atno 17321 bound_to 7965
  139.5661  144.7436  151.4018 LP  0  0  0  0  0  0  0  0  0  0  0  0  # atno 17342 bound_to 10162
  140.6968  143.7730  150.7339 LP  0  0  0  0  0  0  0  0  0  0  0  0  # atno 17343 bound_to 10162
  157.3465  131.0726  151.1747 LP  0  0  0  0  0  0  0  0  0  0  0  0  # atno 17370 bound_to 10713
  157.2578  130.6644  149.5961 LP  0  0  0  0  0  0  0  0  0  0  0  0  # atno 17371 bound_to 10713
  140.4918  134.1185  155.7234 LP  0  0  0  0  0  0  0  0  0  0  0  0  # atno 17394 bound_to 11000
  141.1561  133.8879  157.1972 LP  0  0  0  0  0  0  0  0  0  0  0  0  # atno 17395 bound_to 11000

$$$$
