AV-unprocessed.smi:884|AV-procd|sdf|4043|dock4
  -GOLD-   22720 1533D 1   1.00000     0.00000
 Structure written by MMmdl.
 48 50  0  0  0  0  0  0  0  0  2 V2000
  146.9098  137.0391  154.4597 O   0  0  0  0  0  0  0  0  0  0  0  0
  146.3887  138.1313  154.2299 C   0  0  0  0  0  0  0  0  0  0  0  0
  145.3520  138.2649  153.3833 N   0  0  0  0  0  0  0  0  0  0  0  0
  144.7366  137.1872  152.6116 C   0  0  0  0  0  0  0  0  0  0  0  0
  145.6371  136.6909  151.4636 C   0  0  0  0  0  0  0  0  0  0  0  0
  145.5109  135.2045  151.1744 C   0  0  0  0  0  0  0  0  0  0  0  0
  144.3066  134.6315  150.7122 C   0  0  0  0  0  0  0  0  0  0  0  0
  144.2484  133.2410  150.4828 C   0  0  0  0  0  0  0  0  0  0  0  0
  145.3954  132.4543  150.7153 C   0  0  0  0  0  0  0  0  0  0  0  0
  146.5718  133.0778  151.1787 C   0  0  0  0  0  0  0  0  0  0  0  0
  146.5851  134.4114  151.3952 N   0  3  0  0  0  0  0  0  0  0  0  0
  146.8089  139.2879  154.8040 N   0  0  0  0  0  0  0  0  0  0  0  0
  146.5038  140.6473  154.3325 C   0  0  0  0  0  0  0  0  0  0  0  0
  147.7088  141.1784  153.5460 C   0  0  0  0  0  0  0  0  0  0  0  0
  149.1727  141.3127  154.6172 S   0  0  0  0  0  0  0  0  0  0  0  0
  149.2158  139.6584  155.4081 C   0  0  0  0  0  0  0  0  0  0  0  0
  149.7499  138.5931  154.4142 C   0  0  0  0  0  0  0  0  0  0  0  0
  151.2319  138.7832  154.0461 C   0  0  0  0  0  0  0  0  0  0  0  0
  152.1163  138.8161  155.2988 C   0  0  0  0  0  0  0  0  0  0  0  0
  151.6391  139.8975  156.2768 C   0  0  0  0  0  0  0  0  0  0  0  0
  150.1545  139.7071  156.6398 C   0  0  0  0  0  0  0  0  0  0  0  0
  147.7860  139.3036  155.9031 C   0  0  0  0  0  0  0  0  0  0  0  0
  144.9639  139.1891  153.2612 H   0  0  0  0  0  0  0  0  0  0  0  0
  144.4753  136.3493  153.2595 H   0  0  0  0  0  0  0  0  0  0  0  0
  143.7942  137.5534  152.2040 H   0  0  0  0  0  0  0  0  0  0  0  0
  145.4087  137.2460  150.5530 H   0  0  0  0  0  0  0  0  0  0  0  0
  146.6786  136.9155  151.6983 H   0  0  0  0  0  0  0  0  0  0  0  0
  143.4357  135.2479  150.5430 H   0  0  0  0  0  0  0  0  0  0  0  0
  143.3344  132.7836  150.1328 H   0  0  0  0  0  0  0  0  0  0  0  0
  145.3711  131.3876  150.5463 H   0  0  0  0  0  0  0  0  0  0  0  0
  147.4920  132.5530  151.3901 H   0  0  0  0  0  0  0  0  0  0  0  0
  145.6063  140.7024  153.7166 H   0  0  0  0  0  0  0  0  0  0  0  0
  146.2981  141.2991  155.1829 H   0  0  0  0  0  0  0  0  0  0  0  0
  147.9353  140.5263  152.7021 H   0  0  0  0  0  0  0  0  0  0  0  0
  147.4887  142.1639  153.1355 H   0  0  0  0  0  0  0  0  0  0  0  0
  149.6265  137.6012  154.8510 H   0  0  0  0  0  0  0  0  0  0  0  0
  149.1573  138.5918  153.5021 H   0  0  0  0  0  0  0  0  0  0  0  0
  151.5551  137.9747  153.3899 H   0  0  0  0  0  0  0  0  0  0  0  0
  151.3619  139.7056  153.4791 H   0  0  0  0  0  0  0  0  0  0  0  0
  152.0927  137.8425  155.7897 H   0  0  0  0  0  0  0  0  0  0  0  0
  153.1544  138.9980  155.0191 H   0  0  0  0  0  0  0  0  0  0  0  0
  152.2454  139.8676  157.1823 H   0  0  0  0  0  0  0  0  0  0  0  0
  151.7959  140.8838  155.8394 H   0  0  0  0  0  0  0  0  0  0  0  0
  149.8421  140.5033  157.3169 H   0  0  0  0  0  0  0  0  0  0  0  0
  150.0570  138.7794  157.2055 H   0  0  0  0  0  0  0  0  0  0  0  0
  147.4641  140.0270  156.6539 H   0  0  0  0  0  0  0  0  0  0  0  0
  147.8001  138.3489  156.4317 H   0  0  0  0  0  0  0  0  0  0  0  0
  147.4456  134.8408  151.7355 H   0  0  0  0  0  0  0  0  0  0  0  0
  1  2  2  0  0  0  0
  2  3  1  0  0  0  0
  2 12  1  0  0  0  0
  3  4  1  0  0  0  0
  3 23  1  0  0  0  0
  4  5  1  0  0  0  0
  4 24  1  0  0  0  0
  4 25  1  0  0  0  0
  5  6  1  0  0  0  0
  5 26  1  0  0  0  0
  5 27  1  0  0  0  0
  6 11  1  0  0  0  0
  6  7  2  0  0  0  0
  7  8  1  0  0  0  0
  7 28  1  0  0  0  0
  8  9  2  0  0  0  0
  8 29  1  0  0  0  0
  9 10  1  0  0  0  0
  9 30  1  0  0  0  0
 10 11  2  0  0  0  0
 10 31  1  0  0  0  0
 11 48  1  0  0  0  0
 12 22  1  0  0  0  0
 12 13  1  0  0  0  0
 13 14  1  0  0  0  0
 13 32  1  0  0  0  0
 13 33  1  0  0  0  0
 14 15  1  0  0  0  0
 14 34  1  0  0  0  0
 14 35  1  0  0  0  0
 15 16  1  0  0  0  0
 16 21  1  0  0  0  0
 16 17  1  0  0  0  0
 16 22  1  0  0  0  0
 17 18  1  0  0  0  0
 17 36  1  0  0  0  0
 17 37  1  0  0  0  0
 18 19  1  0  0  0  0
 18 38  1  0  0  0  0
 18 39  1  0  0  0  0
 19 20  1  0  0  0  0
 19 40  1  0  0  0  0
 19 41  1  0  0  0  0
 20 21  1  0  0  0  0
 20 42  1  0  0  0  0
 20 43  1  0  0  0  0
 21 44  1  0  0  0  0
 21 45  1  0  0  0  0
 22 46  1  0  0  0  0
 22 47  1  0  0  0  0
M  CHG  1  11   1
M  END
> <s_m_source_file>
AV-unprocessed.smi

> <i_m_source_file_index>
884

> <i_lp_mmshare_version>
43012

> <i_f3d_flags>
0

> <s_epik_input>
bjFbY0hdW2NIXVtjSF1bY0hdYzFbQ0gyXVtDSDJdW05IXUMoPU8pTihbQ0gyXTIpW0NIMl1bQ0gyXVNDMjNbQ0gyXVtDSDJdW0NIMl1bQ0gyXVtDSDJdMw==

> <s_epik_cmdline>
J2VwaWtfcHl0aG9uJywgJy1waCcsICc3LjAnLCAnLXRuJywgJzgnLCAnLW1hJywgJzIwMCcsICctbWV0YWxfYmluZGluZycsICctaW1hZScsICc8aW5maWxlLm1hZT4nLCAnLW9tYWUnLCAnPG91dGZpbGUubWFlPic=

> <r_epik_Ionization_Penalty>
1.55139

> <r_epik_Ionization_Penalty_Charging>
1.55135

> <r_epik_Ionization_Penalty_Neutral>
4.66963e-05

> <r_epik_State_Penalty>
1.64559

> <r_epik_Charging_Adjusted_Penalty>
3.19693

> <i_epik_Tot_Q>
1

> <i_epik_Tot_abs_Q>
1

> <r_epik_Metal_State_Penalty>
1.68773

> <b_epik_Metal_Only>
0

> <s_lp_Force_Field>
OPLS_2005

> <r_lp_Energy>
36.5944

> <b_lp_Chiralities_Consistent>
1

> <s_lp_Variant>
AV-unprocessed.smi:884-2

> <Gold.Version>
5.8.1

> <Gold.Id.Protein>
6NUR|6NUR_protein|mol2

> <Gold.PLP.Fitness>
44.9305

> <Gold.PLP.PLP>
-36.6977

> <Gold.PLP.part.hbond>
-2.0000

> <Gold.PLP.part.metal>
0.0000

> <Gold.PLP.part.buried>
-3.6028

> <Gold.PLP.part.nonpolar>
-31.8098

> <Gold.PLP.part.repulsive>
0.1468

> <Gold.PLP.ligand.clash>
0.0000

> <Gold.PLP.ligand.torsion>
0.3958

> <Gold.PLP.Chemscore.Hbond>
3.0000

> <Gold.PLP.Chemscore.CHOScore>
0.0000

> <Gold.PLP.Chemscore.Metal>
0.0000

> <Gold.Chemscore.Hbonds>
donor molecule, donor type, donor heavy atom, donor atom, acceptor molecule, acceptor atom, score
      L1  H     3    23       P1 10175  1.00
      L1  H    11    48       P1  7948  2.00

> <Gold.PLP.Chemscore.Internal.Correction>
0.0244

> <Gold.Rescore>
     Score         DG    S(hbond)    S(metal)    S(lipo)     H(rot)  DE(clash)    DE(int)     intcor
     19.37     -19.81       1.71        0.00     101.91       1.30       0.01       0.42       ----

> <Gold.Chemscore.Fitness>
19.3724

> <Gold.Chemscore.DG>
-19.8055

> <Gold.Chemscore.ZeroCoef>
-5.4800

> <Gold.Chemscore.Hbond>
1.7121

> <Gold.Chemscore.Metal>
0.0000

> <Gold.Chemscore.Lipo>
101.9057

> <Gold.Chemscore.Internal_Hbond>
0.0000

> <Gold.Chemscore.DEClash>
0.0130

> <Gold.Chemscore.DEInternal>
0.4201

> <Gold.Chemscore.Rot>
1.2953

> <Gold.Chemscore.Internal.Correction>
   9.000000E+99

> <Gold.Chemscore.Hbonds>
donor molecule, donor type, donor heavy atom, donor atom, acceptor molecule, acceptor atom, score
      L1  H     3    23       P1 10175  0.94
      L1  H    11    48       P1  7948  0.66

> <Gold.Chemscore.Hbond.Weighted>
-5.7184

> <Gold.Chemscore.Metal.Weighted>
-0.0000

> <Gold.Chemscore.Lipo.Weighted>
-11.9230

> <Gold.Chemscore.Internal_Hbond.Weighted>
0.0000

> <Gold.Chemscore.DEClash.Weighted>
0.0130

> <Gold.Chemscore.DEInternal.Weighted>
0.4201

> <Gold.Chemscore.Rot.Weighted>
3.3159

> <Gold.Chemscore.Internal.Correction.Weighted>
   9.000000E+99

> <Gold.Protein.RotatedTorsions>
[ 6907 6896 6895 6894 ] final -144.44 input  -60.11 | X-H torsion
[ 7974 7965 7964 7962 ] final   62.36 input  175.53 | X-H torsion
[ 8008 7997 7996 7995 ] final  -58.91 input   59.86 | X-H torsion
[ 10167 10162 10161 10158 ] final  -39.72 input  -65.29 | X-H torsion
[ 10718 10713 10712 10709 ] final   61.64 input   66.30 | X-H torsion
[ 10763 10752 10751 10750 ] final -177.06 input  -60.55 | X-H torsion
[ 11005 11000 10999 10996 ] final   55.43 input  -57.11 | X-H torsion

> <Gold.Protein.ActiveResidues>
 VAL166  LYS551  ARG553  GLY616  TRP617  ASP618  TYR619  PRO620  LYS621  CYS622 
 ASP623  PHE694  ASN695  SER759  ASP760  ASP761  ALA762  ILE779  LEU786  VAL792 
 PHE793  MET794  SER795  GLU796  ALA797  LYS798  CYS799  TRP800  GLU811  SER814 

> <Gold.Protein.RotatedAtoms>
  151.1141  133.5152  159.2604 H   0  0  0  0  0  0  0  0  0  0  0  0  # atno 6907 bound_to 6896
  151.1935  135.0412  159.8852 H   0  0  0  0  0  0  0  0  0  0  0  0  # atno 6908 bound_to 6896
  152.5452  134.0978  159.8358 H   0  0  0  0  0  0  0  0  0  0  0  0  # atno 6909 bound_to 6896
  145.8742  139.3398  143.0744 H   0  0  0  0  0  0  0  0  0  0  0  0  # atno 7974 bound_to 7965
  154.4329  140.1073  156.6032 H   0  0  0  0  0  0  0  0  0  0  0  0  # atno 8008 bound_to 7997
  155.5889  140.3492  155.4542 H   0  0  0  0  0  0  0  0  0  0  0  0  # atno 8009 bound_to 7997
  156.0262  140.1250  157.0296 H   0  0  0  0  0  0  0  0  0  0  0  0  # atno 8010 bound_to 7997
  140.7056  143.3197  151.2822 H   0  0  0  0  0  0  0  0  0  0  0  0  # atno 10167 bound_to 10162
  157.5843  130.9006  149.9487 H   0  0  0  0  0  0  0  0  0  0  0  0  # atno 10718 bound_to 10713
  154.5648  135.2823  155.0885 H   0  0  0  0  0  0  0  0  0  0  0  0  # atno 10763 bound_to 10752
  154.2280  135.6379  153.5170 H   0  0  0  0  0  0  0  0  0  0  0  0  # atno 10764 bound_to 10752
  153.0039  135.5530  154.6253 H   0  0  0  0  0  0  0  0  0  0  0  0  # atno 10765 bound_to 10752
  140.0608  134.5605  155.9154 H   0  0  0  0  0  0  0  0  0  0  0  0  # atno 11005 bound_to 11000
  145.9101  140.9186  143.0458 LP  0  0  0  0  0  0  0  0  0  0  0  0  # atno 17320 bound_to 7965
  144.6726  140.1148  143.7453 LP  0  0  0  0  0  0  0  0  0  0  0  0  # atno 17321 bound_to 7965
  139.6647  144.0127  152.2715 LP  0  0  0  0  0  0  0  0  0  0  0  0  # atno 17342 bound_to 10162
  139.9705  144.6497  150.7993 LP  0  0  0  0  0  0  0  0  0  0  0  0  # atno 17343 bound_to 10162
  156.0891  130.3665  150.0430 LP  0  0  0  0  0  0  0  0  0  0  0  0  # atno 17370 bound_to 10713
  156.8564  130.9477  151.3621 LP  0  0  0  0  0  0  0  0  0  0  0  0  # atno 17371 bound_to 10713
  141.1972  133.6595  156.5730 LP  0  0  0  0  0  0  0  0  0  0  0  0  # atno 17394 bound_to 11000
  140.3773  134.7554  157.4638 LP  0  0  0  0  0  0  0  0  0  0  0  0  # atno 17395 bound_to 11000

$$$$
