AV-unprocessed.smi:234|AV-procd|sdf|1791|dock7
  -GOLD-   2262020353D 1   1.00000     0.00000
 Structure written by MMmdl.
 59 62  0  0  0  0  0  0  0  0  1 V2000
  149.6385  131.3193  159.5125 C   0  0  0  0  0  0  0  0  0  0  0  0
  149.6253  131.8004  158.0555 C   0  0  0  0  0  0  0  0  0  0  0  0
  150.2545  133.0643  157.8989 O   0  0  0  0  0  0  0  0  0  0  0  0
  150.0362  133.6872  156.6399 C   0  0  2  0  0  0  0  0  0  0  0  0
  150.5547  135.1250  156.6211 C   0  0  0  0  0  0  0  0  0  0  0  0
  149.3226  135.4415  155.7650 C   0  0  2  0  0  0  0  0  0  0  0  0
  148.7246  136.7535  156.0245 N   0  0  0  0  0  0  0  0  0  0  0  0
  147.4185  137.0117  155.4314 C   0  0  0  0  0  0  0  0  0  0  0  0
  149.5380  137.8269  155.8910 C   0  0  0  0  0  0  0  0  0  0  0  0
  149.9372  138.1436  154.6338 N   0  0  0  0  0  0  0  0  0  0  0  0
  150.7444  139.1887  154.4300 C   0  0  0  0  0  0  0  0  0  0  0  0
  151.2655  140.0287  155.3266 N   0  0  0  0  0  0  0  0  0  0  0  0
  150.8786  139.7043  156.5937 C   0  0  0  0  0  0  0  0  0  0  0  0
  150.0226  138.6289  156.9647 C   0  0  0  0  0  0  0  0  0  0  0  0
  149.8628  138.6094  158.3458 N   0  0  0  0  0  0  0  0  0  0  0  0
  150.5742  139.6196  158.7648 C   0  0  0  0  0  0  0  0  0  0  0  0
  151.2261  140.3263  157.7802 N   0  0  0  0  0  0  0  0  0  0  0  0
  152.0908  141.4814  157.9636 C   0  0  0  0  0  0  0  0  0  0  0  0
  151.3511  142.8324  157.8169 C   0  0  2  0  0  0  0  0  0  0  0  0
  150.9056  142.9626  156.4764 O   0  0  0  0  0  0  0  0  0  0  0  0
  152.2018  144.0466  158.1599 C   0  0  0  0  0  0  0  0  0  0  0  0
  151.1549  145.0907  158.5274 C   0  0  0  0  0  0  0  0  0  0  0  0
  150.1324  144.3597  159.1912 O   0  0  0  0  0  0  0  0  0  0  0  0
  150.1723  142.9868  158.8037 C   0  0  1  0  0  0  0  0  0  0  0  0
  148.7948  142.5171  158.3090 C   0  0  0  0  0  0  0  0  0  0  0  0
  148.6011  134.2459  156.4460 C   0  0  0  0  0  0  0  0  0  0  0  0
  147.6838  133.4219  155.5416 C   0  0  0  0  0  0  0  0  0  0  0  0
  147.8231  134.5311  157.7433 C   0  0  0  0  0  0  0  0  0  0  0  0
  149.2597  130.2998  159.5846 H   0  0  0  0  0  0  0  0  0  0  0  0
  149.0105  131.9440  160.1465 H   0  0  0  0  0  0  0  0  0  0  0  0
  150.6497  131.3296  159.9197 H   0  0  0  0  0  0  0  0  0  0  0  0
  150.1723  131.0851  157.4414 H   0  0  0  0  0  0  0  0  0  0  0  0
  148.6077  131.8303  157.6635 H   0  0  0  0  0  0  0  0  0  0  0  0
  150.4050  133.1235  155.7791 H   0  0  0  0  0  0  0  0  0  0  0  0
  150.5500  135.6010  157.6034 H   0  0  0  0  0  0  0  0  0  0  0  0
  151.5101  135.2570  156.1131 H   0  0  0  0  0  0  0  0  0  0  0  0
  149.5037  135.2441  154.7068 H   0  0  0  0  0  0  0  0  0  0  0  0
  147.0151  137.9700  155.7607 H   0  0  0  0  0  0  0  0  0  0  0  0
  146.7023  136.2420  155.7136 H   0  0  0  0  0  0  0  0  0  0  0  0
  147.4894  137.0259  154.3434 H   0  0  0  0  0  0  0  0  0  0  0  0
  151.0123  139.3785  153.4011 H   0  0  0  0  0  0  0  0  0  0  0  0
  150.6499  139.8735  159.8120 H   0  0  0  0  0  0  0  0  0  0  0  0
  152.5592  141.4120  158.9462 H   0  0  0  0  0  0  0  0  0  0  0  0
  152.9000  141.4123  157.2353 H   0  0  0  0  0  0  0  0  0  0  0  0
  150.2048  143.5961  156.4545 H   0  0  0  0  0  0  0  0  0  0  0  0
  152.8210  143.8378  159.0331 H   0  0  0  0  0  0  0  0  0  0  0  0
  152.8601  144.3664  157.3509 H   0  0  0  0  0  0  0  0  0  0  0  0
  151.5548  145.8836  159.1594 H   0  0  0  0  0  0  0  0  0  0  0  0
  150.7373  145.5487  157.6299 H   0  0  0  0  0  0  0  0  0  0  0  0
  150.4091  142.4374  159.7161 H   0  0  0  0  0  0  0  0  0  0  0  0
  148.8254  141.4726  157.9986 H   0  0  0  0  0  0  0  0  0  0  0  0
  148.4453  143.1112  157.4644 H   0  0  0  0  0  0  0  0  0  0  0  0
  148.0502  142.6061  159.1001 H   0  0  0  0  0  0  0  0  0  0  0  0
  146.8045  133.9888  155.2371 H   0  0  0  0  0  0  0  0  0  0  0  0
  147.3296  132.5200  156.0406 H   0  0  0  0  0  0  0  0  0  0  0  0
  148.1958  133.1093  154.6312 H   0  0  0  0  0  0  0  0  0  0  0  0
  146.8750  135.0310  157.5464 H   0  0  0  0  0  0  0  0  0  0  0  0
  148.3840  135.1666  158.4288 H   0  0  0  0  0  0  0  0  0  0  0  0
  147.5948  133.6093  158.2788 H   0  0  0  0  0  0  0  0  0  0  0  0
  1  2  1  0  0  0  0
  1 29  1  0  0  0  0
  1 30  1  0  0  0  0
  1 31  1  0  0  0  0
  2  3  1  0  0  0  0
  2 32  1  0  0  0  0
  2 33  1  0  0  0  0
  3  4  1  0  0  0  0
  4 26  1  0  0  0  0
  4  5  1  0  0  0  0
  4 34  1  0  0  0  0
  5  6  1  0  0  0  0
  5 35  1  0  0  0  0
  5 36  1  0  0  0  0
  6  7  1  0  0  0  0
  6 26  1  0  0  0  0
  6 37  1  0  0  0  0
  7  8  1  0  0  0  0
  7  9  1  0  0  0  0
  8 38  1  0  0  0  0
  8 39  1  0  0  0  0
  8 40  1  0  0  0  0
  9 14  1  0  0  0  0
  9 10  2  0  0  0  0
 10 11  1  0  0  0  0
 11 12  2  0  0  0  0
 11 41  1  0  0  0  0
 12 13  1  0  0  0  0
 13 17  1  0  0  0  0
 13 14  2  0  0  0  0
 14 15  1  0  0  0  0
 15 16  2  0  0  0  0
 16 17  1  0  0  0  0
 16 42  1  0  0  0  0
 17 18  1  0  0  0  0
 18 19  1  0  0  0  0
 18 43  1  0  0  0  0
 18 44  1  0  0  0  0
 19 24  1  0  0  0  0
 19 20  1  0  0  0  0
 19 21  1  0  0  0  0
 20 45  1  0  0  0  0
 21 22  1  0  0  0  0
 21 46  1  0  0  0  0
 21 47  1  0  0  0  0
 22 23  1  0  0  0  0
 22 48  1  0  0  0  0
 22 49  1  0  0  0  0
 23 24  1  0  0  0  0
 24 25  1  0  0  0  0
 24 50  1  0  0  0  0
 25 51  1  0  0  0  0
 25 52  1  0  0  0  0
 25 53  1  0  0  0  0
 26 27  1  0  0  0  0
 26 28  1  0  0  0  0
 27 54  1  0  0  0  0
 27 55  1  0  0  0  0
 27 56  1  0  0  0  0
 28 57  1  0  0  0  0
 28 58  1  0  0  0  0
 28 59  1  0  0  0  0
M  END
> <s_m_source_file>
AV-unprocessed.smi

> <i_m_source_file_index>
234

> <i_lp_mmshare_version>
43012

> <i_f3d_flags>
0

> <s_epik_input>
W0NIM11bQ0gyXU9bQ0BASF0oQzEoW0NIM10pW0NIM10pW0NIMl1bQ0BIXTFOKFtDSDNdKWMobltjSF1uMiljKGMyMyluW2NIXW4zW0NIMl1bQ0BAXTQoW09IXSlbQ0gyXVtDSDJdT1tDQEhdNFtDSDNd

> <s_epik_cmdline>
J2VwaWtfcHl0aG9uJywgJy1waCcsICc3LjAnLCAnLXRuJywgJzgnLCAnLW1hJywgJzIwMCcsICctbWV0YWxfYmluZGluZycsICctaW1hZScsICc8aW5maWxlLm1hZT4nLCAnLW9tYWUnLCAnPG91dGZpbGUubWFlPic=

> <r_lp_tautomer_probability>
1

> <r_epik_Ionization_Penalty>
0.00349132

> <r_epik_Ionization_Penalty_Charging>
0

> <r_epik_Ionization_Penalty_Neutral>
0.00349132

> <r_epik_State_Penalty>
0.00242418

> <r_epik_Charging_Adjusted_Penalty>
0.00242418

> <i_epik_Tot_Q>
0

> <i_epik_Tot_abs_Q>
0

> <r_epik_Metal_State_Penalty>
-0

> <b_epik_Metal_Only>
0

> <s_lp_Force_Field>
OPLS_2005

> <r_lp_Energy>
50.4374

> <b_lp_Chiralities_Consistent>
1

> <s_lp_Variant>
AV-unprocessed.smi:234-7

> <Gold.Version>
5.8.1

> <Gold.Id.Protein>
6NUR|6NUR_protein|mol2

> <Gold.PLP.Fitness>
39.4197

> <Gold.PLP.PLP>
-31.2317

> <Gold.PLP.part.hbond>
-3.0000

> <Gold.PLP.part.metal>
0.0000

> <Gold.PLP.part.buried>
-5.8510

> <Gold.PLP.part.nonpolar>
-23.1446

> <Gold.PLP.part.repulsive>
0.4671

> <Gold.PLP.ligand.clash>
0.0000

> <Gold.PLP.ligand.torsion>
0.7982

> <Gold.PLP.Chemscore.Hbond>
2.0000

> <Gold.PLP.Chemscore.CHOScore>
0.9882

> <Gold.PLP.Chemscore.Metal>
0.0000

> <Gold.Chemscore.Hbonds>
donor molecule, donor type, donor heavy atom, donor atom, acceptor molecule, acceptor atom, score
      L1  H    20    45       P1  8028  1.00
      P1  H  6896  6908       L1     3  1.00
      L1  C    11    41       P1  7957  0.56

> <Gold.PLP.Chemscore.Internal.Correction>
0.8197

> <Gold.Rescore>
     Score         DG    S(hbond)    S(metal)    S(lipo)     H(rot)  DE(clash)    DE(int)     intcor
     13.28     -14.19       1.96        0.00      76.01       2.62       0.06       0.85       ----

> <Gold.Chemscore.Fitness>
13.2775

> <Gold.Chemscore.DG>
-14.1920

> <Gold.Chemscore.ZeroCoef>
-5.4800

> <Gold.Chemscore.Hbond>
1.9555

> <Gold.Chemscore.Metal>
0.0000

> <Gold.Chemscore.Lipo>
76.0074

> <Gold.Chemscore.Internal_Hbond>
0.0000

> <Gold.Chemscore.DEClash>
0.0611

> <Gold.Chemscore.DEInternal>
0.8535

> <Gold.Chemscore.Rot>
2.6219

> <Gold.Chemscore.Internal.Correction>
   9.000000E+99

> <Gold.Chemscore.Hbonds>
donor molecule, donor type, donor heavy atom, donor atom, acceptor molecule, acceptor atom, score
      L1  H    20    45       P1  8028  0.99
      P1  H  6896  6908       L1     3  0.91

> <Gold.Chemscore.Hbond.Weighted>
-6.5313

> <Gold.Chemscore.Metal.Weighted>
-0.0000

> <Gold.Chemscore.Lipo.Weighted>
-8.8929

> <Gold.Chemscore.Internal_Hbond.Weighted>
0.0000

> <Gold.Chemscore.DEClash.Weighted>
0.0611

> <Gold.Chemscore.DEInternal.Weighted>
0.8535

> <Gold.Chemscore.Rot.Weighted>
6.7121

> <Gold.Chemscore.Internal.Correction.Weighted>
   9.000000E+99

> <Gold.Protein.RotatedTorsions>
[ 6907 6896 6895 6894 ] final  115.27 input  -60.11 | X-H torsion
[ 7974 7965 7964 7962 ] final  -83.33 input  175.53 | X-H torsion
[ 8008 7997 7996 7995 ] final -144.43 input   59.86 | X-H torsion
[ 10167 10162 10161 10158 ] final  -29.51 input  -65.29 | X-H torsion
[ 10718 10713 10712 10709 ] final  -94.16 input   66.30 | X-H torsion
[ 10763 10752 10751 10750 ] final  -83.10 input  -60.55 | X-H torsion
[ 11005 11000 10999 10996 ] final   67.29 input  -57.11 | X-H torsion

> <Gold.Protein.ActiveResidues>
 VAL166  LYS551  ARG553  GLY616  TRP617  ASP618  TYR619  PRO620  LYS621  CYS622 
 ASP623  PHE694  ASN695  SER759  ASP760  ASP761  ALA762  ILE779  LEU786  VAL792 
 PHE793  MET794  SER795  GLU796  ALA797  LYS798  CYS799  TRP800  GLU811  SER814 

> <Gold.Protein.RotatedAtoms>
  152.4752  133.8122  159.7008 H   0  0  0  0  0  0  0  0  0  0  0  0  # atno 6907 bound_to 6896
  150.8765  133.7423  159.2951 H   0  0  0  0  0  0  0  0  0  0  0  0  # atno 6908 bound_to 6896
  151.4941  135.1062  159.9863 H   0  0  0  0  0  0  0  0  0  0  0  0  # atno 6909 bound_to 6896
  145.5214  140.9531  143.1653 H   0  0  0  0  0  0  0  0  0  0  0  0  # atno 7974 bound_to 7965
  155.5268  140.0596  157.2896 H   0  0  0  0  0  0  0  0  0  0  0  0  # atno 8008 bound_to 7997
  154.4498  140.1943  156.0499 H   0  0  0  0  0  0  0  0  0  0  0  0  # atno 8009 bound_to 7997
  156.0680  140.3264  155.7545 H   0  0  0  0  0  0  0  0  0  0  0  0  # atno 8010 bound_to 7997
  140.7259  143.3922  151.1409 H   0  0  0  0  0  0  0  0  0  0  0  0  # atno 10167 bound_to 10162
  156.0023  130.5056  150.5885 H   0  0  0  0  0  0  0  0  0  0  0  0  # atno 10718 bound_to 10713
  154.5837  135.5568  153.7210 H   0  0  0  0  0  0  0  0  0  0  0  0  # atno 10763 bound_to 10752
  153.0091  135.6326  154.1946 H   0  0  0  0  0  0  0  0  0  0  0  0  # atno 10764 bound_to 10752
  154.1887  135.2883  155.3009 H   0  0  0  0  0  0  0  0  0  0  0  0  # atno 10765 bound_to 10752
  139.9779  134.6791  156.0317 H   0  0  0  0  0  0  0  0  0  0  0  0  # atno 11005 bound_to 11000
  144.7674  139.6813  143.7209 LP  0  0  0  0  0  0  0  0  0  0  0  0  # atno 17320 bound_to 7965
  146.2103  139.5456  142.9685 LP  0  0  0  0  0  0  0  0  0  0  0  0  # atno 17321 bound_to 7965
  139.7529  143.8751  152.3081 LP  0  0  0  0  0  0  0  0  0  0  0  0  # atno 17342 bound_to 10162
  139.8611  144.7117  150.9099 LP  0  0  0  0  0  0  0  0  0  0  0  0  # atno 17343 bound_to 10162
  157.3753  131.0772  151.1523 LP  0  0  0  0  0  0  0  0  0  0  0  0  # atno 17370 bound_to 10713
  157.2263  130.6504  149.5831 LP  0  0  0  0  0  0  0  0  0  0  0  0  # atno 17371 bound_to 10713
  141.1455  133.6557  156.3854 LP  0  0  0  0  0  0  0  0  0  0  0  0  # atno 17394 bound_to 11000
  140.5156  134.6354  157.5300 LP  0  0  0  0  0  0  0  0  0  0  0  0  # atno 17395 bound_to 11000

$$$$
