AV-unprocessed.smi:1032|AV-procd|sdf|4486|dock10
  -GOLD-   22720 2463D 1   1.00000     0.00000
 Structure written by MMmdl.
 47 48  0  0  0  0  0  0  0  0  3 V2000
  145.7933  128.4102  152.1725 C   0  0  0  0  0  0  0  0  0  0  0  0
  146.3752  129.6882  152.7929 C   0  0  2  0  0  0  0  0  0  0  0  0
  146.1266  130.9194  151.9056 C   0  0  0  0  0  0  0  0  0  0  0  0
  146.7391  132.1873  152.5249 C   0  0  0  0  0  0  0  0  0  0  0  0
  148.1963  132.0144  152.7689 N   0  3  1  0  0  0  0  0  0  0  0  0
  148.8674  133.2485  153.2540 C   0  0  0  0  0  0  0  0  0  0  0  0
  149.0016  133.2997  154.7904 C   0  0  2  0  0  0  0  0  0  0  0  0
  147.7225  133.5838  155.3226 O   0  0  0  0  0  0  0  0  0  0  0  0
  149.9633  134.4221  155.2327 C   0  0  0  0  0  0  0  0  0  0  0  0
  149.6936  135.6798  154.5416 N   0  0  0  0  0  0  0  0  0  0  0  0
  149.7152  136.8908  155.1170 C   0  0  0  0  0  0  0  0  0  0  0  0
  149.9354  137.0663  156.3155 O   0  0  0  0  0  0  0  0  0  0  0  0
  149.4449  137.8624  154.2283 N   0  0  0  0  0  0  0  0  0  0  0  0
  149.4319  139.2681  154.4391 C   0  0  0  0  0  0  0  0  0  0  0  0
  150.3576  139.8032  155.3623 C   0  0  0  0  0  0  0  0  0  0  0  0
  150.3648  141.1902  155.6151 C   0  0  0  0  0  0  0  0  0  0  0  0
  149.4814  141.9934  154.9842 N   0  3  0  0  0  0  0  0  0  0  0  0
  148.5678  141.5265  154.1066 C   0  0  0  0  0  0  0  0  0  0  0  0
  148.5140  140.1487  153.8121 C   0  0  0  0  0  0  0  0  0  0  0  0
  148.4633  130.8501  153.6523 C   0  0  0  0  0  0  0  0  0  0  0  0
  147.8836  129.5550  153.0598 C   0  0  0  0  0  0  0  0  0  0  0  0
  146.2599  128.1850  151.2128 H   0  0  0  0  0  0  0  0  0  0  0  0
  144.7202  128.5071  152.0063 H   0  0  0  0  0  0  0  0  0  0  0  0
  145.9477  127.5517  152.8269 H   0  0  0  0  0  0  0  0  0  0  0  0
  145.8733  129.8510  153.7479 H   0  0  0  0  0  0  0  0  0  0  0  0
  146.5534  130.7553  150.9150 H   0  0  0  0  0  0  0  0  0  0  0  0
  145.0555  131.0641  151.7594 H   0  0  0  0  0  0  0  0  0  0  0  0
  146.5592  133.0249  151.8526 H   0  0  0  0  0  0  0  0  0  0  0  0
  146.2370  132.4248  153.4642 H   0  0  0  0  0  0  0  0  0  0  0  0
  149.8473  133.3280  152.7808 H   0  0  0  0  0  0  0  0  0  0  0  0
  148.3030  134.1247  152.9298 H   0  0  0  0  0  0  0  0  0  0  0  0
  149.3471  132.3410  155.1752 H   0  0  0  0  0  0  0  0  0  0  0  0
  147.3752  132.7945  155.7104 H   0  0  0  0  0  0  0  0  0  0  0  0
  149.8677  134.5944  156.3063 H   0  0  0  0  0  0  0  0  0  0  0  0
  151.0032  134.1341  155.0712 H   0  0  0  0  0  0  0  0  0  0  0  0
  149.5000  135.6228  153.5522 H   0  0  0  0  0  0  0  0  0  0  0  0
  149.1796  137.5591  153.3028 H   0  0  0  0  0  0  0  0  0  0  0  0
  151.0620  139.1606  155.8705 H   0  0  0  0  0  0  0  0  0  0  0  0
  151.0432  141.6770  156.3004 H   0  0  0  0  0  0  0  0  0  0  0  0
  147.9067  142.2629  153.6735 H   0  0  0  0  0  0  0  0  0  0  0  0
  147.7623  139.7931  153.1236 H   0  0  0  0  0  0  0  0  0  0  0  0
  149.5389  130.7278  153.7872 H   0  0  0  0  0  0  0  0  0  0  0  0
  148.0386  131.0362  154.6402 H   0  0  0  0  0  0  0  0  0  0  0  0
  148.0702  128.7250  153.7422 H   0  0  0  0  0  0  0  0  0  0  0  0
  148.4049  129.3148  152.1320 H   0  0  0  0  0  0  0  0  0  0  0  0
  148.6221  131.7959  151.8792 H   0  0  0  0  0  0  0  0  0  0  0  0
  149.5014  142.9942  155.1829 H   0  0  0  0  0  0  0  0  0  0  0  0
  1  2  1  0  0  0  0
  1 22  1  0  0  0  0
  1 23  1  0  0  0  0
  1 24  1  0  0  0  0
  2 21  1  0  0  0  0
  2  3  1  0  0  0  0
  2 25  1  0  0  0  0
  3  4  1  0  0  0  0
  3 26  1  0  0  0  0
  3 27  1  0  0  0  0
  4  5  1  0  0  0  0
  4 28  1  0  0  0  0
  4 29  1  0  0  0  0
  5  6  1  0  0  0  0
  5 20  1  0  0  0  0
  5 46  1  0  0  0  0
  6  7  1  0  0  0  0
  6 30  1  0  0  0  0
  6 31  1  0  0  0  0
  7  8  1  0  0  0  0
  7  9  1  0  0  0  0
  7 32  1  0  0  0  0
  8 33  1  0  0  0  0
  9 10  1  0  0  0  0
  9 34  1  0  0  0  0
  9 35  1  0  0  0  0
 10 11  1  0  0  0  0
 10 36  1  0  0  0  0
 11 12  2  0  0  0  0
 11 13  1  0  0  0  0
 13 14  1  0  0  0  0
 13 37  1  0  0  0  0
 14 19  1  0  0  0  0
 14 15  2  0  0  0  0
 15 16  1  0  0  0  0
 15 38  1  0  0  0  0
 16 17  2  0  0  0  0
 16 39  1  0  0  0  0
 17 18  1  0  0  0  0
 17 47  1  0  0  0  0
 18 19  2  0  0  0  0
 18 40  1  0  0  0  0
 19 41  1  0  0  0  0
 20 21  1  0  0  0  0
 20 42  1  0  0  0  0
 20 43  1  0  0  0  0
 21 44  1  0  0  0  0
 21 45  1  0  0  0  0
M  CHG  1   5   1
M  CHG  1  17   1
M  END
> <s_m_source_file>
AV-unprocessed.smi

> <i_m_source_file_index>
1032

> <i_lp_mmshare_version>
43012

> <i_f3d_flags>
0

> <s_epik_input>
W0NIM11bQ0hdMVtDSDJdW0NIMl1OKFtDSDJdW0NIMl0xKVtDSDJdW0NASF0oW09IXSlbQ0gyXVtOSF1DKD1PKVtOSF1jMltjSF1bY0hdbltjSF1bY0hdMg==

> <s_epik_cmdline>
J2VwaWtfcHl0aG9uJywgJy1waCcsICc3LjAnLCAnLXRuJywgJzgnLCAnLW1hJywgJzIwMCcsICctbWV0YWxfYmluZGluZycsICctaW1hZScsICc8aW5maWxlLm1hZT4nLCAnLW9tYWUnLCAnPG91dGZpbGUubWFlPic=

> <r_epik_Ionization_Penalty>
1.02509

> <r_epik_Ionization_Penalty_Charging>
1.02507

> <r_epik_Ionization_Penalty_Neutral>
1.85474e-05

> <r_epik_State_Penalty>
1.07411

> <r_epik_Charging_Adjusted_Penalty>
2.09917

> <i_epik_Tot_Q>
2

> <i_epik_Tot_abs_Q>
2

> <r_epik_Metal_State_Penalty>
1.1725

> <b_epik_Metal_Only>
0

> <s_lp_Force_Field>
OPLS_2005

> <r_lp_Energy>
32.4913

> <b_lp_Chiralities_Consistent>
1

> <s_lp_Variant>
AV-unprocessed.smi:1032-5

> <Gold.Version>
5.8.1

> <Gold.Id.Protein>
6NUR|6NUR_protein|mol2

> <Gold.PLP.Fitness>
51.1795

> <Gold.PLP.PLP>
-38.0500

> <Gold.PLP.part.hbond>
-4.1501

> <Gold.PLP.part.metal>
0.0000

> <Gold.PLP.part.buried>
-1.7707

> <Gold.PLP.part.nonpolar>
-31.6027

> <Gold.PLP.part.repulsive>
0.2821

> <Gold.PLP.ligand.clash>
0.0000

> <Gold.PLP.ligand.torsion>
0.9688

> <Gold.PLP.Chemscore.Hbond>
5.0000

> <Gold.PLP.Chemscore.CHOScore>
0.0000

> <Gold.PLP.Chemscore.Metal>
0.0000

> <Gold.Chemscore.Hbonds>
donor molecule, donor type, donor heavy atom, donor atom, acceptor molecule, acceptor atom, score
      L1  H     5    46       P1 10747  1.00
      L1  H    10    36       P1  7948  0.95
      L1  H    13    37       P1  7948  1.00
      L1  H    17    47       P1  8028  2.00

> <Gold.PLP.Chemscore.Internal.Correction>
0.0670

> <Gold.Rescore>
     Score         DG    S(hbond)    S(metal)    S(lipo)     H(rot)  DE(clash)    DE(int)     intcor
     19.24     -21.54       3.36        0.00      92.59       2.34       0.04       2.26       ----

> <Gold.Chemscore.Fitness>
19.2389

> <Gold.Chemscore.DG>
-21.5397

> <Gold.Chemscore.ZeroCoef>
-5.4800

> <Gold.Chemscore.Hbond>
3.3579

> <Gold.Chemscore.Metal>
0.0000

> <Gold.Chemscore.Lipo>
92.5881

> <Gold.Chemscore.Internal_Hbond>
0.0000

> <Gold.Chemscore.DEClash>
0.0367

> <Gold.Chemscore.DEInternal>
2.2641

> <Gold.Chemscore.Rot>
2.3393

> <Gold.Chemscore.Internal.Correction>
   9.000000E+99

> <Gold.Chemscore.Hbonds>
donor molecule, donor type, donor heavy atom, donor atom, acceptor molecule, acceptor atom, score
      L1  H     5    46       P1 10747  0.99
      L1  H    10    36       P1  7948  0.21
      L1  H    13    37       P1  7948  0.97
      L1  H    17    47       P1  8028  0.99

> <Gold.Chemscore.Hbond.Weighted>
-11.2155

> <Gold.Chemscore.Metal.Weighted>
-0.0000

> <Gold.Chemscore.Lipo.Weighted>
-10.8328

> <Gold.Chemscore.Internal_Hbond.Weighted>
0.0000

> <Gold.Chemscore.DEClash.Weighted>
0.0367

> <Gold.Chemscore.DEInternal.Weighted>
2.2641

> <Gold.Chemscore.Rot.Weighted>
5.9886

> <Gold.Chemscore.Internal.Correction.Weighted>
   9.000000E+99

> <Gold.Protein.RotatedTorsions>
[ 6907 6896 6895 6894 ] final  -11.05 input  -60.11 | X-H torsion
[ 7974 7965 7964 7962 ] final -148.56 input  175.53 | X-H torsion
[ 8008 7997 7996 7995 ] final  103.77 input   59.86 | X-H torsion
[ 10167 10162 10161 10158 ] final   88.44 input  -65.29 | X-H torsion
[ 10718 10713 10712 10709 ] final -105.57 input   66.30 | X-H torsion
[ 10763 10752 10751 10750 ] final  -73.16 input  -60.55 | X-H torsion
[ 11005 11000 10999 10996 ] final   99.15 input  -57.11 | X-H torsion

> <Gold.Protein.ActiveResidues>
 VAL166  LYS551  ARG553  GLY616  TRP617  ASP618  TYR619  PRO620  LYS621  CYS622 
 ASP623  PHE694  ASN695  SER759  ASP760  ASP761  ALA762  ILE779  LEU786  VAL792 
 PHE793  MET794  SER795  GLU796  ALA797  LYS798  CYS799  TRP800  GLU811  SER814 

> <Gold.Protein.RotatedAtoms>
  151.3923  135.0958  159.9529 H   0  0  0  0  0  0  0  0  0  0  0  0  # atno 6907 bound_to 6896
  152.5076  133.8968  159.7431 H   0  0  0  0  0  0  0  0  0  0  0  0  # atno 6908 bound_to 6896
  150.9424  133.6585  159.2816 H   0  0  0  0  0  0  0  0  0  0  0  0  # atno 6909 bound_to 6896
  144.8021  140.5180  143.5700 H   0  0  0  0  0  0  0  0  0  0  0  0  # atno 7974 bound_to 7965
  156.1514  140.3159  155.8654 H   0  0  0  0  0  0  0  0  0  0  0  0  # atno 8008 bound_to 7997
  155.3964  140.0497  157.3055 H   0  0  0  0  0  0  0  0  0  0  0  0  # atno 8009 bound_to 7997
  154.5062  140.2147  155.9259 H   0  0  0  0  0  0  0  0  0  0  0  0  # atno 8010 bound_to 7997
  139.8673  144.6512  150.8990 H   0  0  0  0  0  0  0  0  0  0  0  0  # atno 10167 bound_to 10162
  156.0352  130.5570  150.7557 H   0  0  0  0  0  0  0  0  0  0  0  0  # atno 10718 bound_to 10713
  154.4556  135.5906  153.6221 H   0  0  0  0  0  0  0  0  0  0  0  0  # atno 10763 bound_to 10752
  152.9818  135.6031  154.3550 H   0  0  0  0  0  0  0  0  0  0  0  0  # atno 10764 bound_to 10752
  154.3416  135.2841  155.2398 H   0  0  0  0  0  0  0  0  0  0  0  0  # atno 10765 bound_to 10752
  139.8771  134.9082  156.4562 H   0  0  0  0  0  0  0  0  0  0  0  0  # atno 11005 bound_to 11000
  145.5526  139.1477  143.3385 LP  0  0  0  0  0  0  0  0  0  0  0  0  # atno 17320 bound_to 7965
  146.2305  140.5664  142.8977 LP  0  0  0  0  0  0  0  0  0  0  0  0  # atno 17321 bound_to 7965
  140.7766  143.3693  151.1679 LP  0  0  0  0  0  0  0  0  0  0  0  0  # atno 17342 bound_to 10162
  139.7317  143.9062  152.3021 LP  0  0  0  0  0  0  0  0  0  0  0  0  # atno 17343 bound_to 10162
  157.5090  131.0924  151.0221 LP  0  0  0  0  0  0  0  0  0  0  0  0  # atno 17370 bound_to 10713
  157.0582  130.5814  149.5381 LP  0  0  0  0  0  0  0  0  0  0  0  0  # atno 17371 bound_to 10713
  140.8896  133.7857  155.9557 LP  0  0  0  0  0  0  0  0  0  0  0  0  # atno 17394 bound_to 11000
  140.8767  134.2661  157.5164 LP  0  0  0  0  0  0  0  0  0  0  0  0  # atno 17395 bound_to 11000

$$$$
