AV-unprocessed.smi:1434|AV-procd|sdf|5856|dock9
  -GOLD-   22720 5533D 1   1.00000     0.00000
 Structure written by MMmdl.
 44 45  0  0  0  0  0  0  0  0  3 V2000
  153.8037  137.4916  159.5884 C   0  0  0  0  0  0  0  0  0  0  0  0
  154.3524  139.2035  159.1807 S   0  0  0  0  0  0  0  0  0  0  0  0
  154.2376  139.9809  160.4263 O   0  0  0  0  0  0  0  0  0  0  0  0
  155.7032  139.0459  158.6210 O   0  0  0  0  0  0  0  0  0  0  0  0
  153.2890  139.6370  158.0280 N   0  5  0  0  0  0  0  0  0  0  0  0
  152.1170  140.4476  158.3362 C   0  0  1  0  0  0  0  0  0  0  0  0
  152.5253  141.7188  159.1255 C   0  0  0  0  0  0  0  0  0  0  0  0
  151.3773  142.7537  159.2636 C   0  0  0  0  0  0  0  0  0  0  0  0
  150.7104  143.0855  157.9087 C   0  0  0  0  0  0  0  0  0  0  0  0
  150.2808  141.8059  157.2982 N   0  0  0  0  0  0  0  0  0  0  0  0
  148.9945  141.4365  157.0534 C   0  0  0  0  0  0  0  0  0  0  0  0
  148.6769  140.3236  156.6317 O   0  0  0  0  0  0  0  0  0  0  0  0
  148.0767  142.3866  157.2956 N   0  0  0  0  0  0  0  0  0  0  0  0
  146.6423  142.2221  157.1059 C   0  0  0  0  0  0  0  0  0  0  0  0
  145.8858  143.4599  157.6067 C   0  0  0  0  0  0  0  0  0  0  0  0
  146.0122  143.6421  159.1068 C   0  0  0  0  0  0  0  0  0  0  0  0
  145.4034  142.7585  160.0245 C   0  0  0  0  0  0  0  0  0  0  0  0
  145.5695  142.9798  161.4077 C   0  0  0  0  0  0  0  0  0  0  0  0
  146.3388  144.0785  161.8438 C   0  0  0  0  0  0  0  0  0  0  0  0
  146.9261  144.9276  160.8840 C   0  0  0  0  0  0  0  0  0  0  0  0
  146.7460  144.6813  159.5676 N   0  3  0  0  0  0  0  0  0  0  0  0
  151.4184  140.8962  157.0234 C   0  0  0  0  0  0  0  0  0  0  0  0
  154.5020  137.0526  160.3000 H   0  0  0  0  0  0  0  0  0  0  0  0
  153.7876  136.8896  158.6803 H   0  0  0  0  0  0  0  0  0  0  0  0
  152.8084  137.5125  160.0308 H   0  0  0  0  0  0  0  0  0  0  0  0
  151.3862  139.8929  158.9261 H   0  0  0  0  0  0  0  0  0  0  0  0
  152.8930  141.4465  160.1152 H   0  0  0  0  0  0  0  0  0  0  0  0
  153.3601  142.2037  158.6165 H   0  0  0  0  0  0  0  0  0  0  0  0
  150.6205  142.3785  159.9555 H   0  0  0  0  0  0  0  0  0  0  0  0
  151.7658  143.6676  159.7139 H   0  0  0  0  0  0  0  0  0  0  0  0
  149.9141  143.8133  158.0616 H   0  0  0  0  0  0  0  0  0  0  0  0
  151.4300  143.5694  157.2465 H   0  0  0  0  0  0  0  0  0  0  0  0
  148.3997  143.2798  157.6377 H   0  0  0  0  0  0  0  0  0  0  0  0
  146.4285  142.0595  156.0480 H   0  0  0  0  0  0  0  0  0  0  0  0
  146.3131  141.3318  157.6438 H   0  0  0  0  0  0  0  0  0  0  0  0
  146.2611  144.3554  157.1088 H   0  0  0  0  0  0  0  0  0  0  0  0
  144.8293  143.3828  157.3455 H   0  0  0  0  0  0  0  0  0  0  0  0
  144.8192  141.9194  159.6754 H   0  0  0  0  0  0  0  0  0  0  0  0
  145.1130  142.3140  162.1257 H   0  0  0  0  0  0  0  0  0  0  0  0
  146.4775  144.2656  162.8988 H   0  0  0  0  0  0  0  0  0  0  0  0
  147.5308  145.7891  161.1277 H   0  0  0  0  0  0  0  0  0  0  0  0
  152.1289  141.4235  156.3845 H   0  0  0  0  0  0  0  0  0  0  0  0
  151.1165  140.0165  156.4526 H   0  0  0  0  0  0  0  0  0  0  0  0
  147.1823  145.3083  158.8911 H   0  0  0  0  0  0  0  0  0  0  0  0
  1  2  1  0  0  0  0
  1 23  1  0  0  0  0
  1 24  1  0  0  0  0
  1 25  1  0  0  0  0
  2  3  2  0  0  0  0
  2  4  2  0  0  0  0
  2  5  1  0  0  0  0
  5  6  1  0  0  0  0
  6 22  1  0  0  0  0
  6  7  1  0  0  0  0
  6 26  1  0  0  0  0
  7  8  1  0  0  0  0
  7 27  1  0  0  0  0
  7 28  1  0  0  0  0
  8  9  1  0  0  0  0
  8 29  1  0  0  0  0
  8 30  1  0  0  0  0
  9 10  1  0  0  0  0
  9 31  1  0  0  0  0
  9 32  1  0  0  0  0
 10 11  1  0  0  0  0
 10 22  1  0  0  0  0
 11 12  2  0  0  0  0
 11 13  1  0  0  0  0
 13 14  1  0  0  0  0
 13 33  1  0  0  0  0
 14 15  1  0  0  0  0
 14 34  1  0  0  0  0
 14 35  1  0  0  0  0
 15 16  1  0  0  0  0
 15 36  1  0  0  0  0
 15 37  1  0  0  0  0
 16 21  1  0  0  0  0
 16 17  2  0  0  0  0
 17 18  1  0  0  0  0
 17 38  1  0  0  0  0
 18 19  2  0  0  0  0
 18 39  1  0  0  0  0
 19 20  1  0  0  0  0
 19 40  1  0  0  0  0
 20 21  2  0  0  0  0
 20 41  1  0  0  0  0
 21 44  1  0  0  0  0
 22 42  1  0  0  0  0
 22 43  1  0  0  0  0
M  CHG  1   5  -1
M  CHG  1  21   1
M  END
> <s_m_source_file>
AV-unprocessed.smi

> <i_m_source_file_index>
1434

> <i_lp_mmshare_version>
43012

> <i_f3d_flags>
0

> <s_epik_input>
W0NIM11TKD1PKSg9TylbTkhdW0NAQEhdMVtDSDJdW0NIMl1bQ0gyXU4oW0NIMl0xKUMoPU8pW05IXVtDSDJdW0NIMl1jMltjSF1bY0hdW2NIXVtjSF1uMg==

> <s_epik_cmdline>
J2VwaWtfcHl0aG9uJywgJy1waCcsICc3LjAnLCAnLXRuJywgJzgnLCAnLW1hJywgJzIwMCcsICctbWV0YWxfYmluZGluZycsICctaW1hZScsICc8aW5maWxlLm1hZT4nLCAnLW9tYWUnLCAnPG91dGZpbGUubWFlPic=

> <r_epik_Ionization_Penalty>
8.07847

> <r_epik_Ionization_Penalty_Charging>
8.0784

> <r_epik_Ionization_Penalty_Neutral>
6.25603e-05

> <r_epik_State_Penalty>
8.17261

> <r_epik_Charging_Adjusted_Penalty>
16.251

> <i_epik_Tot_Q>
0

> <i_epik_Tot_abs_Q>
2

> <r_epik_Metal_State_Penalty>
4.14042

> <b_epik_Metal_Only>
1

> <s_lp_Force_Field>
OPLS_2005

> <r_lp_Energy>
28.6508

> <b_lp_Chiralities_Consistent>
1

> <s_lp_Variant>
AV-unprocessed.smi:1434-8

> <Gold.Version>
5.8.1

> <Gold.Id.Protein>
6NUR|6NUR_protein|mol2

> <Gold.PLP.Fitness>
45.5317

> <Gold.PLP.PLP>
-32.6765

> <Gold.PLP.part.hbond>
-4.0000

> <Gold.PLP.part.metal>
0.0000

> <Gold.PLP.part.buried>
-5.0402

> <Gold.PLP.part.nonpolar>
-23.6155

> <Gold.PLP.part.repulsive>
0.1349

> <Gold.PLP.ligand.clash>
0.0000

> <Gold.PLP.ligand.torsion>
0.6776

> <Gold.PLP.Chemscore.Hbond>
4.3806

> <Gold.PLP.Chemscore.CHOScore>
0.0000

> <Gold.PLP.Chemscore.Metal>
0.0000

> <Gold.Chemscore.Hbonds>
donor molecule, donor type, donor heavy atom, donor atom, acceptor molecule, acceptor atom, score
      L1  H    21    44       P1  8029  2.00
      P1  H  7997  8008       L1     5  1.90
      P1  H  7997  8010       L1     4  0.37

> <Gold.PLP.Chemscore.Internal.Correction>
1.0685

> <Gold.Rescore>
     Score         DG    S(hbond)    S(metal)    S(lipo)     H(rot)  DE(clash)    DE(int)     intcor
     13.62     -15.65       1.98        0.00      69.21       1.77       0.01       2.03       ----

> <Gold.Chemscore.Fitness>
13.6172

> <Gold.Chemscore.DG>
-15.6548

> <Gold.Chemscore.ZeroCoef>
-5.4800

> <Gold.Chemscore.Hbond>
1.9757

> <Gold.Chemscore.Metal>
0.0000

> <Gold.Chemscore.Lipo>
69.2067

> <Gold.Chemscore.Internal_Hbond>
0.0000

> <Gold.Chemscore.DEClash>
0.0106

> <Gold.Chemscore.DEInternal>
2.0270

> <Gold.Chemscore.Rot>
1.7661

> <Gold.Chemscore.Internal.Correction>
   9.000000E+99

> <Gold.Chemscore.Hbonds>
donor molecule, donor type, donor heavy atom, donor atom, acceptor molecule, acceptor atom, score
      L1  H    21    44       P1  8029  1.00
      P1  H  7997  8008       L1     5  0.20
      P1  H  7997  8010       L1     4  0.32

> <Gold.Chemscore.Hbond.Weighted>
-6.5987

> <Gold.Chemscore.Metal.Weighted>
-0.0000

> <Gold.Chemscore.Lipo.Weighted>
-8.0972

> <Gold.Chemscore.Internal_Hbond.Weighted>
0.0000

> <Gold.Chemscore.DEClash.Weighted>
0.0106

> <Gold.Chemscore.DEInternal.Weighted>
2.0270

> <Gold.Chemscore.Rot.Weighted>
4.5211

> <Gold.Chemscore.Internal.Correction.Weighted>
   9.000000E+99

> <Gold.Protein.RotatedTorsions>
[ 6907 6896 6895 6894 ] final  -35.60 input  -60.11 | X-H torsion
[ 7974 7965 7964 7962 ] final   24.40 input  175.53 | X-H torsion
[ 8008 7997 7996 7995 ] final  -66.55 input   59.86 | X-H torsion
[ 10167 10162 10161 10158 ] final  -22.84 input  -65.29 | X-H torsion
[ 10718 10713 10712 10709 ] final   55.44 input   66.30 | X-H torsion
[ 10763 10752 10751 10750 ] final  -84.93 input  -60.55 | X-H torsion
[ 11005 11000 10999 10996 ] final  131.42 input  -57.11 | X-H torsion

> <Gold.Protein.ActiveResidues>
 VAL166  LYS551  ARG553  GLY616  TRP617  ASP618  TYR619  PRO620  LYS621  CYS622 
 ASP623  PHE694  ASN695  SER759  ASP760  ASP761  ALA762  ILE779  LEU786  VAL792 
 PHE793  MET794  SER795  GLU796  ALA797  LYS798  CYS799  TRP800  GLU811  SER814 

> <Gold.Protein.RotatedAtoms>
  151.0378  134.9585  159.8145 H   0  0  0  0  0  0  0  0  0  0  0  0  # atno 6907 bound_to 6896
  152.5358  134.2697  159.8977 H   0  0  0  0  0  0  0  0  0  0  0  0  # atno 6908 bound_to 6896
  151.2709  133.4213  159.2655 H   0  0  0  0  0  0  0  0  0  0  0  0  # atno 6909 bound_to 6896
  146.1939  139.7611  142.8811 H   0  0  0  0  0  0  0  0  0  0  0  0  # atno 7974 bound_to 7965
  154.4742  140.0910  156.7220 H   0  0  0  0  0  0  0  0  0  0  0  0  # atno 8008 bound_to 7997
  155.4642  140.3462  155.4298 H   0  0  0  0  0  0  0  0  0  0  0  0  # atno 8009 bound_to 7997
  156.1089  140.1442  156.9355 H   0  0  0  0  0  0  0  0  0  0  0  0  # atno 8010 bound_to 7997
  140.7287  143.4498  151.0534 H   0  0  0  0  0  0  0  0  0  0  0  0  # atno 10167 bound_to 10162
  157.5345  130.8654  149.8734 H   0  0  0  0  0  0  0  0  0  0  0  0  # atno 10718 bound_to 10713
  154.6052  135.5503  153.7416 H   0  0  0  0  0  0  0  0  0  0  0  0  # atno 10763 bound_to 10752
  153.0171  135.6376  154.1657 H   0  0  0  0  0  0  0  0  0  0  0  0  # atno 10764 bound_to 10752
  154.1596  135.2898  155.3092 H   0  0  0  0  0  0  0  0  0  0  0  0  # atno 10765 bound_to 10752
  139.9729  134.9572  156.9435 H   0  0  0  0  0  0  0  0  0  0  0  0  # atno 11005 bound_to 11000
  145.3705  141.0342  143.3234 LP  0  0  0  0  0  0  0  0  0  0  0  0  # atno 17320 bound_to 7965
  144.8542  139.5276  143.6842 LP  0  0  0  0  0  0  0  0  0  0  0  0  # atno 17321 bound_to 7965
  139.8173  143.7869  152.3175 LP  0  0  0  0  0  0  0  0  0  0  0  0  # atno 17342 bound_to 10162
  139.7939  144.7400  150.9917 LP  0  0  0  0  0  0  0  0  0  0  0  0  # atno 17343 bound_to 10162
  156.0448  130.3730  150.1345 LP  0  0  0  0  0  0  0  0  0  0  0  0  # atno 17370 bound_to 10713
  156.9528  130.9780  151.3495 LP  0  0  0  0  0  0  0  0  0  0  0  0  # atno 17371 bound_to 10713
  140.5255  134.0865  155.7302 LP  0  0  0  0  0  0  0  0  0  0  0  0  # atno 17394 bound_to 11000
  141.1408  133.9142  157.2330 LP  0  0  0  0  0  0  0  0  0  0  0  0  # atno 17395 bound_to 11000

$$$$
