AV-unprocessed.smi:157|AV-procd|sdf|1320|dock6
  -GOLD-   2262019 13D 1   1.00000     0.00000
 Structure written by MMmdl.
 36 38  0  0  0  0  0  0  0  0  2 V2000
  152.0401  137.2884  153.9632 O   0  0  0  0  0  0  0  0  0  0  0  0
  152.7461  138.2568  154.7094 C   0  0  0  0  0  0  0  0  0  0  0  0
  151.8014  138.9844  155.6793 C   0  0  2  0  0  0  0  0  0  0  0  0
  152.4864  140.0891  156.2666 O   0  0  0  0  0  0  0  0  0  0  0  0
  152.0908  140.2565  157.5962 C   0  0  1  0  0  0  0  0  0  0  0  0
  151.5544  141.6424  157.7568 N   0  0  0  0  0  0  0  0  0  0  0  0
  150.7332  142.2822  156.8977 C   0  0  0  0  0  0  0  0  0  0  0  0
  150.4027  143.5073  157.2692 N   0  3  0  0  0  0  0  0  0  0  0  0
  151.0397  143.7364  158.4703 C   0  0  0  0  0  0  0  0  0  0  0  0
  151.7400  142.5630  158.7631 C   0  0  0  0  0  0  0  0  0  0  0  0
  152.5433  142.2483  159.8702 N   0  0  0  0  0  0  0  0  0  0  0  0
  152.5418  142.9401  160.9632 C   0  0  0  0  0  0  0  0  0  0  0  0
  151.8740  144.1185  161.2526 N   0  0  0  0  0  0  0  0  0  0  0  0
  151.8344  145.2542  160.3486 C   0  0  0  0  0  0  0  0  0  0  0  0
  150.8899  145.0585  159.1557 C   0  0  2  0  0  0  0  0  0  0  0  0
  149.5652  145.3012  159.5822 O   0  0  0  0  0  0  0  0  0  0  0  0
  150.9990  139.2258  157.8826 C   0  0  0  0  0  0  0  0  0  0  0  0
  151.3403  138.1470  156.8774 C   0  0  1  0  0  0  0  0  0  0  0  0
  150.2019  137.3635  156.5845 O   0  0  0  0  0  0  0  0  0  0  0  0
  150.9392  139.3884  155.1450 H   0  0  0  0  0  0  0  0  0  0  0  0
  152.9542  140.1823  158.2580 H   0  0  0  0  0  0  0  0  0  0  0  0
  151.1169  145.8357  158.4251 H   0  0  0  0  0  0  0  0  0  0  0  0
  152.1504  137.5200  157.2533 H   0  0  0  0  0  0  0  0  0  0  0  0
  151.4039  137.7307  153.4216 H   0  0  0  0  0  0  0  0  0  0  0  0
  153.5681  137.7811  155.2455 H   0  0  0  0  0  0  0  0  0  0  0  0
  153.1860  138.9697  154.0117 H   0  0  0  0  0  0  0  0  0  0  0  0
  150.3817  141.8285  155.9881 H   0  0  0  0  0  0  0  0  0  0  0  0
  153.1409  142.5934  161.8065 H   0  0  0  0  0  0  0  0  0  0  0  0
  151.8056  144.4115  162.2170 H   0  0  0  0  0  0  0  0  0  0  0  0
  151.5740  146.1558  160.9040 H   0  0  0  0  0  0  0  0  0  0  0  0
  152.8477  145.4106  159.9759 H   0  0  0  0  0  0  0  0  0  0  0  0
  149.0252  145.4584  158.8231 H   0  0  0  0  0  0  0  0  0  0  0  0
  151.0297  138.8925  158.9202 H   0  0  0  0  0  0  0  0  0  0  0  0
  150.0172  139.6552  157.6736 H   0  0  0  0  0  0  0  0  0  0  0  0
  150.4800  136.4698  156.4489 H   0  0  0  0  0  0  0  0  0  0  0  0
  149.8055  144.1486  156.7628 H   0  0  0  0  0  0  0  0  0  0  0  0
  1  2  1  0  0  0  0
  1 24  1  0  0  0  0
  2  3  1  0  0  0  0
  2 25  1  0  0  0  0
  2 26  1  0  0  0  0
  3 20  1  0  0  0  0
  3 18  1  0  0  0  0
  3  4  1  0  0  0  0
  4  5  1  0  0  0  0
  5 21  1  0  0  0  0
  5  6  1  0  0  0  0
  5 17  1  0  0  0  0
  6 10  1  0  0  0  0
  6  7  1  0  0  0  0
  7  8  2  0  0  0  0
  7 27  1  0  0  0  0
  8  9  1  0  0  0  0
  8 36  1  0  0  0  0
  9 15  1  0  0  0  0
  9 10  2  0  0  0  0
 10 11  1  0  0  0  0
 11 12  2  0  0  0  0
 12 13  1  0  0  0  0
 12 28  1  0  0  0  0
 13 14  1  0  0  0  0
 13 29  1  0  0  0  0
 14 15  1  0  0  0  0
 14 30  1  0  0  0  0
 14 31  1  0  0  0  0
 15 22  1  0  0  0  0
 15 16  1  0  0  0  0
 16 32  1  0  0  0  0
 17 18  1  0  0  0  0
 17 33  1  0  0  0  0
 17 34  1  0  0  0  0
 18 23  1  0  0  0  0
 18 19  1  0  0  0  0
 19 35  1  0  0  0  0
M  CHG  1   8   1
M  END
> <s_m_source_file>
AV-unprocessed.smi

> <i_m_source_file_index>
157

> <i_lp_mmshare_version>
43012

> <i_f3d_flags>
0

> <s_epik_input>
W09IXVtDSDJdW0NASF0xT1tDQEhdKFtDSDJdW0NAQEhdMVtPSF0pbihbY0hdbjIpYyhjMjMpTj1bQ0hdW05IXVtDSDJdW0NASF0zW09IXQ==

> <s_epik_cmdline>
J2VwaWtfcHl0aG9uJywgJy1waCcsICc3LjAnLCAnLXRuJywgJzgnLCAnLW1hJywgJzIwMCcsICctbWV0YWxfYmluZGluZycsICctaW1hZScsICc8aW5maWxlLm1hZT4nLCAnLW9tYWUnLCAnPG91dGZpbGUubWFlPic=

> <r_epik_Ionization_Penalty>
1.68594

> <r_epik_Ionization_Penalty_Charging>
0

> <r_epik_Ionization_Penalty_Neutral>
1.68594

> <r_epik_State_Penalty>
1.79006

> <r_epik_Charging_Adjusted_Penalty>
1.79006

> <i_epik_Tot_Q>
1

> <i_epik_Tot_abs_Q>
1

> <r_epik_Metal_State_Penalty>
5.85324

> <b_epik_Metal_Only>
0

> <s_epik_Chemistry_Notes>
This compound has an imine and may undergo hydrolysis. This compound contains an acetal/aminal-like group ( X-CH(R)-Y where X, Y are N, S, or O) that may be acid/base labile, releasing an aldehyde.

> <s_lp_Force_Field>
OPLS_2005

> <r_lp_Energy>
53.8289

> <b_lp_Chiralities_Consistent>
1

> <s_lp_Variant>
AV-unprocessed.smi:157-30

> <Gold.Version>
5.8.1

> <Gold.Id.Protein>
6NUR|6NUR_protein|mol2

> <Gold.PLP.Fitness>
51.3522

> <Gold.PLP.PLP>
-37.3020

> <Gold.PLP.part.hbond>
-5.7166

> <Gold.PLP.part.metal>
0.0000

> <Gold.PLP.part.buried>
-6.0599

> <Gold.PLP.part.nonpolar>
-26.6981

> <Gold.PLP.part.repulsive>
0.0589

> <Gold.PLP.ligand.clash>
0.0000

> <Gold.PLP.ligand.torsion>
0.4799

> <Gold.PLP.Chemscore.Hbond>
5.0000

> <Gold.PLP.Chemscore.CHOScore>
0.0000

> <Gold.PLP.Chemscore.Metal>
0.0000

> <Gold.Chemscore.Hbonds>
donor molecule, donor type, donor heavy atom, donor atom, acceptor molecule, acceptor atom, score
      L1  H     8    36       P1  8028  1.98
      L1  H    16    32       P1  8029  1.00
      P1  H  7997  8010       L1     4  1.00
      P1  H 10752 10765       L1     1  0.99

> <Gold.PLP.Chemscore.Internal.Correction>
0.0100

> <Gold.Rescore>
     Score         DG    S(hbond)    S(metal)    S(lipo)     H(rot)  DE(clash)    DE(int)     intcor
     13.86     -14.52       3.54        0.00      56.28       3.67       0.11       0.55       ----

> <Gold.Chemscore.Fitness>
13.8618

> <Gold.Chemscore.DG>
-14.5202

> <Gold.Chemscore.ZeroCoef>
-5.4800

> <Gold.Chemscore.Hbond>
3.5450

> <Gold.Chemscore.Metal>
0.0000

> <Gold.Chemscore.Lipo>
56.2810

> <Gold.Chemscore.Internal_Hbond>
0.0000

> <Gold.Chemscore.DEClash>
0.1060

> <Gold.Chemscore.DEInternal>
0.5524

> <Gold.Chemscore.Rot>
3.6659

> <Gold.Chemscore.Internal.Correction>
   9.000000E+99

> <Gold.Chemscore.Hbonds>
donor molecule, donor type, donor heavy atom, donor atom, acceptor molecule, acceptor atom, score
      L1  H     8    36       P1  8028  0.85
      L1  H    16    32       P1  8029  0.98
      P1  H  7997  8010       L1     4  0.58
      P1  H 10752 10765       L1     1  0.56

> <Gold.Chemscore.Hbond.Weighted>
-11.8402

> <Gold.Chemscore.Metal.Weighted>
-0.0000

> <Gold.Chemscore.Lipo.Weighted>
-6.5849

> <Gold.Chemscore.Internal_Hbond.Weighted>
0.0000

> <Gold.Chemscore.DEClash.Weighted>
0.1060

> <Gold.Chemscore.DEInternal.Weighted>
0.5524

> <Gold.Chemscore.Rot.Weighted>
9.3848

> <Gold.Chemscore.Internal.Correction.Weighted>
   9.000000E+99

> <Gold.Protein.RotatedTorsions>
[ 6907 6896 6895 6894 ] final -120.51 input  -60.11 | X-H torsion
[ 7974 7965 7964 7962 ] final   -1.62 input  175.53 | X-H torsion
[ 8008 7997 7996 7995 ] final   83.25 input   59.86 | X-H torsion
[ 10167 10162 10161 10158 ] final   83.12 input  -65.29 | X-H torsion
[ 10718 10713 10712 10709 ] final   17.47 input   66.30 | X-H torsion
[ 10763 10752 10751 10750 ] final  143.68 input  -60.55 | X-H torsion
[ 11005 11000 10999 10996 ] final  -80.66 input  -57.11 | X-H torsion

> <Gold.Protein.ActiveResidues>
 VAL166  LYS551  ARG553  GLY616  TRP617  ASP618  TYR619  PRO620  LYS621  CYS622 
 ASP623  PHE694  ASN695  SER759  ASP760  ASP761  ALA762  ILE779  LEU786  VAL792 
 PHE793  MET794  SER795  GLU796  ALA797  LYS798  CYS799  TRP800  GLU811  SER814 

> <Gold.Protein.RotatedAtoms>
  150.8400  133.7951  159.3064 H   0  0  0  0  0  0  0  0  0  0  0  0  # atno 6907 bound_to 6896
  151.5656  135.1062  159.9992 H   0  0  0  0  0  0  0  0  0  0  0  0  # atno 6908 bound_to 6896
  152.4465  133.7505  159.6747 H   0  0  0  0  0  0  0  0  0  0  0  0  # atno 6909 bound_to 6896
  146.2415  140.1447  142.8335 H   0  0  0  0  0  0  0  0  0  0  0  0  # atno 7974 bound_to 7965
  155.9214  140.3421  155.6176 H   0  0  0  0  0  0  0  0  0  0  0  0  # atno 8008 bound_to 7997
  155.7268  140.0790  157.2325 H   0  0  0  0  0  0  0  0  0  0  0  0  # atno 8009 bound_to 7997
  154.4070  140.1595  156.2451 H   0  0  0  0  0  0  0  0  0  0  0  0  # atno 8010 bound_to 7997
  139.9217  144.6208  150.8433 H   0  0  0  0  0  0  0  0  0  0  0  0  # atno 10167 bound_to 10162
  157.0825  130.6394  149.5830 H   0  0  0  0  0  0  0  0  0  0  0  0  # atno 10718 bound_to 10713
  153.9763  135.2945  155.3423 H   0  0  0  0  0  0  0  0  0  0  0  0  # atno 10763 bound_to 10752
  154.7294  135.5074  153.8942 H   0  0  0  0  0  0  0  0  0  0  0  0  # atno 10764 bound_to 10752
  153.0876  135.6698  154.0032 H   0  0  0  0  0  0  0  0  0  0  0  0  # atno 10765 bound_to 10752
  141.1667  133.7160  156.8307 H   0  0  0  0  0  0  0  0  0  0  0  0  # atno 11005 bound_to 11000
  145.0217  140.8799  143.5162 LP  0  0  0  0  0  0  0  0  0  0  0  0  # atno 17320 bound_to 7965
  145.1497  139.2522  143.5447 LP  0  0  0  0  0  0  0  0  0  0  0  0  # atno 17321 bound_to 7965
  140.7660  143.3292  151.2447 LP  0  0  0  0  0  0  0  0  0  0  0  0  # atno 17342 bound_to 10162
  139.6856  143.9779  152.2832 LP  0  0  0  0  0  0  0  0  0  0  0  0  # atno 17343 bound_to 10162
  155.9919  130.4976  150.7320 LP  0  0  0  0  0  0  0  0  0  0  0  0  # atno 17370 bound_to 10713
  157.4788  131.0900  151.0560 LP  0  0  0  0  0  0  0  0  0  0  0  0  # atno 17371 bound_to 10713
  140.2053  134.8867  157.3215 LP  0  0  0  0  0  0  0  0  0  0  0  0  # atno 17394 bound_to 11000
  140.2143  134.4100  155.7597 LP  0  0  0  0  0  0  0  0  0  0  0  0  # atno 17395 bound_to 11000

$$$$
