AV-unprocessed.smi:2593|AV-procd|sdf|10163|dock8
  -GOLD-   2272014173D 1   1.00000     0.00000
 Structure written by MMmdl.
 40 42  0  0  0  0  0  0  0  0  1 V2000
  155.4678  136.7125  158.6443 C   0  0  0  0  0  0  0  0  0  0  0  0
  154.4618  136.7788  159.6389 O   0  0  0  0  0  0  0  0  0  0  0  0
  153.5451  137.8382  159.4162 C   0  0  0  0  0  0  0  0  0  0  0  0
  154.2459  139.1836  159.6495 C   0  0  0  0  0  0  0  0  0  0  0  0
  153.3599  140.3114  159.4025 N   0  0  0  0  0  0  0  0  0  0  0  0
  152.5372  140.5053  158.3438 C   0  0  0  0  0  0  0  0  0  0  0  0
  152.4080  139.3377  157.0335 S   0  0  0  0  0  0  0  0  0  0  0  0
  152.1580  140.5263  155.6880 C   0  0  0  0  0  0  0  0  0  0  0  0
  150.7863  140.3234  155.0776 C   0  0  0  0  0  0  0  0  0  0  0  0
  150.4137  139.0686  154.5506 C   0  0  0  0  0  0  0  0  0  0  0  0
  149.1299  138.9327  153.9887 C   0  0  0  0  0  0  0  0  0  0  0  0
  148.2736  140.0507  153.9744 C   0  0  0  0  0  0  0  0  0  0  0  0
  148.7407  141.2619  154.5245 C   0  0  0  0  0  0  0  0  0  0  0  0
  147.9231  142.3891  154.5259 N   0  0  0  0  0  0  0  0  0  0  0  0
  149.9697  141.4013  155.0664 N   0  0  0  0  0  0  0  0  0  0  0  0
  151.8300  141.6349  158.3578 N   0  0  0  0  0  0  0  0  0  0  0  0
  152.2241  142.2252  159.5428 C   0  0  0  0  0  0  0  0  0  0  0  0
  151.8294  143.4456  160.1367 C   0  0  0  0  0  0  0  0  0  0  0  0
  152.3746  143.8463  161.3741 C   0  0  0  0  0  0  0  0  0  0  0  0
  153.3186  143.0338  162.0348 C   0  0  0  0  0  0  0  0  0  0  0  0
  153.7266  141.8148  161.4598 C   0  0  0  0  0  0  0  0  0  0  0  0
  153.1809  141.4203  160.2235 C   0  0  0  0  0  0  0  0  0  0  0  0
  156.1450  135.8870  158.8630 H   0  0  0  0  0  0  0  0  0  0  0  0
  156.0548  137.6313  158.6154 H   0  0  0  0  0  0  0  0  0  0  0  0
  155.0355  136.5409  157.6578 H   0  0  0  0  0  0  0  0  0  0  0  0
  153.1630  137.7930  158.3955 H   0  0  0  0  0  0  0  0  0  0  0  0
  152.6909  137.7406  160.0878 H   0  0  0  0  0  0  0  0  0  0  0  0
  154.6068  139.2418  160.6766 H   0  0  0  0  0  0  0  0  0  0  0  0
  155.1260  139.2727  159.0121 H   0  0  0  0  0  0  0  0  0  0  0  0
  152.2456  141.5423  156.0744 H   0  0  0  0  0  0  0  0  0  0  0  0
  152.9358  140.3946  154.9345 H   0  0  0  0  0  0  0  0  0  0  0  0
  151.0958  138.2314  154.5743 H   0  0  0  0  0  0  0  0  0  0  0  0
  148.8082  137.9886  153.5747 H   0  0  0  0  0  0  0  0  0  0  0  0
  147.2830  139.9760  153.5499 H   0  0  0  0  0  0  0  0  0  0  0  0
  146.9908  142.3662  154.1390 H   0  0  0  0  0  0  0  0  0  0  0  0
  148.2476  143.2730  154.8909 H   0  0  0  0  0  0  0  0  0  0  0  0
  151.1053  144.0741  159.6397 H   0  0  0  0  0  0  0  0  0  0  0  0
  152.0659  144.7808  161.8192 H   0  0  0  0  0  0  0  0  0  0  0  0
  153.7294  143.3466  162.9836 H   0  0  0  0  0  0  0  0  0  0  0  0
  154.4473  141.1891  161.9647 H   0  0  0  0  0  0  0  0  0  0  0  0
  1  2  1  0  0  0  0
  1 23  1  0  0  0  0
  1 24  1  0  0  0  0
  1 25  1  0  0  0  0
  2  3  1  0  0  0  0
  3  4  1  0  0  0  0
  3 26  1  0  0  0  0
  3 27  1  0  0  0  0
  4  5  1  0  0  0  0
  4 28  1  0  0  0  0
  4 29  1  0  0  0  0
  5 22  1  0  0  0  0
  5  6  1  0  0  0  0
  6  7  1  0  0  0  0
  6 16  2  0  0  0  0
  7  8  1  0  0  0  0
  8  9  1  0  0  0  0
  8 30  1  0  0  0  0
  8 31  1  0  0  0  0
  9 15  1  0  0  0  0
  9 10  2  0  0  0  0
 10 11  1  0  0  0  0
 10 32  1  0  0  0  0
 11 12  2  0  0  0  0
 11 33  1  0  0  0  0
 12 13  1  0  0  0  0
 12 34  1  0  0  0  0
 13 14  1  0  0  0  0
 13 15  2  0  0  0  0
 14 35  1  0  0  0  0
 14 36  1  0  0  0  0
 16 17  1  0  0  0  0
 17 22  2  0  0  0  0
 17 18  1  0  0  0  0
 18 19  2  0  0  0  0
 18 37  1  0  0  0  0
 19 20  1  0  0  0  0
 19 38  1  0  0  0  0
 20 21  2  0  0  0  0
 20 39  1  0  0  0  0
 21 22  1  0  0  0  0
 21 40  1  0  0  0  0
M  END
> <s_m_source_file>
AV-unprocessed.smi

> <i_m_source_file_index>
2593

> <i_lp_mmshare_version>
43012

> <i_f3d_flags>
0

> <s_epik_input>
W2NIXTFbY0hdW2NIXVtjSF1jKGMxMiluKFtDSDJdW0NIMl1PW0NIM10pYyhuMilTW0NIMl1jM1tjSF1bY0hdW2NIXWMobjMpW05IMl0=

> <s_epik_cmdline>
J2VwaWtfcHl0aG9uJywgJy1waCcsICc3LjAnLCAnLXRuJywgJzgnLCAnLW1hJywgJzIwMCcsICctbWV0YWxfYmluZGluZycsICctaW1hZScsICc8aW5maWxlLm1hZT4nLCAnLW9tYWUnLCAnPG91dGZpbGUubWFlPic=

> <r_lp_tautomer_probability>
1

> <r_epik_Ionization_Penalty>
0.0555631

> <r_epik_Ionization_Penalty_Charging>
0

> <r_epik_Ionization_Penalty_Neutral>
0.0555631

> <r_epik_State_Penalty>
0.0451694

> <r_epik_Charging_Adjusted_Penalty>
0.0451694

> <i_epik_Tot_Q>
0

> <i_epik_Tot_abs_Q>
0

> <r_epik_Metal_State_Penalty>
0.0431775

> <b_epik_Metal_Only>
0

> <s_lp_Force_Field>
OPLS_2005

> <r_lp_Energy>
6.83129

> <b_lp_Chiralities_Consistent>
1

> <s_lp_Variant>
AV-unprocessed.smi:2593-1

> <Gold.Version>
5.8.1

> <Gold.Id.Protein>
6NUR|6NUR_protein|mol2

> <Gold.PLP.Fitness>
50.0184

> <Gold.PLP.PLP>
-45.7689

> <Gold.PLP.part.hbond>
-2.8087

> <Gold.PLP.part.metal>
0.0000

> <Gold.PLP.part.buried>
-4.2312

> <Gold.PLP.part.nonpolar>
-38.6230

> <Gold.PLP.part.repulsive>
0.4344

> <Gold.PLP.ligand.clash>
0.0000

> <Gold.PLP.ligand.torsion>
0.9032

> <Gold.PLP.Chemscore.Hbond>
2.0000

> <Gold.PLP.Chemscore.CHOScore>
0.0000

> <Gold.PLP.Chemscore.Metal>
0.0000

> <Gold.Chemscore.Hbonds>
donor molecule, donor type, donor heavy atom, donor atom, acceptor molecule, acceptor atom, score
      L1  H    14    36       P1  8028  1.00

> <Gold.PLP.Chemscore.Internal.Correction>
0.0559

> <Gold.Rescore>
     Score         DG    S(hbond)    S(metal)    S(lipo)     H(rot)  DE(clash)    DE(int)     intcor
     18.36     -19.32       1.77        0.00     114.31       2.13       0.09       0.87       ----

> <Gold.Chemscore.Fitness>
18.3588

> <Gold.Chemscore.DG>
-19.3205

> <Gold.Chemscore.ZeroCoef>
-5.4800

> <Gold.Chemscore.Hbond>
1.7691

> <Gold.Chemscore.Metal>
0.0000

> <Gold.Chemscore.Lipo>
114.3085

> <Gold.Chemscore.Internal_Hbond>
0.0000

> <Gold.Chemscore.DEClash>
0.0936

> <Gold.Chemscore.DEInternal>
0.8681

> <Gold.Chemscore.Rot>
2.1260

> <Gold.Chemscore.Internal.Correction>
   9.000000E+99

> <Gold.Chemscore.Hbonds>
donor molecule, donor type, donor heavy atom, donor atom, acceptor molecule, acceptor atom, score
      L1  H    14    36       P1  8028  0.98

> <Gold.Chemscore.Hbond.Weighted>
-5.9090

> <Gold.Chemscore.Metal.Weighted>
-0.0000

> <Gold.Chemscore.Lipo.Weighted>
-13.3741

> <Gold.Chemscore.Internal_Hbond.Weighted>
0.0000

> <Gold.Chemscore.DEClash.Weighted>
0.0936

> <Gold.Chemscore.DEInternal.Weighted>
0.8681

> <Gold.Chemscore.Rot.Weighted>
5.4425

> <Gold.Chemscore.Internal.Correction.Weighted>
   9.000000E+99

> <Gold.Protein.RotatedTorsions>
[ 6907 6896 6895 6894 ] final   44.39 input  -60.11 | X-H torsion
[ 7974 7965 7964 7962 ] final  -37.84 input  175.53 | X-H torsion
[ 8008 7997 7996 7995 ] final  -28.15 input   59.86 | X-H torsion
[ 10167 10162 10161 10158 ] final    1.61 input  -65.29 | X-H torsion
[ 10718 10713 10712 10709 ] final   43.21 input   66.30 | X-H torsion
[ 10763 10752 10751 10750 ] final  108.64 input  -60.55 | X-H torsion
[ 11005 11000 10999 10996 ] final  -81.62 input  -57.11 | X-H torsion

> <Gold.Protein.ActiveResidues>
 VAL166  LYS551  ARG553  GLY616  TRP617  ASP618  TYR619  PRO620  LYS621  CYS622 
 ASP623  PHE694  ASN695  SER759  ASP760  ASP761  ALA762  ILE779  LEU786  VAL792 
 PHE793  MET794  SER795  GLU796  ALA797  LYS798  CYS799  TRP800  GLU811  SER814 

> <Gold.Protein.RotatedAtoms>
  152.2319  134.8313  160.0472 H   0  0  0  0  0  0  0  0  0  0  0  0  # atno 6907 bound_to 6896
  151.9059  133.3544  159.3855 H   0  0  0  0  0  0  0  0  0  0  0  0  # atno 6908 bound_to 6896
  150.7028  134.4707  159.5468 H   0  0  0  0  0  0  0  0  0  0  0  0  # atno 6909 bound_to 6896
  146.0539  140.6443  142.9029 H   0  0  0  0  0  0  0  0  0  0  0  0  # atno 7974 bound_to 7965
  154.4345  140.1853  156.1044 H   0  0  0  0  0  0  0  0  0  0  0  0  # atno 8008 bound_to 7997
  156.0267  140.3335  155.7070 H   0  0  0  0  0  0  0  0  0  0  0  0  # atno 8009 bound_to 7997
  155.5898  140.0630  157.2752 H   0  0  0  0  0  0  0  0  0  0  0  0  # atno 8010 bound_to 7997
  140.6675  143.7141  150.7855 H   0  0  0  0  0  0  0  0  0  0  0  0  # atno 10167 bound_to 10162
  157.4134  130.7927  149.7450 H   0  0  0  0  0  0  0  0  0  0  0  0  # atno 10718 bound_to 10713
  153.4235  135.3805  155.2126 H   0  0  0  0  0  0  0  0  0  0  0  0  # atno 10763 bound_to 10752
  154.8746  135.3823  154.4355 H   0  0  0  0  0  0  0  0  0  0  0  0  # atno 10764 bound_to 10752
  153.4878  135.7088  153.5964 H   0  0  0  0  0  0  0  0  0  0  0  0  # atno 10765 bound_to 10752
  141.1666  133.7205  156.8450 H   0  0  0  0  0  0  0  0  0  0  0  0  # atno 11005 bound_to 11000
  144.7137  140.4134  143.7060 LP  0  0  0  0  0  0  0  0  0  0  0  0  # atno 17320 bound_to 7965
  145.6677  139.1593  143.2772 LP  0  0  0  0  0  0  0  0  0  0  0  0  # atno 17321 bound_to 7965
  140.0820  143.4959  152.2525 LP  0  0  0  0  0  0  0  0  0  0  0  0  # atno 17342 bound_to 10162
  139.5929  144.7556  151.3357 LP  0  0  0  0  0  0  0  0  0  0  0  0  # atno 17343 bound_to 10162
  155.9857  130.3980  150.3246 LP  0  0  0  0  0  0  0  0  0  0  0  0  # atno 17370 bound_to 10713
  157.1387  131.0291  151.2937 LP  0  0  0  0  0  0  0  0  0  0  0  0  # atno 17371 bound_to 10713
  140.1956  134.8934  157.3110 LP  0  0  0  0  0  0  0  0  0  0  0  0  # atno 17394 bound_to 11000
  140.2243  134.3986  155.7551 LP  0  0  0  0  0  0  0  0  0  0  0  0  # atno 17395 bound_to 11000

$$$$
