AV-unprocessed.smi:2732|AV-procd|sdf|10532|dock10
  -GOLD-   2272014573D 1   1.00000     0.00000
 Structure written by MMmdl.
 34 35  0  0  0  0  0  0  0  0  1 V2000
  151.4894  144.4576  157.3303 C   0  0  0  0  0  0  0  0  0  0  0  0
  150.8955  143.2015  157.9847 C   0  0  2  0  0  0  0  0  0  0  0  0
  151.8295  142.7460  158.9599 O   0  0  0  0  0  0  0  0  0  0  0  0
  151.9673  143.5749  160.1076 C   0  0  0  0  0  0  0  0  0  0  0  0
  153.2651  143.2261  160.8033 C   0  0  0  0  0  0  0  0  0  0  0  0
  153.7259  141.7889  160.8898 C   0  0  0  0  0  0  0  0  0  0  0  0
  153.2534  142.5027  162.1309 C   0  0  0  0  0  0  0  0  0  0  0  0
  150.6319  142.0994  156.9457 C   0  0  0  0  0  0  0  0  0  0  0  0
  151.3885  141.1305  156.8802 O   0  0  0  0  0  0  0  0  0  0  0  0
  149.5583  142.2848  156.1556 N   0  0  0  0  0  0  0  0  0  0  0  0
  149.0411  141.4241  155.1502 C   0  0  0  0  0  0  0  0  0  0  0  0
  147.8189  141.6422  154.4702 C   0  0  0  0  0  0  0  0  0  0  0  0
  147.4244  140.7317  153.4708 C   0  0  0  0  0  0  0  0  0  0  0  0
  148.2689  139.6419  153.1802 C   0  0  0  0  0  0  0  0  0  0  0  0
  147.9114  138.7236  152.1964 N   0  0  0  0  0  0  0  0  0  0  0  0
  149.4422  139.4303  153.8122 N   0  0  0  0  0  0  0  0  0  0  0  0
  149.8146  140.3074  154.7691 C   0  0  0  0  0  0  0  0  0  0  0  0
  150.8305  144.8516  156.5556 H   0  0  0  0  0  0  0  0  0  0  0  0
  152.4593  144.2533  156.8746 H   0  0  0  0  0  0  0  0  0  0  0  0
  151.6340  145.2452  158.0702 H   0  0  0  0  0  0  0  0  0  0  0  0
  149.9627  143.4800  158.4794 H   0  0  0  0  0  0  0  0  0  0  0  0
  151.9936  144.6250  159.8141 H   0  0  0  0  0  0  0  0  0  0  0  0
  151.1379  143.4424  160.8037 H   0  0  0  0  0  0  0  0  0  0  0  0
  154.0471  143.9726  160.6761 H   0  0  0  0  0  0  0  0  0  0  0  0
  153.0760  141.0225  160.4719 H   0  0  0  0  0  0  0  0  0  0  0  0
  154.7926  141.5983  160.7924 H   0  0  0  0  0  0  0  0  0  0  0  0
  154.0056  142.7855  162.8646 H   0  0  0  0  0  0  0  0  0  0  0  0
  152.2889  142.2096  162.5409 H   0  0  0  0  0  0  0  0  0  0  0  0
  149.0846  143.1711  156.2546 H   0  0  0  0  0  0  0  0  0  0  0  0
  147.1887  142.4922  154.6812 H   0  0  0  0  0  0  0  0  0  0  0  0
  146.4959  140.8746  152.9378 H   0  0  0  0  0  0  0  0  0  0  0  0
  147.0515  138.8145  151.6747 H   0  0  0  0  0  0  0  0  0  0  0  0
  148.5065  137.9403  151.9681 H   0  0  0  0  0  0  0  0  0  0  0  0
  150.7618  140.1076  155.2484 H   0  0  0  0  0  0  0  0  0  0  0  0
  1  2  1  0  0  0  0
  1 18  1  0  0  0  0
  1 19  1  0  0  0  0
  1 20  1  0  0  0  0
  2  3  1  0  0  0  0
  2  8  1  0  0  0  0
  2 21  1  0  0  0  0
  3  4  1  0  0  0  0
  4  5  1  0  0  0  0
  4 22  1  0  0  0  0
  4 23  1  0  0  0  0
  5  7  1  0  0  0  0
  5  6  1  0  0  0  0
  5 24  1  0  0  0  0
  6  7  1  0  0  0  0
  6 25  1  0  0  0  0
  6 26  1  0  0  0  0
  7 27  1  0  0  0  0
  7 28  1  0  0  0  0
  8  9  2  0  0  0  0
  8 10  1  0  0  0  0
 10 11  1  0  0  0  0
 10 29  1  0  0  0  0
 11 17  1  0  0  0  0
 11 12  2  0  0  0  0
 12 13  1  0  0  0  0
 12 30  1  0  0  0  0
 13 14  2  0  0  0  0
 13 31  1  0  0  0  0
 14 15  1  0  0  0  0
 14 16  1  0  0  0  0
 15 32  1  0  0  0  0
 15 33  1  0  0  0  0
 16 17  2  0  0  0  0
 17 34  1  0  0  0  0
M  END
> <s_m_source_file>
AV-unprocessed.smi

> <i_m_source_file_index>
2732

> <i_lp_mmshare_version>
43012

> <i_f3d_flags>
0

> <s_epik_input>
W0NIMl0xW0NIMl1bQ0hdMVtDSDJdT1tDQEBIXShbQ0gzXSlDKD1PKVtOSF1jMltjSF1bY0hdYyhbTkgyXSluW2NIXTI=

> <s_epik_cmdline>
J2VwaWtfcHl0aG9uJywgJy1waCcsICc3LjAnLCAnLXRuJywgJzgnLCAnLW1hJywgJzIwMCcsICctbWV0YWxfYmluZGluZycsICctaW1hZScsICc8aW5maWxlLm1hZT4nLCAnLW9tYWUnLCAnPG91dGZpbGUubWFlPic=

> <r_lp_tautomer_probability>
1

> <r_epik_Ionization_Penalty>
0.0764773

> <r_epik_Ionization_Penalty_Charging>
0

> <r_epik_Ionization_Penalty_Neutral>
0.0764773

> <r_epik_State_Penalty>
0.0673619

> <r_epik_Charging_Adjusted_Penalty>
0.0673619

> <i_epik_Tot_Q>
0

> <i_epik_Tot_abs_Q>
0

> <r_epik_Metal_State_Penalty>
0.0594329

> <b_epik_Metal_Only>
0

> <s_lp_Force_Field>
OPLS_2005

> <r_lp_Energy>
19.1894

> <b_lp_Chiralities_Consistent>
1

> <s_lp_Variant>
AV-unprocessed.smi:2732-1

> <Gold.Version>
5.8.1

> <Gold.Id.Protein>
6NUR|6NUR_protein|mol2

> <Gold.PLP.Fitness>
42.5335

> <Gold.PLP.PLP>
-37.9274

> <Gold.PLP.part.hbond>
-3.0000

> <Gold.PLP.part.metal>
0.0000

> <Gold.PLP.part.buried>
-3.4144

> <Gold.PLP.part.nonpolar>
-32.6552

> <Gold.PLP.part.repulsive>
0.7565

> <Gold.PLP.ligand.clash>
0.0000

> <Gold.PLP.ligand.torsion>
0.9758

> <Gold.PLP.Chemscore.Hbond>
2.0000

> <Gold.PLP.Chemscore.CHOScore>
0.0000

> <Gold.PLP.Chemscore.Metal>
0.0000

> <Gold.Chemscore.Hbonds>
donor molecule, donor type, donor heavy atom, donor atom, acceptor molecule, acceptor atom, score
      L1  H    10    29       P1  8028  0.94
      L1  H    15    33       P1  7948  1.00

> <Gold.PLP.Chemscore.Internal.Correction>
0.5577

> <Gold.Rescore>
     Score         DG    S(hbond)    S(metal)    S(lipo)     H(rot)  DE(clash)    DE(int)     intcor
     15.52     -18.41       1.89        0.00      94.19       1.72       0.23       2.67       ----

> <Gold.Chemscore.Fitness>
15.5187

> <Gold.Chemscore.DG>
-18.4111

> <Gold.Chemscore.ZeroCoef>
-5.4800

> <Gold.Chemscore.Hbond>
1.8934

> <Gold.Chemscore.Metal>
0.0000

> <Gold.Chemscore.Lipo>
94.1863

> <Gold.Chemscore.Internal_Hbond>
0.0000

> <Gold.Chemscore.DEClash>
0.2256

> <Gold.Chemscore.DEInternal>
2.6668

> <Gold.Chemscore.Rot>
1.7237

> <Gold.Chemscore.Internal.Correction>
   9.000000E+99

> <Gold.Chemscore.Hbonds>
donor molecule, donor type, donor heavy atom, donor atom, acceptor molecule, acceptor atom, score
      L1  H    10    29       P1  8028  0.91
      L1  H    15    33       P1  7948  0.99

> <Gold.Chemscore.Hbond.Weighted>
-6.3240

> <Gold.Chemscore.Metal.Weighted>
-0.0000

> <Gold.Chemscore.Lipo.Weighted>
-11.0198

> <Gold.Chemscore.Internal_Hbond.Weighted>
0.0000

> <Gold.Chemscore.DEClash.Weighted>
0.2256

> <Gold.Chemscore.DEInternal.Weighted>
2.6668

> <Gold.Chemscore.Rot.Weighted>
4.4127

> <Gold.Chemscore.Internal.Correction.Weighted>
   9.000000E+99

> <Gold.Protein.RotatedTorsions>
[ 6907 6896 6895 6894 ] final   18.80 input  -60.11 | X-H torsion
[ 7974 7965 7964 7962 ] final   26.33 input  175.53 | X-H torsion
[ 8008 7997 7996 7995 ] final  -78.81 input   59.86 | X-H torsion
[ 10167 10162 10161 10158 ] final    9.90 input  -65.29 | X-H torsion
[ 10718 10713 10712 10709 ] final -165.54 input   66.30 | X-H torsion
[ 10763 10752 10751 10750 ] final  153.07 input  -60.55 | X-H torsion
[ 11005 11000 10999 10996 ] final  -57.65 input  -57.11 | X-H torsion

> <Gold.Protein.ActiveResidues>
 VAL166  LYS551  ARG553  GLY616  TRP617  ASP618  TYR619  PRO620  LYS621  CYS622 
 ASP623  PHE694  ASN695  SER759  ASP760  ASP761  ALA762  ILE779  LEU786  VAL792 
 PHE793  MET794  SER795  GLU796  ALA797  LYS798  CYS799  TRP800  GLU811  SER814 

> <Gold.Protein.RotatedAtoms>
  151.8709  135.0490  160.0478 H   0  0  0  0  0  0  0  0  0  0  0  0  # atno 6907 bound_to 6896
  152.2589  133.5275  159.5378 H   0  0  0  0  0  0  0  0  0  0  0  0  # atno 6908 bound_to 6896
  150.7109  134.0773  159.3928 H   0  0  0  0  0  0  0  0  0  0  0  0  # atno 6909 bound_to 6896
  146.1843  139.7343  142.8878 H   0  0  0  0  0  0  0  0  0  0  0  0  # atno 7974 bound_to 7965
  154.5724  140.0688  156.8985 H   0  0  0  0  0  0  0  0  0  0  0  0  # atno 8008 bound_to 7997
  155.2609  140.3358  155.4255 H   0  0  0  0  0  0  0  0  0  0  0  0  # atno 8009 bound_to 7997
  156.2129  140.1766  156.7641 H   0  0  0  0  0  0  0  0  0  0  0  0  # atno 8010 bound_to 7997
  140.6227  143.8170  150.7194 H   0  0  0  0  0  0  0  0  0  0  0  0  # atno 10167 bound_to 10162
  156.6550  130.9023  151.3019 H   0  0  0  0  0  0  0  0  0  0  0  0  # atno 10718 bound_to 10713
  154.1303  135.2827  155.3187 H   0  0  0  0  0  0  0  0  0  0  0  0  # atno 10763 bound_to 10752
  154.6360  135.5419  153.7738 H   0  0  0  0  0  0  0  0  0  0  0  0  # atno 10764 bound_to 10752
  153.0283  135.6474  154.1454 H   0  0  0  0  0  0  0  0  0  0  0  0  # atno 10765 bound_to 10752
  141.1174  133.6610  156.4801 H   0  0  0  0  0  0  0  0  0  0  0  0  # atno 11005 bound_to 11000
  145.3985  141.0382  143.3084 LP  0  0  0  0  0  0  0  0  0  0  0  0  # atno 17320 bound_to 7965
  144.8369  139.5535  143.6918 LP  0  0  0  0  0  0  0  0  0  0  0  0  # atno 17321 bound_to 7965
  140.1763  143.4152  152.1965 LP  0  0  0  0  0  0  0  0  0  0  0  0  # atno 17342 bound_to 10162
  139.5452  144.7292  151.4605 LP  0  0  0  0  0  0  0  0  0  0  0  0  # atno 17343 bound_to 10162
  157.7128  130.9461  150.1150 LP  0  0  0  0  0  0  0  0  0  0  0  0  # atno 17370 bound_to 10713
  156.2055  130.3663  149.8735 LP  0  0  0  0  0  0  0  0  0  0  0  0  # atno 17371 bound_to 10713
  140.4607  134.6843  157.5084 LP  0  0  0  0  0  0  0  0  0  0  0  0  # atno 17394 bound_to 11000
  140.0105  134.6698  155.9388 LP  0  0  0  0  0  0  0  0  0  0  0  0  # atno 17395 bound_to 11000

$$$$
