AV-unprocessed.smi:1586|AV-procd|sdf|6375|dock1
  -GOLD-   22720 7 03D 1   1.00000     0.00000
 Structure written by MMmdl.
 47 48  0  0  0  0  0  0  0  0  2 V2000
  143.4517  132.7919  151.1424 C   0  0  0  0  0  0  0  0  0  0  0  0
  143.9459  134.1930  151.5297 C   0  0  0  0  0  0  0  0  0  0  0  0
  145.3472  134.4031  151.1579 N   0  0  0  0  0  0  0  0  0  0  0  0
  145.6282  135.7940  150.8028 C   0  0  0  0  0  0  0  0  0  0  0  0
  145.5990  136.7308  152.0296 C   0  0  0  0  0  0  0  0  0  0  0  0
  146.5772  136.2924  153.0638 N   0  3  0  0  0  0  0  0  0  0  0  0
  146.6818  137.1687  154.2760 C   0  0  2  0  0  0  0  0  0  0  0  0
  146.6715  138.6823  153.9513 C   0  0  0  0  0  0  0  0  0  0  0  0
  147.9531  136.8079  155.0901 C   0  0  0  0  0  0  0  0  0  0  0  0
  147.8760  137.2257  156.4871 N   0  0  0  0  0  0  0  0  0  0  0  0
  147.6902  136.3933  157.5216 C   0  0  0  0  0  0  0  0  0  0  0  0
  147.5634  135.1750  157.3938 O   0  0  0  0  0  0  0  0  0  0  0  0
  147.6585  137.0590  158.6886 N   0  0  0  0  0  0  0  0  0  0  0  0
  147.4694  136.5171  159.9856 C   0  0  0  0  0  0  0  0  0  0  0  0
  147.2856  135.1216  160.1738 C   0  0  0  0  0  0  0  0  0  0  0  0
  147.1447  135.0098  161.5285 C   0  0  0  0  0  0  0  0  0  0  0  0
  146.9221  133.8469  162.4335 C   0  0  0  0  0  0  0  0  0  0  0  0
  147.2348  136.2333  162.1166 O   0  0  0  0  0  0  0  0  0  0  0  0
  147.4432  137.1960  161.1219 N   0  0  0  0  0  0  0  0  0  0  0  0
  146.3118  134.8694  153.4126 C   0  0  0  0  0  0  0  0  0  0  0  0
  146.3291  133.9738  152.1571 C   0  0  0  0  0  0  0  0  0  0  0  0
  142.3771  132.7094  151.3057 H   0  0  0  0  0  0  0  0  0  0  0  0
  143.9266  132.0111  151.7360 H   0  0  0  0  0  0  0  0  0  0  0  0
  143.6413  132.5817  150.0894 H   0  0  0  0  0  0  0  0  0  0  0  0
  143.3367  134.9230  150.9949 H   0  0  0  0  0  0  0  0  0  0  0  0
  143.7773  134.3714  152.5908 H   0  0  0  0  0  0  0  0  0  0  0  0
  146.6112  135.8409  150.3321 H   0  0  0  0  0  0  0  0  0  0  0  0
  144.9145  136.1324  150.0507 H   0  0  0  0  0  0  0  0  0  0  0  0
  145.8493  137.7276  151.6681 H   0  0  0  0  0  0  0  0  0  0  0  0
  144.5978  136.7891  152.4588 H   0  0  0  0  0  0  0  0  0  0  0  0
  145.8009  136.9769  154.8906 H   0  0  0  0  0  0  0  0  0  0  0  0
  146.7749  139.2883  154.8512 H   0  0  0  0  0  0  0  0  0  0  0  0
  145.7338  138.9967  153.4929 H   0  0  0  0  0  0  0  0  0  0  0  0
  147.4884  138.9527  153.2815 H   0  0  0  0  0  0  0  0  0  0  0  0
  148.1630  135.7390  155.0716 H   0  0  0  0  0  0  0  0  0  0  0  0
  148.8234  137.2912  154.6451 H   0  0  0  0  0  0  0  0  0  0  0  0
  147.9723  138.2126  156.6772 H   0  0  0  0  0  0  0  0  0  0  0  0
  147.7787  138.0600  158.6461 H   0  0  0  0  0  0  0  0  0  0  0  0
  147.2611  134.3302  159.4396 H   0  0  0  0  0  0  0  0  0  0  0  0
  146.7824  132.9291  161.8622 H   0  0  0  0  0  0  0  0  0  0  0  0
  146.0355  134.0000  163.0490 H   0  0  0  0  0  0  0  0  0  0  0  0
  147.7751  133.7054  163.0973 H   0  0  0  0  0  0  0  0  0  0  0  0
  147.0684  134.4943  154.0988 H   0  0  0  0  0  0  0  0  0  0  0  0
  145.3603  134.7840  153.9386 H   0  0  0  0  0  0  0  0  0  0  0  0
  146.1639  132.9327  152.4320 H   0  0  0  0  0  0  0  0  0  0  0  0
  147.3206  134.0071  151.7034 H   0  0  0  0  0  0  0  0  0  0  0  0
  147.4806  136.3217  152.6137 H   0  0  0  0  0  0  0  0  0  0  0  0
  1  2  1  0  0  0  0
  1 22  1  0  0  0  0
  1 23  1  0  0  0  0
  1 24  1  0  0  0  0
  2  3  1  0  0  0  0
  2 25  1  0  0  0  0
  2 26  1  0  0  0  0
  3 21  1  0  0  0  0
  3  4  1  0  0  0  0
  4  5  1  0  0  0  0
  4 27  1  0  0  0  0
  4 28  1  0  0  0  0
  5  6  1  0  0  0  0
  5 29  1  0  0  0  0
  5 30  1  0  0  0  0
  6  7  1  0  0  0  0
  6 20  1  0  0  0  0
  6 47  1  0  0  0  0
  7  8  1  0  0  0  0
  7  9  1  0  0  0  0
  7 31  1  0  0  0  0
  8 32  1  0  0  0  0
  8 33  1  0  0  0  0
  8 34  1  0  0  0  0
  9 10  1  0  0  0  0
  9 35  1  0  0  0  0
  9 36  1  0  0  0  0
 10 11  1  0  0  0  0
 10 37  1  0  0  0  0
 11 12  2  0  0  0  0
 11 13  1  0  0  0  0
 13 14  1  0  0  0  0
 13 38  1  0  0  0  0
 14 19  2  0  0  0  0
 14 15  1  0  0  0  0
 15 16  2  0  0  0  0
 15 39  1  0  0  0  0
 16 17  1  0  0  0  0
 16 18  1  0  0  0  0
 17 40  1  0  0  0  0
 17 41  1  0  0  0  0
 17 42  1  0  0  0  0
 18 19  1  0  0  0  0
 20 21  1  0  0  0  0
 20 43  1  0  0  0  0
 20 44  1  0  0  0  0
 21 45  1  0  0  0  0
 21 46  1  0  0  0  0
M  CHG  1   6   1
M  END
> <s_m_source_file>
AV-unprocessed.smi

> <i_m_source_file_index>
1586

> <i_lp_mmshare_version>
43012

> <i_f3d_flags>
0

> <s_epik_input>
W0NIM11bQ0gyXU4xW0NIMl1bQ0gyXU4oW0NIMl1bQ0gyXTEpW0NASF0oW0NIM10pW0NIMl1bTkhdQyg9TylbTkhdYzJbY0hdYyhbQ0gzXSlvbjI=

> <s_epik_cmdline>
J2VwaWtfcHl0aG9uJywgJy1waCcsICc3LjAnLCAnLXRuJywgJzgnLCAnLW1hJywgJzIwMCcsICctbWV0YWxfYmluZGluZycsICctaW1hZScsICc8aW5maWxlLm1hZT4nLCAnLW9tYWUnLCAnPG91dGZpbGUubWFlPic=

> <r_epik_Ionization_Penalty>
0.153363

> <r_epik_Ionization_Penalty_Charging>
0.151842

> <r_epik_Ionization_Penalty_Neutral>
0.00152029

> <r_epik_State_Penalty>
0.985235

> <r_epik_Charging_Adjusted_Penalty>
1.13708

> <i_epik_Tot_Q>
1

> <i_epik_Tot_abs_Q>
1

> <r_epik_Metal_State_Penalty>
0.996168

> <b_epik_Metal_Only>
0

> <s_lp_Force_Field>
OPLS_2005

> <r_lp_Energy>
18.9403

> <b_lp_Chiralities_Consistent>
1

> <s_lp_Variant>
AV-unprocessed.smi:1586-3

> <Gold.Version>
5.8.1

> <Gold.Id.Protein>
6NUR|6NUR_protein|mol2

> <Gold.PLP.Fitness>
39.0112

> <Gold.PLP.PLP>
-28.9354

> <Gold.PLP.part.hbond>
-3.0000

> <Gold.PLP.part.metal>
0.0000

> <Gold.PLP.part.buried>
-5.3846

> <Gold.PLP.part.nonpolar>
-20.7438

> <Gold.PLP.part.repulsive>
0.2588

> <Gold.PLP.ligand.clash>
0.0000

> <Gold.PLP.ligand.torsion>
0.7933

> <Gold.PLP.Chemscore.Hbond>
3.8400

> <Gold.PLP.Chemscore.CHOScore>
0.0000

> <Gold.PLP.Chemscore.Metal>
0.0000

> <Gold.Chemscore.Hbonds>
donor molecule, donor type, donor heavy atom, donor atom, acceptor molecule, acceptor atom, score
      L1  H     6    47       P1  7948  2.00
      P1  H  6931  6943       L1    19  0.80
      P1  H  6934  6947       L1    19  1.00

> <Gold.PLP.Chemscore.Internal.Correction>
0.1424

> <Gold.Rescore>
     Score         DG    S(hbond)    S(metal)    S(lipo)     H(rot)  DE(clash)    DE(int)     intcor
     13.46     -15.59       2.36        0.00      57.68       1.76       0.01       2.12       ----

> <Gold.Chemscore.Fitness>
13.4560

> <Gold.Chemscore.DG>
-15.5899

> <Gold.Chemscore.ZeroCoef>
-5.4800

> <Gold.Chemscore.Hbond>
2.3580

> <Gold.Chemscore.Metal>
0.0000

> <Gold.Chemscore.Lipo>
57.6847

> <Gold.Chemscore.Internal_Hbond>
0.0000

> <Gold.Chemscore.DEClash>
0.0135

> <Gold.Chemscore.DEInternal>
2.1204

> <Gold.Chemscore.Rot>
1.7637

> <Gold.Chemscore.Internal.Correction>
   9.000000E+99

> <Gold.Chemscore.Hbonds>
donor molecule, donor type, donor heavy atom, donor atom, acceptor molecule, acceptor atom, score
      L1  H     6    47       P1  7948  1.00
      P1  H  6931  6943       L1    19  0.26
      P1  H  6934  6947       L1    19  0.86

> <Gold.Chemscore.Hbond.Weighted>
-7.8758

> <Gold.Chemscore.Metal.Weighted>
-0.0000

> <Gold.Chemscore.Lipo.Weighted>
-6.7491

> <Gold.Chemscore.Internal_Hbond.Weighted>
0.0000

> <Gold.Chemscore.DEClash.Weighted>
0.0135

> <Gold.Chemscore.DEInternal.Weighted>
2.1204

> <Gold.Chemscore.Rot.Weighted>
4.5150

> <Gold.Chemscore.Internal.Correction.Weighted>
   9.000000E+99

> <Gold.Protein.RotatedTorsions>
[ 6907 6896 6895 6894 ] final  104.23 input  -60.11 | X-H torsion
[ 7974 7965 7964 7962 ] final -156.87 input  175.53 | X-H torsion
[ 8008 7997 7996 7995 ] final  119.24 input   59.86 | X-H torsion
[ 10167 10162 10161 10158 ] final -108.80 input  -65.29 | X-H torsion
[ 10718 10713 10712 10709 ] final -171.23 input   66.30 | X-H torsion
[ 10763 10752 10751 10750 ] final  139.02 input  -60.55 | X-H torsion
[ 11005 11000 10999 10996 ] final  -43.67 input  -57.11 | X-H torsion

> <Gold.Protein.ActiveResidues>
 VAL166  LYS551  ARG553  GLY616  TRP617  ASP618  TYR619  PRO620  LYS621  CYS622 
 ASP623  PHE694  ASN695  SER759  ASP760  ASP761  ALA762  ILE779  LEU786  VAL792 
 PHE793  MET794  SER795  GLU796  ALA797  LYS798  CYS799  TRP800  GLU811  SER814 

> <Gold.Protein.RotatedAtoms>
  152.5271  133.9707  159.7760 H   0  0  0  0  0  0  0  0  0  0  0  0  # atno 6907 bound_to 6896
  150.9980  133.6076  159.2706 H   0  0  0  0  0  0  0  0  0  0  0  0  # atno 6908 bound_to 6896
  151.3195  135.0821  159.9354 H   0  0  0  0  0  0  0  0  0  0  0  0  # atno 6909 bound_to 6896
  144.7573  140.4048  143.6002 H   0  0  0  0  0  0  0  0  0  0  0  0  # atno 7974 bound_to 7965
  156.2586  140.2857  156.0961 H   0  0  0  0  0  0  0  0  0  0  0  0  # atno 8008 bound_to 7997
  155.1410  140.0395  157.2816 H   0  0  0  0  0  0  0  0  0  0  0  0  # atno 8009 bound_to 7997
  154.6530  140.2549  155.7199 H   0  0  0  0  0  0  0  0  0  0  0  0  # atno 8010 bound_to 7997
  140.1622  143.4111  152.1417 H   0  0  0  0  0  0  0  0  0  0  0  0  # atno 10167 bound_to 10162
  156.7378  130.9331  151.3108 H   0  0  0  0  0  0  0  0  0  0  0  0  # atno 10718 bound_to 10713
  153.8993  135.3024  155.3448 H   0  0  0  0  0  0  0  0  0  0  0  0  # atno 10763 bound_to 10752
  154.7678  135.4901  153.9592 H   0  0  0  0  0  0  0  0  0  0  0  0  # atno 10764 bound_to 10752
  153.1254  135.6792  153.9366 H   0  0  0  0  0  0  0  0  0  0  0  0  # atno 10765 bound_to 10752
  141.0400  133.6784  156.2766 H   0  0  0  0  0  0  0  0  0  0  0  0  # atno 11005 bound_to 11000
  145.6736  139.1604  143.2741 LP  0  0  0  0  0  0  0  0  0  0  0  0  # atno 17320 bound_to 7965
  146.1598  140.6804  142.9283 LP  0  0  0  0  0  0  0  0  0  0  0  0  # atno 17321 bound_to 7965
  139.5376  144.7225  151.4842 LP  0  0  0  0  0  0  0  0  0  0  0  0  # atno 17342 bound_to 10162
  140.6636  143.8447  150.6915 LP  0  0  0  0  0  0  0  0  0  0  0  0  # atno 17343 bound_to 10162
  157.6831  130.9159  150.0318 LP  0  0  0  0  0  0  0  0  0  0  0  0  # atno 17370 bound_to 10713
  156.1485  130.3642  149.9474 LP  0  0  0  0  0  0  0  0  0  0  0  0  # atno 17371 bound_to 10713
  140.6253  134.5320  157.5553 LP  0  0  0  0  0  0  0  0  0  0  0  0  # atno 17394 bound_to 11000
  139.9268  134.8040  156.1045 LP  0  0  0  0  0  0  0  0  0  0  0  0  # atno 17395 bound_to 11000

$$$$
