AV-unprocessed.smi:496|AV-procd|sdf|2722|dock8
  -GOLD-   2262023163D 1   1.00000     0.00000
 Structure written by MMmdl.
 42 44  0  0  0  0  0  0  0  0  3 V2000
  140.3414  136.1924  153.7978 C   0  0  0  0  0  0  0  0  0  0  0  0
  141.0388  134.9613  153.9064 O   0  0  0  0  0  0  0  0  0  0  0  0
  142.4517  135.0919  153.8458 C   0  0  0  0  0  0  0  0  0  0  0  0
  142.8972  135.8803  152.6022 C   0  0  0  0  0  0  0  0  0  0  0  0
  144.2487  135.4833  152.1621 N   0  0  0  0  0  0  0  0  0  0  0  0
  145.4528  136.1400  152.2121 C   0  0  0  0  0  0  0  0  0  0  0  0
  145.7518  137.5142  152.7572 C   0  0  2  0  0  0  0  0  0  0  0  0
  146.4056  138.3852  151.6761 C   0  0  0  0  0  0  0  0  0  0  0  0
  146.6311  137.4576  153.9261 N   0  5  0  0  0  0  0  0  0  0  0  0
  146.5276  138.2924  154.9995 C   0  0  0  0  0  0  0  0  0  0  0  0
  145.9685  138.1101  156.0865 O   0  0  0  0  0  0  0  0  0  0  0  0
  147.2136  139.5867  154.7753 C   0  0  0  0  0  0  0  0  0  0  0  0
  148.2880  139.8873  153.9803 C   0  0  0  0  0  0  0  0  0  0  0  0
  148.5378  141.2792  154.1335 C   0  0  0  0  0  0  0  0  0  0  0  0
  147.5980  141.7343  155.0125 C   0  0  0  0  0  0  0  0  0  0  0  0
  146.7847  140.7199  155.4126 O   0  0  0  0  0  0  0  0  0  0  0  0
  146.3815  135.3051  151.6621 N   0  3  0  0  0  0  0  0  0  0  0  0
  145.7845  134.1055  151.2802 C   0  0  0  0  0  0  0  0  0  0  0  0
  146.3260  132.9649  150.6959 C   0  0  0  0  0  0  0  0  0  0  0  0
  145.4360  131.9011  150.4420 C   0  0  0  0  0  0  0  0  0  0  0  0
  144.0676  131.9960  150.7682 C   0  0  0  0  0  0  0  0  0  0  0  0
  143.5309  133.1591  151.3586 C   0  0  0  0  0  0  0  0  0  0  0  0
  144.4168  134.2088  151.6037 C   0  0  0  0  0  0  0  0  0  0  0  0
  139.2722  136.0130  153.9095 H   0  0  0  0  0  0  0  0  0  0  0  0
  140.4964  136.6643  152.8279 H   0  0  0  0  0  0  0  0  0  0  0  0
  140.6463  136.8899  154.5789 H   0  0  0  0  0  0  0  0  0  0  0  0
  142.8402  135.5429  154.7605 H   0  0  0  0  0  0  0  0  0  0  0  0
  142.8677  134.0852  153.7992 H   0  0  0  0  0  0  0  0  0  0  0  0
  142.1974  135.7372  151.7792 H   0  0  0  0  0  0  0  0  0  0  0  0
  142.9071  136.9520  152.7971 H   0  0  0  0  0  0  0  0  0  0  0  0
  144.7992  137.9798  153.0137 H   0  0  0  0  0  0  0  0  0  0  0  0
  145.7548  138.4784  150.8062 H   0  0  0  0  0  0  0  0  0  0  0  0
  147.3535  137.9637  151.3395 H   0  0  0  0  0  0  0  0  0  0  0  0
  146.6016  139.3921  152.0467 H   0  0  0  0  0  0  0  0  0  0  0  0
  148.8294  139.1869  153.3617 H   0  0  0  0  0  0  0  0  0  0  0  0
  149.3069  141.8715  153.6603 H   0  0  0  0  0  0  0  0  0  0  0  0
  147.3750  142.7005  155.4406 H   0  0  0  0  0  0  0  0  0  0  0  0
  147.3753  132.8900  150.4509 H   0  0  0  0  0  0  0  0  0  0  0  0
  145.8112  130.9934  149.9922 H   0  0  0  0  0  0  0  0  0  0  0  0
  143.4159  131.1591  150.5631 H   0  0  0  0  0  0  0  0  0  0  0  0
  142.4819  133.2172  151.6087 H   0  0  0  0  0  0  0  0  0  0  0  0
  147.3609  135.5471  151.5828 H   0  0  0  0  0  0  0  0  0  0  0  0
  1  2  1  0  0  0  0
  1 24  1  0  0  0  0
  1 25  1  0  0  0  0
  1 26  1  0  0  0  0
  2  3  1  0  0  0  0
  3  4  1  0  0  0  0
  3 27  1  0  0  0  0
  3 28  1  0  0  0  0
  4  5  1  0  0  0  0
  4 29  1  0  0  0  0
  4 30  1  0  0  0  0
  5 23  1  0  0  0  0
  5  6  1  0  0  0  0
  6  7  1  0  0  0  0
  6 17  2  0  0  0  0
  7  8  1  0  0  0  0
  7  9  1  0  0  0  0
  7 31  1  0  0  0  0
  8 32  1  0  0  0  0
  8 33  1  0  0  0  0
  8 34  1  0  0  0  0
  9 10  1  0  0  0  0
 10 11  2  0  0  0  0
 10 12  1  0  0  0  0
 12 16  1  0  0  0  0
 12 13  2  0  0  0  0
 13 14  1  0  0  0  0
 13 35  1  0  0  0  0
 14 15  2  0  0  0  0
 14 36  1  0  0  0  0
 15 16  1  0  0  0  0
 15 37  1  0  0  0  0
 17 18  1  0  0  0  0
 17 42  1  0  0  0  0
 18 23  2  0  0  0  0
 18 19  1  0  0  0  0
 19 20  2  0  0  0  0
 19 38  1  0  0  0  0
 20 21  1  0  0  0  0
 20 39  1  0  0  0  0
 21 22  2  0  0  0  0
 21 40  1  0  0  0  0
 22 23  1  0  0  0  0
 22 41  1  0  0  0  0
M  CHG  1   9  -1
M  CHG  1  17   1
M  END
> <s_m_source_file>
AV-unprocessed.smi

> <i_m_source_file_index>
496

> <i_lp_mmshare_version>
43012

> <i_f3d_flags>
0

> <s_epik_input>
W2NIXTFbY0hdW2NIXVtjSF1jKGMxMiluKFtDSDJdW0NIMl1PW0NIM10pYyhuMilbQ0BIXShbQ0gzXSlbTkhdQyg9TyljM1tjSF1bY0hdW2NIXW8z

> <s_epik_cmdline>
J2VwaWtfcHl0aG9uJywgJy1waCcsICc3LjAnLCAnLXRuJywgJzgnLCAnLW1hJywgJzIwMCcsICctbWV0YWxfYmluZGluZycsICctaW1hZScsICc8aW5maWxlLm1hZT4nLCAnLW9tYWUnLCAnPG91dGZpbGUubWFlPic=

> <r_epik_Ionization_Penalty>
6.2189

> <r_epik_Ionization_Penalty_Charging>
6.2189

> <r_epik_Ionization_Penalty_Neutral>
2.56052e-12

> <r_epik_State_Penalty>
7.14475

> <r_epik_Charging_Adjusted_Penalty>
13.3636

> <i_epik_Tot_Q>
0

> <i_epik_Tot_abs_Q>
2

> <r_epik_Metal_State_Penalty>
3.17915

> <b_epik_Metal_Only>
1

> <s_lp_Force_Field>
OPLS_2005

> <r_lp_Energy>
11.1611

> <b_lp_Chiralities_Consistent>
1

> <s_lp_Variant>
AV-unprocessed.smi:496-7

> <Gold.Version>
5.8.1

> <Gold.Id.Protein>
6NUR|6NUR_protein|mol2

> <Gold.PLP.Fitness>
50.4323

> <Gold.PLP.PLP>
-41.9732

> <Gold.PLP.part.hbond>
-2.0443

> <Gold.PLP.part.metal>
0.0000

> <Gold.PLP.part.buried>
-6.1826

> <Gold.PLP.part.nonpolar>
-35.1549

> <Gold.PLP.part.repulsive>
0.4225

> <Gold.PLP.ligand.clash>
0.0000

> <Gold.PLP.ligand.torsion>
1.7433

> <Gold.PLP.Chemscore.Hbond>
2.9588

> <Gold.PLP.Chemscore.CHOScore>
1.0000

> <Gold.PLP.Chemscore.Metal>
0.0000

> <Gold.Chemscore.Hbonds>
donor molecule, donor type, donor heavy atom, donor atom, acceptor molecule, acceptor atom, score
      L1  H    17    42       P1  7948  2.00
      P1  H 11000 11005       L1     2  0.96
      L1  C    15    37       P1  8028  0.99

> <Gold.PLP.Chemscore.Internal.Correction>
0.0695

> <Gold.Rescore>
     Score         DG    S(hbond)    S(metal)    S(lipo)     H(rot)  DE(clash)    DE(int)     intcor
     16.29     -18.43       1.86        0.00      97.64       1.83       0.07       2.06       ----

> <Gold.Chemscore.Fitness>
16.2922

> <Gold.Chemscore.DG>
-18.4270

> <Gold.Chemscore.ZeroCoef>
-5.4800

> <Gold.Chemscore.Hbond>
1.8618

> <Gold.Chemscore.Metal>
0.0000

> <Gold.Chemscore.Lipo>
97.6443

> <Gold.Chemscore.Internal_Hbond>
0.0000

> <Gold.Chemscore.DEClash>
0.0701

> <Gold.Chemscore.DEInternal>
2.0646

> <Gold.Chemscore.Rot>
1.8343

> <Gold.Chemscore.Internal.Correction>
   9.000000E+99

> <Gold.Chemscore.Hbonds>
donor molecule, donor type, donor heavy atom, donor atom, acceptor molecule, acceptor atom, score
      L1  H    17    42       P1  7948  0.98
      P1  H 11000 11005       L1     2  0.33

> <Gold.Chemscore.Hbond.Weighted>
-6.2184

> <Gold.Chemscore.Metal.Weighted>
-0.0000

> <Gold.Chemscore.Lipo.Weighted>
-11.4244

> <Gold.Chemscore.Internal_Hbond.Weighted>
0.0000

> <Gold.Chemscore.DEClash.Weighted>
0.0701

> <Gold.Chemscore.DEInternal.Weighted>
2.0646

> <Gold.Chemscore.Rot.Weighted>
4.6958

> <Gold.Chemscore.Internal.Correction.Weighted>
   9.000000E+99

> <Gold.Protein.RotatedTorsions>
[ 6907 6896 6895 6894 ] final   53.51 input  -60.11 | X-H torsion
[ 7974 7965 7964 7962 ] final  100.37 input  175.53 | X-H torsion
[ 8008 7997 7996 7995 ] final -124.63 input   59.86 | X-H torsion
[ 10167 10162 10161 10158 ] final   -1.03 input  -65.29 | X-H torsion
[ 10718 10713 10712 10709 ] final  -69.29 input   66.30 | X-H torsion
[ 10763 10752 10751 10750 ] final   53.32 input  -60.55 | X-H torsion
[ 11005 11000 10999 10996 ] final   21.50 input  -57.11 | X-H torsion

> <Gold.Protein.ActiveResidues>
 VAL166  LYS551  ARG553  GLY616  TRP617  ASP618  TYR619  PRO620  LYS621  CYS622 
 ASP623  PHE694  ASN695  SER759  ASP760  ASP761  ALA762  ILE779  LEU786  VAL792 
 PHE793  MET794  SER795  GLU796  ALA797  LYS798  CYS799  TRP800  GLU811  SER814 

> <Gold.Protein.RotatedAtoms>
  152.3344  134.7217  160.0280 H   0  0  0  0  0  0  0  0  0  0  0  0  # atno 6907 bound_to 6896
  151.7623  133.3329  159.3429 H   0  0  0  0  0  0  0  0  0  0  0  0  # atno 6908 bound_to 6896
  150.7442  134.6027  159.6089 H   0  0  0  0  0  0  0  0  0  0  0  0  # atno 6909 bound_to 6896
  145.3865  139.2370  143.3375 H   0  0  0  0  0  0  0  0  0  0  0  0  # atno 7974 bound_to 7965
  155.2001  140.0415  157.2916 H   0  0  0  0  0  0  0  0  0  0  0  0  # atno 8008 bound_to 7997
  154.6080  140.2469  155.7677 H   0  0  0  0  0  0  0  0  0  0  0  0  # atno 8009 bound_to 7997
  156.2362  140.2920  156.0328 H   0  0  0  0  0  0  0  0  0  0  0  0  # atno 8010 bound_to 7997
  140.6793  143.6824  150.8094 H   0  0  0  0  0  0  0  0  0  0  0  0  # atno 10167 bound_to 10162
  156.0463  130.4310  150.2125 H   0  0  0  0  0  0  0  0  0  0  0  0  # atno 10718 bound_to 10713
  152.9794  135.5783  154.4723 H   0  0  0  0  0  0  0  0  0  0  0  0  # atno 10763 bound_to 10752
  154.4283  135.2773  155.1931 H   0  0  0  0  0  0  0  0  0  0  0  0  # atno 10764 bound_to 10752
  154.3650  135.6180  153.5764 H   0  0  0  0  0  0  0  0  0  0  0  0  # atno 10765 bound_to 10752
  140.3909  134.1820  155.7662 H   0  0  0  0  0  0  0  0  0  0  0  0  # atno 11005 bound_to 11000
  146.2818  140.4541  142.8773 LP  0  0  0  0  0  0  0  0  0  0  0  0  # atno 17320 bound_to 7965
  144.8470  140.6945  143.6192 LP  0  0  0  0  0  0  0  0  0  0  0  0  # atno 17321 bound_to 7965
  140.0522  143.5238  152.2668 LP  0  0  0  0  0  0  0  0  0  0  0  0  # atno 17342 bound_to 10162
  139.6104  144.7607  151.2964 LP  0  0  0  0  0  0  0  0  0  0  0  0  # atno 17343 bound_to 10162
  157.0214  130.9980  151.3338 LP  0  0  0  0  0  0  0  0  0  0  0  0  # atno 17370 bound_to 10713
  157.5341  130.8077  149.7951 LP  0  0  0  0  0  0  0  0  0  0  0  0  # atno 17371 bound_to 10713
  141.1891  133.8245  157.0969 LP  0  0  0  0  0  0  0  0  0  0  0  0  # atno 17394 bound_to 11000
  140.0407  134.9855  157.0957 LP  0  0  0  0  0  0  0  0  0  0  0  0  # atno 17395 bound_to 11000

$$$$
