AV-unprocessed.smi:1007|AV-procd|sdf|4403|dock5
  -GOLD-   22720 2343D 1   1.00000     0.00000
 Structure written by MMmdl.
 57 59  0  0  0  0  0  0  0  0  3 V2000
  147.8015  133.2118  152.8273 C   0  0  0  0  0  0  0  0  0  0  0  0
  146.4123  133.1922  152.5387 O   0  0  0  0  0  0  0  0  0  0  0  0
  145.9147  134.4128  152.0097 C   0  0  0  0  0  0  0  0  0  0  0  0
  145.8091  135.4952  153.1008 C   0  0  0  0  0  0  0  0  0  0  0  0
  144.8455  136.5628  152.8160 N   0  0  0  0  0  0  0  0  0  0  0  0
  144.6015  137.4300  153.9680 C   0  0  0  0  0  0  0  0  0  0  0  0
  145.7882  138.3605  154.2949 C   0  0  0  0  0  0  0  0  0  0  0  0
  146.1427  139.1888  153.1131 N   0  3  0  0  0  0  0  0  0  0  0  0
  147.2378  140.1496  153.4062 C   0  0  0  0  0  0  0  0  0  0  0  0
  148.4180  139.5058  154.1613 C   0  0  1  0  0  0  0  0  0  0  0  0
  149.0764  138.5949  153.3016 O   0  0  0  0  0  0  0  0  0  0  0  0
  149.4320  140.5587  154.6512 C   0  0  0  0  0  0  0  0  0  0  0  0
  150.4289  139.9990  155.5736 N   0  0  0  0  0  0  0  0  0  0  0  0
  151.1760  138.8653  155.4768 C   0  0  0  0  0  0  0  0  0  0  0  0
  151.9448  138.7834  156.5981 N   0  3  0  0  0  0  0  0  0  0  0  0
  151.6878  139.8822  157.4211 C   0  0  0  0  0  0  0  0  0  0  0  0
  152.2147  140.2390  158.6566 C   0  0  0  0  0  0  0  0  0  0  0  0
  151.7397  141.4357  159.2395 C   0  0  0  0  0  0  0  0  0  0  0  0
  152.2930  141.8534  160.5914 C   0  0  0  0  0  0  0  0  0  0  0  0
  150.7667  142.2324  158.5816 C   0  0  0  0  0  0  0  0  0  0  0  0
  150.2656  143.5187  159.2163 C   0  0  0  0  0  0  0  0  0  0  0  0
  150.2411  141.8509  157.3264 C   0  0  0  0  0  0  0  0  0  0  0  0
  150.7193  140.6683  156.7674 C   0  0  0  0  0  0  0  0  0  0  0  0
  146.3995  138.3264  151.9280 C   0  0  0  0  0  0  0  0  0  0  0  0
  145.1923  137.4029  151.6674 C   0  0  0  0  0  0  0  0  0  0  0  0
  148.1097  132.2330  153.1947 H   0  0  0  0  0  0  0  0  0  0  0  0
  148.0471  133.9451  153.5950 H   0  0  0  0  0  0  0  0  0  0  0  0
  148.3870  133.4309  151.9333 H   0  0  0  0  0  0  0  0  0  0  0  0
  146.5290  134.7366  151.1691 H   0  0  0  0  0  0  0  0  0  0  0  0
  144.9205  134.2119  151.6098 H   0  0  0  0  0  0  0  0  0  0  0  0
  145.5085  134.9960  154.0228 H   0  0  0  0  0  0  0  0  0  0  0  0
  146.7928  135.9162  153.3009 H   0  0  0  0  0  0  0  0  0  0  0  0
  143.7193  138.0407  153.7710 H   0  0  0  0  0  0  0  0  0  0  0  0
  144.3530  136.8253  154.8410 H   0  0  0  0  0  0  0  0  0  0  0  0
  145.5120  139.0113  155.1254 H   0  0  0  0  0  0  0  0  0  0  0  0
  146.6561  137.7864  154.6220 H   0  0  0  0  0  0  0  0  0  0  0  0
  147.6124  140.5710  152.4720 H   0  0  0  0  0  0  0  0  0  0  0  0
  146.8330  140.9873  153.9765 H   0  0  0  0  0  0  0  0  0  0  0  0
  148.0549  138.9509  155.0250 H   0  0  0  0  0  0  0  0  0  0  0  0
  149.6132  139.0827  152.6951 H   0  0  0  0  0  0  0  0  0  0  0  0
  149.9708  140.9927  153.8077 H   0  0  0  0  0  0  0  0  0  0  0  0
  148.9270  141.3850  155.1533 H   0  0  0  0  0  0  0  0  0  0  0  0
  151.1591  138.1554  154.6624 H   0  0  0  0  0  0  0  0  0  0  0  0
  152.9555  139.6281  159.1517 H   0  0  0  0  0  0  0  0  0  0  0  0
  151.4940  141.9081  161.3310 H   0  0  0  0  0  0  0  0  0  0  0  0
  152.7722  142.8303  160.5249 H   0  0  0  0  0  0  0  0  0  0  0  0
  153.0359  141.1430  160.9556 H   0  0  0  0  0  0  0  0  0  0  0  0
  149.5361  144.0205  158.5797 H   0  0  0  0  0  0  0  0  0  0  0  0
  151.0911  144.2110  159.3842 H   0  0  0  0  0  0  0  0  0  0  0  0
  149.7861  143.3118  160.1733 H   0  0  0  0  0  0  0  0  0  0  0  0
  149.5002  142.4566  156.8266 H   0  0  0  0  0  0  0  0  0  0  0  0
  146.5627  138.9379  151.0420 H   0  0  0  0  0  0  0  0  0  0  0  0
  147.3104  137.7453  152.0766 H   0  0  0  0  0  0  0  0  0  0  0  0
  145.3752  136.7895  150.7860 H   0  0  0  0  0  0  0  0  0  0  0  0
  144.3306  138.0214  151.4124 H   0  0  0  0  0  0  0  0  0  0  0  0
  145.3237  139.7416  152.9019 H   0  0  0  0  0  0  0  0  0  0  0  0
  152.5957  138.0313  156.7856 H   0  0  0  0  0  0  0  0  0  0  0  0
  1  2  1  0  0  0  0
  1 26  1  0  0  0  0
  1 27  1  0  0  0  0
  1 28  1  0  0  0  0
  2  3  1  0  0  0  0
  3  4  1  0  0  0  0
  3 29  1  0  0  0  0
  3 30  1  0  0  0  0
  4  5  1  0  0  0  0
  4 31  1  0  0  0  0
  4 32  1  0  0  0  0
  5 25  1  0  0  0  0
  5  6  1  0  0  0  0
  6  7  1  0  0  0  0
  6 33  1  0  0  0  0
  6 34  1  0  0  0  0
  7  8  1  0  0  0  0
  7 35  1  0  0  0  0
  7 36  1  0  0  0  0
  8  9  1  0  0  0  0
  8 24  1  0  0  0  0
  8 56  1  0  0  0  0
  9 10  1  0  0  0  0
  9 37  1  0  0  0  0
  9 38  1  0  0  0  0
 10 11  1  0  0  0  0
 10 12  1  0  0  0  0
 10 39  1  0  0  0  0
 11 40  1  0  0  0  0
 12 13  1  0  0  0  0
 12 41  1  0  0  0  0
 12 42  1  0  0  0  0
 13 23  1  0  0  0  0
 13 14  1  0  0  0  0
 14 15  2  0  0  0  0
 14 43  1  0  0  0  0
 15 16  1  0  0  0  0
 15 57  1  0  0  0  0
 16 23  2  0  0  0  0
 16 17  1  0  0  0  0
 17 18  2  0  0  0  0
 17 44  1  0  0  0  0
 18 19  1  0  0  0  0
 18 20  1  0  0  0  0
 19 45  1  0  0  0  0
 19 46  1  0  0  0  0
 19 47  1  0  0  0  0
 20 21  1  0  0  0  0
 20 22  2  0  0  0  0
 21 48  1  0  0  0  0
 21 49  1  0  0  0  0
 21 50  1  0  0  0  0
 22 23  1  0  0  0  0
 22 51  1  0  0  0  0
 24 25  1  0  0  0  0
 24 52  1  0  0  0  0
 24 53  1  0  0  0  0
 25 54  1  0  0  0  0
 25 55  1  0  0  0  0
M  CHG  1   8   1
M  CHG  1  15   1
M  END
> <s_m_source_file>
AV-unprocessed.smi

> <i_m_source_file_index>
1007

> <i_lp_mmshare_version>
43012

> <i_f3d_flags>
0

> <s_epik_input>
W0NIM11PW0NIMl1bQ0gyXU4xW0NIMl1bQ0gyXU4oW0NIMl1bQ0gyXTEpW0NIMl1bQ0BIXShbT0hdKVtDSDJdbihbY0hdbjIpYyhjMjMpW2NIXWMoW0NIM10pYyhbY0hdMylbQ0gzXQ==

> <s_epik_cmdline>
J2VwaWtfcHl0aG9uJywgJy1waCcsICc3LjAnLCAnLXRuJywgJzgnLCAnLW1hJywgJzIwMCcsICctbWV0YWxfYmluZGluZycsICctaW1hZScsICc8aW5maWxlLm1hZT4nLCAnLW9tYWUnLCAnPG91dGZpbGUubWFlPic=

> <r_epik_Ionization_Penalty>
1.19231

> <r_epik_Ionization_Penalty_Charging>
1.17974

> <r_epik_Ionization_Penalty_Neutral>
0.0125676

> <r_epik_State_Penalty>
1.24499

> <r_epik_Charging_Adjusted_Penalty>
2.42472

> <i_epik_Tot_Q>
2

> <i_epik_Tot_abs_Q>
2

> <r_epik_Metal_State_Penalty>
5.24866

> <b_epik_Metal_Only>
0

> <s_lp_Force_Field>
OPLS_2005

> <r_lp_Energy>
41.9182

> <b_lp_Chiralities_Consistent>
1

> <s_lp_Variant>
AV-unprocessed.smi:1007-6

> <Gold.Version>
5.8.1

> <Gold.Id.Protein>
6NUR|6NUR_protein|mol2

> <Gold.PLP.Fitness>
50.8023

> <Gold.PLP.PLP>
-42.7849

> <Gold.PLP.part.hbond>
-2.8647

> <Gold.PLP.part.metal>
0.0000

> <Gold.PLP.part.buried>
0.2839

> <Gold.PLP.part.nonpolar>
-40.0551

> <Gold.PLP.part.repulsive>
0.3816

> <Gold.PLP.ligand.clash>
0.0000

> <Gold.PLP.ligand.torsion>
0.5808

> <Gold.PLP.Chemscore.Hbond>
3.0000

> <Gold.PLP.Chemscore.CHOScore>
0.0000

> <Gold.PLP.Chemscore.Metal>
0.0000

> <Gold.Chemscore.Hbonds>
donor molecule, donor type, donor heavy atom, donor atom, acceptor molecule, acceptor atom, score
      L1  H     8    56       P1 10175  2.00
      L1  H    11    40       P1  7957  0.90

> <Gold.PLP.Chemscore.Internal.Correction>
0.1791

> <Gold.Rescore>
     Score         DG    S(hbond)    S(metal)    S(lipo)     H(rot)  DE(clash)    DE(int)     intcor
     17.14     -18.30       1.90        0.00     113.22       2.64       0.33       0.83       ----

> <Gold.Chemscore.Fitness>
17.1364

> <Gold.Chemscore.DG>
-18.2992

> <Gold.Chemscore.ZeroCoef>
-5.4800

> <Gold.Chemscore.Hbond>
1.8978

> <Gold.Chemscore.Metal>
0.0000

> <Gold.Chemscore.Lipo>
113.2234

> <Gold.Chemscore.Internal_Hbond>
0.0000

> <Gold.Chemscore.DEClash>
0.3336

> <Gold.Chemscore.DEInternal>
0.8292

> <Gold.Chemscore.Rot>
2.6432

> <Gold.Chemscore.Internal.Correction>
   9.000000E+99

> <Gold.Chemscore.Hbonds>
donor molecule, donor type, donor heavy atom, donor atom, acceptor molecule, acceptor atom, score
      L1  H     8    56       P1 10175  1.00
      L1  H    11    40       P1  7957  0.84

> <Gold.Chemscore.Hbond.Weighted>
-6.3386

> <Gold.Chemscore.Metal.Weighted>
-0.0000

> <Gold.Chemscore.Lipo.Weighted>
-13.2471

> <Gold.Chemscore.Internal_Hbond.Weighted>
0.0000

> <Gold.Chemscore.DEClash.Weighted>
0.3336

> <Gold.Chemscore.DEInternal.Weighted>
0.8292

> <Gold.Chemscore.Rot.Weighted>
6.7665

> <Gold.Chemscore.Internal.Correction.Weighted>
   9.000000E+99

> <Gold.Protein.RotatedTorsions>
[ 6907 6896 6895 6894 ] final  170.10 input  -60.11 | X-H torsion
[ 7974 7965 7964 7962 ] final -105.11 input  175.53 | X-H torsion
[ 8008 7997 7996 7995 ] final  -78.74 input   59.86 | X-H torsion
[ 10167 10162 10161 10158 ] final  100.68 input  -65.29 | X-H torsion
[ 10718 10713 10712 10709 ] final  169.27 input   66.30 | X-H torsion
[ 10763 10752 10751 10750 ] final  138.27 input  -60.55 | X-H torsion
[ 11005 11000 10999 10996 ] final    5.38 input  -57.11 | X-H torsion

> <Gold.Protein.ActiveResidues>
 VAL166  LYS551  ARG553  GLY616  TRP617  ASP618  TYR619  PRO620  LYS621  CYS622 
 ASP623  PHE694  ASN695  SER759  ASP760  ASP761  ALA762  ILE779  LEU786  VAL792 
 PHE793  MET794  SER795  GLU796  ALA797  LYS798  CYS799  TRP800  GLU811  SER814 

> <Gold.Protein.RotatedAtoms>
  151.8215  133.3395  159.3585 H   0  0  0  0  0  0  0  0  0  0  0  0  # atno 6907 bound_to 6896
  150.7293  134.5569  159.5832 H   0  0  0  0  0  0  0  0  0  0  0  0  # atno 6908 bound_to 6896
  152.3003  134.7620  160.0410 H   0  0  0  0  0  0  0  0  0  0  0  0  # atno 6909 bound_to 6896
  145.2346  140.9183  143.3185 H   0  0  0  0  0  0  0  0  0  0  0  0  # atno 7974 bound_to 7965
  154.5718  140.0689  156.8976 H   0  0  0  0  0  0  0  0  0  0  0  0  # atno 8008 bound_to 7997
  155.2620  140.3359  155.4254 H   0  0  0  0  0  0  0  0  0  0  0  0  # atno 8009 bound_to 7997
  156.2124  140.1764  156.7650 H   0  0  0  0  0  0  0  0  0  0  0  0  # atno 8010 bound_to 7997
  139.7505  144.6985  151.0439 H   0  0  0  0  0  0  0  0  0  0  0  0  # atno 10167 bound_to 10162
  157.0251  131.0243  151.2762 H   0  0  0  0  0  0  0  0  0  0  0  0  # atno 10718 bound_to 10713
  153.8869  135.3037  155.3446 H   0  0  0  0  0  0  0  0  0  0  0  0  # atno 10763 bound_to 10752
  154.7735  135.4873  153.9700 H   0  0  0  0  0  0  0  0  0  0  0  0  # atno 10764 bound_to 10752
  153.1320  135.6806  153.9261 H   0  0  0  0  0  0  0  0  0  0  0  0  # atno 10765 bound_to 10752
  140.5713  134.0099  155.8010 H   0  0  0  0  0  0  0  0  0  0  0  0  # atno 11005 bound_to 11000
  144.9645  139.3945  143.6339 LP  0  0  0  0  0  0  0  0  0  0  0  0  # atno 17320 bound_to 7965
  146.3344  139.8713  142.8839 LP  0  0  0  0  0  0  0  0  0  0  0  0  # atno 17321 bound_to 7965
  140.7797  143.4814  151.0013 LP  0  0  0  0  0  0  0  0  0  0  0  0  # atno 17342 bound_to 10162
  139.8502  143.7448  152.3178 LP  0  0  0  0  0  0  0  0  0  0  0  0  # atno 17343 bound_to 10162
  157.5220  130.8004  149.7820 LP  0  0  0  0  0  0  0  0  0  0  0  0  # atno 17370 bound_to 10713
  156.0089  130.3842  150.2334 LP  0  0  0  0  0  0  0  0  0  0  0  0  # atno 17371 bound_to 10713
  141.1054  133.9702  157.3006 LP  0  0  0  0  0  0  0  0  0  0  0  0  # atno 17394 bound_to 11000
  139.9360  135.0196  156.8557 LP  0  0  0  0  0  0  0  0  0  0  0  0  # atno 17395 bound_to 11000

$$$$
