AV-unprocessed.smi:671|AV-procd|sdf|3283|dock2
  -GOLD-   22720 0243D 1   1.00000     0.00000
 Structure written by MMmdl.
 50 51  0  0  0  0  0  0  0  0  2 V2000
  147.5363  141.7380  153.9777 C   0  0  0  0  0  0  0  0  0  0  0  0
  148.7726  141.4244  154.7524 C   0  0  0  0  0  0  0  0  0  0  0  0
  149.4189  142.3112  155.5554 N   0  3  0  0  0  0  0  0  0  0  0  0
  150.4950  141.7352  156.1095 N   0  0  0  0  0  0  0  0  0  0  0  0
  151.3374  142.5221  157.0105 C   0  0  0  0  0  0  0  0  0  0  0  0
  150.6066  140.4425  155.6917 C   0  0  0  0  0  0  0  0  0  0  0  0
  151.6981  139.5142  156.1169 C   0  0  0  0  0  0  0  0  0  0  0  0
  149.5158  140.2408  154.8343 C   0  0  0  0  0  0  0  0  0  0  0  0
  149.1827  138.9668  154.1075 C   0  0  0  0  0  0  0  0  0  0  0  0
  147.8233  138.3680  154.5185 C   0  0  2  0  0  0  0  0  0  0  0  0
  147.7515  137.9990  156.0113 C   0  0  0  0  0  0  0  0  0  0  0  0
  147.5600  137.1828  153.6990 N   0  0  0  0  0  0  0  0  0  0  0  0
  146.4522  136.4200  153.6636 C   0  0  0  0  0  0  0  0  0  0  0  0
  145.4756  136.6666  154.3678 O   0  0  0  0  0  0  0  0  0  0  0  0
  146.5100  135.3907  152.8017 N   0  0  0  0  0  0  0  0  0  0  0  0
  145.4770  134.3760  152.5963 C   0  0  1  0  0  0  0  0  0  0  0  0
  144.6732  134.6874  151.3166 C   0  0  0  0  0  0  0  0  0  0  0  0
  144.7998  133.4590  150.4104 C   0  0  0  0  0  0  0  0  0  0  0  0
  146.0760  132.7608  150.8713 C   0  0  0  0  0  0  0  0  0  0  0  0
  146.0777  132.9656  152.3871 C   0  0  1  0  0  0  0  0  0  0  0  0
  147.4398  132.6862  153.0478 C   0  0  0  0  0  0  0  0  0  0  0  0
  146.7924  140.9533  154.1132 H   0  0  0  0  0  0  0  0  0  0  0  0
  147.7697  141.8163  152.9158 H   0  0  0  0  0  0  0  0  0  0  0  0
  147.1039  142.6824  154.3093 H   0  0  0  0  0  0  0  0  0  0  0  0
  151.6446  141.9000  157.8514 H   0  0  0  0  0  0  0  0  0  0  0  0
  150.7832  143.3835  157.3857 H   0  0  0  0  0  0  0  0  0  0  0  0
  152.2189  142.8621  156.4662 H   0  0  0  0  0  0  0  0  0  0  0  0
  151.5547  138.5188  155.6989 H   0  0  0  0  0  0  0  0  0  0  0  0
  151.7151  139.4276  157.2032 H   0  0  0  0  0  0  0  0  0  0  0  0
  152.6640  139.8931  155.7827 H   0  0  0  0  0  0  0  0  0  0  0  0
  149.1720  139.1631  153.0343 H   0  0  0  0  0  0  0  0  0  0  0  0
  149.9698  138.2262  154.2513 H   0  0  0  0  0  0  0  0  0  0  0  0
  147.0640  139.1241  154.3146 H   0  0  0  0  0  0  0  0  0  0  0  0
  147.8856  138.8746  156.6465 H   0  0  0  0  0  0  0  0  0  0  0  0
  148.5194  137.2721  156.2777 H   0  0  0  0  0  0  0  0  0  0  0  0
  146.7837  137.5650  156.2650 H   0  0  0  0  0  0  0  0  0  0  0  0
  148.2895  136.9340  153.0463 H   0  0  0  0  0  0  0  0  0  0  0  0
  147.3538  135.2847  152.2582 H   0  0  0  0  0  0  0  0  0  0  0  0
  144.7994  134.3465  153.4514 H   0  0  0  0  0  0  0  0  0  0  0  0
  143.6286  134.9074  151.5395 H   0  0  0  0  0  0  0  0  0  0  0  0
  145.0779  135.5612  150.8031 H   0  0  0  0  0  0  0  0  0  0  0  0
  143.9463  132.7988  150.5699 H   0  0  0  0  0  0  0  0  0  0  0  0
  144.8231  133.7192  149.3518 H   0  0  0  0  0  0  0  0  0  0  0  0
  146.1002  131.7075  150.5900 H   0  0  0  0  0  0  0  0  0  0  0  0
  146.9440  133.2472  150.4239 H   0  0  0  0  0  0  0  0  0  0  0  0
  145.3637  132.2533  152.8041 H   0  0  0  0  0  0  0  0  0  0  0  0
  148.2298  133.3130  152.6329 H   0  0  0  0  0  0  0  0  0  0  0  0
  147.7351  131.6474  152.8986 H   0  0  0  0  0  0  0  0  0  0  0  0
  147.3971  132.8655  154.1224 H   0  0  0  0  0  0  0  0  0  0  0  0
  149.1821  143.2756  155.7516 H   0  0  0  0  0  0  0  0  0  0  0  0
  1  2  1  0  0  0  0
  1 22  1  0  0  0  0
  1 23  1  0  0  0  0
  1 24  1  0  0  0  0
  2  8  1  0  0  0  0
  2  3  2  0  0  0  0
  3  4  1  0  0  0  0
  3 50  1  0  0  0  0
  4  5  1  0  0  0  0
  4  6  1  0  0  0  0
  5 25  1  0  0  0  0
  5 26  1  0  0  0  0
  5 27  1  0  0  0  0
  6  7  1  0  0  0  0
  6  8  2  0  0  0  0
  7 28  1  0  0  0  0
  7 29  1  0  0  0  0
  7 30  1  0  0  0  0
  8  9  1  0  0  0  0
  9 10  1  0  0  0  0
  9 31  1  0  0  0  0
  9 32  1  0  0  0  0
 10 11  1  0  0  0  0
 10 12  1  0  0  0  0
 10 33  1  0  0  0  0
 11 34  1  0  0  0  0
 11 35  1  0  0  0  0
 11 36  1  0  0  0  0
 12 13  1  0  0  0  0
 12 37  1  0  0  0  0
 13 14  2  0  0  0  0
 13 15  1  0  0  0  0
 15 16  1  0  0  0  0
 15 38  1  0  0  0  0
 16 20  1  0  0  0  0
 16 17  1  0  0  0  0
 16 39  1  0  0  0  0
 17 18  1  0  0  0  0
 17 40  1  0  0  0  0
 17 41  1  0  0  0  0
 18 19  1  0  0  0  0
 18 42  1  0  0  0  0
 18 43  1  0  0  0  0
 19 20  1  0  0  0  0
 19 44  1  0  0  0  0
 19 45  1  0  0  0  0
 20 21  1  0  0  0  0
 20 46  1  0  0  0  0
 21 47  1  0  0  0  0
 21 48  1  0  0  0  0
 21 49  1  0  0  0  0
M  CHG  1   3   1
M  END
> <s_m_source_file>
AV-unprocessed.smi

> <i_m_source_file_index>
671

> <i_lp_mmshare_version>
43012

> <i_f3d_flags>
0

> <s_epik_input>
W0NIM11jMW5uKFtDSDNdKWMoW0NIM10pYzFbQ0gyXVtDQEhdKFtDSDNdKVtOSF1DKD1PKVtOSF1bQ0BASF0yW0NIMl1bQ0gyXVtDSDJdW0NASF0yW0NIM10=

> <s_epik_cmdline>
J2VwaWtfcHl0aG9uJywgJy1waCcsICc3LjAnLCAnLXRuJywgJzgnLCAnLW1hJywgJzIwMCcsICctbWV0YWxfYmluZGluZycsICctaW1hZScsICc8aW5maWxlLm1hZT4nLCAnLW9tYWUnLCAnPG91dGZpbGUubWFlPic=

> <r_lp_tautomer_probability>
1

> <r_epik_Ionization_Penalty>
2.28705

> <r_epik_Ionization_Penalty_Charging>
2.28698

> <r_epik_Ionization_Penalty_Neutral>
6.23157e-05

> <r_epik_State_Penalty>
2.43671

> <r_epik_Charging_Adjusted_Penalty>
4.72369

> <i_epik_Tot_Q>
1

> <i_epik_Tot_abs_Q>
1

> <r_epik_Metal_State_Penalty>
2.44911

> <b_epik_Metal_Only>
0

> <s_lp_Force_Field>
OPLS_2005

> <r_lp_Energy>
36.6945

> <b_lp_Chiralities_Consistent>
1

> <s_lp_Variant>
AV-unprocessed.smi:671-11

> <Gold.Version>
5.8.1

> <Gold.Id.Protein>
6NUR|6NUR_protein|mol2

> <Gold.PLP.Fitness>
47.4108

> <Gold.PLP.PLP>
-36.4391

> <Gold.PLP.part.hbond>
-2.6839

> <Gold.PLP.part.metal>
0.0000

> <Gold.PLP.part.buried>
-4.5905

> <Gold.PLP.part.nonpolar>
-29.8808

> <Gold.PLP.part.repulsive>
0.1888

> <Gold.PLP.ligand.clash>
0.0000

> <Gold.PLP.ligand.torsion>
0.2964

> <Gold.PLP.Chemscore.Hbond>
3.8393

> <Gold.PLP.Chemscore.CHOScore>
0.0000

> <Gold.PLP.Chemscore.Metal>
0.0000

> <Gold.Chemscore.Hbonds>
donor molecule, donor type, donor heavy atom, donor atom, acceptor molecule, acceptor atom, score
      L1  H     3    50       P1  8028  1.72
      L1  H    12    37       P1  7948  0.99
      L1  H    15    38       P1  7948  0.83

> <Gold.PLP.Chemscore.Internal.Correction>
0.0467

> <Gold.Rescore>
     Score         DG    S(hbond)    S(metal)    S(lipo)     H(rot)  DE(clash)    DE(int)     intcor
     20.36     -20.82       2.82        0.00      83.69       1.51       0.02       0.45       ----

> <Gold.Chemscore.Fitness>
20.3605

> <Gold.Chemscore.DG>
-20.8249

> <Gold.Chemscore.ZeroCoef>
-5.4800

> <Gold.Chemscore.Hbond>
2.8169

> <Gold.Chemscore.Metal>
0.0000

> <Gold.Chemscore.Lipo>
83.6861

> <Gold.Chemscore.Internal_Hbond>
0.0000

> <Gold.Chemscore.DEClash>
0.0164

> <Gold.Chemscore.DEInternal>
0.4480

> <Gold.Chemscore.Rot>
1.5057

> <Gold.Chemscore.Internal.Correction>
   9.000000E+99

> <Gold.Chemscore.Hbonds>
donor molecule, donor type, donor heavy atom, donor atom, acceptor molecule, acceptor atom, score
      L1  H     3    50       P1  8028  0.84
      L1  H    12    37       P1  7948  0.92
      L1  H    15    38       P1  7948  0.81

> <Gold.Chemscore.Hbond.Weighted>
-9.4083

> <Gold.Chemscore.Metal.Weighted>
-0.0000

> <Gold.Chemscore.Lipo.Weighted>
-9.7913

> <Gold.Chemscore.Internal_Hbond.Weighted>
0.0000

> <Gold.Chemscore.DEClash.Weighted>
0.0164

> <Gold.Chemscore.DEInternal.Weighted>
0.4480

> <Gold.Chemscore.Rot.Weighted>
3.8547

> <Gold.Chemscore.Internal.Correction.Weighted>
   9.000000E+99

> <Gold.Protein.RotatedTorsions>
[ 6907 6896 6895 6894 ] final  -52.07 input  -60.11 | X-H torsion
[ 7974 7965 7964 7962 ] final -160.84 input  175.53 | X-H torsion
[ 8008 7997 7996 7995 ] final    4.45 input   59.86 | X-H torsion
[ 10167 10162 10161 10158 ] final  132.07 input  -65.29 | X-H torsion
[ 10718 10713 10712 10709 ] final  122.42 input   66.30 | X-H torsion
[ 10763 10752 10751 10750 ] final  156.53 input  -60.55 | X-H torsion
[ 11005 11000 10999 10996 ] final  130.07 input  -57.11 | X-H torsion

> <Gold.Protein.ActiveResidues>
 VAL166  LYS551  ARG553  GLY616  TRP617  ASP618  TYR619  PRO620  LYS621  CYS622 
 ASP623  PHE694  ASN695  SER759  ASP760  ASP761  ALA762  ILE779  LEU786  VAL792 
 PHE793  MET794  SER795  GLU796  ALA797  LYS798  CYS799  TRP800  GLU811  SER814 

> <Gold.Protein.RotatedAtoms>
  150.8552  134.7888  159.7039 H   0  0  0  0  0  0  0  0  0  0  0  0  # atno 6907 bound_to 6896
  152.4605  134.5191  159.9787 H   0  0  0  0  0  0  0  0  0  0  0  0  # atno 6908 bound_to 6896
  151.5304  133.3412  159.2953 H   0  0  0  0  0  0  0  0  0  0  0  0  # atno 6909 bound_to 6896
  144.7412  140.3484  143.6120 H   0  0  0  0  0  0  0  0  0  0  0  0  # atno 7974 bound_to 7965
  154.7161  140.2702  155.6584 H   0  0  0  0  0  0  0  0  0  0  0  0  # atno 8008 bound_to 7997
  156.2810  140.2744  156.1742 H   0  0  0  0  0  0  0  0  0  0  0  0  # atno 8009 bound_to 7997
  155.0570  140.0371  157.2553 H   0  0  0  0  0  0  0  0  0  0  0  0  # atno 8010 bound_to 7997
  139.5355  144.6678  151.4799 H   0  0  0  0  0  0  0  0  0  0  0  0  # atno 10167 bound_to 10162
  157.5743  131.1080  150.8308 H   0  0  0  0  0  0  0  0  0  0  0  0  # atno 10718 bound_to 10713
  154.1857  135.2797  155.3038 H   0  0  0  0  0  0  0  0  0  0  0  0  # atno 10763 bound_to 10752
  154.5968  135.5542  153.7337 H   0  0  0  0  0  0  0  0  0  0  0  0  # atno 10764 bound_to 10752
  153.0126  135.6382  154.1996 H   0  0  0  0  0  0  0  0  0  0  0  0  # atno 10765 bound_to 10752
  139.9651  134.9592  156.9240 H   0  0  0  0  0  0  0  0  0  0  0  0  # atno 11005 bound_to 11000
  145.7301  139.1734  143.2435 LP  0  0  0  0  0  0  0  0  0  0  0  0  # atno 17320 bound_to 7965
  146.1212  140.7306  142.9456 LP  0  0  0  0  0  0  0  0  0  0  0  0  # atno 17321 bound_to 7965
  140.6560  143.8599  150.6835 LP  0  0  0  0  0  0  0  0  0  0  0  0  # atno 17342 bound_to 10162
  140.1978  143.3983  152.1814 LP  0  0  0  0  0  0  0  0  0  0  0  0  # atno 17343 bound_to 10162
  156.8771  130.5166  149.5293 LP  0  0  0  0  0  0  0  0  0  0  0  0  # atno 17370 bound_to 10713
  156.0788  130.5804  150.9524 LP  0  0  0  0  0  0  0  0  0  0  0  0  # atno 17371 bound_to 10713
  140.5415  134.0716  155.7343 LP  0  0  0  0  0  0  0  0  0  0  0  0  # atno 17394 bound_to 11000
  141.1330  133.9270  157.2495 LP  0  0  0  0  0  0  0  0  0  0  0  0  # atno 17395 bound_to 11000

$$$$
