AV-unprocessed.smi:578|AV-procd|sdf|2983|dock1
  -GOLD-   2262023493D 1   1.00000     0.00000
 Structure written by MMmdl.
 33 34  0  0  0  0  0  0  0  0  3 V2000
  151.9725  145.0026  158.8432 C   0  0  0  0  0  0  0  0  0  0  0  0
  151.0903  143.9442  159.5290 C   0  0  1  0  0  0  0  0  0  0  0  0
  150.9158  142.6559  158.6994 C   0  0  0  0  0  0  0  0  0  0  0  0
  152.1302  141.8513  158.7336 N   0  0  0  0  0  0  0  0  0  0  0  0
  152.0734  140.7268  157.8990 C   0  0  0  0  0  0  0  0  0  0  0  0
  151.7156  140.8937  156.5442 C   0  0  0  0  0  0  0  0  0  0  0  0
  151.6583  139.7654  155.7024 C   0  0  0  0  0  0  0  0  0  0  0  0
  151.9436  138.5431  156.1988 N   0  3  0  0  0  0  0  0  0  0  0  0
  152.2901  138.3258  157.4884 C   0  0  0  0  0  0  0  0  0  0  0  0
  152.5850  136.9234  157.9318 C   0  0  0  0  0  0  0  0  0  0  0  0
  152.7244  136.0348  157.0628 O   0  0  0  0  0  0  0  0  0  0  0  0
  152.6806  136.6935  159.1580 O   0  5  0  0  0  0  0  0  0  0  0  0
  152.3625  139.4257  158.3743 C   0  0  0  0  0  0  0  0  0  0  0  0
  152.5556  141.5489  160.0931 C   0  0  0  0  0  0  0  0  0  0  0  0
  152.7592  142.8546  160.8828 C   0  0  2  0  0  0  0  0  0  0  0  0
  153.1059  142.5882  162.3512 C   0  0  0  0  0  0  0  0  0  0  0  0
  151.5569  143.6245  160.8430 O   0  0  0  0  0  0  0  0  0  0  0  0
  151.5293  145.3212  157.8995 H   0  0  0  0  0  0  0  0  0  0  0  0
  152.9717  144.6291  158.6208 H   0  0  0  0  0  0  0  0  0  0  0  0
  152.0773  145.8872  159.4719 H   0  0  0  0  0  0  0  0  0  0  0  0
  150.1044  144.3918  159.6573 H   0  0  0  0  0  0  0  0  0  0  0  0
  150.0890  142.0732  159.1079 H   0  0  0  0  0  0  0  0  0  0  0  0
  150.6542  142.9006  157.6690 H   0  0  0  0  0  0  0  0  0  0  0  0
  151.4889  141.8750  156.1535 H   0  0  0  0  0  0  0  0  0  0  0  0
  151.3952  139.8027  154.6556 H   0  0  0  0  0  0  0  0  0  0  0  0
  152.6363  139.2731  159.4086 H   0  0  0  0  0  0  0  0  0  0  0  0
  151.8050  140.9297  160.5864 H   0  0  0  0  0  0  0  0  0  0  0  0
  153.4833  140.9756  160.0702 H   0  0  0  0  0  0  0  0  0  0  0  0
  153.5764  143.4262  160.4421 H   0  0  0  0  0  0  0  0  0  0  0  0
  154.0238  142.0061  162.4381 H   0  0  0  0  0  0  0  0  0  0  0  0
  152.3098  142.0356  162.8510 H   0  0  0  0  0  0  0  0  0  0  0  0
  153.2529  143.5233  162.8923 H   0  0  0  0  0  0  0  0  0  0  0  0
  151.8978  137.7351  155.5768 H   0  0  0  0  0  0  0  0  0  0  0  0
  1  2  1  0  0  0  0
  1 18  1  0  0  0  0
  1 19  1  0  0  0  0
  1 20  1  0  0  0  0
  2 17  1  0  0  0  0
  2  3  1  0  0  0  0
  2 21  1  0  0  0  0
  3  4  1  0  0  0  0
  3 22  1  0  0  0  0
  3 23  1  0  0  0  0
  4  5  1  0  0  0  0
  4 14  1  0  0  0  0
  5 13  1  0  0  0  0
  5  6  2  0  0  0  0
  6  7  1  0  0  0  0
  6 24  1  0  0  0  0
  7  8  2  0  0  0  0
  7 25  1  0  0  0  0
  8  9  1  0  0  0  0
  8 33  1  0  0  0  0
  9 10  1  0  0  0  0
  9 13  2  0  0  0  0
 10 11  2  0  0  0  0
 10 12  1  0  0  0  0
 13 26  1  0  0  0  0
 14 15  1  0  0  0  0
 14 27  1  0  0  0  0
 14 28  1  0  0  0  0
 15 16  1  0  0  0  0
 15 17  1  0  0  0  0
 15 29  1  0  0  0  0
 16 30  1  0  0  0  0
 16 31  1  0  0  0  0
 16 32  1  0  0  0  0
M  CHG  1   8   1
M  CHG  1  12  -1
M  END
> <s_m_source_file>
AV-unprocessed.smi

> <i_m_source_file_index>
578

> <i_lp_mmshare_version>
43012

> <i_f3d_flags>
0

> <s_epik_input>
W0NIM11bQ0BASF0xW0NIMl1OKFtDSDJdW0NASF0oTzEpW0NIM10pYzJbY0hdW2NIXW5jKFtjSF0yKUMoPU8pW09IXQ==

> <s_epik_cmdline>
J2VwaWtfcHl0aG9uJywgJy1waCcsICc3LjAnLCAnLXRuJywgJzgnLCAnLW1hJywgJzIwMCcsICctbWV0YWxfYmluZGluZycsICctaW1hZScsICc8aW5maWxlLm1hZT4nLCAnLW9tYWUnLCAnPG91dGZpbGUubWFlPic=

> <r_epik_Ionization_Penalty>
0.0203651

> <r_epik_Ionization_Penalty_Charging>
0.0203651

> <r_epik_Ionization_Penalty_Neutral>
3.18831e-12

> <r_epik_State_Penalty>
0.0163096

> <r_epik_Charging_Adjusted_Penalty>
0.0366747

> <i_epik_Tot_Q>
0

> <i_epik_Tot_abs_Q>
2

> <r_epik_Metal_State_Penalty>
1.99323

> <b_epik_Metal_Only>
0

> <s_lp_Force_Field>
OPLS_2005

> <r_lp_Energy>
19.2527

> <b_lp_Chiralities_Consistent>
1

> <s_lp_Variant>
AV-unprocessed.smi:578-3

> <Gold.Version>
5.8.1

> <Gold.Id.Protein>
6NUR|6NUR_protein|mol2

> <Gold.PLP.Fitness>
45.5348

> <Gold.PLP.PLP>
-34.2494

> <Gold.PLP.part.hbond>
-2.1625

> <Gold.PLP.part.metal>
0.0000

> <Gold.PLP.part.buried>
-6.0635

> <Gold.PLP.part.nonpolar>
-26.1154

> <Gold.PLP.part.repulsive>
0.2452

> <Gold.PLP.ligand.clash>
0.4141

> <Gold.PLP.ligand.torsion>
0.1268

> <Gold.PLP.Chemscore.Hbond>
3.9520

> <Gold.PLP.Chemscore.CHOScore>
0.0000

> <Gold.PLP.Chemscore.Metal>
0.0000

> <Gold.Chemscore.Hbonds>
donor molecule, donor type, donor heavy atom, donor atom, acceptor molecule, acceptor atom, score
      P1  H  6896  6908       L1    12  1.92
      P1  H 10752 10764       L1    11  2.00

> <Gold.PLP.Chemscore.Internal.Correction>
0.0969

> <Gold.Rescore>
     Score         DG    S(hbond)    S(metal)    S(lipo)     H(rot)  DE(clash)    DE(int)     intcor
     20.03     -20.25       1.90        0.00      94.00       1.00       0.03       0.19       ----

> <Gold.Chemscore.Fitness>
20.0347

> <Gold.Chemscore.DG>
-20.2524

> <Gold.Chemscore.ZeroCoef>
-5.4800

> <Gold.Chemscore.Hbond>
1.8965

> <Gold.Chemscore.Metal>
0.0000

> <Gold.Chemscore.Lipo>
94.0006

> <Gold.Chemscore.Internal_Hbond>
0.0000

> <Gold.Chemscore.DEClash>
0.0297

> <Gold.Chemscore.DEInternal>
0.1880

> <Gold.Chemscore.Rot>
1.0000

> <Gold.Chemscore.Internal.Correction>
   9.000000E+99

> <Gold.Chemscore.Hbonds>
donor molecule, donor type, donor heavy atom, donor atom, acceptor molecule, acceptor atom, score
      P1  H  6896  6908       L1    12  0.90
      P1  H 10752 10764       L1    11  0.95

> <Gold.Chemscore.Hbond.Weighted>
-6.3343

> <Gold.Chemscore.Metal.Weighted>
-0.0000

> <Gold.Chemscore.Lipo.Weighted>
-10.9981

> <Gold.Chemscore.Internal_Hbond.Weighted>
0.0000

> <Gold.Chemscore.DEClash.Weighted>
0.0297

> <Gold.Chemscore.DEInternal.Weighted>
0.1880

> <Gold.Chemscore.Rot.Weighted>
2.5600

> <Gold.Chemscore.Internal.Correction.Weighted>
   9.000000E+99

> <Gold.Protein.RotatedTorsions>
[ 6907 6896 6895 6894 ] final -103.23 input  -60.11 | X-H torsion
[ 7974 7965 7964 7962 ] final  128.98 input  175.53 | X-H torsion
[ 8008 7997 7996 7995 ] final -141.16 input   59.86 | X-H torsion
[ 10167 10162 10161 10158 ] final   59.62 input  -65.29 | X-H torsion
[ 10718 10713 10712 10709 ] final  -85.41 input   66.30 | X-H torsion
[ 10763 10752 10751 10750 ] final   -5.38 input  -60.55 | X-H torsion
[ 11005 11000 10999 10996 ] final   13.75 input  -57.11 | X-H torsion

> <Gold.Protein.ActiveResidues>
 VAL166  LYS551  ARG553  GLY616  TRP617  ASP618  TYR619  PRO620  LYS621  CYS622 
 ASP623  PHE694  ASN695  SER759  ASP760  ASP761  ALA762  ILE779  LEU786  VAL792 
 PHE793  MET794  SER795  GLU796  ALA797  LYS798  CYS799  TRP800  GLU811  SER814 

> <Gold.Protein.RotatedAtoms>
  150.7231  134.0461  159.3781 H   0  0  0  0  0  0  0  0  0  0  0  0  # atno 6907 bound_to 6896
  151.8436  135.0579  160.0460 H   0  0  0  0  0  0  0  0  0  0  0  0  # atno 6908 bound_to 6896
  152.2844  133.5465  159.5554 H   0  0  0  0  0  0  0  0  0  0  0  0  # atno 6909 bound_to 6896
  145.0337  139.4024  143.5137 H   0  0  0  0  0  0  0  0  0  0  0  0  # atno 7974 bound_to 7965
  155.4732  140.0554  157.2977 H   0  0  0  0  0  0  0  0  0  0  0  0  # atno 8008 bound_to 7997
  154.4690  140.2031  155.9997 H   0  0  0  0  0  0  0  0  0  0  0  0  # atno 8009 bound_to 7997
  156.1023  140.3217  155.7963 H   0  0  0  0  0  0  0  0  0  0  0  0  # atno 8010 bound_to 7997
  140.1745  144.4244  150.6645 H   0  0  0  0  0  0  0  0  0  0  0  0  # atno 10167 bound_to 10162
  155.9997  130.4730  150.4557 H   0  0  0  0  0  0  0  0  0  0  0  0  # atno 10718 bound_to 10713
  153.3977  135.7004  153.6449 H   0  0  0  0  0  0  0  0  0  0  0  0  # atno 10763 bound_to 10752
  153.4995  135.3655  155.2533 H   0  0  0  0  0  0  0  0  0  0  0  0  # atno 10764 bound_to 10752
  154.8708  135.4108  154.3306 H   0  0  0  0  0  0  0  0  0  0  0  0  # atno 10765 bound_to 10752
  140.4772  134.0972  155.7744 H   0  0  0  0  0  0  0  0  0  0  0  0  # atno 11005 bound_to 11000
  146.3501  139.9900  142.8686 LP  0  0  0  0  0  0  0  0  0  0  0  0  # atno 17320 bound_to 7965
  145.1738  140.9734  143.4306 LP  0  0  0  0  0  0  0  0  0  0  0  0  # atno 17321 bound_to 7965
  140.6561  143.2238  151.5966 LP  0  0  0  0  0  0  0  0  0  0  0  0  # atno 17342 bound_to 10162
  139.5323  144.2880  152.1176 LP  0  0  0  0  0  0  0  0  0  0  0  0  # atno 17343 bound_to 10162
  157.2586  131.0562  151.2334 LP  0  0  0  0  0  0  0  0  0  0  0  0  # atno 17370 bound_to 10713
  157.3457  130.7056  149.6409 LP  0  0  0  0  0  0  0  0  0  0  0  0  # atno 17371 bound_to 10713
  141.1549  133.8901  157.2004 LP  0  0  0  0  0  0  0  0  0  0  0  0  # atno 17394 bound_to 11000
  139.9849  135.0085  156.9838 LP  0  0  0  0  0  0  0  0  0  0  0  0  # atno 17395 bound_to 11000

$$$$
