AV-unprocessed.smi:256|AV-procd|sdf|1961|dock1
  -GOLD-   2262021103D 1   1.00000     0.00000
 Structure written by MMmdl.
 61 64  0  0  0  0  0  0  0  0  1 V2000
  152.4920  145.4555  158.6323 C   0  0  0  0  0  0  0  0  0  0  0  0
  152.1154  144.3551  159.6390 C   0  0  0  0  0  0  0  0  0  0  0  0
  151.8654  142.9585  159.0221 C   0  0  2  0  0  0  0  0  0  0  0  0
  150.5515  142.9995  158.2024 C   0  0  0  0  0  0  0  0  0  0  0  0
  150.3210  141.7338  157.5100 N   0  0  0  0  0  0  0  0  0  0  0  0
  149.3555  141.6921  156.5560 C   0  0  0  0  0  0  0  0  0  0  0  0
  149.6819  141.3880  155.2706 N   0  0  0  0  0  0  0  0  0  0  0  0
  148.7396  141.3492  154.3242 C   0  0  0  0  0  0  0  0  0  0  0  0
  147.4304  141.5758  154.4410 N   0  0  0  0  0  0  0  0  0  0  0  0
  147.0936  141.8764  155.7276 C   0  0  0  0  0  0  0  0  0  0  0  0
  147.9836  141.9516  156.8368 C   0  0  0  0  0  0  0  0  0  0  0  0
  147.2728  142.2610  157.9908 N   0  0  0  0  0  0  0  0  0  0  0  0
  146.0376  142.3724  157.5854 C   0  0  0  0  0  0  0  0  0  0  0  0
  145.8407  142.1675  156.2386 N   0  0  0  0  0  0  0  0  0  0  0  0
  144.5745  142.2307  155.5242 C   0  0  0  0  0  0  0  0  0  0  0  0
  144.0539  143.6705  155.2875 C   0  0  0  0  0  0  0  0  0  0  0  0
  142.7514  143.5753  154.7379 O   0  0  0  0  0  0  0  0  0  0  0  0
  143.9619  144.4333  156.6246 C   0  0  0  0  0  0  0  0  0  0  0  0
  143.6148  145.9190  156.4235 C   0  0  0  0  0  0  0  0  0  0  0  0
  144.5576  146.5239  155.5469 O   0  0  0  0  0  0  0  0  0  0  0  0
  144.5395  145.9556  154.2433 C   0  0  0  0  0  0  0  0  0  0  0  0
  144.9389  144.4708  154.3063 C   0  0  0  0  0  0  0  0  0  0  0  0
  150.3403  140.5940  158.4184 C   0  0  0  0  0  0  0  0  0  0  0  0
  151.6602  140.5835  159.2007 C   0  0  0  0  0  0  0  0  0  0  0  0
  151.8915  141.8145  159.9657 N   0  0  0  0  0  0  0  0  0  0  0  0
  153.1589  141.6842  160.7007 C   0  0  0  0  0  0  0  0  0  0  0  0
  153.3238  142.6128  161.9153 C   0  0  0  0  0  0  0  0  0  0  0  0
  154.2970  142.0486  162.7785 O   0  0  0  0  0  0  0  0  0  0  0  0
  154.3785  142.7220  164.0227 C   0  0  0  0  0  0  0  0  0  0  0  0
  152.5479  146.4250  159.1272 H   0  0  0  0  0  0  0  0  0  0  0  0
  151.7614  145.5368  157.8279 H   0  0  0  0  0  0  0  0  0  0  0  0
  153.4651  145.2691  158.1787 H   0  0  0  0  0  0  0  0  0  0  0  0
  152.9236  144.2742  160.3669 H   0  0  0  0  0  0  0  0  0  0  0  0
  151.2548  144.6640  160.2296 H   0  0  0  0  0  0  0  0  0  0  0  0
  152.6705  142.8043  158.3014 H   0  0  0  0  0  0  0  0  0  0  0  0
  149.7003  143.1995  158.8541 H   0  0  0  0  0  0  0  0  0  0  0  0
  150.6002  143.8099  157.4735 H   0  0  0  0  0  0  0  0  0  0  0  0
  149.0842  141.1005  153.3314 H   0  0  0  0  0  0  0  0  0  0  0  0
  145.2304  142.6146  158.2617 H   0  0  0  0  0  0  0  0  0  0  0  0
  144.6896  141.7073  154.5737 H   0  0  0  0  0  0  0  0  0  0  0  0
  143.8418  141.6596  156.0957 H   0  0  0  0  0  0  0  0  0  0  0  0
  142.8109  143.1575  153.8924 H   0  0  0  0  0  0  0  0  0  0  0  0
  143.2310  143.9642  157.2847 H   0  0  0  0  0  0  0  0  0  0  0  0
  144.9208  144.3723  157.1411 H   0  0  0  0  0  0  0  0  0  0  0  0
  142.6043  146.0388  156.0299 H   0  0  0  0  0  0  0  0  0  0  0  0
  143.6430  146.4401  157.3804 H   0  0  0  0  0  0  0  0  0  0  0  0
  143.5528  146.0790  153.7943 H   0  0  0  0  0  0  0  0  0  0  0  0
  145.2415  146.5020  153.6134 H   0  0  0  0  0  0  0  0  0  0  0  0
  145.9795  144.4051  154.6266 H   0  0  0  0  0  0  0  0  0  0  0  0
  144.8984  144.0409  153.3048 H   0  0  0  0  0  0  0  0  0  0  0  0
  149.4956  140.6663  159.1048 H   0  0  0  0  0  0  0  0  0  0  0  0
  150.2322  139.6520  157.8825 H   0  0  0  0  0  0  0  0  0  0  0  0
  151.6456  139.7289  159.8780 H   0  0  0  0  0  0  0  0  0  0  0  0
  152.4876  140.4144  158.5095 H   0  0  0  0  0  0  0  0  0  0  0  0
  153.2443  140.6708  161.0963 H   0  0  0  0  0  0  0  0  0  0  0  0
  154.0044  141.7937  160.0203 H   0  0  0  0  0  0  0  0  0  0  0  0
  153.6365  143.6149  161.6324 H   0  0  0  0  0  0  0  0  0  0  0  0
  152.3724  142.7033  162.4419 H   0  0  0  0  0  0  0  0  0  0  0  0
  155.1316  142.2445  164.6497 H   0  0  0  0  0  0  0  0  0  0  0  0
  153.4268  142.6859  164.5546 H   0  0  0  0  0  0  0  0  0  0  0  0
  154.6651  143.7657  163.8880 H   0  0  0  0  0  0  0  0  0  0  0  0
  1  2  1  0  0  0  0
  1 30  1  0  0  0  0
  1 31  1  0  0  0  0
  1 32  1  0  0  0  0
  2  3  1  0  0  0  0
  2 33  1  0  0  0  0
  2 34  1  0  0  0  0
  3 25  1  0  0  0  0
  3  4  1  0  0  0  0
  3 35  1  0  0  0  0
  4  5  1  0  0  0  0
  4 36  1  0  0  0  0
  4 37  1  0  0  0  0
  5  6  1  0  0  0  0
  5 23  1  0  0  0  0
  6 11  1  0  0  0  0
  6  7  2  0  0  0  0
  7  8  1  0  0  0  0
  8  9  2  0  0  0  0
  8 38  1  0  0  0  0
  9 10  1  0  0  0  0
 10 14  1  0  0  0  0
 10 11  2  0  0  0  0
 11 12  1  0  0  0  0
 12 13  2  0  0  0  0
 13 14  1  0  0  0  0
 13 39  1  0  0  0  0
 14 15  1  0  0  0  0
 15 16  1  0  0  0  0
 15 40  1  0  0  0  0
 15 41  1  0  0  0  0
 16 22  1  0  0  0  0
 16 17  1  0  0  0  0
 16 18  1  0  0  0  0
 17 42  1  0  0  0  0
 18 19  1  0  0  0  0
 18 43  1  0  0  0  0
 18 44  1  0  0  0  0
 19 20  1  0  0  0  0
 19 45  1  0  0  0  0
 19 46  1  0  0  0  0
 20 21  1  0  0  0  0
 21 22  1  0  0  0  0
 21 47  1  0  0  0  0
 21 48  1  0  0  0  0
 22 49  1  0  0  0  0
 22 50  1  0  0  0  0
 23 24  1  0  0  0  0
 23 51  1  0  0  0  0
 23 52  1  0  0  0  0
 24 25  1  0  0  0  0
 24 53  1  0  0  0  0
 24 54  1  0  0  0  0
 25 26  1  0  0  0  0
 26 27  1  0  0  0  0
 26 55  1  0  0  0  0
 26 56  1  0  0  0  0
 27 28  1  0  0  0  0
 27 57  1  0  0  0  0
 27 58  1  0  0  0  0
 28 29  1  0  0  0  0
 29 59  1  0  0  0  0
 29 60  1  0  0  0  0
 29 61  1  0  0  0  0
M  END
> <s_m_source_file>
AV-unprocessed.smi

> <i_m_source_file_index>
256

> <i_lp_mmshare_version>
43012

> <i_f3d_flags>
0

> <s_epik_input>
W0NIM11PW0NIMl1bQ0gyXU4xW0NIMl1bQ0gyXU4oW0NIMl1bQ0BIXTFbQ0gyXVtDSDNdKWMobltjSF1uMiljKGMyMyluW2NIXW4zW0NIMl1DNChbT0hdKVtDSDJdW0NIMl1PW0NIMl1bQ0gyXTQ=

> <s_epik_cmdline>
J2VwaWtfcHl0aG9uJywgJy1waCcsICc3LjAnLCAnLXRuJywgJzgnLCAnLW1hJywgJzIwMCcsICctbWV0YWxfYmluZGluZycsICctaW1hZScsICc8aW5maWxlLm1hZT4nLCAnLW9tYWUnLCAnPG91dGZpbGUubWFlPic=

> <r_lp_tautomer_probability>
1

> <r_epik_Ionization_Penalty>
0.676279

> <r_epik_Ionization_Penalty_Charging>
0

> <r_epik_Ionization_Penalty_Neutral>
0.676279

> <r_epik_State_Penalty>
0.6855

> <r_epik_Charging_Adjusted_Penalty>
0.6855

> <i_epik_Tot_Q>
0

> <i_epik_Tot_abs_Q>
0

> <r_epik_Metal_State_Penalty>
0.678557

> <b_epik_Metal_Only>
0

> <s_lp_Force_Field>
OPLS_2005

> <r_lp_Energy>
62.0394

> <b_lp_Chiralities_Consistent>
1

> <s_lp_Variant>
AV-unprocessed.smi:256-5

> <Gold.Version>
5.8.1

> <Gold.Id.Protein>
6NUR|6NUR_protein|mol2

> <Gold.PLP.Fitness>
52.7320

> <Gold.PLP.PLP>
-47.9349

> <Gold.PLP.part.hbond>
-2.2145

> <Gold.PLP.part.metal>
0.0000

> <Gold.PLP.part.buried>
-6.8855

> <Gold.PLP.part.nonpolar>
-37.0603

> <Gold.PLP.part.repulsive>
0.4843

> <Gold.PLP.ligand.clash>
0.0000

> <Gold.PLP.ligand.torsion>
0.8378

> <Gold.PLP.Chemscore.Hbond>
1.0000

> <Gold.PLP.Chemscore.CHOScore>
1.0000

> <Gold.PLP.Chemscore.Metal>
0.0000

> <Gold.Chemscore.Hbonds>
donor molecule, donor type, donor heavy atom, donor atom, acceptor molecule, acceptor atom, score
      L1  H    17    42       P1 10174  1.00
      L1  C     8    38       P1  7957  1.00

> <Gold.PLP.Chemscore.Internal.Correction>
0.4728

> <Gold.Rescore>
     Score         DG    S(hbond)    S(metal)    S(lipo)     H(rot)  DE(clash)    DE(int)     intcor
     13.02     -14.01       0.93        0.00     109.23       2.87       0.20       0.79       ----

> <Gold.Chemscore.Fitness>
13.0160

> <Gold.Chemscore.DG>
-14.0068

> <Gold.Chemscore.ZeroCoef>
-5.4800

> <Gold.Chemscore.Hbond>
0.9263

> <Gold.Chemscore.Metal>
0.0000

> <Gold.Chemscore.Lipo>
109.2330

> <Gold.Chemscore.Internal_Hbond>
0.0000

> <Gold.Chemscore.DEClash>
0.2038

> <Gold.Chemscore.DEInternal>
0.7870

> <Gold.Chemscore.Rot>
2.8700

> <Gold.Chemscore.Internal.Correction>
   9.000000E+99

> <Gold.Chemscore.Hbonds>
donor molecule, donor type, donor heavy atom, donor atom, acceptor molecule, acceptor atom, score
      L1  H    17    42       P1 10174  0.98

> <Gold.Chemscore.Hbond.Weighted>
-3.0938

> <Gold.Chemscore.Metal.Weighted>
-0.0000

> <Gold.Chemscore.Lipo.Weighted>
-12.7803

> <Gold.Chemscore.Internal_Hbond.Weighted>
0.0000

> <Gold.Chemscore.DEClash.Weighted>
0.2038

> <Gold.Chemscore.DEInternal.Weighted>
0.7870

> <Gold.Chemscore.Rot.Weighted>
7.3472

> <Gold.Chemscore.Internal.Correction.Weighted>
   9.000000E+99

> <Gold.Protein.RotatedTorsions>
[ 6907 6896 6895 6894 ] final -121.25 input  -60.11 | X-H torsion
[ 7974 7965 7964 7962 ] final -116.40 input  175.53 | X-H torsion
[ 8008 7997 7996 7995 ] final  151.21 input   59.86 | X-H torsion
[ 10167 10162 10161 10158 ] final  158.55 input  -65.29 | X-H torsion
[ 10718 10713 10712 10709 ] final  -42.86 input   66.30 | X-H torsion
[ 10763 10752 10751 10750 ] final    3.86 input  -60.55 | X-H torsion
[ 11005 11000 10999 10996 ] final -102.47 input  -57.11 | X-H torsion

> <Gold.Protein.ActiveResidues>
 VAL166  LYS551  ARG553  GLY616  TRP617  ASP618  TYR619  PRO620  LYS621  CYS622 
 ASP623  PHE694  ASN695  SER759  ASP760  ASP761  ALA762  ILE779  LEU786  VAL792 
 PHE793  MET794  SER795  GLU796  ALA797  LYS798  CYS799  TRP800  GLU811  SER814 

> <Gold.Protein.RotatedAtoms>
  150.8467  133.7851  159.3040 H   0  0  0  0  0  0  0  0  0  0  0  0  # atno 6907 bound_to 6896
  151.5536  135.1065  159.9965 H   0  0  0  0  0  0  0  0  0  0  0  0  # atno 6908 bound_to 6896
  152.4519  133.7603  159.6799 H   0  0  0  0  0  0  0  0  0  0  0  0  # atno 6909 bound_to 6896
  145.0972  140.8528  143.3948 H   0  0  0  0  0  0  0  0  0  0  0  0  # atno 7974 bound_to 7965
  156.2683  140.2054  156.6140 H   0  0  0  0  0  0  0  0  0  0  0  0  # atno 8008 bound_to 7997
  154.6809  140.0540  157.0289 H   0  0  0  0  0  0  0  0  0  0  0  0  # atno 8009 bound_to 7997
  155.1002  140.3205  155.4552 H   0  0  0  0  0  0  0  0  0  0  0  0  # atno 8010 bound_to 7997
  139.4827  144.4813  151.8439 H   0  0  0  0  0  0  0  0  0  0  0  0  # atno 10167 bound_to 10162
  156.2551  130.4191  149.8605 H   0  0  0  0  0  0  0  0  0  0  0  0  # atno 10718 bound_to 10713
  153.2781  135.6938  153.7412 H   0  0  0  0  0  0  0  0  0  0  0  0  # atno 10763 bound_to 10752
  153.6410  135.3393  155.3072 H   0  0  0  0  0  0  0  0  0  0  0  0  # atno 10764 bound_to 10752
  154.8486  135.4431  154.1826 H   0  0  0  0  0  0  0  0  0  0  0  0  # atno 10765 bound_to 10752
  141.1187  133.8561  157.1364 H   0  0  0  0  0  0  0  0  0  0  0  0  # atno 11005 bound_to 11000
  145.0998  139.2831  143.5692 LP  0  0  0  0  0  0  0  0  0  0  0  0  # atno 17320 bound_to 7965
  146.3530  140.0561  142.8632 LP  0  0  0  0  0  0  0  0  0  0  0  0  # atno 17321 bound_to 7965
  140.4290  144.2142  150.5887 LP  0  0  0  0  0  0  0  0  0  0  0  0  # atno 17342 bound_to 10162
  140.4798  143.2383  151.8971 LP  0  0  0  0  0  0  0  0  0  0  0  0  # atno 17343 bound_to 10162
  156.6140  130.8598  151.3461 LP  0  0  0  0  0  0  0  0  0  0  0  0  # atno 17370 bound_to 10713
  157.7229  130.9583  150.1514 LP  0  0  0  0  0  0  0  0  0  0  0  0  # atno 17371 bound_to 10713
  140.0128  134.9980  157.0432 LP  0  0  0  0  0  0  0  0  0  0  0  0  # atno 17394 bound_to 11000
  140.4570  134.1523  155.7187 LP  0  0  0  0  0  0  0  0  0  0  0  0  # atno 17395 bound_to 11000

$$$$
