AV-unprocessed.smi:939|AV-procd|sdf|4218|dock4
  -GOLD-   22720 2123D 1   1.00000     0.00000
 Structure written by MMmdl.
 36 37  0  0  0  0  0  0  0  0  1 V2000
  153.6113  142.2938  162.7888 C   0  0  0  0  0  0  0  0  0  0  0  0
  152.7835  143.4529  162.2232 C   0  0  0  0  0  0  0  0  0  0  0  0
  152.4677  143.2687  160.7683 C   0  0  0  0  0  0  0  0  0  0  0  0
  152.5485  141.9912  160.2078 N   0  0  0  0  0  0  0  0  0  0  0  0
  152.2427  141.9753  158.9083 C   0  0  0  0  0  0  0  0  0  0  0  0
  152.1832  140.7258  158.0879 C   0  0  0  0  0  0  0  0  0  0  0  0
  150.7519  140.3223  157.6829 C   0  0  0  0  0  0  0  0  0  0  0  0
  150.1620  141.2640  156.7376 N   0  0  0  0  0  0  0  0  0  0  0  0
  149.2485  140.9534  155.8033 C   0  0  0  0  0  0  0  0  0  0  0  0
  148.8930  139.8015  155.5610 O   0  0  0  0  0  0  0  0  0  0  0  0
  148.7096  142.0111  155.1716 N   0  0  0  0  0  0  0  0  0  0  0  0
  147.7191  142.0019  154.1374 C   0  0  0  0  0  0  0  0  0  0  0  0
  146.4495  142.7928  154.3626 C   0  0  0  0  0  0  0  0  0  0  0  0
  146.4172  141.2896  154.4310 C   0  0  0  0  0  0  0  0  0  0  0  0
  151.8254  143.5624  158.2800 S   0  0  0  0  0  0  0  0  0  0  0  0
  152.0985  144.2389  159.8658 C   0  0  0  0  0  0  0  0  0  0  0  0
  151.9248  145.7004  160.1133 C   0  0  0  0  0  0  0  0  0  0  0  0
  153.8315  142.4525  163.8445 H   0  0  0  0  0  0  0  0  0  0  0  0
  154.5605  142.1955  162.2611 H   0  0  0  0  0  0  0  0  0  0  0  0
  153.0776  141.3473  162.6984 H   0  0  0  0  0  0  0  0  0  0  0  0
  151.8596  143.5456  162.7954 H   0  0  0  0  0  0  0  0  0  0  0  0
  153.3213  144.3882  162.3791 H   0  0  0  0  0  0  0  0  0  0  0  0
  152.7953  140.8634  157.1963 H   0  0  0  0  0  0  0  0  0  0  0  0
  152.6471  139.9179  158.6555 H   0  0  0  0  0  0  0  0  0  0  0  0
  150.7759  139.3468  157.1968 H   0  0  0  0  0  0  0  0  0  0  0  0
  150.1197  140.2119  158.5652 H   0  0  0  0  0  0  0  0  0  0  0  0
  150.3935  142.2385  156.8638 H   0  0  0  0  0  0  0  0  0  0  0  0
  149.0253  142.9228  155.4701 H   0  0  0  0  0  0  0  0  0  0  0  0
  148.0644  141.9151  153.1084 H   0  0  0  0  0  0  0  0  0  0  0  0
  146.3530  143.3423  155.2972 H   0  0  0  0  0  0  0  0  0  0  0  0
  145.9979  143.2693  153.4948 H   0  0  0  0  0  0  0  0  0  0  0  0
  145.9388  140.7598  153.6097 H   0  0  0  0  0  0  0  0  0  0  0  0
  146.2945  140.8350  155.4125 H   0  0  0  0  0  0  0  0  0  0  0  0
  152.8402  146.1354  160.5150 H   0  0  0  0  0  0  0  0  0  0  0  0
  151.1228  145.8784  160.8300 H   0  0  0  0  0  0  0  0  0  0  0  0
  151.6770  146.2312  159.1939 H   0  0  0  0  0  0  0  0  0  0  0  0
  1  2  1  0  0  0  0
  1 18  1  0  0  0  0
  1 19  1  0  0  0  0
  1 20  1  0  0  0  0
  2  3  1  0  0  0  0
  2 21  1  0  0  0  0
  2 22  1  0  0  0  0
  3 16  2  0  0  0  0
  3  4  1  0  0  0  0
  4  5  2  0  0  0  0
  5  6  1  0  0  0  0
  5 15  1  0  0  0  0
  6  7  1  0  0  0  0
  6 23  1  0  0  0  0
  6 24  1  0  0  0  0
  7  8  1  0  0  0  0
  7 25  1  0  0  0  0
  7 26  1  0  0  0  0
  8  9  1  0  0  0  0
  8 27  1  0  0  0  0
  9 10  2  0  0  0  0
  9 11  1  0  0  0  0
 11 12  1  0  0  0  0
 11 28  1  0  0  0  0
 12 14  1  0  0  0  0
 12 13  1  0  0  0  0
 12 29  1  0  0  0  0
 13 14  1  0  0  0  0
 13 30  1  0  0  0  0
 13 31  1  0  0  0  0
 14 32  1  0  0  0  0
 14 33  1  0  0  0  0
 15 16  1  0  0  0  0
 16 17  1  0  0  0  0
 17 34  1  0  0  0  0
 17 35  1  0  0  0  0
 17 36  1  0  0  0  0
M  END
> <s_m_source_file>
AV-unprocessed.smi

> <i_m_source_file_index>
939

> <i_lp_mmshare_version>
43012

> <i_f3d_flags>
0

> <s_epik_input>
W0NIM11bQ0gyXWMxbmMoc2MxW0NIM10pW0NIMl1bQ0gyXVtOSF1DKD1PKVtOSF1bQ0hdMltDSDJdW0NIMl0y

> <s_epik_cmdline>
J2VwaWtfcHl0aG9uJywgJy1waCcsICc3LjAnLCAnLXRuJywgJzgnLCAnLW1hJywgJzIwMCcsICctbWV0YWxfYmluZGluZycsICctaW1hZScsICc8aW5maWxlLm1hZT4nLCAnLW9tYWUnLCAnPG91dGZpbGUubWFlPic=

> <r_epik_Ionization_Penalty>
0.00437198

> <r_epik_Ionization_Penalty_Charging>
0

> <r_epik_Ionization_Penalty_Neutral>
0.00437198

> <r_epik_State_Penalty>
0.00310304

> <r_epik_Charging_Adjusted_Penalty>
0.00310304

> <i_epik_Tot_Q>
0

> <i_epik_Tot_abs_Q>
0

> <r_epik_Metal_State_Penalty>
-0

> <b_epik_Metal_Only>
0

> <s_lp_Force_Field>
OPLS_2005

> <r_lp_Energy>
13.9428

> <b_lp_Chiralities_Consistent>
1

> <s_lp_Variant>
AV-unprocessed.smi:939-1

> <Gold.Version>
5.8.1

> <Gold.Id.Protein>
6NUR|6NUR_protein|mol2

> <Gold.PLP.Fitness>
44.5096

> <Gold.PLP.PLP>
-42.6102

> <Gold.PLP.part.hbond>
-1.0000

> <Gold.PLP.part.metal>
0.0000

> <Gold.PLP.part.buried>
-6.3989

> <Gold.PLP.part.nonpolar>
-34.8702

> <Gold.PLP.part.repulsive>
0.2467

> <Gold.PLP.ligand.clash>
0.0000

> <Gold.PLP.ligand.torsion>
0.5809

> <Gold.PLP.Chemscore.Hbond>
1.0000

> <Gold.PLP.Chemscore.CHOScore>
0.0000

> <Gold.PLP.Chemscore.Metal>
0.0000

> <Gold.Chemscore.Hbonds>
donor molecule, donor type, donor heavy atom, donor atom, acceptor molecule, acceptor atom, score
      L1  H    11    28       P1  8028  1.00

> <Gold.PLP.Chemscore.Internal.Correction>
0.0612

> <Gold.Rescore>
     Score         DG    S(hbond)    S(metal)    S(lipo)     H(rot)  DE(clash)    DE(int)     intcor
     16.85     -17.58       0.98        0.00     112.50       1.69       0.03       0.70       ----

> <Gold.Chemscore.Fitness>
16.8497

> <Gold.Chemscore.DG>
-17.5800

> <Gold.Chemscore.ZeroCoef>
-5.4800

> <Gold.Chemscore.Hbond>
0.9799

> <Gold.Chemscore.Metal>
0.0000

> <Gold.Chemscore.Lipo>
112.4967

> <Gold.Chemscore.Internal_Hbond>
0.0000

> <Gold.Chemscore.DEClash>
0.0273

> <Gold.Chemscore.DEInternal>
0.7031

> <Gold.Chemscore.Rot>
1.6934

> <Gold.Chemscore.Internal.Correction>
   9.000000E+99

> <Gold.Chemscore.Hbonds>
donor molecule, donor type, donor heavy atom, donor atom, acceptor molecule, acceptor atom, score
      L1  H    11    28       P1  8028  0.98

> <Gold.Chemscore.Hbond.Weighted>
-3.2730

> <Gold.Chemscore.Metal.Weighted>
-0.0000

> <Gold.Chemscore.Lipo.Weighted>
-13.1621

> <Gold.Chemscore.Internal_Hbond.Weighted>
0.0000

> <Gold.Chemscore.DEClash.Weighted>
0.0273

> <Gold.Chemscore.DEInternal.Weighted>
0.7031

> <Gold.Chemscore.Rot.Weighted>
4.3351

> <Gold.Chemscore.Internal.Correction.Weighted>
   9.000000E+99

> <Gold.Protein.RotatedTorsions>
[ 6907 6896 6895 6894 ] final  150.47 input  -60.11 | X-H torsion
[ 7974 7965 7964 7962 ] final   41.44 input  175.53 | X-H torsion
[ 8008 7997 7996 7995 ] final -154.92 input   59.86 | X-H torsion
[ 10167 10162 10161 10158 ] final -106.79 input  -65.29 | X-H torsion
[ 10718 10713 10712 10709 ] final   81.80 input   66.30 | X-H torsion
[ 10763 10752 10751 10750 ] final   11.13 input  -60.55 | X-H torsion
[ 11005 11000 10999 10996 ] final  -85.73 input  -57.11 | X-H torsion

> <Gold.Protein.ActiveResidues>
 VAL166  LYS551  ARG553  GLY616  TRP617  ASP618  TYR619  PRO620  LYS621  CYS622 
 ASP623  PHE694  ASN695  SER759  ASP760  ASP761  ALA762  ILE779  LEU786  VAL792 
 PHE793  MET794  SER795  GLU796  ALA797  LYS798  CYS799  TRP800  GLU811  SER814 

> <Gold.Protein.RotatedAtoms>
  152.1140  133.4316  159.4643 H   0  0  0  0  0  0  0  0  0  0  0  0  # atno 6907 bound_to 6896
  150.6868  134.2615  159.4560 H   0  0  0  0  0  0  0  0  0  0  0  0  # atno 6908 bound_to 6896
  152.0486  134.9667  160.0625 H   0  0  0  0  0  0  0  0  0  0  0  0  # atno 6909 bound_to 6896
  146.0823  139.5416  142.9529 H   0  0  0  0  0  0  0  0  0  0  0  0  # atno 7974 bound_to 7965
  155.6938  140.0758  157.2438 H   0  0  0  0  0  0  0  0  0  0  0  0  # atno 8008 bound_to 7997
  154.4084  140.1660  156.2168 H   0  0  0  0  0  0  0  0  0  0  0  0  # atno 8009 bound_to 7997
  155.9429  140.3383  155.6345 H   0  0  0  0  0  0  0  0  0  0  0  0  # atno 8010 bound_to 7997
  140.1840  143.3944  152.1259 H   0  0  0  0  0  0  0  0  0  0  0  0  # atno 10167 bound_to 10162
  157.6842  131.0020  150.2280 H   0  0  0  0  0  0  0  0  0  0  0  0  # atno 10718 bound_to 10713
  153.1958  135.6849  153.8294 H   0  0  0  0  0  0  0  0  0  0  0  0  # atno 10763 bound_to 10752
  153.7577  135.3214  155.3333 H   0  0  0  0  0  0  0  0  0  0  0  0  # atno 10764 bound_to 10752
  154.8144  135.4696  154.0702 H   0  0  0  0  0  0  0  0  0  0  0  0  # atno 10765 bound_to 10752
  141.1638  133.7415  156.9058 H   0  0  0  0  0  0  0  0  0  0  0  0  # atno 11005 bound_to 11000
  145.6194  141.0325  143.1923 LP  0  0  0  0  0  0  0  0  0  0  0  0  # atno 17320 bound_to 7965
  144.7302  139.7749  143.7350 LP  0  0  0  0  0  0  0  0  0  0  0  0  # atno 17321 bound_to 7965
  139.5284  144.7130  151.5145 LP  0  0  0  0  0  0  0  0  0  0  0  0  # atno 17342 bound_to 10162
  140.6501  143.8715  150.6776 LP  0  0  0  0  0  0  0  0  0  0  0  0  # atno 17343 bound_to 10162
  156.2918  130.3746  149.7834 LP  0  0  0  0  0  0  0  0  0  0  0  0  # atno 17370 bound_to 10713
  156.5491  130.8334  151.3294 LP  0  0  0  0  0  0  0  0  0  0  0  0  # atno 17371 bound_to 10713
  140.1551  134.9204  157.2643 LP  0  0  0  0  0  0  0  0  0  0  0  0  # atno 17394 bound_to 11000
  140.2677  134.3497  155.7384 LP  0  0  0  0  0  0  0  0  0  0  0  0  # atno 17395 bound_to 11000

$$$$
