AV-unprocessed.smi:506|AV-procd|sdf|2751|dock2
  -GOLD-   2262023213D 1   1.00000     0.00000
 Structure written by MMmdl.
 41 43  0  0  0  0  0  0  0  0  2 V2000
  137.8456  141.3142  153.4487 C   0  0  0  0  0  0  0  0  0  0  0  0
  137.4855  139.9437  153.5418 O   0  0  0  0  0  0  0  0  0  0  0  0
  138.4938  139.0046  153.5043 C   0  0  0  0  0  0  0  0  0  0  0  0
  138.1123  137.6506  153.5770 C   0  0  0  0  0  0  0  0  0  0  0  0
  139.0776  136.6270  153.5410 C   0  0  0  0  0  0  0  0  0  0  0  0
  140.4485  136.9320  153.4318 C   0  0  0  0  0  0  0  0  0  0  0  0
  141.3260  135.8697  153.3968 O   0  0  0  0  0  0  0  0  0  0  0  0
  142.7167  136.1447  153.4798 C   0  0  0  0  0  0  0  0  0  0  0  0
  143.2267  136.4964  152.0773 C   0  0  0  0  0  0  0  0  0  0  0  0
  144.5200  135.8627  151.7918 N   0  0  0  0  0  0  0  0  0  0  0  0
  145.7832  136.3740  151.8490 C   0  0  0  0  0  0  0  0  0  0  0  0
  146.1606  137.7688  152.2354 C   0  0  0  0  0  0  0  0  0  0  0  0
  147.1298  138.3410  151.3824 O   0  0  0  0  0  0  0  0  0  0  0  0
  146.6370  135.3729  151.4887 N   0  3  0  0  0  0  0  0  0  0  0  0
  145.9155  134.2127  151.2060 C   0  0  0  0  0  0  0  0  0  0  0  0
  146.3395  132.9495  150.8053 C   0  0  0  0  0  0  0  0  0  0  0  0
  145.3357  131.9789  150.6055 C   0  0  0  0  0  0  0  0  0  0  0  0
  143.9727  132.2802  150.8053 C   0  0  0  0  0  0  0  0  0  0  0  0
  143.5546  133.5650  151.2109 C   0  0  0  0  0  0  0  0  0  0  0  0
  144.5535  134.5191  151.4031 C   0  0  0  0  0  0  0  0  0  0  0  0
  140.8378  138.2925  153.3637 C   0  0  0  0  0  0  0  0  0  0  0  0
  139.8715  139.3169  153.3987 C   0  0  0  0  0  0  0  0  0  0  0  0
  136.9445  141.9262  153.4883 H   0  0  0  0  0  0  0  0  0  0  0  0
  138.3504  141.5307  152.5061 H   0  0  0  0  0  0  0  0  0  0  0  0
  138.4852  141.6158  154.2794 H   0  0  0  0  0  0  0  0  0  0  0  0
  137.0665  137.3927  153.6590 H   0  0  0  0  0  0  0  0  0  0  0  0
  138.7611  135.5957  153.5956 H   0  0  0  0  0  0  0  0  0  0  0  0
  142.8977  136.9829  154.1545 H   0  0  0  0  0  0  0  0  0  0  0  0
  143.2499  135.2740  153.8649 H   0  0  0  0  0  0  0  0  0  0  0  0
  142.5090  136.2029  151.3105 H   0  0  0  0  0  0  0  0  0  0  0  0
  143.3556  137.5751  151.9836 H   0  0  0  0  0  0  0  0  0  0  0  0
  145.2679  138.3948  152.2288 H   0  0  0  0  0  0  0  0  0  0  0  0
  146.5482  137.7657  153.2546 H   0  0  0  0  0  0  0  0  0  0  0  0
  147.6582  138.9403  151.8877 H   0  0  0  0  0  0  0  0  0  0  0  0
  147.3833  132.7158  150.6537 H   0  0  0  0  0  0  0  0  0  0  0  0
  145.6166  130.9833  150.2938 H   0  0  0  0  0  0  0  0  0  0  0  0
  143.2322  131.5101  150.6442 H   0  0  0  0  0  0  0  0  0  0  0  0
  142.5083  133.7850  151.3629 H   0  0  0  0  0  0  0  0  0  0  0  0
  141.8751  138.5793  153.2827 H   0  0  0  0  0  0  0  0  0  0  0  0
  140.2153  140.3385  153.3415 H   0  0  0  0  0  0  0  0  0  0  0  0
  147.6422  135.4824  151.4462 H   0  0  0  0  0  0  0  0  0  0  0  0
  1  2  1  0  0  0  0
  1 23  1  0  0  0  0
  1 24  1  0  0  0  0
  1 25  1  0  0  0  0
  2  3  1  0  0  0  0
  3 22  1  0  0  0  0
  3  4  2  0  0  0  0
  4  5  1  0  0  0  0
  4 26  1  0  0  0  0
  5  6  2  0  0  0  0
  5 27  1  0  0  0  0
  6  7  1  0  0  0  0
  6 21  1  0  0  0  0
  7  8  1  0  0  0  0
  8  9  1  0  0  0  0
  8 28  1  0  0  0  0
  8 29  1  0  0  0  0
  9 10  1  0  0  0  0
  9 30  1  0  0  0  0
  9 31  1  0  0  0  0
 10 20  1  0  0  0  0
 10 11  1  0  0  0  0
 11 12  1  0  0  0  0
 11 14  2  0  0  0  0
 12 13  1  0  0  0  0
 12 32  1  0  0  0  0
 12 33  1  0  0  0  0
 13 34  1  0  0  0  0
 14 15  1  0  0  0  0
 14 41  1  0  0  0  0
 15 20  2  0  0  0  0
 15 16  1  0  0  0  0
 16 17  2  0  0  0  0
 16 35  1  0  0  0  0
 17 18  1  0  0  0  0
 17 36  1  0  0  0  0
 18 19  2  0  0  0  0
 18 37  1  0  0  0  0
 19 20  1  0  0  0  0
 19 38  1  0  0  0  0
 21 22  2  0  0  0  0
 21 39  1  0  0  0  0
 22 40  1  0  0  0  0
M  CHG  1  14   1
M  END
> <s_m_source_file>
AV-unprocessed.smi

> <i_m_source_file_index>
506

> <i_lp_mmshare_version>
43012

> <i_f3d_flags>
0

> <s_epik_input>
W0NIM11PYzFbY0hdW2NIXWMoW2NIXVtjSF0xKU9bQ0gyXVtDSDJdbihjKG4yKVtDSDJdW09IXSljKGMyMylbY0hdW2NIXVtjSF1bY0hdMw==

> <s_epik_cmdline>
J2VwaWtfcHl0aG9uJywgJy1waCcsICc3LjAnLCAnLXRuJywgJzgnLCAnLW1hJywgJzIwMCcsICctbWV0YWxfYmluZGluZycsICctaW1hZScsICc8aW5maWxlLm1hZT4nLCAnLW9tYWUnLCAnPG91dGZpbGUubWFlPic=

> <r_lp_tautomer_probability>
1

> <r_epik_Ionization_Penalty>
1.51027

> <r_epik_Ionization_Penalty_Charging>
1.50942

> <r_epik_Ionization_Penalty_Neutral>
0.000855784

> <r_epik_State_Penalty>
1.60032

> <r_epik_Charging_Adjusted_Penalty>
3.10973

> <i_epik_Tot_Q>
1

> <i_epik_Tot_abs_Q>
1

> <r_epik_Metal_State_Penalty>
5.65193

> <b_epik_Metal_Only>
0

> <s_lp_Force_Field>
OPLS_2005

> <r_lp_Energy>
22.2088

> <b_lp_Chiralities_Consistent>
1

> <s_lp_Variant>
AV-unprocessed.smi:506-2

> <Gold.Version>
5.8.1

> <Gold.Id.Protein>
6NUR|6NUR_protein|mol2

> <Gold.PLP.Fitness>
52.6449

> <Gold.PLP.PLP>
-44.8340

> <Gold.PLP.part.hbond>
-3.7790

> <Gold.PLP.part.metal>
0.0000

> <Gold.PLP.part.buried>
-3.8162

> <Gold.PLP.part.nonpolar>
-37.2054

> <Gold.PLP.part.repulsive>
0.2794

> <Gold.PLP.ligand.clash>
0.0000

> <Gold.PLP.ligand.torsion>
0.9873

> <Gold.PLP.Chemscore.Hbond>
3.2558

> <Gold.PLP.Chemscore.CHOScore>
0.0000

> <Gold.PLP.Chemscore.Metal>
0.0000

> <Gold.Chemscore.Hbonds>
donor molecule, donor type, donor heavy atom, donor atom, acceptor molecule, acceptor atom, score
      L1  H    13    34       P1  7957  0.14
      L1  H    14    41       P1  7948  1.92
      P1  H  7954  7966       L1    13  1.00

> <Gold.PLP.Chemscore.Internal.Correction>
0.0179

> <Gold.Rescore>
     Score         DG    S(hbond)    S(metal)    S(lipo)     H(rot)  DE(clash)    DE(int)     intcor
     15.65     -17.27       1.68        0.00     108.54       2.54       0.28       1.33       ----

> <Gold.Chemscore.Fitness>
15.6529

> <Gold.Chemscore.DG>
-17.2656

> <Gold.Chemscore.ZeroCoef>
-5.4800

> <Gold.Chemscore.Hbond>
1.6757

> <Gold.Chemscore.Metal>
0.0000

> <Gold.Chemscore.Lipo>
108.5398

> <Gold.Chemscore.Internal_Hbond>
0.0000

> <Gold.Chemscore.DEClash>
0.2798

> <Gold.Chemscore.DEInternal>
1.3329

> <Gold.Chemscore.Rot>
2.5431

> <Gold.Chemscore.Internal.Correction>
   9.000000E+99

> <Gold.Chemscore.Hbonds>
donor molecule, donor type, donor heavy atom, donor atom, acceptor molecule, acceptor atom, score
      L1  H    13    34       P1  7957  0.14
      L1  H    14    41       P1  7948  0.72
      P1  H  7954  7966       L1    13  0.50

> <Gold.Chemscore.Hbond.Weighted>
-5.5968

> <Gold.Chemscore.Metal.Weighted>
-0.0000

> <Gold.Chemscore.Lipo.Weighted>
-12.6992

> <Gold.Chemscore.Internal_Hbond.Weighted>
0.0000

> <Gold.Chemscore.DEClash.Weighted>
0.2798

> <Gold.Chemscore.DEInternal.Weighted>
1.3329

> <Gold.Chemscore.Rot.Weighted>
6.5103

> <Gold.Chemscore.Internal.Correction.Weighted>
   9.000000E+99

> <Gold.Protein.RotatedTorsions>
[ 6907 6896 6895 6894 ] final  -50.39 input  -60.11 | X-H torsion
[ 7974 7965 7964 7962 ] final  -79.94 input  175.53 | X-H torsion
[ 8008 7997 7996 7995 ] final   66.45 input   59.86 | X-H torsion
[ 10167 10162 10161 10158 ] final  -53.86 input  -65.29 | X-H torsion
[ 10718 10713 10712 10709 ] final  124.33 input   66.30 | X-H torsion
[ 10763 10752 10751 10750 ] final -171.30 input  -60.55 | X-H torsion
[ 11005 11000 10999 10996 ] final   80.82 input  -57.11 | X-H torsion

> <Gold.Protein.ActiveResidues>
 VAL166  LYS551  ARG553  GLY616  TRP617  ASP618  TYR619  PRO620  LYS621  CYS622 
 ASP623  PHE694  ASN695  SER759  ASP760  ASP761  ALA762  ILE779  LEU786  VAL792 
 PHE793  MET794  SER795  GLU796  ALA797  LYS798  CYS799  TRP800  GLU811  SER814 

> <Gold.Protein.RotatedAtoms>
  150.8712  134.8086  159.7155 H   0  0  0  0  0  0  0  0  0  0  0  0  # atno 6907 bound_to 6896
  152.4716  134.4943  159.9715 H   0  0  0  0  0  0  0  0  0  0  0  0  # atno 6908 bound_to 6896
  151.5032  133.3461  159.2908 H   0  0  0  0  0  0  0  0  0  0  0  0  # atno 6909 bound_to 6896
  145.5666  140.9473  143.1418 H   0  0  0  0  0  0  0  0  0  0  0  0  # atno 7974 bound_to 7965
  155.6775  140.3496  155.4842 H   0  0  0  0  0  0  0  0  0  0  0  0  # atno 8008 bound_to 7997
  155.9635  140.1142  157.0897 H   0  0  0  0  0  0  0  0  0  0  0  0  # atno 8009 bound_to 7997
  154.4149  140.1171  156.5197 H   0  0  0  0  0  0  0  0  0  0  0  0  # atno 8010 bound_to 7997
  140.6462  143.2537  151.4853 H   0  0  0  0  0  0  0  0  0  0  0  0  # atno 10167 bound_to 10162
  157.5594  131.1090  150.8565 H   0  0  0  0  0  0  0  0  0  0  0  0  # atno 10718 bound_to 10713
  154.6320  135.2888  155.0205 H   0  0  0  0  0  0  0  0  0  0  0  0  # atno 10763 bound_to 10752
  154.1362  135.6526  153.4936 H   0  0  0  0  0  0  0  0  0  0  0  0  # atno 10764 bound_to 10752
  153.0284  135.5322  154.7152 H   0  0  0  0  0  0  0  0  0  0  0  0  # atno 10765 bound_to 10752
  139.9120  134.7949  156.1959 H   0  0  0  0  0  0  0  0  0  0  0  0  # atno 11005 bound_to 11000
  144.7457  139.7326  143.7293 LP  0  0  0  0  0  0  0  0  0  0  0  0  # atno 17320 bound_to 7965
  146.1814  139.5008  142.9864 LP  0  0  0  0  0  0  0  0  0  0  0  0  # atno 17321 bound_to 7965
  139.5673  144.2012  152.1784 LP  0  0  0  0  0  0  0  0  0  0  0  0  # atno 17342 bound_to 10162
  140.1298  144.5299  150.6810 LP  0  0  0  0  0  0  0  0  0  0  0  0  # atno 17343 bound_to 10162
  156.9067  130.5266  149.5281 LP  0  0  0  0  0  0  0  0  0  0  0  0  # atno 17370 bound_to 10713
  156.0648  130.5694  150.9267 LP  0  0  0  0  0  0  0  0  0  0  0  0  # atno 17371 bound_to 10713
  141.0555  133.6867  156.1852 LP  0  0  0  0  0  0  0  0  0  0  0  0  # atno 17394 bound_to 11000
  140.6744  134.4833  157.5588 LP  0  0  0  0  0  0  0  0  0  0  0  0  # atno 17395 bound_to 11000

$$$$
