AV-unprocessed.smi:1662|AV-procd|sdf|6660|dock5
  -GOLD-   22720 7373D 1   1.00000     0.00000
 Structure written by MMmdl.
 47 48  0  0  0  0  0  0  0  0  1 V2000
  147.6911  140.4000  156.0854 C   0  0  0  0  0  0  0  0  0  0  0  0
  148.6469  139.5119  156.8351 C   0  0  0  0  0  0  0  0  0  0  0  0
  148.1433  138.4656  157.4023 N   0  0  0  0  0  0  0  0  0  0  0  0
  148.9339  137.5770  158.1055 N   0  0  0  0  0  0  0  0  0  0  0  0
  148.2072  136.3981  158.6087 C   0  0  0  0  0  0  0  0  0  0  0  0
  148.1591  136.2928  160.1437 C   0  0  0  0  0  0  0  0  0  0  0  0
  148.7097  137.1545  160.8276 O   0  0  0  0  0  0  0  0  0  0  0  0
  147.5036  135.2471  160.6725 N   0  0  0  0  0  0  0  0  0  0  0  0
  147.3344  134.9409  162.0897 C   0  0  1  0  0  0  0  0  0  0  0  0
  147.1331  136.2348  162.9025 C   0  0  0  0  0  0  0  0  0  0  0  0
  145.7917  136.9079  162.5761 C   0  0  0  0  0  0  0  0  0  0  0  0
  144.6239  135.9354  162.7893 C   0  0  0  0  0  0  0  0  0  0  0  0
  144.7886  134.6367  161.9725 C   0  0  2  0  0  0  0  0  0  0  0  0
  143.5845  133.7105  162.2187 C   0  0  0  0  0  0  0  0  0  0  0  0
  146.1517  133.9577  162.2895 C   0  0  1  0  0  0  0  0  0  0  0  0
  146.3722  132.6539  161.4947 C   0  0  0  0  0  0  0  0  0  0  0  0
  150.2805  137.7090  158.2834 C   0  0  0  0  0  0  0  0  0  0  0  0
  150.9499  136.8842  158.9066 O   0  0  0  0  0  0  0  0  0  0  0  0
  150.8429  138.9001  157.6439 C   0  0  0  0  0  0  0  0  0  0  0  0
  152.2514  139.0712  157.7988 C   0  0  0  0  0  0  0  0  0  0  0  0
  153.3962  139.1893  157.9231 N   0  0  0  0  0  0  0  0  0  0  0  0
  150.0785  139.7737  156.9421 C   0  0  0  0  0  0  0  0  0  0  0  0
  150.6153  141.0199  156.2518 C   0  0  0  0  0  0  0  0  0  0  0  0
  147.7176  141.4170  156.4766 H   0  0  0  0  0  0  0  0  0  0  0  0
  146.6619  140.0458  156.1611 H   0  0  0  0  0  0  0  0  0  0  0  0
  147.9483  140.4373  155.0270 H   0  0  0  0  0  0  0  0  0  0  0  0
  147.1863  136.3839  158.2234 H   0  0  0  0  0  0  0  0  0  0  0  0
  148.6720  135.4882  158.2245 H   0  0  0  0  0  0  0  0  0  0  0  0
  147.0827  134.5956  160.0262 H   0  0  0  0  0  0  0  0  0  0  0  0
  148.2435  134.4529  162.4460 H   0  0  0  0  0  0  0  0  0  0  0  0
  147.1664  135.9988  163.9669 H   0  0  0  0  0  0  0  0  0  0  0  0
  147.9535  136.9305  162.7218 H   0  0  0  0  0  0  0  0  0  0  0  0
  145.6588  137.7902  163.2025 H   0  0  0  0  0  0  0  0  0  0  0  0
  145.7929  137.2619  161.5443 H   0  0  0  0  0  0  0  0  0  0  0  0
  144.5459  135.6935  163.8503 H   0  0  0  0  0  0  0  0  0  0  0  0
  143.6905  136.4300  162.5187 H   0  0  0  0  0  0  0  0  0  0  0  0
  144.7759  134.9066  160.9152 H   0  0  0  0  0  0  0  0  0  0  0  0
  143.5711  133.3403  163.2441 H   0  0  0  0  0  0  0  0  0  0  0  0
  143.5925  132.8500  161.5504 H   0  0  0  0  0  0  0  0  0  0  0  0
  142.6452  134.2361  162.0447 H   0  0  0  0  0  0  0  0  0  0  0  0
  146.1435  133.6837  163.3457 H   0  0  0  0  0  0  0  0  0  0  0  0
  146.2593  132.8101  160.4213 H   0  0  0  0  0  0  0  0  0  0  0  0
  145.6678  131.8779  161.7925 H   0  0  0  0  0  0  0  0  0  0  0  0
  147.3722  132.2556  161.6677 H   0  0  0  0  0  0  0  0  0  0  0  0
  151.6939  141.1235  156.3666 H   0  0  0  0  0  0  0  0  0  0  0  0
  150.1539  141.9159  156.6683 H   0  0  0  0  0  0  0  0  0  0  0  0
  150.4022  140.9875  155.1827 H   0  0  0  0  0  0  0  0  0  0  0  0
  1  2  1  0  0  0  0
  1 24  1  0  0  0  0
  1 25  1  0  0  0  0
  1 26  1  0  0  0  0
  2 22  1  0  0  0  0
  2  3  2  0  0  0  0
  3  4  1  0  0  0  0
  4  5  1  0  0  0  0
  4 17  1  0  0  0  0
  5  6  1  0  0  0  0
  5 27  1  0  0  0  0
  5 28  1  0  0  0  0
  6  7  2  0  0  0  0
  6  8  1  0  0  0  0
  8  9  1  0  0  0  0
  8 29  1  0  0  0  0
  9 15  1  0  0  0  0
  9 10  1  0  0  0  0
  9 30  1  0  0  0  0
 10 11  1  0  0  0  0
 10 31  1  0  0  0  0
 10 32  1  0  0  0  0
 11 12  1  0  0  0  0
 11 33  1  0  0  0  0
 11 34  1  0  0  0  0
 12 13  1  0  0  0  0
 12 35  1  0  0  0  0
 12 36  1  0  0  0  0
 13 14  1  0  0  0  0
 13 15  1  0  0  0  0
 13 37  1  0  0  0  0
 14 38  1  0  0  0  0
 14 39  1  0  0  0  0
 14 40  1  0  0  0  0
 15 16  1  0  0  0  0
 15 41  1  0  0  0  0
 16 42  1  0  0  0  0
 16 43  1  0  0  0  0
 16 44  1  0  0  0  0
 17 18  2  0  0  0  0
 17 19  1  0  0  0  0
 19 20  1  0  0  0  0
 19 22  2  0  0  0  0
 20 21  3  0  0  0  0
 22 23  1  0  0  0  0
 23 45  1  0  0  0  0
 23 46  1  0  0  0  0
 23 47  1  0  0  0  0
M  END
> <s_m_source_file>
AV-unprocessed.smi

> <i_m_source_file_index>
1662

> <i_lp_mmshare_version>
43012

> <i_f3d_flags>
0

> <s_epik_input>
TiNDYyhjMVtDSDNdKWMoPU8pbihuYzFbQ0gzXSlbQ0gyXUMoPU8pW05IXVtDQEBIXTJbQ0gyXVtDSDJdW0NIMl1bQ0BASF0oW0NIM10pW0NASF0yW0NIM10=

> <s_epik_cmdline>
J2VwaWtfcHl0aG9uJywgJy1waCcsICc3LjAnLCAnLXRuJywgJzgnLCAnLW1hJywgJzIwMCcsICctbWV0YWxfYmluZGluZycsICctaW1hZScsICc8aW5maWxlLm1hZT4nLCAnLW9tYWUnLCAnPG91dGZpbGUubWFlPic=

> <r_lp_tautomer_probability>
1

> <r_epik_Ionization_Penalty>
1.90709e-08

> <r_epik_Ionization_Penalty_Charging>
2.37982e-11

> <r_epik_Ionization_Penalty_Neutral>
1.90471e-08

> <r_epik_State_Penalty>
-0

> <r_epik_Charging_Adjusted_Penalty>
2.37982e-11

> <i_epik_Tot_Q>
0

> <i_epik_Tot_abs_Q>
0

> <r_epik_Metal_State_Penalty>
-0

> <b_epik_Metal_Only>
0

> <s_lp_Force_Field>
OPLS_2005

> <r_lp_Energy>
25.169

> <b_lp_Chiralities_Consistent>
1

> <s_lp_Variant>
AV-unprocessed.smi:1662-4

> <Gold.Version>
5.8.1

> <Gold.Id.Protein>
6NUR|6NUR_protein|mol2

> <Gold.PLP.Fitness>
43.8449

> <Gold.PLP.PLP>
-35.4792

> <Gold.PLP.part.hbond>
-3.6010

> <Gold.PLP.part.metal>
0.0000

> <Gold.PLP.part.buried>
-5.6337

> <Gold.PLP.part.nonpolar>
-26.6137

> <Gold.PLP.part.repulsive>
0.0732

> <Gold.PLP.ligand.clash>
0.0000

> <Gold.PLP.ligand.torsion>
0.3241

> <Gold.PLP.Chemscore.Hbond>
3.0005

> <Gold.PLP.Chemscore.CHOScore>
0.0000

> <Gold.PLP.Chemscore.Metal>
0.0000

> <Gold.Chemscore.Hbonds>
donor molecule, donor type, donor heavy atom, donor atom, acceptor molecule, acceptor atom, score
      P1  H  6896  6907       L1    18  0.96
      P1  H  6931  6943       L1     7  0.85
      P1  H  6934  6947       L1     7  0.04
      P1  H  7997  8009       L1    21  0.85

> <Gold.PLP.Chemscore.Internal.Correction>
0.0125

> <Gold.Rescore>
     Score         DG    S(hbond)    S(metal)    S(lipo)     H(rot)  DE(clash)    DE(int)     intcor
     19.52     -21.30       3.38        0.00      70.56       1.45       0.05       1.72       ----

> <Gold.Chemscore.Fitness>
19.5203

> <Gold.Chemscore.DG>
-21.2955

> <Gold.Chemscore.ZeroCoef>
-5.4800

> <Gold.Chemscore.Hbond>
3.3750

> <Gold.Chemscore.Metal>
0.0000

> <Gold.Chemscore.Lipo>
70.5631

> <Gold.Chemscore.Internal_Hbond>
0.0000

> <Gold.Chemscore.DEClash>
0.0509

> <Gold.Chemscore.DEInternal>
1.7243

> <Gold.Chemscore.Rot>
1.4504

> <Gold.Chemscore.Internal.Correction>
   9.000000E+99

> <Gold.Chemscore.Hbonds>
donor molecule, donor type, donor heavy atom, donor atom, acceptor molecule, acceptor atom, score
      P1  H  6896  6907       L1    18  0.86
      P1  H  6931  6943       L1     7  0.82
      P1  H  6934  6947       L1     7  0.03
      P1  H  7997  8009       L1    21  0.83

> <Gold.Chemscore.Hbond.Weighted>
-11.2725

> <Gold.Chemscore.Metal.Weighted>
-0.0000

> <Gold.Chemscore.Lipo.Weighted>
-8.2559

> <Gold.Chemscore.Internal_Hbond.Weighted>
0.0000

> <Gold.Chemscore.DEClash.Weighted>
0.0509

> <Gold.Chemscore.DEInternal.Weighted>
1.7243

> <Gold.Chemscore.Rot.Weighted>
3.7129

> <Gold.Chemscore.Internal.Correction.Weighted>
   9.000000E+99

> <Gold.Protein.RotatedTorsions>
[ 6907 6896 6895 6894 ] final  -11.27 input  -60.11 | X-H torsion
[ 7974 7965 7964 7962 ] final   20.26 input  175.53 | X-H torsion
[ 8008 7997 7996 7995 ] final  129.56 input   59.86 | X-H torsion
[ 10167 10162 10161 10158 ] final  -97.23 input  -65.29 | X-H torsion
[ 10718 10713 10712 10709 ] final  140.74 input   66.30 | X-H torsion
[ 10763 10752 10751 10750 ] final  -18.52 input  -60.55 | X-H torsion
[ 11005 11000 10999 10996 ] final -152.76 input  -57.11 | X-H torsion

> <Gold.Protein.ActiveResidues>
 VAL166  LYS551  ARG553  GLY616  TRP617  ASP618  TYR619  PRO620  LYS621  CYS622 
 ASP623  PHE694  ASN695  SER759  ASP760  ASP761  ALA762  ILE779  LEU786  VAL792 
 PHE793  MET794  SER795  GLU796  ALA797  LYS798  CYS799  TRP800  GLU811  SER814 

> <Gold.Protein.RotatedAtoms>
  151.3889  135.0952  159.9519 H   0  0  0  0  0  0  0  0  0  0  0  0  # atno 6907 bound_to 6896
  152.5086  133.8999  159.7446 H   0  0  0  0  0  0  0  0  0  0  0  0  # atno 6908 bound_to 6896
  150.9448  133.6559  159.2812 H   0  0  0  0  0  0  0  0  0  0  0  0  # atno 6909 bound_to 6896
  146.2118  139.8194  142.8683 H   0  0  0  0  0  0  0  0  0  0  0  0  # atno 7974 bound_to 7965
  156.2938  140.2617  156.2619 H   0  0  0  0  0  0  0  0  0  0  0  0  # atno 8008 bound_to 7997
  154.9780  140.0390  157.2283 H   0  0  0  0  0  0  0  0  0  0  0  0  # atno 8009 bound_to 7997
  154.7797  140.2793  155.6078 H   0  0  0  0  0  0  0  0  0  0  0  0  # atno 8010 bound_to 7997
  140.2855  143.3254  152.0398 H   0  0  0  0  0  0  0  0  0  0  0  0  # atno 10167 bound_to 10162
  157.3999  131.1015  151.0562 H   0  0  0  0  0  0  0  0  0  0  0  0  # atno 10718 bound_to 10713
  153.5906  135.7002  153.5425 H   0  0  0  0  0  0  0  0  0  0  0  0  # atno 10763 bound_to 10752
  153.3181  135.4082  155.1393 H   0  0  0  0  0  0  0  0  0  0  0  0  # atno 10764 bound_to 10752
  154.8601  135.3689  154.5438 H   0  0  0  0  0  0  0  0  0  0  0  0  # atno 10765 bound_to 10752
  140.7154  134.3786  157.5191 H   0  0  0  0  0  0  0  0  0  0  0  0  # atno 11005 bound_to 11000
  145.3112  141.0220  143.3553 LP  0  0  0  0  0  0  0  0  0  0  0  0  # atno 17320 bound_to 7965
  144.8935  139.4743  143.6667 LP  0  0  0  0  0  0  0  0  0  0  0  0  # atno 17321 bound_to 7965
  139.4951  144.6562  151.6568 LP  0  0  0  0  0  0  0  0  0  0  0  0  # atno 17342 bound_to 10162
  140.5776  144.0002  150.6250 LP  0  0  0  0  0  0  0  0  0  0  0  0  # atno 17343 bound_to 10162
  157.1565  130.6207  149.5598 LP  0  0  0  0  0  0  0  0  0  0  0  0  # atno 17370 bound_to 10713
  155.9820  130.4831  150.6859 LP  0  0  0  0  0  0  0  0  0  0  0  0  # atno 17371 bound_to 10713
  139.8861  134.8919  156.2604 LP  0  0  0  0  0  0  0  0  0  0  0  0  # atno 17394 bound_to 11000
  141.0049  133.7129  156.1018 LP  0  0  0  0  0  0  0  0  0  0  0  0  # atno 17395 bound_to 11000

$$$$
