AV-unprocessed.smi:142|AV-procd|sdf|1189|dock9
  -GOLD-   2262018343D 1   1.00000     0.00000
 Structure written by MMmdl.
 52 55  0  0  0  0  0  0  0  0  1 V2000
  155.3559  139.5595  159.3313 C   0  0  0  0  0  0  0  0  0  0  0  0
  153.8436  139.6206  159.0772 C   0  0  2  0  0  0  0  0  0  0  0  0
  153.5889  139.4624  157.6465 N   0  0  0  0  0  0  0  0  0  0  0  0
  153.1173  138.3499  157.0633 C   0  0  0  0  0  0  0  0  0  0  0  0
  152.8687  137.3168  157.6866 O   0  0  0  0  0  0  0  0  0  0  0  0
  152.9016  138.4297  155.5443 C   0  0  0  0  0  0  0  0  0  0  0  0
  151.6092  137.8570  155.1091 N   0  0  0  0  0  0  0  0  0  0  0  0
  150.6219  138.7325  154.5931 C   0  0  0  0  0  0  0  0  0  0  0  0
  150.8327  139.9421  154.4896 O   0  0  0  0  0  0  0  0  0  0  0  0
  149.3616  138.1057  154.2110 C   0  0  0  0  0  0  0  0  0  0  0  0
  148.3702  138.8593  153.7060 F   0  0  0  0  0  0  0  0  0  0  0  0
  149.1724  136.7781  154.3584 C   0  0  0  0  0  0  0  0  0  0  0  0
  150.1436  135.9358  154.8698 N   0  0  0  0  0  0  0  0  0  0  0  0
  149.9086  134.4508  155.0471 C   0  0  2  0  0  0  0  0  0  0  0  0
  150.9046  133.6396  154.1985 C   0  0  0  0  0  0  0  0  0  0  0  0
  150.0017  132.6676  153.4660 C   0  0  0  0  0  0  0  0  0  0  0  0
  148.7147  133.4694  153.3428 C   0  0  0  0  0  0  0  0  0  0  0  0
  148.6234  134.1163  154.6054 O   0  0  0  0  0  0  0  0  0  0  0  0
  151.3916  136.4670  155.2614 C   0  0  0  0  0  0  0  0  0  0  0  0
  152.2664  135.7339  155.7282 O   0  0  0  0  0  0  0  0  0  0  0  0
  153.2441  140.8973  159.6609 C   0  0  0  0  0  0  0  0  0  0  0  0
  153.4351  141.1890  161.0285 C   0  0  0  0  0  0  0  0  0  0  0  0
  152.9012  142.3646  161.5904 C   0  0  0  0  0  0  0  0  0  0  0  0
  152.1718  143.2639  160.7871 C   0  0  0  0  0  0  0  0  0  0  0  0
  151.6356  144.4441  161.3431 C   0  0  0  0  0  0  0  0  0  0  0  0
  150.9073  145.3377  160.5335 C   0  0  0  0  0  0  0  0  0  0  0  0
  150.7128  145.0546  159.1678 C   0  0  0  0  0  0  0  0  0  0  0  0
  151.2477  143.8786  158.6070 C   0  0  0  0  0  0  0  0  0  0  0  0
  151.9781  142.9806  159.4125 C   0  0  0  0  0  0  0  0  0  0  0  0
  152.5169  141.8034  158.8550 C   0  0  0  0  0  0  0  0  0  0  0  0
  155.5755  139.5999  160.3986 H   0  0  0  0  0  0  0  0  0  0  0  0
  155.8726  140.3931  158.8544 H   0  0  0  0  0  0  0  0  0  0  0  0
  155.7845  138.6349  158.9432 H   0  0  0  0  0  0  0  0  0  0  0  0
  153.3896  138.7713  159.5914 H   0  0  0  0  0  0  0  0  0  0  0  0
  153.7688  140.2646  157.0605 H   0  0  0  0  0  0  0  0  0  0  0  0
  152.9843  139.4713  155.2286 H   0  0  0  0  0  0  0  0  0  0  0  0
  153.7422  137.9378  155.0530 H   0  0  0  0  0  0  0  0  0  0  0  0
  148.2153  136.3782  154.0608 H   0  0  0  0  0  0  0  0  0  0  0  0
  149.9783  134.2632  156.1202 H   0  0  0  0  0  0  0  0  0  0  0  0
  151.4144  134.2929  153.4887 H   0  0  0  0  0  0  0  0  0  0  0  0
  151.6477  133.1492  154.8276 H   0  0  0  0  0  0  0  0  0  0  0  0
  150.4033  132.3531  152.5025 H   0  0  0  0  0  0  0  0  0  0  0  0
  149.8326  131.7789  154.0754 H   0  0  0  0  0  0  0  0  0  0  0  0
  148.7939  134.2095  152.5453 H   0  0  0  0  0  0  0  0  0  0  0  0
  147.8429  132.8446  153.1485 H   0  0  0  0  0  0  0  0  0  0  0  0
  153.9939  140.5080  161.6538 H   0  0  0  0  0  0  0  0  0  0  0  0
  153.0553  142.5720  162.6393 H   0  0  0  0  0  0  0  0  0  0  0  0
  151.7800  144.6691  162.3899 H   0  0  0  0  0  0  0  0  0  0  0  0
  150.4968  146.2405  160.9610 H   0  0  0  0  0  0  0  0  0  0  0  0
  150.1530  145.7401  158.5490 H   0  0  0  0  0  0  0  0  0  0  0  0
  151.0940  143.6692  157.5582 H   0  0  0  0  0  0  0  0  0  0  0  0
  152.3704  141.5996  157.8042 H   0  0  0  0  0  0  0  0  0  0  0  0
  1  2  1  0  0  0  0
  1 31  1  0  0  0  0
  1 32  1  0  0  0  0
  1 33  1  0  0  0  0
  2  3  1  0  0  0  0
  2 21  1  0  0  0  0
  2 34  1  0  0  0  0
  3  4  1  0  0  0  0
  3 35  1  0  0  0  0
  4  5  2  0  0  0  0
  4  6  1  0  0  0  0
  6  7  1  0  0  0  0
  6 36  1  0  0  0  0
  6 37  1  0  0  0  0
  7 19  1  0  0  0  0
  7  8  1  0  0  0  0
  8  9  2  0  0  0  0
  8 10  1  0  0  0  0
 10 11  1  0  0  0  0
 10 12  2  0  0  0  0
 12 13  1  0  0  0  0
 12 38  1  0  0  0  0
 13 14  1  0  0  0  0
 13 19  1  0  0  0  0
 14 18  1  0  0  0  0
 14 15  1  0  0  0  0
 14 39  1  0  0  0  0
 15 16  1  0  0  0  0
 15 40  1  0  0  0  0
 15 41  1  0  0  0  0
 16 17  1  0  0  0  0
 16 42  1  0  0  0  0
 16 43  1  0  0  0  0
 17 18  1  0  0  0  0
 17 44  1  0  0  0  0
 17 45  1  0  0  0  0
 19 20  2  0  0  0  0
 21 30  1  0  0  0  0
 21 22  2  0  0  0  0
 22 23  1  0  0  0  0
 22 46  1  0  0  0  0
 23 24  2  0  0  0  0
 23 47  1  0  0  0  0
 24 29  1  0  0  0  0
 24 25  1  0  0  0  0
 25 26  2  0  0  0  0
 25 48  1  0  0  0  0
 26 27  1  0  0  0  0
 26 49  1  0  0  0  0
 27 28  2  0  0  0  0
 27 50  1  0  0  0  0
 28 29  1  0  0  0  0
 28 51  1  0  0  0  0
 29 30  2  0  0  0  0
 30 52  1  0  0  0  0
M  END
> <s_m_source_file>
AV-unprocessed.smi

> <i_m_source_file_index>
142

> <i_lp_mmshare_version>
43012

> <i_f3d_flags>
0

> <s_epik_input>
W2NIXTFbY0hdW2NIXVtjSF1jKGMxMilbY0hdYyhbY0hdW2NIXTIpW0NASF0oW0NIM10pW05IXUMoPU8pW0NIMl1uM2MoPU8pYyhGKVtjSF1uKGMzPU8pW0NAQEhdNFtDSDJdW0NIMl1bQ0gyXU80

> <s_epik_cmdline>
J2VwaWtfcHl0aG9uJywgJy1waCcsICc3LjAnLCAnLXRuJywgJzgnLCAnLW1hJywgJzIwMCcsICctbWV0YWxfYmluZGluZycsICctaW1hZScsICc8aW5maWxlLm1hZT4nLCAnLW9tYWUnLCAnPG91dGZpbGUubWFlPic=

> <r_lp_tautomer_probability>
1

> <r_epik_Ionization_Penalty>
3.35688e-08

> <r_epik_Ionization_Penalty_Charging>
3.59856e-09

> <r_epik_Ionization_Penalty_Neutral>
2.99702e-08

> <r_epik_State_Penalty>
-0

> <r_epik_Charging_Adjusted_Penalty>
3.59856e-09

> <i_epik_Tot_Q>
0

> <i_epik_Tot_abs_Q>
0

> <r_epik_Metal_State_Penalty>
-0

> <b_epik_Metal_Only>
0

> <s_epik_Chemistry_Notes>
This compound contains an acetal/aminal-like group ( X-CH(R)-Y where X, Y are N, S, or O) that may be acid/base labile, releasing an aldehyde.

> <s_lp_Force_Field>
OPLS_2005

> <r_lp_Energy>
31.3548

> <b_lp_Chiralities_Consistent>
1

> <s_lp_Variant>
AV-unprocessed.smi:142-1

> <Gold.Version>
5.8.1

> <Gold.Id.Protein>
6NUR|6NUR_protein|mol2

> <Gold.PLP.Fitness>
59.7388

> <Gold.PLP.PLP>
-54.6791

> <Gold.PLP.part.hbond>
-2.0000

> <Gold.PLP.part.metal>
0.0000

> <Gold.PLP.part.buried>
-3.2568

> <Gold.PLP.part.nonpolar>
-53.0450

> <Gold.PLP.part.repulsive>
3.5001

> <Gold.PLP.ligand.clash>
0.0000

> <Gold.PLP.ligand.torsion>
0.4071

> <Gold.PLP.Chemscore.Hbond>
1.9280

> <Gold.PLP.Chemscore.CHOScore>
0.0126

> <Gold.PLP.Chemscore.Metal>
0.0000

> <Gold.Chemscore.Hbonds>
donor molecule, donor type, donor heavy atom, donor atom, acceptor molecule, acceptor atom, score
      P1  H  7989  7998       L1     9  1.00
      P1  H 10752 10763       L1    20  0.27
      L1  C    12    38       P1  7948  0.19

> <Gold.PLP.Chemscore.Internal.Correction>
0.0520

> <Gold.Rescore>
     Score         DG    S(hbond)    S(metal)    S(lipo)     H(rot)  DE(clash)    DE(int)     intcor
     15.14     -23.28       1.90        0.00     141.95       2.02       2.62       5.52       ----

> <Gold.Chemscore.Fitness>
15.1361

> <Gold.Chemscore.DG>
-23.2829

> <Gold.Chemscore.ZeroCoef>
-5.4800

> <Gold.Chemscore.Hbond>
1.9042

> <Gold.Chemscore.Metal>
0.0000

> <Gold.Chemscore.Lipo>
141.9460

> <Gold.Chemscore.Internal_Hbond>
0.0000

> <Gold.Chemscore.DEClash>
2.6228

> <Gold.Chemscore.DEInternal>
5.5240

> <Gold.Chemscore.Rot>
2.0175

> <Gold.Chemscore.Internal.Correction>
   9.000000E+99

> <Gold.Chemscore.Hbonds>
donor molecule, donor type, donor heavy atom, donor atom, acceptor molecule, acceptor atom, score
      P1  H  7989  7998       L1     9  0.97
      P1  H 10752 10763       L1    20  0.06

> <Gold.Chemscore.Hbond.Weighted>
-6.3600

> <Gold.Chemscore.Metal.Weighted>
-0.0000

> <Gold.Chemscore.Lipo.Weighted>
-16.6077

> <Gold.Chemscore.Internal_Hbond.Weighted>
0.0000

> <Gold.Chemscore.DEClash.Weighted>
2.6228

> <Gold.Chemscore.DEInternal.Weighted>
5.5240

> <Gold.Chemscore.Rot.Weighted>
5.1648

> <Gold.Chemscore.Internal.Correction.Weighted>
   9.000000E+99

> <Gold.Protein.RotatedTorsions>
[ 6907 6896 6895 6894 ] final   31.73 input  -60.11 | X-H torsion
[ 7974 7965 7964 7962 ] final -161.85 input  175.53 | X-H torsion
[ 8008 7997 7996 7995 ] final   89.87 input   59.86 | X-H torsion
[ 10167 10162 10161 10158 ] final -148.71 input  -65.29 | X-H torsion
[ 10718 10713 10712 10709 ] final   62.85 input   66.30 | X-H torsion
[ 10763 10752 10751 10750 ] final   62.12 input  -60.55 | X-H torsion
[ 11005 11000 10999 10996 ] final   -8.72 input  -57.11 | X-H torsion

> <Gold.Protein.ActiveResidues>
 VAL166  LYS551  ARG553  GLY616  TRP617  ASP618  TYR619  PRO620  LYS621  CYS622 
 ASP623  PHE694  ASN695  SER759  ASP760  ASP761  ALA762  ILE779  LEU786  VAL792 
 PHE793  MET794  SER795  GLU796  ALA797  LYS798  CYS799  TRP800  GLU811  SER814 

> <Gold.Protein.RotatedAtoms>
  152.0645  134.9573  160.0574 H   0  0  0  0  0  0  0  0  0  0  0  0  # atno 6907 bound_to 6896
  152.0923  133.4202  159.4558 H   0  0  0  0  0  0  0  0  0  0  0  0  # atno 6908 bound_to 6896
  150.6837  134.2776  159.4657 H   0  0  0  0  0  0  0  0  0  0  0  0  # atno 6909 bound_to 6896
  144.7377  140.3337  143.6148 H   0  0  0  0  0  0  0  0  0  0  0  0  # atno 7974 bound_to 7965
  156.0051  140.3356  155.6885 H   0  0  0  0  0  0  0  0  0  0  0  0  # atno 8008 bound_to 7997
  155.6236  140.0677  157.2688 H   0  0  0  0  0  0  0  0  0  0  0  0  # atno 8009 bound_to 7997
  154.4262  140.1772  156.1385 H   0  0  0  0  0  0  0  0  0  0  0  0  # atno 8010 bound_to 7997
  139.7507  143.8522  152.2586 H   0  0  0  0  0  0  0  0  0  0  0  0  # atno 10167 bound_to 10162
  157.5930  130.9073  149.9641 H   0  0  0  0  0  0  0  0  0  0  0  0  # atno 10718 bound_to 10713
  152.9972  135.5476  154.6142 H   0  0  0  0  0  0  0  0  0  0  0  0  # atno 10763 bound_to 10752
  154.5456  135.2823  155.1058 H   0  0  0  0  0  0  0  0  0  0  0  0  # atno 10764 bound_to 10752
  154.2318  135.6432  153.5230 H   0  0  0  0  0  0  0  0  0  0  0  0  # atno 10765 bound_to 10752
  140.7265  133.8785  155.8860 H   0  0  0  0  0  0  0  0  0  0  0  0  # atno 11005 bound_to 11000
  145.7445  139.1774  143.2357 LP  0  0  0  0  0  0  0  0  0  0  0  0  # atno 17320 bound_to 7965
  146.1108  140.7430  142.9504 LP  0  0  0  0  0  0  0  0  0  0  0  0  # atno 17321 bound_to 7965
  139.8500  144.7169  150.9226 LP  0  0  0  0  0  0  0  0  0  0  0  0  # atno 17342 bound_to 10162
  140.7797  143.3908  151.1314 LP  0  0  0  0  0  0  0  0  0  0  0  0  # atno 17343 bound_to 10162
  156.0988  130.3657  150.0257 LP  0  0  0  0  0  0  0  0  0  0  0  0  # atno 17370 bound_to 10713
  156.8375  130.9414  151.3634 LP  0  0  0  0  0  0  0  0  0  0  0  0  # atno 17371 bound_to 10713
  140.9958  134.1217  157.4364 LP  0  0  0  0  0  0  0  0  0  0  0  0  # atno 17394 bound_to 11000
  139.8836  135.0054  156.6311 LP  0  0  0  0  0  0  0  0  0  0  0  0  # atno 17395 bound_to 11000

$$$$
