AV-unprocessed.smi:2856|AV-procd|sdf|10994|dock2
  -GOLD-   2272015443D 1   1.00000     0.00000
 Structure written by MMmdl.
 37 38  0  0  0  0  0  0  0  0  1 V2000
  145.9138  132.3950  151.5111 C   0  0  0  0  0  0  0  0  0  0  0  0
  145.9972  133.9525  152.4359 S   0  0  0  0  0  0  0  0  0  0  0  0
  146.8159  133.4031  153.9676 C   0  0  1  0  0  0  0  0  0  0  0  0
  148.1147  132.6381  153.6454 C   0  0  0  0  0  0  0  0  0  0  0  0
  148.8009  132.1309  154.9238 C   0  0  0  0  0  0  0  0  0  0  0  0
  149.0731  133.2813  155.9046 C   0  0  0  0  0  0  0  0  0  0  0  0
  147.7830  134.0535  156.2307 C   0  0  0  0  0  0  0  0  0  0  0  0
  147.0710  134.5650  154.9597 C   0  0  1  0  0  0  0  0  0  0  0  0
  147.8448  135.6357  154.3292 N   0  0  0  0  0  0  0  0  0  0  0  0
  148.2767  136.7473  154.9418 C   0  0  0  0  0  0  0  0  0  0  0  0
  148.0649  136.9961  156.1290 O   0  0  0  0  0  0  0  0  0  0  0  0
  148.9645  137.5334  154.0964 N   0  0  0  0  0  0  0  0  0  0  0  0
  149.5797  138.7791  154.3819 C   0  0  0  0  0  0  0  0  0  0  0  0
  148.8358  139.9881  154.3330 C   0  0  0  0  0  0  0  0  0  0  0  0
  149.7670  140.9354  154.6548 C   0  0  0  0  0  0  0  0  0  0  0  0
  149.7023  142.4182  154.7881 C   0  0  0  0  0  0  0  0  0  0  0  0
  150.9746  140.3533  154.8875 O   0  0  0  0  0  0  0  0  0  0  0  0
  150.8481  138.9703  154.7107 N   0  0  0  0  0  0  0  0  0  0  0  0
  145.5263  132.5770  150.5087 H   0  0  0  0  0  0  0  0  0  0  0  0
  145.2527  131.6851  152.0070 H   0  0  0  0  0  0  0  0  0  0  0  0
  146.9043  131.9489  151.4214 H   0  0  0  0  0  0  0  0  0  0  0  0
  146.1335  132.6968  154.4428 H   0  0  0  0  0  0  0  0  0  0  0  0
  147.8953  131.7935  152.9915 H   0  0  0  0  0  0  0  0  0  0  0  0
  148.8005  133.2820  153.0935 H   0  0  0  0  0  0  0  0  0  0  0  0
  148.1694  131.3830  155.4048 H   0  0  0  0  0  0  0  0  0  0  0  0
  149.7352  131.6293  154.6703 H   0  0  0  0  0  0  0  0  0  0  0  0
  149.5115  132.8891  156.8225 H   0  0  0  0  0  0  0  0  0  0  0  0
  149.8121  133.9600  155.4771 H   0  0  0  0  0  0  0  0  0  0  0  0
  147.1057  133.3963  156.7775 H   0  0  0  0  0  0  0  0  0  0  0  0
  148.0043  134.8825  156.9040 H   0  0  0  0  0  0  0  0  0  0  0  0
  146.1045  134.9693  155.2628 H   0  0  0  0  0  0  0  0  0  0  0  0
  148.0619  135.5179  153.3503 H   0  0  0  0  0  0  0  0  0  0  0  0
  149.0687  137.1999  153.1497 H   0  0  0  0  0  0  0  0  0  0  0  0
  147.7931  140.1398  154.0967 H   0  0  0  0  0  0  0  0  0  0  0  0
  148.7231  142.7941  154.4906 H   0  0  0  0  0  0  0  0  0  0  0  0
  150.4531  142.8956  154.1581 H   0  0  0  0  0  0  0  0  0  0  0  0
  149.8824  142.7220  155.8193 H   0  0  0  0  0  0  0  0  0  0  0  0
  1  2  1  0  0  0  0
  1 19  1  0  0  0  0
  1 20  1  0  0  0  0
  1 21  1  0  0  0  0
  2  3  1  0  0  0  0
  3  8  1  0  0  0  0
  3  4  1  0  0  0  0
  3 22  1  0  0  0  0
  4  5  1  0  0  0  0
  4 23  1  0  0  0  0
  4 24  1  0  0  0  0
  5  6  1  0  0  0  0
  5 25  1  0  0  0  0
  5 26  1  0  0  0  0
  6  7  1  0  0  0  0
  6 27  1  0  0  0  0
  6 28  1  0  0  0  0
  7  8  1  0  0  0  0
  7 29  1  0  0  0  0
  7 30  1  0  0  0  0
  8  9  1  0  0  0  0
  8 31  1  0  0  0  0
  9 10  1  0  0  0  0
  9 32  1  0  0  0  0
 10 11  2  0  0  0  0
 10 12  1  0  0  0  0
 12 13  1  0  0  0  0
 12 33  1  0  0  0  0
 13 18  2  0  0  0  0
 13 14  1  0  0  0  0
 14 15  2  0  0  0  0
 14 34  1  0  0  0  0
 15 16  1  0  0  0  0
 15 17  1  0  0  0  0
 16 35  1  0  0  0  0
 16 36  1  0  0  0  0
 16 37  1  0  0  0  0
 17 18  1  0  0  0  0
M  END
> <s_m_source_file>
AV-unprocessed.smi

> <i_m_source_file_index>
2856

> <i_lp_mmshare_version>
43012

> <i_f3d_flags>
0

> <s_epik_input>
W0NIM11TW0NAQEhdMVtDSDJdW0NIMl1bQ0gyXVtDSDJdW0NASF0xW05IXUMoPU8pW05IXWMyW2NIXWMoW0NIM10pb24y

> <s_epik_cmdline>
J2VwaWtfcHl0aG9uJywgJy1waCcsICc3LjAnLCAnLXRuJywgJzgnLCAnLW1hJywgJzIwMCcsICctbWV0YWxfYmluZGluZycsICctaW1hZScsICc8aW5maWxlLm1hZT4nLCAnLW9tYWUnLCAnPG91dGZpbGUubWFlPic=

> <r_lp_tautomer_probability>
1

> <r_epik_Ionization_Penalty>
2.20874e-05

> <r_epik_Ionization_Penalty_Charging>
0

> <r_epik_Ionization_Penalty_Neutral>
2.20874e-05

> <r_epik_State_Penalty>
-0

> <r_epik_Charging_Adjusted_Penalty>
0

> <i_epik_Tot_Q>
0

> <i_epik_Tot_abs_Q>
0

> <r_epik_Metal_State_Penalty>
-0

> <b_epik_Metal_Only>
0

> <s_lp_Force_Field>
OPLS_2005

> <r_lp_Energy>
4.92743

> <b_lp_Chiralities_Consistent>
1

> <s_lp_Variant>
AV-unprocessed.smi:2856-2

> <Gold.Version>
5.8.1

> <Gold.Id.Protein>
6NUR|6NUR_protein|mol2

> <Gold.PLP.Fitness>
31.1871

> <Gold.PLP.PLP>
-23.9117

> <Gold.PLP.part.hbond>
-2.9725

> <Gold.PLP.part.metal>
0.0000

> <Gold.PLP.part.buried>
0.4338

> <Gold.PLP.part.nonpolar>
-21.6669

> <Gold.PLP.part.repulsive>
0.2109

> <Gold.PLP.ligand.clash>
0.0000

> <Gold.PLP.ligand.torsion>
0.7861

> <Gold.PLP.Chemscore.Hbond>
2.9440

> <Gold.PLP.Chemscore.CHOScore>
0.0000

> <Gold.PLP.Chemscore.Metal>
0.0000

> <Gold.Chemscore.Hbonds>
donor molecule, donor type, donor heavy atom, donor atom, acceptor molecule, acceptor atom, score
      L1  H     9    32       P1  7948  0.93
      L1  H    12    33       P1  7948  1.00
      P1  H  7989  7998       L1    17  0.70

> <Gold.PLP.Chemscore.Internal.Correction>
0.0158

> <Gold.Rescore>
     Score         DG    S(hbond)    S(metal)    S(lipo)     H(rot)  DE(clash)    DE(int)     intcor
     14.39     -15.21       1.90        0.00      55.32       1.21       0.04       0.79       ----

> <Gold.Chemscore.Fitness>
14.3870

> <Gold.Chemscore.DG>
-15.2144

> <Gold.Chemscore.ZeroCoef>
-5.4800

> <Gold.Chemscore.Hbond>
1.9049

> <Gold.Chemscore.Metal>
0.0000

> <Gold.Chemscore.Lipo>
55.3164

> <Gold.Chemscore.Internal_Hbond>
0.0000

> <Gold.Chemscore.DEClash>
0.0402

> <Gold.Chemscore.DEInternal>
0.7872

> <Gold.Chemscore.Rot>
1.2109

> <Gold.Chemscore.Internal.Correction>
   9.000000E+99

> <Gold.Chemscore.Hbonds>
donor molecule, donor type, donor heavy atom, donor atom, acceptor molecule, acceptor atom, score
      L1  H     9    32       P1  7948  0.91
      L1  H    12    33       P1  7948  0.98
      P1  H  7989  7998       L1    17  0.04

> <Gold.Chemscore.Hbond.Weighted>
-6.3624

> <Gold.Chemscore.Metal.Weighted>
-0.0000

> <Gold.Chemscore.Lipo.Weighted>
-6.4720

> <Gold.Chemscore.Internal_Hbond.Weighted>
0.0000

> <Gold.Chemscore.DEClash.Weighted>
0.0402

> <Gold.Chemscore.DEInternal.Weighted>
0.7872

> <Gold.Chemscore.Rot.Weighted>
3.1000

> <Gold.Chemscore.Internal.Correction.Weighted>
   9.000000E+99

> <Gold.Protein.RotatedTorsions>
[ 6907 6896 6895 6894 ] final  -38.71 input  -60.11 | X-H torsion
[ 7974 7965 7964 7962 ] final    8.46 input  175.53 | X-H torsion
[ 8008 7997 7996 7995 ] final   49.62 input   59.86 | X-H torsion
[ 10167 10162 10161 10158 ] final   79.47 input  -65.29 | X-H torsion
[ 10718 10713 10712 10709 ] final  172.03 input   66.30 | X-H torsion
[ 10763 10752 10751 10750 ] final  147.79 input  -60.55 | X-H torsion
[ 11005 11000 10999 10996 ] final   52.89 input  -57.11 | X-H torsion

> <Gold.Protein.ActiveResidues>
 VAL166  LYS551  ARG553  GLY616  TRP617  ASP618  TYR619  PRO620  LYS621  CYS622 
 ASP623  PHE694  ASN695  SER759  ASP760  ASP761  ALA762  ILE779  LEU786  VAL792 
 PHE793  MET794  SER795  GLU796  ALA797  LYS798  CYS799  TRP800  GLU811  SER814 

> <Gold.Protein.RotatedAtoms>
  150.9991  134.9307  159.7943 H   0  0  0  0  0  0  0  0  0  0  0  0  # atno 6907 bound_to 6896
  152.5273  134.3178  159.9147 H   0  0  0  0  0  0  0  0  0  0  0  0  # atno 6908 bound_to 6896
  151.3184  133.4009  159.2687 H   0  0  0  0  0  0  0  0  0  0  0  0  # atno 6909 bound_to 6896
  146.2416  139.9929  142.8424 H   0  0  0  0  0  0  0  0  0  0  0  0  # atno 7974 bound_to 7965
  155.4053  140.3440  155.4260 H   0  0  0  0  0  0  0  0  0  0  0  0  # atno 8008 bound_to 7997
  156.1480  140.1562  156.8847 H   0  0  0  0  0  0  0  0  0  0  0  0  # atno 8009 bound_to 7997
  154.5027  140.0810  156.7813 H   0  0  0  0  0  0  0  0  0  0  0  0  # atno 8010 bound_to 7997
  139.9600  144.5968  150.8081 H   0  0  0  0  0  0  0  0  0  0  0  0  # atno 10167 bound_to 10162
  156.9850  131.0130  151.2872 H   0  0  0  0  0  0  0  0  0  0  0  0  # atno 10718 bound_to 10713
  154.0442  135.2887  155.3350 H   0  0  0  0  0  0  0  0  0  0  0  0  # atno 10763 bound_to 10752
  154.6910  135.5226  153.8395 H   0  0  0  0  0  0  0  0  0  0  0  0  # atno 10764 bound_to 10752
  153.0587  135.6605  154.0644 H   0  0  0  0  0  0  0  0  0  0  0  0  # atno 10765 bound_to 10752
  140.0812  134.5337  155.8945 H   0  0  0  0  0  0  0  0  0  0  0  0  # atno 11005 bound_to 11000
  145.1486  140.9611  143.4446 LP  0  0  0  0  0  0  0  0  0  0  0  0  # atno 17320 bound_to 7965
  145.0227  139.3410  143.6064 LP  0  0  0  0  0  0  0  0  0  0  0  0  # atno 17321 bound_to 7965
  140.7556  143.3050  151.2985 LP  0  0  0  0  0  0  0  0  0  0  0  0  # atno 17342 bound_to 10162
  139.6562  144.0273  152.2661 LP  0  0  0  0  0  0  0  0  0  0  0  0  # atno 17343 bound_to 10162
  157.5500  130.8176  149.8133 LP  0  0  0  0  0  0  0  0  0  0  0  0  # atno 17370 bound_to 10713
  156.0229  130.3789  150.1907 LP  0  0  0  0  0  0  0  0  0  0  0  0  # atno 17371 bound_to 10713
  141.2047  133.6641  156.6137 LP  0  0  0  0  0  0  0  0  0  0  0  0  # atno 17394 bound_to 11000
  140.3486  134.7788  157.4450 LP  0  0  0  0  0  0  0  0  0  0  0  0  # atno 17395 bound_to 11000

$$$$
