AV-unprocessed.smi:1572|AV-procd|sdf|6328|dock1
  -GOLD-   22720 6533D 1   1.00000     0.00000
 Structure written by MMmdl.
 43 44  0  0  0  0  0  0  0  0  2 V2000
  143.7088  132.5645  150.7223 C   0  0  0  0  0  0  0  0  0  0  0  0
  144.7695  133.5403  150.4962 N   0  0  0  0  0  0  0  0  0  0  0  0
  144.7685  134.6362  151.4634 C   0  0  0  0  0  0  0  0  0  0  0  0
  145.2211  134.1748  152.8634 C   0  0  0  0  0  0  0  0  0  0  0  0
  146.5879  133.5770  152.8151 N   0  3  0  0  0  0  0  0  0  0  0  0
  147.2155  133.2848  154.1583 C   0  0  0  0  0  0  0  0  0  0  0  0
  146.4795  132.1329  154.8850 C   0  0  0  0  0  0  0  0  0  0  0  0
  148.7018  132.8673  153.9943 C   0  0  0  0  0  0  0  0  0  0  0  0
  147.1611  134.5806  155.0253 C   0  0  0  0  0  0  0  0  0  0  0  0
  147.8674  135.7228  154.4442 N   0  0  0  0  0  0  0  0  0  0  0  0
  147.8634  136.9712  154.9353 C   0  0  0  0  0  0  0  0  0  0  0  0
  147.2327  137.3018  155.9395 O   0  0  0  0  0  0  0  0  0  0  0  0
  148.6239  137.7914  154.1890 N   0  0  0  0  0  0  0  0  0  0  0  0
  148.8464  139.1833  154.3617 C   0  0  0  0  0  0  0  0  0  0  0  0
  150.0629  139.7503  154.3437 N   0  0  0  0  0  0  0  0  0  0  0  0
  149.9991  141.1236  154.5402 N   0  0  0  0  0  0  0  0  0  0  0  0
  148.7390  141.5376  154.7005 C   0  0  0  0  0  0  0  0  0  0  0  0
  147.5068  140.2894  154.6297 S   0  0  0  0  0  0  0  0  0  0  0  0
  146.5925  132.4607  151.8244 C   0  0  0  0  0  0  0  0  0  0  0  0
  146.1011  132.9411  150.4419 C   0  0  0  0  0  0  0  0  0  0  0  0
  142.7351  133.0550  150.7021 H   0  0  0  0  0  0  0  0  0  0  0  0
  143.8072  132.0482  151.6765 H   0  0  0  0  0  0  0  0  0  0  0  0
  143.7154  131.8129  149.9321 H   0  0  0  0  0  0  0  0  0  0  0  0
  145.4356  135.4208  151.1037 H   0  0  0  0  0  0  0  0  0  0  0  0
  143.7719  135.0768  151.5122 H   0  0  0  0  0  0  0  0  0  0  0  0
  145.1933  135.0455  153.5137 H   0  0  0  0  0  0  0  0  0  0  0  0
  144.5040  133.4638  153.2727 H   0  0  0  0  0  0  0  0  0  0  0  0
  146.9927  131.8531  155.8058 H   0  0  0  0  0  0  0  0  0  0  0  0
  146.4248  131.2353  154.2692 H   0  0  0  0  0  0  0  0  0  0  0  0
  145.4629  132.4069  155.1668 H   0  0  0  0  0  0  0  0  0  0  0  0
  149.1993  132.7281  154.9534 H   0  0  0  0  0  0  0  0  0  0  0  0
  149.2691  133.6167  153.4409 H   0  0  0  0  0  0  0  0  0  0  0  0
  148.8109  131.9103  153.4845 H   0  0  0  0  0  0  0  0  0  0  0  0
  146.1235  134.8391  155.2447 H   0  0  0  0  0  0  0  0  0  0  0  0
  147.6356  134.4271  155.9923 H   0  0  0  0  0  0  0  0  0  0  0  0
  148.4109  135.5441  153.6122 H   0  0  0  0  0  0  0  0  0  0  0  0
  149.0974  137.3731  153.4019 H   0  0  0  0  0  0  0  0  0  0  0  0
  148.5340  142.5856  154.8620 H   0  0  0  0  0  0  0  0  0  0  0  0
  147.5987  132.0796  151.6635 H   0  0  0  0  0  0  0  0  0  0  0  0
  145.9921  131.6257  152.1858 H   0  0  0  0  0  0  0  0  0  0  0  0
  146.1001  132.1142  149.7308 H   0  0  0  0  0  0  0  0  0  0  0  0
  146.7969  133.6834  150.0479 H   0  0  0  0  0  0  0  0  0  0  0  0
  147.1794  134.2858  152.4052 H   0  0  0  0  0  0  0  0  0  0  0  0
  1  2  1  0  0  0  0
  1 21  1  0  0  0  0
  1 22  1  0  0  0  0
  1 23  1  0  0  0  0
  2 20  1  0  0  0  0
  2  3  1  0  0  0  0
  3  4  1  0  0  0  0
  3 24  1  0  0  0  0
  3 25  1  0  0  0  0
  4  5  1  0  0  0  0
  4 26  1  0  0  0  0
  4 27  1  0  0  0  0
  5  6  1  0  0  0  0
  5 19  1  0  0  0  0
  5 43  1  0  0  0  0
  6  7  1  0  0  0  0
  6  8  1  0  0  0  0
  6  9  1  0  0  0  0
  7 28  1  0  0  0  0
  7 29  1  0  0  0  0
  7 30  1  0  0  0  0
  8 31  1  0  0  0  0
  8 32  1  0  0  0  0
  8 33  1  0  0  0  0
  9 10  1  0  0  0  0
  9 34  1  0  0  0  0
  9 35  1  0  0  0  0
 10 11  1  0  0  0  0
 10 36  1  0  0  0  0
 11 12  2  0  0  0  0
 11 13  1  0  0  0  0
 13 14  1  0  0  0  0
 13 37  1  0  0  0  0
 14 18  1  0  0  0  0
 14 15  2  0  0  0  0
 15 16  1  0  0  0  0
 16 17  2  0  0  0  0
 17 18  1  0  0  0  0
 17 38  1  0  0  0  0
 19 20  1  0  0  0  0
 19 39  1  0  0  0  0
 19 40  1  0  0  0  0
 20 41  1  0  0  0  0
 20 42  1  0  0  0  0
M  CHG  1   5   1
M  END
> <s_m_source_file>
AV-unprocessed.smi

> <i_m_source_file_index>
1572

> <i_lp_mmshare_version>
43012

> <i_f3d_flags>
0

> <s_epik_input>
W0NIM11OMVtDSDJdW0NIMl1OKFtDSDJdW0NIMl0xKUMoW0NIM10pKFtDSDNdKVtDSDJdW05IXUMoPU8pW05IXWMybm5bY0hdczI=

> <s_epik_cmdline>
J2VwaWtfcHl0aG9uJywgJy1waCcsICc3LjAnLCAnLXRuJywgJzgnLCAnLW1hJywgJzIwMCcsICctbWV0YWxfYmluZGluZycsICctaW1hZScsICc8aW5maWxlLm1hZT4nLCAnLW9tYWUnLCAnPG91dGZpbGUubWFlPic=

> <r_epik_Ionization_Penalty>
0.104337

> <r_epik_Ionization_Penalty_Charging>
0.0985296

> <r_epik_Ionization_Penalty_Neutral>
0.00580738

> <r_epik_State_Penalty>
1.056

> <r_epik_Charging_Adjusted_Penalty>
1.15453

> <i_epik_Tot_Q>
1

> <i_epik_Tot_abs_Q>
1

> <r_epik_Metal_State_Penalty>
1.38982

> <b_epik_Metal_Only>
0

> <s_lp_Force_Field>
OPLS_2005

> <r_lp_Energy>
26.4424

> <b_lp_Chiralities_Consistent>
1

> <s_lp_Variant>
AV-unprocessed.smi:1572-2

> <Gold.Version>
5.8.1

> <Gold.Id.Protein>
6NUR|6NUR_protein|mol2

> <Gold.PLP.Fitness>
37.2162

> <Gold.PLP.PLP>
-27.2119

> <Gold.PLP.part.hbond>
-5.0000

> <Gold.PLP.part.metal>
0.0000

> <Gold.PLP.part.buried>
-3.8422

> <Gold.PLP.part.nonpolar>
-20.2358

> <Gold.PLP.part.repulsive>
2.7718

> <Gold.PLP.ligand.clash>
0.0000

> <Gold.PLP.ligand.torsion>
0.4901

> <Gold.PLP.Chemscore.Hbond>
2.6261

> <Gold.PLP.Chemscore.CHOScore>
1.0000

> <Gold.PLP.Chemscore.Metal>
0.0000

> <Gold.Chemscore.Hbonds>
donor molecule, donor type, donor heavy atom, donor atom, acceptor molecule, acceptor atom, score
      L1  H    10    36       P1  7948  0.93
      L1  H    13    37       P1  7948  0.96
      L1  C    17    38       P1  8028  1.00

> <Gold.PLP.Chemscore.Internal.Correction>
0.1062

> <Gold.Rescore>
     Score         DG    S(hbond)    S(metal)    S(lipo)     H(rot)  DE(clash)    DE(int)     intcor
     14.21     -14.89       1.96        0.00      61.64       1.70       0.08       0.60       ----

> <Gold.Chemscore.Fitness>
14.2066

> <Gold.Chemscore.DG>
-14.8893

> <Gold.Chemscore.ZeroCoef>
-5.4800

> <Gold.Chemscore.Hbond>
1.9576

> <Gold.Chemscore.Metal>
0.0000

> <Gold.Chemscore.Lipo>
61.6374

> <Gold.Chemscore.Internal_Hbond>
0.0000

> <Gold.Chemscore.DEClash>
0.0811

> <Gold.Chemscore.DEInternal>
0.6016

> <Gold.Chemscore.Rot>
1.6956

> <Gold.Chemscore.Internal.Correction>
   9.000000E+99

> <Gold.Chemscore.Hbonds>
donor molecule, donor type, donor heavy atom, donor atom, acceptor molecule, acceptor atom, score
      L1  H    10    36       P1  7948  0.90
      L1  H    13    37       P1  7948  0.92

> <Gold.Chemscore.Hbond.Weighted>
-6.5385

> <Gold.Chemscore.Metal.Weighted>
-0.0000

> <Gold.Chemscore.Lipo.Weighted>
-7.2116

> <Gold.Chemscore.Internal_Hbond.Weighted>
0.0000

> <Gold.Chemscore.DEClash.Weighted>
0.0811

> <Gold.Chemscore.DEInternal.Weighted>
0.6016

> <Gold.Chemscore.Rot.Weighted>
4.3407

> <Gold.Chemscore.Internal.Correction.Weighted>
   9.000000E+99

> <Gold.Protein.RotatedTorsions>
[ 6907 6896 6895 6894 ] final  -12.19 input  -60.11 | X-H torsion
[ 7974 7965 7964 7962 ] final  145.72 input  175.53 | X-H torsion
[ 8008 7997 7996 7995 ] final   94.33 input   59.86 | X-H torsion
[ 10167 10162 10161 10158 ] final -132.25 input  -65.29 | X-H torsion
[ 10718 10713 10712 10709 ] final    1.68 input   66.30 | X-H torsion
[ 10763 10752 10751 10750 ] final   24.74 input  -60.55 | X-H torsion
[ 11005 11000 10999 10996 ] final -163.19 input  -57.11 | X-H torsion

> <Gold.Protein.ActiveResidues>
 VAL166  LYS551  ARG553  GLY616  TRP617  ASP618  TYR619  PRO620  LYS621  CYS622 
 ASP623  PHE694  ASN695  SER759  ASP760  ASP761  ALA762  ILE779  LEU786  VAL792 
 PHE793  MET794  SER795  GLU796  ALA797  LYS798  CYS799  TRP800  GLU811  SER814 

> <Gold.Protein.RotatedAtoms>
  151.3744  135.0928  159.9475 H   0  0  0  0  0  0  0  0  0  0  0  0  # atno 6907 bound_to 6896
  152.5126  133.9133  159.7509 H   0  0  0  0  0  0  0  0  0  0  0  0  # atno 6908 bound_to 6896
  150.9553  133.6449  159.2793 H   0  0  0  0  0  0  0  0  0  0  0  0  # atno 6909 bound_to 6896
  144.8730  139.5817  143.5878 H   0  0  0  0  0  0  0  0  0  0  0  0  # atno 7974 bound_to 7965
  156.0567  140.3301  155.7413 H   0  0  0  0  0  0  0  0  0  0  0  0  # atno 8008 bound_to 7997
  155.5518  140.0611  157.2865 H   0  0  0  0  0  0  0  0  0  0  0  0  # atno 8009 bound_to 7997
  154.4461  140.1892  156.0683 H   0  0  0  0  0  0  0  0  0  0  0  0  # atno 8010 bound_to 7997
  139.9105  143.6500  152.2576 H   0  0  0  0  0  0  0  0  0  0  0  0  # atno 10167 bound_to 10162
  156.8518  130.5556  149.5669 H   0  0  0  0  0  0  0  0  0  0  0  0  # atno 10718 bound_to 10713
  153.0742  135.6598  154.0182 H   0  0  0  0  0  0  0  0  0  0  0  0  # atno 10763 bound_to 10752
  153.9820  135.2954  155.3421 H   0  0  0  0  0  0  0  0  0  0  0  0  # atno 10764 bound_to 10752
  154.7125  135.5199  153.8759 H   0  0  0  0  0  0  0  0  0  0  0  0  # atno 10765 bound_to 10752
  140.6009  134.4948  157.5205 H   0  0  0  0  0  0  0  0  0  0  0  0  # atno 11005 bound_to 11000
  146.2943  139.7231  142.9138 LP  0  0  0  0  0  0  0  0  0  0  0  0  # atno 17320 bound_to 7965
  145.4096  141.0395  143.3025 LP  0  0  0  0  0  0  0  0  0  0  0  0  # atno 17321 bound_to 7965
  139.6947  144.7643  151.1377 LP  0  0  0  0  0  0  0  0  0  0  0  0  # atno 17342 bound_to 10162
  140.7686  143.5540  150.9172 LP  0  0  0  0  0  0  0  0  0  0  0  0  # atno 17343 bound_to 10162
  156.0824  130.5831  150.9587 LP  0  0  0  0  0  0  0  0  0  0  0  0  # atno 17370 bound_to 10713
  157.6299  131.0922  150.8461 LP  0  0  0  0  0  0  0  0  0  0  0  0  # atno 17371 bound_to 10713
  139.9233  134.8106  156.1145 LP  0  0  0  0  0  0  0  0  0  0  0  0  # atno 17394 bound_to 11000
  141.0873  133.6729  156.2463 LP  0  0  0  0  0  0  0  0  0  0  0  0  # atno 17395 bound_to 11000

$$$$
