AV-unprocessed.smi:771|AV-procd|sdf|3681|dock3
  -GOLD-   22720 1 93D 1   1.00000     0.00000
 Structure written by MMmdl.
 41 42  0  0  0  0  0  0  0  0  3 V2000
  146.2655  137.6248  155.1686 O   0  0  0  0  0  0  0  0  0  0  0  0
  146.7594  137.4557  154.0528 C   0  0  0  0  0  0  0  0  0  0  0  0
  147.2840  138.6454  153.2361 C   0  0  0  0  0  0  0  0  0  0  0  0
  148.3420  139.4036  153.9250 N   0  0  0  0  0  0  0  0  0  0  0  0
  149.5935  138.7717  154.0668 C   0  0  0  0  0  0  0  0  0  0  0  0
  150.6356  139.3747  154.6717 C   0  0  0  0  0  0  0  0  0  0  0  0
  151.9155  138.7138  154.8025 N   0  3  0  0  0  0  0  0  0  0  0  0
  152.8364  139.3170  155.3441 O   0  0  0  0  0  0  0  0  0  0  0  0
  152.0434  137.5720  154.3703 O   0  5  0  0  0  0  0  0  0  0  0  0
  150.4327  140.7155  155.1859 C   0  0  0  0  0  0  0  0  0  0  0  0
  149.2396  141.3268  155.0493 C   0  0  0  0  0  0  0  0  0  0  0  0
  148.1088  140.6709  154.3847 C   0  0  0  0  0  0  0  0  0  0  0  0
  147.0188  141.2269  154.2497 O   0  0  0  0  0  0  0  0  0  0  0  0
  146.8532  136.2539  153.4630 N   0  0  0  0  0  0  0  0  0  0  0  0
  146.4123  134.9866  154.0412 C   0  0  0  0  0  0  0  0  0  0  0  0
  145.8595  134.0078  152.9771 C   0  0  2  0  0  0  0  0  0  0  0  0
  146.7983  133.9002  151.7514 C   0  0  0  0  0  0  0  0  0  0  0  0
  146.2400  132.9659  150.6672 C   0  0  0  0  0  0  0  0  0  0  0  0
  144.8407  133.4085  150.2220 C   0  0  0  0  0  0  0  0  0  0  0  0
  143.8885  133.4835  151.4225 C   0  0  0  0  0  0  0  0  0  0  0  0
  144.4361  134.4163  152.5190 C   0  0  1  0  0  0  0  0  0  0  0  0
  143.5351  134.3729  153.6076 O   0  0  0  0  0  0  0  0  0  0  0  0
  147.6424  138.2897  152.2682 H   0  0  0  0  0  0  0  0  0  0  0  0
  146.4391  139.2956  153.0048 H   0  0  0  0  0  0  0  0  0  0  0  0
  149.6443  137.7784  153.6445 H   0  0  0  0  0  0  0  0  0  0  0  0
  151.2355  141.2393  155.6839 H   0  0  0  0  0  0  0  0  0  0  0  0
  149.1107  142.3259  155.4394 H   0  0  0  0  0  0  0  0  0  0  0  0
  147.2679  136.2115  152.5435 H   0  0  0  0  0  0  0  0  0  0  0  0
  147.2805  134.5509  154.5358 H   0  0  0  0  0  0  0  0  0  0  0  0
  145.6719  135.1478  154.8265 H   0  0  0  0  0  0  0  0  0  0  0  0
  145.7953  133.0177  153.4318 H   0  0  0  0  0  0  0  0  0  0  0  0
  146.9603  134.8917  151.3264 H   0  0  0  0  0  0  0  0  0  0  0  0
  147.7791  133.5324  152.0524 H   0  0  0  0  0  0  0  0  0  0  0  0
  146.9136  132.9484  149.8100 H   0  0  0  0  0  0  0  0  0  0  0  0
  146.1982  131.9450  151.0490 H   0  0  0  0  0  0  0  0  0  0  0  0
  144.8996  134.3837  149.7368 H   0  0  0  0  0  0  0  0  0  0  0  0
  144.4491  132.7139  149.4784 H   0  0  0  0  0  0  0  0  0  0  0  0
  142.9086  133.8300  151.0914 H   0  0  0  0  0  0  0  0  0  0  0  0
  143.7415  132.4809  151.8270 H   0  0  0  0  0  0  0  0  0  0  0  0
  144.4570  135.4390  152.1399 H   0  0  0  0  0  0  0  0  0  0  0  0
  143.5300  133.4958  153.9590 H   0  0  0  0  0  0  0  0  0  0  0  0
  1  2  2  0  0  0  0
  2  3  1  0  0  0  0
  2 14  1  0  0  0  0
  3  4  1  0  0  0  0
  3 23  1  0  0  0  0
  3 24  1  0  0  0  0
  4 12  1  0  0  0  0
  4  5  1  0  0  0  0
  5  6  2  0  0  0  0
  5 25  1  0  0  0  0
  6  7  1  0  0  0  0
  6 10  1  0  0  0  0
  7  8  2  0  0  0  0
  7  9  1  0  0  0  0
 10 11  2  0  0  0  0
 10 26  1  0  0  0  0
 11 12  1  0  0  0  0
 11 27  1  0  0  0  0
 12 13  2  0  0  0  0
 14 15  1  0  0  0  0
 14 28  1  0  0  0  0
 15 16  1  0  0  0  0
 15 29  1  0  0  0  0
 15 30  1  0  0  0  0
 16 21  1  0  0  0  0
 16 17  1  0  0  0  0
 16 31  1  0  0  0  0
 17 18  1  0  0  0  0
 17 32  1  0  0  0  0
 17 33  1  0  0  0  0
 18 19  1  0  0  0  0
 18 34  1  0  0  0  0
 18 35  1  0  0  0  0
 19 20  1  0  0  0  0
 19 36  1  0  0  0  0
 19 37  1  0  0  0  0
 20 21  1  0  0  0  0
 20 38  1  0  0  0  0
 20 39  1  0  0  0  0
 21 22  1  0  0  0  0
 21 40  1  0  0  0  0
 22 41  1  0  0  0  0
M  CHG  1   7   1
M  CHG  1   9  -1
M  END
> <s_m_source_file>
AV-unprocessed.smi

> <i_m_source_file_index>
771

> <i_lp_mmshare_version>
43012

> <i_f3d_flags>
0

> <s_epik_input>
Tz1jMVtjSF1bY0hdYyhbTitdKD1PKVtPLV0pW2NIXW4xW0NIMl1DKD1PKVtOSF1bQ0gyXVtDQEBIXTJbQ0gyXVtDSDJdW0NIMl1bQ0gyXVtDQEhdMltPSF0=

> <s_epik_cmdline>
J2VwaWtfcHl0aG9uJywgJy1waCcsICc3LjAnLCAnLXRuJywgJzgnLCAnLW1hJywgJzIwMCcsICctbWV0YWxfYmluZGluZycsICctaW1hZScsICc8aW5maWxlLm1hZT4nLCAnLW9tYWUnLCAnPG91dGZpbGUubWFlPic=

> <r_lp_tautomer_probability>
1

> <r_epik_Ionization_Penalty>
3.77175e-07

> <r_epik_Ionization_Penalty_Charging>
7.70067e-11

> <r_epik_Ionization_Penalty_Neutral>
3.77098e-07

> <r_epik_State_Penalty>
-0

> <r_epik_Charging_Adjusted_Penalty>
7.70067e-11

> <i_epik_Tot_Q>
0

> <i_epik_Tot_abs_Q>
2

> <r_epik_Metal_State_Penalty>
-0

> <b_epik_Metal_Only>
0

> <s_lp_Force_Field>
OPLS_2005

> <r_lp_Energy>
23.4116

> <b_lp_Chiralities_Consistent>
1

> <s_lp_Variant>
AV-unprocessed.smi:771-1

> <Gold.Version>
5.8.1

> <Gold.Id.Protein>
6NUR|6NUR_protein|mol2

> <Gold.PLP.Fitness>
49.3225

> <Gold.PLP.PLP>
-36.2370

> <Gold.PLP.part.hbond>
-4.0000

> <Gold.PLP.part.metal>
0.0000

> <Gold.PLP.part.buried>
-3.1433

> <Gold.PLP.part.nonpolar>
-29.0589

> <Gold.PLP.part.repulsive>
0.3084

> <Gold.PLP.ligand.clash>
0.0000

> <Gold.PLP.ligand.torsion>
0.3722

> <Gold.PLP.Chemscore.Hbond>
3.5913

> <Gold.PLP.Chemscore.CHOScore>
1.0000

> <Gold.PLP.Chemscore.Metal>
0.0000

> <Gold.Chemscore.Hbonds>
donor molecule, donor type, donor heavy atom, donor atom, acceptor molecule, acceptor atom, score
      L1  H    14    28       P1  7948  0.75
      L1  H    22    41       P1 10957  0.81
      P1  H  7997  8010       L1     8  1.00
      P1  H 10752 10764       L1     9  0.68
      L1  C     5    25       P1  7948  1.00

> <Gold.PLP.Chemscore.Internal.Correction>
0.0561

> <Gold.Rescore>
     Score         DG    S(hbond)    S(metal)    S(lipo)     H(rot)  DE(clash)    DE(int)     intcor
     18.85     -19.27       3.63        0.00      68.23       2.48       0.03       0.39       ----

> <Gold.Chemscore.Fitness>
18.8504

> <Gold.Chemscore.DG>
-19.2670

> <Gold.Chemscore.ZeroCoef>
-5.4800

> <Gold.Chemscore.Hbond>
3.6349

> <Gold.Chemscore.Metal>
0.0000

> <Gold.Chemscore.Lipo>
68.2337

> <Gold.Chemscore.Internal_Hbond>
0.0000

> <Gold.Chemscore.DEClash>
0.0267

> <Gold.Chemscore.DEInternal>
0.3899

> <Gold.Chemscore.Rot>
2.4753

> <Gold.Chemscore.Internal.Correction>
   9.000000E+99

> <Gold.Chemscore.Hbonds>
donor molecule, donor type, donor heavy atom, donor atom, acceptor molecule, acceptor atom, score
      L1  H    14    28       P1  7948  0.74
      L1  H    22    41       P1 10957  0.79
      P1  H  7997  8010       L1     8  1.00
      P1  H 10752 10764       L1     9  0.65

> <Gold.Chemscore.Hbond.Weighted>
-12.1405

> <Gold.Chemscore.Metal.Weighted>
-0.0000

> <Gold.Chemscore.Lipo.Weighted>
-7.9833

> <Gold.Chemscore.Internal_Hbond.Weighted>
0.0000

> <Gold.Chemscore.DEClash.Weighted>
0.0267

> <Gold.Chemscore.DEInternal.Weighted>
0.3899

> <Gold.Chemscore.Rot.Weighted>
6.3369

> <Gold.Chemscore.Internal.Correction.Weighted>
   9.000000E+99

> <Gold.Protein.RotatedTorsions>
[ 6907 6896 6895 6894 ] final   71.25 input  -60.11 | X-H torsion
[ 7974 7965 7964 7962 ] final   74.79 input  175.53 | X-H torsion
[ 8008 7997 7996 7995 ] final  102.60 input   59.86 | X-H torsion
[ 10167 10162 10161 10158 ] final   63.74 input  -65.29 | X-H torsion
[ 10718 10713 10712 10709 ] final  157.19 input   66.30 | X-H torsion
[ 10763 10752 10751 10750 ] final  -86.90 input  -60.55 | X-H torsion
[ 11005 11000 10999 10996 ] final   49.47 input  -57.11 | X-H torsion

> <Gold.Protein.ActiveResidues>
 VAL166  LYS551  ARG553  GLY616  TRP617  ASP618  TYR619  PRO620  LYS621  CYS622 
 ASP623  PHE694  ASN695  SER759  ASP760  ASP761  ALA762  ILE779  LEU786  VAL792 
 PHE793  MET794  SER795  GLU796  ALA797  LYS798  CYS799  TRP800  GLU811  SER814 

> <Gold.Protein.RotatedAtoms>
  152.4798  134.4748  159.9646 H   0  0  0  0  0  0  0  0  0  0  0  0  # atno 6907 bound_to 6896
  151.4757  133.3552  159.2838 H   0  0  0  0  0  0  0  0  0  0  0  0  # atno 6908 bound_to 6896
  150.8863  134.8287  159.7322 H   0  0  0  0  0  0  0  0  0  0  0  0  # atno 6909 bound_to 6896
  145.7238  139.2658  143.1580 H   0  0  0  0  0  0  0  0  0  0  0  0  # atno 7974 bound_to 7965
  156.1408  140.3178  155.8492 H   0  0  0  0  0  0  0  0  0  0  0  0  # atno 8008 bound_to 7997
  155.4158  140.0509  157.3046 H   0  0  0  0  0  0  0  0  0  0  0  0  # atno 8009 bound_to 7997
  154.4974  140.2116  155.9429 H   0  0  0  0  0  0  0  0  0  0  0  0  # atno 8010 bound_to 7997
  140.1298  144.4654  150.6871 H   0  0  0  0  0  0  0  0  0  0  0  0  # atno 10167 bound_to 10162
  157.1949  131.0663  151.2058 H   0  0  0  0  0  0  0  0  0  0  0  0  # atno 10718 bound_to 10713
  154.6276  135.5432  153.7645 H   0  0  0  0  0  0  0  0  0  0  0  0  # atno 10763 bound_to 10752
  153.0269  135.6428  154.1348 H   0  0  0  0  0  0  0  0  0  0  0  0  # atno 10764 bound_to 10752
  154.1279  135.2916  155.3172 H   0  0  0  0  0  0  0  0  0  0  0  0  # atno 10765 bound_to 10752
  140.1101  134.4966  155.8685 H   0  0  0  0  0  0  0  0  0  0  0  0  # atno 11005 bound_to 11000
  146.0601  140.7980  142.9739 LP  0  0  0  0  0  0  0  0  0  0  0  0  # atno 17320 bound_to 7965
  144.6910  140.3183  143.7236 LP  0  0  0  0  0  0  0  0  0  0  0  0  # atno 17321 bound_to 7965
  140.6824  143.2333  151.5350 LP  0  0  0  0  0  0  0  0  0  0  0  0  # atno 17342 bound_to 10162
  139.5525  144.2358  152.1556 LP  0  0  0  0  0  0  0  0  0  0  0  0  # atno 17343 bound_to 10162
  157.3824  130.7238  149.6639 LP  0  0  0  0  0  0  0  0  0  0  0  0  # atno 17370 bound_to 10713
  155.9707  130.4169  150.4251 LP  0  0  0  0  0  0  0  0  0  0  0  0  # atno 17371 bound_to 10713
  141.2128  133.6724  156.6688 LP  0  0  0  0  0  0  0  0  0  0  0  0  # atno 17394 bound_to 11000
  140.3103  134.8092  157.4170 LP  0  0  0  0  0  0  0  0  0  0  0  0  # atno 17395 bound_to 11000

$$$$
