AV-unprocessed.smi:573|AV-procd|sdf|2972|dock3
  -GOLD-   2262023483D 1   1.00000     0.00000
 Structure written by MMmdl.
 44 46  0  0  0  0  0  0  0  0  1 V2000
  149.5637  137.1153  155.2757 C   0  0  0  0  0  0  0  0  0  0  0  0
  151.0441  136.8818  155.6129 C   0  0  1  0  0  0  0  0  0  0  0  0
  151.8113  137.2323  154.4810 O   0  0  0  0  0  0  0  0  0  0  0  0
  151.5428  137.7164  156.8053 C   0  0  0  0  0  0  0  0  0  0  0  0
  151.3194  139.1383  156.6174 N   0  0  0  0  0  0  0  0  0  0  0  0
  151.6259  140.2450  157.4006 C   0  0  0  0  0  0  0  0  0  0  0  0
  152.2390  140.1762  158.5809 N   0  0  0  0  0  0  0  0  0  0  0  0
  152.3064  141.5056  158.9534 C   0  0  0  0  0  0  0  0  0  0  0  0
  152.8441  142.1066  160.1143 C   0  0  0  0  0  0  0  0  0  0  0  0
  152.7966  143.5062  160.2809 C   0  0  0  0  0  0  0  0  0  0  0  0
  152.2109  144.3238  159.2928 C   0  0  0  0  0  0  0  0  0  0  0  0
  151.6687  143.7464  158.1284 C   0  0  0  0  0  0  0  0  0  0  0  0
  151.7206  142.3491  157.9648 C   0  0  0  0  0  0  0  0  0  0  0  0
  151.2908  141.4818  156.9645 N   0  0  0  0  0  0  0  0  0  0  0  0
  150.6163  141.8471  155.7269 C   0  0  0  0  0  0  0  0  0  0  0  0
  149.1551  141.3690  155.7096 C   0  0  2  0  0  0  0  0  0  0  0  0
  148.4459  141.7140  154.3866 C   0  0  0  0  0  0  0  0  0  0  0  0
  146.9771  141.2779  154.4364 C   0  0  0  0  0  0  0  0  0  0  0  0
  146.3054  141.8643  155.6830 C   0  0  0  0  0  0  0  0  0  0  0  0
  147.1205  141.5240  156.9411 C   0  0  0  0  0  0  0  0  0  0  0  0
  148.4592  141.9851  156.7919 O   0  0  0  0  0  0  0  0  0  0  0  0
  148.9163  136.8025  156.0949 H   0  0  0  0  0  0  0  0  0  0  0  0
  149.2679  136.5461  154.3939 H   0  0  0  0  0  0  0  0  0  0  0  0
  149.3629  138.1685  155.0764 H   0  0  0  0  0  0  0  0  0  0  0  0
  151.2109  135.8219  155.8097 H   0  0  0  0  0  0  0  0  0  0  0  0
  151.2338  137.5970  153.8280 H   0  0  0  0  0  0  0  0  0  0  0  0
  151.0165  137.4193  157.7130 H   0  0  0  0  0  0  0  0  0  0  0  0
  152.6035  137.5349  156.9841 H   0  0  0  0  0  0  0  0  0  0  0  0
  150.8804  139.3626  155.7363 H   0  0  0  0  0  0  0  0  0  0  0  0
  153.2927  141.4892  160.8783 H   0  0  0  0  0  0  0  0  0  0  0  0
  153.2104  143.9545  161.1721 H   0  0  0  0  0  0  0  0  0  0  0  0
  152.1773  145.3947  159.4293 H   0  0  0  0  0  0  0  0  0  0  0  0
  151.2161  144.3697  157.3717 H   0  0  0  0  0  0  0  0  0  0  0  0
  150.6604  142.9306  155.6128 H   0  0  0  0  0  0  0  0  0  0  0  0
  151.1684  141.4290  154.8842 H   0  0  0  0  0  0  0  0  0  0  0  0
  149.1410  140.2868  155.8528 H   0  0  0  0  0  0  0  0  0  0  0  0
  148.5013  142.7886  154.2084 H   0  0  0  0  0  0  0  0  0  0  0  0
  148.9502  141.2312  153.5488 H   0  0  0  0  0  0  0  0  0  0  0  0
  146.4532  141.5974  153.5350 H   0  0  0  0  0  0  0  0  0  0  0  0
  146.9179  140.1891  154.4648 H   0  0  0  0  0  0  0  0  0  0  0  0
  146.2286  142.9476  155.5823 H   0  0  0  0  0  0  0  0  0  0  0  0
  145.2877  141.4849  155.7776 H   0  0  0  0  0  0  0  0  0  0  0  0
  146.6797  142.0049  157.8145 H   0  0  0  0  0  0  0  0  0  0  0  0
  147.1138  140.4499  157.1318 H   0  0  0  0  0  0  0  0  0  0  0  0
  1  2  1  0  0  0  0
  1 22  1  0  0  0  0
  1 23  1  0  0  0  0
  1 24  1  0  0  0  0
  2  3  1  0  0  0  0
  2  4  1  0  0  0  0
  2 25  1  0  0  0  0
  3 26  1  0  0  0  0
  4  5  1  0  0  0  0
  4 27  1  0  0  0  0
  4 28  1  0  0  0  0
  5  6  1  0  0  0  0
  5 29  1  0  0  0  0
  6 14  1  0  0  0  0
  6  7  2  0  0  0  0
  7  8  1  0  0  0  0
  8 13  2  0  0  0  0
  8  9  1  0  0  0  0
  9 10  2  0  0  0  0
  9 30  1  0  0  0  0
 10 11  1  0  0  0  0
 10 31  1  0  0  0  0
 11 12  2  0  0  0  0
 11 32  1  0  0  0  0
 12 13  1  0  0  0  0
 12 33  1  0  0  0  0
 13 14  1  0  0  0  0
 14 15  1  0  0  0  0
 15 16  1  0  0  0  0
 15 34  1  0  0  0  0
 15 35  1  0  0  0  0
 16 21  1  0  0  0  0
 16 17  1  0  0  0  0
 16 36  1  0  0  0  0
 17 18  1  0  0  0  0
 17 37  1  0  0  0  0
 17 38  1  0  0  0  0
 18 19  1  0  0  0  0
 18 39  1  0  0  0  0
 18 40  1  0  0  0  0
 19 20  1  0  0  0  0
 19 41  1  0  0  0  0
 19 42  1  0  0  0  0
 20 21  1  0  0  0  0
 20 43  1  0  0  0  0
 20 44  1  0  0  0  0
M  END
> <s_m_source_file>
AV-unprocessed.smi

> <i_m_source_file_index>
573

> <i_lp_mmshare_version>
43012

> <i_f3d_flags>
0

> <s_epik_input>
W0NIM11bQ0BIXShbT0hdKVtDSDJdW05IXWMobjEpbihjKGMxMilbY0hdW2NIXVtjSF1bY0hdMilbQ0gyXVtDQEBIXTNbQ0gyXVtDSDJdW0NIMl1bQ0gyXU8z

> <s_epik_cmdline>
J2VwaWtfcHl0aG9uJywgJy1waCcsICc3LjAnLCAnLXRuJywgJzgnLCAnLW1hJywgJzIwMCcsICctbWV0YWxfYmluZGluZycsICctaW1hZScsICc8aW5maWxlLm1hZT4nLCAnLW9tYWUnLCAnPG91dGZpbGUubWFlPic=

> <r_epik_Ionization_Penalty>
1.30635

> <r_epik_Ionization_Penalty_Charging>
0

> <r_epik_Ionization_Penalty_Neutral>
1.30635

> <r_epik_State_Penalty>
1.38073

> <r_epik_Charging_Adjusted_Penalty>
1.38073

> <i_epik_Tot_Q>
0

> <i_epik_Tot_abs_Q>
0

> <r_epik_Metal_State_Penalty>
0.00547412

> <b_epik_Metal_Only>
0

> <s_lp_Force_Field>
OPLS_2005

> <r_lp_Energy>
6.58613

> <b_lp_Chiralities_Consistent>
1

> <s_lp_Variant>
AV-unprocessed.smi:573-6

> <Gold.Version>
5.8.1

> <Gold.Id.Protein>
6NUR|6NUR_protein|mol2

> <Gold.PLP.Fitness>
41.6090

> <Gold.PLP.PLP>
-38.7496

> <Gold.PLP.part.hbond>
-1.0000

> <Gold.PLP.part.metal>
0.0000

> <Gold.PLP.part.buried>
-5.6761

> <Gold.PLP.part.nonpolar>
-31.4147

> <Gold.PLP.part.repulsive>
1.1923

> <Gold.PLP.ligand.clash>
0.0000

> <Gold.PLP.ligand.torsion>
0.0762

> <Gold.PLP.Chemscore.Hbond>
1.0000

> <Gold.PLP.Chemscore.CHOScore>
0.0000

> <Gold.PLP.Chemscore.Metal>
0.0000

> <Gold.Chemscore.Hbonds>
donor molecule, donor type, donor heavy atom, donor atom, acceptor molecule, acceptor atom, score
      P1  H 10752 10763       L1     3  0.90

> <Gold.PLP.Chemscore.Internal.Correction>
0.0118

> <Gold.Rescore>
     Score         DG    S(hbond)    S(metal)    S(lipo)     H(rot)  DE(clash)    DE(int)     intcor
     15.94     -16.04       0.92        0.00     108.22       2.02       0.04       0.05       ----

> <Gold.Chemscore.Fitness>
15.9429

> <Gold.Chemscore.DG>
-16.0351

> <Gold.Chemscore.ZeroCoef>
-5.4800

> <Gold.Chemscore.Hbond>
0.9195

> <Gold.Chemscore.Metal>
0.0000

> <Gold.Chemscore.Lipo>
108.2153

> <Gold.Chemscore.Internal_Hbond>
0.0000

> <Gold.Chemscore.DEClash>
0.0376

> <Gold.Chemscore.DEInternal>
0.0546

> <Gold.Chemscore.Rot>
2.0224

> <Gold.Chemscore.Internal.Correction>
   9.000000E+99

> <Gold.Chemscore.Hbonds>
donor molecule, donor type, donor heavy atom, donor atom, acceptor molecule, acceptor atom, score
      P1  H 10752 10763       L1     3  0.17

> <Gold.Chemscore.Hbond.Weighted>
-3.0712

> <Gold.Chemscore.Metal.Weighted>
-0.0000

> <Gold.Chemscore.Lipo.Weighted>
-12.6612

> <Gold.Chemscore.Internal_Hbond.Weighted>
0.0000

> <Gold.Chemscore.DEClash.Weighted>
0.0376

> <Gold.Chemscore.DEInternal.Weighted>
0.0546

> <Gold.Chemscore.Rot.Weighted>
5.1773

> <Gold.Chemscore.Internal.Correction.Weighted>
   9.000000E+99

> <Gold.Protein.RotatedTorsions>
[ 6907 6896 6895 6894 ] final  -32.81 input  -60.11 | X-H torsion
[ 7974 7965 7964 7962 ] final  123.59 input  175.53 | X-H torsion
[ 8008 7997 7996 7995 ] final   35.81 input   59.86 | X-H torsion
[ 10167 10162 10161 10158 ] final  -85.34 input  -65.29 | X-H torsion
[ 10718 10713 10712 10709 ] final -126.92 input   66.30 | X-H torsion
[ 10763 10752 10751 10750 ] final   49.50 input  -60.55 | X-H torsion
[ 11005 11000 10999 10996 ] final -130.98 input  -57.11 | X-H torsion

> <Gold.Protein.ActiveResidues>
 VAL166  LYS551  ARG553  GLY616  TRP617  ASP618  TYR619  PRO620  LYS621  CYS622 
 ASP623  PHE694  ASN695  SER759  ASP760  ASP761  ALA762  ILE779  LEU786  VAL792 
 PHE793  MET794  SER795  GLU796  ALA797  LYS798  CYS799  TRP800  GLU811  SER814 

> <Gold.Protein.RotatedAtoms>
  151.0738  134.9815  159.8321 H   0  0  0  0  0  0  0  0  0  0  0  0  # atno 6907 bound_to 6896
  152.5411  134.2266  159.8818 H   0  0  0  0  0  0  0  0  0  0  0  0  # atno 6908 bound_to 6896
  151.2292  133.4416  159.2637 H   0  0  0  0  0  0  0  0  0  0  0  0  # atno 6909 bound_to 6896
  145.0941  139.3565  143.4845 H   0  0  0  0  0  0  0  0  0  0  0  0  # atno 7974 bound_to 7965
  155.1771  140.3297  155.4382 H   0  0  0  0  0  0  0  0  0  0  0  0  # atno 8008 bound_to 7997
  156.2490  140.1933  156.6822 H   0  0  0  0  0  0  0  0  0  0  0  0  # atno 8009 bound_to 7997
  154.6297  140.0584  156.9703 H   0  0  0  0  0  0  0  0  0  0  0  0  # atno 8010 bound_to 7997
  140.4046  143.2648  151.9097 H   0  0  0  0  0  0  0  0  0  0  0  0  # atno 10167 bound_to 10162
  156.1809  130.6731  151.0304 H   0  0  0  0  0  0  0  0  0  0  0  0  # atno 10718 bound_to 10713
  152.9787  135.5910  154.4099 H   0  0  0  0  0  0  0  0  0  0  0  0  # atno 10763 bound_to 10752
  154.3735  135.2767  155.2254 H   0  0  0  0  0  0  0  0  0  0  0  0  # atno 10764 bound_to 10752
  154.4199  135.6061  153.6058 H   0  0  0  0  0  0  0  0  0  0  0  0  # atno 10765 bound_to 10752
  140.9299  134.1333  157.4243 H   0  0  0  0  0  0  0  0  0  0  0  0  # atno 11005 bound_to 11000
  146.3531  140.0789  142.8619 LP  0  0  0  0  0  0  0  0  0  0  0  0  # atno 17320 bound_to 7965
  145.1031  140.9358  143.4701 LP  0  0  0  0  0  0  0  0  0  0  0  0  # atno 17321 bound_to 7965
  139.4784  144.5599  151.8256 LP  0  0  0  0  0  0  0  0  0  0  0  0  # atno 17342 bound_to 10162
  140.4703  144.1596  150.5917 LP  0  0  0  0  0  0  0  0  0  0  0  0  # atno 17343 bound_to 10162
  157.6868  131.0822  150.7221 LP  0  0  0  0  0  0  0  0  0  0  0  0  # atno 17370 bound_to 10713
  156.7278  130.4700  149.5507 LP  0  0  0  0  0  0  0  0  0  0  0  0  # atno 17371 bound_to 10713
  139.8794  135.0001  156.5993 LP  0  0  0  0  0  0  0  0  0  0  0  0  # atno 17394 bound_to 11000
  140.7876  133.8608  155.8619 LP  0  0  0  0  0  0  0  0  0  0  0  0  # atno 17395 bound_to 11000

$$$$
