AV-unprocessed.smi:1215|AV-procd|sdf|5096|dock8
  -GOLD-   22720 4143D 1   1.00000     0.00000
 Structure written by MMmdl.
 46 47  0  0  0  0  0  0  0  0  2 V2000
  152.2300  143.8767  158.0341 C   0  0  0  0  0  0  0  0  0  0  0  0
  151.9516  142.4458  158.5096 C   0  0  0  0  0  0  0  0  0  0  0  0
  151.6304  141.5647  157.4038 N   0  0  0  0  0  0  0  0  0  0  0  0
  150.6138  141.6928  156.4781 C   0  0  0  0  0  0  0  0  0  0  0  0
  150.7342  140.6157  155.6460 C   0  0  0  0  0  0  0  0  0  0  0  0
  149.9492  140.2543  154.5219 N   0  0  0  0  0  0  0  0  0  0  0  0
  148.6187  140.0760  154.4800 C   0  0  0  0  0  0  0  0  0  0  0  0
  147.8545  140.2090  155.4362 O   0  0  0  0  0  0  0  0  0  0  0  0
  148.2104  139.7243  153.2525 N   0  0  0  0  0  0  0  0  0  0  0  0
  146.8260  139.4602  152.8783 C   0  0  0  0  0  0  0  0  0  0  0  0
  146.7394  138.5784  151.6164 C   0  0  0  0  0  0  0  0  0  0  0  0
  146.4916  137.1416  151.9154 N   0  3  2  0  0  0  0  0  0  0  0  0
  145.8278  136.4432  150.7811 C   0  0  0  0  0  0  0  0  0  0  0  0
  145.7775  134.9240  151.0079 C   0  0  0  0  0  0  0  0  0  0  0  0
  145.0892  134.5867  152.3343 C   0  0  0  0  0  0  0  0  0  0  0  0
  145.7813  135.3319  153.4837 C   0  0  0  0  0  0  0  0  0  0  0  0
  145.8479  136.8542  153.2365 C   0  0  2  0  0  0  0  0  0  0  0  0
  144.4739  137.5343  153.4178 C   0  0  0  0  0  0  0  0  0  0  0  0
  151.8467  139.8773  156.1273 C   0  0  0  0  0  0  0  0  0  0  0  0
  152.3823  140.4563  157.1909 N   0  0  0  0  0  0  0  0  0  0  0  0
  152.4545  144.5289  158.8782 H   0  0  0  0  0  0  0  0  0  0  0  0
  151.3676  144.2922  157.5122 H   0  0  0  0  0  0  0  0  0  0  0  0
  153.0817  143.9089  157.3539 H   0  0  0  0  0  0  0  0  0  0  0  0
  152.8176  142.0454  159.0388 H   0  0  0  0  0  0  0  0  0  0  0  0
  151.1190  142.4393  159.2141 H   0  0  0  0  0  0  0  0  0  0  0  0
  149.9195  142.5198  156.4999 H   0  0  0  0  0  0  0  0  0  0  0  0
  150.4565  140.1113  153.6608 H   0  0  0  0  0  0  0  0  0  0  0  0
  148.9057  139.6401  152.5249 H   0  0  0  0  0  0  0  0  0  0  0  0
  146.2950  138.9950  153.7108 H   0  0  0  0  0  0  0  0  0  0  0  0
  146.3571  140.4286  152.7077 H   0  0  0  0  0  0  0  0  0  0  0  0
  145.9840  138.9604  150.9295 H   0  0  0  0  0  0  0  0  0  0  0  0
  147.6883  138.6509  151.0834 H   0  0  0  0  0  0  0  0  0  0  0  0
  144.8228  136.8391  150.6327 H   0  0  0  0  0  0  0  0  0  0  0  0
  146.3761  136.6400  149.8591 H   0  0  0  0  0  0  0  0  0  0  0  0
  145.2530  134.4409  150.1828 H   0  0  0  0  0  0  0  0  0  0  0  0
  146.7909  134.5204  151.0089 H   0  0  0  0  0  0  0  0  0  0  0  0
  144.0348  134.8608  152.2877 H   0  0  0  0  0  0  0  0  0  0  0  0
  145.1220  133.5112  152.5105 H   0  0  0  0  0  0  0  0  0  0  0  0
  145.2720  135.1218  154.4250 H   0  0  0  0  0  0  0  0  0  0  0  0
  146.7945  134.9435  153.5974 H   0  0  0  0  0  0  0  0  0  0  0  0
  146.4999  137.2469  154.0160 H   0  0  0  0  0  0  0  0  0  0  0  0
  144.0409  137.2728  154.3836 H   0  0  0  0  0  0  0  0  0  0  0  0
  143.7580  137.2363  152.6525 H   0  0  0  0  0  0  0  0  0  0  0  0
  144.5531  138.6210  153.3957 H   0  0  0  0  0  0  0  0  0  0  0  0
  152.2746  138.9603  155.7496 H   0  0  0  0  0  0  0  0  0  0  0  0
  147.4099  136.7249  151.9733 H   0  0  0  0  0  0  0  0  0  0  0  0
  1  2  1  0  0  0  0
  1 21  1  0  0  0  0
  1 22  1  0  0  0  0
  1 23  1  0  0  0  0
  2  3  1  0  0  0  0
  2 24  1  0  0  0  0
  2 25  1  0  0  0  0
  3 20  1  0  0  0  0
  3  4  1  0  0  0  0
  4  5  2  0  0  0  0
  4 26  1  0  0  0  0
  5  6  1  0  0  0  0
  5 19  1  0  0  0  0
  6  7  1  0  0  0  0
  6 27  1  0  0  0  0
  7  8  2  0  0  0  0
  7  9  1  0  0  0  0
  9 10  1  0  0  0  0
  9 28  1  0  0  0  0
 10 11  1  0  0  0  0
 10 29  1  0  0  0  0
 10 30  1  0  0  0  0
 11 12  1  0  0  0  0
 11 31  1  0  0  0  0
 11 32  1  0  0  0  0
 12 17  1  0  0  0  0
 12 13  1  0  0  0  0
 12 46  1  0  0  0  0
 13 14  1  0  0  0  0
 13 33  1  0  0  0  0
 13 34  1  0  0  0  0
 14 15  1  0  0  0  0
 14 35  1  0  0  0  0
 14 36  1  0  0  0  0
 15 16  1  0  0  0  0
 15 37  1  0  0  0  0
 15 38  1  0  0  0  0
 16 17  1  0  0  0  0
 16 39  1  0  0  0  0
 16 40  1  0  0  0  0
 17 18  1  0  0  0  0
 17 41  1  0  0  0  0
 18 42  1  0  0  0  0
 18 43  1  0  0  0  0
 18 44  1  0  0  0  0
 19 20  2  0  0  0  0
 19 45  1  0  0  0  0
M  CHG  1  12   1
M  END
> <s_m_source_file>
AV-unprocessed.smi

> <i_m_source_file_index>
1215

> <i_lp_mmshare_version>
43012

> <i_f3d_flags>
0

> <s_epik_input>
W0NIM11bQ0gyXW4xW2NIXWMoW2NIXW4xKVtOSF1DKD1PKVtOSF1bQ0gyXVtDSDJdTjJbQ0gyXVtDSDJdW0NIMl1bQ0gyXVtDQEhdMltDSDNd

> <s_epik_cmdline>
J2VwaWtfcHl0aG9uJywgJy1waCcsICc3LjAnLCAnLXRuJywgJzgnLCAnLW1hJywgJzIwMCcsICctbWV0YWxfYmluZGluZycsICctaW1hZScsICc8aW5maWxlLm1hZT4nLCAnLW9tYWUnLCAnPG91dGZpbGUubWFlPic=

> <r_lp_tautomer_probability>
1

> <r_epik_Ionization_Penalty>
0.00247187

> <r_epik_Ionization_Penalty_Charging>
0.00232067

> <r_epik_Ionization_Penalty_Neutral>
0.000151201

> <r_epik_State_Penalty>
0.00160128

> <r_epik_Charging_Adjusted_Penalty>
0.00392194

> <i_epik_Tot_Q>
1

> <i_epik_Tot_abs_Q>
1

> <r_epik_Metal_State_Penalty>
-0

> <b_epik_Metal_Only>
0

> <s_lp_Force_Field>
OPLS_2005

> <r_lp_Energy>
24.1958

> <b_lp_Chiralities_Consistent>
1

> <s_lp_Variant>
AV-unprocessed.smi:1215-3

> <Gold.Version>
5.8.1

> <Gold.Id.Protein>
6NUR|6NUR_protein|mol2

> <Gold.PLP.Fitness>
45.1098

> <Gold.PLP.PLP>
-34.0342

> <Gold.PLP.part.hbond>
-3.0000

> <Gold.PLP.part.metal>
0.0000

> <Gold.PLP.part.buried>
-0.3049

> <Gold.PLP.part.nonpolar>
-30.8971

> <Gold.PLP.part.repulsive>
1.3380

> <Gold.PLP.ligand.clash>
0.0000

> <Gold.PLP.ligand.torsion>
1.3417

> <Gold.PLP.Chemscore.Hbond>
3.5705

> <Gold.PLP.Chemscore.CHOScore>
1.0000

> <Gold.PLP.Chemscore.Metal>
0.0000

> <Gold.Chemscore.Hbonds>
donor molecule, donor type, donor heavy atom, donor atom, acceptor molecule, acceptor atom, score
      L1  H     9    28       P1  7957  1.00
      L1  H    12    46       P1  7948  2.00
      P1  H  7997  8008       L1    20  0.64
      L1  C     4    26       P1  8028  0.90

> <Gold.PLP.Chemscore.Internal.Correction>
0.0476

> <Gold.Rescore>
     Score         DG    S(hbond)    S(metal)    S(lipo)     H(rot)  DE(clash)    DE(int)     intcor
     17.24     -18.71       2.17        0.00      85.88       1.59       0.26       1.21       ----

> <Gold.Chemscore.Fitness>
17.2434

> <Gold.Chemscore.DG>
-18.7080

> <Gold.Chemscore.ZeroCoef>
-5.4800

> <Gold.Chemscore.Hbond>
2.1715

> <Gold.Chemscore.Metal>
0.0000

> <Gold.Chemscore.Lipo>
85.8802

> <Gold.Chemscore.Internal_Hbond>
0.0000

> <Gold.Chemscore.DEClash>
0.2595

> <Gold.Chemscore.DEInternal>
1.2051

> <Gold.Chemscore.Rot>
1.5909

> <Gold.Chemscore.Internal.Correction>
   9.000000E+99

> <Gold.Chemscore.Hbonds>
donor molecule, donor type, donor heavy atom, donor atom, acceptor molecule, acceptor atom, score
      L1  H     9    28       P1  7957  0.96
      L1  H    12    46       P1  7948  0.99
      P1  H  7997  8008       L1    20  0.12

> <Gold.Chemscore.Hbond.Weighted>
-7.2528

> <Gold.Chemscore.Metal.Weighted>
-0.0000

> <Gold.Chemscore.Lipo.Weighted>
-10.0480

> <Gold.Chemscore.Internal_Hbond.Weighted>
0.0000

> <Gold.Chemscore.DEClash.Weighted>
0.2595

> <Gold.Chemscore.DEInternal.Weighted>
1.2051

> <Gold.Chemscore.Rot.Weighted>
4.0728

> <Gold.Chemscore.Internal.Correction.Weighted>
   9.000000E+99

> <Gold.Protein.RotatedTorsions>
[ 6907 6896 6895 6894 ] final    7.50 input  -60.11 | X-H torsion
[ 7974 7965 7964 7962 ] final   73.53 input  175.53 | X-H torsion
[ 8008 7997 7996 7995 ] final  -67.15 input   59.86 | X-H torsion
[ 10167 10162 10161 10158 ] final    9.71 input  -65.29 | X-H torsion
[ 10718 10713 10712 10709 ] final  -63.77 input   66.30 | X-H torsion
[ 10763 10752 10751 10750 ] final   33.95 input  -60.55 | X-H torsion
[ 11005 11000 10999 10996 ] final -175.14 input  -57.11 | X-H torsion

> <Gold.Protein.ActiveResidues>
 VAL166  LYS551  ARG553  GLY616  TRP617  ASP618  TYR619  PRO620  LYS621  CYS622 
 ASP623  PHE694  ASN695  SER759  ASP760  ASP761  ALA762  ILE779  LEU786  VAL792 
 PHE793  MET794  SER795  GLU796  ALA797  LYS798  CYS799  TRP800  GLU811  SER814 

> <Gold.Protein.RotatedAtoms>
  151.6908  135.0946  160.0233 H   0  0  0  0  0  0  0  0  0  0  0  0  # atno 6907 bound_to 6896
  152.3779  133.6502  159.6147 H   0  0  0  0  0  0  0  0  0  0  0  0  # atno 6908 bound_to 6896
  150.7724  133.9079  159.3402 H   0  0  0  0  0  0  0  0  0  0  0  0  # atno 6909 bound_to 6896
  145.7397  139.2716  143.1494 H   0  0  0  0  0  0  0  0  0  0  0  0  # atno 7974 bound_to 7965
  154.4781  140.0898  156.7311 H   0  0  0  0  0  0  0  0  0  0  0  0  # atno 8008 bound_to 7997
  155.4543  140.3458  155.4286 H   0  0  0  0  0  0  0  0  0  0  0  0  # atno 8009 bound_to 7997
  156.1148  140.1458  156.9276 H   0  0  0  0  0  0  0  0  0  0  0  0  # atno 8010 bound_to 7997
  140.6239  143.8145  150.7208 H   0  0  0  0  0  0  0  0  0  0  0  0  # atno 10167 bound_to 10162
  156.0770  130.4225  150.1324 H   0  0  0  0  0  0  0  0  0  0  0  0  # atno 10718 bound_to 10713
  153.0187  135.6373  154.1592 H   0  0  0  0  0  0  0  0  0  0  0  0  # atno 10763 bound_to 10752
  154.1328  135.2839  155.3182 H   0  0  0  0  0  0  0  0  0  0  0  0  # atno 10764 bound_to 10752
  154.6182  135.5534  153.7607 H   0  0  0  0  0  0  0  0  0  0  0  0  # atno 10765 bound_to 10752
  140.4666  134.6204  157.4865 H   0  0  0  0  0  0  0  0  0  0  0  0  # atno 11005 bound_to 11000
  146.0460  140.8118  142.9805 LP  0  0  0  0  0  0  0  0  0  0  0  0  # atno 17320 bound_to 7965
  144.6873  140.2981  143.7267 LP  0  0  0  0  0  0  0  0  0  0  0  0  # atno 17321 bound_to 7965
  140.1741  143.4170  152.1980 LP  0  0  0  0  0  0  0  0  0  0  0  0  # atno 17342 bound_to 10162
  139.5462  144.7300  151.4575 LP  0  0  0  0  0  0  0  0  0  0  0  0  # atno 17343 bound_to 10162
  156.9363  130.9730  151.3524 LP  0  0  0  0  0  0  0  0  0  0  0  0  # atno 17370 bound_to 10713
  157.5870  130.8417  149.8604 LP  0  0  0  0  0  0  0  0  0  0  0  0  # atno 17371 bound_to 10713
  139.9911  134.6983  155.9687 LP  0  0  0  0  0  0  0  0  0  0  0  0  # atno 17394 bound_to 11000
  141.1596  133.6540  156.4276 LP  0  0  0  0  0  0  0  0  0  0  0  0  # atno 17395 bound_to 11000

$$$$
