AV-unprocessed.smi:212|AV-procd|sdf|1627|dock10
  -GOLD-   2262019573D 1   1.00000     0.00000
 Structure written by MMmdl.
 65 68  0  0  0  0  0  0  0  0  2 V2000
  146.8224  135.0566  156.6854 C   0  0  0  0  0  0  0  0  0  0  0  0
  147.6584  135.8812  155.6920 C   0  0  2  0  0  0  0  0  0  0  0  0
  147.6001  135.3034  154.2621 C   0  0  0  0  0  0  0  0  0  0  0  0
  148.3793  134.0419  154.1496 N   0  3  1  0  0  0  0  0  0  0  0  0
  148.2423  133.3800  152.8253 C   0  0  0  0  0  0  0  0  0  0  0  0
  146.9370  132.5590  152.7021 C   0  0  0  0  0  0  0  0  0  0  0  0
  146.8980  131.4624  153.7796 C   0  0  0  0  0  0  0  0  0  0  0  0
  145.6796  133.4429  152.7971 C   0  0  0  0  0  0  0  0  0  0  0  0
  146.9203  131.8960  151.4536 O   0  0  0  0  0  0  0  0  0  0  0  0
  149.7910  134.2196  154.5733 C   0  0  0  0  0  0  0  0  0  0  0  0
  149.8705  134.7995  155.9975 C   0  0  0  0  0  0  0  0  0  0  0  0
  149.0516  136.0059  156.1290 N   0  0  0  0  0  0  0  0  0  0  0  0
  149.6334  137.2178  155.9291 C   0  0  0  0  0  0  0  0  0  0  0  0
  149.5408  137.8236  154.7154 N   0  0  0  0  0  0  0  0  0  0  0  0
  150.0995  139.0207  154.5128 C   0  0  0  0  0  0  0  0  0  0  0  0
  150.7871  139.7762  155.3706 N   0  0  0  0  0  0  0  0  0  0  0  0
  150.8920  139.1709  156.5879 C   0  0  0  0  0  0  0  0  0  0  0  0
  150.3497  137.9054  156.9496 C   0  0  0  0  0  0  0  0  0  0  0  0
  150.6664  137.6161  158.2720 N   0  0  0  0  0  0  0  0  0  0  0  0
  151.3480  138.6550  158.6718 C   0  0  0  0  0  0  0  0  0  0  0  0
  151.5272  139.6375  157.7253 N   0  0  0  0  0  0  0  0  0  0  0  0
  152.2456  140.8872  157.9024 C   0  0  0  0  0  0  0  0  0  0  0  0
  151.4959  141.8879  158.8213 C   0  0  2  0  0  0  0  0  0  0  0  0
  150.4270  142.6880  158.0387 C   0  0  0  0  0  0  0  0  0  0  0  0
  151.0188  143.5007  157.0466 O   0  0  0  0  0  0  0  0  0  0  0  0
  152.4577  142.8216  159.6106 C   0  0  1  0  0  0  0  0  0  0  0  0
  151.7478  143.7871  160.5644 C   0  0  0  0  0  0  0  0  0  0  0  0
  152.4892  143.6191  161.8886 C   0  0  0  0  0  0  0  0  0  0  0  0
  152.9767  142.2900  161.8285 O   0  0  0  0  0  0  0  0  0  0  0  0
  153.4726  142.1005  160.5132 C   0  0  0  0  0  0  0  0  0  0  0  0
  145.7770  135.0224  156.3784 H   0  0  0  0  0  0  0  0  0  0  0  0
  146.8561  135.4979  157.6820 H   0  0  0  0  0  0  0  0  0  0  0  0
  147.1739  134.0277  156.7645 H   0  0  0  0  0  0  0  0  0  0  0  0
  147.1972  136.8676  155.6470 H   0  0  0  0  0  0  0  0  0  0  0  0
  146.5623  135.1394  153.9716 H   0  0  0  0  0  0  0  0  0  0  0  0
  148.0064  136.0318  153.5583 H   0  0  0  0  0  0  0  0  0  0  0  0
  148.3114  134.1199  152.0260 H   0  0  0  0  0  0  0  0  0  0  0  0
  149.0839  132.7039  152.6653 H   0  0  0  0  0  0  0  0  0  0  0  0
  146.8981  131.8937  154.7814 H   0  0  0  0  0  0  0  0  0  0  0  0
  147.7613  130.7996  153.7068 H   0  0  0  0  0  0  0  0  0  0  0  0
  146.0027  130.8458  153.6897 H   0  0  0  0  0  0  0  0  0  0  0  0
  145.6533  133.9889  153.7407 H   0  0  0  0  0  0  0  0  0  0  0  0
  144.7695  132.8444  152.7397 H   0  0  0  0  0  0  0  0  0  0  0  0
  145.6352  134.1754  151.9905 H   0  0  0  0  0  0  0  0  0  0  0  0
  147.7879  131.5659  151.2751 H   0  0  0  0  0  0  0  0  0  0  0  0
  150.3086  133.2600  154.5457 H   0  0  0  0  0  0  0  0  0  0  0  0
  150.2994  134.8757  153.8652 H   0  0  0  0  0  0  0  0  0  0  0  0
  149.5104  134.0611  156.7140 H   0  0  0  0  0  0  0  0  0  0  0  0
  150.9072  134.9961  156.2740 H   0  0  0  0  0  0  0  0  0  0  0  0
  149.9774  139.4325  153.5218 H   0  0  0  0  0  0  0  0  0  0  0  0
  151.7415  138.7350  159.6750 H   0  0  0  0  0  0  0  0  0  0  0  0
  153.2287  140.6416  158.3017 H   0  0  0  0  0  0  0  0  0  0  0  0
  152.4225  141.3235  156.9195 H   0  0  0  0  0  0  0  0  0  0  0  0
  150.9584  141.2951  159.5635 H   0  0  0  0  0  0  0  0  0  0  0  0
  149.6998  142.0219  157.5740 H   0  0  0  0  0  0  0  0  0  0  0  0
  149.8701  143.3514  158.6993 H   0  0  0  0  0  0  0  0  0  0  0  0
  150.3812  144.1366  156.7594 H   0  0  0  0  0  0  0  0  0  0  0  0
  153.0191  143.4247  158.8964 H   0  0  0  0  0  0  0  0  0  0  0  0
  151.7847  144.8188  160.2131 H   0  0  0  0  0  0  0  0  0  0  0  0
  150.6964  143.5322  160.6907 H   0  0  0  0  0  0  0  0  0  0  0  0
  153.3293  144.3124  161.9553 H   0  0  0  0  0  0  0  0  0  0  0  0
  151.8460  143.7741  162.7548 H   0  0  0  0  0  0  0  0  0  0  0  0
  153.6018  141.0434  160.2829 H   0  0  0  0  0  0  0  0  0  0  0  0
  154.4527  142.5737  160.4348 H   0  0  0  0  0  0  0  0  0  0  0  0
  147.9736  133.4014  154.8170 H   0  0  0  0  0  0  0  0  0  0  0  0
  1  2  1  0  0  0  0
  1 31  1  0  0  0  0
  1 32  1  0  0  0  0
  1 33  1  0  0  0  0
  2 12  1  0  0  0  0
  2  3  1  0  0  0  0
  2 34  1  0  0  0  0
  3  4  1  0  0  0  0
  3 35  1  0  0  0  0
  3 36  1  0  0  0  0
  4  5  1  0  0  0  0
  4 10  1  0  0  0  0
  4 65  1  0  0  0  0
  5  6  1  0  0  0  0
  5 37  1  0  0  0  0
  5 38  1  0  0  0  0
  6  7  1  0  0  0  0
  6  8  1  0  0  0  0
  6  9  1  0  0  0  0
  7 39  1  0  0  0  0
  7 40  1  0  0  0  0
  7 41  1  0  0  0  0
  8 42  1  0  0  0  0
  8 43  1  0  0  0  0
  8 44  1  0  0  0  0
  9 45  1  0  0  0  0
 10 11  1  0  0  0  0
 10 46  1  0  0  0  0
 10 47  1  0  0  0  0
 11 12  1  0  0  0  0
 11 48  1  0  0  0  0
 11 49  1  0  0  0  0
 12 13  1  0  0  0  0
 13 18  1  0  0  0  0
 13 14  2  0  0  0  0
 14 15  1  0  0  0  0
 15 16  2  0  0  0  0
 15 50  1  0  0  0  0
 16 17  1  0  0  0  0
 17 21  1  0  0  0  0
 17 18  2  0  0  0  0
 18 19  1  0  0  0  0
 19 20  2  0  0  0  0
 20 21  1  0  0  0  0
 20 51  1  0  0  0  0
 21 22  1  0  0  0  0
 22 23  1  0  0  0  0
 22 52  1  0  0  0  0
 22 53  1  0  0  0  0
 23 24  1  0  0  0  0
 23 26  1  0  0  0  0
 23 54  1  0  0  0  0
 24 25  1  0  0  0  0
 24 55  1  0  0  0  0
 24 56  1  0  0  0  0
 25 57  1  0  0  0  0
 26 30  1  0  0  0  0
 26 27  1  0  0  0  0
 26 58  1  0  0  0  0
 27 28  1  0  0  0  0
 27 59  1  0  0  0  0
 27 60  1  0  0  0  0
 28 29  1  0  0  0  0
 28 61  1  0  0  0  0
 28 62  1  0  0  0  0
 29 30  1  0  0  0  0
 30 63  1  0  0  0  0
 30 64  1  0  0  0  0
M  CHG  1   4   1
M  END
> <s_m_source_file>
AV-unprocessed.smi

> <i_m_source_file_index>
212

> <i_lp_mmshare_version>
43012

> <i_f3d_flags>
0

> <s_epik_input>
W0NIM11bQ0BASF0xW0NIMl1OKFtDSDJdQyhbQ0gzXSkoW0NIM10pW09IXSlbQ0gyXVtDSDJdTjFjKG5bY0hdbjIpYyhjMjMpbltjSF1uM1tDSDJdW0NASF0oW0NIMl1bT0hdKVtDQEBIXTRbQ0gyXVtDSDJdT1tDSDJdNA==

> <s_epik_cmdline>
J2VwaWtfcHl0aG9uJywgJy1waCcsICc3LjAnLCAnLXRuJywgJzgnLCAnLW1hJywgJzIwMCcsICctbWV0YWxfYmluZGluZycsICctaW1hZScsICc8aW5maWxlLm1hZT4nLCAnLW9tYWUnLCAnPG91dGZpbGUubWFlPic=

> <r_lp_tautomer_probability>
1

> <r_epik_Ionization_Penalty>
0.00182193

> <r_epik_Ionization_Penalty_Charging>
0.00173996

> <r_epik_Ionization_Penalty_Neutral>
8.19718e-05

> <r_epik_State_Penalty>
-0

> <r_epik_Charging_Adjusted_Penalty>
0.00173996

> <i_epik_Tot_Q>
1

> <i_epik_Tot_abs_Q>
1

> <r_epik_Metal_State_Penalty>
-0

> <b_epik_Metal_Only>
0

> <s_lp_Force_Field>
OPLS_2005

> <r_lp_Energy>
60.0337

> <b_lp_Chiralities_Consistent>
1

> <s_lp_Variant>
AV-unprocessed.smi:212-11

> <Gold.Version>
5.8.1

> <Gold.Id.Protein>
6NUR|6NUR_protein|mol2

> <Gold.PLP.Fitness>
49.6276

> <Gold.PLP.PLP>
-43.2466

> <Gold.PLP.part.hbond>
-2.2001

> <Gold.PLP.part.metal>
0.0000

> <Gold.PLP.part.buried>
-6.6530

> <Gold.PLP.part.nonpolar>
-33.6850

> <Gold.PLP.part.repulsive>
0.2586

> <Gold.PLP.ligand.clash>
0.0000

> <Gold.PLP.ligand.torsion>
1.8996

> <Gold.PLP.Chemscore.Hbond>
2.0682

> <Gold.PLP.Chemscore.CHOScore>
1.0000

> <Gold.PLP.Chemscore.Metal>
0.0000

> <Gold.Chemscore.Hbonds>
donor molecule, donor type, donor heavy atom, donor atom, acceptor molecule, acceptor atom, score
      L1  H     9    45       P1 10747  1.00
      L1  H    25    57       P1  8028  1.00
      P1  H  7989  7998       L1    16  0.09
      L1  C    15    50       P1  7957  1.00

> <Gold.PLP.Chemscore.Internal.Correction>
0.9754

> <Gold.Rescore>
     Score         DG    S(hbond)    S(metal)    S(lipo)     H(rot)  DE(clash)    DE(int)     intcor
     13.16     -15.22       1.99        0.00     100.98       3.40       0.20       1.86       ----

> <Gold.Chemscore.Fitness>
13.1572

> <Gold.Chemscore.DG>
-15.2248

> <Gold.Chemscore.ZeroCoef>
-5.4800

> <Gold.Chemscore.Hbond>
1.9852

> <Gold.Chemscore.Metal>
0.0000

> <Gold.Chemscore.Lipo>
100.9811

> <Gold.Chemscore.Internal_Hbond>
0.0000

> <Gold.Chemscore.DEClash>
0.2041

> <Gold.Chemscore.DEInternal>
1.8635

> <Gold.Chemscore.Rot>
3.3986

> <Gold.Chemscore.Internal.Correction>
   9.000000E+99

> <Gold.Chemscore.Hbonds>
donor molecule, donor type, donor heavy atom, donor atom, acceptor molecule, acceptor atom, score
      L1  H     9    45       P1 10747  0.98
      L1  H    25    57       P1  8028  0.97

> <Gold.Chemscore.Hbond.Weighted>
-6.6305

> <Gold.Chemscore.Metal.Weighted>
-0.0000

> <Gold.Chemscore.Lipo.Weighted>
-11.8148

> <Gold.Chemscore.Internal_Hbond.Weighted>
0.0000

> <Gold.Chemscore.DEClash.Weighted>
0.2041

> <Gold.Chemscore.DEInternal.Weighted>
1.8635

> <Gold.Chemscore.Rot.Weighted>
8.7005

> <Gold.Chemscore.Internal.Correction.Weighted>
   9.000000E+99

> <Gold.Protein.RotatedTorsions>
[ 6907 6896 6895 6894 ] final  -57.49 input  -60.11 | X-H torsion
[ 7974 7965 7964 7962 ] final -103.75 input  175.53 | X-H torsion
[ 8008 7997 7996 7995 ] final  -54.18 input   59.86 | X-H torsion
[ 10167 10162 10161 10158 ] final   59.04 input  -65.29 | X-H torsion
[ 10718 10713 10712 10709 ] final  -53.15 input   66.30 | X-H torsion
[ 10763 10752 10751 10750 ] final -163.41 input  -60.55 | X-H torsion
[ 11005 11000 10999 10996 ] final  -38.77 input  -57.11 | X-H torsion

> <Gold.Protein.ActiveResidues>
 VAL166  LYS551  ARG553  GLY616  TRP617  ASP618  TYR619  PRO620  LYS621  CYS622 
 ASP623  PHE694  ASN695  SER759  ASP760  ASP761  ALA762  ILE779  LEU786  VAL792 
 PHE793  MET794  SER795  GLU796  ALA797  LYS798  CYS799  TRP800  GLU811  SER814 

> <Gold.Protein.RotatedAtoms>
  150.8082  134.7220  159.6663 H   0  0  0  0  0  0  0  0  0  0  0  0  # atno 6907 bound_to 6896
  152.4202  134.5966  159.9998 H   0  0  0  0  0  0  0  0  0  0  0  0  # atno 6908 bound_to 6896
  151.6183  133.3304  159.3118 H   0  0  0  0  0  0  0  0  0  0  0  0  # atno 6909 bound_to 6896
  145.2519  140.9241  143.3090 H   0  0  0  0  0  0  0  0  0  0  0  0  # atno 7974 bound_to 7965
  154.4155  140.1182  156.5274 H   0  0  0  0  0  0  0  0  0  0  0  0  # atno 8008 bound_to 7997
  155.6641  140.3496  155.4774 H   0  0  0  0  0  0  0  0  0  0  0  0  # atno 8009 bound_to 7997
  155.9689  140.1137  157.0820 H   0  0  0  0  0  0  0  0  0  0  0  0  # atno 8010 bound_to 7997
  140.1808  144.4184  150.6616 H   0  0  0  0  0  0  0  0  0  0  0  0  # atno 10167 bound_to 10162
  156.1559  130.4150  149.9869 H   0  0  0  0  0  0  0  0  0  0  0  0  # atno 10718 bound_to 10713
  154.7125  135.3009  154.9175 H   0  0  0  0  0  0  0  0  0  0  0  0  # atno 10763 bound_to 10752
  154.0073  135.6699  153.4767 H   0  0  0  0  0  0  0  0  0  0  0  0  # atno 10764 bound_to 10752
  153.0766  135.5031  154.8331 H   0  0  0  0  0  0  0  0  0  0  0  0  # atno 10765 bound_to 10752
  141.0053  133.6935  156.2098 H   0  0  0  0  0  0  0  0  0  0  0  0  # atno 11005 bound_to 11000
  144.9495  139.4098  143.6409 LP  0  0  0  0  0  0  0  0  0  0  0  0  # atno 17320 bound_to 7965
  146.3300  139.8495  142.8875 LP  0  0  0  0  0  0  0  0  0  0  0  0  # atno 17321 bound_to 7965
  140.6521  143.2227  151.6053 LP  0  0  0  0  0  0  0  0  0  0  0  0  # atno 17342 bound_to 10162
  139.5297  144.2952  152.1119 LP  0  0  0  0  0  0  0  0  0  0  0  0  # atno 17343 bound_to 10162
  156.7713  130.9187  151.3644 LP  0  0  0  0  0  0  0  0  0  0  0  0  # atno 17370 bound_to 10713
  157.6695  130.9038  150.0007 LP  0  0  0  0  0  0  0  0  0  0  0  0  # atno 17371 bound_to 10713
  140.6823  134.4753  157.5589 LP  0  0  0  0  0  0  0  0  0  0  0  0  # atno 17394 bound_to 11000
  139.9060  134.8449  156.1706 LP  0  0  0  0  0  0  0  0  0  0  0  0  # atno 17395 bound_to 11000

$$$$
