AV-unprocessed.smi:2062|AV-procd|sdf|8402|dock9
  -GOLD-   2272011 93D 1   1.00000     0.00000
 Structure written by MMmdl.
 42 43  0  0  0  0  0  0  0  0  3 V2000
  148.6557  132.0395  155.2396 C   0  0  0  0  0  0  0  0  0  0  0  0
  148.4127  133.4618  154.7136 C   0  0  0  0  0  0  0  0  0  0  0  0
  147.9882  133.4228  153.2358 C   0  0  0  0  0  0  0  0  0  0  0  0
  149.6639  134.3401  154.9318 C   0  0  0  0  0  0  0  0  0  0  0  0
  149.4408  135.7722  154.6058 N   0  3  1  0  0  0  0  0  0  0  0  0
  148.2579  136.3588  155.2833 C   0  0  0  0  0  0  0  0  0  0  0  0
  148.0839  137.8317  154.8810 C   0  0  0  0  0  0  0  0  0  0  0  0
  149.2743  138.5446  155.1832 O   0  0  0  0  0  0  0  0  0  0  0  0
  150.3963  138.0650  154.4495 C   0  0  1  0  0  0  0  0  0  0  0  0
  151.6133  138.9572  154.7512 C   0  0  0  0  0  0  0  0  0  0  0  0
  151.6078  139.4209  156.1345 N   0  0  0  0  0  0  0  0  0  0  0  0
  151.3385  140.6678  156.5457 C   0  0  0  0  0  0  0  0  0  0  0  0
  151.0342  141.5358  155.7244 O   0  0  0  0  0  0  0  0  0  0  0  0
  151.4444  140.8317  157.8833 N   0  5  0  0  0  0  0  0  0  0  0  0
  151.6745  142.0526  158.3935 C   0  0  0  0  0  0  0  0  0  0  0  0
  152.1093  142.2498  159.6435 N   0  0  0  0  0  0  0  0  0  0  0  0
  152.2772  143.5976  159.9666 C   0  0  0  0  0  0  0  0  0  0  0  0
  151.9554  144.4468  158.9411 C   0  0  0  0  0  0  0  0  0  0  0  0
  151.4274  143.5736  157.5309 S   0  0  0  0  0  0  0  0  0  0  0  0
  150.6449  136.5998  154.8573 C   0  0  0  0  0  0  0  0  0  0  0  0
  149.4714  131.5512  154.7051 H   0  0  0  0  0  0  0  0  0  0  0  0
  147.7655  131.4201  155.1255 H   0  0  0  0  0  0  0  0  0  0  0  0
  148.9124  132.0502  156.2993 H   0  0  0  0  0  0  0  0  0  0  0  0
  147.5829  133.8688  155.2901 H   0  0  0  0  0  0  0  0  0  0  0  0
  148.7820  133.0210  152.6052 H   0  0  0  0  0  0  0  0  0  0  0  0
  147.7384  134.4171  152.8650 H   0  0  0  0  0  0  0  0  0  0  0  0
  147.1069  132.7956  153.0985 H   0  0  0  0  0  0  0  0  0  0  0  0
  150.0143  134.2602  155.9619 H   0  0  0  0  0  0  0  0  0  0  0  0
  150.4687  133.9485  154.3074 H   0  0  0  0  0  0  0  0  0  0  0  0
  147.3538  135.8096  155.0239 H   0  0  0  0  0  0  0  0  0  0  0  0
  148.3799  136.2831  156.3650 H   0  0  0  0  0  0  0  0  0  0  0  0
  147.8464  137.9241  153.8200 H   0  0  0  0  0  0  0  0  0  0  0  0
  147.2562  138.2767  155.4332 H   0  0  0  0  0  0  0  0  0  0  0  0
  150.1808  138.1131  153.3801 H   0  0  0  0  0  0  0  0  0  0  0  0
  152.5445  138.4393  154.5157 H   0  0  0  0  0  0  0  0  0  0  0  0
  151.5857  139.8424  154.1153 H   0  0  0  0  0  0  0  0  0  0  0  0
  151.8447  138.7435  156.8445 H   0  0  0  0  0  0  0  0  0  0  0  0
  152.6297  143.8624  160.9521 H   0  0  0  0  0  0  0  0  0  0  0  0
  151.9947  145.5255  158.9283 H   0  0  0  0  0  0  0  0  0  0  0  0
  150.9128  136.5421  155.9138 H   0  0  0  0  0  0  0  0  0  0  0  0
  151.4873  136.2012  154.2903 H   0  0  0  0  0  0  0  0  0  0  0  0
  149.2681  135.8205  153.6117 H   0  0  0  0  0  0  0  0  0  0  0  0
  1  2  1  0  0  0  0
  1 21  1  0  0  0  0
  1 22  1  0  0  0  0
  1 23  1  0  0  0  0
  2  3  1  0  0  0  0
  2  4  1  0  0  0  0
  2 24  1  0  0  0  0
  3 25  1  0  0  0  0
  3 26  1  0  0  0  0
  3 27  1  0  0  0  0
  4  5  1  0  0  0  0
  4 28  1  0  0  0  0
  4 29  1  0  0  0  0
  5 20  1  0  0  0  0
  5  6  1  0  0  0  0
  5 42  1  0  0  0  0
  6  7  1  0  0  0  0
  6 30  1  0  0  0  0
  6 31  1  0  0  0  0
  7  8  1  0  0  0  0
  7 32  1  0  0  0  0
  7 33  1  0  0  0  0
  8  9  1  0  0  0  0
  9 10  1  0  0  0  0
  9 20  1  0  0  0  0
  9 34  1  0  0  0  0
 10 11  1  0  0  0  0
 10 35  1  0  0  0  0
 10 36  1  0  0  0  0
 11 12  1  0  0  0  0
 11 37  1  0  0  0  0
 12 13  2  0  0  0  0
 12 14  1  0  0  0  0
 14 15  1  0  0  0  0
 15 19  1  0  0  0  0
 15 16  2  0  0  0  0
 16 17  1  0  0  0  0
 17 18  2  0  0  0  0
 17 38  1  0  0  0  0
 18 19  1  0  0  0  0
 18 39  1  0  0  0  0
 20 40  1  0  0  0  0
 20 41  1  0  0  0  0
M  CHG  1   5   1
M  CHG  1  14  -1
M  END
> <s_m_source_file>
AV-unprocessed.smi

> <i_m_source_file_index>
2062

> <i_lp_mmshare_version>
43012

> <i_f3d_flags>
0

> <s_epik_input>
W0NIM11bQ0hdKFtDSDNdKVtDSDJdTjFbQ0gyXVtDSDJdT1tDQEhdKFtDSDJdMSlbQ0gyXVtOSF1DKD1PKVtOSF1jMm5bY0hdW2NIXXMy

> <s_epik_cmdline>
J2VwaWtfcHl0aG9uJywgJy1waCcsICc3LjAnLCAnLXRuJywgJzgnLCAnLW1hJywgJzIwMCcsICctbWV0YWxfYmluZGluZycsICctaW1hZScsICc8aW5maWxlLm1hZT4nLCAnLW9tYWUnLCAnPG91dGZpbGUubWFlPic=

> <r_lp_tautomer_probability>
0.999

> <r_epik_Ionization_Penalty>
6.35835

> <r_epik_Ionization_Penalty_Charging>
5.49938

> <r_epik_Ionization_Penalty_Neutral>
0.858963

> <r_epik_State_Penalty>
5.49328

> <r_epik_Charging_Adjusted_Penalty>
10.9927

> <i_epik_Tot_Q>
0

> <i_epik_Tot_abs_Q>
2

> <r_epik_Metal_State_Penalty>
1.51523

> <b_epik_Metal_Only>
1

> <s_lp_Force_Field>
OPLS_2005

> <r_lp_Energy>
7.56536

> <b_lp_Chiralities_Consistent>
1

> <s_lp_Variant>
AV-unprocessed.smi:2062-7

> <Gold.Version>
5.8.1

> <Gold.Id.Protein>
6NUR|6NUR_protein|mol2

> <Gold.PLP.Fitness>
40.8495

> <Gold.PLP.PLP>
-35.8112

> <Gold.PLP.part.hbond>
-1.4793

> <Gold.PLP.part.metal>
0.0000

> <Gold.PLP.part.buried>
-3.2271

> <Gold.PLP.part.nonpolar>
-31.0299

> <Gold.PLP.part.repulsive>
0.3077

> <Gold.PLP.ligand.clash>
0.0000

> <Gold.PLP.ligand.torsion>
0.5576

> <Gold.PLP.Chemscore.Hbond>
2.0000

> <Gold.PLP.Chemscore.CHOScore>
0.0000

> <Gold.PLP.Chemscore.Metal>
0.0000

> <Gold.Chemscore.Hbonds>
donor molecule, donor type, donor heavy atom, donor atom, acceptor molecule, acceptor atom, score
      L1  H     5    42       P1  7948  2.00
      P1  H  7989  7998       L1    13  0.06

> <Gold.PLP.Chemscore.Internal.Correction>
0.1534

> <Gold.Rescore>
     Score         DG    S(hbond)    S(metal)    S(lipo)     H(rot)  DE(clash)    DE(int)     intcor
     12.02     -14.12       1.11        0.00      79.80       1.72       0.12       1.98       ----

> <Gold.Chemscore.Fitness>
12.0235

> <Gold.Chemscore.DG>
-14.1197

> <Gold.Chemscore.ZeroCoef>
-5.4800

> <Gold.Chemscore.Hbond>
1.1093

> <Gold.Chemscore.Metal>
0.0000

> <Gold.Chemscore.Lipo>
79.7982

> <Gold.Chemscore.Internal_Hbond>
0.0000

> <Gold.Chemscore.DEClash>
0.1170

> <Gold.Chemscore.DEInternal>
1.9791

> <Gold.Chemscore.Rot>
1.7194

> <Gold.Chemscore.Internal.Correction>
   9.000000E+99

> <Gold.Chemscore.Hbonds>
donor molecule, donor type, donor heavy atom, donor atom, acceptor molecule, acceptor atom, score
      L1  H     5    42       P1  7948  0.65
      P1  H  7989  7998       L1    13  0.06

> <Gold.Chemscore.Hbond.Weighted>
-3.7050

> <Gold.Chemscore.Metal.Weighted>
-0.0000

> <Gold.Chemscore.Lipo.Weighted>
-9.3364

> <Gold.Chemscore.Internal_Hbond.Weighted>
0.0000

> <Gold.Chemscore.DEClash.Weighted>
0.1170

> <Gold.Chemscore.DEInternal.Weighted>
1.9791

> <Gold.Chemscore.Rot.Weighted>
4.4017

> <Gold.Chemscore.Internal.Correction.Weighted>
   9.000000E+99

> <Gold.Protein.RotatedTorsions>
[ 6907 6896 6895 6894 ] final   66.57 input  -60.11 | X-H torsion
[ 7974 7965 7964 7962 ] final  -40.96 input  175.53 | X-H torsion
[ 8008 7997 7996 7995 ] final  141.19 input   59.86 | X-H torsion
[ 10167 10162 10161 10158 ] final   42.55 input  -65.29 | X-H torsion
[ 10718 10713 10712 10709 ] final  154.16 input   66.30 | X-H torsion
[ 10763 10752 10751 10750 ] final  -22.77 input  -60.55 | X-H torsion
[ 11005 11000 10999 10996 ] final -133.24 input  -57.11 | X-H torsion

> <Gold.Protein.ActiveResidues>
 VAL166  LYS551  ARG553  GLY616  TRP617  ASP618  TYR619  PRO620  LYS621  CYS622 
 ASP623  PHE694  ASN695  SER759  ASP760  ASP761  ALA762  ILE779  LEU786  VAL792 
 PHE793  MET794  SER795  GLU796  ALA797  LYS798  CYS799  TRP800  GLU811  SER814 

> <Gold.Protein.RotatedAtoms>
  152.4490  134.5434  159.9845 H   0  0  0  0  0  0  0  0  0  0  0  0  # atno 6907 bound_to 6896
  151.5511  133.3411  159.2961 H   0  0  0  0  0  0  0  0  0  0  0  0  # atno 6908 bound_to 6896
  150.8414  134.7739  159.6998 H   0  0  0  0  0  0  0  0  0  0  0  0  # atno 6909 bound_to 6896
  146.0255  140.6797  142.9157 H   0  0  0  0  0  0  0  0  0  0  0  0  # atno 7974 bound_to 7965
  156.2969  140.2321  156.4525 H   0  0  0  0  0  0  0  0  0  0  0  0  # atno 8008 bound_to 7997
  154.8089  140.0444  157.1349 H   0  0  0  0  0  0  0  0  0  0  0  0  # atno 8009 bound_to 7997
  154.9446  140.3034  155.5108 H   0  0  0  0  0  0  0  0  0  0  0  0  # atno 8010 bound_to 7997
  140.3533  144.2323  150.6144 H   0  0  0  0  0  0  0  0  0  0  0  0  # atno 10167 bound_to 10162
  157.2352  131.0747  151.1827 H   0  0  0  0  0  0  0  0  0  0  0  0  # atno 10718 bound_to 10713
  153.6573  135.6978  153.5189 H   0  0  0  0  0  0  0  0  0  0  0  0  # atno 10763 bound_to 10752
  153.2659  135.4230  155.0940 H   0  0  0  0  0  0  0  0  0  0  0  0  # atno 10764 bound_to 10752
  154.8461  135.3566  154.6117 H   0  0  0  0  0  0  0  0  0  0  0  0  # atno 10765 bound_to 10752
  140.9099  134.1582  157.4397 H   0  0  0  0  0  0  0  0  0  0  0  0  # atno 11005 bound_to 11000
  144.7008  140.3642  143.7158 LP  0  0  0  0  0  0  0  0  0  0  0  0  # atno 17320 bound_to 7965
  145.7124  139.1688  143.2531 LP  0  0  0  0  0  0  0  0  0  0  0  0  # atno 17321 bound_to 7965
  140.5198  143.2268  151.8406 LP  0  0  0  0  0  0  0  0  0  0  0  0  # atno 17342 bound_to 10162
  139.4823  144.4850  151.9258 LP  0  0  0  0  0  0  0  0  0  0  0  0  # atno 17343 bound_to 10162
  157.3436  130.7046  149.6397 LP  0  0  0  0  0  0  0  0  0  0  0  0  # atno 17370 bound_to 10713
  155.9673  130.4273  150.4736 LP  0  0  0  0  0  0  0  0  0  0  0  0  # atno 17371 bound_to 10713
  139.8755  134.9931  156.5630 LP  0  0  0  0  0  0  0  0  0  0  0  0  # atno 17394 bound_to 11000
  140.8124  133.8418  155.8822 LP  0  0  0  0  0  0  0  0  0  0  0  0  # atno 17395 bound_to 11000

$$$$
