AV-unprocessed.smi:1905|AV-procd|sdf|7725|dock1
  -GOLD-   22720 9463D 1   1.00000     0.00000
 Structure written by MMmdl.
 38 39  0  0  0  0  0  0  0  0  1 V2000
  151.7326  138.6710  155.8686 C   0  0  0  0  0  0  0  0  0  0  0  0
  151.6077  138.2815  154.3939 C   0  0  0  0  0  0  0  0  0  0  0  0
  150.2257  138.2163  154.0558 O   0  0  0  0  0  0  0  0  0  0  0  0
  149.4722  139.3738  154.1100 C   0  0  0  0  0  0  0  0  0  0  0  0
  150.0337  140.4841  154.6508 N   0  0  0  0  0  0  0  0  0  0  0  0
  149.3007  141.6147  154.7022 C   0  0  0  0  0  0  0  0  0  0  0  0
  147.9836  141.7007  154.2161 C   0  0  0  0  0  0  0  0  0  0  0  0
  147.3993  140.5510  153.6534 C   0  0  0  0  0  0  0  0  0  0  0  0
  148.1516  139.3515  153.6027 C   0  0  0  0  0  0  0  0  0  0  0  0
  147.6759  138.1305  153.0466 N   0  0  0  0  0  0  0  0  0  0  0  0
  146.4269  137.6353  153.0153 C   0  0  0  0  0  0  0  0  0  0  0  0
  145.4318  138.1659  153.5077 O   0  0  0  0  0  0  0  0  0  0  0  0
  146.3945  136.4565  152.3780 N   0  0  0  0  0  0  0  0  0  0  0  0
  145.1972  135.6518  152.1592 C   0  0  0  0  0  0  0  0  0  0  0  0
  145.3773  134.6343  151.0161 C   0  0  2  0  0  0  0  0  0  0  0  0
  144.1787  133.7258  150.7692 C   0  0  0  0  0  0  0  0  0  0  0  0
  144.7994  132.3832  150.3667 C   0  0  0  0  0  0  0  0  0  0  0  0
  146.2040  132.6012  150.3316 O   0  0  0  0  0  0  0  0  0  0  0  0
  146.5035  133.6335  151.2549 C   0  0  0  0  0  0  0  0  0  0  0  0
  152.7789  138.7247  156.1692 H   0  0  0  0  0  0  0  0  0  0  0  0
  151.2367  137.9418  156.5099 H   0  0  0  0  0  0  0  0  0  0  0  0
  151.2804  139.6454  156.0554 H   0  0  0  0  0  0  0  0  0  0  0  0
  152.1187  139.0219  153.7766 H   0  0  0  0  0  0  0  0  0  0  0  0
  152.0853  137.3143  154.2284 H   0  0  0  0  0  0  0  0  0  0  0  0
  149.7806  142.4780  155.1393 H   0  0  0  0  0  0  0  0  0  0  0  0
  147.4349  142.6292  154.2692 H   0  0  0  0  0  0  0  0  0  0  0  0
  146.3961  140.6234  153.2655 H   0  0  0  0  0  0  0  0  0  0  0  0
  148.3912  137.5399  152.6479 H   0  0  0  0  0  0  0  0  0  0  0  0
  147.2605  136.0921  152.0087 H   0  0  0  0  0  0  0  0  0  0  0  0
  144.9231  135.1381  153.0822 H   0  0  0  0  0  0  0  0  0  0  0  0
  144.3747  136.3299  151.9297 H   0  0  0  0  0  0  0  0  0  0  0  0
  145.5992  135.1649  150.0885 H   0  0  0  0  0  0  0  0  0  0  0  0
  143.5778  133.6017  151.6710 H   0  0  0  0  0  0  0  0  0  0  0  0
  143.5304  134.1283  149.9901 H   0  0  0  0  0  0  0  0  0  0  0  0
  144.5711  131.6180  151.1098 H   0  0  0  0  0  0  0  0  0  0  0  0
  144.4415  132.0328  149.3984 H   0  0  0  0  0  0  0  0  0  0  0  0
  147.4911  134.0590  151.0765 H   0  0  0  0  0  0  0  0  0  0  0  0
  146.4751  133.2352  152.2705 H   0  0  0  0  0  0  0  0  0  0  0  0
  1  2  1  0  0  0  0
  1 20  1  0  0  0  0
  1 21  1  0  0  0  0
  1 22  1  0  0  0  0
  2  3  1  0  0  0  0
  2 23  1  0  0  0  0
  2 24  1  0  0  0  0
  3  4  1  0  0  0  0
  4  9  1  0  0  0  0
  4  5  2  0  0  0  0
  5  6  1  0  0  0  0
  6  7  2  0  0  0  0
  6 25  1  0  0  0  0
  7  8  1  0  0  0  0
  7 26  1  0  0  0  0
  8  9  2  0  0  0  0
  8 27  1  0  0  0  0
  9 10  1  0  0  0  0
 10 11  1  0  0  0  0
 10 28  1  0  0  0  0
 11 12  2  0  0  0  0
 11 13  1  0  0  0  0
 13 14  1  0  0  0  0
 13 29  1  0  0  0  0
 14 15  1  0  0  0  0
 14 30  1  0  0  0  0
 14 31  1  0  0  0  0
 15 19  1  0  0  0  0
 15 16  1  0  0  0  0
 15 32  1  0  0  0  0
 16 17  1  0  0  0  0
 16 33  1  0  0  0  0
 16 34  1  0  0  0  0
 17 18  1  0  0  0  0
 17 35  1  0  0  0  0
 17 36  1  0  0  0  0
 18 19  1  0  0  0  0
 19 37  1  0  0  0  0
 19 38  1  0  0  0  0
M  END
> <s_m_source_file>
AV-unprocessed.smi

> <i_m_source_file_index>
1905

> <i_lp_mmshare_version>
43012

> <i_f3d_flags>
0

> <s_epik_input>
W0NIM11bQ0gyXU9jMW5bY0hdW2NIXVtjSF1jMVtOSF1DKD1PKVtOSF1bQ0gyXVtDQEBIXTJbQ0gyXVtDSDJdT1tDSDJdMg==

> <s_epik_cmdline>
J2VwaWtfcHl0aG9uJywgJy1waCcsICc3LjAnLCAnLXRuJywgJzgnLCAnLW1hJywgJzIwMCcsICctbWV0YWxfYmluZGluZycsICctaW1hZScsICc8aW5maWxlLm1hZT4nLCAnLW9tYWUnLCAnPG91dGZpbGUubWFlPic=

> <r_lp_tautomer_probability>
1

> <r_epik_Ionization_Penalty>
0.000115153

> <r_epik_Ionization_Penalty_Charging>
0

> <r_epik_Ionization_Penalty_Neutral>
0.000115153

> <r_epik_State_Penalty>
-0

> <r_epik_Charging_Adjusted_Penalty>
0

> <i_epik_Tot_Q>
0

> <i_epik_Tot_abs_Q>
0

> <r_epik_Metal_State_Penalty>
-0

> <b_epik_Metal_Only>
0

> <s_lp_Force_Field>
OPLS_2005

> <r_lp_Energy>
20.8795

> <b_lp_Chiralities_Consistent>
1

> <s_lp_Variant>
AV-unprocessed.smi:1905-1

> <Gold.Version>
5.8.1

> <Gold.Id.Protein>
6NUR|6NUR_protein|mol2

> <Gold.PLP.Fitness>
43.9399

> <Gold.PLP.PLP>
-32.9281

> <Gold.PLP.part.hbond>
-3.1493

> <Gold.PLP.part.metal>
0.0000

> <Gold.PLP.part.buried>
-2.4720

> <Gold.PLP.part.nonpolar>
-28.6785

> <Gold.PLP.part.repulsive>
1.2282

> <Gold.PLP.ligand.clash>
0.0000

> <Gold.PLP.ligand.torsion>
0.4201

> <Gold.PLP.Chemscore.Hbond>
2.9120

> <Gold.PLP.Chemscore.CHOScore>
1.0000

> <Gold.PLP.Chemscore.Metal>
0.0000

> <Gold.Chemscore.Hbonds>
donor molecule, donor type, donor heavy atom, donor atom, acceptor molecule, acceptor atom, score
      L1  H    10    28       P1  7948  1.00
      L1  H    13    29       P1  7948  1.00
      P1  H  7989  7998       L1     5  0.91
      L1  C     6    25       P1  8028  1.00

> <Gold.PLP.Chemscore.Internal.Correction>
0.1161

> <Gold.Rescore>
     Score         DG    S(hbond)    S(metal)    S(lipo)     H(rot)  DE(clash)    DE(int)     intcor
     15.41     -17.32       2.32        0.00      70.11       1.61       0.15       1.75       ----

> <Gold.Chemscore.Fitness>
15.4088

> <Gold.Chemscore.DG>
-17.3162

> <Gold.Chemscore.ZeroCoef>
-5.4800

> <Gold.Chemscore.Hbond>
2.3244

> <Gold.Chemscore.Metal>
0.0000

> <Gold.Chemscore.Lipo>
70.1061

> <Gold.Chemscore.Internal_Hbond>
0.0000

> <Gold.Chemscore.DEClash>
0.1533

> <Gold.Chemscore.DEInternal>
1.7541

> <Gold.Chemscore.Rot>
1.6131

> <Gold.Chemscore.Internal.Correction>
   9.000000E+99

> <Gold.Chemscore.Hbonds>
donor molecule, donor type, donor heavy atom, donor atom, acceptor molecule, acceptor atom, score
      L1  H    10    28       P1  7948  0.97
      L1  H    13    29       P1  7948  0.94
      P1  H  7989  7998       L1     5  0.23

> <Gold.Chemscore.Hbond.Weighted>
-7.7634

> <Gold.Chemscore.Metal.Weighted>
-0.0000

> <Gold.Chemscore.Lipo.Weighted>
-8.2024

> <Gold.Chemscore.Internal_Hbond.Weighted>
0.0000

> <Gold.Chemscore.DEClash.Weighted>
0.1533

> <Gold.Chemscore.DEInternal.Weighted>
1.7541

> <Gold.Chemscore.Rot.Weighted>
4.1296

> <Gold.Chemscore.Internal.Correction.Weighted>
   9.000000E+99

> <Gold.Protein.RotatedTorsions>
[ 6907 6896 6895 6894 ] final  150.19 input  -60.11 | X-H torsion
[ 7974 7965 7964 7962 ] final -115.52 input  175.53 | X-H torsion
[ 8008 7997 7996 7995 ] final   98.94 input   59.86 | X-H torsion
[ 10167 10162 10161 10158 ] final  -52.26 input  -65.29 | X-H torsion
[ 10718 10713 10712 10709 ] final  116.83 input   66.30 | X-H torsion
[ 10763 10752 10751 10750 ] final  -12.38 input  -60.55 | X-H torsion
[ 11005 11000 10999 10996 ] final -145.84 input  -57.11 | X-H torsion

> <Gold.Protein.ActiveResidues>
 VAL166  LYS551  ARG553  GLY616  TRP617  ASP618  TYR619  PRO620  LYS621  CYS622 
 ASP623  PHE694  ASN695  SER759  ASP760  ASP761  ALA762  ILE779  LEU786  VAL792 
 PHE793  MET794  SER795  GLU796  ALA797  LYS798  CYS799  TRP800  GLU811  SER814 

> <Gold.Protein.RotatedAtoms>
  152.1178  133.4336  159.4661 H   0  0  0  0  0  0  0  0  0  0  0  0  # atno 6907 bound_to 6896
  150.6870  134.2571  159.4543 H   0  0  0  0  0  0  0  0  0  0  0  0  # atno 6908 bound_to 6896
  152.0445  134.9691  160.0625 H   0  0  0  0  0  0  0  0  0  0  0  0  # atno 6909 bound_to 6896
  145.1075  140.8590  143.3890 H   0  0  0  0  0  0  0  0  0  0  0  0  # atno 7974 bound_to 7965
  156.1055  140.3236  155.8000 H   0  0  0  0  0  0  0  0  0  0  0  0  # atno 8008 bound_to 7997
  155.4763  140.0550  157.2990 H   0  0  0  0  0  0  0  0  0  0  0  0  # atno 8009 bound_to 7997
  154.4725  140.2017  155.9975 H   0  0  0  0  0  0  0  0  0  0  0  0  # atno 8010 bound_to 7997
  140.6547  143.2590  151.4622 H   0  0  0  0  0  0  0  0  0  0  0  0  # atno 10167 bound_to 10162
  157.6135  131.1030  150.7528 H   0  0  0  0  0  0  0  0  0  0  0  0  # atno 10718 bound_to 10713
  153.4976  135.7017  153.5849 H   0  0  0  0  0  0  0  0  0  0  0  0  # atno 10763 bound_to 10752
  153.3995  135.3875  155.1978 H   0  0  0  0  0  0  0  0  0  0  0  0  # atno 10764 bound_to 10752
  154.8713  135.3878  154.4443 H   0  0  0  0  0  0  0  0  0  0  0  0  # atno 10765 bound_to 10752
  140.7882  134.3000  157.5023 H   0  0  0  0  0  0  0  0  0  0  0  0  # atno 11005 bound_to 11000
  145.0885  139.2907  143.5747 LP  0  0  0  0  0  0  0  0  0  0  0  0  # atno 17320 bound_to 7965
  146.3527  140.0415  142.8642 LP  0  0  0  0  0  0  0  0  0  0  0  0  # atno 17321 bound_to 7965
  139.5767  144.1803  152.1913 LP  0  0  0  0  0  0  0  0  0  0  0  0  # atno 17342 bound_to 10162
  140.1115  144.5452  150.6921 LP  0  0  0  0  0  0  0  0  0  0  0  0  # atno 17343 bound_to 10162
  156.7901  130.4887  149.5386 LP  0  0  0  0  0  0  0  0  0  0  0  0  # atno 17370 bound_to 10713
  156.1248  130.6136  151.0247 LP  0  0  0  0  0  0  0  0  0  0  0  0  # atno 17371 bound_to 10713
  139.8734  134.9358  156.3645 LP  0  0  0  0  0  0  0  0  0  0  0  0  # atno 17394 bound_to 11000
  140.9416  133.7511  156.0154 LP  0  0  0  0  0  0  0  0  0  0  0  0  # atno 17395 bound_to 11000

$$$$
