AV-unprocessed.smi:1712|AV-procd|sdf|6902|dock2
  -GOLD-   22720 8103D 1   1.00000     0.00000
 Structure written by MMmdl.
 37 38  0  0  0  0  0  0  0  0  1 V2000
  149.2701  129.2250  154.2389 C   0  0  0  0  0  0  0  0  0  0  0  0
  149.6832  130.7159  154.1390 C   0  0  1  0  0  0  0  0  0  0  0  0
  148.4044  131.5919  154.0091 C   0  0  0  0  0  0  0  0  0  0  0  0
  147.8106  131.5495  152.6744 N   0  0  0  0  0  0  0  0  0  0  0  0
  146.6020  132.0256  152.3411 C   0  0  0  0  0  0  0  0  0  0  0  0
  145.8311  132.5565  153.1409 O   0  0  0  0  0  0  0  0  0  0  0  0
  146.3502  131.8411  151.0348 N   0  0  0  0  0  0  0  0  0  0  0  0
  145.1705  132.1865  150.3282 C   0  0  0  0  0  0  0  0  0  0  0  0
  144.9852  132.0132  148.9297 C   0  0  0  0  0  0  0  0  0  0  0  0
  143.7836  132.4209  148.5469 N   0  0  0  0  0  0  0  0  0  0  0  0
  143.1998  132.8520  149.6878 N   0  0  0  0  0  0  0  0  0  0  0  0
  144.0068  132.7283  150.7973 C   0  0  0  0  0  0  0  0  0  0  0  0
  150.5680  131.1426  155.2495 N   0  0  0  0  0  0  0  0  0  0  0  0
  150.9622  132.5530  155.1515 C   0  0  0  0  0  0  0  0  0  0  0  0
  151.8596  133.0061  156.3160 C   0  0  0  0  0  0  0  0  0  0  0  0
  151.1963  132.7723  157.5501 O   0  0  0  0  0  0  0  0  0  0  0  0
  150.8656  131.4018  157.7248 C   0  0  0  0  0  0  0  0  0  0  0  0
  149.9625  130.9339  156.5705 C   0  0  0  0  0  0  0  0  0  0  0  0
  142.2605  133.2234  149.6935 H   0  0  0  0  0  0  0  0  0  0  0  0
  148.6135  128.9216  153.4246 H   0  0  0  0  0  0  0  0  0  0  0  0
  148.7481  129.0220  155.1746 H   0  0  0  0  0  0  0  0  0  0  0  0
  150.1219  128.5502  154.1729 H   0  0  0  0  0  0  0  0  0  0  0  0
  150.2397  130.8264  153.2068 H   0  0  0  0  0  0  0  0  0  0  0  0
  147.6810  131.3134  154.7775 H   0  0  0  0  0  0  0  0  0  0  0  0
  148.6295  132.6441  154.1707 H   0  0  0  0  0  0  0  0  0  0  0  0
  148.3686  131.1272  151.9470 H   0  0  0  0  0  0  0  0  0  0  0  0
  147.0754  131.3988  150.4892 H   0  0  0  0  0  0  0  0  0  0  0  0
  145.6683  131.6131  148.1950 H   0  0  0  0  0  0  0  0  0  0  0  0
  143.6839  133.0279  151.7833 H   0  0  0  0  0  0  0  0  0  0  0  0
  151.5209  132.7330  154.2350 H   0  0  0  0  0  0  0  0  0  0  0  0
  150.0733  133.1843  155.1119 H   0  0  0  0  0  0  0  0  0  0  0  0
  152.8125  132.4749  156.2989 H   0  0  0  0  0  0  0  0  0  0  0  0
  152.0842  134.0691  156.2293 H   0  0  0  0  0  0  0  0  0  0  0  0
  151.7756  130.8017  157.7708 H   0  0  0  0  0  0  0  0  0  0  0  0
  150.3534  131.2789  158.6793 H   0  0  0  0  0  0  0  0  0  0  0  0
  149.0064  131.4564  156.6259 H   0  0  0  0  0  0  0  0  0  0  0  0
  149.7586  129.8787  156.7401 H   0  0  0  0  0  0  0  0  0  0  0  0
  1  2  1  0  0  0  0
  1 20  1  0  0  0  0
  1 21  1  0  0  0  0
  1 22  1  0  0  0  0
  2  3  1  0  0  0  0
  2 13  1  0  0  0  0
  2 23  1  0  0  0  0
  3  4  1  0  0  0  0
  3 24  1  0  0  0  0
  3 25  1  0  0  0  0
  4  5  1  0  0  0  0
  4 26  1  0  0  0  0
  5  6  2  0  0  0  0
  5  7  1  0  0  0  0
  7  8  1  0  0  0  0
  7 27  1  0  0  0  0
  8 12  2  0  0  0  0
  8  9  1  0  0  0  0
  9 10  2  0  0  0  0
  9 28  1  0  0  0  0
 10 11  1  0  0  0  0
 11 19  1  0  0  0  0
 11 12  1  0  0  0  0
 12 29  1  0  0  0  0
 13 18  1  0  0  0  0
 13 14  1  0  0  0  0
 14 15  1  0  0  0  0
 14 30  1  0  0  0  0
 14 31  1  0  0  0  0
 15 16  1  0  0  0  0
 15 32  1  0  0  0  0
 15 33  1  0  0  0  0
 16 17  1  0  0  0  0
 17 18  1  0  0  0  0
 17 34  1  0  0  0  0
 17 35  1  0  0  0  0
 18 36  1  0  0  0  0
 18 37  1  0  0  0  0
M  END
> <s_m_source_file>
AV-unprocessed.smi

> <i_m_source_file_index>
1712

> <i_lp_mmshare_version>
43012

> <i_f3d_flags>
0

> <s_epik_input>
W0NIMl0xW0NIMl1PW0NIMl1bQ0gyXU4xW0NASF0oW0NIM10pW0NIMl1bTkhdQyg9TylbTkhdYzJbY0hdbltuSF1bY0hdMg==

> <s_epik_cmdline>
J2VwaWtfcHl0aG9uJywgJy1waCcsICc3LjAnLCAnLXRuJywgJzgnLCAnLW1hJywgJzIwMCcsICctbWV0YWxfYmluZGluZycsICctaW1hZScsICc8aW5maWxlLm1hZT4nLCAnLW9tYWUnLCAnPG91dGZpbGUubWFlPic=

> <r_lp_tautomer_probability>
0.5

> <r_epik_Ionization_Penalty>
0.242772

> <r_epik_Ionization_Penalty_Charging>
0

> <r_epik_Ionization_Penalty_Neutral>
0.242772

> <r_epik_State_Penalty>
0.233765

> <r_epik_Charging_Adjusted_Penalty>
0.233765

> <i_epik_Tot_Q>
0

> <i_epik_Tot_abs_Q>
0

> <r_epik_Metal_State_Penalty>
0.233764

> <b_epik_Metal_Only>
0

> <s_lp_Force_Field>
OPLS_2005

> <r_lp_Energy>
31.3121

> <b_lp_Chiralities_Consistent>
1

> <s_lp_Variant>
AV-unprocessed.smi:1712-2

> <Gold.Version>
5.8.1

> <Gold.Id.Protein>
6NUR|6NUR_protein|mol2

> <Gold.PLP.Fitness>
40.0167

> <Gold.PLP.PLP>
-29.0230

> <Gold.PLP.part.hbond>
-5.2407

> <Gold.PLP.part.metal>
0.0000

> <Gold.PLP.part.buried>
-5.6134

> <Gold.PLP.part.nonpolar>
-18.5677

> <Gold.PLP.part.repulsive>
0.5959

> <Gold.PLP.ligand.clash>
0.0000

> <Gold.PLP.ligand.torsion>
0.2602

> <Gold.PLP.Chemscore.Hbond>
3.8154

> <Gold.PLP.Chemscore.CHOScore>
0.0000

> <Gold.PLP.Chemscore.Metal>
0.0000

> <Gold.Chemscore.Hbonds>
donor molecule, donor type, donor heavy atom, donor atom, acceptor molecule, acceptor atom, score
      L1  H     4    26       P1 10747  1.00
      L1  H     7    27       P1 10747  1.00
      L1  H    11    19       P1 10186  1.00
      P1  H  6896  6909       L1    16  1.00
      P1  H 10785 10796       L1    10  0.02

> <Gold.PLP.Chemscore.Internal.Correction>
0.0678

> <Gold.Rescore>
     Score         DG    S(hbond)    S(metal)    S(lipo)     H(rot)  DE(clash)    DE(int)     intcor
     20.22     -21.57       3.91        0.00      61.46       1.63       0.01       1.34       ----

> <Gold.Chemscore.Fitness>
20.2226

> <Gold.Chemscore.DG>
-21.5709

> <Gold.Chemscore.ZeroCoef>
-5.4800

> <Gold.Chemscore.Hbond>
3.9148

> <Gold.Chemscore.Metal>
0.0000

> <Gold.Chemscore.Lipo>
61.4622

> <Gold.Chemscore.Internal_Hbond>
0.0000

> <Gold.Chemscore.DEClash>
0.0054

> <Gold.Chemscore.DEInternal>
1.3429

> <Gold.Chemscore.Rot>
1.6311

> <Gold.Chemscore.Internal.Correction>
   9.000000E+99

> <Gold.Chemscore.Hbonds>
donor molecule, donor type, donor heavy atom, donor atom, acceptor molecule, acceptor atom, score
      L1  H     4    26       P1 10747  0.99
      L1  H     7    27       P1 10747  0.93
      L1  H    11    19       P1 10186  0.99
      P1  H  6896  6909       L1    16  0.44

> <Gold.Chemscore.Hbond.Weighted>
-13.0755

> <Gold.Chemscore.Metal.Weighted>
-0.0000

> <Gold.Chemscore.Lipo.Weighted>
-7.1911

> <Gold.Chemscore.Internal_Hbond.Weighted>
0.0000

> <Gold.Chemscore.DEClash.Weighted>
0.0054

> <Gold.Chemscore.DEInternal.Weighted>
1.3429

> <Gold.Chemscore.Rot.Weighted>
4.1757

> <Gold.Chemscore.Internal.Correction.Weighted>
   9.000000E+99

> <Gold.Protein.RotatedTorsions>
[ 6907 6896 6895 6894 ] final  -36.17 input  -60.11 | X-H torsion
[ 7974 7965 7964 7962 ] final  115.81 input  175.53 | X-H torsion
[ 8008 7997 7996 7995 ] final  -46.66 input   59.86 | X-H torsion
[ 10167 10162 10161 10158 ] final   60.57 input  -65.29 | X-H torsion
[ 10718 10713 10712 10709 ] final  171.31 input   66.30 | X-H torsion
[ 10763 10752 10751 10750 ] final  -50.43 input  -60.55 | X-H torsion
[ 11005 11000 10999 10996 ] final   98.88 input  -57.11 | X-H torsion

> <Gold.Protein.ActiveResidues>
 VAL166  LYS551  ARG553  GLY616  TRP617  ASP618  TYR619  PRO620  LYS621  CYS622 
 ASP623  PHE694  ASN695  SER759  ASP760  ASP761  ALA762  ILE779  LEU786  VAL792 
 PHE793  MET794  SER795  GLU796  ALA797  LYS798  CYS799  TRP800  GLU811  SER814 

> <Gold.Protein.RotatedAtoms>
  151.0306  134.9536  159.8108 H   0  0  0  0  0  0  0  0  0  0  0  0  # atno 6907 bound_to 6896
  152.5344  134.2785  159.9008 H   0  0  0  0  0  0  0  0  0  0  0  0  # atno 6908 bound_to 6896
  151.2795  133.4174  159.2660 H   0  0  0  0  0  0  0  0  0  0  0  0  # atno 6909 bound_to 6896
  145.1874  139.3018  143.4386 H   0  0  0  0  0  0  0  0  0  0  0  0  # atno 7974 bound_to 7965
  154.4009  140.1366  156.4048 H   0  0  0  0  0  0  0  0  0  0  0  0  # atno 8008 bound_to 7997
  155.7790  140.3482  155.5267 H   0  0  0  0  0  0  0  0  0  0  0  0  # atno 8009 bound_to 7997
  155.8692  140.0969  157.1552 H   0  0  0  0  0  0  0  0  0  0  0  0  # atno 8010 bound_to 7997
  140.1641  144.4341  150.6694 H   0  0  0  0  0  0  0  0  0  0  0  0  # atno 10167 bound_to 10162
  156.9954  131.0160  151.2845 H   0  0  0  0  0  0  0  0  0  0  0  0  # atno 10718 bound_to 10713
  154.1103  135.6550  153.4884 H   0  0  0  0  0  0  0  0  0  0  0  0  # atno 10763 bound_to 10752
  153.0259  135.5246  154.7199 H   0  0  0  0  0  0  0  0  0  0  0  0  # atno 10764 bound_to 10752
  154.6377  135.2984  155.0111 H   0  0  0  0  0  0  0  0  0  0  0  0  # atno 10765 bound_to 10752
  139.8771  134.9070  156.4523 H   0  0  0  0  0  0  0  0  0  0  0  0  # atno 11005 bound_to 11000
  146.3442  140.2075  142.8589 LP  0  0  0  0  0  0  0  0  0  0  0  0  # atno 17320 bound_to 7965
  145.0075  140.8686  143.5244 LP  0  0  0  0  0  0  0  0  0  0  0  0  # atno 17321 bound_to 7965
  140.6624  143.2256  151.5824 LP  0  0  0  0  0  0  0  0  0  0  0  0  # atno 17342 bound_to 10162
  139.5367  144.2760  152.1267 LP  0  0  0  0  0  0  0  0  0  0  0  0  # atno 17343 bound_to 10162
  157.5429  130.8131  149.8050 LP  0  0  0  0  0  0  0  0  0  0  0  0  # atno 17370 bound_to 10713
  156.0191  130.3802  150.2017 LP  0  0  0  0  0  0  0  0  0  0  0  0  # atno 17371 bound_to 10713
  140.8923  133.7839  155.9586 LP  0  0  0  0  0  0  0  0  0  0  0  0  # atno 17394 bound_to 11000
  140.8740  134.2692  157.5177 LP  0  0  0  0  0  0  0  0  0  0  0  0  # atno 17395 bound_to 11000

$$$$
