AV-unprocessed.smi:1913|AV-procd|sdf|7753|dock7
  -GOLD-   22720 9493D 1   1.00000     0.00000
 Structure written by MMmdl.
 40 42  0  0  0  0  0  0  0  0  1 V2000
  153.1015  137.2758  156.7436 C   0  0  0  0  0  0  0  0  0  0  0  0
  152.6880  137.5125  155.4056 O   0  0  0  0  0  0  0  0  0  0  0  0
  151.6562  138.4016  155.1930 C   0  0  0  0  0  0  0  0  0  0  0  0
  150.7824  138.3561  154.0815 C   0  0  0  0  0  0  0  0  0  0  0  0
  149.7588  139.3110  153.9389 C   0  0  0  0  0  0  0  0  0  0  0  0
  149.5789  140.3327  154.9041 C   0  0  0  0  0  0  0  0  0  0  0  0
  148.6039  141.3052  154.8073 O   0  0  0  0  0  0  0  0  0  0  0  0
  147.6250  141.1845  153.7862 C   0  0  0  0  0  0  0  0  0  0  0  0
  150.4423  140.3721  156.0258 C   0  0  0  0  0  0  0  0  0  0  0  0
  150.2751  141.4631  157.0799 C   0  0  1  0  0  0  0  0  0  0  0  0
  149.9453  140.9534  158.3591 O   0  0  0  0  0  0  0  0  0  0  0  0
  151.5407  142.3352  157.1826 C   0  0  0  0  0  0  0  0  0  0  0  0
  151.5394  143.1694  158.3698 N   0  0  0  0  0  0  0  0  0  0  0  0
  150.9000  144.3416  158.5469 C   0  0  0  0  0  0  0  0  0  0  0  0
  151.0428  144.9408  159.7262 N   0  0  0  0  0  0  0  0  0  0  0  0
  151.8718  144.0537  160.3917 C   0  0  0  0  0  0  0  0  0  0  0  0
  152.4075  144.1013  161.6987 C   0  0  0  0  0  0  0  0  0  0  0  0
  153.2422  143.0648  162.1669 C   0  0  0  0  0  0  0  0  0  0  0  0
  153.5550  141.9679  161.3377 C   0  0  0  0  0  0  0  0  0  0  0  0
  153.0334  141.8985  160.0317 C   0  0  0  0  0  0  0  0  0  0  0  0
  152.2001  142.9341  159.5695 C   0  0  0  0  0  0  0  0  0  0  0  0
  151.4745  139.4155  156.1528 C   0  0  0  0  0  0  0  0  0  0  0  0
  153.9174  136.5531  156.7457 H   0  0  0  0  0  0  0  0  0  0  0  0
  152.2917  136.8594  157.3440 H   0  0  0  0  0  0  0  0  0  0  0  0
  153.4686  138.1886  157.2147 H   0  0  0  0  0  0  0  0  0  0  0  0
  150.8787  137.5991  153.3181 H   0  0  0  0  0  0  0  0  0  0  0  0
  149.1225  139.2366  153.0704 H   0  0  0  0  0  0  0  0  0  0  0  0
  146.9455  142.0350  153.8399 H   0  0  0  0  0  0  0  0  0  0  0  0
  147.0299  140.2786  153.9092 H   0  0  0  0  0  0  0  0  0  0  0  0
  148.0799  141.1884  152.7947 H   0  0  0  0  0  0  0  0  0  0  0  0
  149.4333  142.0936  156.7924 H   0  0  0  0  0  0  0  0  0  0  0  0
  150.6289  140.3593  158.6290 H   0  0  0  0  0  0  0  0  0  0  0  0
  152.4385  141.7153  157.1824 H   0  0  0  0  0  0  0  0  0  0  0  0
  151.6153  142.9923  156.3153 H   0  0  0  0  0  0  0  0  0  0  0  0
  150.2989  144.7813  157.7644 H   0  0  0  0  0  0  0  0  0  0  0  0
  152.1756  144.9369  162.3424 H   0  0  0  0  0  0  0  0  0  0  0  0
  153.6450  143.1119  163.1679 H   0  0  0  0  0  0  0  0  0  0  0  0
  154.1959  141.1797  161.7045 H   0  0  0  0  0  0  0  0  0  0  0  0
  153.2703  141.0610  159.3921 H   0  0  0  0  0  0  0  0  0  0  0  0
  152.1466  139.4555  156.9977 H   0  0  0  0  0  0  0  0  0  0  0  0
  1  2  1  0  0  0  0
  1 23  1  0  0  0  0
  1 24  1  0  0  0  0
  1 25  1  0  0  0  0
  2  3  1  0  0  0  0
  3 22  1  0  0  0  0
  3  4  2  0  0  0  0
  4  5  1  0  0  0  0
  4 26  1  0  0  0  0
  5  6  2  0  0  0  0
  5 27  1  0  0  0  0
  6  7  1  0  0  0  0
  6  9  1  0  0  0  0
  7  8  1  0  0  0  0
  8 28  1  0  0  0  0
  8 29  1  0  0  0  0
  8 30  1  0  0  0  0
  9 10  1  0  0  0  0
  9 22  2  0  0  0  0
 10 11  1  0  0  0  0
 10 12  1  0  0  0  0
 10 31  1  0  0  0  0
 11 32  1  0  0  0  0
 12 13  1  0  0  0  0
 12 33  1  0  0  0  0
 12 34  1  0  0  0  0
 13 21  1  0  0  0  0
 13 14  1  0  0  0  0
 14 15  2  0  0  0  0
 14 35  1  0  0  0  0
 15 16  1  0  0  0  0
 16 21  2  0  0  0  0
 16 17  1  0  0  0  0
 17 18  2  0  0  0  0
 17 36  1  0  0  0  0
 18 19  1  0  0  0  0
 18 37  1  0  0  0  0
 19 20  2  0  0  0  0
 19 38  1  0  0  0  0
 20 21  1  0  0  0  0
 20 39  1  0  0  0  0
 22 40  1  0  0  0  0
M  END
> <s_m_source_file>
AV-unprocessed.smi

> <i_m_source_file_index>
1913

> <i_lp_mmshare_version>
43012

> <i_f3d_flags>
0

> <s_epik_input>
W0NIM11PYzFbY0hdW2NIXWMoT1tDSDNdKWMoW2NIXTEpW0NASF0oW09IXSlbQ0gyXW4oW2NIXW4yKWMoYzIzKVtjSF1bY0hdW2NIXVtjSF0z

> <s_epik_cmdline>
J2VwaWtfcHl0aG9uJywgJy1waCcsICc3LjAnLCAnLXRuJywgJzgnLCAnLW1hJywgJzIwMCcsICctbWV0YWxfYmluZGluZycsICctaW1hZScsICc8aW5maWxlLm1hZT4nLCAnLW9tYWUnLCAnPG91dGZpbGUubWFlPic=

> <r_lp_tautomer_probability>
1

> <r_epik_Ionization_Penalty>
0.0696512

> <r_epik_Ionization_Penalty_Charging>
0

> <r_epik_Ionization_Penalty_Neutral>
0.0696512

> <r_epik_State_Penalty>
0.0610247

> <r_epik_Charging_Adjusted_Penalty>
0.0610247

> <i_epik_Tot_Q>
0

> <i_epik_Tot_abs_Q>
0

> <r_epik_Metal_State_Penalty>
6.42746e-05

> <b_epik_Metal_Only>
0

> <s_lp_Force_Field>
OPLS_2005

> <r_lp_Energy>
19.1382

> <b_lp_Chiralities_Consistent>
1

> <s_lp_Variant>
AV-unprocessed.smi:1913-2

> <Gold.Version>
5.8.1

> <Gold.Id.Protein>
6NUR|6NUR_protein|mol2

> <Gold.PLP.Fitness>
50.9634

> <Gold.PLP.PLP>
-48.3797

> <Gold.PLP.part.hbond>
-1.0000

> <Gold.PLP.part.metal>
0.0000

> <Gold.PLP.part.buried>
-5.2931

> <Gold.PLP.part.nonpolar>
-42.7281

> <Gold.PLP.part.repulsive>
0.2975

> <Gold.PLP.ligand.clash>
0.0000

> <Gold.PLP.ligand.torsion>
0.8619

> <Gold.PLP.Chemscore.Hbond>
0.4508

> <Gold.PLP.Chemscore.CHOScore>
0.9724

> <Gold.PLP.Chemscore.Metal>
0.0000

> <Gold.Chemscore.Hbonds>
donor molecule, donor type, donor heavy atom, donor atom, acceptor molecule, acceptor atom, score
      P1  H 10752 10765       L1     2  0.37
      L1  C    14    35       P1  8028  0.80
      L1  C    14    35       P1  8029  0.20

> <Gold.PLP.Chemscore.Internal.Correction>
0.0376

> <Gold.Rescore>
     Score         DG    S(hbond)    S(metal)    S(lipo)     H(rot)  DE(clash)    DE(int)     intcor
     14.76     -15.61       0.20        0.00     131.74       2.33       0.05       0.79       ----

> <Gold.Chemscore.Fitness>
14.7594

> <Gold.Chemscore.DG>
-15.6058

> <Gold.Chemscore.ZeroCoef>
-5.4800

> <Gold.Chemscore.Hbond>
0.2044

> <Gold.Chemscore.Metal>
0.0000

> <Gold.Chemscore.Lipo>
131.7441

> <Gold.Chemscore.Internal_Hbond>
0.0000

> <Gold.Chemscore.DEClash>
0.0525

> <Gold.Chemscore.DEInternal>
0.7940

> <Gold.Chemscore.Rot>
2.3323

> <Gold.Chemscore.Internal.Correction>
   9.000000E+99

> <Gold.Chemscore.Hbonds>
donor molecule, donor type, donor heavy atom, donor atom, acceptor molecule, acceptor atom, score
      P1  H 10752 10765       L1     2  0.17

> <Gold.Chemscore.Hbond.Weighted>
-0.6826

> <Gold.Chemscore.Metal.Weighted>
-0.0000

> <Gold.Chemscore.Lipo.Weighted>
-15.4141

> <Gold.Chemscore.Internal_Hbond.Weighted>
0.0000

> <Gold.Chemscore.DEClash.Weighted>
0.0525

> <Gold.Chemscore.DEInternal.Weighted>
0.7940

> <Gold.Chemscore.Rot.Weighted>
5.9708

> <Gold.Chemscore.Internal.Correction.Weighted>
   9.000000E+99

> <Gold.Protein.RotatedTorsions>
[ 6907 6896 6895 6894 ] final  174.66 input  -60.11 | X-H torsion
[ 7974 7965 7964 7962 ] final  -38.02 input  175.53 | X-H torsion
[ 8008 7997 7996 7995 ] final   54.90 input   59.86 | X-H torsion
[ 10167 10162 10161 10158 ] final -147.00 input  -65.29 | X-H torsion
[ 10718 10713 10712 10709 ] final -142.26 input   66.30 | X-H torsion
[ 10763 10752 10751 10750 ] final  170.90 input  -60.55 | X-H torsion
[ 11005 11000 10999 10996 ] final  -63.47 input  -57.11 | X-H torsion

> <Gold.Protein.ActiveResidues>
 VAL166  LYS551  ARG553  GLY616  TRP617  ASP618  TYR619  PRO620  LYS621  CYS622 
 ASP623  PHE694  ASN695  SER759  ASP760  ASP761  ALA762  ILE779  LEU786  VAL792 
 PHE793  MET794  SER795  GLU796  ALA797  LYS798  CYS799  TRP800  GLU811  SER814 

> <Gold.Protein.RotatedAtoms>
  151.7488  133.3326  159.3385 H   0  0  0  0  0  0  0  0  0  0  0  0  # atno 6907 bound_to 6896
  150.7544  134.6211  159.6146 H   0  0  0  0  0  0  0  0  0  0  0  0  # atno 6908 bound_to 6896
  152.3482  134.7044  160.0295 H   0  0  0  0  0  0  0  0  0  0  0  0  # atno 6909 bound_to 6896
  146.0523  140.6464  142.9036 H   0  0  0  0  0  0  0  0  0  0  0  0  # atno 7974 bound_to 7965
  155.4923  140.3472  155.4357 H   0  0  0  0  0  0  0  0  0  0  0  0  # atno 8008 bound_to 7997
  156.0969  140.1425  156.9547 H   0  0  0  0  0  0  0  0  0  0  0  0  # atno 8009 bound_to 7997
  154.4669  140.0914  156.7021 H   0  0  0  0  0  0  0  0  0  0  0  0  # atno 8010 bound_to 7997
  139.7662  143.8305  152.2616 H   0  0  0  0  0  0  0  0  0  0  0  0  # atno 10167 bound_to 10162
  156.3437  130.7651  151.1792 H   0  0  0  0  0  0  0  0  0  0  0  0  # atno 10718 bound_to 10713
  154.4042  135.2755  155.2078 H   0  0  0  0  0  0  0  0  0  0  0  0  # atno 10763 bound_to 10752
  154.4091  135.6026  153.5945 H   0  0  0  0  0  0  0  0  0  0  0  0  # atno 10764 bound_to 10752
  152.9831  135.5945  154.4314 H   0  0  0  0  0  0  0  0  0  0  0  0  # atno 10765 bound_to 10752
  141.1394  133.6652  156.5685 H   0  0  0  0  0  0  0  0  0  0  0  0  # atno 11005 bound_to 11000
  144.7129  140.4105  143.7066 LP  0  0  0  0  0  0  0  0  0  0  0  0  # atno 17320 bound_to 7965
  145.6703  139.1598  143.2758 LP  0  0  0  0  0  0  0  0  0  0  0  0  # atno 17321 bound_to 7965
  139.8325  144.7247  150.9432 LP  0  0  0  0  0  0  0  0  0  0  0  0  # atno 17342 bound_to 10162
  140.7811  143.4056  151.1076 LP  0  0  0  0  0  0  0  0  0  0  0  0  # atno 17343 bound_to 10162
  157.7451  131.0447  150.4807 LP  0  0  0  0  0  0  0  0  0  0  0  0  # atno 17370 bound_to 10713
  156.4991  130.4113  149.6363 LP  0  0  0  0  0  0  0  0  0  0  0  0  # atno 17371 bound_to 10713
  140.3931  134.7422  157.4734 LP  0  0  0  0  0  0  0  0  0  0  0  0  # atno 17394 bound_to 11000
  140.0551  134.6075  155.8815 LP  0  0  0  0  0  0  0  0  0  0  0  0  # atno 17395 bound_to 11000

$$$$
