AV-unprocessed.smi:2209|AV-procd|sdf|8948|dock6
  -GOLD-   2272012163D 1   1.00000     0.00000
 Structure written by MMmdl.
 26 27  0  0  0  0  0  0  0  0  2 V2000
  155.3744  139.4865  160.7885 C   0  0  0  0  0  0  0  0  0  0  0  0
  154.3003  140.2342  160.0744 C   0  0  0  0  0  0  0  0  0  0  0  0
  153.8831  139.8641  158.8699 N   0  0  0  0  0  0  0  0  0  0  0  0
  152.8907  140.8072  158.5666 O   0  0  0  0  0  0  0  0  0  0  0  0
  152.8301  141.6376  159.6353 C   0  0  0  0  0  0  0  0  0  0  0  0
  151.8529  142.7712  159.6171 C   0  0  1  0  0  0  0  0  0  0  0  0
  152.5068  144.1060  160.0214 C   0  0  0  0  0  0  0  0  0  0  0  0
  151.4770  145.2456  159.9771 C   0  0  0  0  0  0  0  0  0  0  0  0
  150.7892  145.3128  158.6034 C   0  0  0  0  0  0  0  0  0  0  0  0
  150.1674  144.0137  158.2663 N   0  3  0  0  0  0  0  0  0  0  0  0
  151.1342  142.8931  158.2579 C   0  0  0  0  0  0  0  0  0  0  0  0
  153.6896  141.3294  160.6045 N   0  0  0  0  0  0  0  0  0  0  0  0
  155.7258  138.6425  160.1937 H   0  0  0  0  0  0  0  0  0  0  0  0
  154.9995  139.1053  161.7385 H   0  0  0  0  0  0  0  0  0  0  0  0
  156.2214  140.1432  160.9882 H   0  0  0  0  0  0  0  0  0  0  0  0
  151.0926  142.5433  160.3664 H   0  0  0  0  0  0  0  0  0  0  0  0
  152.9357  144.0300  161.0213 H   0  0  0  0  0  0  0  0  0  0  0  0
  153.3313  144.3363  159.3454 H   0  0  0  0  0  0  0  0  0  0  0  0
  150.7272  145.0929  160.7547 H   0  0  0  0  0  0  0  0  0  0  0  0
  151.9631  146.1963  160.1986 H   0  0  0  0  0  0  0  0  0  0  0  0
  150.0205  146.0860  158.6028 H   0  0  0  0  0  0  0  0  0  0  0  0
  151.5105  145.5792  157.8295 H   0  0  0  0  0  0  0  0  0  0  0  0
  149.4500  143.8154  158.9493 H   0  0  0  0  0  0  0  0  0  0  0  0
  151.8561  143.0544  157.4558 H   0  0  0  0  0  0  0  0  0  0  0  0
  150.6010  141.9708  158.0252 H   0  0  0  0  0  0  0  0  0  0  0  0
  149.7379  144.0829  157.3546 H   0  0  0  0  0  0  0  0  0  0  0  0
  1  2  1  0  0  0  0
  1 13  1  0  0  0  0
  1 14  1  0  0  0  0
  1 15  1  0  0  0  0
  2 12  1  0  0  0  0
  2  3  2  0  0  0  0
  3  4  1  0  0  0  0
  4  5  1  0  0  0  0
  5  6  1  0  0  0  0
  5 12  2  0  0  0  0
  6 11  1  0  0  0  0
  6  7  1  0  0  0  0
  6 16  1  0  0  0  0
  7  8  1  0  0  0  0
  7 17  1  0  0  0  0
  7 18  1  0  0  0  0
  8  9  1  0  0  0  0
  8 19  1  0  0  0  0
  8 20  1  0  0  0  0
  9 10  1  0  0  0  0
  9 21  1  0  0  0  0
  9 22  1  0  0  0  0
 10 11  1  0  0  0  0
 10 23  1  0  0  0  0
 10 26  1  0  0  0  0
 11 24  1  0  0  0  0
 11 25  1  0  0  0  0
M  CHG  1  10   1
M  END
> <s_m_source_file>
AV-unprocessed.smi

> <i_m_source_file_index>
2209

> <i_lp_mmshare_version>
43012

> <i_f3d_flags>
0

> <s_epik_input>
W0NIM11jMW5vYyhuMSlbQ0BASF0yW0NIMl1bQ0gyXVtDSDJdW05IXVtDSDJdMg==

> <s_epik_cmdline>
J2VwaWtfcHl0aG9uJywgJy1waCcsICc3LjAnLCAnLXRuJywgJzgnLCAnLW1hJywgJzIwMCcsICctbWV0YWxfYmluZGluZycsICctaW1hZScsICc8aW5maWxlLm1hZT4nLCAnLW9tYWUnLCAnPG91dGZpbGUubWFlPic=

> <r_lp_tautomer_probability>
1

> <r_epik_Ionization_Penalty>
0.000532935

> <r_epik_Ionization_Penalty_Charging>
0.000532935

> <r_epik_Ionization_Penalty_Neutral>
4.97553e-13

> <r_epik_State_Penalty>
0.000332992

> <r_epik_Charging_Adjusted_Penalty>
0.000865928

> <i_epik_Tot_Q>
1

> <i_epik_Tot_abs_Q>
1

> <r_epik_Metal_State_Penalty>
-0

> <b_epik_Metal_Only>
0

> <s_lp_Force_Field>
OPLS_2005

> <r_lp_Energy>
10.4199

> <b_lp_Chiralities_Consistent>
1

> <s_lp_Variant>
AV-unprocessed.smi:2209-2

> <Gold.Version>
5.8.1

> <Gold.Id.Protein>
6NUR|6NUR_protein|mol2

> <Gold.PLP.Fitness>
34.2197

> <Gold.PLP.PLP>
-25.4990

> <Gold.PLP.part.hbond>
-3.1155

> <Gold.PLP.part.metal>
0.0000

> <Gold.PLP.part.buried>
-1.9041

> <Gold.PLP.part.nonpolar>
-19.7279

> <Gold.PLP.part.repulsive>
0.0590

> <Gold.PLP.ligand.clash>
0.0000

> <Gold.PLP.ligand.torsion>
0.1564

> <Gold.PLP.Chemscore.Hbond>
3.0000

> <Gold.PLP.Chemscore.CHOScore>
0.0000

> <Gold.PLP.Chemscore.Metal>
0.0000

> <Gold.Chemscore.Hbonds>
donor molecule, donor type, donor heavy atom, donor atom, acceptor molecule, acceptor atom, score
      L1  H    10    26       P1  8028  2.00
      P1  H  7997  8008       L1     3  0.99

> <Gold.PLP.Chemscore.Internal.Correction>
0.0335

> <Gold.Rescore>
     Score         DG    S(hbond)    S(metal)    S(lipo)     H(rot)  DE(clash)    DE(int)     intcor
     13.39     -13.72       1.11        0.00      60.73       1.00       0.09       0.24       ----

> <Gold.Chemscore.Fitness>
13.3906

> <Gold.Chemscore.DG>
-13.7234

> <Gold.Chemscore.ZeroCoef>
-5.4800

> <Gold.Chemscore.Hbond>
1.1072

> <Gold.Chemscore.Metal>
0.0000

> <Gold.Chemscore.Lipo>
60.7294

> <Gold.Chemscore.Internal_Hbond>
0.0000

> <Gold.Chemscore.DEClash>
0.0921

> <Gold.Chemscore.DEInternal>
0.2407

> <Gold.Chemscore.Rot>
1.0000

> <Gold.Chemscore.Internal.Correction>
   9.000000E+99

> <Gold.Chemscore.Hbonds>
donor molecule, donor type, donor heavy atom, donor atom, acceptor molecule, acceptor atom, score
      L1  H    10    26       P1  8028  0.49
      P1  H  7997  8008       L1     3  0.27

> <Gold.Chemscore.Hbond.Weighted>
-3.6981

> <Gold.Chemscore.Metal.Weighted>
-0.0000

> <Gold.Chemscore.Lipo.Weighted>
-7.1053

> <Gold.Chemscore.Internal_Hbond.Weighted>
0.0000

> <Gold.Chemscore.DEClash.Weighted>
0.0921

> <Gold.Chemscore.DEInternal.Weighted>
0.2407

> <Gold.Chemscore.Rot.Weighted>
2.5600

> <Gold.Chemscore.Internal.Correction.Weighted>
   9.000000E+99

> <Gold.Protein.RotatedTorsions>
[ 6907 6896 6895 6894 ] final  105.02 input  -60.11 | X-H torsion
[ 7974 7965 7964 7962 ] final   11.88 input  175.53 | X-H torsion
[ 8008 7997 7996 7995 ] final -117.32 input   59.86 | X-H torsion
[ 10167 10162 10161 10158 ] final  111.87 input  -65.29 | X-H torsion
[ 10718 10713 10712 10709 ] final -124.17 input   66.30 | X-H torsion
[ 10763 10752 10751 10750 ] final   32.78 input  -60.55 | X-H torsion
[ 11005 11000 10999 10996 ] final -138.33 input  -57.11 | X-H torsion

> <Gold.Protein.ActiveResidues>
 VAL166  LYS551  ARG553  GLY616  TRP617  ASP618  TYR619  PRO620  LYS621  CYS622 
 ASP623  PHE694  ASN695  SER759  ASP760  ASP761  ALA762  ILE779  LEU786  VAL792 
 PHE793  MET794  SER795  GLU796  ALA797  LYS798  CYS799  TRP800  GLU811  SER814 

> <Gold.Protein.RotatedAtoms>
  152.5245  133.9590  159.7707 H   0  0  0  0  0  0  0  0  0  0  0  0  # atno 6907 bound_to 6896
  150.9885  133.6165  159.2719 H   0  0  0  0  0  0  0  0  0  0  0  0  # atno 6908 bound_to 6896
  151.3317  135.0849  159.9394 H   0  0  0  0  0  0  0  0  0  0  0  0  # atno 6909 bound_to 6896
  146.2362  139.9420  142.8482 H   0  0  0  0  0  0  0  0  0  0  0  0  # atno 7974 bound_to 7965
  155.0819  140.0394  157.2642 H   0  0  0  0  0  0  0  0  0  0  0  0  # atno 8008 bound_to 7997
  154.6900  140.2651  155.6797 H   0  0  0  0  0  0  0  0  0  0  0  0  # atno 8009 bound_to 7997
  156.2725  140.2761  156.1475 H   0  0  0  0  0  0  0  0  0  0  0  0  # atno 8010 bound_to 7997
  139.6578  144.7129  151.1923 H   0  0  0  0  0  0  0  0  0  0  0  0  # atno 10167 bound_to 10162
  156.1564  130.6571  150.9988 H   0  0  0  0  0  0  0  0  0  0  0  0  # atno 10718 bound_to 10713
  153.0245  135.6404  154.1409 H   0  0  0  0  0  0  0  0  0  0  0  0  # atno 10763 bound_to 10752
  154.1139  135.2851  155.3226 H   0  0  0  0  0  0  0  0  0  0  0  0  # atno 10764 bound_to 10752
  154.6312  135.5492  153.7745 H   0  0  0  0  0  0  0  0  0  0  0  0  # atno 10765 bound_to 10752
  140.8626  134.2150  157.4698 H   0  0  0  0  0  0  0  0  0  0  0  0  # atno 11005 bound_to 11000
  145.1944  140.9826  143.4192 LP  0  0  0  0  0  0  0  0  0  0  0  0  # atno 17320 bound_to 7965
  144.9829  139.3765  143.6253 LP  0  0  0  0  0  0  0  0  0  0  0  0  # atno 17321 bound_to 7965
  140.7567  143.6043  150.8668 LP  0  0  0  0  0  0  0  0  0  0  0  0  # atno 17342 bound_to 10162
  139.9698  143.6070  152.2977 LP  0  0  0  0  0  0  0  0  0  0  0  0  # atno 17343 bound_to 10162
  157.6699  131.0864  150.7639 LP  0  0  0  0  0  0  0  0  0  0  0  0  # atno 17370 bound_to 10713
  156.7704  130.4827  149.5419 LP  0  0  0  0  0  0  0  0  0  0  0  0  # atno 17371 bound_to 10713
  139.8707  134.9737  156.4818 LP  0  0  0  0  0  0  0  0  0  0  0  0  # atno 17394 bound_to 11000
  140.8665  133.8020  155.9319 LP  0  0  0  0  0  0  0  0  0  0  0  0  # atno 17395 bound_to 11000

$$$$
