AV-unprocessed.smi:209|AV-procd|sdf|1607|dock1
  -GOLD-   2262019523D 1   1.00000     0.00000
 Structure written by MMmdl.
 48 52  0  0  0  0  0  0  0  0  1 V2000
  143.5639  131.5301  150.1927 O   0  0  0  0  0  0  0  0  0  0  0  0
  144.2137  132.5650  150.3257 C   0  0  0  0  0  0  0  0  0  0  0  0
  143.7585  133.8035  150.1448 N   0  0  0  0  0  0  0  0  0  0  0  0
  144.7412  134.8248  150.4652 C   0  0  0  0  0  0  0  0  0  0  0  0
  145.8701  134.0629  151.2031 C   0  0  2  0  0  0  0  0  0  0  0  0
  145.6899  132.6114  150.6945 C   0  0  1  0  0  0  0  0  0  0  0  0
  146.1952  131.5040  151.6435 C   0  0  0  0  0  0  0  0  0  0  0  0
  145.8443  131.7896  153.1061 C   0  0  0  0  0  0  0  0  0  0  0  0
  146.3484  133.1820  153.4965 C   0  0  0  0  0  0  0  0  0  0  0  0
  145.7150  134.2004  152.6635 N   0  0  0  0  0  0  0  0  0  0  0  0
  145.8302  135.4425  153.2001 C   0  0  0  0  0  0  0  0  0  0  0  0
  144.8774  136.3824  152.9581 N   0  0  0  0  0  0  0  0  0  0  0  0
  144.9919  137.6077  153.4789 C   0  0  0  0  0  0  0  0  0  0  0  0
  145.9603  138.0972  154.2555 N   0  0  0  0  0  0  0  0  0  0  0  0
  146.9180  137.1584  154.5028 C   0  0  0  0  0  0  0  0  0  0  0  0
  146.9308  135.8202  154.0187 C   0  0  0  0  0  0  0  0  0  0  0  0
  148.0597  135.1585  154.4860 N   0  0  0  0  0  0  0  0  0  0  0  0
  148.6819  136.0562  155.2006 C   0  0  0  0  0  0  0  0  0  0  0  0
  148.0708  137.2887  155.2584 N   0  0  0  0  0  0  0  0  0  0  0  0
  148.5371  138.4627  155.9810 C   0  0  0  0  0  0  0  0  0  0  0  0
  149.3022  139.4725  155.1053 C   0  0  0  0  0  0  0  0  0  0  0  0
  148.2804  140.3010  154.3006 C   0  0  0  0  0  0  0  0  0  0  0  0
  148.8701  140.9694  153.2029 O   0  0  0  0  0  0  0  0  0  0  0  0
  150.3928  140.2656  155.8395 C   0  0  0  0  0  0  0  0  0  0  0  0
  151.4024  139.8837  154.8793 O   0  0  0  0  0  0  0  0  0  0  0  0
  150.4925  138.9158  154.3110 C   0  0  0  0  0  0  0  0  0  0  0  0
  146.8505  134.4383  150.9071 H   0  0  0  0  0  0  0  0  0  0  0  0
  146.2211  132.5075  149.7471 H   0  0  0  0  0  0  0  0  0  0  0  0
  142.8076  134.0246  149.8865 H   0  0  0  0  0  0  0  0  0  0  0  0
  145.1134  135.2492  149.5321 H   0  0  0  0  0  0  0  0  0  0  0  0
  144.2906  135.6339  151.0407 H   0  0  0  0  0  0  0  0  0  0  0  0
  145.8024  130.5304  151.3473 H   0  0  0  0  0  0  0  0  0  0  0  0
  147.2792  131.4294  151.5490 H   0  0  0  0  0  0  0  0  0  0  0  0
  144.7657  131.7263  153.2556 H   0  0  0  0  0  0  0  0  0  0  0  0
  146.2947  131.0345  153.7507 H   0  0  0  0  0  0  0  0  0  0  0  0
  146.1423  133.3523  154.5535 H   0  0  0  0  0  0  0  0  0  0  0  0
  147.4309  133.2403  153.3736 H   0  0  0  0  0  0  0  0  0  0  0  0
  144.1941  138.2943  153.2374 H   0  0  0  0  0  0  0  0  0  0  0  0
  149.6095  135.8391  155.7098 H   0  0  0  0  0  0  0  0  0  0  0  0
  147.6786  138.9415  156.4536 H   0  0  0  0  0  0  0  0  0  0  0  0
  149.1655  138.1140  156.8015 H   0  0  0  0  0  0  0  0  0  0  0  0
  147.4874  139.6686  153.9016 H   0  0  0  0  0  0  0  0  0  0  0  0
  147.8017  141.0482  154.9344 H   0  0  0  0  0  0  0  0  0  0  0  0
  149.0006  140.3455  152.5051 H   0  0  0  0  0  0  0  0  0  0  0  0
  150.2257  141.3428  155.8686 H   0  0  0  0  0  0  0  0  0  0  0  0
  150.6218  139.8862  156.8365 H   0  0  0  0  0  0  0  0  0  0  0  0
  150.7734  137.8977  154.5820 H   0  0  0  0  0  0  0  0  0  0  0  0
  150.3952  139.0161  153.2294 H   0  0  0  0  0  0  0  0  0  0  0  0
  1  2  2  0  0  0  0
  2  6  1  0  0  0  0
  2  3  1  0  0  0  0
  3  4  1  0  0  0  0
  3 29  1  0  0  0  0
  4  5  1  0  0  0  0
  4 30  1  0  0  0  0
  4 31  1  0  0  0  0
  5 27  1  0  0  0  0
  5 10  1  0  0  0  0
  5  6  1  0  0  0  0
  6 28  1  0  0  0  0
  6  7  1  0  0  0  0
  7  8  1  0  0  0  0
  7 32  1  0  0  0  0
  7 33  1  0  0  0  0
  8  9  1  0  0  0  0
  8 34  1  0  0  0  0
  8 35  1  0  0  0  0
  9 10  1  0  0  0  0
  9 36  1  0  0  0  0
  9 37  1  0  0  0  0
 10 11  1  0  0  0  0
 11 16  1  0  0  0  0
 11 12  2  0  0  0  0
 12 13  1  0  0  0  0
 13 14  2  0  0  0  0
 13 38  1  0  0  0  0
 14 15  1  0  0  0  0
 15 19  1  0  0  0  0
 15 16  2  0  0  0  0
 16 17  1  0  0  0  0
 17 18  2  0  0  0  0
 18 19  1  0  0  0  0
 18 39  1  0  0  0  0
 19 20  1  0  0  0  0
 20 21  1  0  0  0  0
 20 40  1  0  0  0  0
 20 41  1  0  0  0  0
 21 26  1  0  0  0  0
 21 22  1  0  0  0  0
 21 24  1  0  0  0  0
 22 23  1  0  0  0  0
 22 42  1  0  0  0  0
 22 43  1  0  0  0  0
 23 44  1  0  0  0  0
 24 25  1  0  0  0  0
 24 45  1  0  0  0  0
 24 46  1  0  0  0  0
 25 26  1  0  0  0  0
 26 47  1  0  0  0  0
 26 48  1  0  0  0  0
M  END
> <s_m_source_file>
AV-unprocessed.smi

> <i_m_source_file_index>
209

> <i_lp_mmshare_version>
43012

> <i_f3d_flags>
0

> <s_epik_input>
W0NIMl0xW05IXUMoPU8pW0NAQEhdKFtDQEBIXTEyKVtDSDJdW0NIMl1bQ0gyXU4yYyhuW2NIXW4zKWMoYzM0KW5bY0hdbjRbQ0gyXUM1KFtDSDJdW09IXSlbQ0gyXU9bQ0gyXTU=

> <s_epik_cmdline>
J2VwaWtfcHl0aG9uJywgJy1waCcsICc3LjAnLCAnLXRuJywgJzgnLCAnLW1hJywgJzIwMCcsICctbWV0YWxfYmluZGluZycsICctaW1hZScsICc8aW5maWxlLm1hZT4nLCAnLW9tYWUnLCAnPG91dGZpbGUubWFlPic=

> <r_lp_tautomer_probability>
1

> <r_epik_Ionization_Penalty>
0.00113306

> <r_epik_Ionization_Penalty_Charging>
0

> <r_epik_Ionization_Penalty_Neutral>
0.00113306

> <r_epik_State_Penalty>
0.000624042

> <r_epik_Charging_Adjusted_Penalty>
0.000624042

> <i_epik_Tot_Q>
0

> <i_epik_Tot_abs_Q>
0

> <r_epik_Metal_State_Penalty>
-0

> <b_epik_Metal_Only>
0

> <s_lp_Force_Field>
OPLS_2005

> <r_lp_Energy>
50.3938

> <b_lp_Chiralities_Consistent>
1

> <s_lp_Variant>
AV-unprocessed.smi:209-1

> <Gold.Version>
5.8.1

> <Gold.Id.Protein>
6NUR|6NUR_protein|mol2

> <Gold.PLP.Fitness>
45.1835

> <Gold.PLP.PLP>
-30.4356

> <Gold.PLP.part.hbond>
-4.8087

> <Gold.PLP.part.metal>
0.0000

> <Gold.PLP.part.buried>
-4.9611

> <Gold.PLP.part.nonpolar>
-23.5332

> <Gold.PLP.part.repulsive>
2.4346

> <Gold.PLP.ligand.clash>
0.0000

> <Gold.PLP.ligand.torsion>
1.3385

> <Gold.PLP.Chemscore.Hbond>
4.5596

> <Gold.PLP.Chemscore.CHOScore>
1.0000

> <Gold.PLP.Chemscore.Metal>
0.0000

> <Gold.Chemscore.Hbonds>
donor molecule, donor type, donor heavy atom, donor atom, acceptor molecule, acceptor atom, score
      L1  H     3    29       P1 10186  1.00
      L1  H    23    44       P1  7957  0.90
      P1  H  7989  7998       L1    25  0.95
      P1  H  8011  8017       L1    23  0.75
      P1  H 10785 10796       L1     1  0.89
      L1  C    13    38       P1 10175  1.00

> <Gold.PLP.Chemscore.Internal.Correction>
0.7462

> <Gold.Rescore>
     Score         DG    S(hbond)    S(metal)    S(lipo)     H(rot)  DE(clash)    DE(int)     intcor
     12.59     -17.37       3.42        0.00      62.25       2.66       0.88       3.90       ----

> <Gold.Chemscore.Fitness>
12.5909

> <Gold.Chemscore.DG>
-17.3742

> <Gold.Chemscore.ZeroCoef>
-5.4800

> <Gold.Chemscore.Hbond>
3.4211

> <Gold.Chemscore.Metal>
0.0000

> <Gold.Chemscore.Lipo>
62.2451

> <Gold.Chemscore.Internal_Hbond>
0.0000

> <Gold.Chemscore.DEClash>
0.8833

> <Gold.Chemscore.DEInternal>
3.9000

> <Gold.Chemscore.Rot>
2.6620

> <Gold.Chemscore.Internal.Correction>
   9.000000E+99

> <Gold.Chemscore.Hbonds>
donor molecule, donor type, donor heavy atom, donor atom, acceptor molecule, acceptor atom, score
      L1  H     3    29       P1 10186  1.00
      L1  H    23    44       P1  7957  0.83
      P1  H  7989  7998       L1    25  0.21
      P1  H  8011  8017       L1    23  0.09
      P1  H 10785 10796       L1     1  0.81

> <Gold.Chemscore.Hbond.Weighted>
-11.4263

> <Gold.Chemscore.Metal.Weighted>
-0.0000

> <Gold.Chemscore.Lipo.Weighted>
-7.2827

> <Gold.Chemscore.Internal_Hbond.Weighted>
0.0000

> <Gold.Chemscore.DEClash.Weighted>
0.8833

> <Gold.Chemscore.DEInternal.Weighted>
3.9000

> <Gold.Chemscore.Rot.Weighted>
6.8148

> <Gold.Chemscore.Internal.Correction.Weighted>
   9.000000E+99

> <Gold.Protein.RotatedTorsions>
[ 6907 6896 6895 6894 ] final   50.19 input  -60.11 | X-H torsion
[ 7974 7965 7964 7962 ] final  -31.94 input  175.53 | X-H torsion
[ 8008 7997 7996 7995 ] final  136.19 input   59.86 | X-H torsion
[ 10167 10162 10161 10158 ] final -124.64 input  -65.29 | X-H torsion
[ 10718 10713 10712 10709 ] final   70.28 input   66.30 | X-H torsion
[ 10763 10752 10751 10750 ] final -110.13 input  -60.55 | X-H torsion
[ 11005 11000 10999 10996 ] final  -95.59 input  -57.11 | X-H torsion

> <Gold.Protein.ActiveResidues>
 VAL166  LYS551  ARG553  GLY616  TRP617  ASP618  TYR619  PRO620  LYS621  CYS622 
 ASP623  PHE694  ASN695  SER759  ASP760  ASP761  ALA762  ILE779  LEU786  VAL792 
 PHE793  MET794  SER795  GLU796  ALA797  LYS798  CYS799  TRP800  GLU811  SER814 

> <Gold.Protein.RotatedAtoms>
  152.2991  134.7632  160.0361 H   0  0  0  0  0  0  0  0  0  0  0  0  # atno 6907 bound_to 6896
  151.8151  133.3381  159.3575 H   0  0  0  0  0  0  0  0  0  0  0  0  # atno 6908 bound_to 6896
  150.7265  134.5556  159.5861 H   0  0  0  0  0  0  0  0  0  0  0  0  # atno 6909 bound_to 6896
  146.1029  140.5730  142.8813 H   0  0  0  0  0  0  0  0  0  0  0  0  # atno 7974 bound_to 7965
  156.3004  140.2451  156.3705 H   0  0  0  0  0  0  0  0  0  0  0  0  # atno 8008 bound_to 7997
  154.8793  140.0413  157.1792 H   0  0  0  0  0  0  0  0  0  0  0  0  # atno 8009 bound_to 7997
  154.8713  140.2935  155.5484 H   0  0  0  0  0  0  0  0  0  0  0  0  # atno 8010 bound_to 7997
  139.9906  143.5645  152.2343 H   0  0  0  0  0  0  0  0  0  0  0  0  # atno 10167 bound_to 10162
  157.6391  130.9469  150.0628 H   0  0  0  0  0  0  0  0  0  0  0  0  # atno 10718 bound_to 10713
  154.8231  135.4575  154.0838 H   0  0  0  0  0  0  0  0  0  0  0  0  # atno 10763 bound_to 10752
  153.2175  135.6890  153.8046 H   0  0  0  0  0  0  0  0  0  0  0  0  # atno 10764 bound_to 10752
  153.7475  135.3303  155.3292 H   0  0  0  0  0  0  0  0  0  0  0  0  # atno 10765 bound_to 10752
  141.1437  133.8037  157.0455 H   0  0  0  0  0  0  0  0  0  0  0  0  # atno 11005 bound_to 11000
  144.7447  140.5036  143.6844 LP  0  0  0  0  0  0  0  0  0  0  0  0  # atno 17320 bound_to 7965
  145.5819  139.1489  143.3230 LP  0  0  0  0  0  0  0  0  0  0  0  0  # atno 17321 bound_to 7965
  139.6343  144.7648  151.2471 LP  0  0  0  0  0  0  0  0  0  0  0  0  # atno 17342 bound_to 10162
  140.7456  143.6425  150.8321 LP  0  0  0  0  0  0  0  0  0  0  0  0  # atno 17343 bound_to 10162
  156.1656  130.3645  149.9237 LP  0  0  0  0  0  0  0  0  0  0  0  0  # atno 17370 bound_to 10713
  156.7225  130.9012  151.3619 LP  0  0  0  0  0  0  0  0  0  0  0  0  # atno 17371 bound_to 10713
  140.0665  134.9726  157.1394 LP  0  0  0  0  0  0  0  0  0  0  0  0  # atno 17394 bound_to 11000
  140.3772  134.2326  155.7173 LP  0  0  0  0  0  0  0  0  0  0  0  0  # atno 17395 bound_to 11000

$$$$
