AV-unprocessed.smi:1770|AV-procd|sdf|7156|dock4
  -GOLD-   22720 8393D 1   1.00000     0.00000
 Structure written by MMmdl.
 38 39  0  0  0  0  0  0  0  0  2 V2000
  153.1227  137.3575  160.4722 C   0  0  0  0  0  0  0  0  0  0  0  0
  151.8880  137.1683  159.8044 O   0  0  0  0  0  0  0  0  0  0  0  0
  151.9185  137.6321  158.4619 C   0  0  0  0  0  0  0  0  0  0  0  0
  152.3625  139.0944  158.4478 C   0  0  0  0  0  0  0  0  0  0  0  0
  153.5597  139.3680  158.5213 O   0  0  0  0  0  0  0  0  0  0  0  0
  151.3770  140.0042  158.3515 N   0  0  0  0  0  0  0  0  0  0  0  0
  151.4802  141.4218  158.4043 C   0  0  0  0  0  0  0  0  0  0  0  0
  152.4319  142.0781  159.2249 C   0  0  0  0  0  0  0  0  0  0  0  0
  152.5242  143.4834  159.2000 C   0  0  0  0  0  0  0  0  0  0  0  0
  151.6730  144.2095  158.3471 C   0  0  0  0  0  0  0  0  0  0  0  0
  150.7864  143.5539  157.5687 N   0  3  0  0  0  0  0  0  0  0  0  0
  150.6509  142.2048  157.5564 C   0  0  0  0  0  0  0  0  0  0  0  0
  149.6783  141.6307  156.7135 N   0  0  0  0  0  0  0  0  0  0  0  0
  149.9179  141.6996  155.2725 C   0  0  0  0  0  0  0  0  0  0  0  0
  148.9854  140.7333  154.5212 C   0  0  0  0  0  0  0  0  0  0  0  0
  147.5144  140.9859  154.8902 C   0  0  0  0  0  0  0  0  0  0  0  0
  147.3287  140.9358  156.4157 C   0  0  0  0  0  0  0  0  0  0  0  0
  148.2993  141.8992  157.1194 C   0  0  0  0  0  0  0  0  0  0  0  0
  153.0466  136.9849  161.4938 H   0  0  0  0  0  0  0  0  0  0  0  0
  153.3884  138.4146  160.5175 H   0  0  0  0  0  0  0  0  0  0  0  0
  153.9274  136.8148  159.9743 H   0  0  0  0  0  0  0  0  0  0  0  0
  152.6102  137.0310  157.8689 H   0  0  0  0  0  0  0  0  0  0  0  0
  150.9301  137.5547  158.0062 H   0  0  0  0  0  0  0  0  0  0  0  0
  150.4381  139.6330  158.3789 H   0  0  0  0  0  0  0  0  0  0  0  0
  153.1059  141.5234  159.8600 H   0  0  0  0  0  0  0  0  0  0  0  0
  153.2447  143.9956  159.8207 H   0  0  0  0  0  0  0  0  0  0  0  0
  151.6763  145.2865  158.2614 H   0  0  0  0  0  0  0  0  0  0  0  0
  149.7501  142.7205  154.9262 H   0  0  0  0  0  0  0  0  0  0  0  0
  150.9574  141.4507  155.0552 H   0  0  0  0  0  0  0  0  0  0  0  0
  149.1257  140.8390  153.4450 H   0  0  0  0  0  0  0  0  0  0  0  0
  149.2511  139.7048  154.7689 H   0  0  0  0  0  0  0  0  0  0  0  0
  147.2051  141.9624  154.5150 H   0  0  0  0  0  0  0  0  0  0  0  0
  146.8725  140.2484  154.4074 H   0  0  0  0  0  0  0  0  0  0  0  0
  146.3000  141.1859  156.6767 H   0  0  0  0  0  0  0  0  0  0  0  0
  147.5006  139.9197  156.7740 H   0  0  0  0  0  0  0  0  0  0  0  0
  148.1805  141.8139  158.1994 H   0  0  0  0  0  0  0  0  0  0  0  0
  148.0526  142.9296  156.8601 H   0  0  0  0  0  0  0  0  0  0  0  0
  150.1813  144.1055  156.9602 H   0  0  0  0  0  0  0  0  0  0  0  0
  1  2  1  0  0  0  0
  1 19  1  0  0  0  0
  1 20  1  0  0  0  0
  1 21  1  0  0  0  0
  2  3  1  0  0  0  0
  3  4  1  0  0  0  0
  3 22  1  0  0  0  0
  3 23  1  0  0  0  0
  4  5  2  0  0  0  0
  4  6  1  0  0  0  0
  6  7  1  0  0  0  0
  6 24  1  0  0  0  0
  7 12  1  0  0  0  0
  7  8  2  0  0  0  0
  8  9  1  0  0  0  0
  8 25  1  0  0  0  0
  9 10  2  0  0  0  0
  9 26  1  0  0  0  0
 10 11  1  0  0  0  0
 10 27  1  0  0  0  0
 11 12  2  0  0  0  0
 11 38  1  0  0  0  0
 12 13  1  0  0  0  0
 13 18  1  0  0  0  0
 13 14  1  0  0  0  0
 14 15  1  0  0  0  0
 14 28  1  0  0  0  0
 14 29  1  0  0  0  0
 15 16  1  0  0  0  0
 15 30  1  0  0  0  0
 15 31  1  0  0  0  0
 16 17  1  0  0  0  0
 16 32  1  0  0  0  0
 16 33  1  0  0  0  0
 17 18  1  0  0  0  0
 17 34  1  0  0  0  0
 17 35  1  0  0  0  0
 18 36  1  0  0  0  0
 18 37  1  0  0  0  0
M  CHG  1  11   1
M  END
> <s_m_source_file>
AV-unprocessed.smi

> <i_m_source_file_index>
1770

> <i_lp_mmshare_version>
43012

> <i_f3d_flags>
0

> <s_epik_input>
W0NIM11PW0NIMl1DKD1PKVtOSF1jMVtjSF1bY0hdW2NIXW5jMU4yW0NIMl1bQ0gyXVtDSDJdW0NIMl1bQ0gyXTI=

> <s_epik_cmdline>
J2VwaWtfcHl0aG9uJywgJy1waCcsICc3LjAnLCAnLXRuJywgJzgnLCAnLW1hJywgJzIwMCcsICctbWV0YWxfYmluZGluZycsICctaW1hZScsICc8aW5maWxlLm1hZT4nLCAnLW9tYWUnLCAnPG91dGZpbGUubWFlPic=

> <r_lp_tautomer_probability>
0.999994

> <r_epik_Ionization_Penalty>
1.86196

> <r_epik_Ionization_Penalty_Charging>
1.86195

> <r_epik_Ionization_Penalty_Neutral>
2.94331e-06

> <r_epik_State_Penalty>
1.98028

> <r_epik_Charging_Adjusted_Penalty>
3.84223

> <i_epik_Tot_Q>
1

> <i_epik_Tot_abs_Q>
1

> <r_epik_Metal_State_Penalty>
2.00833

> <b_epik_Metal_Only>
0

> <s_lp_Force_Field>
OPLS_2005

> <r_lp_Energy>
28.9806

> <b_lp_Chiralities_Consistent>
1

> <s_lp_Variant>
AV-unprocessed.smi:1770-2

> <Gold.Version>
5.8.1

> <Gold.Id.Protein>
6NUR|6NUR_protein|mol2

> <Gold.PLP.Fitness>
42.5737

> <Gold.PLP.PLP>
-31.7047

> <Gold.PLP.part.hbond>
-3.0000

> <Gold.PLP.part.metal>
0.0000

> <Gold.PLP.part.buried>
-4.2485

> <Gold.PLP.part.nonpolar>
-25.2224

> <Gold.PLP.part.repulsive>
0.2253

> <Gold.PLP.ligand.clash>
0.0000

> <Gold.PLP.ligand.torsion>
0.7293

> <Gold.PLP.Chemscore.Hbond>
4.0000

> <Gold.PLP.Chemscore.CHOScore>
0.0000

> <Gold.PLP.Chemscore.Metal>
0.0000

> <Gold.Chemscore.Hbonds>
donor molecule, donor type, donor heavy atom, donor atom, acceptor molecule, acceptor atom, score
      L1  H    11    38       P1  8028  2.00
      P1  H  6896  6909       L1     2  1.00
      P1  H  7997  8009       L1     5  1.00

> <Gold.PLP.Chemscore.Internal.Correction>
0.3276

> <Gold.Rescore>
     Score         DG    S(hbond)    S(metal)    S(lipo)     H(rot)  DE(clash)    DE(int)     intcor
     16.88     -20.05       2.82        0.00      75.04       1.42       0.15       3.03       ----

> <Gold.Chemscore.Fitness>
16.8762

> <Gold.Chemscore.DG>
-20.0513

> <Gold.Chemscore.ZeroCoef>
-5.4800

> <Gold.Chemscore.Hbond>
2.8224

> <Gold.Chemscore.Metal>
0.0000

> <Gold.Chemscore.Lipo>
75.0414

> <Gold.Chemscore.Internal_Hbond>
0.0000

> <Gold.Chemscore.DEClash>
0.1499

> <Gold.Chemscore.DEInternal>
3.0252

> <Gold.Chemscore.Rot>
1.4201

> <Gold.Chemscore.Internal.Correction>
   9.000000E+99

> <Gold.Chemscore.Hbonds>
donor molecule, donor type, donor heavy atom, donor atom, acceptor molecule, acceptor atom, score
      L1  H    11    38       P1  8028  0.94
      P1  H  6896  6909       L1     2  0.25
      P1  H  7997  8009       L1     5  1.00

> <Gold.Chemscore.Hbond.Weighted>
-9.4268

> <Gold.Chemscore.Metal.Weighted>
-0.0000

> <Gold.Chemscore.Lipo.Weighted>
-8.7798

> <Gold.Chemscore.Internal_Hbond.Weighted>
0.0000

> <Gold.Chemscore.DEClash.Weighted>
0.1499

> <Gold.Chemscore.DEInternal.Weighted>
3.0252

> <Gold.Chemscore.Rot.Weighted>
3.6354

> <Gold.Chemscore.Internal.Correction.Weighted>
   9.000000E+99

> <Gold.Protein.RotatedTorsions>
[ 6907 6896 6895 6894 ] final  123.98 input  -60.11 | X-H torsion
[ 7974 7965 7964 7962 ] final  138.20 input  175.53 | X-H torsion
[ 8008 7997 7996 7995 ] final  138.80 input   59.86 | X-H torsion
[ 10167 10162 10161 10158 ] final   79.54 input  -65.29 | X-H torsion
[ 10718 10713 10712 10709 ] final -135.80 input   66.30 | X-H torsion
[ 10763 10752 10751 10750 ] final -153.84 input  -60.55 | X-H torsion
[ 11005 11000 10999 10996 ] final  -60.06 input  -57.11 | X-H torsion

> <Gold.Protein.ActiveResidues>
 VAL166  LYS551  ARG553  GLY616  TRP617  ASP618  TYR619  PRO620  LYS621  CYS622 
 ASP623  PHE694  ASN695  SER759  ASP760  ASP761  ALA762  ILE779  LEU786  VAL792 
 PHE793  MET794  SER795  GLU796  ALA797  LYS798  CYS799  TRP800  GLU811  SER814 

> <Gold.Protein.RotatedAtoms>
  152.4117  133.6973  159.6403 H   0  0  0  0  0  0  0  0  0  0  0  0  # atno 6907 bound_to 6896
  150.7997  133.8612  159.3241 H   0  0  0  0  0  0  0  0  0  0  0  0  # atno 6908 bound_to 6896
  151.6353  135.1020  160.0181 H   0  0  0  0  0  0  0  0  0  0  0  0  # atno 6909 bound_to 6896
  144.9395  139.4948  143.5578 H   0  0  0  0  0  0  0  0  0  0  0  0  # atno 7974 bound_to 7965
  156.2995  140.2384  156.4133 H   0  0  0  0  0  0  0  0  0  0  0  0  # atno 8008 bound_to 7997
  154.8421  140.0428  157.1568 H   0  0  0  0  0  0  0  0  0  0  0  0  # atno 8009 bound_to 7997
  154.9091  140.2988  155.5279 H   0  0  0  0  0  0  0  0  0  0  0  0  # atno 8010 bound_to 7997
  139.9592  144.5972  150.8088 H   0  0  0  0  0  0  0  0  0  0  0  0  # atno 10167 bound_to 10162
  156.2701  130.7260  151.1224 H   0  0  0  0  0  0  0  0  0  0  0  0  # atno 10718 bound_to 10713
  154.7900  135.3203  154.7798 H   0  0  0  0  0  0  0  0  0  0  0  0  # atno 10763 bound_to 10752
  153.8489  135.6864  153.4799 H   0  0  0  0  0  0  0  0  0  0  0  0  # atno 10764 bound_to 10752
  153.1567  135.4677  154.9654 H   0  0  0  0  0  0  0  0  0  0  0  0  # atno 10765 bound_to 10752
  141.1272  133.6620  156.5166 H   0  0  0  0  0  0  0  0  0  0  0  0  # atno 11005 bound_to 11000
  146.3280  139.8404  142.8891 LP  0  0  0  0  0  0  0  0  0  0  0  0  # atno 17320 bound_to 7965
  145.3013  141.0195  143.3607 LP  0  0  0  0  0  0  0  0  0  0  0  0  # atno 17321 bound_to 7965
  140.7558  143.3054  151.2975 LP  0  0  0  0  0  0  0  0  0  0  0  0  # atno 17342 bound_to 10162
  139.6567  144.0263  152.2664 LP  0  0  0  0  0  0  0  0  0  0  0  0  # atno 17343 bound_to 10162
  157.7281  131.0634  150.5836 LP  0  0  0  0  0  0  0  0  0  0  0  0  # atno 17370 bound_to 10713
  156.5932  130.4335  149.5928 LP  0  0  0  0  0  0  0  0  0  0  0  0  # atno 17371 bound_to 10713
  140.4326  134.7088  157.4950 LP  0  0  0  0  0  0  0  0  0  0  0  0  # atno 17394 bound_to 11000
  140.0283  134.6444  155.9141 LP  0  0  0  0  0  0  0  0  0  0  0  0  # atno 17395 bound_to 11000

$$$$
