AV-unprocessed.smi:2928|AV-procd|sdf|11238|dock2
  -GOLD-   2272016133D 1   1.00000     0.00000
 Structure written by MMmdl.
 56 59  0  0  0  0  0  0  0  0  3 V2000
  151.6188  139.5812  157.3493 C   0  0  0  0  0  0  0  0  0  0  0  0
  150.4600  139.3913  156.4447 N   0  3  2  0  0  0  0  0  0  0  0  0
  149.4931  138.3558  156.8803 C   0  0  1  0  0  0  0  0  0  0  0  0
  148.1624  138.5553  156.1189 C   0  0  0  0  0  0  0  0  0  0  0  0
  148.3214  138.6135  154.5877 C   0  0  0  0  0  0  0  0  0  0  0  0
  149.5495  139.4364  154.1522 C   0  0  0  0  0  0  0  0  0  0  0  0
  150.8082  139.1941  155.0176 C   0  0  2  0  0  0  0  0  0  0  0  0
  151.5146  137.8340  154.7881 C   0  0  0  0  0  0  0  0  0  0  0  0
  150.8558  136.6060  155.4642 C   0  0  2  0  0  0  0  0  0  0  0  0
  150.0502  135.8402  154.5154 N   0  0  0  0  0  0  0  0  0  0  0  0
  149.6694  134.5626  154.6610 C   0  0  0  0  0  0  0  0  0  0  0  0
  149.9704  133.8691  155.6320 O   0  0  0  0  0  0  0  0  0  0  0  0
  148.9069  134.1632  153.6299 N   0  0  0  0  0  0  0  0  0  0  0  0
  148.2493  132.9125  153.4556 C   0  0  0  0  0  0  0  0  0  0  0  0
  148.8369  131.6786  153.8347 C   0  0  0  0  0  0  0  0  0  0  0  0
  148.1364  130.4755  153.6168 C   0  0  0  0  0  0  0  0  0  0  0  0
  146.8659  130.5218  153.0138 C   0  0  0  0  0  0  0  0  0  0  0  0
  146.3413  131.7106  152.6497 N   0  3  0  0  0  0  0  0  0  0  0  0
  146.9728  132.8953  152.8377 C   0  0  0  0  0  0  0  0  0  0  0  0
  146.3382  134.0788  152.4228 N   0  0  0  0  0  0  0  0  0  0  0  0
  146.1112  134.1960  150.9922 C   0  0  0  0  0  0  0  0  0  0  0  0
  145.0953  135.3301  150.8325 C   0  0  0  0  0  0  0  0  0  0  0  0
  144.4038  135.4367  152.1975 C   0  0  0  0  0  0  0  0  0  0  0  0
  145.0598  134.3530  153.0569 C   0  0  0  0  0  0  0  0  0  0  0  0
  150.0999  136.9338  156.7808 C   0  0  0  0  0  0  0  0  0  0  0  0
  152.2505  138.6950  157.4040 H   0  0  0  0  0  0  0  0  0  0  0  0
  151.2781  139.8153  158.3581 H   0  0  0  0  0  0  0  0  0  0  0  0
  152.2346  140.4139  157.0084 H   0  0  0  0  0  0  0  0  0  0  0  0
  149.2693  138.5353  157.9330 H   0  0  0  0  0  0  0  0  0  0  0  0
  147.4467  137.7792  156.3917 H   0  0  0  0  0  0  0  0  0  0  0  0
  147.7201  139.4961  156.4495 H   0  0  0  0  0  0  0  0  0  0  0  0
  148.3706  137.6114  154.1759 H   0  0  0  0  0  0  0  0  0  0  0  0
  147.4218  139.0431  154.1457 H   0  0  0  0  0  0  0  0  0  0  0  0
  149.7688  139.2541  153.0996 H   0  0  0  0  0  0  0  0  0  0  0  0
  149.2893  140.4935  154.2222 H   0  0  0  0  0  0  0  0  0  0  0  0
  151.5194  139.9743  154.7415 H   0  0  0  0  0  0  0  0  0  0  0  0
  151.6568  137.6581  153.7208 H   0  0  0  0  0  0  0  0  0  0  0  0
  152.5261  137.9214  155.1864 H   0  0  0  0  0  0  0  0  0  0  0  0
  151.6762  135.9363  155.7304 H   0  0  0  0  0  0  0  0  0  0  0  0
  149.7533  136.3274  153.6825 H   0  0  0  0  0  0  0  0  0  0  0  0
  148.6824  134.8695  152.9444 H   0  0  0  0  0  0  0  0  0  0  0  0
  149.8201  131.6317  154.2774 H   0  0  0  0  0  0  0  0  0  0  0  0
  148.5719  129.5295  153.9039 H   0  0  0  0  0  0  0  0  0  0  0  0
  146.2603  129.6511  152.8075 H   0  0  0  0  0  0  0  0  0  0  0  0
  147.0402  134.4114  150.4635 H   0  0  0  0  0  0  0  0  0  0  0  0
  145.7022  133.2677  150.5912 H   0  0  0  0  0  0  0  0  0  0  0  0
  145.6042  136.2664  150.6003 H   0  0  0  0  0  0  0  0  0  0  0  0
  144.3912  135.1259  150.0252 H   0  0  0  0  0  0  0  0  0  0  0  0
  144.5829  136.4226  152.6284 H   0  0  0  0  0  0  0  0  0  0  0  0
  143.3247  135.2956  152.1287 H   0  0  0  0  0  0  0  0  0  0  0  0
  144.4378  133.4568  153.0690 H   0  0  0  0  0  0  0  0  0  0  0  0
  145.1940  134.6836  154.0873 H   0  0  0  0  0  0  0  0  0  0  0  0
  150.8141  136.8262  157.5980 H   0  0  0  0  0  0  0  0  0  0  0  0
  149.3332  136.1880  156.9929 H   0  0  0  0  0  0  0  0  0  0  0  0
  149.9578  140.2669  156.4842 H   0  0  0  0  0  0  0  0  0  0  0  0
  145.4210  131.7169  152.2096 H   0  0  0  0  0  0  0  0  0  0  0  0
  1  2  1  0  0  0  0
  1 26  1  0  0  0  0
  1 27  1  0  0  0  0
  1 28  1  0  0  0  0
  2  7  1  0  0  0  0
  2  3  1  0  0  0  0
  2 55  1  0  0  0  0
  3 25  1  0  0  0  0
  3  4  1  0  0  0  0
  3 29  1  0  0  0  0
  4  5  1  0  0  0  0
  4 30  1  0  0  0  0
  4 31  1  0  0  0  0
  5  6  1  0  0  0  0
  5 32  1  0  0  0  0
  5 33  1  0  0  0  0
  6  7  1  0  0  0  0
  6 34  1  0  0  0  0
  6 35  1  0  0  0  0
  7  8  1  0  0  0  0
  7 36  1  0  0  0  0
  8  9  1  0  0  0  0
  8 37  1  0  0  0  0
  8 38  1  0  0  0  0
  9 10  1  0  0  0  0
  9 25  1  0  0  0  0
  9 39  1  0  0  0  0
 10 11  1  0  0  0  0
 10 40  1  0  0  0  0
 11 12  2  0  0  0  0
 11 13  1  0  0  0  0
 13 14  1  0  0  0  0
 13 41  1  0  0  0  0
 14 19  1  0  0  0  0
 14 15  2  0  0  0  0
 15 16  1  0  0  0  0
 15 42  1  0  0  0  0
 16 17  2  0  0  0  0
 16 43  1  0  0  0  0
 17 18  1  0  0  0  0
 17 44  1  0  0  0  0
 18 19  2  0  0  0  0
 18 56  1  0  0  0  0
 19 20  1  0  0  0  0
 20 24  1  0  0  0  0
 20 21  1  0  0  0  0
 21 22  1  0  0  0  0
 21 45  1  0  0  0  0
 21 46  1  0  0  0  0
 22 23  1  0  0  0  0
 22 47  1  0  0  0  0
 22 48  1  0  0  0  0
 23 24  1  0  0  0  0
 23 49  1  0  0  0  0
 23 50  1  0  0  0  0
 24 51  1  0  0  0  0
 24 52  1  0  0  0  0
 25 53  1  0  0  0  0
 25 54  1  0  0  0  0
M  CHG  1   2   1
M  CHG  1  18   1
M  END
> <s_m_source_file>
AV-unprocessed.smi

> <i_m_source_file_index>
2928

> <i_lp_mmshare_version>
43012

> <i_f3d_flags>
0

> <s_epik_input>
W0NIMl0xW0NIMl1bQ0gyXVtDQEhdKE4oW0NIM10pW0NIXTEyKVtDSDJdW0NASF0oW0NIMl0yKVtOSF1DKD1PKVtOSF1jM1tjSF1bY0hdW2NIXW5jM040W0NIMl1bQ0gyXVtDSDJdW0NIMl00

> <s_epik_cmdline>
J2VwaWtfcHl0aG9uJywgJy1waCcsICc3LjAnLCAnLXRuJywgJzgnLCAnLW1hJywgJzIwMCcsICctbWV0YWxfYmluZGluZycsICctaW1hZScsICc8aW5maWxlLm1hZT4nLCAnLW9tYWUnLCAnPG91dGZpbGUubWFlPic=

> <r_lp_tautomer_probability>
0.999994

> <r_epik_Ionization_Penalty>
1.2404

> <r_epik_Ionization_Penalty_Charging>
1.24038

> <r_epik_Ionization_Penalty_Neutral>
1.86539e-05

> <r_epik_State_Penalty>
1.30821

> <r_epik_Charging_Adjusted_Penalty>
2.54859

> <i_epik_Tot_Q>
2

> <i_epik_Tot_abs_Q>
2

> <r_epik_Metal_State_Penalty>
1.3782

> <b_epik_Metal_Only>
0

> <s_lp_Force_Field>
OPLS_2005

> <r_lp_Energy>
76.0972

> <b_lp_Chiralities_Consistent>
1

> <s_lp_Variant>
AV-unprocessed.smi:2928-8

> <Gold.Version>
5.8.1

> <Gold.Id.Protein>
6NUR|6NUR_protein|mol2

> <Gold.PLP.Fitness>
40.0312

> <Gold.PLP.PLP>
-34.9903

> <Gold.PLP.part.hbond>
-2.5153

> <Gold.PLP.part.metal>
0.0000

> <Gold.PLP.part.buried>
-3.2879

> <Gold.PLP.part.nonpolar>
-29.9633

> <Gold.PLP.part.repulsive>
0.2369

> <Gold.PLP.ligand.clash>
0.0000

> <Gold.PLP.ligand.torsion>
0.4817

> <Gold.PLP.Chemscore.Hbond>
1.9760

> <Gold.PLP.Chemscore.CHOScore>
0.0000

> <Gold.PLP.Chemscore.Metal>
0.0000

> <Gold.Chemscore.Hbonds>
donor molecule, donor type, donor heavy atom, donor atom, acceptor molecule, acceptor atom, score
      L1  H    10    40       P1  7948  0.96
      L1  H    13    41       P1  7948  1.00

> <Gold.PLP.Chemscore.Internal.Correction>
0.0763

> <Gold.Rescore>
     Score         DG    S(hbond)    S(metal)    S(lipo)     H(rot)  DE(clash)    DE(int)     intcor
     14.98     -16.57       1.56        0.00      76.11       1.19       0.15       1.44       ----

> <Gold.Chemscore.Fitness>
14.9789

> <Gold.Chemscore.DG>
-16.5661

> <Gold.Chemscore.ZeroCoef>
-5.4800

> <Gold.Chemscore.Hbond>
1.5636

> <Gold.Chemscore.Metal>
0.0000

> <Gold.Chemscore.Lipo>
76.1077

> <Gold.Chemscore.Internal_Hbond>
0.0000

> <Gold.Chemscore.DEClash>
0.1490

> <Gold.Chemscore.DEInternal>
1.4382

> <Gold.Chemscore.Rot>
1.1879

> <Gold.Chemscore.Internal.Correction>
   9.000000E+99

> <Gold.Chemscore.Hbonds>
donor molecule, donor type, donor heavy atom, donor atom, acceptor molecule, acceptor atom, score
      L1  H    10    40       P1  7948  0.32
      L1  H    13    41       P1  7948  0.30

> <Gold.Chemscore.Hbond.Weighted>
-5.2225

> <Gold.Chemscore.Metal.Weighted>
-0.0000

> <Gold.Chemscore.Lipo.Weighted>
-8.9046

> <Gold.Chemscore.Internal_Hbond.Weighted>
0.0000

> <Gold.Chemscore.DEClash.Weighted>
0.1490

> <Gold.Chemscore.DEInternal.Weighted>
1.4382

> <Gold.Chemscore.Rot.Weighted>
3.0410

> <Gold.Chemscore.Internal.Correction.Weighted>
   9.000000E+99

> <Gold.Protein.RotatedTorsions>
[ 6907 6896 6895 6894 ] final   83.92 input  -60.11 | X-H torsion
[ 7974 7965 7964 7962 ] final  -58.45 input  175.53 | X-H torsion
[ 8008 7997 7996 7995 ] final  124.10 input   59.86 | X-H torsion
[ 10167 10162 10161 10158 ] final   44.48 input  -65.29 | X-H torsion
[ 10718 10713 10712 10709 ] final    7.48 input   66.30 | X-H torsion
[ 10763 10752 10751 10750 ] final    5.38 input  -60.55 | X-H torsion
[ 11005 11000 10999 10996 ] final   92.56 input  -57.11 | X-H torsion

> <Gold.Protein.ActiveResidues>
 VAL166  LYS551  ARG553  GLY616  TRP617  ASP618  TYR619  PRO620  LYS621  CYS622 
 ASP623  PHE694  ASN695  SER759  ASP760  ASP761  ALA762  ILE779  LEU786  VAL792 
 PHE793  MET794  SER795  GLU796  ALA797  LYS798  CYS799  TRP800  GLU811  SER814 

> <Gold.Protein.RotatedAtoms>
  152.5339  134.2820  159.9010 H   0  0  0  0  0  0  0  0  0  0  0  0  # atno 6907 bound_to 6896
  151.2774  133.4219  159.2632 H   0  0  0  0  0  0  0  0  0  0  0  0  # atno 6908 bound_to 6896
  151.0314  134.9557  159.8169 H   0  0  0  0  0  0  0  0  0  0  0  0  # atno 6909 bound_to 6896
  145.8391  140.8429  143.0043 H   0  0  0  0  0  0  0  0  0  0  0  0  # atno 7974 bound_to 7965
  156.2790  140.2747  156.1735 H   0  0  0  0  0  0  0  0  0  0  0  0  # atno 8008 bound_to 7997
  155.0630  140.0386  157.2601 H   0  0  0  0  0  0  0  0  0  0  0  0  # atno 8009 bound_to 7997
  154.7101  140.2667  155.6642 H   0  0  0  0  0  0  0  0  0  0  0  0  # atno 8010 bound_to 7997
  140.3339  144.2555  150.6164 H   0  0  0  0  0  0  0  0  0  0  0  0  # atno 10167 bound_to 10162
  156.9375  130.5849  149.5651 H   0  0  0  0  0  0  0  0  0  0  0  0  # atno 10718 bound_to 10713
  153.2600  135.6922  153.7588 H   0  0  0  0  0  0  0  0  0  0  0  0  # atno 10763 bound_to 10752
  153.6651  135.3354  155.3139 H   0  0  0  0  0  0  0  0  0  0  0  0  # atno 10764 bound_to 10752
  154.8427  135.4486  154.1588 H   0  0  0  0  0  0  0  0  0  0  0  0  # atno 10765 bound_to 10752
  139.8822  134.8740  156.3590 H   0  0  0  0  0  0  0  0  0  0  0  0  # atno 11005 bound_to 11000
  144.6734  140.0786  143.7470 LP  0  0  0  0  0  0  0  0  0  0  0  0  # atno 17320 bound_to 7965
  145.9485  139.2717  143.1226 LP  0  0  0  0  0  0  0  0  0  0  0  0  # atno 17321 bound_to 7965
  140.5372  143.2231  151.8144 LP  0  0  0  0  0  0  0  0  0  0  0  0  # atno 17342 bound_to 10162
  139.4852  144.4646  151.9499 LP  0  0  0  0  0  0  0  0  0  0  0  0  # atno 17343 bound_to 10162
  156.0419  130.5501  150.8791 LP  0  0  0  0  0  0  0  0  0  0  0  0  # atno 17370 bound_to 10713
  157.5807  131.0946  150.9276 LP  0  0  0  0  0  0  0  0  0  0  0  0  # atno 17371 bound_to 10713
  140.9542  133.7431  156.0313 LP  0  0  0  0  0  0  0  0  0  0  0  0  # atno 17394 bound_to 11000
  140.8068  134.3445  157.5423 LP  0  0  0  0  0  0  0  0  0  0  0  0  # atno 17395 bound_to 11000

$$$$
