AV-unprocessed.smi:1019|AV-procd|sdf|4451|dock1
  -GOLD-   22720 2413D 1   1.00000     0.00000
 Structure written by MMmdl.
 43 45  0  0  0  0  0  0  0  0  1 V2000
  150.4335  139.5803  156.1945 C   0  0  0  0  0  0  0  0  0  0  0  0
  150.3900  141.0251  155.9689 N   0  0  0  0  0  0  0  0  0  0  0  0
  149.8470  141.7205  157.1369 C   0  0  0  0  0  0  0  0  0  0  0  0
  150.9040  142.3484  158.0303 C   0  0  0  0  0  0  0  0  0  0  0  0
  151.6280  141.5503  158.9413 C   0  0  0  0  0  0  0  0  0  0  0  0
  152.6077  142.1325  159.7692 C   0  0  0  0  0  0  0  0  0  0  0  0
  152.8687  143.5142  159.6874 C   0  0  0  0  0  0  0  0  0  0  0  0
  152.1497  144.3134  158.7778 C   0  0  0  0  0  0  0  0  0  0  0  0
  151.1697  143.7319  157.9498 C   0  0  0  0  0  0  0  0  0  0  0  0
  149.6166  141.3642  154.7711 C   0  0  0  0  0  0  0  0  0  0  0  0
  148.4478  140.4157  154.4311 C   0  0  2  0  0  0  0  0  0  0  0  0
  148.9312  139.3801  153.5970 O   0  0  0  0  0  0  0  0  0  0  0  0
  147.3129  141.1631  153.7051 C   0  0  0  0  0  0  0  0  0  0  0  0
  146.4166  141.8456  154.6218 N   0  0  0  0  0  0  0  0  0  0  0  0
  146.2102  141.5509  155.9198 C   0  0  0  0  0  0  0  0  0  0  0  0
  145.3453  142.3088  156.5875 N   0  0  0  0  0  0  0  0  0  0  0  0
  144.9418  143.2004  155.6083 C   0  0  0  0  0  0  0  0  0  0  0  0
  144.0260  144.2752  155.6685 C   0  0  0  0  0  0  0  0  0  0  0  0
  143.7693  145.0601  154.5251 C   0  0  0  0  0  0  0  0  0  0  0  0
  144.4219  144.7828  153.3064 C   0  0  0  0  0  0  0  0  0  0  0  0
  145.3388  143.7173  153.2219 C   0  0  0  0  0  0  0  0  0  0  0  0
  145.5935  142.9372  154.3654 C   0  0  0  0  0  0  0  0  0  0  0  0
  150.9166  139.0602  155.3691 H   0  0  0  0  0  0  0  0  0  0  0  0
  149.4303  139.1702  156.3173 H   0  0  0  0  0  0  0  0  0  0  0  0
  151.0076  139.3378  157.0889 H   0  0  0  0  0  0  0  0  0  0  0  0
  149.1926  142.5302  156.8113 H   0  0  0  0  0  0  0  0  0  0  0  0
  149.2250  141.0414  157.7222 H   0  0  0  0  0  0  0  0  0  0  0  0
  151.4307  140.4902  159.0084 H   0  0  0  0  0  0  0  0  0  0  0  0
  153.1586  141.5187  160.4665 H   0  0  0  0  0  0  0  0  0  0  0  0
  153.6199  143.9608  160.3220 H   0  0  0  0  0  0  0  0  0  0  0  0
  152.3491  145.3731  158.7147 H   0  0  0  0  0  0  0  0  0  0  0  0
  150.6214  144.3519  157.2557 H   0  0  0  0  0  0  0  0  0  0  0  0
  149.2324  142.3800  154.8768 H   0  0  0  0  0  0  0  0  0  0  0  0
  150.2818  141.3928  153.9066 H   0  0  0  0  0  0  0  0  0  0  0  0
  148.0350  139.9654  155.3326 H   0  0  0  0  0  0  0  0  0  0  0  0
  148.8817  139.6688  152.6987 H   0  0  0  0  0  0  0  0  0  0  0  0
  147.7298  141.9069  153.0247 H   0  0  0  0  0  0  0  0  0  0  0  0
  146.7308  140.4743  153.0915 H   0  0  0  0  0  0  0  0  0  0  0  0
  146.7248  140.7323  156.4016 H   0  0  0  0  0  0  0  0  0  0  0  0
  143.5198  144.4962  156.5966 H   0  0  0  0  0  0  0  0  0  0  0  0
  143.0676  145.8792  154.5836 H   0  0  0  0  0  0  0  0  0  0  0  0
  144.2179  145.3889  152.4359 H   0  0  0  0  0  0  0  0  0  0  0  0
  145.8391  143.5022  152.2896 H   0  0  0  0  0  0  0  0  0  0  0  0
  1  2  1  0  0  0  0
  1 23  1  0  0  0  0
  1 24  1  0  0  0  0
  1 25  1  0  0  0  0
  2  3  1  0  0  0  0
  2 10  1  0  0  0  0
  3  4  1  0  0  0  0
  3 26  1  0  0  0  0
  3 27  1  0  0  0  0
  4  9  1  0  0  0  0
  4  5  2  0  0  0  0
  5  6  1  0  0  0  0
  5 28  1  0  0  0  0
  6  7  2  0  0  0  0
  6 29  1  0  0  0  0
  7  8  1  0  0  0  0
  7 30  1  0  0  0  0
  8  9  2  0  0  0  0
  8 31  1  0  0  0  0
  9 32  1  0  0  0  0
 10 11  1  0  0  0  0
 10 33  1  0  0  0  0
 10 34  1  0  0  0  0
 11 12  1  0  0  0  0
 11 13  1  0  0  0  0
 11 35  1  0  0  0  0
 12 36  1  0  0  0  0
 13 14  1  0  0  0  0
 13 37  1  0  0  0  0
 13 38  1  0  0  0  0
 14 22  1  0  0  0  0
 14 15  1  0  0  0  0
 15 16  2  0  0  0  0
 15 39  1  0  0  0  0
 16 17  1  0  0  0  0
 17 22  2  0  0  0  0
 17 18  1  0  0  0  0
 18 19  2  0  0  0  0
 18 40  1  0  0  0  0
 19 20  1  0  0  0  0
 19 41  1  0  0  0  0
 20 21  2  0  0  0  0
 20 42  1  0  0  0  0
 21 22  1  0  0  0  0
 21 43  1  0  0  0  0
M  END
> <s_m_source_file>
AV-unprocessed.smi

> <i_m_source_file_index>
1019

> <i_lp_mmshare_version>
43012

> <i_f3d_flags>
0

> <s_epik_input>
W2NIXTFbY0hdW2NIXVtjSF1bY0hdYzFbQ0gyXU4oW0NIM10pW0NIMl1bQ0BIXShbT0hdKVtDSDJdbihbY0hdbjIpYyhjMjMpW2NIXVtjSF1bY0hdW2NIXTM=

> <s_epik_cmdline>
J2VwaWtfcHl0aG9uJywgJy1waCcsICc3LjAnLCAnLXRuJywgJzgnLCAnLW1hJywgJzIwMCcsICctbWV0YWxfYmluZGluZycsICctaW1hZScsICc8aW5maWxlLm1hZT4nLCAnLW9tYWUnLCAnPG91dGZpbGUubWFlPic=

> <r_epik_Ionization_Penalty>
1.56741

> <r_epik_Ionization_Penalty_Charging>
0

> <r_epik_Ionization_Penalty_Neutral>
1.56741

> <r_epik_State_Penalty>
1.62466

> <r_epik_Charging_Adjusted_Penalty>
1.62466

> <i_epik_Tot_Q>
0

> <i_epik_Tot_abs_Q>
0

> <r_epik_Metal_State_Penalty>
1.58486

> <b_epik_Metal_Only>
0

> <s_lp_Force_Field>
OPLS_2005

> <r_lp_Energy>
24.0301

> <b_lp_Chiralities_Consistent>
1

> <s_lp_Variant>
AV-unprocessed.smi:1019-9

> <Gold.Version>
5.8.1

> <Gold.Id.Protein>
6NUR|6NUR_protein|mol2

> <Gold.PLP.Fitness>
51.2464

> <Gold.PLP.PLP>
-51.8513

> <Gold.PLP.part.hbond>
-0.9683

> <Gold.PLP.part.metal>
0.0000

> <Gold.PLP.part.buried>
-6.0545

> <Gold.PLP.part.nonpolar>
-45.3578

> <Gold.PLP.part.repulsive>
0.1488

> <Gold.PLP.ligand.clash>
0.0000

> <Gold.PLP.ligand.torsion>
2.1977

> <Gold.PLP.Chemscore.Hbond>
1.0000

> <Gold.PLP.Chemscore.CHOScore>
0.0000

> <Gold.PLP.Chemscore.Metal>
0.0000

> <Gold.Chemscore.Hbonds>
donor molecule, donor type, donor heavy atom, donor atom, acceptor molecule, acceptor atom, score
      L1  H    12    36       P1  7957  1.00

> <Gold.PLP.Chemscore.Internal.Correction>
0.7905

> <Gold.Rescore>
     Score         DG    S(hbond)    S(metal)    S(lipo)     H(rot)  DE(clash)    DE(int)     intcor
     15.05     -19.10       1.00        0.00     137.56       2.27       0.85       3.20       ----

> <Gold.Chemscore.Fitness>
15.0453

> <Gold.Chemscore.DG>
-19.0965

> <Gold.Chemscore.ZeroCoef>
-5.4800

> <Gold.Chemscore.Hbond>
0.9955

> <Gold.Chemscore.Metal>
0.0000

> <Gold.Chemscore.Lipo>
137.5589

> <Gold.Chemscore.Internal_Hbond>
0.0000

> <Gold.Chemscore.DEClash>
0.8513

> <Gold.Chemscore.DEInternal>
3.1999

> <Gold.Chemscore.Rot>
2.2667

> <Gold.Chemscore.Internal.Correction>
   9.000000E+99

> <Gold.Chemscore.Hbonds>
donor molecule, donor type, donor heavy atom, donor atom, acceptor molecule, acceptor atom, score
      L1  H    12    36       P1  7957  0.96

> <Gold.Chemscore.Hbond.Weighted>
-3.3249

> <Gold.Chemscore.Metal.Weighted>
-0.0000

> <Gold.Chemscore.Lipo.Weighted>
-16.0944

> <Gold.Chemscore.Internal_Hbond.Weighted>
0.0000

> <Gold.Chemscore.DEClash.Weighted>
0.8513

> <Gold.Chemscore.DEInternal.Weighted>
3.1999

> <Gold.Chemscore.Rot.Weighted>
5.8028

> <Gold.Chemscore.Internal.Correction.Weighted>
   9.000000E+99

> <Gold.Protein.RotatedTorsions>
[ 6907 6896 6895 6894 ] final   -9.81 input  -60.11 | X-H torsion
[ 7974 7965 7964 7962 ] final -171.13 input  175.53 | X-H torsion
[ 8008 7997 7996 7995 ] final  -46.97 input   59.86 | X-H torsion
[ 10167 10162 10161 10158 ] final   36.69 input  -65.29 | X-H torsion
[ 10718 10713 10712 10709 ] final   21.32 input   66.30 | X-H torsion
[ 10763 10752 10751 10750 ] final  -59.73 input  -60.55 | X-H torsion
[ 11005 11000 10999 10996 ] final -111.31 input  -57.11 | X-H torsion

> <Gold.Protein.ActiveResidues>
 VAL166  LYS551  ARG553  GLY616  TRP617  ASP618  TYR619  PRO620  LYS621  CYS622 
 ASP623  PHE694  ASN695  SER759  ASP760  ASP761  ALA762  ILE779  LEU786  VAL792 
 PHE793  MET794  SER795  GLU796  ALA797  LYS798  CYS799  TRP800  GLU811  SER814 

> <Gold.Protein.RotatedAtoms>
  151.4119  135.0986  159.9587 H   0  0  0  0  0  0  0  0  0  0  0  0  # atno 6907 bound_to 6896
  152.5017  133.8790  159.7347 H   0  0  0  0  0  0  0  0  0  0  0  0  # atno 6908 bound_to 6896
  150.9286  133.6737  159.2844 H   0  0  0  0  0  0  0  0  0  0  0  0  # atno 6909 bound_to 6896
  144.7161  140.1968  143.6342 H   0  0  0  0  0  0  0  0  0  0  0  0  # atno 7974 bound_to 7965
  154.4012  140.1358  156.4099 H   0  0  0  0  0  0  0  0  0  0  0  0  # atno 8008 bound_to 7997
  155.7744  140.3483  155.5244 H   0  0  0  0  0  0  0  0  0  0  0  0  # atno 8009 bound_to 7997
  155.8735  140.0975  157.1524 H   0  0  0  0  0  0  0  0  0  0  0  0  # atno 8010 bound_to 7997
  140.4103  144.1601  150.6139 H   0  0  0  0  0  0  0  0  0  0  0  0  # atno 10167 bound_to 10162
  157.1369  130.6615  149.5969 H   0  0  0  0  0  0  0  0  0  0  0  0  # atno 10718 bound_to 10713
  154.2582  135.6313  153.5265 H   0  0  0  0  0  0  0  0  0  0  0  0  # atno 10763 bound_to 10752
  152.9900  135.5581  154.5733 H   0  0  0  0  0  0  0  0  0  0  0  0  # atno 10764 bound_to 10752
  154.5276  135.2886  155.1183 H   0  0  0  0  0  0  0  0  0  0  0  0  # atno 10765 bound_to 10752
  141.0742  133.9329  157.2424 H   0  0  0  0  0  0  0  0  0  0  0  0  # atno 11005 bound_to 11000
  145.8717  139.2275  143.1657 LP  0  0  0  0  0  0  0  0  0  0  0  0  # atno 17320 bound_to 7965
  146.0078  140.8462  142.9986 LP  0  0  0  0  0  0  0  0  0  0  0  0  # atno 17321 bound_to 7965
  140.4645  143.2436  151.9175 LP  0  0  0  0  0  0  0  0  0  0  0  0  # atno 17342 bound_to 10162
  139.4782  144.5434  151.8495 LP  0  0  0  0  0  0  0  0  0  0  0  0  # atno 17343 bound_to 10162
  155.9796  130.4791  150.6727 LP  0  0  0  0  0  0  0  0  0  0  0  0  # atno 17370 bound_to 10713
  157.4342  131.0853  151.1008 LP  0  0  0  0  0  0  0  0  0  0  0  0  # atno 17371 bound_to 10713
  139.9554  135.0166  156.9114 LP  0  0  0  0  0  0  0  0  0  0  0  0  # atno 17394 bound_to 11000
  140.5609  134.0535  155.7398 LP  0  0  0  0  0  0  0  0  0  0  0  0  # atno 17395 bound_to 11000

$$$$
