AV-unprocessed.smi:2840|AV-procd|sdf|10933|dock1
  -GOLD-   2272015383D 1   1.00000     0.00000
 Structure written by MMmdl.
 36 37  0  0  0  0  0  0  0  0  1 V2000
  152.2346  139.4073  157.7405 C   0  0  0  0  0  0  0  0  0  0  0  0
  151.6176  138.9828  156.3969 C   0  0  2  0  0  0  0  0  0  0  0  0
  150.7479  140.1046  155.7925 C   0  0  0  0  0  0  0  0  0  0  0  0
  150.1851  139.7048  154.4194 C   0  0  0  0  0  0  0  0  0  0  0  0
  149.3964  138.3895  154.4999 C   0  0  0  0  0  0  0  0  0  0  0  0
  150.2526  137.2626  155.1035 C   0  0  0  0  0  0  0  0  0  0  0  0
  150.8371  137.6454  156.4785 C   0  0  2  0  0  0  0  0  0  0  0  0
  149.7641  137.6966  157.4743 N   0  0  0  0  0  0  0  0  0  0  0  0
  149.6320  136.8897  158.5379 C   0  0  0  0  0  0  0  0  0  0  0  0
  150.4376  136.0048  158.8279 O   0  0  0  0  0  0  0  0  0  0  0  0
  148.5155  137.1806  159.2283 N   0  0  0  0  0  0  0  0  0  0  0  0
  148.0082  136.5396  160.3899 C   0  0  0  0  0  0  0  0  0  0  0  0
  148.1496  135.1334  160.4072 C   0  0  0  0  0  0  0  0  0  0  0  0
  147.6846  134.4033  161.5183 C   0  0  0  0  0  0  0  0  0  0  0  0
  147.0875  135.0992  162.5845 C   0  0  0  0  0  0  0  0  0  0  0  0
  146.9829  136.4989  162.4868 C   0  0  0  0  0  0  0  0  0  0  0  0
  147.4289  137.2006  161.4234 N   0  0  0  0  0  0  0  0  0  0  0  0
  151.4695  139.6607  158.4744 H   0  0  0  0  0  0  0  0  0  0  0  0
  152.8734  140.2821  157.6174 H   0  0  0  0  0  0  0  0  0  0  0  0
  152.8480  138.6089  158.1592 H   0  0  0  0  0  0  0  0  0  0  0  0
  152.4513  138.8206  155.7118 H   0  0  0  0  0  0  0  0  0  0  0  0
  149.9261  140.3445  156.4685 H   0  0  0  0  0  0  0  0  0  0  0  0
  151.3364  141.0171  155.6906 H   0  0  0  0  0  0  0  0  0  0  0  0
  149.5445  140.4990  154.0350 H   0  0  0  0  0  0  0  0  0  0  0  0
  151.0040  139.5961  153.7072 H   0  0  0  0  0  0  0  0  0  0  0  0
  148.4991  138.5369  155.1018 H   0  0  0  0  0  0  0  0  0  0  0  0
  149.0541  138.1020  153.5054 H   0  0  0  0  0  0  0  0  0  0  0  0
  149.6633  136.3482  155.1845 H   0  0  0  0  0  0  0  0  0  0  0  0
  151.0705  137.0341  154.4190 H   0  0  0  0  0  0  0  0  0  0  0  0
  151.5429  136.8601  156.7546 H   0  0  0  0  0  0  0  0  0  0  0  0
  149.0541  138.3989  157.3280 H   0  0  0  0  0  0  0  0  0  0  0  0
  147.9518  137.9369  158.8697 H   0  0  0  0  0  0  0  0  0  0  0  0
  148.6113  134.6146  159.5796 H   0  0  0  0  0  0  0  0  0  0  0  0
  147.7855  133.3285  161.5516 H   0  0  0  0  0  0  0  0  0  0  0  0
  146.7193  134.5746  163.4536 H   0  0  0  0  0  0  0  0  0  0  0  0
  146.5303  137.0706  163.2835 H   0  0  0  0  0  0  0  0  0  0  0  0
  1  2  1  0  0  0  0
  1 18  1  0  0  0  0
  1 19  1  0  0  0  0
  1 20  1  0  0  0  0
  2  7  1  0  0  0  0
  2  3  1  0  0  0  0
  2 21  1  0  0  0  0
  3  4  1  0  0  0  0
  3 22  1  0  0  0  0
  3 23  1  0  0  0  0
  4  5  1  0  0  0  0
  4 24  1  0  0  0  0
  4 25  1  0  0  0  0
  5  6  1  0  0  0  0
  5 26  1  0  0  0  0
  5 27  1  0  0  0  0
  6  7  1  0  0  0  0
  6 28  1  0  0  0  0
  6 29  1  0  0  0  0
  7  8  1  0  0  0  0
  7 30  1  0  0  0  0
  8  9  1  0  0  0  0
  8 31  1  0  0  0  0
  9 10  2  0  0  0  0
  9 11  1  0  0  0  0
 11 12  1  0  0  0  0
 11 32  1  0  0  0  0
 12 17  1  0  0  0  0
 12 13  2  0  0  0  0
 13 14  1  0  0  0  0
 13 33  1  0  0  0  0
 14 15  2  0  0  0  0
 14 34  1  0  0  0  0
 15 16  1  0  0  0  0
 15 35  1  0  0  0  0
 16 17  2  0  0  0  0
 16 36  1  0  0  0  0
M  END
> <s_m_source_file>
AV-unprocessed.smi

> <i_m_source_file_index>
2840

> <i_lp_mmshare_version>
43012

> <i_f3d_flags>
0

> <s_epik_input>
W0NIM11bQ0BASF0xW0NIMl1bQ0gyXVtDSDJdW0NIMl1bQ0BIXTFbTkhdQyg9TylbTkhdYzJbY0hdW2NIXVtjSF1bY0hdbjI=

> <s_epik_cmdline>
J2VwaWtfcHl0aG9uJywgJy1waCcsICc3LjAnLCAnLXRuJywgJzgnLCAnLW1hJywgJzIwMCcsICctbWV0YWxfYmluZGluZycsICctaW1hZScsICc8aW5maWxlLm1hZT4nLCAnLW9tYWUnLCAnPG91dGZpbGUubWFlPic=

> <r_lp_tautomer_probability>
1

> <r_epik_Ionization_Penalty>
5.29956e-05

> <r_epik_Ionization_Penalty_Charging>
0

> <r_epik_Ionization_Penalty_Neutral>
5.29956e-05

> <r_epik_State_Penalty>
-0

> <r_epik_Charging_Adjusted_Penalty>
0

> <i_epik_Tot_Q>
0

> <i_epik_Tot_abs_Q>
0

> <r_epik_Metal_State_Penalty>
-0

> <b_epik_Metal_Only>
0

> <s_lp_Force_Field>
OPLS_2005

> <r_lp_Energy>
11.7155

> <b_lp_Chiralities_Consistent>
1

> <s_lp_Variant>
AV-unprocessed.smi:2840-3

> <Gold.Version>
5.8.1

> <Gold.Id.Protein>
6NUR|6NUR_protein|mol2

> <Gold.PLP.Fitness>
36.4959

> <Gold.PLP.PLP>
-29.5610

> <Gold.PLP.part.hbond>
-2.6043

> <Gold.PLP.part.metal>
0.0000

> <Gold.PLP.part.buried>
-2.7503

> <Gold.PLP.part.nonpolar>
-24.4910

> <Gold.PLP.part.repulsive>
0.2286

> <Gold.PLP.ligand.clash>
0.0000

> <Gold.PLP.ligand.torsion>
0.3105

> <Gold.PLP.Chemscore.Hbond>
2.5160

> <Gold.PLP.Chemscore.CHOScore>
0.0000

> <Gold.PLP.Chemscore.Metal>
0.0000

> <Gold.Chemscore.Hbonds>
donor molecule, donor type, donor heavy atom, donor atom, acceptor molecule, acceptor atom, score
      P1  H  6896  6908       L1    10  0.87
      P1  H  6931  6943       L1    17  0.73
      P1  H  6934  6947       L1    17  0.91

> <Gold.PLP.Chemscore.Internal.Correction>
0.0079

> <Gold.Rescore>
     Score         DG    S(hbond)    S(metal)    S(lipo)     H(rot)  DE(clash)    DE(int)     intcor
     14.91     -16.47       1.54        0.00      71.94       1.00       0.01       1.55       ----

> <Gold.Chemscore.Fitness>
14.9123

> <Gold.Chemscore.DG>
-16.4738

> <Gold.Chemscore.ZeroCoef>
-5.4800

> <Gold.Chemscore.Hbond>
1.5379

> <Gold.Chemscore.Metal>
0.0000

> <Gold.Chemscore.Lipo>
71.9423

> <Gold.Chemscore.Internal_Hbond>
0.0000

> <Gold.Chemscore.DEClash>
0.0101

> <Gold.Chemscore.DEInternal>
1.5514

> <Gold.Chemscore.Rot>
1.0000

> <Gold.Chemscore.Internal.Correction>
   9.000000E+99

> <Gold.Chemscore.Hbonds>
donor molecule, donor type, donor heavy atom, donor atom, acceptor molecule, acceptor atom, score
      P1  H  6896  6908       L1    10  0.81
      P1  H  6931  6943       L1    17  0.08
      P1  H  6934  6947       L1    17  0.63

> <Gold.Chemscore.Hbond.Weighted>
-5.1366

> <Gold.Chemscore.Metal.Weighted>
-0.0000

> <Gold.Chemscore.Lipo.Weighted>
-8.4173

> <Gold.Chemscore.Internal_Hbond.Weighted>
0.0000

> <Gold.Chemscore.DEClash.Weighted>
0.0101

> <Gold.Chemscore.DEInternal.Weighted>
1.5514

> <Gold.Chemscore.Rot.Weighted>
2.5600

> <Gold.Chemscore.Internal.Correction.Weighted>
   9.000000E+99

> <Gold.Protein.RotatedTorsions>
[ 6907 6896 6895 6894 ] final -152.15 input  -60.11 | X-H torsion
[ 7974 7965 7964 7962 ] final  120.47 input  175.53 | X-H torsion
[ 8008 7997 7996 7995 ] final -119.65 input   59.86 | X-H torsion
[ 10167 10162 10161 10158 ] final  -96.03 input  -65.29 | X-H torsion
[ 10718 10713 10712 10709 ] final -172.95 input   66.30 | X-H torsion
[ 10763 10752 10751 10750 ] final  -40.00 input  -60.55 | X-H torsion
[ 11005 11000 10999 10996 ] final -120.23 input  -57.11 | X-H torsion

> <Gold.Protein.ActiveResidues>
 VAL166  LYS551  ARG553  GLY616  TRP617  ASP618  TYR619  PRO620  LYS621  CYS622 
 ASP623  PHE694  ASN695  SER759  ASP760  ASP761  ALA762  ILE779  LEU786  VAL792 
 PHE793  MET794  SER795  GLU796  ALA797  LYS798  CYS799  TRP800  GLU811  SER814 

> <Gold.Protein.RotatedAtoms>
  151.2235  133.4489  159.2601 H   0  0  0  0  0  0  0  0  0  0  0  0  # atno 6907 bound_to 6896
  151.0862  134.9888  159.8390 H   0  0  0  0  0  0  0  0  0  0  0  0  # atno 6908 bound_to 6896
  152.5430  134.2172  159.8826 H   0  0  0  0  0  0  0  0  0  0  0  0  # atno 6909 bound_to 6896
  145.1308  139.3328  143.4666 H   0  0  0  0  0  0  0  0  0  0  0  0  # atno 7974 bound_to 7965
  155.1191  140.0398  157.2745 H   0  0  0  0  0  0  0  0  0  0  0  0  # atno 8008 bound_to 7997
  154.6627  140.2594  155.7065 H   0  0  0  0  0  0  0  0  0  0  0  0  # atno 8009 bound_to 7997
  156.2626  140.2813  156.1106 H   0  0  0  0  0  0  0  0  0  0  0  0  # atno 8010 bound_to 7997
  140.2981  143.3179  152.0277 H   0  0  0  0  0  0  0  0  0  0  0  0  # atno 10167 bound_to 10162
  156.7632  130.9421  151.3118 H   0  0  0  0  0  0  0  0  0  0  0  0  # atno 10718 bound_to 10713
  153.9387  135.6764  153.4744 H   0  0  0  0  0  0  0  0  0  0  0  0  # atno 10763 bound_to 10752
  153.0942  135.4859  154.8745 H   0  0  0  0  0  0  0  0  0  0  0  0  # atno 10764 bound_to 10752
  154.7389  135.3156  154.8722 H   0  0  0  0  0  0  0  0  0  0  0  0  # atno 10765 bound_to 10752
  141.0159  134.0197  157.3351 H   0  0  0  0  0  0  0  0  0  0  0  0  # atno 11005 bound_to 11000
  146.3514  140.1306  142.8597 LP  0  0  0  0  0  0  0  0  0  0  0  0  # atno 17320 bound_to 7965
  145.0637  140.9106  143.4923 LP  0  0  0  0  0  0  0  0  0  0  0  0  # atno 17321 bound_to 7965
  139.4921  144.6476  151.6745 LP  0  0  0  0  0  0  0  0  0  0  0  0  # atno 17342 bound_to 10162
  140.5675  144.0165  150.6200 LP  0  0  0  0  0  0  0  0  0  0  0  0  # atno 17343 bound_to 10162
  157.6725  130.9064  150.0073 LP  0  0  0  0  0  0  0  0  0  0  0  0  # atno 17370 bound_to 10713
  156.1326  130.3643  149.9708 LP  0  0  0  0  0  0  0  0  0  0  0  0  # atno 17371 bound_to 10713
  139.9116  135.0191  156.7716 LP  0  0  0  0  0  0  0  0  0  0  0  0  # atno 17394 bound_to 11000
  140.6656  133.9605  155.7828 LP  0  0  0  0  0  0  0  0  0  0  0  0  # atno 17395 bound_to 11000

$$$$
