AV-unprocessed.smi:221|AV-procd|sdf|1700|dock5
  -GOLD-   2262020153D 1   1.00000     0.00000
 Structure written by MMmdl.
 50 53  0  0  0  0  0  0  0  0  1 V2000
  144.0953  133.2768  148.3515 N   0  0  0  0  0  0  0  0  0  0  0  0
  143.7389  132.7911  149.5450 C   0  0  0  0  0  0  0  0  0  0  0  0
  142.9178  131.8825  149.6484 O   0  0  0  0  0  0  0  0  0  0  0  0
  144.3819  133.3840  150.8125 C   0  0  2  0  0  0  0  0  0  0  0  0
  144.2254  134.9117  150.8695 C   0  0  0  0  0  0  0  0  0  0  0  0
  145.3697  135.3325  151.7798 C   0  0  2  0  0  0  0  0  0  0  0  0
  145.6995  136.6153  151.6320 F   0  0  0  0  0  0  0  0  0  0  0  0
  146.4909  134.3841  151.3654 C   0  0  0  0  0  0  0  0  0  0  0  0
  145.8317  133.1593  150.9191 N   0  0  0  0  0  0  0  0  0  0  0  0
  146.2166  132.0378  151.5703 C   0  0  0  0  0  0  0  0  0  0  0  0
  145.5334  130.8763  151.3916 N   0  0  0  0  0  0  0  0  0  0  0  0
  145.9156  129.7720  152.0412 C   0  0  0  0  0  0  0  0  0  0  0  0
  146.9270  129.6149  152.8988 N   0  0  0  0  0  0  0  0  0  0  0  0
  147.6078  130.7829  153.0810 C   0  0  0  0  0  0  0  0  0  0  0  0
  147.3190  132.0310  152.4636 C   0  0  0  0  0  0  0  0  0  0  0  0
  148.2192  132.9977  152.8936 N   0  0  0  0  0  0  0  0  0  0  0  0
  149.0015  132.3549  153.7178 C   0  0  0  0  0  0  0  0  0  0  0  0
  148.7101  131.0190  153.8825 N   0  0  0  0  0  0  0  0  0  0  0  0
  149.4099  130.0705  154.7303 C   0  0  0  0  0  0  0  0  0  0  0  0
  150.9386  129.9996  154.4698 C   0  0  1  0  0  0  0  0  0  0  0  0
  151.7066  131.1654  155.1442 C   0  0  0  0  0  0  0  0  0  0  0  0
  151.5377  131.1708  156.5470 O   0  0  0  0  0  0  0  0  0  0  0  0
  151.5012  128.6271  154.9238 C   0  0  1  0  0  0  0  0  0  0  0  0
  150.7867  127.4179  154.3427 C   0  0  0  0  0  0  0  0  0  0  0  0
  151.8026  126.3045  154.5640 C   0  0  0  0  0  0  0  0  0  0  0  0
  153.0748  126.9203  154.4099 O   0  0  0  0  0  0  0  0  0  0  0  0
  152.9403  128.3371  154.4745 C   0  0  0  0  0  0  0  0  0  0  0  0
  143.8676  132.9539  151.6737 H   0  0  0  0  0  0  0  0  0  0  0  0
  145.1012  135.1731  152.8250 H   0  0  0  0  0  0  0  0  0  0  0  0
  143.6845  132.8961  147.5116 H   0  0  0  0  0  0  0  0  0  0  0  0
  144.7763  134.0207  148.2938 H   0  0  0  0  0  0  0  0  0  0  0  0
  144.3579  135.3544  149.8803 H   0  0  0  0  0  0  0  0  0  0  0  0
  143.2523  135.2234  151.2504 H   0  0  0  0  0  0  0  0  0  0  0  0
  147.0403  134.7922  150.5159 H   0  0  0  0  0  0  0  0  0  0  0  0
  147.2085  134.2336  152.1742 H   0  0  0  0  0  0  0  0  0  0  0  0
  145.3275  128.8876  151.8453 H   0  0  0  0  0  0  0  0  0  0  0  0
  149.8226  132.8393  154.2260 H   0  0  0  0  0  0  0  0  0  0  0  0
  149.2199  130.3322  155.7720 H   0  0  0  0  0  0  0  0  0  0  0  0
  148.9451  129.0982  154.5685 H   0  0  0  0  0  0  0  0  0  0  0  0
  151.1020  130.0710  153.3931 H   0  0  0  0  0  0  0  0  0  0  0  0
  152.7690  131.1206  154.9031 H   0  0  0  0  0  0  0  0  0  0  0  0
  151.3478  132.1316  154.7930 H   0  0  0  0  0  0  0  0  0  0  0  0
  152.3903  131.1327  156.9531 H   0  0  0  0  0  0  0  0  0  0  0  0
  151.4573  128.5599  156.0124 H   0  0  0  0  0  0  0  0  0  0  0  0
  149.8325  127.2051  154.8250 H   0  0  0  0  0  0  0  0  0  0  0  0
  150.6081  127.5552  153.2752 H   0  0  0  0  0  0  0  0  0  0  0  0
  151.7246  125.9154  155.5801 H   0  0  0  0  0  0  0  0  0  0  0  0
  151.6721  125.4730  153.8709 H   0  0  0  0  0  0  0  0  0  0  0  0
  153.1252  128.7412  153.4782 H   0  0  0  0  0  0  0  0  0  0  0  0
  153.6818  128.7607  155.1522 H   0  0  0  0  0  0  0  0  0  0  0  0
  1  2  1  0  0  0  0
  1 30  1  0  0  0  0
  1 31  1  0  0  0  0
  2  3  2  0  0  0  0
  2  4  1  0  0  0  0
  4 28  1  0  0  0  0
  4  9  1  0  0  0  0
  4  5  1  0  0  0  0
  5  6  1  0  0  0  0
  5 32  1  0  0  0  0
  5 33  1  0  0  0  0
  6 29  1  0  0  0  0
  6  7  1  0  0  0  0
  6  8  1  0  0  0  0
  8  9  1  0  0  0  0
  8 34  1  0  0  0  0
  8 35  1  0  0  0  0
  9 10  1  0  0  0  0
 10 15  1  0  0  0  0
 10 11  2  0  0  0  0
 11 12  1  0  0  0  0
 12 13  2  0  0  0  0
 12 36  1  0  0  0  0
 13 14  1  0  0  0  0
 14 18  1  0  0  0  0
 14 15  2  0  0  0  0
 15 16  1  0  0  0  0
 16 17  2  0  0  0  0
 17 18  1  0  0  0  0
 17 37  1  0  0  0  0
 18 19  1  0  0  0  0
 19 20  1  0  0  0  0
 19 38  1  0  0  0  0
 19 39  1  0  0  0  0
 20 21  1  0  0  0  0
 20 23  1  0  0  0  0
 20 40  1  0  0  0  0
 21 22  1  0  0  0  0
 21 41  1  0  0  0  0
 21 42  1  0  0  0  0
 22 43  1  0  0  0  0
 23 27  1  0  0  0  0
 23 24  1  0  0  0  0
 23 44  1  0  0  0  0
 24 25  1  0  0  0  0
 24 45  1  0  0  0  0
 24 46  1  0  0  0  0
 25 26  1  0  0  0  0
 25 47  1  0  0  0  0
 25 48  1  0  0  0  0
 26 27  1  0  0  0  0
 27 49  1  0  0  0  0
 27 50  1  0  0  0  0
M  END
> <s_m_source_file>
AV-unprocessed.smi

> <i_m_source_file_index>
221

> <i_lp_mmshare_version>
43012

> <i_f3d_flags>
0

> <s_epik_input>
W05IMl1DKD1PKVtDQEBIXTFbQ0gyXVtDQEBIXShGKVtDSDJdTjFjKG5bY0hdbjIpYyhjMjMpbltjSF1uM1tDSDJdW0NASF0oW0NIMl1bT0hdKVtDQEBIXTRbQ0gyXVtDSDJdT1tDSDJdNA==

> <s_epik_cmdline>
J2VwaWtfcHl0aG9uJywgJy1waCcsICc3LjAnLCAnLXRuJywgJzgnLCAnLW1hJywgJzIwMCcsICctbWV0YWxfYmluZGluZycsICctaW1hZScsICc8aW5maWxlLm1hZT4nLCAnLW9tYWUnLCAnPG91dGZpbGUubWFlPic=

> <r_lp_tautomer_probability>
1

> <r_epik_Ionization_Penalty>
0.000818822

> <r_epik_Ionization_Penalty_Charging>
0

> <r_epik_Ionization_Penalty_Neutral>
0.000818822

> <r_epik_State_Penalty>
0.000440551

> <r_epik_Charging_Adjusted_Penalty>
0.000440551

> <i_epik_Tot_Q>
0

> <i_epik_Tot_abs_Q>
0

> <r_epik_Metal_State_Penalty>
-0

> <b_epik_Metal_Only>
0

> <s_lp_Force_Field>
OPLS_2005

> <r_lp_Energy>
51.3471

> <b_lp_Chiralities_Consistent>
1

> <s_lp_Variant>
AV-unprocessed.smi:221-15

> <Gold.Version>
5.8.1

> <Gold.Id.Protein>
6NUR|6NUR_protein|mol2

> <Gold.PLP.Fitness>
39.5762

> <Gold.PLP.PLP>
-37.7927

> <Gold.PLP.part.hbond>
-1.7947

> <Gold.PLP.part.metal>
0.0000

> <Gold.PLP.part.buried>
-5.0547

> <Gold.PLP.part.nonpolar>
-35.6834

> <Gold.PLP.part.repulsive>
4.8320

> <Gold.PLP.ligand.clash>
2.9858

> <Gold.PLP.ligand.torsion>
0.7417

> <Gold.PLP.Chemscore.Hbond>
2.0000

> <Gold.PLP.Chemscore.CHOScore>
0.0000

> <Gold.PLP.Chemscore.Metal>
0.0000

> <Gold.Chemscore.Hbonds>
donor molecule, donor type, donor heavy atom, donor atom, acceptor molecule, acceptor atom, score
      L1  H     1    31       P1  7921  1.00
      P1  H 10785 10796       L1     3  1.00

> <Gold.PLP.Chemscore.Internal.Correction>
0.2528

> <Gold.Rescore>
     Score         DG    S(hbond)    S(metal)    S(lipo)     H(rot)  DE(clash)    DE(int)     intcor
      5.68      -9.56       1.97        0.00      60.08       3.72       1.79       2.08       ----

> <Gold.Chemscore.Fitness>
5.6835

> <Gold.Chemscore.DG>
-9.5603

> <Gold.Chemscore.ZeroCoef>
-5.4800

> <Gold.Chemscore.Hbond>
1.9684

> <Gold.Chemscore.Metal>
0.0000

> <Gold.Chemscore.Lipo>
60.0809

> <Gold.Chemscore.Internal_Hbond>
0.0000

> <Gold.Chemscore.DEClash>
1.7920

> <Gold.Chemscore.DEInternal>
2.0848

> <Gold.Chemscore.Rot>
3.7202

> <Gold.Chemscore.Internal.Correction>
   9.000000E+99

> <Gold.Chemscore.Hbonds>
donor molecule, donor type, donor heavy atom, donor atom, acceptor molecule, acceptor atom, score
      L1  H     1    31       P1  7921  0.97
      P1  H 10785 10796       L1     3  0.96

> <Gold.Chemscore.Hbond.Weighted>
-6.5746

> <Gold.Chemscore.Metal.Weighted>
-0.0000

> <Gold.Chemscore.Lipo.Weighted>
-7.0295

> <Gold.Chemscore.Internal_Hbond.Weighted>
0.0000

> <Gold.Chemscore.DEClash.Weighted>
1.7920

> <Gold.Chemscore.DEInternal.Weighted>
2.0848

> <Gold.Chemscore.Rot.Weighted>
9.5237

> <Gold.Chemscore.Internal.Correction.Weighted>
   9.000000E+99

> <Gold.Protein.RotatedTorsions>
[ 6907 6896 6895 6894 ] final   49.48 input  -60.11 | X-H torsion
[ 7974 7965 7964 7962 ] final  159.07 input  175.53 | X-H torsion
[ 8008 7997 7996 7995 ] final  134.83 input   59.86 | X-H torsion
[ 10167 10162 10161 10158 ] final   28.60 input  -65.29 | X-H torsion
[ 10718 10713 10712 10709 ] final -148.60 input   66.30 | X-H torsion
[ 10763 10752 10751 10750 ] final  170.13 input  -60.55 | X-H torsion
[ 11005 11000 10999 10996 ] final  -43.83 input  -57.11 | X-H torsion

> <Gold.Protein.ActiveResidues>
 VAL166  LYS551  ARG553  GLY616  TRP617  ASP618  TYR619  PRO620  LYS621  CYS622 
 ASP623  PHE694  ASN695  SER759  ASP760  ASP761  ALA762  ILE779  LEU786  VAL792 
 PHE793  MET794  SER795  GLU796  ALA797  LYS798  CYS799  TRP800  GLU811  SER814 

> <Gold.Protein.RotatedAtoms>
  152.2912  134.7719  160.0377 H   0  0  0  0  0  0  0  0  0  0  0  0  # atno 6907 bound_to 6896
  151.8265  133.3397  159.3608 H   0  0  0  0  0  0  0  0  0  0  0  0  # atno 6908 bound_to 6896
  150.7231  134.5453  159.5812 H   0  0  0  0  0  0  0  0  0  0  0  0  # atno 6909 bound_to 6896
  144.7810  139.7566  143.6259 H   0  0  0  0  0  0  0  0  0  0  0  0  # atno 7974 bound_to 7965
  156.3001  140.2486  156.3481 H   0  0  0  0  0  0  0  0  0  0  0  0  # atno 8008 bound_to 7997
  154.8991  140.0407  157.1902 H   0  0  0  0  0  0  0  0  0  0  0  0  # atno 8009 bound_to 7997
  154.8519  140.2907  155.5597 H   0  0  0  0  0  0  0  0  0  0  0  0  # atno 8010 bound_to 7997
  140.4839  144.0573  150.6274 H   0  0  0  0  0  0  0  0  0  0  0  0  # atno 10167 bound_to 10162
  156.4224  130.8035  151.2259 H   0  0  0  0  0  0  0  0  0  0  0  0  # atno 10718 bound_to 10713
  154.3931  135.2754  155.2142 H   0  0  0  0  0  0  0  0  0  0  0  0  # atno 10763 bound_to 10752
  154.4200  135.6002  153.6008 H   0  0  0  0  0  0  0  0  0  0  0  0  # atno 10764 bound_to 10752
  152.9832  135.5970  154.4188 H   0  0  0  0  0  0  0  0  0  0  0  0  # atno 10765 bound_to 10752
  141.0410  133.6780  156.2788 H   0  0  0  0  0  0  0  0  0  0  0  0  # atno 11005 bound_to 11000
  146.2018  139.5318  142.9738 LP  0  0  0  0  0  0  0  0  0  0  0  0  # atno 17320 bound_to 7965
  145.6050  141.0349  143.1998 LP  0  0  0  0  0  0  0  0  0  0  0  0  # atno 17321 bound_to 7965
  140.3823  143.2796  152.0156 LP  0  0  0  0  0  0  0  0  0  0  0  0  # atno 17342 bound_to 10162
  139.4838  144.6145  151.7372 LP  0  0  0  0  0  0  0  0  0  0  0  0  # atno 17343 bound_to 10162
  157.7508  131.0224  150.3790 LP  0  0  0  0  0  0  0  0  0  0  0  0  # atno 17370 bound_to 10713
  156.4110  130.3934  149.6891 LP  0  0  0  0  0  0  0  0  0  0  0  0  # atno 17371 bound_to 10713
  140.6234  134.5338  157.5550 LP  0  0  0  0  0  0  0  0  0  0  0  0  # atno 17394 bound_to 11000
  139.9276  134.8026  156.1024 LP  0  0  0  0  0  0  0  0  0  0  0  0  # atno 17395 bound_to 11000

$$$$
