AV-unprocessed.smi:3241|AV-procd|sdf|12385|dock9
  -GOLD-   2272018253D 1   1.00000     0.00000
 Structure written by MMmdl.
 44 45  0  0  0  0  0  0  0  0  2 V2000
  153.4246  141.3809  160.2400 C   0  0  0  0  0  0  0  0  0  0  0  0
  152.7707  142.7118  159.8332 C   0  0  2  0  0  0  0  0  0  0  0  0
  152.4554  143.5642  161.0789 C   0  0  0  0  0  0  0  0  0  0  0  0
  151.7972  144.9003  160.7039 C   0  0  0  0  0  0  0  0  0  0  0  0
  150.5293  144.6742  159.8695 C   0  0  0  0  0  0  0  0  0  0  0  0
  150.8341  143.8358  158.6196 C   0  0  0  0  0  0  0  0  0  0  0  0
  151.4971  142.4901  158.9855 C   0  0  1  0  0  0  0  0  0  0  0  0
  151.8791  141.8043  157.7989 O   0  0  0  0  0  0  0  0  0  0  0  0
  150.8704  140.9729  157.2440 C   0  0  0  0  0  0  0  0  0  0  0  0
  150.5733  141.4545  155.8205 C   0  0  0  0  0  0  0  0  0  0  0  0
  149.1985  141.9813  155.7152 N   0  3  0  0  0  0  0  0  0  0  0  0
  148.4961  141.5832  154.4804 C   0  0  0  0  0  0  0  0  0  0  0  0
  147.0981  142.2145  154.4139 C   0  0  0  0  0  0  0  0  0  0  0  0
  146.3123  141.9066  155.5929 N   0  0  0  0  0  0  0  0  0  0  0  0
  145.0410  141.3768  155.6637 C   0  0  0  0  0  0  0  0  0  0  0  0
  144.7194  141.2689  156.9865 C   0  0  0  0  0  0  0  0  0  0  0  0
  145.8716  141.7672  157.6564 C   0  0  0  0  0  0  0  0  0  0  0  0
  146.8230  142.1492  156.8192 N   0  0  0  0  0  0  0  0  0  0  0  0
  152.7463  140.7733  160.8398 H   0  0  0  0  0  0  0  0  0  0  0  0
  154.3265  141.5514  160.8284 H   0  0  0  0  0  0  0  0  0  0  0  0
  153.7124  140.7948  159.3670 H   0  0  0  0  0  0  0  0  0  0  0  0
  153.4910  143.2626  159.2262 H   0  0  0  0  0  0  0  0  0  0  0  0
  151.7942  143.0102  161.7470 H   0  0  0  0  0  0  0  0  0  0  0  0
  153.3698  143.7558  161.6414 H   0  0  0  0  0  0  0  0  0  0  0  0
  151.5535  145.4611  161.6066 H   0  0  0  0  0  0  0  0  0  0  0  0
  152.5034  145.5120  160.1409 H   0  0  0  0  0  0  0  0  0  0  0  0
  149.7767  144.1683  160.4757 H   0  0  0  0  0  0  0  0  0  0  0  0
  150.0998  145.6334  159.5787 H   0  0  0  0  0  0  0  0  0  0  0  0
  149.9091  143.6727  158.0672 H   0  0  0  0  0  0  0  0  0  0  0  0
  151.4929  144.3996  157.9579 H   0  0  0  0  0  0  0  0  0  0  0  0
  150.7989  141.8820  159.5642 H   0  0  0  0  0  0  0  0  0  0  0  0
  151.2245  139.9415  157.2110 H   0  0  0  0  0  0  0  0  0  0  0  0
  149.9620  140.9886  157.8466 H   0  0  0  0  0  0  0  0  0  0  0  0
  151.2904  142.2224  155.5272 H   0  0  0  0  0  0  0  0  0  0  0  0
  150.6865  140.6246  155.1218 H   0  0  0  0  0  0  0  0  0  0  0  0
  148.6660  141.6557  156.5093 H   0  0  0  0  0  0  0  0  0  0  0  0
  149.0852  141.8930  153.6160 H   0  0  0  0  0  0  0  0  0  0  0  0
  148.4215  140.4954  154.4479 H   0  0  0  0  0  0  0  0  0  0  0  0
  147.1701  143.2990  154.3189 H   0  0  0  0  0  0  0  0  0  0  0  0
  146.5604  141.8542  153.5358 H   0  0  0  0  0  0  0  0  0  0  0  0
  144.4769  141.1230  154.7784 H   0  0  0  0  0  0  0  0  0  0  0  0
  143.8005  140.8930  157.4112 H   0  0  0  0  0  0  0  0  0  0  0  0
  146.0431  141.8626  158.7185 H   0  0  0  0  0  0  0  0  0  0  0  0
  149.2432  142.9900  155.7476 H   0  0  0  0  0  0  0  0  0  0  0  0
  1  2  1  0  0  0  0
  1 19  1  0  0  0  0
  1 20  1  0  0  0  0
  1 21  1  0  0  0  0
  2  7  1  0  0  0  0
  2  3  1  0  0  0  0
  2 22  1  0  0  0  0
  3  4  1  0  0  0  0
  3 23  1  0  0  0  0
  3 24  1  0  0  0  0
  4  5  1  0  0  0  0
  4 25  1  0  0  0  0
  4 26  1  0  0  0  0
  5  6  1  0  0  0  0
  5 27  1  0  0  0  0
  5 28  1  0  0  0  0
  6  7  1  0  0  0  0
  6 29  1  0  0  0  0
  6 30  1  0  0  0  0
  7  8  1  0  0  0  0
  7 31  1  0  0  0  0
  8  9  1  0  0  0  0
  9 10  1  0  0  0  0
  9 32  1  0  0  0  0
  9 33  1  0  0  0  0
 10 11  1  0  0  0  0
 10 34  1  0  0  0  0
 10 35  1  0  0  0  0
 11 12  1  0  0  0  0
 11 36  1  0  0  0  0
 11 44  1  0  0  0  0
 12 13  1  0  0  0  0
 12 37  1  0  0  0  0
 12 38  1  0  0  0  0
 13 14  1  0  0  0  0
 13 39  1  0  0  0  0
 13 40  1  0  0  0  0
 14 18  1  0  0  0  0
 14 15  1  0  0  0  0
 15 16  2  0  0  0  0
 15 41  1  0  0  0  0
 16 17  1  0  0  0  0
 16 42  1  0  0  0  0
 17 18  2  0  0  0  0
 17 43  1  0  0  0  0
M  CHG  1  11   1
M  END
> <s_m_source_file>
AV-unprocessed.smi

> <i_m_source_file_index>
3241

> <i_lp_mmshare_version>
43012

> <i_f3d_flags>
0

> <s_epik_input>
W0NIM11bQ0BASF0xW0NIMl1bQ0gyXVtDSDJdW0NIMl1bQ0BIXTFPW0NIMl1bQ0gyXVtOSF1bQ0gyXVtDSDJdbjJbY0hdW2NIXVtjSF1uMg==

> <s_epik_cmdline>
J2VwaWtfcHl0aG9uJywgJy1waCcsICc3LjAnLCAnLXRuJywgJzgnLCAnLW1hJywgJzIwMCcsICctbWV0YWxfYmluZGluZycsICctaW1hZScsICc8aW5maWxlLm1hZT4nLCAnLW9tYWUnLCAnPG91dGZpbGUubWFlPic=

> <r_lp_tautomer_probability>
1

> <r_epik_Ionization_Penalty>
0.00924946

> <r_epik_Ionization_Penalty_Charging>
0.00924645

> <r_epik_Ionization_Penalty_Neutral>
3.00629e-06

> <r_epik_State_Penalty>
0.0070118

> <r_epik_Charging_Adjusted_Penalty>
0.0162583

> <i_epik_Tot_Q>
1

> <i_epik_Tot_abs_Q>
1

> <r_epik_Metal_State_Penalty>
0.00702523

> <b_epik_Metal_Only>
0

> <s_lp_Force_Field>
OPLS_2005

> <r_lp_Energy>
13.7412

> <b_lp_Chiralities_Consistent>
1

> <s_lp_Variant>
AV-unprocessed.smi:3241-1

> <Gold.Version>
5.8.1

> <Gold.Id.Protein>
6NUR|6NUR_protein|mol2

> <Gold.PLP.Fitness>
46.8287

> <Gold.PLP.PLP>
-40.6449

> <Gold.PLP.part.hbond>
-1.0000

> <Gold.PLP.part.metal>
0.0000

> <Gold.PLP.part.buried>
-5.7661

> <Gold.PLP.part.nonpolar>
-34.7446

> <Gold.PLP.part.repulsive>
0.8741

> <Gold.PLP.ligand.clash>
0.0000

> <Gold.PLP.ligand.torsion>
1.4505

> <Gold.PLP.Chemscore.Hbond>
2.0000

> <Gold.PLP.Chemscore.CHOScore>
1.0000

> <Gold.PLP.Chemscore.Metal>
0.0000

> <Gold.Chemscore.Hbonds>
donor molecule, donor type, donor heavy atom, donor atom, acceptor molecule, acceptor atom, score
      L1  H    11    44       P1  8028  2.00
      L1  C    15    41       P1 10175  1.00

> <Gold.PLP.Chemscore.Internal.Correction>
0.0848

> <Gold.Rescore>
     Score         DG    S(hbond)    S(metal)    S(lipo)     H(rot)  DE(clash)    DE(int)     intcor
     13.86     -16.82       1.00        0.00     109.75       1.89       0.08       2.87       ----

> <Gold.Chemscore.Fitness>
13.8641

> <Gold.Chemscore.DG>
-16.8190

> <Gold.Chemscore.ZeroCoef>
-5.4800

> <Gold.Chemscore.Hbond>
0.9994

> <Gold.Chemscore.Metal>
0.0000

> <Gold.Chemscore.Lipo>
109.7511

> <Gold.Chemscore.Internal_Hbond>
0.0000

> <Gold.Chemscore.DEClash>
0.0812

> <Gold.Chemscore.DEInternal>
2.8737

> <Gold.Chemscore.Rot>
1.8906

> <Gold.Chemscore.Internal.Correction>
   9.000000E+99

> <Gold.Chemscore.Hbonds>
donor molecule, donor type, donor heavy atom, donor atom, acceptor molecule, acceptor atom, score
      L1  H    11    44       P1  8028  1.00

> <Gold.Chemscore.Hbond.Weighted>
-3.3381

> <Gold.Chemscore.Metal.Weighted>
-0.0000

> <Gold.Chemscore.Lipo.Weighted>
-12.8409

> <Gold.Chemscore.Internal_Hbond.Weighted>
0.0000

> <Gold.Chemscore.DEClash.Weighted>
0.0812

> <Gold.Chemscore.DEInternal.Weighted>
2.8737

> <Gold.Chemscore.Rot.Weighted>
4.8400

> <Gold.Chemscore.Internal.Correction.Weighted>
   9.000000E+99

> <Gold.Protein.RotatedTorsions>
[ 6907 6896 6895 6894 ] final  151.93 input  -60.11 | X-H torsion
[ 7974 7965 7964 7962 ] final   64.37 input  175.53 | X-H torsion
[ 8008 7997 7996 7995 ] final  -77.82 input   59.86 | X-H torsion
[ 10167 10162 10161 10158 ] final  164.05 input  -65.29 | X-H torsion
[ 10718 10713 10712 10709 ] final  114.83 input   66.30 | X-H torsion
[ 10763 10752 10751 10750 ] final  111.74 input  -60.55 | X-H torsion
[ 11005 11000 10999 10996 ] final  -61.43 input  -57.11 | X-H torsion

> <Gold.Protein.ActiveResidues>
 VAL166  LYS551  ARG553  GLY616  TRP617  ASP618  TYR619  PRO620  LYS621  CYS622 
 ASP623  PHE694  ASN695  SER759  ASP760  ASP761  ALA762  ILE779  LEU786  VAL792 
 PHE793  MET794  SER795  GLU796  ALA797  LYS798  CYS799  TRP800  GLU811  SER814 

> <Gold.Protein.RotatedAtoms>
  152.0938  133.4214  159.4555 H   0  0  0  0  0  0  0  0  0  0  0  0  # atno 6907 bound_to 6896
  150.6863  134.2841  159.4648 H   0  0  0  0  0  0  0  0  0  0  0  0  # atno 6908 bound_to 6896
  152.0694  134.9542  160.0625 H   0  0  0  0  0  0  0  0  0  0  0  0  # atno 6909 bound_to 6896
  145.8510  139.3254  143.0875 H   0  0  0  0  0  0  0  0  0  0  0  0  # atno 7974 bound_to 7965
  154.5631  140.0704  156.8850 H   0  0  0  0  0  0  0  0  0  0  0  0  # atno 8008 bound_to 7997
  155.2773  140.3369  155.4242 H   0  0  0  0  0  0  0  0  0  0  0  0  # atno 8009 bound_to 7997
  156.2059  140.1740  156.7786 H   0  0  0  0  0  0  0  0  0  0  0  0  # atno 8010 bound_to 7997
  139.4883  144.4275  151.9111 H   0  0  0  0  0  0  0  0  0  0  0  0  # atno 10167 bound_to 10162
  157.6258  131.1004  150.7242 H   0  0  0  0  0  0  0  0  0  0  0  0  # atno 10718 bound_to 10713
  153.4678  135.3707  155.2374 H   0  0  0  0  0  0  0  0  0  0  0  0  # atno 10763 bound_to 10752
  154.8757  135.3924  154.3848 H   0  0  0  0  0  0  0  0  0  0  0  0  # atno 10764 bound_to 10752
  153.4432  135.7084  153.6220 H   0  0  0  0  0  0  0  0  0  0  0  0  # atno 10765 bound_to 10752
  141.1324  133.6630  156.5374 H   0  0  0  0  0  0  0  0  0  0  0  0  # atno 11005 bound_to 11000
  145.9357  140.9016  143.0333 LP  0  0  0  0  0  0  0  0  0  0  0  0  # atno 17320 bound_to 7965
  144.6729  140.1479  143.7432 LP  0  0  0  0  0  0  0  0  0  0  0  0  # atno 17321 bound_to 7965
  140.3721  144.2842  150.5918 LP  0  0  0  0  0  0  0  0  0  0  0  0  # atno 17342 bound_to 10162
  140.5309  143.2243  151.8240 LP  0  0  0  0  0  0  0  0  0  0  0  0  # atno 17343 bound_to 10162
  156.7590  130.4792  149.5441 LP  0  0  0  0  0  0  0  0  0  0  0  0  # atno 17370 bound_to 10713
  156.1430  130.6257  151.0493 LP  0  0  0  0  0  0  0  0  0  0  0  0  # atno 17371 bound_to 10713
  140.4167  134.7224  157.4866 LP  0  0  0  0  0  0  0  0  0  0  0  0  # atno 17394 bound_to 11000
  140.0389  134.6296  155.9007 LP  0  0  0  0  0  0  0  0  0  0  0  0  # atno 17395 bound_to 11000

$$$$
