AV-unprocessed.smi:1802|AV-procd|sdf|7276|dock7
  -GOLD-   22720 8533D 1   1.00000     0.00000
 Structure written by MMmdl.
 40 41  0  0  0  0  0  0  0  0  3 V2000
  146.2216  133.0520  150.3703 C   0  0  0  0  0  0  0  0  0  0  0  0
  145.5481  132.7004  151.7086 C   0  0  1  0  0  0  0  0  0  0  0  0
  144.7282  131.3986  151.6420 C   0  0  0  0  0  0  0  0  0  0  0  0
  145.6423  130.1658  151.6091 C   0  0  0  0  0  0  0  0  0  0  0  0
  146.6402  130.1867  152.7779 C   0  0  0  0  0  0  0  0  0  0  0  0
  147.4355  131.4416  152.7825 N   0  3  2  0  0  0  0  0  0  0  0  0
  148.5093  131.4220  153.8075 C   0  0  0  0  0  0  0  0  0  0  0  0
  149.4577  132.6252  153.6834 C   0  0  0  0  0  0  0  0  0  0  0  0
  148.8939  133.8849  154.3609 C   0  0  0  0  0  0  0  0  0  0  0  0
  149.8757  134.9633  154.3843 N   0  0  0  0  0  0  0  0  0  0  0  0
  150.4227  135.4986  155.4854 C   0  0  0  0  0  0  0  0  0  0  0  0
  150.1084  135.0699  156.5984 O   0  0  0  0  0  0  0  0  0  0  0  0
  151.2929  136.5010  155.2296 N   0  5  0  0  0  0  0  0  0  0  0  0
  150.8364  137.7474  155.0225 C   0  0  0  0  0  0  0  0  0  0  0  0
  151.6544  138.8093  154.9451 N   0  0  0  0  0  0  0  0  0  0  0  0
  150.9798  140.0033  154.7282 N   0  0  0  0  0  0  0  0  0  0  0  0
  149.6643  139.8086  154.6372 C   0  0  0  0  0  0  0  0  0  0  0  0
  149.1307  138.1494  154.8051 S   0  0  0  0  0  0  0  0  0  0  0  0
  146.5602  132.6426  152.8712 C   0  0  0  0  0  0  0  0  0  0  0  0
  146.9592  132.3056  150.0756 H   0  0  0  0  0  0  0  0  0  0  0  0
  146.7344  134.0123  150.4319 H   0  0  0  0  0  0  0  0  0  0  0  0
  145.4859  133.1261  149.5692 H   0  0  0  0  0  0  0  0  0  0  0  0
  144.8511  133.5116  151.9230 H   0  0  0  0  0  0  0  0  0  0  0  0
  144.0808  131.3375  152.5179 H   0  0  0  0  0  0  0  0  0  0  0  0
  144.0673  131.4043  150.7744 H   0  0  0  0  0  0  0  0  0  0  0  0
  145.0396  129.2578  151.6522 H   0  0  0  0  0  0  0  0  0  0  0  0
  146.1833  130.1268  150.6631 H   0  0  0  0  0  0  0  0  0  0  0  0
  146.1126  130.0856  153.7276 H   0  0  0  0  0  0  0  0  0  0  0  0
  147.3052  129.3264  152.6911 H   0  0  0  0  0  0  0  0  0  0  0  0
  148.0702  131.3743  154.8052 H   0  0  0  0  0  0  0  0  0  0  0  0
  149.1034  130.5149  153.6882 H   0  0  0  0  0  0  0  0  0  0  0  0
  150.4224  132.3768  154.1279 H   0  0  0  0  0  0  0  0  0  0  0  0
  149.6507  132.8435  152.6336 H   0  0  0  0  0  0  0  0  0  0  0  0
  147.9857  134.2197  153.8570 H   0  0  0  0  0  0  0  0  0  0  0  0
  148.6132  133.6615  155.3904 H   0  0  0  0  0  0  0  0  0  0  0  0
  150.1656  135.3398  153.4933 H   0  0  0  0  0  0  0  0  0  0  0  0
  149.0047  140.6463  154.4674 H   0  0  0  0  0  0  0  0  0  0  0  0
  147.1542  133.5557  152.8715 H   0  0  0  0  0  0  0  0  0  0  0  0
  146.0271  132.6233  153.8232 H   0  0  0  0  0  0  0  0  0  0  0  0
  147.9005  131.4826  151.8868 H   0  0  0  0  0  0  0  0  0  0  0  0
  1  2  1  0  0  0  0
  1 20  1  0  0  0  0
  1 21  1  0  0  0  0
  1 22  1  0  0  0  0
  2 19  1  0  0  0  0
  2  3  1  0  0  0  0
  2 23  1  0  0  0  0
  3  4  1  0  0  0  0
  3 24  1  0  0  0  0
  3 25  1  0  0  0  0
  4  5  1  0  0  0  0
  4 26  1  0  0  0  0
  4 27  1  0  0  0  0
  5  6  1  0  0  0  0
  5 28  1  0  0  0  0
  5 29  1  0  0  0  0
  6  7  1  0  0  0  0
  6 19  1  0  0  0  0
  6 40  1  0  0  0  0
  7  8  1  0  0  0  0
  7 30  1  0  0  0  0
  7 31  1  0  0  0  0
  8  9  1  0  0  0  0
  8 32  1  0  0  0  0
  8 33  1  0  0  0  0
  9 10  1  0  0  0  0
  9 34  1  0  0  0  0
  9 35  1  0  0  0  0
 10 11  1  0  0  0  0
 10 36  1  0  0  0  0
 11 12  2  0  0  0  0
 11 13  1  0  0  0  0
 13 14  1  0  0  0  0
 14 18  1  0  0  0  0
 14 15  2  0  0  0  0
 15 16  1  0  0  0  0
 16 17  2  0  0  0  0
 17 18  1  0  0  0  0
 17 37  1  0  0  0  0
 19 38  1  0  0  0  0
 19 39  1  0  0  0  0
M  CHG  1   6   1
M  CHG  1  13  -1
M  END
> <s_m_source_file>
AV-unprocessed.smi

> <i_m_source_file_index>
1802

> <i_lp_mmshare_version>
43012

> <i_f3d_flags>
0

> <s_epik_input>
W0NIM11bQ0BASF0xW0NIMl1bQ0gyXVtDSDJdTihbQ0gyXTEpW0NIMl1bQ0gyXVtDSDJdW05IXUMoPU8pW05IXWMybm5bY0hdczI=

> <s_epik_cmdline>
J2VwaWtfcHl0aG9uJywgJy1waCcsICc3LjAnLCAnLXRuJywgJzgnLCAnLW1hJywgJzIwMCcsICctbWV0YWxfYmluZGluZycsICctaW1hZScsICc8aW5maWxlLm1hZT4nLCAnLW9tYWUnLCAnPG91dGZpbGUubWFlPic=

> <r_lp_tautomer_probability>
1

> <r_epik_Ionization_Penalty>
3.29702

> <r_epik_Ionization_Penalty_Charging>
3.26059

> <r_epik_Ionization_Penalty_Neutral>
0.0364294

> <r_epik_State_Penalty>
3.25788

> <r_epik_Charging_Adjusted_Penalty>
6.51847

> <i_epik_Tot_Q>
0

> <i_epik_Tot_abs_Q>
2

> <r_epik_Metal_State_Penalty>
0.477639

> <b_epik_Metal_Only>
1

> <s_lp_Force_Field>
OPLS_2005

> <r_lp_Energy>
11.8287

> <b_lp_Chiralities_Consistent>
1

> <s_lp_Variant>
AV-unprocessed.smi:1802-6

> <Gold.Version>
5.8.1

> <Gold.Id.Protein>
6NUR|6NUR_protein|mol2

> <Gold.PLP.Fitness>
44.3221

> <Gold.PLP.PLP>
-34.1152

> <Gold.PLP.part.hbond>
-4.0000

> <Gold.PLP.part.metal>
0.0000

> <Gold.PLP.part.buried>
-5.9208

> <Gold.PLP.part.nonpolar>
-24.1572

> <Gold.PLP.part.repulsive>
0.2823

> <Gold.PLP.ligand.clash>
0.0000

> <Gold.PLP.ligand.torsion>
0.9142

> <Gold.PLP.Chemscore.Hbond>
4.0000

> <Gold.PLP.Chemscore.CHOScore>
0.0000

> <Gold.PLP.Chemscore.Metal>
0.0000

> <Gold.Chemscore.Hbonds>
donor molecule, donor type, donor heavy atom, donor atom, acceptor molecule, acceptor atom, score
      L1  H     6    40       P1 10747  0.99
      L1  H    10    36       P1  7948  0.02
      P1  H  7989  7998       L1    16  1.00
      P1  H 10752 10765       L1    13  1.92

> <Gold.PLP.Chemscore.Internal.Correction>
0.0352

> <Gold.Rescore>
     Score         DG    S(hbond)    S(metal)    S(lipo)     H(rot)  DE(clash)    DE(int)     intcor
     17.73     -18.90       2.90        0.00      74.38       1.94       0.11       1.05       ----

> <Gold.Chemscore.Fitness>
17.7308

> <Gold.Chemscore.DG>
-18.8981

> <Gold.Chemscore.ZeroCoef>
-5.4800

> <Gold.Chemscore.Hbond>
2.8976

> <Gold.Chemscore.Metal>
0.0000

> <Gold.Chemscore.Lipo>
74.3783

> <Gold.Chemscore.Internal_Hbond>
0.0000

> <Gold.Chemscore.DEClash>
0.1136

> <Gold.Chemscore.DEInternal>
1.0538

> <Gold.Chemscore.Rot>
1.9383

> <Gold.Chemscore.Internal.Correction>
   9.000000E+99

> <Gold.Chemscore.Hbonds>
donor molecule, donor type, donor heavy atom, donor atom, acceptor molecule, acceptor atom, score
      L1  H     6    40       P1 10747  0.92
      P1  H  7989  7998       L1    16  0.74
      P1  H 10752 10765       L1    13  0.54

> <Gold.Chemscore.Hbond.Weighted>
-9.6779

> <Gold.Chemscore.Metal.Weighted>
-0.0000

> <Gold.Chemscore.Lipo.Weighted>
-8.7023

> <Gold.Chemscore.Internal_Hbond.Weighted>
0.0000

> <Gold.Chemscore.DEClash.Weighted>
0.1136

> <Gold.Chemscore.DEInternal.Weighted>
1.0538

> <Gold.Chemscore.Rot.Weighted>
4.9620

> <Gold.Chemscore.Internal.Correction.Weighted>
   9.000000E+99

> <Gold.Protein.RotatedTorsions>
[ 6907 6896 6895 6894 ] final -110.37 input  -60.11 | X-H torsion
[ 7974 7965 7964 7962 ] final  125.38 input  175.53 | X-H torsion
[ 8008 7997 7996 7995 ] final -117.23 input   59.86 | X-H torsion
[ 10167 10162 10161 10158 ] final -165.51 input  -65.29 | X-H torsion
[ 10718 10713 10712 10709 ] final   68.95 input   66.30 | X-H torsion
[ 10763 10752 10751 10750 ] final  164.68 input  -60.55 | X-H torsion
[ 11005 11000 10999 10996 ] final   47.33 input  -57.11 | X-H torsion

> <Gold.Protein.ActiveResidues>
 VAL166  LYS551  ARG553  GLY616  TRP617  ASP618  TYR619  PRO620  LYS621  CYS622 
 ASP623  PHE694  ASN695  SER759  ASP760  ASP761  ALA762  ILE779  LEU786  VAL792 
 PHE793  MET794  SER795  GLU796  ALA797  LYS798  CYS799  TRP800  GLU811  SER814 

> <Gold.Protein.RotatedAtoms>
  150.7620  133.9392  159.3450 H   0  0  0  0  0  0  0  0  0  0  0  0  # atno 6907 bound_to 6896
  151.7299  135.0875  160.0308 H   0  0  0  0  0  0  0  0  0  0  0  0  # atno 6908 bound_to 6896
  152.3596  133.6243  159.6041 H   0  0  0  0  0  0  0  0  0  0  0  0  # atno 6909 bound_to 6896
  145.0737  139.3710  143.4945 H   0  0  0  0  0  0  0  0  0  0  0  0  # atno 7974 bound_to 7965
  155.0804  140.0394  157.2637 H   0  0  0  0  0  0  0  0  0  0  0  0  # atno 8008 bound_to 7997
  154.6911  140.2653  155.6787 H   0  0  0  0  0  0  0  0  0  0  0  0  # atno 8009 bound_to 7997
  156.2729  140.2759  156.1490 H   0  0  0  0  0  0  0  0  0  0  0  0  # atno 8010 bound_to 7997
  139.6177  144.0686  152.1903 H   0  0  0  0  0  0  0  0  0  0  0  0  # atno 10167 bound_to 10162
  157.6319  130.9400  150.0448 H   0  0  0  0  0  0  0  0  0  0  0  0  # atno 10718 bound_to 10713
  154.3126  135.2757  155.2559 H   0  0  0  0  0  0  0  0  0  0  0  0  # atno 10763 bound_to 10752
  154.4947  135.5824  153.6489 H   0  0  0  0  0  0  0  0  0  0  0  0  # atno 10764 bound_to 10752
  152.9886  135.6143  154.3304 H   0  0  0  0  0  0  0  0  0  0  0  0  # atno 10765 bound_to 10752
  140.1289  134.4731  155.8537 H   0  0  0  0  0  0  0  0  0  0  0  0  # atno 11005 bound_to 11000
  146.3529  140.0494  142.8637 LP  0  0  0  0  0  0  0  0  0  0  0  0  # atno 17320 bound_to 7965
  145.1262  140.9491  143.4571 LP  0  0  0  0  0  0  0  0  0  0  0  0  # atno 17321 bound_to 7965
  140.0321  144.6073  150.7480 LP  0  0  0  0  0  0  0  0  0  0  0  0  # atno 17342 bound_to 10162
  140.7362  143.2750  151.3771 LP  0  0  0  0  0  0  0  0  0  0  0  0  # atno 17343 bound_to 10162
  156.1528  130.3642  149.9413 LP  0  0  0  0  0  0  0  0  0  0  0  0  # atno 17370 bound_to 10713
  156.7429  130.9086  151.3633 LP  0  0  0  0  0  0  0  0  0  0  0  0  # atno 17371 bound_to 10713
  141.2166  133.6788  156.7031 LP  0  0  0  0  0  0  0  0  0  0  0  0  # atno 17394 bound_to 11000
  140.2868  134.8273  157.3981 LP  0  0  0  0  0  0  0  0  0  0  0  0  # atno 17395 bound_to 11000

$$$$
