AV-unprocessed.smi:766|AV-procd|sdf|3652|dock7
  -GOLD-   22720 1 53D 1   1.00000     0.00000
 Structure written by MMmdl.
 47 49  0  0  0  0  0  0  0  0  2 V2000
  152.3460  143.8777  160.3809 C   0  0  0  0  0  0  0  0  0  0  0  0
  151.7818  142.9466  159.3221 C   0  0  0  0  0  0  0  0  0  0  0  0
  152.5577  141.8473  158.8902 C   0  0  0  0  0  0  0  0  0  0  0  0
  152.0694  140.9574  157.9084 C   0  0  0  0  0  0  0  0  0  0  0  0
  152.6484  139.8323  157.3469 N   0  0  0  0  0  0  0  0  0  0  0  0
  151.7025  139.4385  156.4993 C   0  0  0  0  0  0  0  0  0  0  0  0
  150.5776  140.1780  156.4434 N   0  0  0  0  0  0  0  0  0  0  0  0
  149.4152  139.9493  155.6042 C   0  0  0  0  0  0  0  0  0  0  0  0
  149.1394  141.1247  154.6470 C   0  0  1  0  0  0  0  0  0  0  0  0
  149.7598  140.8717  153.4005 O   0  0  0  0  0  0  0  0  0  0  0  0
  147.6345  141.3419  154.4198 C   0  0  0  0  0  0  0  0  0  0  0  0
  147.3510  142.7317  154.0102 N   0  3  0  0  0  0  0  0  0  0  0  0
  145.9773  143.1836  154.3097 C   0  0  0  0  0  0  0  0  0  0  0  0
  145.4554  144.1621  153.2449 C   0  0  0  0  0  0  0  0  0  0  0  0
  144.3895  145.0107  153.7476 N   0  0  0  0  0  0  0  0  0  0  0  0
  143.7525  144.9516  154.9694 C   0  0  0  0  0  0  0  0  0  0  0  0
  142.8214  145.9501  154.9911 C   0  0  0  0  0  0  0  0  0  0  0  0
  142.9663  146.5756  153.7214 C   0  0  0  0  0  0  0  0  0  0  0  0
  143.9047  146.0100  152.9788 N   0  0  0  0  0  0  0  0  0  0  0  0
  150.7740  141.2005  157.3652 C   0  0  0  0  0  0  0  0  0  0  0  0
  149.9927  142.2911  157.7859 C   0  0  0  0  0  0  0  0  0  0  0  0
  150.4947  143.1690  158.7695 C   0  0  0  0  0  0  0  0  0  0  0  0
  149.6420  144.3413  159.2212 C   0  0  0  0  0  0  0  0  0  0  0  0
  153.3479  143.5741  160.6855 H   0  0  0  0  0  0  0  0  0  0  0  0
  151.7124  143.8758  161.2681 H   0  0  0  0  0  0  0  0  0  0  0  0
  152.4069  144.8974  160.0001 H   0  0  0  0  0  0  0  0  0  0  0  0
  153.5377  141.6768  159.3113 H   0  0  0  0  0  0  0  0  0  0  0  0
  151.8359  138.5630  155.8809 H   0  0  0  0  0  0  0  0  0  0  0  0
  149.5621  139.0234  155.0458 H   0  0  0  0  0  0  0  0  0  0  0  0
  148.5562  139.7856  156.2562 H   0  0  0  0  0  0  0  0  0  0  0  0
  149.5736  142.0334  155.0667 H   0  0  0  0  0  0  0  0  0  0  0  0
  149.2531  140.2247  152.9333 H   0  0  0  0  0  0  0  0  0  0  0  0
  147.2554  140.6479  153.6680 H   0  0  0  0  0  0  0  0  0  0  0  0
  147.0911  141.1402  155.3440 H   0  0  0  0  0  0  0  0  0  0  0  0
  148.0027  143.3468  154.4762 H   0  0  0  0  0  0  0  0  0  0  0  0
  145.3122  142.3221  154.3844 H   0  0  0  0  0  0  0  0  0  0  0  0
  145.9768  143.6720  155.2849 H   0  0  0  0  0  0  0  0  0  0  0  0
  146.2692  144.8064  152.9101 H   0  0  0  0  0  0  0  0  0  0  0  0
  145.1008  143.6263  152.3628 H   0  0  0  0  0  0  0  0  0  0  0  0
  144.0112  144.2131  155.7139 H   0  0  0  0  0  0  0  0  0  0  0  0
  142.1413  146.1971  155.7929 H   0  0  0  0  0  0  0  0  0  0  0  0
  142.4206  147.4169  153.3203 H   0  0  0  0  0  0  0  0  0  0  0  0
  149.0146  142.4496  157.3567 H   0  0  0  0  0  0  0  0  0  0  0  0
  148.6699  144.3400  158.7271 H   0  0  0  0  0  0  0  0  0  0  0  0
  150.1361  145.2847  158.9880 H   0  0  0  0  0  0  0  0  0  0  0  0
  149.4686  144.2968  160.2966 H   0  0  0  0  0  0  0  0  0  0  0  0
  147.5010  142.8063  153.0133 H   0  0  0  0  0  0  0  0  0  0  0  0
  1  2  1  0  0  0  0
  1 24  1  0  0  0  0
  1 25  1  0  0  0  0
  1 26  1  0  0  0  0
  2 22  1  0  0  0  0
  2  3  2  0  0  0  0
  3  4  1  0  0  0  0
  3 27  1  0  0  0  0
  4 20  2  0  0  0  0
  4  5  1  0  0  0  0
  5  6  2  0  0  0  0
  6  7  1  0  0  0  0
  6 28  1  0  0  0  0
  7  8  1  0  0  0  0
  7 20  1  0  0  0  0
  8  9  1  0  0  0  0
  8 29  1  0  0  0  0
  8 30  1  0  0  0  0
  9 10  1  0  0  0  0
  9 11  1  0  0  0  0
  9 31  1  0  0  0  0
 10 32  1  0  0  0  0
 11 12  1  0  0  0  0
 11 33  1  0  0  0  0
 11 34  1  0  0  0  0
 12 13  1  0  0  0  0
 12 35  1  0  0  0  0
 12 47  1  0  0  0  0
 13 14  1  0  0  0  0
 13 36  1  0  0  0  0
 13 37  1  0  0  0  0
 14 15  1  0  0  0  0
 14 38  1  0  0  0  0
 14 39  1  0  0  0  0
 15 19  1  0  0  0  0
 15 16  1  0  0  0  0
 16 17  2  0  0  0  0
 16 40  1  0  0  0  0
 17 18  1  0  0  0  0
 17 41  1  0  0  0  0
 18 19  2  0  0  0  0
 18 42  1  0  0  0  0
 20 21  1  0  0  0  0
 21 22  2  0  0  0  0
 21 43  1  0  0  0  0
 22 23  1  0  0  0  0
 23 44  1  0  0  0  0
 23 45  1  0  0  0  0
 23 46  1  0  0  0  0
M  CHG  1  12   1
M  END
> <s_m_source_file>
AV-unprocessed.smi

> <i_m_source_file_index>
766

> <i_lp_mmshare_version>
43012

> <i_f3d_flags>
0

> <s_epik_input>
W0NIM11jKFtjSF0xKWMoW0NIM10pW2NIXWMoYzEyKW4oW2NIXW4yKVtDSDJdW0NASF0oW09IXSlbQ0gyXVtOSF1bQ0gyXVtDSDJdbjNbY0hdW2NIXVtjSF1uMw==

> <s_epik_cmdline>
J2VwaWtfcHl0aG9uJywgJy1waCcsICc3LjAnLCAnLXRuJywgJzgnLCAnLW1hJywgJzIwMCcsICctbWV0YWxfYmluZGluZycsICctaW1hZScsICc8aW5maWxlLm1hZT4nLCAnLW9tYWUnLCAnPG91dGZpbGUubWFlPic=

> <r_lp_tautomer_probability>
1

> <r_epik_Ionization_Penalty>
0.127222

> <r_epik_Ionization_Penalty_Charging>
0.043815

> <r_epik_Ionization_Penalty_Neutral>
0.0834074

> <r_epik_State_Penalty>
0.115563

> <r_epik_Charging_Adjusted_Penalty>
0.159378

> <i_epik_Tot_Q>
1

> <i_epik_Tot_abs_Q>
1

> <r_epik_Metal_State_Penalty>
0.102594

> <b_epik_Metal_Only>
0

> <s_lp_Force_Field>
OPLS_2005

> <r_lp_Energy>
11.1584

> <b_lp_Chiralities_Consistent>
1

> <s_lp_Variant>
AV-unprocessed.smi:766-2

> <Gold.Version>
5.8.1

> <Gold.Id.Protein>
6NUR|6NUR_protein|mol2

> <Gold.PLP.Fitness>
60.1033

> <Gold.PLP.PLP>
-48.3906

> <Gold.PLP.part.hbond>
-6.2270

> <Gold.PLP.part.metal>
0.0000

> <Gold.PLP.part.buried>
-5.9401

> <Gold.PLP.part.nonpolar>
-35.4717

> <Gold.PLP.part.repulsive>
0.2712

> <Gold.PLP.ligand.clash>
0.0000

> <Gold.PLP.ligand.torsion>
1.2239

> <Gold.PLP.Chemscore.Hbond>
4.6560

> <Gold.PLP.Chemscore.CHOScore>
0.0000

> <Gold.PLP.Chemscore.Metal>
0.0000

> <Gold.Chemscore.Hbonds>
donor molecule, donor type, donor heavy atom, donor atom, acceptor molecule, acceptor atom, score
      L1  H    10    32       P1  7957  0.32
      L1  H    12    35       P1  8028  2.00
      P1  H  7989  7998       L1    10  0.27
      P1  H  7997  8010       L1     5  1.00
      P1  H  8011  8017       L1    10  1.00

> <Gold.PLP.Chemscore.Internal.Correction>
0.1924

> <Gold.Rescore>
     Score         DG    S(hbond)    S(metal)    S(lipo)     H(rot)  DE(clash)    DE(int)     intcor
     20.15     -21.75       3.08        0.00     115.24       2.93       0.20       1.40       ----

> <Gold.Chemscore.Fitness>
20.1452

> <Gold.Chemscore.DG>
-21.7515

> <Gold.Chemscore.ZeroCoef>
-5.4800

> <Gold.Chemscore.Hbond>
3.0832

> <Gold.Chemscore.Metal>
0.0000

> <Gold.Chemscore.Lipo>
115.2407

> <Gold.Chemscore.Internal_Hbond>
0.0000

> <Gold.Chemscore.DEClash>
0.2040

> <Gold.Chemscore.DEInternal>
1.4023

> <Gold.Chemscore.Rot>
2.9335

> <Gold.Chemscore.Internal.Correction>
   9.000000E+99

> <Gold.Chemscore.Hbonds>
donor molecule, donor type, donor heavy atom, donor atom, acceptor molecule, acceptor atom, score
      L1  H    10    32       P1  7957  0.32
      L1  H    12    35       P1  8028  0.86
      P1  H  7989  7998       L1    10  0.25
      P1  H  7997  8010       L1     5  0.86
      P1  H  8011  8017       L1    10  0.49

> <Gold.Chemscore.Hbond.Weighted>
-10.2980

> <Gold.Chemscore.Metal.Weighted>
-0.0000

> <Gold.Chemscore.Lipo.Weighted>
-13.4832

> <Gold.Chemscore.Internal_Hbond.Weighted>
0.0000

> <Gold.Chemscore.DEClash.Weighted>
0.2040

> <Gold.Chemscore.DEInternal.Weighted>
1.4023

> <Gold.Chemscore.Rot.Weighted>
7.5097

> <Gold.Chemscore.Internal.Correction.Weighted>
   9.000000E+99

> <Gold.Protein.RotatedTorsions>
[ 6907 6896 6895 6894 ] final    7.65 input  -60.11 | X-H torsion
[ 7974 7965 7964 7962 ] final  150.28 input  175.53 | X-H torsion
[ 8008 7997 7996 7995 ] final   52.91 input   59.86 | X-H torsion
[ 10167 10162 10161 10158 ] final -123.54 input  -65.29 | X-H torsion
[ 10718 10713 10712 10709 ] final  154.92 input   66.30 | X-H torsion
[ 10763 10752 10751 10750 ] final -155.45 input  -60.55 | X-H torsion
[ 11005 11000 10999 10996 ] final  118.99 input  -57.11 | X-H torsion

> <Gold.Protein.ActiveResidues>
 VAL166  LYS551  ARG553  GLY616  TRP617  ASP618  TYR619  PRO620  LYS621  CYS622 
 ASP623  PHE694  ASN695  SER759  ASP760  ASP761  ALA762  ILE779  LEU786  VAL792 
 PHE793  MET794  SER795  GLU796  ALA797  LYS798  CYS799  TRP800  GLU811  SER814 

> <Gold.Protein.RotatedAtoms>
  151.6934  135.0942  160.0237 H   0  0  0  0  0  0  0  0  0  0  0  0  # atno 6907 bound_to 6896
  152.3765  133.6483  159.6136 H   0  0  0  0  0  0  0  0  0  0  0  0  # atno 6908 bound_to 6896
  150.7713  133.9102  159.3408 H   0  0  0  0  0  0  0  0  0  0  0  0  # atno 6909 bound_to 6896
  144.8376  139.6388  143.6031 H   0  0  0  0  0  0  0  0  0  0  0  0  # atno 7974 bound_to 7965
  155.4596  140.3461  155.4311 H   0  0  0  0  0  0  0  0  0  0  0  0  # atno 8008 bound_to 7997
  156.1169  140.1476  156.9289 H   0  0  0  0  0  0  0  0  0  0  0  0  # atno 8009 bound_to 7997
  154.4795  140.0874  156.7323 H   0  0  0  0  0  0  0  0  0  0  0  0  # atno 8010 bound_to 7997
  140.0024  143.5527  152.2298 H   0  0  0  0  0  0  0  0  0  0  0  0  # atno 10167 bound_to 10162
  157.2252  131.0727  151.1887 H   0  0  0  0  0  0  0  0  0  0  0  0  # atno 10718 bound_to 10713
  154.7786  135.3167  154.8039 H   0  0  0  0  0  0  0  0  0  0  0  0  # atno 10763 bound_to 10752
  153.8756  135.6840  153.4775 H   0  0  0  0  0  0  0  0  0  0  0  0  # atno 10764 bound_to 10752
  153.1416  135.4737  154.9440 H   0  0  0  0  0  0  0  0  0  0  0  0  # atno 10765 bound_to 10752
  139.9130  134.9625  156.7587 H   0  0  0  0  0  0  0  0  0  0  0  0  # atno 11005 bound_to 11000
  146.2672  139.6549  142.9321 LP  0  0  0  0  0  0  0  0  0  0  0  0  # atno 17320 bound_to 7965
  145.4763  141.0437  143.2671 LP  0  0  0  0  0  0  0  0  0  0  0  0  # atno 17321 bound_to 7965
  139.6262  144.7637  151.2633 LP  0  0  0  0  0  0  0  0  0  0  0  0  # atno 17342 bound_to 10162
  140.7414  143.6559  150.8207 LP  0  0  0  0  0  0  0  0  0  0  0  0  # atno 17343 bound_to 10162
  157.3535  130.7094  149.6456 LP  0  0  0  0  0  0  0  0  0  0  0  0  # atno 17370 bound_to 10713
  155.9679  130.4246  150.4614 LP  0  0  0  0  0  0  0  0  0  0  0  0  # atno 17371 bound_to 10713
  140.6715  133.9555  155.7859 LP  0  0  0  0  0  0  0  0  0  0  0  0  # atno 17394 bound_to 11000
  141.0574  134.0396  157.3704 LP  0  0  0  0  0  0  0  0  0  0  0  0  # atno 17395 bound_to 11000

$$$$
