AV-unprocessed.smi:2971|AV-procd|sdf|11332|dock3
  -GOLD-   2272016243D 1   1.00000     0.00000
 Structure written by MMmdl.
 36 38  0  0  0  0  0  0  0  0  1 V2000
  149.8764  140.5631  153.8272 O   0  0  0  0  0  0  0  0  0  0  0  0
  149.5545  141.3567  154.9531 C   0  0  2  0  0  0  0  0  0  0  0  0
  150.6861  141.2209  155.9841 C   0  0  0  0  0  0  0  0  0  0  0  0
  150.6303  142.3255  156.8773 O   0  0  0  0  0  0  0  0  0  0  0  0
  151.4293  142.3002  158.0012 C   0  0  0  0  0  0  0  0  0  0  0  0
  151.9283  141.1127  158.5954 C   0  0  0  0  0  0  0  0  0  0  0  0
  152.7399  141.1762  159.7448 C   0  0  0  0  0  0  0  0  0  0  0  0
  153.0621  142.4212  160.3151 C   0  0  0  0  0  0  0  0  0  0  0  0
  152.5711  143.6046  159.7337 C   0  0  0  0  0  0  0  0  0  0  0  0
  151.7605  143.5426  158.5834 C   0  0  0  0  0  0  0  0  0  0  0  0
  151.2959  144.6897  158.0327 F   0  0  0  0  0  0  0  0  0  0  0  0
  148.2005  140.8907  155.5232 C   0  0  0  0  0  0  0  0  0  0  0  0
  147.0896  141.7033  155.0593 N   0  0  0  0  0  0  0  0  0  0  0  0
  146.7839  142.0010  153.7819 C   0  0  0  0  0  0  0  0  0  0  0  0
  145.7198  142.7708  153.5727 N   0  0  0  0  0  0  0  0  0  0  0  0
  145.2822  142.9991  154.8662 C   0  0  0  0  0  0  0  0  0  0  0  0
  144.1848  143.7510  155.3436 C   0  0  0  0  0  0  0  0  0  0  0  0
  143.9299  143.8433  156.7278 C   0  0  0  0  0  0  0  0  0  0  0  0
  144.7652  143.1856  157.6542 C   0  0  0  0  0  0  0  0  0  0  0  0
  145.8648  142.4309  157.2024 C   0  0  0  0  0  0  0  0  0  0  0  0
  146.1174  142.3434  155.8208 C   0  0  0  0  0  0  0  0  0  0  0  0
  149.3906  140.8881  153.0844 H   0  0  0  0  0  0  0  0  0  0  0  0
  149.4676  142.3981  154.6398 H   0  0  0  0  0  0  0  0  0  0  0  0
  150.5392  140.3063  156.5611 H   0  0  0  0  0  0  0  0  0  0  0  0
  151.6559  141.1500  155.4876 H   0  0  0  0  0  0  0  0  0  0  0  0
  151.7031  140.1386  158.1891 H   0  0  0  0  0  0  0  0  0  0  0  0
  153.1157  140.2664  160.1896 H   0  0  0  0  0  0  0  0  0  0  0  0
  153.6845  142.4687  161.1967 H   0  0  0  0  0  0  0  0  0  0  0  0
  152.8161  144.5618  160.1699 H   0  0  0  0  0  0  0  0  0  0  0  0
  148.0101  139.8499  155.2573 H   0  0  0  0  0  0  0  0  0  0  0  0
  148.2164  140.9336  156.6130 H   0  0  0  0  0  0  0  0  0  0  0  0
  147.3779  141.6319  152.9586 H   0  0  0  0  0  0  0  0  0  0  0  0
  143.5375  144.2576  154.6431 H   0  0  0  0  0  0  0  0  0  0  0  0
  143.0885  144.4211  157.0808 H   0  0  0  0  0  0  0  0  0  0  0  0
  144.5605  143.2601  158.7122 H   0  0  0  0  0  0  0  0  0  0  0  0
  146.5049  141.9228  157.9082 H   0  0  0  0  0  0  0  0  0  0  0  0
  1  2  1  0  0  0  0
  1 22  1  0  0  0  0
  2  3  1  0  0  0  0
  2 12  1  0  0  0  0
  2 23  1  0  0  0  0
  3  4  1  0  0  0  0
  3 24  1  0  0  0  0
  3 25  1  0  0  0  0
  4  5  1  0  0  0  0
  5 10  1  0  0  0  0
  5  6  2  0  0  0  0
  6  7  1  0  0  0  0
  6 26  1  0  0  0  0
  7  8  2  0  0  0  0
  7 27  1  0  0  0  0
  8  9  1  0  0  0  0
  8 28  1  0  0  0  0
  9 10  2  0  0  0  0
  9 29  1  0  0  0  0
 10 11  1  0  0  0  0
 12 13  1  0  0  0  0
 12 30  1  0  0  0  0
 12 31  1  0  0  0  0
 13 21  1  0  0  0  0
 13 14  1  0  0  0  0
 14 15  2  0  0  0  0
 14 32  1  0  0  0  0
 15 16  1  0  0  0  0
 16 21  2  0  0  0  0
 16 17  1  0  0  0  0
 17 18  2  0  0  0  0
 17 33  1  0  0  0  0
 18 19  1  0  0  0  0
 18 34  1  0  0  0  0
 19 20  2  0  0  0  0
 19 35  1  0  0  0  0
 20 21  1  0  0  0  0
 20 36  1  0  0  0  0
M  END
> <s_m_source_file>
AV-unprocessed.smi

> <i_m_source_file_index>
2971

> <i_lp_mmshare_version>
43012

> <i_f3d_flags>
0

> <s_epik_input>
W2NIXTFbY0hdW2NIXVtjSF1jKGMxMiluKFtjSF1uMilbQ0gyXVtDQEhdKFtPSF0pW0NIMl1PYzNbY0hdW2NIXVtjSF1bY0hdYzNG

> <s_epik_cmdline>
J2VwaWtfcHl0aG9uJywgJy1waCcsICc3LjAnLCAnLXRuJywgJzgnLCAnLW1hJywgJzIwMCcsICctbWV0YWxfYmluZGluZycsICctaW1hZScsICc8aW5maWxlLm1hZT4nLCAnLW9tYWUnLCAnPG91dGZpbGUubWFlPic=

> <r_lp_tautomer_probability>
1

> <r_epik_Ionization_Penalty>
0.0600913

> <r_epik_Ionization_Penalty_Charging>
0

> <r_epik_Ionization_Penalty_Neutral>
0.0600913

> <r_epik_State_Penalty>
0.0520726

> <r_epik_Charging_Adjusted_Penalty>
0.0520726

> <i_epik_Tot_Q>
0

> <i_epik_Tot_abs_Q>
0

> <r_epik_Metal_State_Penalty>
5.44269e-05

> <b_epik_Metal_Only>
0

> <s_lp_Force_Field>
OPLS_2005

> <r_lp_Energy>
16.3694

> <b_lp_Chiralities_Consistent>
1

> <s_lp_Variant>
AV-unprocessed.smi:2971-1

> <Gold.Version>
5.8.1

> <Gold.Id.Protein>
6NUR|6NUR_protein|mol2

> <Gold.PLP.Fitness>
47.9814

> <Gold.PLP.PLP>
-46.9914

> <Gold.PLP.part.hbond>
-2.0000

> <Gold.PLP.part.metal>
0.0000

> <Gold.PLP.part.buried>
-7.2003

> <Gold.PLP.part.nonpolar>
-37.7205

> <Gold.PLP.part.repulsive>
0.3221

> <Gold.PLP.ligand.clash>
0.0000

> <Gold.PLP.ligand.torsion>
1.1160

> <Gold.PLP.Chemscore.Hbond>
1.0456

> <Gold.PLP.Chemscore.CHOScore>
0.0000

> <Gold.PLP.Chemscore.Metal>
0.0000

> <Gold.Chemscore.Hbonds>
donor molecule, donor type, donor heavy atom, donor atom, acceptor molecule, acceptor atom, score
      L1  H     1    22       P1  7957  0.36
      P1  H  7989  7998       L1     1  0.59

> <Gold.PLP.Chemscore.Internal.Correction>
0.0851

> <Gold.Rescore>
     Score         DG    S(hbond)    S(metal)    S(lipo)     H(rot)  DE(clash)    DE(int)     intcor
     11.89     -13.49       0.62        0.00     102.80       2.37       0.55       1.05       ----

> <Gold.Chemscore.Fitness>
11.8911

> <Gold.Chemscore.DG>
-13.4913

> <Gold.Chemscore.ZeroCoef>
-5.4800

> <Gold.Chemscore.Hbond>
0.6168

> <Gold.Chemscore.Metal>
0.0000

> <Gold.Chemscore.Lipo>
102.7977

> <Gold.Chemscore.Internal_Hbond>
0.0000

> <Gold.Chemscore.DEClash>
0.5529

> <Gold.Chemscore.DEInternal>
1.0472

> <Gold.Chemscore.Rot>
2.3735

> <Gold.Chemscore.Internal.Correction>
   9.000000E+99

> <Gold.Chemscore.Hbonds>
donor molecule, donor type, donor heavy atom, donor atom, acceptor molecule, acceptor atom, score
      L1  H     1    22       P1  7957  0.35
      P1  H  7989  7998       L1     1  0.18

> <Gold.Chemscore.Hbond.Weighted>
-2.0602

> <Gold.Chemscore.Metal.Weighted>
-0.0000

> <Gold.Chemscore.Lipo.Weighted>
-12.0273

> <Gold.Chemscore.Internal_Hbond.Weighted>
0.0000

> <Gold.Chemscore.DEClash.Weighted>
0.5529

> <Gold.Chemscore.DEInternal.Weighted>
1.0472

> <Gold.Chemscore.Rot.Weighted>
6.0762

> <Gold.Chemscore.Internal.Correction.Weighted>
   9.000000E+99

> <Gold.Protein.RotatedTorsions>
[ 6907 6896 6895 6894 ] final  -25.33 input  -60.11 | X-H torsion
[ 7974 7965 7964 7962 ] final  124.68 input  175.53 | X-H torsion
[ 8008 7997 7996 7995 ] final -111.93 input   59.86 | X-H torsion
[ 10167 10162 10161 10158 ] final   46.92 input  -65.29 | X-H torsion
[ 10718 10713 10712 10709 ] final -100.08 input   66.30 | X-H torsion
[ 10763 10752 10751 10750 ] final  -55.75 input  -60.55 | X-H torsion
[ 11005 11000 10999 10996 ] final -157.51 input  -57.11 | X-H torsion

> <Gold.Protein.ActiveResidues>
 VAL166  LYS551  ARG553  GLY616  TRP617  ASP618  TYR619  PRO620  LYS621  CYS622 
 ASP623  PHE694  ASN695  SER759  ASP760  ASP761  ALA762  ILE779  LEU786  VAL792 
 PHE793  MET794  SER795  GLU796  ALA797  LYS798  CYS799  TRP800  GLU811  SER814 

> <Gold.Protein.RotatedAtoms>
  151.1767  135.0342  159.8774 H   0  0  0  0  0  0  0  0  0  0  0  0  # atno 6907 bound_to 6896
  152.5446  134.1109  159.8368 H   0  0  0  0  0  0  0  0  0  0  0  0  # atno 6908 bound_to 6896
  151.1221  133.5050  159.2634 H   0  0  0  0  0  0  0  0  0  0  0  0  # atno 6909 bound_to 6896
  145.0816  139.3653  143.4906 H   0  0  0  0  0  0  0  0  0  0  0  0  # atno 7974 bound_to 7965
  154.9973  140.0394  157.2345 H   0  0  0  0  0  0  0  0  0  0  0  0  # atno 8008 bound_to 7997
  154.7575  140.2778  155.6219 H   0  0  0  0  0  0  0  0  0  0  0  0  # atno 8009 bound_to 7997
  156.2897  140.2635  156.2344 H   0  0  0  0  0  0  0  0  0  0  0  0  # atno 8010 bound_to 7997
  140.3090  144.2843  150.6203 H   0  0  0  0  0  0  0  0  0  0  0  0  # atno 10167 bound_to 10162
  156.0152  130.5311  150.6765 H   0  0  0  0  0  0  0  0  0  0  0  0  # atno 10718 bound_to 10713
  154.1957  135.6419  153.5072 H   0  0  0  0  0  0  0  0  0  0  0  0  # atno 10763 bound_to 10752
  153.0024  135.5439  154.6368 H   0  0  0  0  0  0  0  0  0  0  0  0  # atno 10764 bound_to 10752
  154.5769  135.2921  155.0745 H   0  0  0  0  0  0  0  0  0  0  0  0  # atno 10765 bound_to 10752
  140.6639  134.4320  157.5234 H   0  0  0  0  0  0  0  0  0  0  0  0  # atno 11005 bound_to 11000
  146.3531  140.0609  142.8629 LP  0  0  0  0  0  0  0  0  0  0  0  0  # atno 17320 bound_to 7965
  145.1171  140.9440  143.4622 LP  0  0  0  0  0  0  0  0  0  0  0  0  # atno 17321 bound_to 7965
  140.5585  143.2195  151.7806 LP  0  0  0  0  0  0  0  0  0  0  0  0  # atno 17342 bound_to 10162
  139.4898  144.4381  151.9796 LP  0  0  0  0  0  0  0  0  0  0  0  0  # atno 17343 bound_to 10162
  157.4476  131.0869  151.0879 LP  0  0  0  0  0  0  0  0  0  0  0  0  # atno 17370 bound_to 10713
  157.1404  130.6141  149.5554 LP  0  0  0  0  0  0  0  0  0  0  0  0  # atno 17371 bound_to 10713
  139.9004  134.8570  156.1921 LP  0  0  0  0  0  0  0  0  0  0  0  0  # atno 17394 bound_to 11000
  141.0444  133.6921  156.1657 LP  0  0  0  0  0  0  0  0  0  0  0  0  # atno 17395 bound_to 11000

$$$$
