AV-unprocessed.smi:2668|AV-procd|sdf|10342|dock5
  -GOLD-   2272014363D 1   1.00000     0.00000
 Structure written by MMmdl.
 53 54  0  0  0  0  0  0  0  0  2 V2000
  151.3490  138.1986  157.0937 C   0  0  0  0  0  0  0  0  0  0  0  0
  150.5930  139.4228  156.8383 N   0  0  0  0  0  0  0  0  0  0  0  0
  150.8573  140.3167  157.9642 C   0  0  0  0  0  0  0  0  0  0  0  0
  150.9510  140.0418  155.5463 C   0  0  2  0  0  0  0  0  0  0  0  0
  150.1630  141.3397  155.2578 C   0  0  0  0  0  0  0  0  0  0  0  0
  148.6780  141.0643  154.9630 C   0  0  0  0  0  0  0  0  0  0  0  0
  148.5094  140.1344  153.8061 N   0  3  2  0  0  0  0  0  0  0  0  0
  147.0968  139.9827  153.2961 C   0  0  0  0  0  0  0  0  0  0  0  0
  146.2622  141.2347  153.6690 C   0  0  0  0  0  0  0  0  0  0  0  0
  147.1051  139.9252  151.7470 C   0  0  0  0  0  0  0  0  0  0  0  0
  146.4192  138.7087  153.8856 C   0  0  0  0  0  0  0  0  0  0  0  0
  146.7318  137.4857  153.1468 N   0  0  0  0  0  0  0  0  0  0  0  0
  145.8340  136.6500  152.6050 C   0  0  0  0  0  0  0  0  0  0  0  0
  144.6173  136.8159  152.6867 O   0  0  0  0  0  0  0  0  0  0  0  0
  146.4411  135.6370  151.9634 N   0  0  0  0  0  0  0  0  0  0  0  0
  145.8493  134.5486  151.2668 C   0  0  0  0  0  0  0  0  0  0  0  0
  146.3668  133.2304  151.2571 C   0  0  0  0  0  0  0  0  0  0  0  0
  145.6961  132.2425  150.5107 C   0  0  0  0  0  0  0  0  0  0  0  0
  144.5383  132.6080  149.7973 C   0  0  0  0  0  0  0  0  0  0  0  0
  144.0414  133.8628  149.7866 N   0  0  0  0  0  0  0  0  0  0  0  0
  144.6903  134.8049  150.5036 C   0  0  0  0  0  0  0  0  0  0  0  0
  149.2452  138.8568  154.0479 C   0  0  0  0  0  0  0  0  0  0  0  0
  150.7366  139.1078  154.3333 C   0  0  0  0  0  0  0  0  0  0  0  0
  151.0698  137.4034  156.4044 H   0  0  0  0  0  0  0  0  0  0  0  0
  151.1416  137.8161  158.0941 H   0  0  0  0  0  0  0  0  0  0  0  0
  152.4235  138.3696  157.0137 H   0  0  0  0  0  0  0  0  0  0  0  0
  150.2024  141.1861  157.9539 H   0  0  0  0  0  0  0  0  0  0  0  0
  151.8927  140.6604  157.9653 H   0  0  0  0  0  0  0  0  0  0  0  0
  150.6698  139.8107  158.9123 H   0  0  0  0  0  0  0  0  0  0  0  0
  152.0122  140.2915  155.5938 H   0  0  0  0  0  0  0  0  0  0  0  0
  150.2637  142.0752  156.0540 H   0  0  0  0  0  0  0  0  0  0  0  0
  150.6010  141.8234  154.3835 H   0  0  0  0  0  0  0  0  0  0  0  0
  148.2018  140.6516  155.8525 H   0  0  0  0  0  0  0  0  0  0  0  0
  148.2085  142.0264  154.7716 H   0  0  0  0  0  0  0  0  0  0  0  0
  145.3057  141.2525  153.1451 H   0  0  0  0  0  0  0  0  0  0  0  0
  146.7859  142.1552  153.4076 H   0  0  0  0  0  0  0  0  0  0  0  0
  146.0202  141.2733  154.7308 H   0  0  0  0  0  0  0  0  0  0  0  0
  146.1033  140.0387  151.3313 H   0  0  0  0  0  0  0  0  0  0  0  0
  147.4793  138.9745  151.3680 H   0  0  0  0  0  0  0  0  0  0  0  0
  147.7163  140.7222  151.3216 H   0  0  0  0  0  0  0  0  0  0  0  0
  146.6773  138.5776  154.9368 H   0  0  0  0  0  0  0  0  0  0  0  0
  145.3345  138.8080  153.8580 H   0  0  0  0  0  0  0  0  0  0  0  0
  147.7103  137.2680  153.0261 H   0  0  0  0  0  0  0  0  0  0  0  0
  147.4487  135.6817  151.9163 H   0  0  0  0  0  0  0  0  0  0  0  0
  147.2654  132.9609  151.7899 H   0  0  0  0  0  0  0  0  0  0  0  0
  146.0643  131.2278  150.4822 H   0  0  0  0  0  0  0  0  0  0  0  0
  144.0009  131.8745  149.2145 H   0  0  0  0  0  0  0  0  0  0  0  0
  144.2660  135.7979  150.4695 H   0  0  0  0  0  0  0  0  0  0  0  0
  148.8016  138.3170  154.8846 H   0  0  0  0  0  0  0  0  0  0  0  0
  149.1933  138.1969  153.1847 H   0  0  0  0  0  0  0  0  0  0  0  0
  151.1784  139.5778  153.4534 H   0  0  0  0  0  0  0  0  0  0  0  0
  151.2720  138.1651  154.4336 H   0  0  0  0  0  0  0  0  0  0  0  0
  149.0031  140.5768  153.0442 H   0  0  0  0  0  0  0  0  0  0  0  0
  1  2  1  0  0  0  0
  1 24  1  0  0  0  0
  1 25  1  0  0  0  0
  1 26  1  0  0  0  0
  2  3  1  0  0  0  0
  2  4  1  0  0  0  0
  3 27  1  0  0  0  0
  3 28  1  0  0  0  0
  3 29  1  0  0  0  0
  4 23  1  0  0  0  0
  4  5  1  0  0  0  0
  4 30  1  0  0  0  0
  5  6  1  0  0  0  0
  5 31  1  0  0  0  0
  5 32  1  0  0  0  0
  6  7  1  0  0  0  0
  6 33  1  0  0  0  0
  6 34  1  0  0  0  0
  7  8  1  0  0  0  0
  7 22  1  0  0  0  0
  7 53  1  0  0  0  0
  8  9  1  0  0  0  0
  8 10  1  0  0  0  0
  8 11  1  0  0  0  0
  9 35  1  0  0  0  0
  9 36  1  0  0  0  0
  9 37  1  0  0  0  0
 10 38  1  0  0  0  0
 10 39  1  0  0  0  0
 10 40  1  0  0  0  0
 11 12  1  0  0  0  0
 11 41  1  0  0  0  0
 11 42  1  0  0  0  0
 12 13  1  0  0  0  0
 12 43  1  0  0  0  0
 13 14  2  0  0  0  0
 13 15  1  0  0  0  0
 15 16  1  0  0  0  0
 15 44  1  0  0  0  0
 16 21  1  0  0  0  0
 16 17  2  0  0  0  0
 17 18  1  0  0  0  0
 17 45  1  0  0  0  0
 18 19  2  0  0  0  0
 18 46  1  0  0  0  0
 19 20  1  0  0  0  0
 19 47  1  0  0  0  0
 20 21  2  0  0  0  0
 21 48  1  0  0  0  0
 22 23  1  0  0  0  0
 22 49  1  0  0  0  0
 22 50  1  0  0  0  0
 23 51  1  0  0  0  0
 23 52  1  0  0  0  0
M  CHG  1   7   1
M  END
> <s_m_source_file>
AV-unprocessed.smi

> <i_m_source_file_index>
2668

> <i_lp_mmshare_version>
43012

> <i_f3d_flags>
0

> <s_epik_input>
W0NIM11OKFtDSDNdKVtDSF0xW0NIMl1bQ0gyXU4oW0NIMl1bQ0gyXTEpQyhbQ0gzXSkoW0NIM10pW0NIMl1bTkhdQyg9TylbTkhdYzJbY0hdW2NIXVtjSF1uW2NIXTI=

> <s_epik_cmdline>
J2VwaWtfcHl0aG9uJywgJy1waCcsICc3LjAnLCAnLXRuJywgJzgnLCAnLW1hJywgJzIwMCcsICctbWV0YWxfYmluZGluZycsICctaW1hZScsICc8aW5maWxlLm1hZT4nLCAnLW9tYWUnLCAnPG91dGZpbGUubWFlPic=

> <r_epik_Ionization_Penalty>
1.32573

> <r_epik_Ionization_Penalty_Charging>
0.00219175

> <r_epik_Ionization_Penalty_Neutral>
1.32353

> <r_epik_State_Penalty>
1.51166

> <r_epik_Charging_Adjusted_Penalty>
1.51385

> <i_epik_Tot_Q>
1

> <i_epik_Tot_abs_Q>
1

> <r_epik_Metal_State_Penalty>
1.51178

> <b_epik_Metal_Only>
0

> <s_lp_Force_Field>
OPLS_2005

> <r_lp_Energy>
39.6139

> <b_lp_Chiralities_Consistent>
1

> <s_lp_Variant>
AV-unprocessed.smi:2668-5

> <Gold.Version>
5.8.1

> <Gold.Id.Protein>
6NUR|6NUR_protein|mol2

> <Gold.PLP.Fitness>
40.4414

> <Gold.PLP.PLP>
-33.2471

> <Gold.PLP.part.hbond>
-3.0000

> <Gold.PLP.part.metal>
0.0000

> <Gold.PLP.part.buried>
1.8163

> <Gold.PLP.part.nonpolar>
-34.8409

> <Gold.PLP.part.repulsive>
3.1525

> <Gold.PLP.ligand.clash>
0.1526

> <Gold.PLP.ligand.torsion>
1.9210

> <Gold.PLP.Chemscore.Hbond>
2.6896

> <Gold.PLP.Chemscore.CHOScore>
1.0000

> <Gold.PLP.Chemscore.Metal>
0.0000

> <Gold.Chemscore.Hbonds>
donor molecule, donor type, donor heavy atom, donor atom, acceptor molecule, acceptor atom, score
      L1  H     7    53       P1  7957  0.71
      L1  H    12    43       P1  7948  0.83
      L1  H    15    44       P1  7948  1.00
      L1  C    21    48       P1 10171  0.14

> <Gold.PLP.Chemscore.Internal.Correction>
0.1203

> <Gold.Rescore>
     Score         DG    S(hbond)    S(metal)    S(lipo)     H(rot)  DE(clash)    DE(int)     intcor
     16.21     -22.76       2.54        0.00     110.74       1.62       2.30       4.25       ----

> <Gold.Chemscore.Fitness>
16.2074

> <Gold.Chemscore.DG>
-22.7568

> <Gold.Chemscore.ZeroCoef>
-5.4800

> <Gold.Chemscore.Hbond>
2.5373

> <Gold.Chemscore.Metal>
0.0000

> <Gold.Chemscore.Lipo>
110.7400

> <Gold.Chemscore.Internal_Hbond>
0.0000

> <Gold.Chemscore.DEClash>
2.3020

> <Gold.Chemscore.DEInternal>
4.2474

> <Gold.Chemscore.Rot>
1.6228

> <Gold.Chemscore.Internal.Correction>
   9.000000E+99

> <Gold.Chemscore.Hbonds>
donor molecule, donor type, donor heavy atom, donor atom, acceptor molecule, acceptor atom, score
      L1  H     7    53       P1  7957  0.67
      L1  H    12    43       P1  7948  0.80
      L1  H    15    44       P1  7948  0.97

> <Gold.Chemscore.Hbond.Weighted>
-8.4746

> <Gold.Chemscore.Metal.Weighted>
-0.0000

> <Gold.Chemscore.Lipo.Weighted>
-12.9566

> <Gold.Chemscore.Internal_Hbond.Weighted>
0.0000

> <Gold.Chemscore.DEClash.Weighted>
2.3020

> <Gold.Chemscore.DEInternal.Weighted>
4.2474

> <Gold.Chemscore.Rot.Weighted>
4.1545

> <Gold.Chemscore.Internal.Correction.Weighted>
   9.000000E+99

> <Gold.Protein.RotatedTorsions>
[ 6907 6896 6895 6894 ] final  -94.10 input  -60.11 | X-H torsion
[ 7974 7965 7964 7962 ] final -154.64 input  175.53 | X-H torsion
[ 8008 7997 7996 7995 ] final  136.85 input   59.86 | X-H torsion
[ 10167 10162 10161 10158 ] final -100.11 input  -65.29 | X-H torsion
[ 10718 10713 10712 10709 ] final -131.79 input   66.30 | X-H torsion
[ 10763 10752 10751 10750 ] final   79.29 input  -60.55 | X-H torsion
[ 11005 11000 10999 10996 ] final  -12.86 input  -57.11 | X-H torsion

> <Gold.Protein.ActiveResidues>
 VAL166  LYS551  ARG553  GLY616  TRP617  ASP618  TYR619  PRO620  LYS621  CYS622 
 ASP623  PHE694  ASN695  SER759  ASP760  ASP761  ALA762  ILE779  LEU786  VAL792 
 PHE793  MET794  SER795  GLU796  ALA797  LYS798  CYS799  TRP800  GLU811  SER814 

> <Gold.Protein.RotatedAtoms>
  150.6935  134.1864  159.4268 H   0  0  0  0  0  0  0  0  0  0  0  0  # atno 6907 bound_to 6896
  151.9837  135.0013  160.0568 H   0  0  0  0  0  0  0  0  0  0  0  0  # atno 6908 bound_to 6896
  152.1732  133.4622  159.4956 H   0  0  0  0  0  0  0  0  0  0  0  0  # atno 6909 bound_to 6896
  144.7679  140.4360  143.5928 H   0  0  0  0  0  0  0  0  0  0  0  0  # atno 7974 bound_to 7965
  156.3003  140.2434  156.3813 H   0  0  0  0  0  0  0  0  0  0  0  0  # atno 8008 bound_to 7997
  154.8699  140.0416  157.1737 H   0  0  0  0  0  0  0  0  0  0  0  0  # atno 8009 bound_to 7997
  154.8807  140.2949  155.5431 H   0  0  0  0  0  0  0  0  0  0  0  0  # atno 8010 bound_to 7997
  140.2553  143.3444  152.0676 H   0  0  0  0  0  0  0  0  0  0  0  0  # atno 10167 bound_to 10162
  156.2280  130.7020  151.0828 H   0  0  0  0  0  0  0  0  0  0  0  0  # atno 10718 bound_to 10713
  153.0941  135.4845  154.8746 H   0  0  0  0  0  0  0  0  0  0  0  0  # atno 10763 bound_to 10752
  154.7304  135.3059  154.8903 H   0  0  0  0  0  0  0  0  0  0  0  0  # atno 10764 bound_to 10752
  153.9541  135.6820  153.4797 H   0  0  0  0  0  0  0  0  0  0  0  0  # atno 10765 bound_to 10752
  140.7702  133.8445  155.9200 H   0  0  0  0  0  0  0  0  0  0  0  0  # atno 11005 bound_to 11000
  145.6413  139.1550  143.2914 LP  0  0  0  0  0  0  0  0  0  0  0  0  # atno 17320 bound_to 7965
  146.1802  140.6509  142.9192 LP  0  0  0  0  0  0  0  0  0  0  0  0  # atno 17321 bound_to 7965
  139.5033  144.6753  151.6143 LP  0  0  0  0  0  0  0  0  0  0  0  0  # atno 17342 bound_to 10162
  140.6008  143.9612  150.6385 LP  0  0  0  0  0  0  0  0  0  0  0  0  # atno 17343 bound_to 10162
  157.7120  131.0729  150.6467 LP  0  0  0  0  0  0  0  0  0  0  0  0  # atno 17370 bound_to 10713
  156.6533  130.4491  149.5712 LP  0  0  0  0  0  0  0  0  0  0  0  0  # atno 17371 bound_to 10713
  140.9581  134.1691  157.4675 LP  0  0  0  0  0  0  0  0  0  0  0  0  # atno 17394 bound_to 11000
  139.8757  134.9934  156.5645 LP  0  0  0  0  0  0  0  0  0  0  0  0  # atno 17395 bound_to 11000

$$$$
