AV-unprocessed.smi:48|AV-procd|sdf|451|dock2
  -GOLD-   2262016323D 1   1.00000     0.00000
 Structure written by MMmdl.
 30 32  0  0  0  0  0  0  0  0  1 V2000
  144.7915  142.0436  154.4101 O   0  0  0  0  0  0  0  0  0  0  0  0
  146.0032  142.7671  154.3751 C   0  0  0  0  0  0  0  0  0  0  0  0
  147.1292  141.8856  153.8133 C   0  0  1  0  0  0  0  0  0  0  0  0
  148.3674  142.2569  154.4019 O   0  0  0  0  0  0  0  0  0  0  0  0
  149.2522  141.1825  154.3535 C   0  0  1  0  0  0  0  0  0  0  0  0
  149.9986  141.1601  155.6514 N   0  0  0  0  0  0  0  0  0  0  0  0
  149.7368  141.8759  156.7638 C   0  0  0  0  0  0  0  0  0  0  0  0
  150.5362  141.6922  157.8139 N   0  0  0  0  0  0  0  0  0  0  0  0
  151.4169  140.7397  157.3279 C   0  0  0  0  0  0  0  0  0  0  0  0
  152.5292  140.0782  157.9029 C   0  0  0  0  0  0  0  0  0  0  0  0
  153.0195  140.4092  159.5238 Cl  0  0  0  0  0  0  0  0  0  0  0  0
  153.2028  139.1755  157.1505 N   0  0  0  0  0  0  0  0  0  0  0  0
  152.8006  138.9368  155.8961 C   0  0  0  0  0  0  0  0  0  0  0  0
  151.7790  139.4787  155.2235 N   0  0  0  0  0  0  0  0  0  0  0  0
  151.1013  140.3892  155.9844 C   0  0  0  0  0  0  0  0  0  0  0  0
  148.4260  139.9000  154.1052 C   0  0  1  0  0  0  0  0  0  0  0  0
  148.6517  138.8584  155.0390 O   0  0  0  0  0  0  0  0  0  0  0  0
  146.9928  140.4080  154.1920 C   0  0  2  0  0  0  0  0  0  0  0  0
  146.1680  139.7329  153.2636 O   0  0  0  0  0  0  0  0  0  0  0  0
  147.2095  141.9842  152.7284 H   0  0  0  0  0  0  0  0  0  0  0  0
  150.0165  141.3484  153.5930 H   0  0  0  0  0  0  0  0  0  0  0  0
  148.6573  139.5495  153.0980 H   0  0  0  0  0  0  0  0  0  0  0  0
  146.5995  140.3071  155.2049 H   0  0  0  0  0  0  0  0  0  0  0  0
  144.8298  141.3619  153.7568 H   0  0  0  0  0  0  0  0  0  0  0  0
  145.8853  143.6803  153.7908 H   0  0  0  0  0  0  0  0  0  0  0  0
  146.2350  143.0645  155.3983 H   0  0  0  0  0  0  0  0  0  0  0  0
  148.9140  142.5747  156.8047 H   0  0  0  0  0  0  0  0  0  0  0  0
  153.3802  138.2057  155.3521 H   0  0  0  0  0  0  0  0  0  0  0  0
  149.2794  138.2555  154.6709 H   0  0  0  0  0  0  0  0  0  0  0  0
  145.3341  140.1766  153.2292 H   0  0  0  0  0  0  0  0  0  0  0  0
  1  2  1  0  0  0  0
  1 24  1  0  0  0  0
  2  3  1  0  0  0  0
  2 25  1  0  0  0  0
  2 26  1  0  0  0  0
  3 20  1  0  0  0  0
  3 18  1  0  0  0  0
  3  4  1  0  0  0  0
  4  5  1  0  0  0  0
  5 21  1  0  0  0  0
  5  6  1  0  0  0  0
  5 16  1  0  0  0  0
  6 15  1  0  0  0  0
  6  7  1  0  0  0  0
  7  8  2  0  0  0  0
  7 27  1  0  0  0  0
  8  9  1  0  0  0  0
  9 15  2  0  0  0  0
  9 10  1  0  0  0  0
 10 11  1  0  0  0  0
 10 12  2  0  0  0  0
 12 13  1  0  0  0  0
 13 14  2  0  0  0  0
 13 28  1  0  0  0  0
 14 15  1  0  0  0  0
 16 22  1  0  0  0  0
 16 17  1  0  0  0  0
 16 18  1  0  0  0  0
 17 29  1  0  0  0  0
 18 23  1  0  0  0  0
 18 19  1  0  0  0  0
 19 30  1  0  0  0  0
M  END
> <s_m_source_file>
AV-unprocessed.smi

> <i_m_source_file_index>
48

> <i_lp_mmshare_version>
43012

> <i_f3d_flags>
0

> <s_epik_input>
W09IXVtDSDJdW0NASF0xT1tDQEhdKFtDQEhdKFtPSF0pW0NAQEhdMVtPSF0pbihbY0hdbjIpYyhjMjMpbltjSF1uYzNDbA==

> <s_epik_cmdline>
J2VwaWtfcHl0aG9uJywgJy1waCcsICc3LjAnLCAnLXRuJywgJzgnLCAnLW1hJywgJzIwMCcsICctbWV0YWxfYmluZGluZycsICctaW1hZScsICc8aW5maWxlLm1hZT4nLCAnLW9tYWUnLCAnPG91dGZpbGUubWFlPic=

> <r_lp_tautomer_probability>
1

> <r_epik_Ionization_Penalty>
3.45505e-06

> <r_epik_Ionization_Penalty_Charging>
0

> <r_epik_Ionization_Penalty_Neutral>
3.45505e-06

> <r_epik_State_Penalty>
-0

> <r_epik_Charging_Adjusted_Penalty>
0

> <i_epik_Tot_Q>
0

> <i_epik_Tot_abs_Q>
0

> <r_epik_Metal_State_Penalty>
-0

> <b_epik_Metal_Only>
0

> <s_epik_Chemistry_Notes>
This compound contains an acetal/aminal-like group ( X-CH(R)-Y where X, Y are N, S, or O) that may be acid/base labile, releasing an aldehyde.

> <s_lp_Force_Field>
OPLS_2005

> <r_lp_Energy>
37.1345

> <b_lp_Chiralities_Consistent>
1

> <s_lp_Variant>
AV-unprocessed.smi:48-5

> <Gold.Version>
5.8.1

> <Gold.Id.Protein>
6NUR|6NUR_protein|mol2

> <Gold.PLP.Fitness>
39.4281

> <Gold.PLP.PLP>
-29.3569

> <Gold.PLP.part.hbond>
-5.2530

> <Gold.PLP.part.metal>
0.0000

> <Gold.PLP.part.buried>
0.1749

> <Gold.PLP.part.nonpolar>
-25.8172

> <Gold.PLP.part.repulsive>
2.3276

> <Gold.PLP.ligand.clash>
0.0000

> <Gold.PLP.ligand.torsion>
0.5561

> <Gold.PLP.Chemscore.Hbond>
2.8130

> <Gold.PLP.Chemscore.CHOScore>
0.9116

> <Gold.PLP.Chemscore.Metal>
0.0000

> <Gold.Chemscore.Hbonds>
donor molecule, donor type, donor heavy atom, donor atom, acceptor molecule, acceptor atom, score
      L1  H     1    24       P1 10175  0.77
      L1  H    19    30       P1 10175  1.00
      P1  H  7989  7998       L1    14  0.28
      P1  H  7997  8010       L1    12  0.84
      L1  C     7    27       P1  8028  0.90

> <Gold.PLP.Chemscore.Internal.Correction>
0.0097

> <Gold.Rescore>
     Score         DG    S(hbond)    S(metal)    S(lipo)     H(rot)  DE(clash)    DE(int)     intcor
      0.99      -4.11       0.99        0.00      43.31       3.80       1.97       1.15       ----

> <Gold.Chemscore.Fitness>
0.9914

> <Gold.Chemscore.DG>
-4.1147

> <Gold.Chemscore.ZeroCoef>
-5.4800

> <Gold.Chemscore.Hbond>
0.9878

> <Gold.Chemscore.Metal>
0.0000

> <Gold.Chemscore.Lipo>
43.3149

> <Gold.Chemscore.Internal_Hbond>
0.0000

> <Gold.Chemscore.DEClash>
1.9746

> <Gold.Chemscore.DEInternal>
1.1486

> <Gold.Chemscore.Rot>
3.8017

> <Gold.Chemscore.Internal.Correction>
   9.000000E+99

> <Gold.Chemscore.Hbonds>
donor molecule, donor type, donor heavy atom, donor atom, acceptor molecule, acceptor atom, score
      L1  H     1    24       P1 10175  0.23
      L1  H    19    30       P1 10175  0.96
      P1  H  7989  7998       L1    14  0.01
      P1  H  7997  8010       L1    12  0.07

> <Gold.Chemscore.Hbond.Weighted>
-3.2992

> <Gold.Chemscore.Metal.Weighted>
-0.0000

> <Gold.Chemscore.Lipo.Weighted>
-5.0678

> <Gold.Chemscore.Internal_Hbond.Weighted>
0.0000

> <Gold.Chemscore.DEClash.Weighted>
1.9746

> <Gold.Chemscore.DEInternal.Weighted>
1.1486

> <Gold.Chemscore.Rot.Weighted>
9.7324

> <Gold.Chemscore.Internal.Correction.Weighted>
   9.000000E+99

> <Gold.Protein.RotatedTorsions>
[ 6907 6896 6895 6894 ] final  -99.79 input  -60.11 | X-H torsion
[ 7974 7965 7964 7962 ] final   -6.93 input  175.53 | X-H torsion
[ 8008 7997 7996 7995 ] final   33.37 input   59.86 | X-H torsion
[ 10167 10162 10161 10158 ] final   -3.71 input  -65.29 | X-H torsion
[ 10718 10713 10712 10709 ] final  178.32 input   66.30 | X-H torsion
[ 10763 10752 10751 10750 ] final  114.73 input  -60.55 | X-H torsion
[ 11005 11000 10999 10996 ] final    2.38 input  -57.11 | X-H torsion

> <Gold.Protein.ActiveResidues>
 VAL166  LYS551  ARG553  GLY616  TRP617  ASP618  TYR619  PRO620  LYS621  CYS622 
 ASP623  PHE694  ASN695  SER759  ASP760  ASP761  ALA762  ILE779  LEU786  VAL792 
 PHE793  MET794  SER795  GLU796  ALA797  LYS798  CYS799  TRP800  GLU811  SER814 

> <Gold.Protein.RotatedAtoms>
  150.7092  134.0986  159.3957 H   0  0  0  0  0  0  0  0  0  0  0  0  # atno 6907 bound_to 6896
  151.8972  135.0391  160.0512 H   0  0  0  0  0  0  0  0  0  0  0  0  # atno 6908 bound_to 6896
  152.2444  133.5126  159.5325 H   0  0  0  0  0  0  0  0  0  0  0  0  # atno 6909 bound_to 6896
  146.2319  140.2244  142.8338 H   0  0  0  0  0  0  0  0  0  0  0  0  # atno 7974 bound_to 7965
  155.1376  140.3263  155.4459 H   0  0  0  0  0  0  0  0  0  0  0  0  # atno 8008 bound_to 7997
  156.2615  140.1999  156.6442 H   0  0  0  0  0  0  0  0  0  0  0  0  # atno 8009 bound_to 7997
  154.6566  140.0552  157.0002 H   0  0  0  0  0  0  0  0  0  0  0  0  # atno 8010 bound_to 7997
  140.6900  143.6508  150.8351 H   0  0  0  0  0  0  0  0  0  0  0  0  # atno 10167 bound_to 10162
  156.8923  130.9851  151.3047 H   0  0  0  0  0  0  0  0  0  0  0  0  # atno 10718 bound_to 10713
  153.5116  135.3617  155.2589 H   0  0  0  0  0  0  0  0  0  0  0  0  # atno 10763 bound_to 10752
  154.8741  135.4024  154.3363 H   0  0  0  0  0  0  0  0  0  0  0  0  # atno 10764 bound_to 10752
  153.4017  135.7075  153.6488 H   0  0  0  0  0  0  0  0  0  0  0  0  # atno 10765 bound_to 10752
  140.6050  133.9801  155.8150 H   0  0  0  0  0  0  0  0  0  0  0  0  # atno 11005 bound_to 11000
  144.9606  140.8271  143.5515 LP  0  0  0  0  0  0  0  0  0  0  0  0  # atno 17320 bound_to 7965
  145.2215  139.2157  143.5091 LP  0  0  0  0  0  0  0  0  0  0  0  0  # atno 17321 bound_to 7965
  140.0220  143.5532  152.2796 LP  0  0  0  0  0  0  0  0  0  0  0  0  # atno 17342 bound_to 10162
  139.6294  144.7642  151.2569 LP  0  0  0  0  0  0  0  0  0  0  0  0  # atno 17343 bound_to 10162
  157.6076  130.8559  149.8900 LP  0  0  0  0  0  0  0  0  0  0  0  0  # atno 17370 bound_to 10713
  156.0623  130.3698  150.0956 LP  0  0  0  0  0  0  0  0  0  0  0  0  # atno 17371 bound_to 10713
  141.0847  134.0009  157.3332 LP  0  0  0  0  0  0  0  0  0  0  0  0  # atno 17394 bound_to 11000
  139.9216  135.0200  156.8085 LP  0  0  0  0  0  0  0  0  0  0  0  0  # atno 17395 bound_to 11000

$$$$
