AV-unprocessed.smi:511|AV-procd|sdf|2767|dock2
  -GOLD-   2262023233D 1   1.00000     0.00000
 Structure written by MMmdl.
 44 46  0  0  0  0  0  0  0  0  2 V2000
  150.2966  137.1995  158.9273 C   0  0  0  0  0  0  0  0  0  0  0  0
  150.5204  138.2544  158.0104 O   0  0  0  0  0  0  0  0  0  0  0  0
  151.8568  138.2929  157.5372 C   0  0  0  0  0  0  0  0  0  0  0  0
  152.2044  139.7231  157.1028 C   0  0  0  0  0  0  0  0  0  0  0  0
  152.0015  140.6881  158.1831 N   0  0  0  0  0  0  0  0  0  0  0  0
  151.0546  141.6615  158.2933 C   0  0  0  0  0  0  0  0  0  0  0  0
  150.0602  141.8588  157.3337 N   0  0  0  0  0  0  0  0  0  0  0  0
  148.6831  142.2912  157.5600 C   0  0  0  0  0  0  0  0  0  0  0  0
  147.6915  141.3796  156.8110 C   0  0  0  0  0  0  0  0  0  0  0  0
  147.9524  141.4637  155.3742 N   0  0  0  0  0  0  0  0  0  0  0  0
  147.0298  140.5946  154.6588 C   0  0  0  0  0  0  0  0  0  0  0  0
  149.3276  141.0334  155.1204 C   0  0  0  0  0  0  0  0  0  0  0  0
  150.3069  141.9365  155.8969 C   0  0  0  0  0  0  0  0  0  0  0  0
  151.1811  142.4397  159.3700 N   0  0  0  0  0  0  0  0  0  0  0  0
  152.2831  141.9035  160.0166 C   0  0  0  0  0  0  0  0  0  0  0  0
  152.8003  140.8567  159.3199 C   0  0  0  0  0  0  0  0  0  0  0  0
  154.0047  140.1056  159.7408 C   0  0  0  0  0  0  0  0  0  0  0  0
  154.4553  139.1895  159.0557 O   0  0  0  0  0  0  0  0  0  0  0  0
  154.5092  140.5615  160.9309 N   0  5  0  0  0  0  0  0  0  0  0  0
  154.0089  141.6079  161.6753 C   0  0  0  0  0  0  0  0  0  0  0  0
  154.5211  141.9501  162.7421 O   0  0  0  0  0  0  0  0  0  0  0  0
  152.9109  142.2960  161.2302 N   0  0  0  0  0  0  0  0  0  0  0  0
  152.3624  143.4193  161.9955 C   0  0  0  0  0  0  0  0  0  0  0  0
  149.2597  137.2217  159.2629 H   0  0  0  0  0  0  0  0  0  0  0  0
  150.9370  137.2971  159.8048 H   0  0  0  0  0  0  0  0  0  0  0  0
  150.4806  136.2294  158.4640 H   0  0  0  0  0  0  0  0  0  0  0  0
  152.5391  137.9728  158.3258 H   0  0  0  0  0  0  0  0  0  0  0  0
  151.9787  137.6036  156.7004 H   0  0  0  0  0  0  0  0  0  0  0  0
  153.2301  139.7511  156.7513 H   0  0  0  0  0  0  0  0  0  0  0  0
  151.6088  140.0182  156.2406 H   0  0  0  0  0  0  0  0  0  0  0  0
  148.4609  142.3137  158.6260 H   0  0  0  0  0  0  0  0  0  0  0  0
  148.5729  143.3216  157.2184 H   0  0  0  0  0  0  0  0  0  0  0  0
  147.7808  140.3485  157.1572 H   0  0  0  0  0  0  0  0  0  0  0  0
  146.6697  141.7020  157.0139 H   0  0  0  0  0  0  0  0  0  0  0  0
  147.2131  140.6440  153.5850 H   0  0  0  0  0  0  0  0  0  0  0  0
  145.9991  140.9045  154.8348 H   0  0  0  0  0  0  0  0  0  0  0  0
  147.1335  139.5558  154.9762 H   0  0  0  0  0  0  0  0  0  0  0  0
  149.4612  139.9907  155.4121 H   0  0  0  0  0  0  0  0  0  0  0  0
  149.5368  141.0974  154.0520 H   0  0  0  0  0  0  0  0  0  0  0  0
  150.2239  142.9722  155.5640 H   0  0  0  0  0  0  0  0  0  0  0  0
  151.3304  141.6230  155.6884 H   0  0  0  0  0  0  0  0  0  0  0  0
  153.1285  144.1764  162.1711 H   0  0  0  0  0  0  0  0  0  0  0  0
  151.9943  143.0755  162.9631 H   0  0  0  0  0  0  0  0  0  0  0  0
  151.5341  143.9109  161.4855 H   0  0  0  0  0  0  0  0  0  0  0  0
  1  2  1  0  0  0  0
  1 24  1  0  0  0  0
  1 25  1  0  0  0  0
  1 26  1  0  0  0  0
  2  3  1  0  0  0  0
  3  4  1  0  0  0  0
  3 27  1  0  0  0  0
  3 28  1  0  0  0  0
  4  5  1  0  0  0  0
  4 29  1  0  0  0  0
  4 30  1  0  0  0  0
  5 16  1  0  0  0  0
  5  6  1  0  0  0  0
  6  7  1  0  0  0  0
  6 14  2  0  0  0  0
  7 13  1  0  0  0  0
  7  8  1  0  0  0  0
  8  9  1  0  0  0  0
  8 31  1  0  0  0  0
  8 32  1  0  0  0  0
  9 10  1  0  0  0  0
  9 33  1  0  0  0  0
  9 34  1  0  0  0  0
 10 11  1  0  0  0  0
 10 12  1  0  0  0  0
 11 35  1  0  0  0  0
 11 36  1  0  0  0  0
 11 37  1  0  0  0  0
 12 13  1  0  0  0  0
 12 38  1  0  0  0  0
 12 39  1  0  0  0  0
 13 40  1  0  0  0  0
 13 41  1  0  0  0  0
 14 15  1  0  0  0  0
 15 22  1  0  0  0  0
 15 16  2  0  0  0  0
 16 17  1  0  0  0  0
 17 18  2  0  0  0  0
 17 19  1  0  0  0  0
 19 20  1  0  0  0  0
 20 21  2  0  0  0  0
 20 22  1  0  0  0  0
 22 23  1  0  0  0  0
 23 42  1  0  0  0  0
 23 43  1  0  0  0  0
 23 44  1  0  0  0  0
M  CHG  1  19  -1
M  END
> <s_m_source_file>
AV-unprocessed.smi

> <i_m_source_file_index>
511

> <i_lp_mmshare_version>
43012

> <i_f3d_flags>
0

> <s_epik_input>
W0NIM11uMWMoPU8pW25IXWMoPU8pYyhjMTIpbihbQ0gyXVtDSDJdT1tDSDNdKWMobjIpTjNbQ0gyXVtDSDJdTihbQ0gzXSlbQ0gyXVtDSDJdMw==

> <s_epik_cmdline>
J2VwaWtfcHl0aG9uJywgJy1waCcsICc3LjAnLCAnLXRuJywgJzgnLCAnLW1hJywgJzIwMCcsICctbWV0YWxfYmluZGluZycsICctaW1hZScsICc8aW5maWxlLm1hZT4nLCAnLW9tYWUnLCAnPG91dGZpbGUubWFlPic=

> <r_epik_Ionization_Penalty>
7.66215

> <r_epik_Ionization_Penalty_Charging>
0.0825427

> <r_epik_Ionization_Penalty_Neutral>
7.5796

> <r_epik_State_Penalty>
7.65676

> <r_epik_Charging_Adjusted_Penalty>
7.73931

> <i_epik_Tot_Q>
-1

> <i_epik_Tot_abs_Q>
1

> <r_epik_Metal_State_Penalty>
3.6066

> <b_epik_Metal_Only>
1

> <s_lp_Force_Field>
OPLS_2005

> <r_lp_Energy>
52.5947

> <b_lp_Chiralities_Consistent>
1

> <s_lp_Variant>
AV-unprocessed.smi:511-4

> <Gold.Version>
5.8.1

> <Gold.Id.Protein>
6NUR|6NUR_protein|mol2

> <Gold.PLP.Fitness>
38.9498

> <Gold.PLP.PLP>
-37.5382

> <Gold.PLP.part.hbond>
-2.2667

> <Gold.PLP.part.metal>
0.0000

> <Gold.PLP.part.buried>
-1.8752

> <Gold.PLP.part.nonpolar>
-32.2976

> <Gold.PLP.part.repulsive>
0.1067

> <Gold.PLP.ligand.clash>
0.0000

> <Gold.PLP.ligand.torsion>
0.9560

> <Gold.PLP.Chemscore.Hbond>
1.0000

> <Gold.PLP.Chemscore.CHOScore>
0.0000

> <Gold.PLP.Chemscore.Metal>
0.0000

> <Gold.Chemscore.Hbonds>
donor molecule, donor type, donor heavy atom, donor atom, acceptor molecule, acceptor atom, score
      P1  H  7997  8009       L1    18  1.00

> <Gold.PLP.Chemscore.Internal.Correction>
0.3236

> <Gold.Rescore>
     Score         DG    S(hbond)    S(metal)    S(lipo)     H(rot)  DE(clash)    DE(int)     intcor
     10.41     -11.92       0.94        0.00      60.37       1.47       0.62       0.89       ----

> <Gold.Chemscore.Fitness>
10.4074

> <Gold.Chemscore.DG>
-11.9231

> <Gold.Chemscore.ZeroCoef>
-5.4800

> <Gold.Chemscore.Hbond>
0.9437

> <Gold.Chemscore.Metal>
0.0000

> <Gold.Chemscore.Lipo>
60.3705

> <Gold.Chemscore.Internal_Hbond>
0.0000

> <Gold.Chemscore.DEClash>
0.6216

> <Gold.Chemscore.DEInternal>
0.8940

> <Gold.Chemscore.Rot>
1.4735

> <Gold.Chemscore.Internal.Correction>
   9.000000E+99

> <Gold.Chemscore.Hbonds>
donor molecule, donor type, donor heavy atom, donor atom, acceptor molecule, acceptor atom, score
      P1  H  7997  8009       L1    18  0.52

> <Gold.Chemscore.Hbond.Weighted>
-3.1520

> <Gold.Chemscore.Metal.Weighted>
-0.0000

> <Gold.Chemscore.Lipo.Weighted>
-7.0634

> <Gold.Chemscore.Internal_Hbond.Weighted>
0.0000

> <Gold.Chemscore.DEClash.Weighted>
0.6216

> <Gold.Chemscore.DEInternal.Weighted>
0.8940

> <Gold.Chemscore.Rot.Weighted>
3.7722

> <Gold.Chemscore.Internal.Correction.Weighted>
   9.000000E+99

> <Gold.Protein.RotatedTorsions>
[ 6907 6896 6895 6894 ] final  -59.15 input  -60.11 | X-H torsion
[ 7974 7965 7964 7962 ] final   95.09 input  175.53 | X-H torsion
[ 8008 7997 7996 7995 ] final  133.16 input   59.86 | X-H torsion
[ 10167 10162 10161 10158 ] final   14.65 input  -65.29 | X-H torsion
[ 10718 10713 10712 10709 ] final -139.37 input   66.30 | X-H torsion
[ 10763 10752 10751 10750 ] final  137.14 input  -60.55 | X-H torsion
[ 11005 11000 10999 10996 ] final  -90.15 input  -57.11 | X-H torsion

> <Gold.Protein.ActiveResidues>
 VAL166  LYS551  ARG553  GLY616  TRP617  ASP618  TYR619  PRO620  LYS621  CYS622 
 ASP623  PHE694  ASN695  SER759  ASP760  ASP761  ALA762  ILE779  LEU786  VAL792 
 PHE793  MET794  SER795  GLU796  ALA797  LYS798  CYS799  TRP800  GLU811  SER814 

> <Gold.Protein.RotatedAtoms>
  150.7952  134.7005  159.6547 H   0  0  0  0  0  0  0  0  0  0  0  0  # atno 6907 bound_to 6896
  152.4063  134.6198  160.0057 H   0  0  0  0  0  0  0  0  0  0  0  0  # atno 6908 bound_to 6896
  151.6454  133.3287  159.3176 H   0  0  0  0  0  0  0  0  0  0  0  0  # atno 6909 bound_to 6896
  145.4568  139.2289  143.3009 H   0  0  0  0  0  0  0  0  0  0  0  0  # atno 7974 bound_to 7965
  156.2990  140.2528  156.3208 H   0  0  0  0  0  0  0  0  0  0  0  0  # atno 8008 bound_to 7997
  154.9237  140.0400  157.2030 H   0  0  0  0  0  0  0  0  0  0  0  0  # atno 8009 bound_to 7997
  154.8286  140.2872  155.5742 H   0  0  0  0  0  0  0  0  0  0  0  0  # atno 8010 bound_to 7997
  140.5921  143.8774  150.6883 H   0  0  0  0  0  0  0  0  0  0  0  0  # atno 10167 bound_to 10162
  156.3100  130.7476  151.1550 H   0  0  0  0  0  0  0  0  0  0  0  0  # atno 10718 bound_to 10713
  153.8682  135.3059  155.3441 H   0  0  0  0  0  0  0  0  0  0  0  0  # atno 10763 bound_to 10752
  154.7818  135.4831  153.9863 H   0  0  0  0  0  0  0  0  0  0  0  0  # atno 10764 bound_to 10752
  153.1422  135.6826  153.9105 H   0  0  0  0  0  0  0  0  0  0  0  0  # atno 10765 bound_to 10752
  141.1571  133.7674  156.9697 H   0  0  0  0  0  0  0  0  0  0  0  0  # atno 11005 bound_to 11000
  146.2473  140.5333  142.8908 LP  0  0  0  0  0  0  0  0  0  0  0  0  # atno 17320 bound_to 7965
  144.8027  140.6243  143.6467 LP  0  0  0  0  0  0  0  0  0  0  0  0  # atno 17321 bound_to 7965
  140.2299  143.3743  152.1574 LP  0  0  0  0  0  0  0  0  0  0  0  0  # atno 17342 bound_to 10162
  139.5234  144.7071  151.5320 LP  0  0  0  0  0  0  0  0  0  0  0  0  # atno 17343 bound_to 10162
  157.7389  131.0536  150.5268 LP  0  0  0  0  0  0  0  0  0  0  0  0  # atno 17370 bound_to 10713
  156.5406  130.4207  149.6156 LP  0  0  0  0  0  0  0  0  0  0  0  0  # atno 17371 bound_to 10713
  140.1138  134.9460  157.2104 LP  0  0  0  0  0  0  0  0  0  0  0  0  # atno 17394 bound_to 11000
  140.3160  134.2970  155.7256 LP  0  0  0  0  0  0  0  0  0  0  0  0  # atno 17395 bound_to 11000

$$$$
