AV-unprocessed.smi:282|AV-procd|sdf|2121|dock3
  -GOLD-   2262021423D 1   1.00000     0.00000
 Structure written by MMmdl.
 65 69  0  0  0  0  0  0  0  0  2 V2000
  148.5980  128.8928  153.2903 C   0  0  0  0  0  0  0  0  0  0  0  0
  148.8067  130.3515  153.7189 C   0  0  0  0  0  0  0  0  0  0  0  0
  147.4932  131.1211  154.0014 C   0  0  2  0  0  0  0  0  0  0  0  0
  146.4374  130.9579  152.8881 C   0  0  0  0  0  0  0  0  0  0  0  0
  146.8141  131.7024  151.6568 N   0  3  1  0  0  0  0  0  0  0  0  0
  145.8754  131.4917  150.5240 C   0  0  0  0  0  0  0  0  0  0  0  0
  144.5641  132.2804  150.7025 C   0  0  0  0  0  0  0  0  0  0  0  0
  144.8451  133.7721  150.9289 C   0  0  0  0  0  0  0  0  0  0  0  0
  145.8162  133.9626  152.1026 C   0  0  0  0  0  0  0  0  0  0  0  0
  147.1106  133.1460  151.8922 C   0  0  1  0  0  0  0  0  0  0  0  0
  148.1167  133.3329  153.0452 C   0  0  0  0  0  0  0  0  0  0  0  0
  147.7370  132.5491  154.2201 N   0  0  0  0  0  0  0  0  0  0  0  0
  148.2623  132.9036  155.4206 C   0  0  0  0  0  0  0  0  0  0  0  0
  149.5293  133.3933  155.4816 N   0  0  0  0  0  0  0  0  0  0  0  0
  150.0632  133.7381  156.6570 C   0  0  0  0  0  0  0  0  0  0  0  0
  149.5131  133.6832  157.8711 N   0  0  0  0  0  0  0  0  0  0  0  0
  148.2371  133.2045  157.8154 C   0  0  0  0  0  0  0  0  0  0  0  0
  147.5433  132.7900  156.6437 C   0  0  0  0  0  0  0  0  0  0  0  0
  146.2629  132.3655  156.9784 N   0  0  0  0  0  0  0  0  0  0  0  0
  146.2064  132.5135  158.2736 C   0  0  0  0  0  0  0  0  0  0  0  0
  147.3412  133.0307  158.8566 N   0  0  0  0  0  0  0  0  0  0  0  0
  147.5538  133.3006  160.2703 C   0  0  0  0  0  0  0  0  0  0  0  0
  146.5117  134.2507  160.9442 C   0  0  0  0  0  0  0  0  0  0  0  0
  145.1345  133.5458  161.0993 C   0  0  0  0  0  0  0  0  0  0  0  0
  145.1316  132.5097  162.0620 O   0  0  0  0  0  0  0  0  0  0  0  0
  146.9809  134.7950  162.3187 C   0  0  0  0  0  0  0  0  0  0  0  0
  148.1672  135.7676  162.1977 C   0  0  0  0  0  0  0  0  0  0  0  0
  147.8170  136.8531  161.3492 O   0  0  0  0  0  0  0  0  0  0  0  0
  147.5119  136.4422  160.0228 C   0  0  0  0  0  0  0  0  0  0  0  0
  146.3045  135.4851  160.0302 C   0  0  0  0  0  0  0  0  0  0  0  0
  149.5556  128.3791  153.2023 H   0  0  0  0  0  0  0  0  0  0  0  0
  148.1026  128.8190  152.3228 H   0  0  0  0  0  0  0  0  0  0  0  0
  147.9980  128.3495  154.0207 H   0  0  0  0  0  0  0  0  0  0  0  0
  149.4176  130.3443  154.6223 H   0  0  0  0  0  0  0  0  0  0  0  0
  149.3987  130.8672  152.9624 H   0  0  0  0  0  0  0  0  0  0  0  0
  147.0640  130.6932  154.9060 H   0  0  0  0  0  0  0  0  0  0  0  0
  146.2809  129.9059  152.6523 H   0  0  0  0  0  0  0  0  0  0  0  0
  145.4794  131.3246  153.2570 H   0  0  0  0  0  0  0  0  0  0  0  0
  146.3692  131.8139  149.6063 H   0  0  0  0  0  0  0  0  0  0  0  0
  145.6690  130.4278  150.4019 H   0  0  0  0  0  0  0  0  0  0  0  0
  143.9338  132.1529  149.8219 H   0  0  0  0  0  0  0  0  0  0  0  0
  143.9954  131.8811  151.5426 H   0  0  0  0  0  0  0  0  0  0  0  0
  145.2738  134.2054  150.0245 H   0  0  0  0  0  0  0  0  0  0  0  0
  143.9141  134.3066  151.1194 H   0  0  0  0  0  0  0  0  0  0  0  0
  146.0577  135.0211  152.2048 H   0  0  0  0  0  0  0  0  0  0  0  0
  145.3289  133.6720  153.0339 H   0  0  0  0  0  0  0  0  0  0  0  0
  147.5868  133.5261  150.9870 H   0  0  0  0  0  0  0  0  0  0  0  0
  149.1103  133.0213  152.7213 H   0  0  0  0  0  0  0  0  0  0  0  0
  148.1899  134.3915  153.2990 H   0  0  0  0  0  0  0  0  0  0  0  0
  151.0751  134.1138  156.6192 H   0  0  0  0  0  0  0  0  0  0  0  0
  145.3249  132.2558  158.8420 H   0  0  0  0  0  0  0  0  0  0  0  0
  147.5898  132.3357  160.7734 H   0  0  0  0  0  0  0  0  0  0  0  0
  148.5548  133.7189  160.3821 H   0  0  0  0  0  0  0  0  0  0  0  0
  144.3717  134.2605  161.4104 H   0  0  0  0  0  0  0  0  0  0  0  0
  144.8035  133.1391  160.1432 H   0  0  0  0  0  0  0  0  0  0  0  0
  146.0107  132.1724  162.1424 H   0  0  0  0  0  0  0  0  0  0  0  0
  146.1554  135.3269  162.7940 H   0  0  0  0  0  0  0  0  0  0  0  0
  147.2349  133.9851  163.0013 H   0  0  0  0  0  0  0  0  0  0  0  0
  148.4210  136.1649  163.1805 H   0  0  0  0  0  0  0  0  0  0  0  0
  149.0609  135.2675  161.8231 H   0  0  0  0  0  0  0  0  0  0  0  0
  147.2761  137.3280  159.4329 H   0  0  0  0  0  0  0  0  0  0  0  0
  148.3873  135.9879  159.5582 H   0  0  0  0  0  0  0  0  0  0  0  0
  146.0740  135.1707  159.0116 H   0  0  0  0  0  0  0  0  0  0  0  0
  145.4376  136.0534  160.3701 H   0  0  0  0  0  0  0  0  0  0  0  0
  147.6889  131.2896  151.3665 H   0  0  0  0  0  0  0  0  0  0  0  0
  1  2  1  0  0  0  0
  1 31  1  0  0  0  0
  1 32  1  0  0  0  0
  1 33  1  0  0  0  0
  2  3  1  0  0  0  0
  2 34  1  0  0  0  0
  2 35  1  0  0  0  0
  3 12  1  0  0  0  0
  3  4  1  0  0  0  0
  3 36  1  0  0  0  0
  4  5  1  0  0  0  0
  4 37  1  0  0  0  0
  4 38  1  0  0  0  0
  5 10  1  0  0  0  0
  5  6  1  0  0  0  0
  5 65  1  0  0  0  0
  6  7  1  0  0  0  0
  6 39  1  0  0  0  0
  6 40  1  0  0  0  0
  7  8  1  0  0  0  0
  7 41  1  0  0  0  0
  7 42  1  0  0  0  0
  8  9  1  0  0  0  0
  8 43  1  0  0  0  0
  8 44  1  0  0  0  0
  9 10  1  0  0  0  0
  9 45  1  0  0  0  0
  9 46  1  0  0  0  0
 10 11  1  0  0  0  0
 10 47  1  0  0  0  0
 11 12  1  0  0  0  0
 11 48  1  0  0  0  0
 11 49  1  0  0  0  0
 12 13  1  0  0  0  0
 13 18  1  0  0  0  0
 13 14  2  0  0  0  0
 14 15  1  0  0  0  0
 15 16  2  0  0  0  0
 15 50  1  0  0  0  0
 16 17  1  0  0  0  0
 17 21  1  0  0  0  0
 17 18  2  0  0  0  0
 18 19  1  0  0  0  0
 19 20  2  0  0  0  0
 20 21  1  0  0  0  0
 20 51  1  0  0  0  0
 21 22  1  0  0  0  0
 22 23  1  0  0  0  0
 22 52  1  0  0  0  0
 22 53  1  0  0  0  0
 23 30  1  0  0  0  0
 23 24  1  0  0  0  0
 23 26  1  0  0  0  0
 24 25  1  0  0  0  0
 24 54  1  0  0  0  0
 24 55  1  0  0  0  0
 25 56  1  0  0  0  0
 26 27  1  0  0  0  0
 26 57  1  0  0  0  0
 26 58  1  0  0  0  0
 27 28  1  0  0  0  0
 27 59  1  0  0  0  0
 27 60  1  0  0  0  0
 28 29  1  0  0  0  0
 29 30  1  0  0  0  0
 29 61  1  0  0  0  0
 29 62  1  0  0  0  0
 30 63  1  0  0  0  0
 30 64  1  0  0  0  0
M  CHG  1   5   1
M  END
> <s_m_source_file>
AV-unprocessed.smi

> <i_m_source_file_index>
282

> <i_lp_mmshare_version>
43012

> <i_f3d_flags>
0

> <s_epik_input>
W0NIMl0xW0NIMl1bQ0gyXVtDSDJdW0NAQEhdKE4xMilbQ0gyXU4oW0NAQEhdKFtDSDJdMilbQ0gyXVtDSDNdKWMobltjSF1uMyljKGMzNCluW2NIXW40W0NIMl1DNShbQ0gyXVtPSF0pW0NIMl1bQ0gyXU9bQ0gyXVtDSDJdNQ==

> <s_epik_cmdline>
J2VwaWtfcHl0aG9uJywgJy1waCcsICc3LjAnLCAnLXRuJywgJzgnLCAnLW1hJywgJzIwMCcsICctbWV0YWxfYmluZGluZycsICctaW1hZScsICc8aW5maWxlLm1hZT4nLCAnLW9tYWUnLCAnPG91dGZpbGUubWFlPic=

> <r_lp_tautomer_probability>
1

> <r_epik_Ionization_Penalty>
0.00308583

> <r_epik_Ionization_Penalty_Charging>
0.00300384

> <r_epik_Ionization_Penalty_Neutral>
8.19894e-05

> <r_epik_State_Penalty>
-0

> <r_epik_Charging_Adjusted_Penalty>
0.00300384

> <i_epik_Tot_Q>
1

> <i_epik_Tot_abs_Q>
1

> <r_epik_Metal_State_Penalty>
-0

> <b_epik_Metal_Only>
0

> <s_lp_Force_Field>
OPLS_2005

> <r_lp_Energy>
61.1987

> <b_lp_Chiralities_Consistent>
1

> <s_lp_Variant>
AV-unprocessed.smi:282-5

> <Gold.Version>
5.8.1

> <Gold.Id.Protein>
6NUR|6NUR_protein|mol2

> <Gold.PLP.Fitness>
49.5389

> <Gold.PLP.PLP>
-41.2054

> <Gold.PLP.part.hbond>
-4.0730

> <Gold.PLP.part.metal>
0.0000

> <Gold.PLP.part.buried>
-5.9392

> <Gold.PLP.part.nonpolar>
-31.1166

> <Gold.PLP.part.repulsive>
0.0785

> <Gold.PLP.ligand.clash>
0.0000

> <Gold.PLP.ligand.torsion>
1.1324

> <Gold.PLP.Chemscore.Hbond>
3.4292

> <Gold.PLP.Chemscore.CHOScore>
0.0000

> <Gold.PLP.Chemscore.Metal>
0.0000

> <Gold.Chemscore.Hbonds>
donor molecule, donor type, donor heavy atom, donor atom, acceptor molecule, acceptor atom, score
      L1  H     5    65       P1 10747  1.00
      P1  H  6896  6907       L1    16  1.00
      P1  H  6931  6943       L1    28  1.00
      P1  H  6934  6947       L1    28  0.18

> <Gold.PLP.Chemscore.Internal.Correction>
0.3108

> <Gold.Rescore>
     Score         DG    S(hbond)    S(metal)    S(lipo)     H(rot)  DE(clash)    DE(int)     intcor
     19.12     -20.30       2.61        0.00     100.28       2.20       0.16       1.02       ----

> <Gold.Chemscore.Fitness>
19.1220

> <Gold.Chemscore.DG>
-20.3008

> <Gold.Chemscore.ZeroCoef>
-5.4800

> <Gold.Chemscore.Hbond>
2.6141

> <Gold.Chemscore.Metal>
0.0000

> <Gold.Chemscore.Lipo>
100.2791

> <Gold.Chemscore.Internal_Hbond>
0.0000

> <Gold.Chemscore.DEClash>
0.1596

> <Gold.Chemscore.DEInternal>
1.0192

> <Gold.Chemscore.Rot>
2.2042

> <Gold.Chemscore.Internal.Correction>
   9.000000E+99

> <Gold.Chemscore.Hbonds>
donor molecule, donor type, donor heavy atom, donor atom, acceptor molecule, acceptor atom, score
      L1  H     5    65       P1 10747  0.99
      P1  H  6896  6907       L1    16  0.85
      P1  H  6931  6943       L1    28  0.39
      P1  H  6934  6947       L1    28  0.02

> <Gold.Chemscore.Hbond.Weighted>
-8.7310

> <Gold.Chemscore.Metal.Weighted>
-0.0000

> <Gold.Chemscore.Lipo.Weighted>
-11.7327

> <Gold.Chemscore.Internal_Hbond.Weighted>
0.0000

> <Gold.Chemscore.DEClash.Weighted>
0.1596

> <Gold.Chemscore.DEInternal.Weighted>
1.0192

> <Gold.Chemscore.Rot.Weighted>
5.6429

> <Gold.Chemscore.Internal.Correction.Weighted>
   9.000000E+99

> <Gold.Protein.RotatedTorsions>
[ 6907 6896 6895 6894 ] final -117.62 input  -60.11 | X-H torsion
[ 7974 7965 7964 7962 ] final  -29.29 input  175.53 | X-H torsion
[ 8008 7997 7996 7995 ] final  -84.46 input   59.86 | X-H torsion
[ 10167 10162 10161 10158 ] final -147.82 input  -65.29 | X-H torsion
[ 10718 10713 10712 10709 ] final   25.28 input   66.30 | X-H torsion
[ 10763 10752 10751 10750 ] final   57.65 input  -60.55 | X-H torsion
[ 11005 11000 10999 10996 ] final   34.55 input  -57.11 | X-H torsion

> <Gold.Protein.ActiveResidues>
 VAL166  LYS551  ARG553  GLY616  TRP617  ASP618  TYR619  PRO620  LYS621  CYS622 
 ASP623  PHE694  ASN695  SER759  ASP760  ASP761  ALA762  ILE779  LEU786  VAL792 
 PHE793  MET794  SER795  GLU796  ALA797  LYS798  CYS799  TRP800  GLU811  SER814 

> <Gold.Protein.RotatedAtoms>
  150.8152  133.8351  159.3163 H   0  0  0  0  0  0  0  0  0  0  0  0  # atno 6907 bound_to 6896
  151.6125  135.1037  160.0094 H   0  0  0  0  0  0  0  0  0  0  0  0  # atno 6908 bound_to 6896
  152.4243  133.7128  159.6545 H   0  0  0  0  0  0  0  0  0  0  0  0  # atno 6909 bound_to 6896
  146.1227  140.5393  142.8728 H   0  0  0  0  0  0  0  0  0  0  0  0  # atno 7974 bound_to 7965
  154.6300  140.0605  156.9721 H   0  0  0  0  0  0  0  0  0  0  0  0  # atno 8008 bound_to 7997
  155.1680  140.3288  155.4380 H   0  0  0  0  0  0  0  0  0  0  0  0  # atno 8009 bound_to 7997
  156.2478  140.1919  156.6784 H   0  0  0  0  0  0  0  0  0  0  0  0  # atno 8010 bound_to 7997
  139.7587  143.8409  152.2602 H   0  0  0  0  0  0  0  0  0  0  0  0  # atno 10167 bound_to 10162
  157.1912  130.6847  149.6151 H   0  0  0  0  0  0  0  0  0  0  0  0  # atno 10718 bound_to 10713
  152.9854  135.5634  154.5424 H   0  0  0  0  0  0  0  0  0  0  0  0  # atno 10763 bound_to 10752
  154.4876  135.2791  155.1524 H   0  0  0  0  0  0  0  0  0  0  0  0  # atno 10764 bound_to 10752
  154.3006  135.6308  153.5476 H   0  0  0  0  0  0  0  0  0  0  0  0  # atno 10765 bound_to 10752
  140.2517  134.3295  155.7888 H   0  0  0  0  0  0  0  0  0  0  0  0  # atno 11005 bound_to 11000
  144.7612  140.5426  143.6734 LP  0  0  0  0  0  0  0  0  0  0  0  0  # atno 17320 bound_to 7965
  145.5432  139.1475  143.3435 LP  0  0  0  0  0  0  0  0  0  0  0  0  # atno 17321 bound_to 7965
  139.8409  144.7210  150.9332 LP  0  0  0  0  0  0  0  0  0  0  0  0  # atno 17342 bound_to 10162
  140.7805  143.3984  151.1190 LP  0  0  0  0  0  0  0  0  0  0  0  0  # atno 17343 bound_to 10162
  155.9711  130.4614  150.6107 LP  0  0  0  0  0  0  0  0  0  0  0  0  # atno 17370 bound_to 10713
  157.3859  131.0788  151.1437 LP  0  0  0  0  0  0  0  0  0  0  0  0  # atno 17371 bound_to 10713
  141.2200  133.7358  156.9048 LP  0  0  0  0  0  0  0  0  0  0  0  0  # atno 17394 bound_to 11000
  140.1551  134.9204  157.2643 LP  0  0  0  0  0  0  0  0  0  0  0  0  # atno 17395 bound_to 11000

$$$$
