AV-unprocessed.smi:1381|AV-procd|sdf|5618|dock2
  -GOLD-   22720 5233D 1   1.00000     0.00000
 Structure written by MMmdl.
 42 43  0  0  0  0  0  0  0  0  3 V2000
  152.5841  141.5650  161.5109 C   0  0  0  0  0  0  0  0  0  0  0  0
  151.8436  141.5668  160.2176 C   0  0  0  0  0  0  0  0  0  0  0  0
  151.9950  140.8598  159.0584 C   0  0  0  0  0  0  0  0  0  0  0  0
  150.9497  141.3608  158.2375 C   0  0  0  0  0  0  0  0  0  0  0  0
  150.7652  140.8645  156.9200 N   0  0  0  0  0  0  0  0  0  0  0  0
  151.3716  139.8259  156.3163 C   0  0  0  0  0  0  0  0  0  0  0  0
  152.2059  139.1478  156.9277 O   0  0  0  0  0  0  0  0  0  0  0  0
  150.9492  139.6613  155.0326 N   0  5  0  0  0  0  0  0  0  0  0  0
  150.9553  138.3895  154.3142 C   0  0  0  0  0  0  0  0  0  0  0  0
  149.9135  137.4401  154.9369 C   0  0  0  0  0  0  0  0  0  0  0  0
  148.5716  137.5955  154.3151 N   0  3  1  0  0  0  0  0  0  0  0  0
  147.5229  136.8026  154.9986 C   0  0  0  0  0  0  0  0  0  0  0  0
  146.1914  136.8991  154.2325 C   0  0  1  0  0  0  0  0  0  0  0  0
  145.0577  136.1640  154.9562 C   0  0  0  0  0  0  0  0  0  0  0  0
  145.8134  138.2674  154.1021 O   0  0  0  0  0  0  0  0  0  0  0  0
  146.7753  139.0966  153.4495 C   0  0  2  0  0  0  0  0  0  0  0  0
  146.8685  138.8084  151.9405 C   0  0  0  0  0  0  0  0  0  0  0  0
  148.1314  139.0087  154.1751 C   0  0  0  0  0  0  0  0  0  0  0  0
  150.2254  142.2901  158.8431 N   0  0  0  0  0  0  0  0  0  0  0  0
  150.7945  142.4268  160.1148 O   0  0  0  0  0  0  0  0  0  0  0  0
  153.4179  140.8633  161.4817 H   0  0  0  0  0  0  0  0  0  0  0  0
  151.9273  141.2756  162.3312 H   0  0  0  0  0  0  0  0  0  0  0  0
  152.9836  142.5557  161.7287 H   0  0  0  0  0  0  0  0  0  0  0  0
  152.7347  140.1057  158.8349 H   0  0  0  0  0  0  0  0  0  0  0  0
  150.0918  141.3632  156.3578 H   0  0  0  0  0  0  0  0  0  0  0  0
  150.7258  138.5191  153.2558 H   0  0  0  0  0  0  0  0  0  0  0  0
  151.9352  137.9118  154.3501 H   0  0  0  0  0  0  0  0  0  0  0  0
  150.2658  136.4171  154.7929 H   0  0  0  0  0  0  0  0  0  0  0  0
  149.8447  137.5855  156.0165 H   0  0  0  0  0  0  0  0  0  0  0  0
  147.8310  135.7576  155.0583 H   0  0  0  0  0  0  0  0  0  0  0  0
  147.4040  137.1624  156.0219 H   0  0  0  0  0  0  0  0  0  0  0  0
  146.3051  136.4532  153.2441 H   0  0  0  0  0  0  0  0  0  0  0  0
  145.2906  135.1060  155.0790 H   0  0  0  0  0  0  0  0  0  0  0  0
  144.1260  136.2355  154.3943 H   0  0  0  0  0  0  0  0  0  0  0  0
  144.8818  136.5852  155.9465 H   0  0  0  0  0  0  0  0  0  0  0  0
  146.4103  140.1192  153.5522 H   0  0  0  0  0  0  0  0  0  0  0  0
  147.5053  139.5431  151.4470 H   0  0  0  0  0  0  0  0  0  0  0  0
  145.8851  138.8587  151.4731 H   0  0  0  0  0  0  0  0  0  0  0  0
  147.2893  137.8253  151.7312 H   0  0  0  0  0  0  0  0  0  0  0  0
  148.0438  139.4533  155.1678 H   0  0  0  0  0  0  0  0  0  0  0  0
  148.8765  139.5950  153.6362 H   0  0  0  0  0  0  0  0  0  0  0  0
  148.6528  137.2128  153.3837 H   0  0  0  0  0  0  0  0  0  0  0  0
  1  2  1  0  0  0  0
  1 21  1  0  0  0  0
  1 22  1  0  0  0  0
  1 23  1  0  0  0  0
  2 20  1  0  0  0  0
  2  3  2  0  0  0  0
  3  4  1  0  0  0  0
  3 24  1  0  0  0  0
  4  5  1  0  0  0  0
  4 19  2  0  0  0  0
  5  6  1  0  0  0  0
  5 25  1  0  0  0  0
  6  7  2  0  0  0  0
  6  8  1  0  0  0  0
  8  9  1  0  0  0  0
  9 10  1  0  0  0  0
  9 26  1  0  0  0  0
  9 27  1  0  0  0  0
 10 11  1  0  0  0  0
 10 28  1  0  0  0  0
 10 29  1  0  0  0  0
 11 18  1  0  0  0  0
 11 12  1  0  0  0  0
 11 42  1  0  0  0  0
 12 13  1  0  0  0  0
 12 30  1  0  0  0  0
 12 31  1  0  0  0  0
 13 14  1  0  0  0  0
 13 15  1  0  0  0  0
 13 32  1  0  0  0  0
 14 33  1  0  0  0  0
 14 34  1  0  0  0  0
 14 35  1  0  0  0  0
 15 16  1  0  0  0  0
 16 17  1  0  0  0  0
 16 18  1  0  0  0  0
 16 36  1  0  0  0  0
 17 37  1  0  0  0  0
 17 38  1  0  0  0  0
 17 39  1  0  0  0  0
 18 40  1  0  0  0  0
 18 41  1  0  0  0  0
 19 20  1  0  0  0  0
M  CHG  1   8  -1
M  CHG  1  11   1
M  END
> <s_m_source_file>
AV-unprocessed.smi

> <i_m_source_file_index>
1381

> <i_lp_mmshare_version>
43012

> <i_f3d_flags>
0

> <s_epik_input>
W0NIM11jMVtjSF1jKG5vMSlbTkhdQyg9TylbTkhdW0NIMl1bQ0gyXU4yW0NIMl1bQ0BASF0oW0NIM10pT1tDQEBIXShbQ0gzXSlbQ0gyXTI=

> <s_epik_cmdline>
J2VwaWtfcHl0aG9uJywgJy1waCcsICc3LjAnLCAnLXRuJywgJzgnLCAnLW1hJywgJzIwMCcsICctbWV0YWxfYmluZGluZycsICctaW1hZScsICc8aW5maWxlLm1hZT4nLCAnLW9tYWUnLCAnPG91dGZpbGUubWFlPic=

> <r_epik_Ionization_Penalty>
6.8073

> <r_epik_Ionization_Penalty_Charging>
6.80729

> <r_epik_Ionization_Penalty_Neutral>
5.65391e-06

> <r_epik_State_Penalty>
7.47323

> <r_epik_Charging_Adjusted_Penalty>
14.2805

> <i_epik_Tot_Q>
0

> <i_epik_Tot_abs_Q>
2

> <r_epik_Metal_State_Penalty>
3.40035

> <b_epik_Metal_Only>
1

> <s_lp_Force_Field>
OPLS_2005

> <r_lp_Energy>
14.8512

> <b_lp_Chiralities_Consistent>
1

> <s_lp_Variant>
AV-unprocessed.smi:1381-17

> <Gold.Version>
5.8.1

> <Gold.Id.Protein>
6NUR|6NUR_protein|mol2

> <Gold.PLP.Fitness>
42.1715

> <Gold.PLP.PLP>
-31.3035

> <Gold.PLP.part.hbond>
-3.2605

> <Gold.PLP.part.metal>
0.0000

> <Gold.PLP.part.buried>
-5.2400

> <Gold.PLP.part.nonpolar>
-22.7322

> <Gold.PLP.part.repulsive>
0.3803

> <Gold.PLP.ligand.clash>
0.3121

> <Gold.PLP.ligand.torsion>
0.4310

> <Gold.PLP.Chemscore.Hbond>
4.0000

> <Gold.PLP.Chemscore.CHOScore>
0.0000

> <Gold.PLP.Chemscore.Metal>
0.0000

> <Gold.Chemscore.Hbonds>
donor molecule, donor type, donor heavy atom, donor atom, acceptor molecule, acceptor atom, score
      L1  H    11    42       P1  7948  2.00
      P1  H  7989  7998       L1     8  0.82

> <Gold.PLP.Chemscore.Internal.Correction>
0.0421

> <Gold.Rescore>
     Score         DG    S(hbond)    S(metal)    S(lipo)     H(rot)  DE(clash)    DE(int)     intcor
     14.91     -18.11       2.76        0.00      63.69       1.58       0.23       2.97       ----

> <Gold.Chemscore.Fitness>
14.9111

> <Gold.Chemscore.DG>
-18.1141

> <Gold.Chemscore.ZeroCoef>
-5.4800

> <Gold.Chemscore.Hbond>
2.7622

> <Gold.Chemscore.Metal>
0.0000

> <Gold.Chemscore.Lipo>
63.6851

> <Gold.Chemscore.Internal_Hbond>
0.0000

> <Gold.Chemscore.DEClash>
0.2286

> <Gold.Chemscore.DEInternal>
2.9744

> <Gold.Chemscore.Rot>
1.5792

> <Gold.Chemscore.Internal.Correction>
   9.000000E+99

> <Gold.Chemscore.Hbonds>
donor molecule, donor type, donor heavy atom, donor atom, acceptor molecule, acceptor atom, score
      L1  H    11    42       P1  7948  1.00
      P1  H  7989  7998       L1     8  0.15

> <Gold.Chemscore.Hbond.Weighted>
-9.2258

> <Gold.Chemscore.Metal.Weighted>
-0.0000

> <Gold.Chemscore.Lipo.Weighted>
-7.4512

> <Gold.Chemscore.Internal_Hbond.Weighted>
0.0000

> <Gold.Chemscore.DEClash.Weighted>
0.2286

> <Gold.Chemscore.DEInternal.Weighted>
2.9744

> <Gold.Chemscore.Rot.Weighted>
4.0428

> <Gold.Chemscore.Internal.Correction.Weighted>
   9.000000E+99

> <Gold.Protein.RotatedTorsions>
[ 6907 6896 6895 6894 ] final  140.40 input  -60.11 | X-H torsion
[ 7974 7965 7964 7962 ] final   -7.69 input  175.53 | X-H torsion
[ 8008 7997 7996 7995 ] final   91.61 input   59.86 | X-H torsion
[ 10167 10162 10161 10158 ] final -166.13 input  -65.29 | X-H torsion
[ 10718 10713 10712 10709 ] final -111.38 input   66.30 | X-H torsion
[ 10763 10752 10751 10750 ] final   84.29 input  -60.55 | X-H torsion
[ 11005 11000 10999 10996 ] final  -42.60 input  -57.11 | X-H torsion

> <Gold.Protein.ActiveResidues>
 VAL166  LYS551  ARG553  GLY616  TRP617  ASP618  TYR619  PRO620  LYS621  CYS622 
 ASP623  PHE694  ASN695  SER759  ASP760  ASP761  ALA762  ILE779  LEU786  VAL792 
 PHE793  MET794  SER795  GLU796  ALA797  LYS798  CYS799  TRP800  GLU811  SER814 

> <Gold.Protein.RotatedAtoms>
  152.2435  133.5155  159.5283 H   0  0  0  0  0  0  0  0  0  0  0  0  # atno 6907 bound_to 6896
  150.7071  134.1057  159.3991 H   0  0  0  0  0  0  0  0  0  0  0  0  # atno 6908 bound_to 6896
  151.8977  135.0391  160.0554 H   0  0  0  0  0  0  0  0  0  0  0  0  # atno 6909 bound_to 6896
  146.2300  140.2358  142.8341 H   0  0  0  0  0  0  0  0  0  0  0  0  # atno 7974 bound_to 7965
  156.0258  140.3335  155.7087 H   0  0  0  0  0  0  0  0  0  0  0  0  # atno 8008 bound_to 7997
  155.5956  140.0650  157.2764 H   0  0  0  0  0  0  0  0  0  0  0  0  # atno 8009 bound_to 7997
  154.4333  140.1819  156.1108 H   0  0  0  0  0  0  0  0  0  0  0  0  # atno 8010 bound_to 7997
  139.6135  144.0766  152.1865 H   0  0  0  0  0  0  0  0  0  0  0  0  # atno 10167 bound_to 10162
  156.0644  130.5864  150.8366 H   0  0  0  0  0  0  0  0  0  0  0  0  # atno 10718 bound_to 10713
  153.1368  135.4659  154.9435 H   0  0  0  0  0  0  0  0  0  0  0  0  # atno 10763 bound_to 10752
  154.7713  135.3159  154.8186 H   0  0  0  0  0  0  0  0  0  0  0  0  # atno 10764 bound_to 10752
  153.8717  135.6903  153.4828 H   0  0  0  0  0  0  0  0  0  0  0  0  # atno 10765 bound_to 10752
  141.0327  133.6813  156.2617 H   0  0  0  0  0  0  0  0  0  0  0  0  # atno 11005 bound_to 11000
  144.9523  140.8191  143.5564 LP  0  0  0  0  0  0  0  0  0  0  0  0  # atno 17320 bound_to 7965
  145.2319  139.2111  143.5038 LP  0  0  0  0  0  0  0  0  0  0  0  0  # atno 17321 bound_to 7965
  140.0391  144.6021  150.7426 LP  0  0  0  0  0  0  0  0  0  0  0  0  # atno 17342 bound_to 10162
  140.7335  143.2718  151.3865 LP  0  0  0  0  0  0  0  0  0  0  0  0  # atno 17343 bound_to 10162
  157.5675  131.0946  150.9467 LP  0  0  0  0  0  0  0  0  0  0  0  0  # atno 17370 bound_to 10713
  156.9691  130.5484  149.5289 LP  0  0  0  0  0  0  0  0  0  0  0  0  # atno 17371 bound_to 10713
  140.6378  134.5197  157.5566 LP  0  0  0  0  0  0  0  0  0  0  0  0  # atno 17394 bound_to 11000
  139.9219  134.8133  156.1186 LP  0  0  0  0  0  0  0  0  0  0  0  0  # atno 17395 bound_to 11000

$$$$
