AV-unprocessed.smi:3285|AV-procd|sdf|12580|dock7
  -GOLD-   2272018503D 1   1.00000     0.00000
 Structure written by MMmdl.
 45 46  0  0  0  0  0  0  0  0  2 V2000
  153.1716  138.6630  154.3566 C   0  0  0  0  0  0  0  0  0  0  0  0
  151.7859  138.1688  154.6594 C   0  0  0  0  0  0  0  0  0  0  0  0
  151.4940  136.8914  154.4822 N   0  0  0  0  0  0  0  0  0  0  0  0
  150.1511  136.7510  154.8447 O   0  0  0  0  0  0  0  0  0  0  0  0
  149.6810  137.9646  155.2291 C   0  0  0  0  0  0  0  0  0  0  0  0
  148.2536  138.0245  155.6572 C   0  0  0  0  0  0  0  0  0  0  0  0
  150.6659  138.9092  155.1350 C   0  0  0  0  0  0  0  0  0  0  0  0
  150.5934  140.3780  155.4535 C   0  0  0  0  0  0  0  0  0  0  0  0
  151.6411  140.7793  156.4999 C   0  0  0  0  0  0  0  0  0  0  0  0
  151.1359  140.5489  157.8694 N   0  3  0  0  0  0  0  0  0  0  0  0
  151.2117  141.7168  158.7751 C   0  0  2  0  0  0  0  0  0  0  0  0
  150.3384  142.8581  158.2238 C   0  0  0  0  0  0  0  0  0  0  0  0
  150.4183  144.1152  159.1044 C   0  0  0  0  0  0  0  0  0  0  0  0
  151.8747  144.5867  159.2796 C   0  0  1  0  0  0  0  0  0  0  0  0
  151.9611  145.8942  160.0837 C   0  0  0  0  0  0  0  0  0  0  0  0
  152.7745  143.4576  159.8429 C   0  0  1  0  0  0  0  0  0  0  0  0
  152.5228  143.1287  161.3285 C   0  0  0  0  0  0  0  0  0  0  0  0
  152.6691  142.1988  158.9555 C   0  0  0  0  0  0  0  0  0  0  0  0
  153.1584  139.3766  153.5330 H   0  0  0  0  0  0  0  0  0  0  0  0
  153.8406  137.8478  154.0778 H   0  0  0  0  0  0  0  0  0  0  0  0
  153.6052  139.1627  155.2228 H   0  0  0  0  0  0  0  0  0  0  0  0
  147.7753  138.9323  155.2903 H   0  0  0  0  0  0  0  0  0  0  0  0
  148.1774  138.0172  156.7444 H   0  0  0  0  0  0  0  0  0  0  0  0
  147.6930  137.1720  155.2731 H   0  0  0  0  0  0  0  0  0  0  0  0
  150.7428  140.9699  154.5496 H   0  0  0  0  0  0  0  0  0  0  0  0
  149.6001  140.6426  155.8179 H   0  0  0  0  0  0  0  0  0  0  0  0
  152.5548  140.2020  156.3521 H   0  0  0  0  0  0  0  0  0  0  0  0
  151.8995  141.8303  156.3728 H   0  0  0  0  0  0  0  0  0  0  0  0
  150.1769  140.2353  157.8230 H   0  0  0  0  0  0  0  0  0  0  0  0
  150.8035  141.4177  159.7415 H   0  0  0  0  0  0  0  0  0  0  0  0
  150.6555  143.1098  157.2106 H   0  0  0  0  0  0  0  0  0  0  0  0
  149.3001  142.5321  158.1490 H   0  0  0  0  0  0  0  0  0  0  0  0
  149.8248  144.9100  158.6515 H   0  0  0  0  0  0  0  0  0  0  0  0
  149.9662  143.9154  160.0764 H   0  0  0  0  0  0  0  0  0  0  0  0
  152.2534  144.8199  158.2829 H   0  0  0  0  0  0  0  0  0  0  0  0
  151.5206  145.7898  161.0755 H   0  0  0  0  0  0  0  0  0  0  0  0
  151.4292  146.6990  159.5753 H   0  0  0  0  0  0  0  0  0  0  0  0
  152.9966  146.2132  160.2075 H   0  0  0  0  0  0  0  0  0  0  0  0
  153.8073  143.8035  159.7793 H   0  0  0  0  0  0  0  0  0  0  0  0
  151.4939  142.8232  161.5158 H   0  0  0  0  0  0  0  0  0  0  0  0
  152.7355  143.9845  161.9688 H   0  0  0  0  0  0  0  0  0  0  0  0
  153.1711  142.3176  161.6614 H   0  0  0  0  0  0  0  0  0  0  0  0
  153.2896  141.4090  159.3783 H   0  0  0  0  0  0  0  0  0  0  0  0
  153.0955  142.4209  157.9758 H   0  0  0  0  0  0  0  0  0  0  0  0
  151.6939  139.8104  158.2739 H   0  0  0  0  0  0  0  0  0  0  0  0
  1  2  1  0  0  0  0
  1 19  1  0  0  0  0
  1 20  1  0  0  0  0
  1 21  1  0  0  0  0
  2  7  1  0  0  0  0
  2  3  2  0  0  0  0
  3  4  1  0  0  0  0
  4  5  1  0  0  0  0
  5  6  1  0  0  0  0
  5  7  2  0  0  0  0
  6 22  1  0  0  0  0
  6 23  1  0  0  0  0
  6 24  1  0  0  0  0
  7  8  1  0  0  0  0
  8  9  1  0  0  0  0
  8 25  1  0  0  0  0
  8 26  1  0  0  0  0
  9 10  1  0  0  0  0
  9 27  1  0  0  0  0
  9 28  1  0  0  0  0
 10 11  1  0  0  0  0
 10 29  1  0  0  0  0
 10 45  1  0  0  0  0
 11 18  1  0  0  0  0
 11 12  1  0  0  0  0
 11 30  1  0  0  0  0
 12 13  1  0  0  0  0
 12 31  1  0  0  0  0
 12 32  1  0  0  0  0
 13 14  1  0  0  0  0
 13 33  1  0  0  0  0
 13 34  1  0  0  0  0
 14 15  1  0  0  0  0
 14 16  1  0  0  0  0
 14 35  1  0  0  0  0
 15 36  1  0  0  0  0
 15 37  1  0  0  0  0
 15 38  1  0  0  0  0
 16 17  1  0  0  0  0
 16 18  1  0  0  0  0
 16 39  1  0  0  0  0
 17 40  1  0  0  0  0
 17 41  1  0  0  0  0
 17 42  1  0  0  0  0
 18 43  1  0  0  0  0
 18 44  1  0  0  0  0
M  CHG  1  10   1
M  END
> <s_m_source_file>
AV-unprocessed.smi

> <i_m_source_file_index>
3285

> <i_lp_mmshare_version>
43012

> <i_f3d_flags>
0

> <s_epik_input>
W0NIM11jMW5vYyhbQ0gzXSljMVtDSDJdW0NIMl1bTkhdW0NAQEhdMltDSDJdW0NIMl1bQ0BASF0oW0NIM10pW0NAQEhdKFtDSDNdKVtDSDJdMg==

> <s_epik_cmdline>
J2VwaWtfcHl0aG9uJywgJy1waCcsICc3LjAnLCAnLXRuJywgJzgnLCAnLW1hJywgJzIwMCcsICctbWV0YWxfYmluZGluZycsICctaW1hZScsICc8aW5maWxlLm1hZT4nLCAnLW9tYWUnLCAnPG91dGZpbGUubWFlPic=

> <r_lp_tautomer_probability>
1

> <r_epik_Ionization_Penalty>
0.000204615

> <r_epik_Ionization_Penalty_Charging>
0.000204615

> <r_epik_Ionization_Penalty_Neutral>
9.28663e-11

> <r_epik_State_Penalty>
-0

> <r_epik_Charging_Adjusted_Penalty>
0.000204615

> <i_epik_Tot_Q>
1

> <i_epik_Tot_abs_Q>
1

> <r_epik_Metal_State_Penalty>
-0

> <b_epik_Metal_Only>
0

> <s_lp_Force_Field>
OPLS_2005

> <r_lp_Energy>
12.1865

> <b_lp_Chiralities_Consistent>
1

> <s_lp_Variant>
AV-unprocessed.smi:3285-1

> <Gold.Version>
5.8.1

> <Gold.Id.Protein>
6NUR|6NUR_protein|mol2

> <Gold.PLP.Fitness>
43.2739

> <Gold.PLP.PLP>
-41.2895

> <Gold.PLP.part.hbond>
-1.0000

> <Gold.PLP.part.metal>
0.0000

> <Gold.PLP.part.buried>
-4.6748

> <Gold.PLP.part.nonpolar>
-34.3474

> <Gold.PLP.part.repulsive>
0.4124

> <Gold.PLP.ligand.clash>
0.0000

> <Gold.PLP.ligand.torsion>
0.5154

> <Gold.PLP.Chemscore.Hbond>
1.0000

> <Gold.PLP.Chemscore.CHOScore>
0.0000

> <Gold.PLP.Chemscore.Metal>
0.0000

> <Gold.Chemscore.Hbonds>
donor molecule, donor type, donor heavy atom, donor atom, acceptor molecule, acceptor atom, score
      P1  H 10752 10764       L1     3  1.00

> <Gold.PLP.Chemscore.Internal.Correction>
0.0152

> <Gold.Rescore>
     Score         DG    S(hbond)    S(metal)    S(lipo)     H(rot)  DE(clash)    DE(int)     intcor
     19.09     -19.62       0.98        0.00     122.23       1.35       0.01       0.52       ----

> <Gold.Chemscore.Fitness>
19.0861

> <Gold.Chemscore.DG>
-19.6203

> <Gold.Chemscore.ZeroCoef>
-5.4800

> <Gold.Chemscore.Hbond>
0.9838

> <Gold.Chemscore.Metal>
0.0000

> <Gold.Chemscore.Lipo>
122.2334

> <Gold.Chemscore.Internal_Hbond>
0.0000

> <Gold.Chemscore.DEClash>
0.0148

> <Gold.Chemscore.DEInternal>
0.5194

> <Gold.Chemscore.Rot>
1.3465

> <Gold.Chemscore.Internal.Correction>
   9.000000E+99

> <Gold.Chemscore.Hbonds>
donor molecule, donor type, donor heavy atom, donor atom, acceptor molecule, acceptor atom, score
      P1  H 10752 10764       L1     3  0.95

> <Gold.Chemscore.Hbond.Weighted>
-3.2860

> <Gold.Chemscore.Metal.Weighted>
-0.0000

> <Gold.Chemscore.Lipo.Weighted>
-14.3013

> <Gold.Chemscore.Internal_Hbond.Weighted>
0.0000

> <Gold.Chemscore.DEClash.Weighted>
0.0148

> <Gold.Chemscore.DEInternal.Weighted>
0.5194

> <Gold.Chemscore.Rot.Weighted>
3.4470

> <Gold.Chemscore.Internal.Correction.Weighted>
   9.000000E+99

> <Gold.Protein.RotatedTorsions>
[ 6907 6896 6895 6894 ] final  -41.72 input  -60.11 | X-H torsion
[ 7974 7965 7964 7962 ] final    2.28 input  175.53 | X-H torsion
[ 8008 7997 7996 7995 ] final  169.70 input   59.86 | X-H torsion
[ 10167 10162 10161 10158 ] final  158.53 input  -65.29 | X-H torsion
[ 10718 10713 10712 10709 ] final   55.85 input   66.30 | X-H torsion
[ 10763 10752 10751 10750 ] final  -79.37 input  -60.55 | X-H torsion
[ 11005 11000 10999 10996 ] final   28.45 input  -57.11 | X-H torsion

> <Gold.Protein.ActiveResidues>
 VAL166  LYS551  ARG553  GLY616  TRP617  ASP618  TYR619  PRO620  LYS621  CYS622 
 ASP623  PHE694  ASN695  SER759  ASP760  ASP761  ALA762  ILE779  LEU786  VAL792 
 PHE793  MET794  SER795  GLU796  ALA797  LYS798  CYS799  TRP800  GLU811  SER814 

> <Gold.Protein.RotatedAtoms>
  150.9635  134.9019  159.7744 H   0  0  0  0  0  0  0  0  0  0  0  0  # atno 6907 bound_to 6896
  152.5165  134.3639  159.9304 H   0  0  0  0  0  0  0  0  0  0  0  0  # atno 6908 bound_to 6896
  151.3651  133.3835  159.2728 H   0  0  0  0  0  0  0  0  0  0  0  0  # atno 6909 bound_to 6896
  146.2443  140.0860  142.8354 H   0  0  0  0  0  0  0  0  0  0  0  0  # atno 7974 bound_to 7965
  156.1433  140.1557  156.8886 H   0  0  0  0  0  0  0  0  0  0  0  0  # atno 8008 bound_to 7997
  154.5006  140.0826  156.7828 H   0  0  0  0  0  0  0  0  0  0  0  0  # atno 8009 bound_to 7997
  155.4037  140.3415  155.4261 H   0  0  0  0  0  0  0  0  0  0  0  0  # atno 8010 bound_to 7997
  139.4827  144.4816  151.8436 H   0  0  0  0  0  0  0  0  0  0  0  0  # atno 10167 bound_to 10162
  157.5380  130.8677  149.8782 H   0  0  0  0  0  0  0  0  0  0  0  0  # atno 10718 bound_to 10713
  154.5377  135.5698  153.6812 H   0  0  0  0  0  0  0  0  0  0  0  0  # atno 10763 bound_to 10752
  152.9955  135.6220  154.2544 H   0  0  0  0  0  0  0  0  0  0  0  0  # atno 10764 bound_to 10752
  154.2473  135.2860  155.2810 H   0  0  0  0  0  0  0  0  0  0  0  0  # atno 10765 bound_to 10752
  140.3155  134.2602  155.7726 H   0  0  0  0  0  0  0  0  0  0  0  0  # atno 11005 bound_to 11000
  145.0692  140.9143  143.4892 LP  0  0  0  0  0  0  0  0  0  0  0  0  # atno 17320 bound_to 7965
  145.0990  139.2836  143.5696 LP  0  0  0  0  0  0  0  0  0  0  0  0  # atno 17321 bound_to 7965
  140.4292  144.2138  150.5887 LP  0  0  0  0  0  0  0  0  0  0  0  0  # atno 17342 bound_to 10162
  140.4796  143.2384  151.8974 LP  0  0  0  0  0  0  0  0  0  0  0  0  # atno 17343 bound_to 10162
  156.0474  130.3725  150.1283 LP  0  0  0  0  0  0  0  0  0  0  0  0  # atno 17370 bound_to 10713
  156.9465  130.9761  151.3506 LP  0  0  0  0  0  0  0  0  0  0  0  0  # atno 17371 bound_to 10713
  141.2098  133.7737  156.9970 LP  0  0  0  0  0  0  0  0  0  0  0  0  # atno 17394 bound_to 11000
  140.0987  134.9548  157.1890 LP  0  0  0  0  0  0  0  0  0  0  0  0  # atno 17395 bound_to 11000

$$$$
