AV-unprocessed.smi:2712|AV-procd|sdf|10476|dock6
  -GOLD-   2272014513D 1   1.00000     0.00000
 Structure written by MMmdl.
 52 53  0  0  0  0  0  0  0  0  1 V2000
  150.4861  139.3816  158.0878 C   0  0  0  0  0  0  0  0  0  0  0  0
  151.4582  138.3003  157.7187 C   0  0  0  0  0  0  0  0  0  0  0  0
  151.2680  137.4248  156.5779 C   0  0  0  0  0  0  0  0  0  0  0  0
  152.1872  136.4715  156.3148 C   0  0  0  0  0  0  0  0  0  0  0  0
  153.3750  136.2986  157.1483 C   0  0  0  0  0  0  0  0  0  0  0  0
  154.2292  135.4379  156.9372 O   0  0  0  0  0  0  0  0  0  0  0  0
  153.4516  137.1846  158.1855 N   0  0  0  0  0  0  0  0  0  0  0  0
  154.5908  137.1726  159.1149 C   0  0  0  0  0  0  0  0  0  0  0  0
  155.0758  138.5753  159.5110 C   0  0  0  0  0  0  0  0  0  0  0  0
  156.0448  139.0931  158.9532 O   0  0  0  0  0  0  0  0  0  0  0  0
  154.3714  139.1847  160.4769 N   0  0  0  0  0  0  0  0  0  0  0  0
  154.6373  140.5191  161.0103 C   0  0  2  0  0  0  0  0  0  0  0  0
  153.5981  140.8654  162.0954 C   0  0  0  0  0  0  0  0  0  0  0  0
  153.5139  142.3581  162.4450 C   0  0  0  0  0  0  0  0  0  0  0  0
  152.5179  143.1329  161.5611 C   0  0  0  0  0  0  0  0  0  0  0  0
  152.9630  143.4144  160.0983 C   0  0  2  0  0  0  0  0  0  0  0  0
  151.9189  144.2648  159.2829 C   0  0  0  0  0  0  0  0  0  0  0  0
  152.4834  144.7163  157.9183 C   0  0  0  0  0  0  0  0  0  0  0  0
  151.4953  145.5216  160.0806 C   0  0  0  0  0  0  0  0  0  0  0  0
  150.6222  143.4619  159.0277 C   0  0  0  0  0  0  0  0  0  0  0  0
  153.3909  142.1096  159.3670 C   0  0  0  0  0  0  0  0  0  0  0  0
  154.7330  141.5353  159.8555 C   0  0  0  0  0  0  0  0  0  0  0  0
  152.5058  138.1581  158.4625 N   0  0  0  0  0  0  0  0  0  0  0  0
  149.6229  139.3803  157.4217 H   0  0  0  0  0  0  0  0  0  0  0  0
  150.9561  140.3634  158.0240 H   0  0  0  0  0  0  0  0  0  0  0  0
  150.1214  139.2461  159.1065 H   0  0  0  0  0  0  0  0  0  0  0  0
  150.3967  137.5412  155.9504 H   0  0  0  0  0  0  0  0  0  0  0  0
  152.0447  135.8204  155.4647 H   0  0  0  0  0  0  0  0  0  0  0  0
  154.3240  136.6364  160.0274 H   0  0  0  0  0  0  0  0  0  0  0  0
  155.4215  136.6129  158.6807 H   0  0  0  0  0  0  0  0  0  0  0  0
  153.5910  138.6848  160.8778 H   0  0  0  0  0  0  0  0  0  0  0  0
  155.6227  140.5055  161.4801 H   0  0  0  0  0  0  0  0  0  0  0  0
  152.6089  140.5069  161.8063 H   0  0  0  0  0  0  0  0  0  0  0  0
  153.8527  140.3069  162.9973 H   0  0  0  0  0  0  0  0  0  0  0  0
  153.1640  142.4364  163.4750 H   0  0  0  0  0  0  0  0  0  0  0  0
  154.4997  142.8244  162.4341 H   0  0  0  0  0  0  0  0  0  0  0  0
  151.5584  142.6163  161.5711 H   0  0  0  0  0  0  0  0  0  0  0  0
  152.3494  144.0793  162.0724 H   0  0  0  0  0  0  0  0  0  0  0  0
  153.8534  144.0403  160.1749 H   0  0  0  0  0  0  0  0  0  0  0  0
  151.7415  145.2858  157.3573 H   0  0  0  0  0  0  0  0  0  0  0  0
  152.7732  143.8699  157.2960 H   0  0  0  0  0  0  0  0  0  0  0  0
  153.3567  145.3587  158.0305 H   0  0  0  0  0  0  0  0  0  0  0  0
  152.2973  146.2508  160.1827 H   0  0  0  0  0  0  0  0  0  0  0  0
  151.1528  145.2608  161.0826 H   0  0  0  0  0  0  0  0  0  0  0  0
  150.6760  146.0459  159.5872 H   0  0  0  0  0  0  0  0  0  0  0  0
  149.8422  144.0900  158.5958 H   0  0  0  0  0  0  0  0  0  0  0  0
  150.2252  143.0414  159.9523 H   0  0  0  0  0  0  0  0  0  0  0  0
  150.7752  142.6440  158.3237 H   0  0  0  0  0  0  0  0  0  0  0  0
  152.6069  141.3536  159.4220 H   0  0  0  0  0  0  0  0  0  0  0  0
  153.5220  142.3060  158.3062 H   0  0  0  0  0  0  0  0  0  0  0  0
  155.3923  142.3540  160.1453 H   0  0  0  0  0  0  0  0  0  0  0  0
  155.2435  141.0607  159.0160 H   0  0  0  0  0  0  0  0  0  0  0  0
  1  2  1  0  0  0  0
  1 24  1  0  0  0  0
  1 25  1  0  0  0  0
  1 26  1  0  0  0  0
  2 23  2  0  0  0  0
  2  3  1  0  0  0  0
  3  4  2  0  0  0  0
  3 27  1  0  0  0  0
  4  5  1  0  0  0  0
  4 28  1  0  0  0  0
  5  6  2  0  0  0  0
  5  7  1  0  0  0  0
  7  8  1  0  0  0  0
  7 23  1  0  0  0  0
  8  9  1  0  0  0  0
  8 29  1  0  0  0  0
  8 30  1  0  0  0  0
  9 10  2  0  0  0  0
  9 11  1  0  0  0  0
 11 12  1  0  0  0  0
 11 31  1  0  0  0  0
 12 22  1  0  0  0  0
 12 13  1  0  0  0  0
 12 32  1  0  0  0  0
 13 14  1  0  0  0  0
 13 33  1  0  0  0  0
 13 34  1  0  0  0  0
 14 15  1  0  0  0  0
 14 35  1  0  0  0  0
 14 36  1  0  0  0  0
 15 16  1  0  0  0  0
 15 37  1  0  0  0  0
 15 38  1  0  0  0  0
 16 17  1  0  0  0  0
 16 21  1  0  0  0  0
 16 39  1  0  0  0  0
 17 18  1  0  0  0  0
 17 19  1  0  0  0  0
 17 20  1  0  0  0  0
 18 40  1  0  0  0  0
 18 41  1  0  0  0  0
 18 42  1  0  0  0  0
 19 43  1  0  0  0  0
 19 44  1  0  0  0  0
 19 45  1  0  0  0  0
 20 46  1  0  0  0  0
 20 47  1  0  0  0  0
 20 48  1  0  0  0  0
 21 22  1  0  0  0  0
 21 49  1  0  0  0  0
 21 50  1  0  0  0  0
 22 51  1  0  0  0  0
 22 52  1  0  0  0  0
M  END
> <s_m_source_file>
AV-unprocessed.smi

> <i_m_source_file_index>
2712

> <i_lp_mmshare_version>
43012

> <i_f3d_flags>
0

> <s_epik_input>
W0NIM11jMVtjSF1bY0hdYyg9TyluKG4xKVtDSDJdQyg9TylbTkhdW0NAQEhdMltDSDJdW0NIMl1bQ0gyXVtDQEBIXShDKFtDSDNdKShbQ0gzXSlbQ0gzXSlbQ0gyXVtDSDJdMg==

> <s_epik_cmdline>
J2VwaWtfcHl0aG9uJywgJy1waCcsICc3LjAnLCAnLXRuJywgJzgnLCAnLW1hJywgJzIwMCcsICctbWV0YWxfYmluZGluZycsICctaW1hZScsICc8aW5maWxlLm1hZT4nLCAnLW9tYWUnLCAnPG91dGZpbGUubWFlPic=

> <r_lp_tautomer_probability>
1

> <r_epik_Ionization_Penalty>
8.71758e-07

> <r_epik_Ionization_Penalty_Charging>
8.50442e-07

> <r_epik_Ionization_Penalty_Neutral>
2.13165e-08

> <r_epik_State_Penalty>
-0

> <r_epik_Charging_Adjusted_Penalty>
8.50442e-07

> <i_epik_Tot_Q>
0

> <i_epik_Tot_abs_Q>
0

> <r_epik_Metal_State_Penalty>
-0

> <b_epik_Metal_Only>
0

> <s_lp_Force_Field>
OPLS_2005

> <r_lp_Energy>
39.6201

> <b_lp_Chiralities_Consistent>
1

> <s_lp_Variant>
AV-unprocessed.smi:2712-3

> <Gold.Version>
5.8.1

> <Gold.Id.Protein>
6NUR|6NUR_protein|mol2

> <Gold.PLP.Fitness>
47.6451

> <Gold.PLP.PLP>
-42.8956

> <Gold.PLP.part.hbond>
-2.0000

> <Gold.PLP.part.metal>
0.0000

> <Gold.PLP.part.buried>
-6.1764

> <Gold.PLP.part.nonpolar>
-34.3578

> <Gold.PLP.part.repulsive>
0.0487

> <Gold.PLP.ligand.clash>
0.0000

> <Gold.PLP.ligand.torsion>
0.6800

> <Gold.PLP.Chemscore.Hbond>
2.0000

> <Gold.PLP.Chemscore.CHOScore>
0.0000

> <Gold.PLP.Chemscore.Metal>
0.0000

> <Gold.Chemscore.Hbonds>
donor molecule, donor type, donor heavy atom, donor atom, acceptor molecule, acceptor atom, score
      P1  H  7997  8010       L1    10  1.00
      P1  H 10752 10765       L1     6  1.00

> <Gold.PLP.Chemscore.Internal.Correction>
0.1095

> <Gold.Rescore>
     Score         DG    S(hbond)    S(metal)    S(lipo)     H(rot)  DE(clash)    DE(int)     intcor
     20.63     -24.04       1.97        0.00     135.51       1.52       0.73       2.68       ----

> <Gold.Chemscore.Fitness>
20.6297

> <Gold.Chemscore.DG>
-24.0432

> <Gold.Chemscore.ZeroCoef>
-5.4800

> <Gold.Chemscore.Hbond>
1.9731

> <Gold.Chemscore.Metal>
0.0000

> <Gold.Chemscore.Lipo>
135.5069

> <Gold.Chemscore.Internal_Hbond>
0.0000

> <Gold.Chemscore.DEClash>
0.7300

> <Gold.Chemscore.DEInternal>
2.6834

> <Gold.Chemscore.Rot>
1.5162

> <Gold.Chemscore.Internal.Correction>
   9.000000E+99

> <Gold.Chemscore.Hbonds>
donor molecule, donor type, donor heavy atom, donor atom, acceptor molecule, acceptor atom, score
      P1  H  7997  8010       L1    10  0.96
      P1  H 10752 10765       L1     6  0.29

> <Gold.Chemscore.Hbond.Weighted>
-6.5903

> <Gold.Chemscore.Metal.Weighted>
-0.0000

> <Gold.Chemscore.Lipo.Weighted>
-15.8543

> <Gold.Chemscore.Internal_Hbond.Weighted>
0.0000

> <Gold.Chemscore.DEClash.Weighted>
0.7300

> <Gold.Chemscore.DEInternal.Weighted>
2.6834

> <Gold.Chemscore.Rot.Weighted>
3.8814

> <Gold.Chemscore.Internal.Correction.Weighted>
   9.000000E+99

> <Gold.Protein.RotatedTorsions>
[ 6907 6896 6895 6894 ] final  146.97 input  -60.11 | X-H torsion
[ 7974 7965 7964 7962 ] final   -2.14 input  175.53 | X-H torsion
[ 8008 7997 7996 7995 ] final  -38.25 input   59.86 | X-H torsion
[ 10167 10162 10161 10158 ] final  121.05 input  -65.29 | X-H torsion
[ 10718 10713 10712 10709 ] final  128.90 input   66.30 | X-H torsion
[ 10763 10752 10751 10750 ] final  -85.95 input  -60.55 | X-H torsion
[ 11005 11000 10999 10996 ] final -143.05 input  -57.11 | X-H torsion

> <Gold.Protein.ActiveResidues>
 VAL166  LYS551  ARG553  GLY616  TRP617  ASP618  TYR619  PRO620  LYS621  CYS622 
 ASP623  PHE694  ASN695  SER759  ASP760  ASP761  ALA762  ILE779  LEU786  VAL792 
 PHE793  MET794  SER795  GLU796  ALA797  LYS798  CYS799  TRP800  GLU811  SER814 

> <Gold.Protein.RotatedAtoms>
  152.1610  133.4581  159.4860 H   0  0  0  0  0  0  0  0  0  0  0  0  # atno 6907 bound_to 6896
  150.6907  134.2072  159.4354 H   0  0  0  0  0  0  0  0  0  0  0  0  # atno 6908 bound_to 6896
  151.9974  134.9946  160.0614 H   0  0  0  0  0  0  0  0  0  0  0  0  # atno 6909 bound_to 6896
  146.2408  140.1525  142.8333 H   0  0  0  0  0  0  0  0  0  0  0  0  # atno 7974 bound_to 7965
  154.4040  140.1583  156.2669 H   0  0  0  0  0  0  0  0  0  0  0  0  # atno 8008 bound_to 7997
  155.8987  140.3434  155.5988 H   0  0  0  0  0  0  0  0  0  0  0  0  # atno 8009 bound_to 7997
  155.7473  140.0800  157.2208 H   0  0  0  0  0  0  0  0  0  0  0  0  # atno 8010 bound_to 7997
  139.5944  144.7036  151.3212 H   0  0  0  0  0  0  0  0  0  0  0  0  # atno 10167 bound_to 10162
  157.5203  131.1098  150.9163 H   0  0  0  0  0  0  0  0  0  0  0  0  # atno 10718 bound_to 10713
  154.6170  135.5466  153.7534 H   0  0  0  0  0  0  0  0  0  0  0  0  # atno 10763 bound_to 10752
  153.0221  135.6403  154.1496 H   0  0  0  0  0  0  0  0  0  0  0  0  # atno 10764 bound_to 10752
  154.1432  135.2907  155.3135 H   0  0  0  0  0  0  0  0  0  0  0  0  # atno 10765 bound_to 10752
  140.8164  134.2684  157.4919 H   0  0  0  0  0  0  0  0  0  0  0  0  # atno 11005 bound_to 11000
  145.0156  140.8750  143.5198 LP  0  0  0  0  0  0  0  0  0  0  0  0  # atno 17320 bound_to 7965
  145.1566  139.2483  143.5413 LP  0  0  0  0  0  0  0  0  0  0  0  0  # atno 17321 bound_to 7965
  140.7199  143.7163  150.7730 LP  0  0  0  0  0  0  0  0  0  0  0  0  # atno 17342 bound_to 10162
  140.0726  143.5046  152.2572 LP  0  0  0  0  0  0  0  0  0  0  0  0  # atno 17343 bound_to 10162
  156.9776  130.5514  149.5294 LP  0  0  0  0  0  0  0  0  0  0  0  0  # atno 17370 bound_to 10713
  156.0349  130.5437  150.8628 LP  0  0  0  0  0  0  0  0  0  0  0  0  # atno 17371 bound_to 10713
  139.8711  134.9511  156.4075 LP  0  0  0  0  0  0  0  0  0  0  0  0  # atno 17394 bound_to 11000
  140.9145  133.7688  155.9831 LP  0  0  0  0  0  0  0  0  0  0  0  0  # atno 17395 bound_to 11000

$$$$
