AV-unprocessed.smi:878|AV-procd|sdf|4031|dock1
  -GOLD-   22720 1523D 1   1.00000     0.00000
 Structure written by MMmdl.
 33 34  0  0  0  0  0  0  0  0  1 V2000
  149.8391  144.8949  159.6550 C   0  0  0  0  0  0  0  0  0  0  0  0
  151.6294  145.1826  159.6676 S   0  0  0  0  0  0  0  0  0  0  0  0
  152.4107  143.7674  160.3885 C   0  0  0  0  0  0  0  0  0  0  0  0
  152.3176  143.4958  161.7697 C   0  0  0  0  0  0  0  0  0  0  0  0
  152.9523  142.3610  162.3121 C   0  0  0  0  0  0  0  0  0  0  0  0
  153.6873  141.4806  161.4792 C   0  0  0  0  0  0  0  0  0  0  0  0
  154.3315  140.3471  161.9246 O   0  0  0  0  0  0  0  0  0  0  0  0
  154.5360  139.2808  161.0079 C   0  0  0  0  0  0  0  0  0  0  0  0
  154.7295  137.9628  161.7759 C   0  0  0  0  0  0  0  0  0  0  0  0
  155.1488  138.1583  163.1431 N   0  0  0  0  0  0  0  0  0  0  0  0
  156.1748  139.0271  163.4810 C   0  0  0  0  0  0  0  0  0  0  0  0
  156.5991  139.2177  164.7536 C   0  0  0  0  0  0  0  0  0  0  0  0
  157.8858  140.3186  165.0939 Cl  0  0  0  0  0  0  0  0  0  0  0  0
  155.9687  138.4868  165.8522 C   0  0  0  0  0  0  0  0  0  0  0  0
  156.2709  138.5861  167.0399 O   0  0  0  0  0  0  0  0  0  0  0  0
  154.9457  137.6162  165.4648 N   0  0  0  0  0  0  0  0  0  0  0  0
  154.5045  137.4111  164.1571 C   0  0  0  0  0  0  0  0  0  0  0  0
  153.5970  136.6089  163.9376 O   0  0  0  0  0  0  0  0  0  0  0  0
  153.7742  141.7640  160.1013 C   0  0  0  0  0  0  0  0  0  0  0  0
  153.1441  142.8994  159.5577 C   0  0  0  0  0  0  0  0  0  0  0  0
  154.4877  137.0887  166.1938 H   0  0  0  0  0  0  0  0  0  0  0  0
  149.3332  145.7200  159.1538 H   0  0  0  0  0  0  0  0  0  0  0  0
  149.4526  144.8247  160.6716 H   0  0  0  0  0  0  0  0  0  0  0  0
  149.6042  143.9735  159.1219 H   0  0  0  0  0  0  0  0  0  0  0  0
  151.7659  144.1463  162.4300 H   0  0  0  0  0  0  0  0  0  0  0  0
  152.8570  142.1865  163.3729 H   0  0  0  0  0  0  0  0  0  0  0  0
  153.6900  139.1938  160.3239 H   0  0  0  0  0  0  0  0  0  0  0  0
  155.4293  139.4764  160.4131 H   0  0  0  0  0  0  0  0  0  0  0  0
  153.7841  137.4214  161.8369 H   0  0  0  0  0  0  0  0  0  0  0  0
  155.4301  137.2846  161.2845 H   0  0  0  0  0  0  0  0  0  0  0  0
  156.6645  139.5800  162.6918 H   0  0  0  0  0  0  0  0  0  0  0  0
  154.3319  141.1032  159.4539 H   0  0  0  0  0  0  0  0  0  0  0  0
  153.2233  143.1002  158.4993 H   0  0  0  0  0  0  0  0  0  0  0  0
  1  2  1  0  0  0  0
  1 22  1  0  0  0  0
  1 23  1  0  0  0  0
  1 24  1  0  0  0  0
  2  3  1  0  0  0  0
  3 20  1  0  0  0  0
  3  4  2  0  0  0  0
  4  5  1  0  0  0  0
  4 25  1  0  0  0  0
  5  6  2  0  0  0  0
  5 26  1  0  0  0  0
  6  7  1  0  0  0  0
  6 19  1  0  0  0  0
  7  8  1  0  0  0  0
  8  9  1  0  0  0  0
  8 27  1  0  0  0  0
  8 28  1  0  0  0  0
  9 10  1  0  0  0  0
  9 29  1  0  0  0  0
  9 30  1  0  0  0  0
 10 17  1  0  0  0  0
 10 11  1  0  0  0  0
 11 12  2  0  0  0  0
 11 31  1  0  0  0  0
 12 13  1  0  0  0  0
 12 14  1  0  0  0  0
 14 15  2  0  0  0  0
 14 16  1  0  0  0  0
 16 21  1  0  0  0  0
 16 17  1  0  0  0  0
 17 18  2  0  0  0  0
 19 20  2  0  0  0  0
 19 32  1  0  0  0  0
 20 33  1  0  0  0  0
M  END
> <s_m_source_file>
AV-unprocessed.smi

> <i_m_source_file_index>
878

> <i_lp_mmshare_version>
43012

> <i_f3d_flags>
0

> <s_epik_input>
W0NIM11TYzFbY0hdW2NIXWMoW2NIXVtjSF0xKU9bQ0gyXVtDSDJdbjJbY0hdYyhDbCljKD1PKVtuSF1jMj1P

> <s_epik_cmdline>
J2VwaWtfcHl0aG9uJywgJy1waCcsICc3LjAnLCAnLXRuJywgJzgnLCAnLW1hJywgJzIwMCcsICctbWV0YWxfYmluZGluZycsICctaW1hZScsICc8aW5maWxlLm1hZT4nLCAnLW9tYWUnLCAnPG91dGZpbGUubWFlPic=

> <r_lp_tautomer_probability>
0.999537

> <r_epik_Ionization_Penalty>
0.037527

> <r_epik_Ionization_Penalty_Charging>
0.037527

> <r_epik_Ionization_Penalty_Neutral>
0

> <r_epik_State_Penalty>
0.0314158

> <r_epik_Charging_Adjusted_Penalty>
0.0689428

> <i_epik_Tot_Q>
0

> <i_epik_Tot_abs_Q>
0

> <r_epik_Metal_State_Penalty>
2.37917

> <b_epik_Metal_Only>
0

> <s_lp_Force_Field>
OPLS_2005

> <r_lp_Energy>
14.7844

> <b_lp_Chiralities_Consistent>
1

> <s_lp_Variant>
AV-unprocessed.smi:878-1

> <Gold.Version>
5.8.1

> <Gold.Id.Protein>
6NUR|6NUR_protein|mol2

> <Gold.PLP.Fitness>
44.2750

> <Gold.PLP.PLP>
-46.2349

> <Gold.PLP.part.hbond>
-1.8152

> <Gold.PLP.part.metal>
0.0000

> <Gold.PLP.part.buried>
-7.5051

> <Gold.PLP.part.nonpolar>
-36.2651

> <Gold.PLP.part.repulsive>
0.3044

> <Gold.PLP.ligand.clash>
0.0000

> <Gold.PLP.ligand.torsion>
1.0284

> <Gold.PLP.Chemscore.Hbond>
0.0000

> <Gold.PLP.Chemscore.CHOScore>
0.0000

> <Gold.PLP.Chemscore.Metal>
0.0000

> <Gold.PLP.Chemscore.Internal.Correction>
0.0968

> <Gold.Rescore>
     Score         DG    S(hbond)    S(metal)    S(lipo)     H(rot)  DE(clash)    DE(int)     intcor
     11.55     -13.71       0.00        0.00     113.60       1.98       0.02       2.14       ----

> <Gold.Chemscore.Fitness>
11.5537

> <Gold.Chemscore.DG>
-13.7132

> <Gold.Chemscore.ZeroCoef>
-5.4800

> <Gold.Chemscore.Hbond>
0.0000

> <Gold.Chemscore.Metal>
0.0000

> <Gold.Chemscore.Lipo>
113.5951

> <Gold.Chemscore.Internal_Hbond>
0.0000

> <Gold.Chemscore.DEClash>
0.0185

> <Gold.Chemscore.DEInternal>
2.1410

> <Gold.Chemscore.Rot>
1.9755

> <Gold.Chemscore.Internal.Correction>
   9.000000E+99

> <Gold.Chemscore.Hbond.Weighted>
-0.0000

> <Gold.Chemscore.Metal.Weighted>
-0.0000

> <Gold.Chemscore.Lipo.Weighted>
-13.2906

> <Gold.Chemscore.Internal_Hbond.Weighted>
0.0000

> <Gold.Chemscore.DEClash.Weighted>
0.0185

> <Gold.Chemscore.DEInternal.Weighted>
2.1410

> <Gold.Chemscore.Rot.Weighted>
5.0574

> <Gold.Chemscore.Internal.Correction.Weighted>
   9.000000E+99

> <Gold.Protein.RotatedTorsions>
[ 6907 6896 6895 6894 ] final   10.94 input  -60.11 | X-H torsion
[ 7974 7965 7964 7962 ] final -117.79 input  175.53 | X-H torsion
[ 8008 7997 7996 7995 ] final  -61.71 input   59.86 | X-H torsion
[ 10167 10162 10161 10158 ] final   60.96 input  -65.29 | X-H torsion
[ 10718 10713 10712 10709 ] final  129.29 input   66.30 | X-H torsion
[ 10763 10752 10751 10750 ] final  137.45 input  -60.55 | X-H torsion
[ 11005 11000 10999 10996 ] final   25.44 input  -57.11 | X-H torsion

> <Gold.Protein.ActiveResidues>
 VAL166  LYS551  ARG553  GLY616  TRP617  ASP618  TYR619  PRO620  LYS621  CYS622 
 ASP623  PHE694  ASN695  SER759  ASP760  ASP761  ALA762  ILE779  LEU786  VAL792 
 PHE793  MET794  SER795  GLU796  ALA797  LYS798  CYS799  TRP800  GLU811  SER814 

> <Gold.Protein.RotatedAtoms>
  151.7463  135.0843  160.0323 H   0  0  0  0  0  0  0  0  0  0  0  0  # atno 6907 bound_to 6896
  152.3446  133.6103  159.5909 H   0  0  0  0  0  0  0  0  0  0  0  0  # atno 6908 bound_to 6896
  150.7501  133.9585  159.3550 H   0  0  0  0  0  0  0  0  0  0  0  0  # atno 6909 bound_to 6896
  145.0812  140.8427  143.4038 H   0  0  0  0  0  0  0  0  0  0  0  0  # atno 7974 bound_to 7965
  154.4461  140.1012  156.6473 H   0  0  0  0  0  0  0  0  0  0  0  0  # atno 8008 bound_to 7997
  155.5436  140.3484  155.4434 H   0  0  0  0  0  0  0  0  0  0  0  0  # atno 8009 bound_to 7997
  156.0579  140.1319  156.9964 H   0  0  0  0  0  0  0  0  0  0  0  0  # atno 8010 bound_to 7997
  140.1599  144.4380  150.6715 H   0  0  0  0  0  0  0  0  0  0  0  0  # atno 10167 bound_to 10162
  157.5168  131.1097  150.9213 H   0  0  0  0  0  0  0  0  0  0  0  0  # atno 10718 bound_to 10713
  153.8732  135.3053  155.3443 H   0  0  0  0  0  0  0  0  0  0  0  0  # atno 10763 bound_to 10752
  154.7796  135.4843  153.9819 H   0  0  0  0  0  0  0  0  0  0  0  0  # atno 10764 bound_to 10752
  153.1394  135.6821  153.9147 H   0  0  0  0  0  0  0  0  0  0  0  0  # atno 10765 bound_to 10752
  140.3478  134.2262  155.7683 H   0  0  0  0  0  0  0  0  0  0  0  0  # atno 11005 bound_to 11000
  145.1176  139.2715  143.5605 LP  0  0  0  0  0  0  0  0  0  0  0  0  # atno 17320 bound_to 7965
  146.3531  140.0790  142.8619 LP  0  0  0  0  0  0  0  0  0  0  0  0  # atno 17321 bound_to 7965
  140.6649  143.2264  151.5766 LP  0  0  0  0  0  0  0  0  0  0  0  0  # atno 17342 bound_to 10162
  139.5386  144.2711  152.1304 LP  0  0  0  0  0  0  0  0  0  0  0  0  # atno 17343 bound_to 10162
  156.9836  130.5536  149.5298 LP  0  0  0  0  0  0  0  0  0  0  0  0  # atno 17370 bound_to 10713
  156.0326  130.5416  150.8572 LP  0  0  0  0  0  0  0  0  0  0  0  0  # atno 17371 bound_to 10713
  141.2021  133.7947  157.0409 LP  0  0  0  0  0  0  0  0  0  0  0  0  # atno 17394 bound_to 11000
  140.0728  134.9692  157.1496 LP  0  0  0  0  0  0  0  0  0  0  0  0  # atno 17395 bound_to 11000

$$$$
