AV-unprocessed.smi:191|AV-procd|sdf|1494|dock8
  -GOLD-   2262019313D 1   1.00000     0.00000
 Structure written by MMmdl.
 46 48  0  0  0  0  0  0  0  0  1 V2000
  151.1064  145.3801  159.7249 C   0  0  0  0  0  0  0  0  0  0  0  0
  151.5511  144.3647  160.7888 C   0  0  0  0  0  0  0  0  0  0  0  0
  152.3668  143.2798  160.2349 N   0  0  0  0  0  0  0  0  0  0  0  0
  152.4529  143.1570  158.7789 C   0  0  0  0  0  0  0  0  0  0  0  0
  151.2870  142.3493  158.1763 C   0  0  1  0  0  0  0  0  0  0  0  0
  150.9546  142.8289  156.7585 C   0  0  0  0  0  0  0  0  0  0  0  0
  151.5279  140.8967  158.1922 C   0  0  0  0  0  0  0  0  0  0  0  0
  151.7198  139.7555  158.2026 N   0  0  0  0  0  0  0  0  0  0  0  0
  153.2055  142.5707  161.0485 C   0  0  0  0  0  0  0  0  0  0  0  0
  153.2199  142.8693  162.3764 N   0  0  0  0  0  0  0  0  0  0  0  0
  154.0147  142.2127  163.2239 C   0  0  0  0  0  0  0  0  0  0  0  0
  154.8686  141.2236  162.9660 N   0  0  0  0  0  0  0  0  0  0  0  0
  154.8630  140.9027  161.6417 C   0  0  0  0  0  0  0  0  0  0  0  0
  154.0741  141.5159  160.6231 C   0  0  0  0  0  0  0  0  0  0  0  0
  154.3443  140.8968  159.4062 N   0  0  0  0  0  0  0  0  0  0  0  0
  155.2347  139.9866  159.6857 C   0  0  0  0  0  0  0  0  0  0  0  0
  155.6115  139.9264  161.0062 N   0  0  0  0  0  0  0  0  0  0  0  0
  156.5740  139.0085  161.5972 C   0  0  0  0  0  0  0  0  0  0  0  0
  155.9767  138.0846  162.6750 C   0  0  0  0  0  0  0  0  0  0  0  0
  154.7120  137.4147  162.1010 C   0  0  0  0  0  0  0  0  0  0  0  0
  154.9727  136.6963  160.9114 O   0  0  0  0  0  0  0  0  0  0  0  0
  156.9880  137.1554  163.3622 C   0  0  0  0  0  0  0  0  0  0  0  0
  156.5926  137.6007  164.6786 O   0  0  0  0  0  0  0  0  0  0  0  0
  155.8407  138.6815  164.0834 C   0  0  0  0  0  0  0  0  0  0  0  0
  150.5026  146.1678  160.1757 H   0  0  0  0  0  0  0  0  0  0  0  0
  150.5040  144.9097  158.9480 H   0  0  0  0  0  0  0  0  0  0  0  0
  151.9608  145.8553  159.2432 H   0  0  0  0  0  0  0  0  0  0  0  0
  152.0830  144.8705  161.5954 H   0  0  0  0  0  0  0  0  0  0  0  0
  150.6660  143.9352  161.2567 H   0  0  0  0  0  0  0  0  0  0  0  0
  152.4278  144.1623  158.3590 H   0  0  0  0  0  0  0  0  0  0  0  0
  153.4107  142.7552  158.4565 H   0  0  0  0  0  0  0  0  0  0  0  0
  150.4009  142.5027  158.7919 H   0  0  0  0  0  0  0  0  0  0  0  0
  150.1010  142.2848  156.3532 H   0  0  0  0  0  0  0  0  0  0  0  0
  151.7972  142.6773  156.0830 H   0  0  0  0  0  0  0  0  0  0  0  0
  150.7046  143.8901  156.7503 H   0  0  0  0  0  0  0  0  0  0  0  0
  153.9569  142.5247  164.2564 H   0  0  0  0  0  0  0  0  0  0  0  0
  155.6386  139.3290  158.9299 H   0  0  0  0  0  0  0  0  0  0  0  0
  157.0275  138.4207  160.7984 H   0  0  0  0  0  0  0  0  0  0  0  0
  157.3838  139.6083  162.0147 H   0  0  0  0  0  0  0  0  0  0  0  0
  154.2823  136.7106  162.8134 H   0  0  0  0  0  0  0  0  0  0  0  0
  153.9428  138.1570  161.8858 H   0  0  0  0  0  0  0  0  0  0  0  0
  155.6991  136.1119  161.0659 H   0  0  0  0  0  0  0  0  0  0  0  0
  156.8056  136.0916  163.2054 H   0  0  0  0  0  0  0  0  0  0  0  0
  158.0300  137.4004  163.1511 H   0  0  0  0  0  0  0  0  0  0  0  0
  156.3471  139.6382  164.2147 H   0  0  0  0  0  0  0  0  0  0  0  0
  154.8150  138.7320  164.4503 H   0  0  0  0  0  0  0  0  0  0  0  0
  1  2  1  0  0  0  0
  1 25  1  0  0  0  0
  1 26  1  0  0  0  0
  1 27  1  0  0  0  0
  2  3  1  0  0  0  0
  2 28  1  0  0  0  0
  2 29  1  0  0  0  0
  3  4  1  0  0  0  0
  3  9  1  0  0  0  0
  4  5  1  0  0  0  0
  4 30  1  0  0  0  0
  4 31  1  0  0  0  0
  5  6  1  0  0  0  0
  5  7  1  0  0  0  0
  5 32  1  0  0  0  0
  6 33  1  0  0  0  0
  6 34  1  0  0  0  0
  6 35  1  0  0  0  0
  7  8  3  0  0  0  0
  9 14  1  0  0  0  0
  9 10  2  0  0  0  0
 10 11  1  0  0  0  0
 11 12  2  0  0  0  0
 11 36  1  0  0  0  0
 12 13  1  0  0  0  0
 13 17  1  0  0  0  0
 13 14  2  0  0  0  0
 14 15  1  0  0  0  0
 15 16  2  0  0  0  0
 16 17  1  0  0  0  0
 16 37  1  0  0  0  0
 17 18  1  0  0  0  0
 18 19  1  0  0  0  0
 18 38  1  0  0  0  0
 18 39  1  0  0  0  0
 19 24  1  0  0  0  0
 19 20  1  0  0  0  0
 19 22  1  0  0  0  0
 20 21  1  0  0  0  0
 20 40  1  0  0  0  0
 20 41  1  0  0  0  0
 21 42  1  0  0  0  0
 22 23  1  0  0  0  0
 22 43  1  0  0  0  0
 22 44  1  0  0  0  0
 23 24  1  0  0  0  0
 24 45  1  0  0  0  0
 24 46  1  0  0  0  0
M  END
> <s_m_source_file>
AV-unprocessed.smi

> <i_m_source_file_index>
191

> <i_lp_mmshare_version>
43012

> <i_f3d_flags>
0

> <s_epik_input>
TiNDW0NAQEhdKFtDSDNdKVtDSDJdTihbQ0gyXVtDSDNdKWMobltjSF1uMSljKGMxMiluW2NIXW4yW0NIMl1DMyhbQ0gyXVtPSF0pW0NIMl1PW0NIMl0z

> <s_epik_cmdline>
J2VwaWtfcHl0aG9uJywgJy1waCcsICc3LjAnLCAnLXRuJywgJzgnLCAnLW1hJywgJzIwMCcsICctbWV0YWxfYmluZGluZycsICctaW1hZScsICc8aW5maWxlLm1hZT4nLCAnLW9tYWUnLCAnPG91dGZpbGUubWFlPic=

> <r_lp_tautomer_probability>
1

> <r_epik_Ionization_Penalty>
0.000569684

> <r_epik_Ionization_Penalty_Charging>
0

> <r_epik_Ionization_Penalty_Neutral>
0.000569684

> <r_epik_State_Penalty>
0.000286009

> <r_epik_Charging_Adjusted_Penalty>
0.000286009

> <i_epik_Tot_Q>
0

> <i_epik_Tot_abs_Q>
0

> <r_epik_Metal_State_Penalty>
-0

> <b_epik_Metal_Only>
0

> <s_lp_Force_Field>
OPLS_2005

> <r_lp_Energy>
30.7711

> <b_lp_Chiralities_Consistent>
1

> <s_lp_Variant>
AV-unprocessed.smi:191-2

> <Gold.Version>
5.8.1

> <Gold.Id.Protein>
6NUR|6NUR_protein|mol2

> <Gold.PLP.Fitness>
44.9180

> <Gold.PLP.PLP>
-46.2860

> <Gold.PLP.part.hbond>
-1.0000

> <Gold.PLP.part.metal>
0.0000

> <Gold.PLP.part.buried>
-3.6433

> <Gold.PLP.part.nonpolar>
-41.3713

> <Gold.PLP.part.repulsive>
0.1823

> <Gold.PLP.ligand.clash>
0.0000

> <Gold.PLP.ligand.torsion>
1.0392

> <Gold.PLP.Chemscore.Hbond>
0.0000

> <Gold.PLP.Chemscore.CHOScore>
0.0000

> <Gold.PLP.Chemscore.Metal>
0.0000

> <Gold.PLP.Chemscore.Internal.Correction>
0.7105

> <Gold.Rescore>
     Score         DG    S(hbond)    S(metal)    S(lipo)     H(rot)  DE(clash)    DE(int)     intcor
      5.63      -9.05       0.00        0.00      98.53       3.11       1.45       1.97       ----

> <Gold.Chemscore.Fitness>
5.6307

> <Gold.Chemscore.DG>
-9.0547

> <Gold.Chemscore.ZeroCoef>
-5.4800

> <Gold.Chemscore.Hbond>
0.0000

> <Gold.Chemscore.Metal>
0.0000

> <Gold.Chemscore.Lipo>
98.5289

> <Gold.Chemscore.Internal_Hbond>
0.0000

> <Gold.Chemscore.DEClash>
1.4490

> <Gold.Chemscore.DEInternal>
1.9749

> <Gold.Chemscore.Rot>
3.1067

> <Gold.Chemscore.Internal.Correction>
   9.000000E+99

> <Gold.Chemscore.Hbond.Weighted>
-0.0000

> <Gold.Chemscore.Metal.Weighted>
-0.0000

> <Gold.Chemscore.Lipo.Weighted>
-11.5279

> <Gold.Chemscore.Internal_Hbond.Weighted>
0.0000

> <Gold.Chemscore.DEClash.Weighted>
1.4490

> <Gold.Chemscore.DEInternal.Weighted>
1.9749

> <Gold.Chemscore.Rot.Weighted>
7.9532

> <Gold.Chemscore.Internal.Correction.Weighted>
   9.000000E+99

> <Gold.Protein.RotatedTorsions>
[ 6907 6896 6895 6894 ] final -172.92 input  -60.11 | X-H torsion
[ 7974 7965 7964 7962 ] final -124.83 input  175.53 | X-H torsion
[ 8008 7997 7996 7995 ] final -154.60 input   59.86 | X-H torsion
[ 10167 10162 10161 10158 ] final   83.80 input  -65.29 | X-H torsion
[ 10718 10713 10712 10709 ] final   79.87 input   66.30 | X-H torsion
[ 10763 10752 10751 10750 ] final  166.21 input  -60.55 | X-H torsion
[ 11005 11000 10999 10996 ] final  137.66 input  -57.11 | X-H torsion

> <Gold.Protein.ActiveResidues>
 VAL166  LYS551  ARG553  GLY616  TRP617  ASP618  TYR619  PRO620  LYS621  CYS622 
 ASP623  PHE694  ASN695  SER759  ASP760  ASP761  ALA762  ILE779  LEU786  VAL792 
 PHE793  MET794  SER795  GLU796  ALA797  LYS798  CYS799  TRP800  GLU811  SER814 

> <Gold.Protein.RotatedAtoms>
  151.5478  133.3422  159.2947 H   0  0  0  0  0  0  0  0  0  0  0  0  # atno 6907 bound_to 6896
  150.8497  134.7820  159.7010 H   0  0  0  0  0  0  0  0  0  0  0  0  # atno 6908 bound_to 6896
  152.4546  134.5327  159.9867 H   0  0  0  0  0  0  0  0  0  0  0  0  # atno 6909 bound_to 6896
  145.0040  140.7846  143.4479 H   0  0  0  0  0  0  0  0  0  0  0  0  # atno 7974 bound_to 7965
  155.6889  140.0753  157.2456 H   0  0  0  0  0  0  0  0  0  0  0  0  # atno 8008 bound_to 7997
  154.4092  140.1668  156.2117 H   0  0  0  0  0  0  0  0  0  0  0  0  # atno 8009 bound_to 7997
  155.9469  140.3380  155.6377 H   0  0  0  0  0  0  0  0  0  0  0  0  # atno 8010 bound_to 7997
  139.9147  144.6250  150.8501 H   0  0  0  0  0  0  0  0  0  0  0  0  # atno 10167 bound_to 10162
  157.6790  130.9934  150.1996 H   0  0  0  0  0  0  0  0  0  0  0  0  # atno 10718 bound_to 10713
  154.3355  135.2754  155.2450 H   0  0  0  0  0  0  0  0  0  0  0  0  # atno 10763 bound_to 10752
  154.4743  135.5875  153.6347 H   0  0  0  0  0  0  0  0  0  0  0  0  # atno 10764 bound_to 10752
  152.9862  135.6096  154.3552 H   0  0  0  0  0  0  0  0  0  0  0  0  # atno 10765 bound_to 10752
  140.0129  134.9431  157.0316 H   0  0  0  0  0  0  0  0  0  0  0  0  # atno 11005 bound_to 11000
  145.2114  139.2203  143.5141 LP  0  0  0  0  0  0  0  0  0  0  0  0  # atno 17320 bound_to 7965
  146.3457  140.1953  142.8589 LP  0  0  0  0  0  0  0  0  0  0  0  0  # atno 17321 bound_to 7965
  140.7677  143.3340  151.2348 LP  0  0  0  0  0  0  0  0  0  0  0  0  # atno 17342 bound_to 10162
  139.6913  143.9688  152.2860 LP  0  0  0  0  0  0  0  0  0  0  0  0  # atno 17343 bound_to 10162
  156.2690  130.3719  149.8051 LP  0  0  0  0  0  0  0  0  0  0  0  0  # atno 17370 bound_to 10713
  156.5774  130.8451  151.3373 LP  0  0  0  0  0  0  0  0  0  0  0  0  # atno 17371 bound_to 10713
  140.4522  134.1571  155.7182 LP  0  0  0  0  0  0  0  0  0  0  0  0  # atno 17394 bound_to 11000
  141.1723  133.8583  157.1531 LP  0  0  0  0  0  0  0  0  0  0  0  0  # atno 17395 bound_to 11000

$$$$
