AV-unprocessed.smi:1746|AV-procd|sdf|7034|dock8
  -GOLD-   22720 8253D 1   1.00000     0.00000
 Structure written by MMmdl.
 35 36  0  0  0  0  0  0  0  0  1 V2000
  153.4732  141.3721  161.2477 C   0  0  0  0  0  0  0  0  0  0  0  0
  153.1093  142.8580  161.3543 C   0  0  0  0  0  0  0  0  0  0  0  0
  152.3189  143.3000  160.2222 N   0  0  0  0  0  0  0  0  0  0  0  0
  151.8844  142.5560  159.1433 C   0  0  0  0  0  0  0  0  0  0  0  0
  151.1784  143.4224  158.3574 C   0  0  0  0  0  0  0  0  0  0  0  0
  150.5139  143.1837  157.1278 N   0  0  0  0  0  0  0  0  0  0  0  0
  150.4428  142.0250  156.4525 C   0  0  0  0  0  0  0  0  0  0  0  0
  150.9538  140.9638  156.8114 O   0  0  0  0  0  0  0  0  0  0  0  0
  149.7382  142.1618  155.3208 N   0  0  0  0  0  0  0  0  0  0  0  0
  149.4874  141.0939  154.3595 C   0  0  0  0  0  0  0  0  0  0  0  0
  147.9845  140.8008  154.2167 C   0  0  1  0  0  0  0  0  0  0  0  0
  147.6796  139.4934  153.4903 C   0  0  0  0  0  0  0  0  0  0  0  0
  146.2859  139.1904  153.9910 C   0  0  0  0  0  0  0  0  0  0  0  0
  146.3667  139.6422  155.4473 C   0  0  0  0  0  0  0  0  0  0  0  0
  147.3768  140.6479  155.4967 O   0  0  0  0  0  0  0  0  0  0  0  0
  151.2276  144.6755  159.0217 C   0  0  0  0  0  0  0  0  0  0  0  0
  151.9188  144.5936  160.1485 N   0  0  0  0  0  0  0  0  0  0  0  0
  154.0798  141.0594  162.0975 H   0  0  0  0  0  0  0  0  0  0  0  0
  154.0428  141.1709  160.3399 H   0  0  0  0  0  0  0  0  0  0  0  0
  152.5801  140.7466  161.2290 H   0  0  0  0  0  0  0  0  0  0  0  0
  152.5492  143.0488  162.2708 H   0  0  0  0  0  0  0  0  0  0  0  0
  154.0151  143.4632  161.4046 H   0  0  0  0  0  0  0  0  0  0  0  0
  152.1132  141.5054  159.0421 H   0  0  0  0  0  0  0  0  0  0  0  0
  150.0455  143.9789  156.7188 H   0  0  0  0  0  0  0  0  0  0  0  0
  149.3573  143.0703  155.1010 H   0  0  0  0  0  0  0  0  0  0  0  0
  149.9136  141.3629  153.3916 H   0  0  0  0  0  0  0  0  0  0  0  0
  150.0145  140.1992  154.6916 H   0  0  0  0  0  0  0  0  0  0  0  0
  147.4795  141.6172  153.6973 H   0  0  0  0  0  0  0  0  0  0  0  0
  147.7334  139.5876  152.4052 H   0  0  0  0  0  0  0  0  0  0  0  0
  148.3683  138.7071  153.8024 H   0  0  0  0  0  0  0  0  0  0  0  0
  145.5564  139.7947  153.4498 H   0  0  0  0  0  0  0  0  0  0  0  0
  146.0078  138.1417  153.8837 H   0  0  0  0  0  0  0  0  0  0  0  0
  145.4121  140.0203  155.8143 H   0  0  0  0  0  0  0  0  0  0  0  0
  146.6720  138.8149  156.0886 H   0  0  0  0  0  0  0  0  0  0  0  0
  150.7944  145.6213  158.7314 H   0  0  0  0  0  0  0  0  0  0  0  0
  1  2  1  0  0  0  0
  1 18  1  0  0  0  0
  1 19  1  0  0  0  0
  1 20  1  0  0  0  0
  2  3  1  0  0  0  0
  2 21  1  0  0  0  0
  2 22  1  0  0  0  0
  3 17  1  0  0  0  0
  3  4  1  0  0  0  0
  4  5  2  0  0  0  0
  4 23  1  0  0  0  0
  5  6  1  0  0  0  0
  5 16  1  0  0  0  0
  6  7  1  0  0  0  0
  6 24  1  0  0  0  0
  7  8  2  0  0  0  0
  7  9  1  0  0  0  0
  9 10  1  0  0  0  0
  9 25  1  0  0  0  0
 10 11  1  0  0  0  0
 10 26  1  0  0  0  0
 10 27  1  0  0  0  0
 11 15  1  0  0  0  0
 11 12  1  0  0  0  0
 11 28  1  0  0  0  0
 12 13  1  0  0  0  0
 12 29  1  0  0  0  0
 12 30  1  0  0  0  0
 13 14  1  0  0  0  0
 13 31  1  0  0  0  0
 13 32  1  0  0  0  0
 14 15  1  0  0  0  0
 14 33  1  0  0  0  0
 14 34  1  0  0  0  0
 16 17  2  0  0  0  0
 16 35  1  0  0  0  0
M  END
> <s_m_source_file>
AV-unprocessed.smi

> <i_m_source_file_index>
1746

> <i_lp_mmshare_version>
43012

> <i_f3d_flags>
0

> <s_epik_input>
W0NIM11bQ0gyXW4xW2NIXWMoW2NIXW4xKVtOSF1DKD1PKVtOSF1bQ0gyXVtDQEBIXTJbQ0gyXVtDSDJdW0NIMl1PMg==

> <s_epik_cmdline>
J2VwaWtfcHl0aG9uJywgJy1waCcsICc3LjAnLCAnLXRuJywgJzgnLCAnLW1hJywgJzIwMCcsICctbWV0YWxfYmluZGluZycsICctaW1hZScsICc8aW5maWxlLm1hZT4nLCAnLW9tYWUnLCAnPG91dGZpbGUubWFlPic=

> <r_lp_tautomer_probability>
1

> <r_epik_Ionization_Penalty>
0.000176839

> <r_epik_Ionization_Penalty_Charging>
0

> <r_epik_Ionization_Penalty_Neutral>
0.000176839

> <r_epik_State_Penalty>
-0

> <r_epik_Charging_Adjusted_Penalty>
0

> <i_epik_Tot_Q>
0

> <i_epik_Tot_abs_Q>
0

> <r_epik_Metal_State_Penalty>
-0

> <b_epik_Metal_Only>
0

> <s_lp_Force_Field>
OPLS_2005

> <r_lp_Energy>
20.4125

> <b_lp_Chiralities_Consistent>
1

> <s_lp_Variant>
AV-unprocessed.smi:1746-2

> <Gold.Version>
5.8.1

> <Gold.Id.Protein>
6NUR|6NUR_protein|mol2

> <Gold.PLP.Fitness>
38.0876

> <Gold.PLP.PLP>
-32.2631

> <Gold.PLP.part.hbond>
-2.0000

> <Gold.PLP.part.metal>
0.0000

> <Gold.PLP.part.buried>
-2.7896

> <Gold.PLP.part.nonpolar>
-27.1350

> <Gold.PLP.part.repulsive>
0.3435

> <Gold.PLP.ligand.clash>
0.0000

> <Gold.PLP.ligand.torsion>
0.0782

> <Gold.PLP.Chemscore.Hbond>
1.9920

> <Gold.PLP.Chemscore.CHOScore>
0.0000

> <Gold.PLP.Chemscore.Metal>
0.0000

> <Gold.Chemscore.Hbonds>
donor molecule, donor type, donor heavy atom, donor atom, acceptor molecule, acceptor atom, score
      L1  H     6    24       P1  8028  1.00
      L1  H     9    25       P1  8028  0.99

> <Gold.PLP.Chemscore.Internal.Correction>
0.0048

> <Gold.Rescore>
     Score         DG    S(hbond)    S(metal)    S(lipo)     H(rot)  DE(clash)    DE(int)     intcor
     16.27     -17.50       1.92        0.00      78.67       1.41       0.04       1.19       ----

> <Gold.Chemscore.Fitness>
16.2727

> <Gold.Chemscore.DG>
-17.4998

> <Gold.Chemscore.ZeroCoef>
-5.4800

> <Gold.Chemscore.Hbond>
1.9208

> <Gold.Chemscore.Metal>
0.0000

> <Gold.Chemscore.Lipo>
78.6733

> <Gold.Chemscore.Internal_Hbond>
0.0000

> <Gold.Chemscore.DEClash>
0.0381

> <Gold.Chemscore.DEInternal>
1.1890

> <Gold.Chemscore.Rot>
1.4064

> <Gold.Chemscore.Internal.Correction>
   9.000000E+99

> <Gold.Chemscore.Hbonds>
donor molecule, donor type, donor heavy atom, donor atom, acceptor molecule, acceptor atom, score
      L1  H     6    24       P1  8028  0.98
      L1  H     9    25       P1  8028  0.94

> <Gold.Chemscore.Hbond.Weighted>
-6.4154

> <Gold.Chemscore.Metal.Weighted>
-0.0000

> <Gold.Chemscore.Lipo.Weighted>
-9.2048

> <Gold.Chemscore.Internal_Hbond.Weighted>
0.0000

> <Gold.Chemscore.DEClash.Weighted>
0.0381

> <Gold.Chemscore.DEInternal.Weighted>
1.1890

> <Gold.Chemscore.Rot.Weighted>
3.6004

> <Gold.Chemscore.Internal.Correction.Weighted>
   9.000000E+99

> <Gold.Protein.RotatedTorsions>
[ 6907 6896 6895 6894 ] final   45.19 input  -60.11 | X-H torsion
[ 7974 7965 7964 7962 ] final -164.67 input  175.53 | X-H torsion
[ 8008 7997 7996 7995 ] final  -74.40 input   59.86 | X-H torsion
[ 10167 10162 10161 10158 ] final   45.07 input  -65.29 | X-H torsion
[ 10718 10713 10712 10709 ] final  179.71 input   66.30 | X-H torsion
[ 10763 10752 10751 10750 ] final -101.49 input  -60.55 | X-H torsion
[ 11005 11000 10999 10996 ] final -115.91 input  -57.11 | X-H torsion

> <Gold.Protein.ActiveResidues>
 VAL166  LYS551  ARG553  GLY616  TRP617  ASP618  TYR619  PRO620  LYS621  CYS622 
 ASP623  PHE694  ASN695  SER759  ASP760  ASP761  ALA762  ILE779  LEU786  VAL792 
 PHE793  MET794  SER795  GLU796  ALA797  LYS798  CYS799  TRP800  GLU811  SER814 

> <Gold.Protein.RotatedAtoms>
  152.2416  134.8223  160.0459 H   0  0  0  0  0  0  0  0  0  0  0  0  # atno 6907 bound_to 6896
  151.8936  133.3516  159.3814 H   0  0  0  0  0  0  0  0  0  0  0  0  # atno 6908 bound_to 6896
  150.7055  134.4825  159.5521 H   0  0  0  0  0  0  0  0  0  0  0  0  # atno 6909 bound_to 6896
  144.7290  140.2926  143.6218 H   0  0  0  0  0  0  0  0  0  0  0  0  # atno 7974 bound_to 7965
  154.5328  140.0762  156.8375 H   0  0  0  0  0  0  0  0  0  0  0  0  # atno 8008 bound_to 7997
  155.3340  140.3403  155.4221 H   0  0  0  0  0  0  0  0  0  0  0  0  # atno 8009 bound_to 7997
  156.1798  140.1648  156.8282 H   0  0  0  0  0  0  0  0  0  0  0  0  # atno 8010 bound_to 7997
  140.3279  144.2625  150.6172 H   0  0  0  0  0  0  0  0  0  0  0  0  # atno 10167 bound_to 10162
  156.8717  130.9786  151.3072 H   0  0  0  0  0  0  0  0  0  0  0  0  # atno 10718 bound_to 10713
  154.7662  135.4896  153.9558 H   0  0  0  0  0  0  0  0  0  0  0  0  # atno 10763 bound_to 10752
  153.1310  135.6753  153.9185 H   0  0  0  0  0  0  0  0  0  0  0  0  # atno 10764 bound_to 10752
  153.8889  135.3123  155.3425 H   0  0  0  0  0  0  0  0  0  0  0  0  # atno 10765 bound_to 10752
  141.0457  133.9766  157.2921 H   0  0  0  0  0  0  0  0  0  0  0  0  # atno 11005 bound_to 11000
  145.7840  139.1902  143.2141 LP  0  0  0  0  0  0  0  0  0  0  0  0  # atno 17320 bound_to 7965
  146.0811  140.7763  142.9641 LP  0  0  0  0  0  0  0  0  0  0  0  0  # atno 17321 bound_to 7965
  140.5424  143.2221  151.8063 LP  0  0  0  0  0  0  0  0  0  0  0  0  # atno 17342 bound_to 10162
  139.4862  144.4583  151.9572 LP  0  0  0  0  0  0  0  0  0  0  0  0  # atno 17343 bound_to 10162
  157.6192  130.8642  149.9079 LP  0  0  0  0  0  0  0  0  0  0  0  0  # atno 17370 bound_to 10713
  156.0723  130.3683  150.0750 LP  0  0  0  0  0  0  0  0  0  0  0  0  # atno 17371 bound_to 10713
  139.9310  135.0200  156.8399 LP  0  0  0  0  0  0  0  0  0  0  0  0  # atno 17394 bound_to 11000
  140.6151  134.0046  155.7594 LP  0  0  0  0  0  0  0  0  0  0  0  0  # atno 17395 bound_to 11000

$$$$
