AV-unprocessed.smi:3291|AV-procd|sdf|12620|dock9
  -GOLD-   2272018553D 1   1.00000     0.00000
 Structure written by MMmdl.
 43 45  0  0  0  0  0  0  0  0  2 V2000
  150.0246  135.8849  154.9803 C   0  0  0  0  0  0  0  0  0  0  0  0
  150.2504  134.5773  155.6841 C   0  0  0  0  0  0  0  0  0  0  0  0
  150.7589  134.5749  156.9036 N   0  0  0  0  0  0  0  0  0  0  0  0
  150.8474  133.2319  157.2775 O   0  0  0  0  0  0  0  0  0  0  0  0
  150.3828  132.4672  156.2574 C   0  0  0  0  0  0  0  0  0  0  0  0
  150.3987  130.9925  156.4873 C   0  0  0  0  0  0  0  0  0  0  0  0
  149.9798  133.2593  155.2128 C   0  0  0  0  0  0  0  0  0  0  0  0
  149.3866  132.8773  153.8729 C   0  0  1  0  0  0  0  0  0  0  0  0
  149.4138  131.3543  153.6769 C   0  0  0  0  0  0  0  0  0  0  0  0
  147.9669  133.4437  153.6871 C   0  0  0  0  0  0  0  0  0  0  0  0
  147.6828  133.7248  152.2634 N   0  3  0  0  0  0  0  0  0  0  0  0
  146.2727  133.5545  151.8541 C   0  0  0  0  0  0  0  0  0  0  0  0
  146.1234  132.2122  151.1611 C   0  0  0  0  0  0  0  0  0  0  0  0
  144.7768  131.7256  150.6775 C   0  0  0  0  0  0  0  0  0  0  0  0
  145.4466  131.0506  151.8506 C   0  0  0  0  0  0  0  0  0  0  0  0
  145.8394  134.6898  150.9382 C   0  0  0  0  0  0  0  0  0  0  0  0
  145.0921  135.8925  151.4699 C   0  0  0  0  0  0  0  0  0  0  0  0
  144.3830  134.8960  150.5871 C   0  0  0  0  0  0  0  0  0  0  0  0
  150.6224  135.9447  154.0707 H   0  0  0  0  0  0  0  0  0  0  0  0
  150.2927  136.7351  155.6084 H   0  0  0  0  0  0  0  0  0  0  0  0
  148.9780  136.0007  154.6988 H   0  0  0  0  0  0  0  0  0  0  0  0
  150.7061  130.4574  155.5896 H   0  0  0  0  0  0  0  0  0  0  0  0
  149.4093  130.6365  156.7728 H   0  0  0  0  0  0  0  0  0  0  0  0
  151.0928  130.7285  157.2853 H   0  0  0  0  0  0  0  0  0  0  0  0
  149.9989  133.2996  153.0751 H   0  0  0  0  0  0  0  0  0  0  0  0
  150.4313  130.9692  153.7514 H   0  0  0  0  0  0  0  0  0  0  0  0
  149.0308  131.0781  152.6942 H   0  0  0  0  0  0  0  0  0  0  0  0
  148.8086  130.8394  154.4229 H   0  0  0  0  0  0  0  0  0  0  0  0
  147.2302  132.7290  154.0564 H   0  0  0  0  0  0  0  0  0  0  0  0
  147.8468  134.3499  154.2785 H   0  0  0  0  0  0  0  0  0  0  0  0
  147.9675  134.6710  152.0534 H   0  0  0  0  0  0  0  0  0  0  0  0
  145.6414  133.5515  152.7446 H   0  0  0  0  0  0  0  0  0  0  0  0
  146.9669  131.9564  150.5219 H   0  0  0  0  0  0  0  0  0  0  0  0
  143.9021  132.3366  150.8907 H   0  0  0  0  0  0  0  0  0  0  0  0
  144.7483  131.1845  149.7338 H   0  0  0  0  0  0  0  0  0  0  0  0
  145.8632  130.0583  151.6888 H   0  0  0  0  0  0  0  0  0  0  0  0
  145.0191  131.2219  152.8366 H   0  0  0  0  0  0  0  0  0  0  0  0
  146.5389  134.8836  150.1265 H   0  0  0  0  0  0  0  0  0  0  0  0
  144.8267  135.9023  152.5252 H   0  0  0  0  0  0  0  0  0  0  0  0
  145.3353  136.8627  151.0418 H   0  0  0  0  0  0  0  0  0  0  0  0
  144.1504  135.2023  149.5693 H   0  0  0  0  0  0  0  0  0  0  0  0
  143.6428  134.2545  151.0606 H   0  0  0  0  0  0  0  0  0  0  0  0
  148.2449  133.0927  151.7114 H   0  0  0  0  0  0  0  0  0  0  0  0
  1  2  1  0  0  0  0
  1 19  1  0  0  0  0
  1 20  1  0  0  0  0
  1 21  1  0  0  0  0
  2  7  1  0  0  0  0
  2  3  2  0  0  0  0
  3  4  1  0  0  0  0
  4  5  1  0  0  0  0
  5  6  1  0  0  0  0
  5  7  2  0  0  0  0
  6 22  1  0  0  0  0
  6 23  1  0  0  0  0
  6 24  1  0  0  0  0
  7  8  1  0  0  0  0
  8  9  1  0  0  0  0
  8 10  1  0  0  0  0
  8 25  1  0  0  0  0
  9 26  1  0  0  0  0
  9 27  1  0  0  0  0
  9 28  1  0  0  0  0
 10 11  1  0  0  0  0
 10 29  1  0  0  0  0
 10 30  1  0  0  0  0
 11 12  1  0  0  0  0
 11 31  1  0  0  0  0
 11 43  1  0  0  0  0
 12 13  1  0  0  0  0
 12 16  1  0  0  0  0
 12 32  1  0  0  0  0
 13 15  1  0  0  0  0
 13 14  1  0  0  0  0
 13 33  1  0  0  0  0
 14 15  1  0  0  0  0
 14 34  1  0  0  0  0
 14 35  1  0  0  0  0
 15 36  1  0  0  0  0
 15 37  1  0  0  0  0
 16 18  1  0  0  0  0
 16 17  1  0  0  0  0
 16 38  1  0  0  0  0
 17 18  1  0  0  0  0
 17 39  1  0  0  0  0
 17 40  1  0  0  0  0
 18 41  1  0  0  0  0
 18 42  1  0  0  0  0
M  CHG  1  11   1
M  END
> <s_m_source_file>
AV-unprocessed.smi

> <i_m_source_file_index>
3291

> <i_lp_mmshare_version>
43012

> <i_f3d_flags>
0

> <s_epik_input>
W0NIM11jMW5vYyhbQ0gzXSljMVtDQEhdKFtDSDNdKVtDSDJdW05IXVtDSF0oW0NIXTJbQ0gyXVtDSDJdMilbQ0hdM1tDSDJdW0NIMl0z

> <s_epik_cmdline>
J2VwaWtfcHl0aG9uJywgJy1waCcsICc3LjAnLCAnLXRuJywgJzgnLCAnLW1hJywgJzIwMCcsICctbWV0YWxfYmluZGluZycsICctaW1hZScsICc8aW5maWxlLm1hZT4nLCAnLW9tYWUnLCAnPG91dGZpbGUubWFlPic=

> <r_lp_tautomer_probability>
1

> <r_epik_Ionization_Penalty>
0.000158108

> <r_epik_Ionization_Penalty_Charging>
0.000158108

> <r_epik_Ionization_Penalty_Neutral>
1.14678e-10

> <r_epik_State_Penalty>
-0

> <r_epik_Charging_Adjusted_Penalty>
0.000158108

> <i_epik_Tot_Q>
1

> <i_epik_Tot_abs_Q>
1

> <r_epik_Metal_State_Penalty>
-0

> <b_epik_Metal_Only>
0

> <s_lp_Force_Field>
OPLS_2005

> <r_lp_Energy>
24.4944

> <b_lp_Chiralities_Consistent>
1

> <s_lp_Variant>
AV-unprocessed.smi:3291-2

> <Gold.Version>
5.8.1

> <Gold.Id.Protein>
6NUR|6NUR_protein|mol2

> <Gold.PLP.Fitness>
41.9420

> <Gold.PLP.PLP>
-35.8121

> <Gold.PLP.part.hbond>
-2.8733

> <Gold.PLP.part.metal>
0.0000

> <Gold.PLP.part.buried>
-4.5701

> <Gold.PLP.part.nonpolar>
-28.5168

> <Gold.PLP.part.repulsive>
0.0242

> <Gold.PLP.ligand.clash>
0.0028

> <Gold.PLP.ligand.torsion>
2.4284

> <Gold.PLP.Chemscore.Hbond>
2.9280

> <Gold.PLP.Chemscore.CHOScore>
0.0000

> <Gold.PLP.Chemscore.Metal>
0.0000

> <Gold.Chemscore.Hbonds>
donor molecule, donor type, donor heavy atom, donor atom, acceptor molecule, acceptor atom, score
      L1  H    11    31       P1  7948  2.00
      P1  H  6896  6908       L1     4  0.81

> <Gold.PLP.Chemscore.Internal.Correction>
2.2054

> <Gold.Rescore>
     Score         DG    S(hbond)    S(metal)    S(lipo)     H(rot)  DE(clash)    DE(int)     intcor
     12.74     -16.40       1.31        0.00      88.72       1.50       0.00       3.66       ----

> <Gold.Chemscore.Fitness>
12.7426

> <Gold.Chemscore.DG>
-16.4047

> <Gold.Chemscore.ZeroCoef>
-5.4800

> <Gold.Chemscore.Hbond>
1.3137

> <Gold.Chemscore.Metal>
0.0000

> <Gold.Chemscore.Lipo>
88.7245

> <Gold.Chemscore.Internal_Hbond>
0.0000

> <Gold.Chemscore.DEClash>
0.0047

> <Gold.Chemscore.DEInternal>
3.6575

> <Gold.Chemscore.Rot>
1.5015

> <Gold.Chemscore.Internal.Correction>
   9.000000E+99

> <Gold.Chemscore.Hbonds>
donor molecule, donor type, donor heavy atom, donor atom, acceptor molecule, acceptor atom, score
      L1  H    11    31       P1  7948  0.30
      P1  H  6896  6908       L1     4  0.16

> <Gold.Chemscore.Hbond.Weighted>
-4.3878

> <Gold.Chemscore.Metal.Weighted>
-0.0000

> <Gold.Chemscore.Lipo.Weighted>
-10.3808

> <Gold.Chemscore.Internal_Hbond.Weighted>
0.0000

> <Gold.Chemscore.DEClash.Weighted>
0.0047

> <Gold.Chemscore.DEInternal.Weighted>
3.6575

> <Gold.Chemscore.Rot.Weighted>
3.8438

> <Gold.Chemscore.Internal.Correction.Weighted>
   9.000000E+99

> <Gold.Protein.RotatedTorsions>
[ 6907 6896 6895 6894 ] final   93.34 input  -60.11 | X-H torsion
[ 7974 7965 7964 7962 ] final -172.96 input  175.53 | X-H torsion
[ 8008 7997 7996 7995 ] final   33.01 input   59.86 | X-H torsion
[ 10167 10162 10161 10158 ] final  148.31 input  -65.29 | X-H torsion
[ 10718 10713 10712 10709 ] final   97.42 input   66.30 | X-H torsion
[ 10763 10752 10751 10750 ] final  -37.06 input  -60.55 | X-H torsion
[ 11005 11000 10999 10996 ] final   83.82 input  -57.11 | X-H torsion

> <Gold.Protein.ActiveResidues>
 VAL166  LYS551  ARG553  GLY616  TRP617  ASP618  TYR619  PRO620  LYS621  CYS622 
 ASP623  PHE694  ASN695  SER759  ASP760  ASP761  ALA762  ILE779  LEU786  VAL792 
 PHE793  MET794  SER795  GLU796  ALA797  LYS798  CYS799  TRP800  GLU811  SER814 

> <Gold.Protein.RotatedAtoms>
  152.5452  134.1363  159.8459 H   0  0  0  0  0  0  0  0  0  0  0  0  # atno 6907 bound_to 6896
  151.1403  133.4968  159.2604 H   0  0  0  0  0  0  0  0  0  0  0  0  # atno 6908 bound_to 6896
  151.1580  135.0269  159.8752 H   0  0  0  0  0  0  0  0  0  0  0  0  # atno 6909 bound_to 6896
  144.7142  140.1694  143.6369 H   0  0  0  0  0  0  0  0  0  0  0  0  # atno 7974 bound_to 7965
  155.1318  140.3258  155.4472 H   0  0  0  0  0  0  0  0  0  0  0  0  # atno 8008 bound_to 7997
  156.2632  140.2009  156.6385 H   0  0  0  0  0  0  0  0  0  0  0  0  # atno 8009 bound_to 7997
  154.6607  140.0547  157.0046 H   0  0  0  0  0  0  0  0  0  0  0  0  # atno 8010 bound_to 7997
  139.4877  144.5689  151.7092 H   0  0  0  0  0  0  0  0  0  0  0  0  # atno 10167 bound_to 10162
  157.6912  131.0609  150.4642 H   0  0  0  0  0  0  0  0  0  0  0  0  # atno 10718 bound_to 10713
  153.8901  135.6813  153.4761 H   0  0  0  0  0  0  0  0  0  0  0  0  # atno 10763 bound_to 10752
  153.1186  135.4750  154.9155 H   0  0  0  0  0  0  0  0  0  0  0  0  # atno 10764 bound_to 10752
  154.7627  135.3215  154.8301 H   0  0  0  0  0  0  0  0  0  0  0  0  # atno 10765 bound_to 10752
  139.9019  134.8172  156.2361 H   0  0  0  0  0  0  0  0  0  0  0  0  # atno 11005 bound_to 11000
  145.8957  139.2401  143.1523 LP  0  0  0  0  0  0  0  0  0  0  0  0  # atno 17320 bound_to 7965
  145.9860  140.8643  143.0090 LP  0  0  0  0  0  0  0  0  0  0  0  0  # atno 17321 bound_to 7965
  140.5272  144.0786  150.6041 LP  0  0  0  0  0  0  0  0  0  0  0  0  # atno 17342 bound_to 10162
  140.3764  143.2826  152.0220 LP  0  0  0  0  0  0  0  0  0  0  0  0  # atno 17343 bound_to 10162
  156.4984  130.4111  149.6367 LP  0  0  0  0  0  0  0  0  0  0  0  0  # atno 17370 bound_to 10713
  156.3351  130.7352  151.2288 LP  0  0  0  0  0  0  0  0  0  0  0  0  # atno 17371 bound_to 10713
  141.0315  133.6986  156.1438 LP  0  0  0  0  0  0  0  0  0  0  0  0  # atno 17394 bound_to 11000
  140.7090  134.4482  157.5582 LP  0  0  0  0  0  0  0  0  0  0  0  0  # atno 17395 bound_to 11000

$$$$
