AV-unprocessed.smi:3031|AV-procd|sdf|11551|dock5
  -GOLD-   2272016513D 1   1.00000     0.00000
 Structure written by MMmdl.
 48 49  0  0  0  0  0  0  0  0  3 V2000
  151.1323  143.0056  158.0696 C   0  0  0  0  0  0  0  0  0  0  0  0
  151.0300  141.7363  157.2736 C   0  0  0  0  0  0  0  0  0  0  0  0
  151.6592  140.4882  157.5412 C   0  0  0  0  0  0  0  0  0  0  0  0
  151.3702  139.5644  156.6398 N   0  0  0  0  0  0  0  0  0  0  0  0
  150.5398  140.1831  155.7712 N   0  0  0  0  0  0  0  0  0  0  0  0
  150.0310  139.4747  154.6054 C   0  0  0  0  0  0  0  0  0  0  0  0
  148.5149  139.1925  154.6687 C   0  0  2  0  0  0  0  0  0  0  0  0
  148.1767  138.2455  155.8304 C   0  0  0  0  0  0  0  0  0  0  0  0
  148.0481  138.6281  153.3824 N   0  3  0  0  0  0  0  0  0  0  0  0
  146.5821  138.4892  153.2569 C   0  0  0  0  0  0  0  0  0  0  0  0
  146.1824  138.0660  151.8315 C   0  0  1  0  0  0  0  0  0  0  0  0
  147.3629  137.7399  151.1262 O   0  0  0  0  0  0  0  0  0  0  0  0
  145.2634  136.8255  151.8091 C   0  0  0  0  0  0  0  0  0  0  0  0
  146.0058  135.5429  151.9252 N   0  3  0  0  0  0  0  0  0  0  0  0
  145.9116  134.9170  153.2681 C   0  0  0  0  0  0  0  0  0  0  0  0
  146.7264  133.6130  153.3142 C   0  0  0  0  0  0  0  0  0  0  0  0
  146.2712  132.7284  152.2985 O   0  0  0  0  0  0  0  0  0  0  0  0
  146.4415  133.2790  150.9990 C   0  0  0  0  0  0  0  0  0  0  0  0
  145.6164  134.5713  150.8748 C   0  0  0  0  0  0  0  0  0  0  0  0
  150.3303  141.4997  156.1241 C   0  0  0  0  0  0  0  0  0  0  0  0
  152.1692  143.2568  158.2930 H   0  0  0  0  0  0  0  0  0  0  0  0
  150.6082  142.9259  159.0220 H   0  0  0  0  0  0  0  0  0  0  0  0
  150.7049  143.8556  157.5370 H   0  0  0  0  0  0  0  0  0  0  0  0
  152.3171  140.2293  158.3581 H   0  0  0  0  0  0  0  0  0  0  0  0
  150.2669  140.0616  153.7162 H   0  0  0  0  0  0  0  0  0  0  0  0
  150.5843  138.5389  154.5169 H   0  0  0  0  0  0  0  0  0  0  0  0
  148.0010  140.1388  154.8453 H   0  0  0  0  0  0  0  0  0  0  0  0
  148.5163  138.6581  156.7809 H   0  0  0  0  0  0  0  0  0  0  0  0
  148.6543  137.2734  155.7031 H   0  0  0  0  0  0  0  0  0  0  0  0
  147.1026  138.0798  155.9148 H   0  0  0  0  0  0  0  0  0  0  0  0
  148.3518  139.2546  152.6505 H   0  0  0  0  0  0  0  0  0  0  0  0
  146.2046  137.7752  153.9900 H   0  0  0  0  0  0  0  0  0  0  0  0
  146.1327  139.4546  153.4923 H   0  0  0  0  0  0  0  0  0  0  0  0
  145.7104  138.8988  151.3107 H   0  0  0  0  0  0  0  0  0  0  0  0
  147.9471  137.2735  151.7057 H   0  0  0  0  0  0  0  0  0  0  0  0
  144.5262  136.8795  152.6121 H   0  0  0  0  0  0  0  0  0  0  0  0
  144.6968  136.8328  150.8762 H   0  0  0  0  0  0  0  0  0  0  0  0
  146.2822  135.5951  154.0358 H   0  0  0  0  0  0  0  0  0  0  0  0
  144.8665  134.7089  153.5026 H   0  0  0  0  0  0  0  0  0  0  0  0
  147.7916  133.8143  153.1889 H   0  0  0  0  0  0  0  0  0  0  0  0
  146.6059  133.1289  154.2835 H   0  0  0  0  0  0  0  0  0  0  0  0
  147.4984  133.4703  150.8061 H   0  0  0  0  0  0  0  0  0  0  0  0
  146.1100  132.5488  150.2603 H   0  0  0  0  0  0  0  0  0  0  0  0
  144.5526  134.3440  150.9615 H   0  0  0  0  0  0  0  0  0  0  0  0
  145.7715  135.0092  149.8879 H   0  0  0  0  0  0  0  0  0  0  0  0
  149.7068  142.1553  155.5336 H   0  0  0  0  0  0  0  0  0  0  0  0
  148.4864  137.7297  153.2362 H   0  0  0  0  0  0  0  0  0  0  0  0
  146.9806  135.7520  151.7636 H   0  0  0  0  0  0  0  0  0  0  0  0
  1  2  1  0  0  0  0
  1 21  1  0  0  0  0
  1 22  1  0  0  0  0
  1 23  1  0  0  0  0
  2 20  2  0  0  0  0
  2  3  1  0  0  0  0
  3  4  2  0  0  0  0
  3 24  1  0  0  0  0
  4  5  1  0  0  0  0
  5  6  1  0  0  0  0
  5 20  1  0  0  0  0
  6  7  1  0  0  0  0
  6 25  1  0  0  0  0
  6 26  1  0  0  0  0
  7  8  1  0  0  0  0
  7  9  1  0  0  0  0
  7 27  1  0  0  0  0
  8 28  1  0  0  0  0
  8 29  1  0  0  0  0
  8 30  1  0  0  0  0
  9 10  1  0  0  0  0
  9 31  1  0  0  0  0
  9 47  1  0  0  0  0
 10 11  1  0  0  0  0
 10 32  1  0  0  0  0
 10 33  1  0  0  0  0
 11 12  1  0  0  0  0
 11 13  1  0  0  0  0
 11 34  1  0  0  0  0
 12 35  1  0  0  0  0
 13 14  1  0  0  0  0
 13 36  1  0  0  0  0
 13 37  1  0  0  0  0
 14 19  1  0  0  0  0
 14 15  1  0  0  0  0
 14 48  1  0  0  0  0
 15 16  1  0  0  0  0
 15 38  1  0  0  0  0
 15 39  1  0  0  0  0
 16 17  1  0  0  0  0
 16 40  1  0  0  0  0
 16 41  1  0  0  0  0
 17 18  1  0  0  0  0
 18 19  1  0  0  0  0
 18 42  1  0  0  0  0
 18 43  1  0  0  0  0
 19 44  1  0  0  0  0
 19 45  1  0  0  0  0
 20 46  1  0  0  0  0
M  CHG  1   9   1
M  CHG  1  14   1
M  END
> <s_m_source_file>
AV-unprocessed.smi

> <i_m_source_file_index>
3031

> <i_lp_mmshare_version>
43012

> <i_f3d_flags>
0

> <s_epik_input>
W0NIM11jMVtjSF1ubihbY0hdMSlbQ0gyXVtDQEhdKFtDSDNdKVtOSF1bQ0gyXVtDQEhdKFtPSF0pW0NIMl1OMltDSDJdW0NIMl1PW0NIMl1bQ0gyXTI=

> <s_epik_cmdline>
J2VwaWtfcHl0aG9uJywgJy1waCcsICc3LjAnLCAnLXRuJywgJzgnLCAnLW1hJywgJzIwMCcsICctbWV0YWxfYmluZGluZycsICctaW1hZScsICc8aW5maWxlLm1hZT4nLCAnLW9tYWUnLCAnPG91dGZpbGUubWFlPic=

> <r_lp_tautomer_probability>
1

> <r_epik_Ionization_Penalty>
1.76542

> <r_epik_Ionization_Penalty_Charging>
1.76348

> <r_epik_Ionization_Penalty_Neutral>
0.00194017

> <r_epik_State_Penalty>
1.49348

> <r_epik_Charging_Adjusted_Penalty>
3.25696

> <i_epik_Tot_Q>
2

> <i_epik_Tot_abs_Q>
2

> <r_epik_Metal_State_Penalty>
1.49349

> <b_epik_Metal_Only>
0

> <s_lp_Force_Field>
OPLS_2005

> <r_lp_Energy>
28.4562

> <b_lp_Chiralities_Consistent>
1

> <s_lp_Variant>
AV-unprocessed.smi:3031-11

> <Gold.Version>
5.8.1

> <Gold.Id.Protein>
6NUR|6NUR_protein|mol2

> <Gold.PLP.Fitness>
53.3110

> <Gold.PLP.PLP>
-34.8574

> <Gold.PLP.part.hbond>
-4.9350

> <Gold.PLP.part.metal>
0.0000

> <Gold.PLP.part.buried>
-1.0101

> <Gold.PLP.part.nonpolar>
-28.4924

> <Gold.PLP.part.repulsive>
0.2101

> <Gold.PLP.ligand.clash>
0.0000

> <Gold.PLP.ligand.torsion>
1.7537

> <Gold.PLP.Chemscore.Hbond>
6.2715

> <Gold.PLP.Chemscore.CHOScore>
1.0000

> <Gold.PLP.Chemscore.Metal>
0.0000

> <Gold.Chemscore.Hbonds>
donor molecule, donor type, donor heavy atom, donor atom, acceptor molecule, acceptor atom, score
      L1  H     9    31       P1  7957  0.84
      L1  H     9    47       P1  7948  1.63
      L1  H    12    35       P1  7948  0.67
      L1  H    14    48       P1  7948  2.00
      P1  H  7954  7966       L1    12  0.86
      L1  C    20    46       P1  8028  0.59

> <Gold.PLP.Chemscore.Internal.Correction>
0.1465

> <Gold.Rescore>
     Score         DG    S(hbond)    S(metal)    S(lipo)     H(rot)  DE(clash)    DE(int)     intcor
     18.64     -21.09       3.79        0.00      85.27       2.74       0.72       1.73       ----

> <Gold.Chemscore.Fitness>
18.6427

> <Gold.Chemscore.DG>
-21.0928

> <Gold.Chemscore.ZeroCoef>
-5.4800

> <Gold.Chemscore.Hbond>
3.7902

> <Gold.Chemscore.Metal>
0.0000

> <Gold.Chemscore.Lipo>
85.2720

> <Gold.Chemscore.Internal_Hbond>
0.0000

> <Gold.Chemscore.DEClash>
0.7244

> <Gold.Chemscore.DEInternal>
1.7258

> <Gold.Chemscore.Rot>
2.7434

> <Gold.Chemscore.Internal.Correction>
   9.000000E+99

> <Gold.Chemscore.Hbonds>
donor molecule, donor type, donor heavy atom, donor atom, acceptor molecule, acceptor atom, score
      L1  H     9    31       P1  7957  0.83
      L1  H     9    47       P1  7948  0.78
      L1  H    12    35       P1  7948  0.65
      L1  H    14    48       P1  7948  0.96
      P1  H  7954  7966       L1    12  0.29

> <Gold.Chemscore.Hbond.Weighted>
-12.6591

> <Gold.Chemscore.Metal.Weighted>
-0.0000

> <Gold.Chemscore.Lipo.Weighted>
-9.9768

> <Gold.Chemscore.Internal_Hbond.Weighted>
0.0000

> <Gold.Chemscore.DEClash.Weighted>
0.7244

> <Gold.Chemscore.DEInternal.Weighted>
1.7258

> <Gold.Chemscore.Rot.Weighted>
7.0231

> <Gold.Chemscore.Internal.Correction.Weighted>
   9.000000E+99

> <Gold.Protein.RotatedTorsions>
[ 6907 6896 6895 6894 ] final  167.07 input  -60.11 | X-H torsion
[ 7974 7965 7964 7962 ] final -100.33 input  175.53 | X-H torsion
[ 8008 7997 7996 7995 ] final  -53.93 input   59.86 | X-H torsion
[ 10167 10162 10161 10158 ] final   13.47 input  -65.29 | X-H torsion
[ 10718 10713 10712 10709 ] final  -36.16 input   66.30 | X-H torsion
[ 10763 10752 10751 10750 ] final  -54.96 input  -60.55 | X-H torsion
[ 11005 11000 10999 10996 ] final  -15.45 input  -57.11 | X-H torsion

> <Gold.Protein.ActiveResidues>
 VAL166  LYS551  ARG553  GLY616  TRP617  ASP618  TYR619  PRO620  LYS621  CYS622 
 ASP623  PHE694  ASN695  SER759  ASP760  ASP761  ALA762  ILE779  LEU786  VAL792 
 PHE793  MET794  SER795  GLU796  ALA797  LYS798  CYS799  TRP800  GLU811  SER814 

> <Gold.Protein.RotatedAtoms>
  151.8691  133.3472  159.3728 H   0  0  0  0  0  0  0  0  0  0  0  0  # atno 6907 bound_to 6896
  150.7158  134.5131  159.5626 H   0  0  0  0  0  0  0  0  0  0  0  0  # atno 6908 bound_to 6896
  152.2660  134.7984  160.0473 H   0  0  0  0  0  0  0  0  0  0  0  0  # atno 6909 bound_to 6896
  145.2960  140.9365  143.2850 H   0  0  0  0  0  0  0  0  0  0  0  0  # atno 7974 bound_to 7965
  154.4147  140.1188  156.5234 H   0  0  0  0  0  0  0  0  0  0  0  0  # atno 8008 bound_to 7997
  155.6679  140.3496  155.4788 H   0  0  0  0  0  0  0  0  0  0  0  0  # atno 8009 bound_to 7997
  155.9658  140.1131  157.0846 H   0  0  0  0  0  0  0  0  0  0  0  0  # atno 8010 bound_to 7997
  140.6000  143.8623  150.6956 H   0  0  0  0  0  0  0  0  0  0  0  0  # atno 10167 bound_to 10162
  156.3301  130.4278  149.7880 H   0  0  0  0  0  0  0  0  0  0  0  0  # atno 10718 bound_to 10713
  154.1832  135.6440  153.5040 H   0  0  0  0  0  0  0  0  0  0  0  0  # atno 10763 bound_to 10752
  153.0054  135.5411  154.6492 H   0  0  0  0  0  0  0  0  0  0  0  0  # atno 10764 bound_to 10752
  154.5862  135.2930  155.0655 H   0  0  0  0  0  0  0  0  0  0  0  0  # atno 10765 bound_to 10752
  140.7968  133.8245  155.9431 H   0  0  0  0  0  0  0  0  0  0  0  0  # atno 11005 bound_to 11000
  144.9133  139.4502  143.6576 LP  0  0  0  0  0  0  0  0  0  0  0  0  # atno 17320 bound_to 7965
  146.3168  139.7953  142.8977 LP  0  0  0  0  0  0  0  0  0  0  0  0  # atno 17321 bound_to 7965
  140.2167  143.3841  152.1675 LP  0  0  0  0  0  0  0  0  0  0  0  0  # atno 17342 bound_to 10162
  139.5285  144.7131  151.5143 LP  0  0  0  0  0  0  0  0  0  0  0  0  # atno 17343 bound_to 10162
  156.5156  130.8192  151.3185 LP  0  0  0  0  0  0  0  0  0  0  0  0  # atno 17370 bound_to 10713
  157.7429  130.9899  150.2549 LP  0  0  0  0  0  0  0  0  0  0  0  0  # atno 17371 bound_to 10713
  140.9335  134.1992  157.4847 LP  0  0  0  0  0  0  0  0  0  0  0  0  # atno 17394 bound_to 11000
  139.8725  134.9842  156.5232 LP  0  0  0  0  0  0  0  0  0  0  0  0  # atno 17395 bound_to 11000

$$$$
