AV-unprocessed.smi:260|AV-procd|sdf|1982|dock6
  -GOLD-   2262021153D 1   1.00000     0.00000
 Structure written by MMmdl.
 53 56  0  0  0  0  0  0  0  0  1 V2000
  143.1361  145.7038  154.1404 C   0  0  0  0  0  0  0  0  0  0  0  0
  143.3513  144.3384  154.5933 N   0  0  0  0  0  0  0  0  0  0  0  0
  143.6874  143.9983  155.8480 C   0  0  0  0  0  0  0  0  0  0  0  0
  143.8542  144.8421  156.7298 O   0  0  0  0  0  0  0  0  0  0  0  0
  143.8710  142.4953  156.1864 C   0  0  2  0  0  0  0  0  0  0  0  0
  142.5659  141.7439  155.8584 C   0  0  0  0  0  0  0  0  0  0  0  0
  144.3465  142.2231  157.6327 C   0  0  0  0  0  0  0  0  0  0  0  0
  145.8693  142.4087  157.5907 C   0  0  0  0  0  0  0  0  0  0  0  0
  146.2414  142.2276  156.1953 N   0  0  0  0  0  0  0  0  0  0  0  0
  147.4827  141.8118  155.8352 C   0  0  0  0  0  0  0  0  0  0  0  0
  147.7706  141.6885  154.5123 N   0  0  0  0  0  0  0  0  0  0  0  0
  148.9814  141.2877  154.1150 C   0  0  0  0  0  0  0  0  0  0  0  0
  150.0402  140.9681  154.8603 N   0  0  0  0  0  0  0  0  0  0  0  0
  149.7646  141.0995  156.1888 C   0  0  0  0  0  0  0  0  0  0  0  0
  148.5259  141.5110  156.7603 C   0  0  0  0  0  0  0  0  0  0  0  0
  148.6381  141.5337  158.1470 N   0  0  0  0  0  0  0  0  0  0  0  0
  149.8645  141.1540  158.3795 C   0  0  0  0  0  0  0  0  0  0  0  0
  150.6116  140.8758  157.2588 N   0  0  0  0  0  0  0  0  0  0  0  0
  151.9977  140.4454  157.2194 C   0  0  0  0  0  0  0  0  0  0  0  0
  152.6042  140.2980  158.6285 C   0  0  1  0  0  0  0  0  0  0  0  0
  153.6028  139.2953  158.6393 O   0  0  0  0  0  0  0  0  0  0  0  0
  153.1641  141.6243  159.1805 C   0  0  1  0  0  0  0  0  0  0  0  0
  152.2399  142.8419  159.0969 C   0  0  0  0  0  0  0  0  0  0  0  0
  152.8183  143.7242  160.1805 C   0  0  0  0  0  0  0  0  0  0  0  0
  153.1928  142.7007  161.2499 C   0  0  0  0  0  0  0  0  0  0  0  0
  153.5495  141.5120  160.5486 O   0  0  0  0  0  0  0  0  0  0  0  0
  145.0625  141.9261  155.3931 C   0  0  0  0  0  0  0  0  0  0  0  0
  142.8642  145.7066  153.0848 H   0  0  0  0  0  0  0  0  0  0  0  0
  144.0411  146.3007  154.2616 H   0  0  0  0  0  0  0  0  0  0  0  0
  142.3289  146.1760  154.7020 H   0  0  0  0  0  0  0  0  0  0  0  0
  143.2271  143.6013  153.9146 H   0  0  0  0  0  0  0  0  0  0  0  0
  142.6655  140.6744  156.0460 H   0  0  0  0  0  0  0  0  0  0  0  0
  142.2843  141.8612  154.8110 H   0  0  0  0  0  0  0  0  0  0  0  0
  141.7371  142.1058  156.4682 H   0  0  0  0  0  0  0  0  0  0  0  0
  143.8666  142.8370  158.3953 H   0  0  0  0  0  0  0  0  0  0  0  0
  144.1303  141.1866  157.8960 H   0  0  0  0  0  0  0  0  0  0  0  0
  146.1458  143.4160  157.9036 H   0  0  0  0  0  0  0  0  0  0  0  0
  146.3688  141.6946  158.2465 H   0  0  0  0  0  0  0  0  0  0  0  0
  149.1218  141.2143  153.0467 H   0  0  0  0  0  0  0  0  0  0  0  0
  150.2624  141.0729  159.3806 H   0  0  0  0  0  0  0  0  0  0  0  0
  152.0530  139.5017  156.6754 H   0  0  0  0  0  0  0  0  0  0  0  0
  152.5646  141.1742  156.6389 H   0  0  0  0  0  0  0  0  0  0  0  0
  151.8204  139.9604  159.3078 H   0  0  0  0  0  0  0  0  0  0  0  0
  153.2092  138.4813  158.3644 H   0  0  0  0  0  0  0  0  0  0  0  0
  154.0774  141.8643  158.6331 H   0  0  0  0  0  0  0  0  0  0  0  0
  152.2439  143.3122  158.1132 H   0  0  0  0  0  0  0  0  0  0  0  0
  151.2102  142.5852  159.3478 H   0  0  0  0  0  0  0  0  0  0  0  0
  153.7125  144.2306  159.8143 H   0  0  0  0  0  0  0  0  0  0  0  0
  152.1185  144.4796  160.5393 H   0  0  0  0  0  0  0  0  0  0  0  0
  154.0048  143.0451  161.8906 H   0  0  0  0  0  0  0  0  0  0  0  0
  152.3318  142.4820  161.8830 H   0  0  0  0  0  0  0  0  0  0  0  0
  144.9712  140.8450  155.2764 H   0  0  0  0  0  0  0  0  0  0  0  0
  145.1473  142.3610  154.3959 H   0  0  0  0  0  0  0  0  0  0  0  0
  1  2  1  0  0  0  0
  1 28  1  0  0  0  0
  1 29  1  0  0  0  0
  1 30  1  0  0  0  0
  2  3  1  0  0  0  0
  2 31  1  0  0  0  0
  3  4  2  0  0  0  0
  3  5  1  0  0  0  0
  5 27  1  0  0  0  0
  5  6  1  0  0  0  0
  5  7  1  0  0  0  0
  6 32  1  0  0  0  0
  6 33  1  0  0  0  0
  6 34  1  0  0  0  0
  7  8  1  0  0  0  0
  7 35  1  0  0  0  0
  7 36  1  0  0  0  0
  8  9  1  0  0  0  0
  8 37  1  0  0  0  0
  8 38  1  0  0  0  0
  9 10  1  0  0  0  0
  9 27  1  0  0  0  0
 10 15  1  0  0  0  0
 10 11  2  0  0  0  0
 11 12  1  0  0  0  0
 12 13  2  0  0  0  0
 12 39  1  0  0  0  0
 13 14  1  0  0  0  0
 14 18  1  0  0  0  0
 14 15  2  0  0  0  0
 15 16  1  0  0  0  0
 16 17  2  0  0  0  0
 17 18  1  0  0  0  0
 17 40  1  0  0  0  0
 18 19  1  0  0  0  0
 19 20  1  0  0  0  0
 19 41  1  0  0  0  0
 19 42  1  0  0  0  0
 20 21  1  0  0  0  0
 20 22  1  0  0  0  0
 20 43  1  0  0  0  0
 21 44  1  0  0  0  0
 22 26  1  0  0  0  0
 22 23  1  0  0  0  0
 22 45  1  0  0  0  0
 23 24  1  0  0  0  0
 23 46  1  0  0  0  0
 23 47  1  0  0  0  0
 24 25  1  0  0  0  0
 24 48  1  0  0  0  0
 24 49  1  0  0  0  0
 25 26  1  0  0  0  0
 25 50  1  0  0  0  0
 25 51  1  0  0  0  0
 27 52  1  0  0  0  0
 27 53  1  0  0  0  0
M  END
> <s_m_source_file>
AV-unprocessed.smi

> <i_m_source_file_index>
260

> <i_lp_mmshare_version>
43012

> <i_f3d_flags>
0

> <s_epik_input>
W0NIM11bTkhdQyg9TylbQ0BAXTEoW0NIM10pW0NIMl1bQ0gyXU4oW0NIMl0xKWMobltjSF1uMiljKGMyMyluW2NIXW4zW0NIMl1bQ0BIXShbT0hdKVtDQEBIXTRbQ0gyXVtDSDJdW0NIMl1PNA==

> <s_epik_cmdline>
J2VwaWtfcHl0aG9uJywgJy1waCcsICc3LjAnLCAnLXRuJywgJzgnLCAnLW1hJywgJzIwMCcsICctbWV0YWxfYmluZGluZycsICctaW1hZScsICc8aW5maWxlLm1hZT4nLCAnLW9tYWUnLCAnPG91dGZpbGUubWFlPic=

> <r_lp_tautomer_probability>
1

> <r_epik_Ionization_Penalty>
0.00115068

> <r_epik_Ionization_Penalty_Charging>
0

> <r_epik_Ionization_Penalty_Neutral>
0.00115068

> <r_epik_State_Penalty>
0.000668876

> <r_epik_Charging_Adjusted_Penalty>
0.000668876

> <i_epik_Tot_Q>
0

> <i_epik_Tot_abs_Q>
0

> <r_epik_Metal_State_Penalty>
-0

> <b_epik_Metal_Only>
0

> <s_lp_Force_Field>
OPLS_2005

> <r_lp_Energy>
50.4325

> <b_lp_Chiralities_Consistent>
1

> <s_lp_Variant>
AV-unprocessed.smi:260-8

> <Gold.Version>
5.8.1

> <Gold.Id.Protein>
6NUR|6NUR_protein|mol2

> <Gold.PLP.Fitness>
47.1378

> <Gold.PLP.PLP>
-36.9456

> <Gold.PLP.part.hbond>
-3.0000

> <Gold.PLP.part.metal>
0.0000

> <Gold.PLP.part.buried>
-4.0728

> <Gold.PLP.part.nonpolar>
-29.7805

> <Gold.PLP.part.repulsive>
0.3930

> <Gold.PLP.ligand.clash>
0.0000

> <Gold.PLP.ligand.torsion>
0.6263

> <Gold.PLP.Chemscore.Hbond>
2.7040

> <Gold.PLP.Chemscore.CHOScore>
1.0000

> <Gold.PLP.Chemscore.Metal>
0.0000

> <Gold.Chemscore.Hbonds>
donor molecule, donor type, donor heavy atom, donor atom, acceptor molecule, acceptor atom, score
      L1  H     2    31       P1 10174  0.65
      P1  H  7989  7998       L1    13  0.59
      P1  H  7997  8008       L1    21  0.98
      L1  C    12    39       P1  7957  1.00

> <Gold.PLP.Chemscore.Internal.Correction>
0.3328

> <Gold.Rescore>
     Score         DG    S(hbond)    S(metal)    S(lipo)     H(rot)  DE(clash)    DE(int)     intcor
     11.66     -14.32       1.90        0.00      76.56       2.53       0.83       1.82       ----

> <Gold.Chemscore.Fitness>
11.6644

> <Gold.Chemscore.DG>
-14.3158

> <Gold.Chemscore.ZeroCoef>
-5.4800

> <Gold.Chemscore.Hbond>
1.8998

> <Gold.Chemscore.Metal>
0.0000

> <Gold.Chemscore.Lipo>
76.5552

> <Gold.Chemscore.Internal_Hbond>
0.0000

> <Gold.Chemscore.DEClash>
0.8344

> <Gold.Chemscore.DEInternal>
1.8170

> <Gold.Chemscore.Rot>
2.5259

> <Gold.Chemscore.Internal.Correction>
   9.000000E+99

> <Gold.Chemscore.Hbonds>
donor molecule, donor type, donor heavy atom, donor atom, acceptor molecule, acceptor atom, score
      L1  H     2    31       P1 10174  0.63
      P1  H  7989  7998       L1    13  0.26
      P1  H  7997  8008       L1    21  0.27

> <Gold.Chemscore.Hbond.Weighted>
-6.3452

> <Gold.Chemscore.Metal.Weighted>
-0.0000

> <Gold.Chemscore.Lipo.Weighted>
-8.9570

> <Gold.Chemscore.Internal_Hbond.Weighted>
0.0000

> <Gold.Chemscore.DEClash.Weighted>
0.8344

> <Gold.Chemscore.DEInternal.Weighted>
1.8170

> <Gold.Chemscore.Rot.Weighted>
6.4663

> <Gold.Chemscore.Internal.Correction.Weighted>
   9.000000E+99

> <Gold.Protein.RotatedTorsions>
[ 6907 6896 6895 6894 ] final  -25.55 input  -60.11 | X-H torsion
[ 7974 7965 7964 7962 ] final   20.14 input  175.53 | X-H torsion
[ 8008 7997 7996 7995 ] final -111.37 input   59.86 | X-H torsion
[ 10167 10162 10161 10158 ] final -174.04 input  -65.29 | X-H torsion
[ 10718 10713 10712 10709 ] final -139.63 input   66.30 | X-H torsion
[ 10763 10752 10751 10750 ] final  140.48 input  -60.55 | X-H torsion
[ 11005 11000 10999 10996 ] final   96.08 input  -57.11 | X-H torsion

> <Gold.Protein.ActiveResidues>
 VAL166  LYS551  ARG553  GLY616  TRP617  ASP618  TYR619  PRO620  LYS621  CYS622 
 ASP623  PHE694  ASN695  SER759  ASP760  ASP761  ALA762  ILE779  LEU786  VAL792 
 PHE793  MET794  SER795  GLU796  ALA797  LYS798  CYS799  TRP800  GLU811  SER814 

> <Gold.Protein.RotatedAtoms>
  151.1737  135.0329  159.8762 H   0  0  0  0  0  0  0  0  0  0  0  0  # atno 6907 bound_to 6896
  152.5448  134.1142  159.8381 H   0  0  0  0  0  0  0  0  0  0  0  0  # atno 6908 bound_to 6896
  151.1251  133.5030  159.2633 H   0  0  0  0  0  0  0  0  0  0  0  0  # atno 6909 bound_to 6896
  146.2123  139.8212  142.8679 H   0  0  0  0  0  0  0  0  0  0  0  0  # atno 7974 bound_to 7965
  154.9887  140.0395  157.2310 H   0  0  0  0  0  0  0  0  0  0  0  0  # atno 8008 bound_to 7997
  154.7648  140.2791  155.6162 H   0  0  0  0  0  0  0  0  0  0  0  0  # atno 8009 bound_to 7997
  156.2910  140.2621  156.2436 H   0  0  0  0  0  0  0  0  0  0  0  0  # atno 8010 bound_to 7997
  139.5655  144.1765  152.1306 H   0  0  0  0  0  0  0  0  0  0  0  0  # atno 10167 bound_to 10162
  156.3130  130.7492  151.1572 H   0  0  0  0  0  0  0  0  0  0  0  0  # atno 10718 bound_to 10713
  153.9233  135.2998  155.3447 H   0  0  0  0  0  0  0  0  0  0  0  0  # atno 10763 bound_to 10752
  154.7564  135.4955  153.9386 H   0  0  0  0  0  0  0  0  0  0  0  0  # atno 10764 bound_to 10752
  153.1130  135.6764  153.9570 H   0  0  0  0  0  0  0  0  0  0  0  0  # atno 10765 bound_to 10752
  139.8784  134.8932  156.4106 H   0  0  0  0  0  0  0  0  0  0  0  0  # atno 11005 bound_to 11000
  145.3094  141.0216  143.3563 LP  0  0  0  0  0  0  0  0  0  0  0  0  # atno 17320 bound_to 7965
  144.8947  139.4728  143.6661 LP  0  0  0  0  0  0  0  0  0  0  0  0  # atno 17321 bound_to 7965
  140.1287  144.5307  150.6816 LP  0  0  0  0  0  0  0  0  0  0  0  0  # atno 17342 bound_to 10162
  140.6938  143.2392  151.5057 LP  0  0  0  0  0  0  0  0  0  0  0  0  # atno 17343 bound_to 10162
  157.7395  131.0528  150.5226 LP  0  0  0  0  0  0  0  0  0  0  0  0  # atno 17370 bound_to 10713
  156.5369  130.4198  149.6173 LP  0  0  0  0  0  0  0  0  0  0  0  0  # atno 17371 bound_to 10713
  140.9203  133.7649  155.9898 LP  0  0  0  0  0  0  0  0  0  0  0  0  # atno 17394 bound_to 11000
  140.8447  134.3025  157.5299 LP  0  0  0  0  0  0  0  0  0  0  0  0  # atno 17395 bound_to 11000

$$$$
