AV-unprocessed.smi:1055|AV-procd|sdf|4628|dock7
  -GOLD-   22720 3133D 1   1.00000     0.00000
 Structure written by MMmdl.
 51 52  0  0  0  0  0  0  0  0  2 V2000
  143.8125  132.3664  148.6260 C   0  0  0  0  0  0  0  0  0  0  0  0
  144.5024  132.3001  149.7765 C   0  0  0  0  0  0  0  0  0  0  0  0
  145.9518  131.8534  149.8203 C   0  0  0  0  0  0  0  0  0  0  0  0
  143.8817  132.6918  151.1098 C   0  0  0  0  0  0  0  0  0  0  0  0
  144.3320  133.9931  151.6047 N   0  0  0  0  0  0  0  0  0  0  0  0
  143.4758  134.4811  152.6919 C   0  0  0  0  0  0  0  0  0  0  0  0
  144.0071  135.8188  153.2352 C   0  0  0  0  0  0  0  0  0  0  0  0
  144.0897  136.8762  152.1213 C   0  0  0  0  0  0  0  0  0  0  0  0
  144.7191  138.1001  152.6088 N   0  0  0  0  0  0  0  0  0  0  0  0
  145.9299  138.1687  153.1802 C   0  0  0  0  0  0  0  0  0  0  0  0
  146.6486  137.1872  153.3673 O   0  0  0  0  0  0  0  0  0  0  0  0
  146.2349  139.4314  153.5265 N   0  0  0  0  0  0  0  0  0  0  0  0
  147.4309  139.9218  154.1177 C   0  0  0  0  0  0  0  0  0  0  0  0
  148.4430  138.9902  154.4291 C   0  0  0  0  0  0  0  0  0  0  0  0
  149.6407  139.4288  155.0307 C   0  0  0  0  0  0  0  0  0  0  0  0
  149.8181  140.8025  155.3281 C   0  0  0  0  0  0  0  0  0  0  0  0
  150.9858  141.3192  155.9301 N   0  0  0  0  0  0  0  0  0  0  0  0
  152.2116  140.5315  155.9299 C   0  0  0  0  0  0  0  0  0  0  0  0
  150.9536  142.6318  156.5659 C   0  0  0  0  0  0  0  0  0  0  0  0
  148.8118  141.6573  155.0217 N   0  3  0  0  0  0  0  0  0  0  0  0
  147.6506  141.2811  154.4445 C   0  0  0  0  0  0  0  0  0  0  0  0
  144.8954  136.3033  150.9466 C   0  0  0  0  0  0  0  0  0  0  0  0
  144.3230  134.9484  150.4951 C   0  0  0  0  0  0  0  0  0  0  0  0
  144.2652  132.0938  147.6840 H   0  0  0  0  0  0  0  0  0  0  0  0
  142.7833  132.6938  148.6086 H   0  0  0  0  0  0  0  0  0  0  0  0
  146.5760  132.6396  150.2452 H   0  0  0  0  0  0  0  0  0  0  0  0
  146.3276  131.6233  148.8226 H   0  0  0  0  0  0  0  0  0  0  0  0
  146.0599  130.9594  150.4350 H   0  0  0  0  0  0  0  0  0  0  0  0
  142.7990  132.7117  150.9783 H   0  0  0  0  0  0  0  0  0  0  0  0
  144.0954  131.9219  151.8534 H   0  0  0  0  0  0  0  0  0  0  0  0
  142.4505  134.5966  152.3373 H   0  0  0  0  0  0  0  0  0  0  0  0
  143.4505  133.7608  153.5096 H   0  0  0  0  0  0  0  0  0  0  0  0
  143.3590  136.1681  154.0396 H   0  0  0  0  0  0  0  0  0  0  0  0
  144.9923  135.6632  153.6776 H   0  0  0  0  0  0  0  0  0  0  0  0
  143.0820  137.1030  151.7677 H   0  0  0  0  0  0  0  0  0  0  0  0
  144.1944  138.9551  152.4956 H   0  0  0  0  0  0  0  0  0  0  0  0
  145.5093  140.1180  153.3804 H   0  0  0  0  0  0  0  0  0  0  0  0
  148.3087  137.9419  154.2054 H   0  0  0  0  0  0  0  0  0  0  0  0
  150.4046  138.6997  155.2560 H   0  0  0  0  0  0  0  0  0  0  0  0
  152.0634  139.5948  156.4678 H   0  0  0  0  0  0  0  0  0  0  0  0
  153.0281  141.0680  156.4136 H   0  0  0  0  0  0  0  0  0  0  0  0
  152.5221  140.3046  154.9095 H   0  0  0  0  0  0  0  0  0  0  0  0
  150.2135  142.6524  157.3665 H   0  0  0  0  0  0  0  0  0  0  0  0
  150.6997  143.4034  155.8384 H   0  0  0  0  0  0  0  0  0  0  0  0
  151.9204  142.8875  156.9997 H   0  0  0  0  0  0  0  0  0  0  0  0
  146.9464  142.0832  154.2828 H   0  0  0  0  0  0  0  0  0  0  0  0
  144.8866  137.0031  150.1102 H   0  0  0  0  0  0  0  0  0  0  0  0
  145.9405  136.1764  151.2339 H   0  0  0  0  0  0  0  0  0  0  0  0
  144.9269  134.5605  149.6739 H   0  0  0  0  0  0  0  0  0  0  0  0
  143.3079  135.0737  150.1144 H   0  0  0  0  0  0  0  0  0  0  0  0
  148.9364  142.6455  155.2425 H   0  0  0  0  0  0  0  0  0  0  0  0
  1  2  2  0  0  0  0
  1 24  1  0  0  0  0
  1 25  1  0  0  0  0
  2  3  1  0  0  0  0
  2  4  1  0  0  0  0
  3 26  1  0  0  0  0
  3 27  1  0  0  0  0
  3 28  1  0  0  0  0
  4  5  1  0  0  0  0
  4 29  1  0  0  0  0
  4 30  1  0  0  0  0
  5 23  1  0  0  0  0
  5  6  1  0  0  0  0
  6  7  1  0  0  0  0
  6 31  1  0  0  0  0
  6 32  1  0  0  0  0
  7  8  1  0  0  0  0
  7 33  1  0  0  0  0
  7 34  1  0  0  0  0
  8  9  1  0  0  0  0
  8 22  1  0  0  0  0
  8 35  1  0  0  0  0
  9 10  1  0  0  0  0
  9 36  1  0  0  0  0
 10 11  2  0  0  0  0
 10 12  1  0  0  0  0
 12 13  1  0  0  0  0
 12 37  1  0  0  0  0
 13 21  1  0  0  0  0
 13 14  2  0  0  0  0
 14 15  1  0  0  0  0
 14 38  1  0  0  0  0
 15 16  2  0  0  0  0
 15 39  1  0  0  0  0
 16 17  1  0  0  0  0
 16 20  1  0  0  0  0
 17 18  1  0  0  0  0
 17 19  1  0  0  0  0
 18 40  1  0  0  0  0
 18 41  1  0  0  0  0
 18 42  1  0  0  0  0
 19 43  1  0  0  0  0
 19 44  1  0  0  0  0
 19 45  1  0  0  0  0
 20 21  2  0  0  0  0
 20 51  1  0  0  0  0
 21 46  1  0  0  0  0
 22 23  1  0  0  0  0
 22 47  1  0  0  0  0
 22 48  1  0  0  0  0
 23 49  1  0  0  0  0
 23 50  1  0  0  0  0
M  CHG  1  20   1
M  END
> <s_m_source_file>
AV-unprocessed.smi

> <i_m_source_file_index>
1055

> <i_lp_mmshare_version>
43012

> <i_f3d_flags>
0

> <s_epik_input>
W0NIMl09QyhbQ0gzXSlbQ0gyXU4xW0NIMl1bQ0gyXVtDSF0oW0NIMl1bQ0gyXTEpW05IXUMoPU8pW05IXWMyW2NIXVtjSF1jKE4oW0NIM10pW0NIM10pbltjSF0y

> <s_epik_cmdline>
J2VwaWtfcHl0aG9uJywgJy1waCcsICc3LjAnLCAnLXRuJywgJzgnLCAnLW1hJywgJzIwMCcsICctbWV0YWxfYmluZGluZycsICctaW1hZScsICc8aW5maWxlLm1hZT4nLCAnLW9tYWUnLCAnPG91dGZpbGUubWFlPic=

> <r_epik_Ionization_Penalty>
2.2313

> <r_epik_Ionization_Penalty_Charging>
0.252156

> <r_epik_Ionization_Penalty_Neutral>
1.97915

> <r_epik_State_Penalty>
2.37644

> <r_epik_Charging_Adjusted_Penalty>
2.62859

> <i_epik_Tot_Q>
1

> <i_epik_Tot_abs_Q>
1

> <r_epik_Metal_State_Penalty>
2.63815

> <b_epik_Metal_Only>
0

> <s_lp_Force_Field>
OPLS_2005

> <r_lp_Energy>
24.1414

> <b_lp_Chiralities_Consistent>
1

> <s_lp_Variant>
AV-unprocessed.smi:1055-5

> <Gold.Version>
5.8.1

> <Gold.Id.Protein>
6NUR|6NUR_protein|mol2

> <Gold.PLP.Fitness>
47.4389

> <Gold.PLP.PLP>
-38.2115

> <Gold.PLP.part.hbond>
-3.6001

> <Gold.PLP.part.metal>
0.0000

> <Gold.PLP.part.buried>
2.9370

> <Gold.PLP.part.nonpolar>
-37.6241

> <Gold.PLP.part.repulsive>
1.9203

> <Gold.PLP.ligand.clash>
0.0005

> <Gold.PLP.ligand.torsion>
0.4648

> <Gold.PLP.Chemscore.Hbond>
3.3750

> <Gold.PLP.Chemscore.CHOScore>
0.0000

> <Gold.PLP.Chemscore.Metal>
0.0000

> <Gold.Chemscore.Hbonds>
donor molecule, donor type, donor heavy atom, donor atom, acceptor molecule, acceptor atom, score
      L1  H     9    36       P1 10175  1.00
      L1  H    12    37       P1 10175  0.80
      L1  H    20    51       P1  8028  1.62

> <Gold.PLP.Chemscore.Internal.Correction>
0.0324

> <Gold.Rescore>
     Score         DG    S(hbond)    S(metal)    S(lipo)     H(rot)  DE(clash)    DE(int)     intcor
     16.82     -22.70       2.59        0.00     102.30       1.32       2.79       3.09       ----

> <Gold.Chemscore.Fitness>
16.8234

> <Gold.Chemscore.DG>
-22.6991

> <Gold.Chemscore.ZeroCoef>
-5.4800

> <Gold.Chemscore.Hbond>
2.5859

> <Gold.Chemscore.Metal>
0.0000

> <Gold.Chemscore.Lipo>
102.3018

> <Gold.Chemscore.Internal_Hbond>
0.0000

> <Gold.Chemscore.DEClash>
2.7873

> <Gold.Chemscore.DEInternal>
3.0884

> <Gold.Chemscore.Rot>
1.3231

> <Gold.Chemscore.Internal.Correction>
   9.000000E+99

> <Gold.Chemscore.Hbonds>
donor molecule, donor type, donor heavy atom, donor atom, acceptor molecule, acceptor atom, score
      L1  H     9    36       P1 10175  0.97
      L1  H    12    37       P1 10175  0.77
      L1  H    20    51       P1  8028  0.80

> <Gold.Chemscore.Hbond.Weighted>
-8.6369

> <Gold.Chemscore.Metal.Weighted>
-0.0000

> <Gold.Chemscore.Lipo.Weighted>
-11.9693

> <Gold.Chemscore.Internal_Hbond.Weighted>
0.0000

> <Gold.Chemscore.DEClash.Weighted>
2.7873

> <Gold.Chemscore.DEInternal.Weighted>
3.0884

> <Gold.Chemscore.Rot.Weighted>
3.3871

> <Gold.Chemscore.Internal.Correction.Weighted>
   9.000000E+99

> <Gold.Protein.RotatedTorsions>
[ 6907 6896 6895 6894 ] final   91.48 input  -60.11 | X-H torsion
[ 7974 7965 7964 7962 ] final    2.42 input  175.53 | X-H torsion
[ 8008 7997 7996 7995 ] final  126.01 input   59.86 | X-H torsion
[ 10167 10162 10161 10158 ] final  171.11 input  -65.29 | X-H torsion
[ 10718 10713 10712 10709 ] final  -76.96 input   66.30 | X-H torsion
[ 10763 10752 10751 10750 ] final   -4.95 input  -60.55 | X-H torsion
[ 11005 11000 10999 10996 ] final  111.84 input  -57.11 | X-H torsion

> <Gold.Protein.ActiveResidues>
 VAL166  LYS551  ARG553  GLY616  TRP617  ASP618  TYR619  PRO620  LYS621  CYS622 
 ASP623  PHE694  ASN695  SER759  ASP760  ASP761  ALA762  ILE779  LEU786  VAL792 
 PHE793  MET794  SER795  GLU796  ALA797  LYS798  CYS799  TRP800  GLU811  SER814 

> <Gold.Protein.RotatedAtoms>
  152.5450  134.1650  159.8572 H   0  0  0  0  0  0  0  0  0  0  0  0  # atno 6907 bound_to 6896
  151.1665  133.4805  159.2601 H   0  0  0  0  0  0  0  0  0  0  0  0  # atno 6908 bound_to 6896
  151.1319  135.0146  159.8641 H   0  0  0  0  0  0  0  0  0  0  0  0  # atno 6909 bound_to 6896
  146.2444  140.0838  142.8355 H   0  0  0  0  0  0  0  0  0  0  0  0  # atno 7974 bound_to 7965
  156.2851  140.2703  156.2042 H   0  0  0  0  0  0  0  0  0  0  0  0  # atno 8008 bound_to 7997
  155.0330  140.0386  157.2499 H   0  0  0  0  0  0  0  0  0  0  0  0  # atno 8009 bound_to 7997
  154.7339  140.2712  155.6437 H   0  0  0  0  0  0  0  0  0  0  0  0  # atno 8010 bound_to 7997
  139.5037  144.3522  151.9911 H   0  0  0  0  0  0  0  0  0  0  0  0  # atno 10167 bound_to 10162
  156.0159  130.4479  150.3272 H   0  0  0  0  0  0  0  0  0  0  0  0  # atno 10718 bound_to 10713
  153.3919  135.7002  153.6489 H   0  0  0  0  0  0  0  0  0  0  0  0  # atno 10763 bound_to 10752
  153.5058  135.3642  155.2563 H   0  0  0  0  0  0  0  0  0  0  0  0  # atno 10764 bound_to 10752
  154.8703  135.4123  154.3237 H   0  0  0  0  0  0  0  0  0  0  0  0  # atno 10765 bound_to 10752
  139.8913  134.9517  156.6494 H   0  0  0  0  0  0  0  0  0  0  0  0  # atno 11005 bound_to 11000
  145.0709  140.9155  143.4882 LP  0  0  0  0  0  0  0  0  0  0  0  0  # atno 17320 bound_to 7965
  145.0972  139.2848  143.5704 LP  0  0  0  0  0  0  0  0  0  0  0  0  # atno 17321 bound_to 7965
  140.2959  144.3702  150.6074 LP  0  0  0  0  0  0  0  0  0  0  0  0  # atno 17342 bound_to 10162
  140.5911  143.2168  151.7251 LP  0  0  0  0  0  0  0  0  0  0  0  0  # atno 17343 bound_to 10162
  157.1371  131.0287  151.2944 LP  0  0  0  0  0  0  0  0  0  0  0  0  # atno 17370 bound_to 10713
  157.4503  130.7594  149.7145 LP  0  0  0  0  0  0  0  0  0  0  0  0  # atno 17371 bound_to 10713
  140.7532  133.8880  155.8362 LP  0  0  0  0  0  0  0  0  0  0  0  0  # atno 17394 bound_to 11000
  140.9983  134.1184  157.4342 LP  0  0  0  0  0  0  0  0  0  0  0  0  # atno 17395 bound_to 11000

$$$$
