AV-unprocessed.smi:1835|AV-procd|sdf|7476|dock1
  -GOLD-   22720 9173D 1   1.00000     0.00000
 Structure written by MMmdl.
 42 43  0  0  0  0  0  0  0  0  2 V2000
  149.8950  133.0398  154.3890 C   0  0  0  0  0  0  0  0  0  0  0  0
  148.7657  133.9973  154.8361 C   0  0  1  0  0  0  0  0  0  0  0  0
  149.3498  135.2299  155.5827 C   0  0  0  0  0  0  0  0  0  0  0  0
  148.4808  135.7058  156.6561 N   0  0  0  0  0  0  0  0  0  0  0  0
  148.5091  135.2809  157.9288 C   0  0  0  0  0  0  0  0  0  0  0  0
  149.3114  134.4445  158.3447 O   0  0  0  0  0  0  0  0  0  0  0  0
  147.4703  135.9028  158.8717 C   0  0  0  0  0  0  0  0  0  0  0  0
  147.2705  135.1169  160.1007 N   0  0  0  0  0  0  0  0  0  0  0  0
  147.2115  133.7152  159.9670 C   0  0  0  0  0  0  0  0  0  0  0  0
  147.0335  132.9081  161.0247 C   0  0  0  0  0  0  0  0  0  0  0  0
  146.9002  133.5115  162.3295 C   0  0  0  0  0  0  0  0  0  0  0  0
  146.9524  134.8512  162.4687 C   0  0  0  0  0  0  0  0  0  0  0  0
  147.1457  135.7375  161.3151 C   0  0  0  0  0  0  0  0  0  0  0  0
  147.1922  136.9628  161.4321 O   0  0  0  0  0  0  0  0  0  0  0  0
  147.9063  134.3587  153.6603 N   0  3  0  0  0  0  0  0  0  0  0  0
  147.3979  133.1627  152.9335 C   0  0  0  0  0  0  0  0  0  0  0  0
  146.6093  133.5712  151.6793 C   0  0  0  0  0  0  0  0  0  0  0  0
  145.5292  134.4127  152.0544 O   0  0  0  0  0  0  0  0  0  0  0  0
  145.9897  135.6105  152.6615 C   0  0  0  0  0  0  0  0  0  0  0  0
  146.7728  135.2822  153.9446 C   0  0  0  0  0  0  0  0  0  0  0  0
  150.4824  132.6843  155.2348 H   0  0  0  0  0  0  0  0  0  0  0  0
  150.5785  133.5354  153.6989 H   0  0  0  0  0  0  0  0  0  0  0  0
  149.5219  132.1446  153.8958 H   0  0  0  0  0  0  0  0  0  0  0  0
  148.1348  133.4673  155.5517 H   0  0  0  0  0  0  0  0  0  0  0  0
  150.3498  135.0080  155.9600 H   0  0  0  0  0  0  0  0  0  0  0  0
  149.4547  136.0755  154.9032 H   0  0  0  0  0  0  0  0  0  0  0  0
  147.7912  136.4007  156.4080 H   0  0  0  0  0  0  0  0  0  0  0  0
  147.7925  136.9178  159.1072 H   0  0  0  0  0  0  0  0  0  0  0  0
  146.5179  136.0177  158.3503 H   0  0  0  0  0  0  0  0  0  0  0  0
  147.3139  133.3424  158.9582 H   0  0  0  0  0  0  0  0  0  0  0  0
  146.9885  131.8358  160.9025 H   0  0  0  0  0  0  0  0  0  0  0  0
  146.7566  132.8856  163.1981 H   0  0  0  0  0  0  0  0  0  0  0  0
  146.8498  135.2846  163.4526 H   0  0  0  0  0  0  0  0  0  0  0  0
  148.2121  132.5087  152.6278 H   0  0  0  0  0  0  0  0  0  0  0  0
  146.7571  132.5786  153.5959 H   0  0  0  0  0  0  0  0  0  0  0  0
  147.2538  134.0772  150.9585 H   0  0  0  0  0  0  0  0  0  0  0  0
  146.2100  132.6866  151.1829 H   0  0  0  0  0  0  0  0  0  0  0  0
  146.6087  136.1732  151.9607 H   0  0  0  0  0  0  0  0  0  0  0  0
  145.1297  136.2374  152.8982 H   0  0  0  0  0  0  0  0  0  0  0  0
  146.1088  134.8316  154.6841 H   0  0  0  0  0  0  0  0  0  0  0  0
  147.1310  136.2257  154.3550 H   0  0  0  0  0  0  0  0  0  0  0  0
  148.5075  134.8568  153.0195 H   0  0  0  0  0  0  0  0  0  0  0  0
  1  2  1  0  0  0  0
  1 21  1  0  0  0  0
  1 22  1  0  0  0  0
  1 23  1  0  0  0  0
  2  3  1  0  0  0  0
  2 15  1  0  0  0  0
  2 24  1  0  0  0  0
  3  4  1  0  0  0  0
  3 25  1  0  0  0  0
  3 26  1  0  0  0  0
  4  5  1  0  0  0  0
  4 27  1  0  0  0  0
  5  6  2  0  0  0  0
  5  7  1  0  0  0  0
  7  8  1  0  0  0  0
  7 28  1  0  0  0  0
  7 29  1  0  0  0  0
  8 13  1  0  0  0  0
  8  9  1  0  0  0  0
  9 10  2  0  0  0  0
  9 30  1  0  0  0  0
 10 11  1  0  0  0  0
 10 31  1  0  0  0  0
 11 12  2  0  0  0  0
 11 32  1  0  0  0  0
 12 13  1  0  0  0  0
 12 33  1  0  0  0  0
 13 14  2  0  0  0  0
 15 20  1  0  0  0  0
 15 16  1  0  0  0  0
 15 42  1  0  0  0  0
 16 17  1  0  0  0  0
 16 34  1  0  0  0  0
 16 35  1  0  0  0  0
 17 18  1  0  0  0  0
 17 36  1  0  0  0  0
 17 37  1  0  0  0  0
 18 19  1  0  0  0  0
 19 20  1  0  0  0  0
 19 38  1  0  0  0  0
 19 39  1  0  0  0  0
 20 40  1  0  0  0  0
 20 41  1  0  0  0  0
M  CHG  1  15   1
M  END
> <s_m_source_file>
AV-unprocessed.smi

> <i_m_source_file_index>
1835

> <i_lp_mmshare_version>
43012

> <i_f3d_flags>
0

> <s_epik_input>
W0NIMl0xW0NIMl1PW0NIMl1bQ0gyXU4xW0NASF0oW0NIM10pW0NIMl1bTkhdQyg9TylbQ0gyXW4yW2NIXVtjSF1bY0hdW2NIXWMyPU8=

> <s_epik_cmdline>
J2VwaWtfcHl0aG9uJywgJy1waCcsICc3LjAnLCAnLXRuJywgJzgnLCAnLW1hJywgJzIwMCcsICctbWV0YWxfYmluZGluZycsICctaW1hZScsICc8aW5maWxlLm1hZT4nLCAnLW9tYWUnLCAnPG91dGZpbGUubWFlPic=

> <r_lp_tautomer_probability>
1

> <r_epik_Ionization_Penalty>
0.656654

> <r_epik_Ionization_Penalty_Charging>
0.656654

> <r_epik_Ionization_Penalty_Neutral>
9.12373e-08

> <r_epik_State_Penalty>
0.675641

> <r_epik_Charging_Adjusted_Penalty>
1.33229

> <i_epik_Tot_Q>
1

> <i_epik_Tot_abs_Q>
1

> <r_epik_Metal_State_Penalty>
0.675692

> <b_epik_Metal_Only>
0

> <s_lp_Force_Field>
OPLS_2005

> <r_lp_Energy>
28.3698

> <b_lp_Chiralities_Consistent>
1

> <s_lp_Variant>
AV-unprocessed.smi:1835-4

> <Gold.Version>
5.8.1

> <Gold.Id.Protein>
6NUR|6NUR_protein|mol2

> <Gold.PLP.Fitness>
45.0824

> <Gold.PLP.PLP>
-32.8823

> <Gold.PLP.part.hbond>
-4.0000

> <Gold.PLP.part.metal>
0.0000

> <Gold.PLP.part.buried>
-3.2262

> <Gold.PLP.part.nonpolar>
-25.1504

> <Gold.PLP.part.repulsive>
0.0988

> <Gold.PLP.ligand.clash>
0.0000

> <Gold.PLP.ligand.torsion>
1.1238

> <Gold.PLP.Chemscore.Hbond>
4.7920

> <Gold.PLP.Chemscore.CHOScore>
0.0000

> <Gold.PLP.Chemscore.Metal>
0.0000

> <Gold.Chemscore.Hbonds>
donor molecule, donor type, donor heavy atom, donor atom, acceptor molecule, acceptor atom, score
      L1  H    15    42       P1  7948  2.00
      P1  H  6896  6909       L1     6  1.00
      P1  H  6931  6943       L1    14  0.32
      P1  H  6934  6947       L1    14  0.78

> <Gold.PLP.Chemscore.Internal.Correction>
0.0717

> <Gold.Rescore>
     Score         DG    S(hbond)    S(metal)    S(lipo)     H(rot)  DE(clash)    DE(int)     intcor
     17.03     -19.64       3.70        0.00      58.35       1.96       0.01       2.60       ----

> <Gold.Chemscore.Fitness>
17.0321

> <Gold.Chemscore.DG>
-19.6438

> <Gold.Chemscore.ZeroCoef>
-5.4800

> <Gold.Chemscore.Hbond>
3.7027

> <Gold.Chemscore.Metal>
0.0000

> <Gold.Chemscore.Lipo>
58.3501

> <Gold.Chemscore.Internal_Hbond>
0.0000

> <Gold.Chemscore.DEClash>
0.0106

> <Gold.Chemscore.DEInternal>
2.6012

> <Gold.Chemscore.Rot>
1.9649

> <Gold.Chemscore.Internal.Correction>
   9.000000E+99

> <Gold.Chemscore.Hbonds>
donor molecule, donor type, donor heavy atom, donor atom, acceptor molecule, acceptor atom, score
      L1  H    15    42       P1  7948  0.55
      P1  H  6896  6909       L1     6  0.99
      P1  H  6931  6943       L1    14  0.32
      P1  H  6934  6947       L1    14  0.74

> <Gold.Chemscore.Hbond.Weighted>
-12.3669

> <Gold.Chemscore.Metal.Weighted>
-0.0000

> <Gold.Chemscore.Lipo.Weighted>
-6.8270

> <Gold.Chemscore.Internal_Hbond.Weighted>
0.0000

> <Gold.Chemscore.DEClash.Weighted>
0.0106

> <Gold.Chemscore.DEInternal.Weighted>
2.6012

> <Gold.Chemscore.Rot.Weighted>
5.0300

> <Gold.Chemscore.Internal.Correction.Weighted>
   9.000000E+99

> <Gold.Protein.RotatedTorsions>
[ 6907 6896 6895 6894 ] final   42.67 input  -60.11 | X-H torsion
[ 7974 7965 7964 7962 ] final -165.73 input  175.53 | X-H torsion
[ 8008 7997 7996 7995 ] final  -34.32 input   59.86 | X-H torsion
[ 10167 10162 10161 10158 ] final   16.66 input  -65.29 | X-H torsion
[ 10718 10713 10712 10709 ] final  -39.27 input   66.30 | X-H torsion
[ 10763 10752 10751 10750 ] final  -78.98 input  -60.55 | X-H torsion
[ 11005 11000 10999 10996 ] final   51.47 input  -57.11 | X-H torsion

> <Gold.Protein.ActiveResidues>
 VAL166  LYS551  ARG553  GLY616  TRP617  ASP618  TYR619  PRO620  LYS621  CYS622 
 ASP623  PHE694  ASN695  SER759  ASP760  ASP761  ALA762  ILE779  LEU786  VAL792 
 PHE793  MET794  SER795  GLU796  ALA797  LYS798  CYS799  TRP800  GLU811  SER814 

> <Gold.Protein.RotatedAtoms>
  152.2108  134.8503  160.0497 H   0  0  0  0  0  0  0  0  0  0  0  0  # atno 6907 bound_to 6896
  151.9323  133.3609  159.3943 H   0  0  0  0  0  0  0  0  0  0  0  0  # atno 6908 bound_to 6896
  150.6976  134.4450  159.5353 H   0  0  0  0  0  0  0  0  0  0  0  0  # atno 6909 bound_to 6896
  144.7263  140.2771  143.6241 H   0  0  0  0  0  0  0  0  0  0  0  0  # atno 7974 bound_to 7965
  154.4124  140.1687  156.2031 H   0  0  0  0  0  0  0  0  0  0  0  0  # atno 8008 bound_to 7997
  155.9507  140.3401  155.6382 H   0  0  0  0  0  0  0  0  0  0  0  0  # atno 8009 bound_to 7997
  155.6873  140.0729  157.2452 H   0  0  0  0  0  0  0  0  0  0  0  0  # atno 8010 bound_to 7997
  140.5782  143.9032  150.6767 H   0  0  0  0  0  0  0  0  0  0  0  0  # atno 10167 bound_to 10162
  156.2943  130.4232  149.8207 H   0  0  0  0  0  0  0  0  0  0  0  0  # atno 10718 bound_to 10713
  154.5328  135.5711  153.6773 H   0  0  0  0  0  0  0  0  0  0  0  0  # atno 10763 bound_to 10752
  152.9943  135.6209  154.2605 H   0  0  0  0  0  0  0  0  0  0  0  0  # atno 10764 bound_to 10752
  154.2533  135.2858  155.2787 H   0  0  0  0  0  0  0  0  0  0  0  0  # atno 10765 bound_to 10752
  140.0930  134.5184  155.8834 H   0  0  0  0  0  0  0  0  0  0  0  0  # atno 11005 bound_to 11000
  145.7985  139.1955  143.2061 LP  0  0  0  0  0  0  0  0  0  0  0  0  # atno 17320 bound_to 7965
  146.0696  140.7883  142.9694 LP  0  0  0  0  0  0  0  0  0  0  0  0  # atno 17321 bound_to 7965
  140.2525  143.3583  152.1393 LP  0  0  0  0  0  0  0  0  0  0  0  0  # atno 17342 bound_to 10162
  139.5154  144.6963  151.5621 LP  0  0  0  0  0  0  0  0  0  0  0  0  # atno 17343 bound_to 10162
  156.5608  130.8383  151.3328 LP  0  0  0  0  0  0  0  0  0  0  0  0  # atno 17370 bound_to 10713
  157.7351  130.9757  150.2064 LP  0  0  0  0  0  0  0  0  0  0  0  0  # atno 17371 bound_to 10713
  141.2083  133.6673  156.6365 LP  0  0  0  0  0  0  0  0  0  0  0  0  # atno 17394 bound_to 11000
  140.3326  134.7916  157.4337 LP  0  0  0  0  0  0  0  0  0  0  0  0  # atno 17395 bound_to 11000

$$$$
