AV-unprocessed.smi:2509|AV-procd|sdf|9869|dock1
  -GOLD-   2272013503D 1   1.00000     0.00000
 Structure written by MMmdl.
 45 46  0  0  0  0  0  0  0  0  1 V2000
  150.8373  142.8030  156.2389 C   0  0  0  0  0  0  0  0  0  0  0  0
  150.3765  141.5650  157.0444 C   0  0  0  0  0  0  0  0  0  0  0  0
  151.6441  141.0099  157.7357 C   0  0  0  0  0  0  0  0  0  0  0  0
  149.3532  141.9960  158.1109 C   0  0  0  0  0  0  0  0  0  0  0  0
  149.7422  140.5089  156.1228 C   0  0  0  0  0  0  0  0  0  0  0  0
  150.4172  140.1845  155.0126 N   0  0  0  0  0  0  0  0  0  0  0  0
  149.8154  139.3561  154.1340 C   0  0  0  0  0  0  0  0  0  0  0  0
  148.5099  138.8672  154.3388 C   0  0  0  0  0  0  0  0  0  0  0  0
  147.9525  137.9923  153.3669 N   0  0  0  0  0  0  0  0  0  0  0  0
  146.6618  137.7264  153.1043 C   0  0  0  0  0  0  0  0  0  0  0  0
  145.6950  138.2477  153.6584 O   0  0  0  0  0  0  0  0  0  0  0  0
  146.5489  136.7986  152.1440 N   0  0  0  0  0  0  0  0  0  0  0  0
  145.2905  136.2456  151.6553 C   0  0  0  0  0  0  0  0  0  0  0  0
  145.4729  134.8772  150.9633 C   0  0  1  0  0  0  0  0  0  0  0  0
  146.0075  133.7974  151.9190 C   0  0  0  0  0  0  0  0  0  0  0  0
  145.3989  132.4605  151.4668 C   0  0  0  0  0  0  0  0  0  0  0  0
  144.5253  132.7765  150.2504 C   0  0  0  0  0  0  0  0  0  0  0  0
  144.1883  134.2606  150.3888 C   0  0  2  0  0  0  0  0  0  0  0  0
  143.8238  134.8097  149.1385 O   0  0  0  0  0  0  0  0  0  0  0  0
  147.8710  139.3049  155.5242 C   0  0  0  0  0  0  0  0  0  0  0  0
  148.4856  140.1340  156.3949 N   0  0  0  0  0  0  0  0  0  0  0  0
  151.3297  143.5338  156.8815 H   0  0  0  0  0  0  0  0  0  0  0  0
  150.0011  143.3171  155.7637 H   0  0  0  0  0  0  0  0  0  0  0  0
  151.5444  142.5268  155.4557 H   0  0  0  0  0  0  0  0  0  0  0  0
  152.3782  140.6697  157.0043 H   0  0  0  0  0  0  0  0  0  0  0  0
  151.4174  140.1694  158.3927 H   0  0  0  0  0  0  0  0  0  0  0  0
  152.1245  141.7697  158.3529 H   0  0  0  0  0  0  0  0  0  0  0  0
  149.7680  142.7515  158.7790 H   0  0  0  0  0  0  0  0  0  0  0  0
  149.0410  141.1501  158.7245 H   0  0  0  0  0  0  0  0  0  0  0  0
  148.4582  142.4177  157.6526 H   0  0  0  0  0  0  0  0  0  0  0  0
  150.3828  139.0865  153.2551 H   0  0  0  0  0  0  0  0  0  0  0  0
  148.6258  137.4913  152.8057 H   0  0  0  0  0  0  0  0  0  0  0  0
  147.3960  136.4228  151.7436 H   0  0  0  0  0  0  0  0  0  0  0  0
  144.5838  136.1586  152.4824 H   0  0  0  0  0  0  0  0  0  0  0  0
  144.8580  136.9624  150.9568 H   0  0  0  0  0  0  0  0  0  0  0  0
  146.1974  134.9777  150.1529 H   0  0  0  0  0  0  0  0  0  0  0  0
  147.0976  133.7694  151.9093 H   0  0  0  0  0  0  0  0  0  0  0  0
  145.7013  134.0024  152.9458 H   0  0  0  0  0  0  0  0  0  0  0  0
  146.1653  131.7233  151.2252 H   0  0  0  0  0  0  0  0  0  0  0  0
  144.7874  132.0448  152.2684 H   0  0  0  0  0  0  0  0  0  0  0  0
  145.1060  132.6082  149.3419 H   0  0  0  0  0  0  0  0  0  0  0  0
  143.6369  132.1465  150.1959 H   0  0  0  0  0  0  0  0  0  0  0  0
  143.3645  134.3851  151.0933 H   0  0  0  0  0  0  0  0  0  0  0  0
  142.9135  134.6125  148.9782 H   0  0  0  0  0  0  0  0  0  0  0  0
  146.8718  139.0108  155.8015 H   0  0  0  0  0  0  0  0  0  0  0  0
  1  2  1  0  0  0  0
  1 22  1  0  0  0  0
  1 23  1  0  0  0  0
  1 24  1  0  0  0  0
  2  3  1  0  0  0  0
  2  4  1  0  0  0  0
  2  5  1  0  0  0  0
  3 25  1  0  0  0  0
  3 26  1  0  0  0  0
  3 27  1  0  0  0  0
  4 28  1  0  0  0  0
  4 29  1  0  0  0  0
  4 30  1  0  0  0  0
  5 21  1  0  0  0  0
  5  6  2  0  0  0  0
  6  7  1  0  0  0  0
  7  8  2  0  0  0  0
  7 31  1  0  0  0  0
  8  9  1  0  0  0  0
  8 20  1  0  0  0  0
  9 10  1  0  0  0  0
  9 32  1  0  0  0  0
 10 11  2  0  0  0  0
 10 12  1  0  0  0  0
 12 13  1  0  0  0  0
 12 33  1  0  0  0  0
 13 14  1  0  0  0  0
 13 34  1  0  0  0  0
 13 35  1  0  0  0  0
 14 18  1  0  0  0  0
 14 15  1  0  0  0  0
 14 36  1  0  0  0  0
 15 16  1  0  0  0  0
 15 37  1  0  0  0  0
 15 38  1  0  0  0  0
 16 17  1  0  0  0  0
 16 39  1  0  0  0  0
 16 40  1  0  0  0  0
 17 18  1  0  0  0  0
 17 41  1  0  0  0  0
 17 42  1  0  0  0  0
 18 19  1  0  0  0  0
 18 43  1  0  0  0  0
 19 44  1  0  0  0  0
 20 21  2  0  0  0  0
 20 45  1  0  0  0  0
M  END
> <s_m_source_file>
AV-unprocessed.smi

> <i_m_source_file_index>
2509

> <i_lp_mmshare_version>
43012

> <i_f3d_flags>
0

> <s_epik_input>
W0NIM11DKFtDSDNdKShbQ0gzXSljMW5bY0hdYyhbY0hdbjEpW05IXUMoPU8pW05IXVtDSDJdW0NAQEhdMltDSDJdW0NIMl1bQ0gyXVtDQEhdMltPSF0=

> <s_epik_cmdline>
J2VwaWtfcHl0aG9uJywgJy1waCcsICc3LjAnLCAnLXRuJywgJzgnLCAnLW1hJywgJzIwMCcsICctbWV0YWxfYmluZGluZycsICctaW1hZScsICc8aW5maWxlLm1hZT4nLCAnLW9tYWUnLCAnPG91dGZpbGUubWFlPic=

> <r_lp_tautomer_probability>
1

> <r_epik_Ionization_Penalty>
2.77586e-05

> <r_epik_Ionization_Penalty_Charging>
0

> <r_epik_Ionization_Penalty_Neutral>
2.77586e-05

> <r_epik_State_Penalty>
-0

> <r_epik_Charging_Adjusted_Penalty>
0

> <i_epik_Tot_Q>
0

> <i_epik_Tot_abs_Q>
0

> <r_epik_Metal_State_Penalty>
-0

> <b_epik_Metal_Only>
0

> <s_lp_Force_Field>
OPLS_2005

> <r_lp_Energy>
20.408

> <b_lp_Chiralities_Consistent>
1

> <s_lp_Variant>
AV-unprocessed.smi:2509-4

> <Gold.Version>
5.8.1

> <Gold.Id.Protein>
6NUR|6NUR_protein|mol2

> <Gold.PLP.Fitness>
40.8856

> <Gold.PLP.PLP>
-28.8679

> <Gold.PLP.part.hbond>
-4.7041

> <Gold.PLP.part.metal>
0.0000

> <Gold.PLP.part.buried>
-1.3706

> <Gold.PLP.part.nonpolar>
-24.0996

> <Gold.PLP.part.repulsive>
0.3281

> <Gold.PLP.ligand.clash>
0.0000

> <Gold.PLP.ligand.torsion>
0.4221

> <Gold.PLP.Chemscore.Hbond>
3.4796

> <Gold.PLP.Chemscore.CHOScore>
0.7581

> <Gold.PLP.Chemscore.Metal>
0.0000

> <Gold.Chemscore.Hbonds>
donor molecule, donor type, donor heavy atom, donor atom, acceptor molecule, acceptor atom, score
      L1  H     9    32       P1  7948  0.99
      L1  H    12    33       P1  7948  0.99
      L1  H    19    44       P1 10186  1.00
      P1  H  7989  7998       L1     6  0.42
      L1  C     7    31       P1  7957  0.74

> <Gold.PLP.Chemscore.Internal.Correction>
0.1487

> <Gold.Rescore>
     Score         DG    S(hbond)    S(metal)    S(lipo)     H(rot)  DE(clash)    DE(int)     intcor
     17.00     -18.84       2.86        0.00      74.26       1.91       0.52       1.32       ----

> <Gold.Chemscore.Fitness>
16.9974

> <Gold.Chemscore.DG>
-18.8433

> <Gold.Chemscore.ZeroCoef>
-5.4800

> <Gold.Chemscore.Hbond>
2.8648

> <Gold.Chemscore.Metal>
0.0000

> <Gold.Chemscore.Lipo>
74.2611

> <Gold.Chemscore.Internal_Hbond>
0.0000

> <Gold.Chemscore.DEClash>
0.5227

> <Gold.Chemscore.DEInternal>
1.3232

> <Gold.Chemscore.Rot>
1.9116

> <Gold.Chemscore.Internal.Correction>
   9.000000E+99

> <Gold.Chemscore.Hbonds>
donor molecule, donor type, donor heavy atom, donor atom, acceptor molecule, acceptor atom, score
      L1  H     9    32       P1  7948  0.93
      L1  H    12    33       P1  7948  0.89
      L1  H    19    44       P1 10186  0.94
      P1  H  7989  7998       L1     6  0.01

> <Gold.Chemscore.Hbond.Weighted>
-9.5683

> <Gold.Chemscore.Metal.Weighted>
-0.0000

> <Gold.Chemscore.Lipo.Weighted>
-8.6885

> <Gold.Chemscore.Internal_Hbond.Weighted>
0.0000

> <Gold.Chemscore.DEClash.Weighted>
0.5227

> <Gold.Chemscore.DEInternal.Weighted>
1.3232

> <Gold.Chemscore.Rot.Weighted>
4.8936

> <Gold.Chemscore.Internal.Correction.Weighted>
   9.000000E+99

> <Gold.Protein.RotatedTorsions>
[ 6907 6896 6895 6894 ] final -171.32 input  -60.11 | X-H torsion
[ 7974 7965 7964 7962 ] final   80.03 input  175.53 | X-H torsion
[ 8008 7997 7996 7995 ] final -110.26 input   59.86 | X-H torsion
[ 10167 10162 10161 10158 ] final   22.62 input  -65.29 | X-H torsion
[ 10718 10713 10712 10709 ] final   92.30 input   66.30 | X-H torsion
[ 10763 10752 10751 10750 ] final -170.29 input  -60.55 | X-H torsion
[ 11005 11000 10999 10996 ] final -140.29 input  -57.11 | X-H torsion

> <Gold.Protein.ActiveResidues>
 VAL166  LYS551  ARG553  GLY616  TRP617  ASP618  TYR619  PRO620  LYS621  CYS622 
 ASP623  PHE694  ASN695  SER759  ASP760  ASP761  ALA762  ILE779  LEU786  VAL792 
 PHE793  MET794  SER795  GLU796  ALA797  LYS798  CYS799  TRP800  GLU811  SER814 

> <Gold.Protein.RotatedAtoms>
  151.5219  133.3465  159.2902 H   0  0  0  0  0  0  0  0  0  0  0  0  # atno 6907 bound_to 6896
  150.8647  134.8010  159.7120 H   0  0  0  0  0  0  0  0  0  0  0  0  # atno 6908 bound_to 6896
  152.4655  134.5094  159.9801 H   0  0  0  0  0  0  0  0  0  0  0  0  # atno 6909 bound_to 6896
  145.6565  139.2460  143.1947 H   0  0  0  0  0  0  0  0  0  0  0  0  # atno 7974 bound_to 7965
  154.9718  140.0397  157.2238 H   0  0  0  0  0  0  0  0  0  0  0  0  # atno 8008 bound_to 7997
  154.7794  140.2816  155.6053 H   0  0  0  0  0  0  0  0  0  0  0  0  # atno 8009 bound_to 7997
  156.2934  140.2594  156.2615 H   0  0  0  0  0  0  0  0  0  0  0  0  # atno 8010 bound_to 7997
  140.5334  143.9803  150.6478 H   0  0  0  0  0  0  0  0  0  0  0  0  # atno 10167 bound_to 10162
  157.6959  131.0438  150.3861 H   0  0  0  0  0  0  0  0  0  0  0  0  # atno 10718 bound_to 10713
  154.6431  135.2901  155.0079 H   0  0  0  0  0  0  0  0  0  0  0  0  # atno 10763 bound_to 10752
  154.1199  135.6550  153.4905 H   0  0  0  0  0  0  0  0  0  0  0  0  # atno 10764 bound_to 10752
  153.0337  135.5285  154.7306 H   0  0  0  0  0  0  0  0  0  0  0  0  # atno 10765 bound_to 10752
  140.8437  134.2371  157.4797 H   0  0  0  0  0  0  0  0  0  0  0  0  # atno 11005 bound_to 11000
  146.1161  140.7368  142.9480 LP  0  0  0  0  0  0  0  0  0  0  0  0  # atno 17320 bound_to 7965
  144.7104  140.4016  143.7085 LP  0  0  0  0  0  0  0  0  0  0  0  0  # atno 17321 bound_to 7965
  140.3184  143.3153  152.0809 LP  0  0  0  0  0  0  0  0  0  0  0  0  # atno 17342 bound_to 10162
  139.4962  144.6590  151.6507 LP  0  0  0  0  0  0  0  0  0  0  0  0  # atno 17343 bound_to 10162
  156.4270  130.3964  149.6786 LP  0  0  0  0  0  0  0  0  0  0  0  0  # atno 17370 bound_to 10713
  156.4017  130.7678  151.2686 LP  0  0  0  0  0  0  0  0  0  0  0  0  # atno 17371 bound_to 10713
  139.8703  134.9648  156.4508 LP  0  0  0  0  0  0  0  0  0  0  0  0  # atno 17394 bound_to 11000
  140.8867  133.7878  155.9526 LP  0  0  0  0  0  0  0  0  0  0  0  0  # atno 17395 bound_to 11000

$$$$
