AV-unprocessed.smi:3281|AV-procd|sdf|12559|dock7
  -GOLD-   2272018483D 1   1.00000     0.00000
 Structure written by MMmdl.
 36 37  0  0  0  0  0  0  0  0  1 V2000
  146.3881  138.8641  151.0931 C   0  0  0  0  0  0  0  0  0  0  0  0
  146.4607  138.4233  152.5590 C   0  0  0  0  0  0  0  0  0  0  0  0
  147.4600  139.1938  153.3572 C   0  0  0  0  0  0  0  0  0  0  0  0
  148.5987  138.7167  153.9579 C   0  0  0  0  0  0  0  0  0  0  0  0
  149.3359  139.6943  154.6297 N   0  0  0  0  0  0  0  0  0  0  0  0
  148.7681  140.9006  154.5586 C   0  0  0  0  0  0  0  0  0  0  0  0
  149.3719  142.1299  155.1586 C   0  0  0  0  0  0  0  0  0  0  0  0
  150.4262  141.8256  156.2350 C   0  0  0  0  0  0  0  0  0  0  0  0
  150.9463  143.0632  156.8013 N   0  0  0  0  0  0  0  0  0  0  0  0
  151.2758  142.9258  158.2140 C   0  0  1  0  0  0  0  0  0  0  0  0
  152.2967  141.7828  158.4115 C   0  0  0  0  0  0  0  0  0  0  0  0
  152.6953  141.5945  159.8843 C   0  0  0  0  0  0  0  0  0  0  0  0
  153.3518  142.8471  160.4800 C   0  0  0  0  0  0  0  0  0  0  0  0
  152.2085  144.2536  160.4655 S   0  0  0  0  0  0  0  0  0  0  0  0
  151.8398  144.2766  158.6902 C   0  0  0  0  0  0  0  0  0  0  0  0
  147.2732  140.9075  153.6286 S   0  0  0  0  0  0  0  0  0  0  0  0
  145.6442  138.2816  150.5494 H   0  0  0  0  0  0  0  0  0  0  0  0
  147.3468  138.7298  150.5915 H   0  0  0  0  0  0  0  0  0  0  0  0
  146.1117  139.9156  151.0127 H   0  0  0  0  0  0  0  0  0  0  0  0
  145.4747  138.5260  153.0134 H   0  0  0  0  0  0  0  0  0  0  0  0
  146.7039  137.3615  152.6054 H   0  0  0  0  0  0  0  0  0  0  0  0
  148.9618  137.6995  153.9543 H   0  0  0  0  0  0  0  0  0  0  0  0
  149.8066  142.7344  154.3616 H   0  0  0  0  0  0  0  0  0  0  0  0
  148.5710  142.7285  155.5941 H   0  0  0  0  0  0  0  0  0  0  0  0
  149.9769  141.2341  157.0336 H   0  0  0  0  0  0  0  0  0  0  0  0
  151.2265  141.2263  155.8017 H   0  0  0  0  0  0  0  0  0  0  0  0
  150.2522  143.7882  156.6876 H   0  0  0  0  0  0  0  0  0  0  0  0
  150.3652  142.7161  158.7774 H   0  0  0  0  0  0  0  0  0  0  0  0
  151.8890  140.8405  158.0461 H   0  0  0  0  0  0  0  0  0  0  0  0
  153.1904  141.9762  157.8160 H   0  0  0  0  0  0  0  0  0  0  0  0
  151.8179  141.3232  160.4726 H   0  0  0  0  0  0  0  0  0  0  0  0
  153.3870  140.7555  159.9634 H   0  0  0  0  0  0  0  0  0  0  0  0
  153.6614  142.6587  161.5081 H   0  0  0  0  0  0  0  0  0  0  0  0
  154.2487  143.1106  159.9185 H   0  0  0  0  0  0  0  0  0  0  0  0
  152.7505  144.5289  158.1450 H   0  0  0  0  0  0  0  0  0  0  0  0
  151.1229  145.0774  158.5041 H   0  0  0  0  0  0  0  0  0  0  0  0
  1  2  1  0  0  0  0
  1 17  1  0  0  0  0
  1 18  1  0  0  0  0
  1 19  1  0  0  0  0
  2  3  1  0  0  0  0
  2 20  1  0  0  0  0
  2 21  1  0  0  0  0
  3 16  1  0  0  0  0
  3  4  2  0  0  0  0
  4  5  1  0  0  0  0
  4 22  1  0  0  0  0
  5  6  2  0  0  0  0
  6  7  1  0  0  0  0
  6 16  1  0  0  0  0
  7  8  1  0  0  0  0
  7 23  1  0  0  0  0
  7 24  1  0  0  0  0
  8  9  1  0  0  0  0
  8 25  1  0  0  0  0
  8 26  1  0  0  0  0
  9 10  1  0  0  0  0
  9 27  1  0  0  0  0
 10 15  1  0  0  0  0
 10 11  1  0  0  0  0
 10 28  1  0  0  0  0
 11 12  1  0  0  0  0
 11 29  1  0  0  0  0
 11 30  1  0  0  0  0
 12 13  1  0  0  0  0
 12 31  1  0  0  0  0
 12 32  1  0  0  0  0
 13 14  1  0  0  0  0
 13 33  1  0  0  0  0
 13 34  1  0  0  0  0
 14 15  1  0  0  0  0
 15 35  1  0  0  0  0
 15 36  1  0  0  0  0
M  END
> <s_m_source_file>
AV-unprocessed.smi

> <i_m_source_file_index>
3281

> <i_lp_mmshare_version>
43012

> <i_f3d_flags>
0

> <s_epik_input>
W0NIM11bQ0gyXWMxW2NIXW5jKHMxKVtDSDJdW0NIMl1bTkhdW0NAQEhdMltDSDJdW0NIMl1bQ0gyXVNbQ0gyXTI=

> <s_epik_cmdline>
J2VwaWtfcHl0aG9uJywgJy1waCcsICc3LjAnLCAnLXRuJywgJzgnLCAnLW1hJywgJzIwMCcsICctbWV0YWxfYmluZGluZycsICctaW1hZScsICc8aW5maWxlLm1hZT4nLCAnLW9tYWUnLCAnPG91dGZpbGUubWFlPic=

> <r_epik_Ionization_Penalty>
2.53829

> <r_epik_Ionization_Penalty_Charging>
0

> <r_epik_Ionization_Penalty_Neutral>
2.53829

> <r_epik_State_Penalty>
2.70274

> <r_epik_Charging_Adjusted_Penalty>
2.70274

> <i_epik_Tot_Q>
0

> <i_epik_Tot_abs_Q>
0

> <r_epik_Metal_State_Penalty>
2.69977

> <b_epik_Metal_Only>
0

> <s_lp_Force_Field>
OPLS_2005

> <r_lp_Energy>
0.42492

> <b_lp_Chiralities_Consistent>
1

> <s_lp_Variant>
AV-unprocessed.smi:3281-4

> <Gold.Version>
5.8.1

> <Gold.Id.Protein>
6NUR|6NUR_protein|mol2

> <Gold.PLP.Fitness>
40.8096

> <Gold.PLP.PLP>
-36.3173

> <Gold.PLP.part.hbond>
-1.0000

> <Gold.PLP.part.metal>
0.0000

> <Gold.PLP.part.buried>
4.2279

> <Gold.PLP.part.nonpolar>
-39.2471

> <Gold.PLP.part.repulsive>
0.1107

> <Gold.PLP.ligand.clash>
0.0000

> <Gold.PLP.ligand.torsion>
0.4853

> <Gold.PLP.Chemscore.Hbond>
1.0000

> <Gold.PLP.Chemscore.CHOScore>
0.8120

> <Gold.PLP.Chemscore.Metal>
0.0000

> <Gold.Chemscore.Hbonds>
donor molecule, donor type, donor heavy atom, donor atom, acceptor molecule, acceptor atom, score
      L1  H     9    27       P1  8028  1.00
      L1  C     4    22       P1  7948  0.84

> <Gold.PLP.Chemscore.Internal.Correction>
0.0269

> <Gold.Rescore>
     Score         DG    S(hbond)    S(metal)    S(lipo)     H(rot)  DE(clash)    DE(int)     intcor
     18.25     -20.11       1.00        0.00     124.98       1.30       1.36       0.50       ----

> <Gold.Chemscore.Fitness>
18.2496

> <Gold.Chemscore.DG>
-20.1129

> <Gold.Chemscore.ZeroCoef>
-5.4800

> <Gold.Chemscore.Hbond>
0.9974

> <Gold.Chemscore.Metal>
0.0000

> <Gold.Chemscore.Lipo>
124.9792

> <Gold.Chemscore.Internal_Hbond>
0.0000

> <Gold.Chemscore.DEClash>
1.3627

> <Gold.Chemscore.DEInternal>
0.5006

> <Gold.Chemscore.Rot>
1.2972

> <Gold.Chemscore.Internal.Correction>
   9.000000E+99

> <Gold.Chemscore.Hbonds>
donor molecule, donor type, donor heavy atom, donor atom, acceptor molecule, acceptor atom, score
      L1  H     9    27       P1  8028  0.96

> <Gold.Chemscore.Hbond.Weighted>
-3.3312

> <Gold.Chemscore.Metal.Weighted>
-0.0000

> <Gold.Chemscore.Lipo.Weighted>
-14.6226

> <Gold.Chemscore.Internal_Hbond.Weighted>
0.0000

> <Gold.Chemscore.DEClash.Weighted>
1.3627

> <Gold.Chemscore.DEInternal.Weighted>
0.5006

> <Gold.Chemscore.Rot.Weighted>
3.3208

> <Gold.Chemscore.Internal.Correction.Weighted>
   9.000000E+99

> <Gold.Protein.RotatedTorsions>
[ 6907 6896 6895 6894 ] final -150.84 input  -60.11 | X-H torsion
[ 7974 7965 7964 7962 ] final  109.43 input  175.53 | X-H torsion
[ 8008 7997 7996 7995 ] final -168.25 input   59.86 | X-H torsion
[ 10167 10162 10161 10158 ] final   67.78 input  -65.29 | X-H torsion
[ 10718 10713 10712 10709 ] final  -88.17 input   66.30 | X-H torsion
[ 10763 10752 10751 10750 ] final   41.20 input  -60.55 | X-H torsion
[ 11005 11000 10999 10996 ] final  178.50 input  -57.11 | X-H torsion

> <Gold.Protein.ActiveResidues>
 VAL166  LYS551  ARG553  GLY616  TRP617  ASP618  TYR619  PRO620  LYS621  CYS622 
 ASP623  PHE694  ASN695  SER759  ASP760  ASP761  ALA762  ILE779  LEU786  VAL792 
 PHE793  MET794  SER795  GLU796  ALA797  LYS798  CYS799  TRP800  GLU811  SER814 

> <Gold.Protein.RotatedAtoms>
  151.2044  133.4592  159.2596 H   0  0  0  0  0  0  0  0  0  0  0  0  # atno 6907 bound_to 6896
  151.1038  134.9987  159.8471 H   0  0  0  0  0  0  0  0  0  0  0  0  # atno 6908 bound_to 6896
  152.5445  134.1968  159.8749 H   0  0  0  0  0  0  0  0  0  0  0  0  # atno 6909 bound_to 6896
  145.2679  139.2677  143.3982 H   0  0  0  0  0  0  0  0  0  0  0  0  # atno 7974 bound_to 7965
  155.8889  140.1021  157.1433 H   0  0  0  0  0  0  0  0  0  0  0  0  # atno 8008 bound_to 7997
  154.4013  140.1314  156.4354 H   0  0  0  0  0  0  0  0  0  0  0  0  # atno 8009 bound_to 7997
  155.7557  140.3464  155.5175 H   0  0  0  0  0  0  0  0  0  0  0  0  # atno 8010 bound_to 7997
  140.0858  144.5031  150.7132 H   0  0  0  0  0  0  0  0  0  0  0  0  # atno 10167 bound_to 10162
  155.9984  130.4826  150.4979 H   0  0  0  0  0  0  0  0  0  0  0  0  # atno 10718 bound_to 10713
  152.9915  135.6169  154.2749 H   0  0  0  0  0  0  0  0  0  0  0  0  # atno 10763 bound_to 10752
  154.2481  135.2786  155.2829 H   0  0  0  0  0  0  0  0  0  0  0  0  # atno 10764 bound_to 10752
  154.5312  135.5787  153.6818 H   0  0  0  0  0  0  0  0  0  0  0  0  # atno 10765 bound_to 10752
  140.3958  134.6822  157.4533 H   0  0  0  0  0  0  0  0  0  0  0  0  # atno 11005 bound_to 11000
  146.3255  140.3114  142.8627 LP  0  0  0  0  0  0  0  0  0  0  0  0  # atno 17320 bound_to 7965
  144.9361  140.8027  143.5659 LP  0  0  0  0  0  0  0  0  0  0  0  0  # atno 17321 bound_to 7965
  140.7054  143.2464  151.4741 LP  0  0  0  0  0  0  0  0  0  0  0  0  # atno 17342 bound_to 10162
  139.5753  144.1833  152.1894 LP  0  0  0  0  0  0  0  0  0  0  0  0  # atno 17343 bound_to 10162
  157.2967  131.0637  151.2097 LP  0  0  0  0  0  0  0  0  0  0  0  0  # atno 17370 bound_to 10713
  157.3090  130.6880  149.6205 LP  0  0  0  0  0  0  0  0  0  0  0  0  # atno 17371 bound_to 10713
  140.0373  134.6319  155.9027 LP  0  0  0  0  0  0  0  0  0  0  0  0  # atno 17394 bound_to 11000
  141.1875  133.6560  156.5283 LP  0  0  0  0  0  0  0  0  0  0  0  0  # atno 17395 bound_to 11000

$$$$
