AV-unprocessed.smi:120|AV-procd|sdf|1138|dock10
  -GOLD-   2262018273D 1   1.00000     0.00000
 Structure written by MMmdl.
 45 48  0  0  0  0  0  0  0  0  1 V2000
  148.5900  131.1021  160.5484 C   0  0  0  0  0  0  0  0  0  0  0  0
  147.4557  131.5286  161.2891 O   0  0  0  0  0  0  0  0  0  0  0  0
  147.2023  132.8814  161.3701 C   0  0  0  0  0  0  0  0  0  0  0  0
  146.1460  133.2835  162.2096 C   0  0  0  0  0  0  0  0  0  0  0  0
  145.8256  134.6445  162.3520 C   0  0  0  0  0  0  0  0  0  0  0  0
  146.5616  135.6179  161.6527 C   0  0  0  0  0  0  0  0  0  0  0  0
  147.6265  135.2498  160.7983 C   0  0  0  0  0  0  0  0  0  0  0  0
  148.3995  136.2733  160.0601 C   0  0  0  0  0  0  0  0  0  0  0  0
  148.0268  137.5468  160.0337 N   0  0  0  0  0  0  0  0  0  0  0  0
  149.0225  138.1468  159.2483 O   0  0  0  0  0  0  0  0  0  0  0  0
  149.8738  137.1504  158.8976 C   0  0  0  0  0  0  0  0  0  0  0  0
  151.0608  137.4865  158.0471 C   0  0  0  0  0  0  0  0  0  0  0  0
  151.9190  138.4532  158.7129 N   0  0  0  0  0  0  0  0  0  0  0  0
  152.7794  137.9915  159.7399 C   0  0  0  0  0  0  0  0  0  0  0  0
  152.8326  136.8057  160.0700 O   0  0  0  0  0  0  0  0  0  0  0  0
  153.5784  139.0349  160.3732 C   0  0  0  0  0  0  0  0  0  0  0  0
  154.4419  138.7087  161.3498 F   0  0  0  0  0  0  0  0  0  0  0  0
  153.4662  140.3271  159.9961 C   0  0  0  0  0  0  0  0  0  0  0  0
  152.5989  140.7518  159.0024 N   0  0  0  0  0  0  0  0  0  0  0  0
  152.4808  142.2081  158.6059 C   0  0  1  0  0  0  0  0  0  0  0  0
  151.0326  142.7016  158.7831 C   0  0  0  0  0  0  0  0  0  0  0  0
  151.2099  143.9713  159.5915 C   0  0  0  0  0  0  0  0  0  0  0  0
  152.4687  143.6627  160.3878 C   0  0  0  0  0  0  0  0  0  0  0  0
  153.2873  142.9942  159.4368 O   0  0  0  0  0  0  0  0  0  0  0  0
  151.7948  139.8083  158.3272 C   0  0  0  0  0  0  0  0  0  0  0  0
  151.0091  140.1642  157.4454 O   0  0  0  0  0  0  0  0  0  0  0  0
  149.5312  135.9546  159.3749 N   0  0  0  0  0  0  0  0  0  0  0  0
  147.9337  133.8736  160.6690 C   0  0  0  0  0  0  0  0  0  0  0  0
  148.6544  130.0146  160.5845 H   0  0  0  0  0  0  0  0  0  0  0  0
  149.5144  131.5004  160.9687 H   0  0  0  0  0  0  0  0  0  0  0  0
  148.5138  131.3930  159.4999 H   0  0  0  0  0  0  0  0  0  0  0  0
  145.5771  132.5415  162.7506 H   0  0  0  0  0  0  0  0  0  0  0  0
  145.0139  134.9434  162.9988 H   0  0  0  0  0  0  0  0  0  0  0  0
  146.2947  136.6573  161.7765 H   0  0  0  0  0  0  0  0  0  0  0  0
  151.6349  136.5895  157.8132 H   0  0  0  0  0  0  0  0  0  0  0  0
  150.7546  137.9129  157.0898 H   0  0  0  0  0  0  0  0  0  0  0  0
  154.0898  141.0448  160.5064 H   0  0  0  0  0  0  0  0  0  0  0  0
  152.8523  142.2686  157.5812 H   0  0  0  0  0  0  0  0  0  0  0  0
  150.5535  142.8675  157.8179 H   0  0  0  0  0  0  0  0  0  0  0  0
  150.4507  141.9708  159.3473 H   0  0  0  0  0  0  0  0  0  0  0  0
  151.3860  144.8184  158.9274 H   0  0  0  0  0  0  0  0  0  0  0  0
  150.3505  144.2015  160.2217 H   0  0  0  0  0  0  0  0  0  0  0  0
  152.9539  144.5581  160.7763 H   0  0  0  0  0  0  0  0  0  0  0  0
  152.2456  142.9998  161.2249 H   0  0  0  0  0  0  0  0  0  0  0  0
  148.7497  133.5902  160.0224 H   0  0  0  0  0  0  0  0  0  0  0  0
  1  2  1  0  0  0  0
  1 29  1  0  0  0  0
  1 30  1  0  0  0  0
  1 31  1  0  0  0  0
  2  3  1  0  0  0  0
  3 28  1  0  0  0  0
  3  4  2  0  0  0  0
  4  5  1  0  0  0  0
  4 32  1  0  0  0  0
  5  6  2  0  0  0  0
  5 33  1  0  0  0  0
  6  7  1  0  0  0  0
  6 34  1  0  0  0  0
  7  8  1  0  0  0  0
  7 28  2  0  0  0  0
  8 27  1  0  0  0  0
  8  9  2  0  0  0  0
  9 10  1  0  0  0  0
 10 11  1  0  0  0  0
 11 12  1  0  0  0  0
 11 27  2  0  0  0  0
 12 13  1  0  0  0  0
 12 35  1  0  0  0  0
 12 36  1  0  0  0  0
 13 25  1  0  0  0  0
 13 14  1  0  0  0  0
 14 15  2  0  0  0  0
 14 16  1  0  0  0  0
 16 17  1  0  0  0  0
 16 18  2  0  0  0  0
 18 19  1  0  0  0  0
 18 37  1  0  0  0  0
 19 20  1  0  0  0  0
 19 25  1  0  0  0  0
 20 24  1  0  0  0  0
 20 21  1  0  0  0  0
 20 38  1  0  0  0  0
 21 22  1  0  0  0  0
 21 39  1  0  0  0  0
 21 40  1  0  0  0  0
 22 23  1  0  0  0  0
 22 41  1  0  0  0  0
 22 42  1  0  0  0  0
 23 24  1  0  0  0  0
 23 43  1  0  0  0  0
 23 44  1  0  0  0  0
 25 26  2  0  0  0  0
 28 45  1  0  0  0  0
M  END
> <s_m_source_file>
AV-unprocessed.smi

> <i_m_source_file_index>
120

> <i_lp_mmshare_version>
43012

> <i_f3d_flags>
0

> <s_epik_input>
W0NIM11PYzFbY0hdW2NIXVtjSF1jKFtjSF0xKS1jMm5vYyhuMilbQ0gyXW4zYyg9TyljKEYpW2NIXW4oYzM9TylbQ0BASF00W0NIMl1bQ0gyXVtDSDJdTzQ=

> <s_epik_cmdline>
J2VwaWtfcHl0aG9uJywgJy1waCcsICc3LjAnLCAnLXRuJywgJzgnLCAnLW1hJywgJzIwMCcsICctbWV0YWxfYmluZGluZycsICctaW1hZScsICc8aW5maWxlLm1hZT4nLCAnLW9tYWUnLCAnPG91dGZpbGUubWFlPic=

> <r_lp_tautomer_probability>
1

> <r_epik_Ionization_Penalty>
4.93314e-09

> <r_epik_Ionization_Penalty_Charging>
4.92654e-09

> <r_epik_Ionization_Penalty_Neutral>
6.60436e-12

> <r_epik_State_Penalty>
-0

> <r_epik_Charging_Adjusted_Penalty>
4.92654e-09

> <i_epik_Tot_Q>
0

> <i_epik_Tot_abs_Q>
0

> <r_epik_Metal_State_Penalty>
-0

> <b_epik_Metal_Only>
0

> <s_epik_Chemistry_Notes>
This compound contains an acetal/aminal-like group ( X-CH(R)-Y where X, Y are N, S, or O) that may be acid/base labile, releasing an aldehyde.

> <s_lp_Force_Field>
OPLS_2005

> <r_lp_Energy>
36.9113

> <b_lp_Chiralities_Consistent>
1

> <s_lp_Variant>
AV-unprocessed.smi:120-2

> <Gold.Version>
5.8.1

> <Gold.Id.Protein>
6NUR|6NUR_protein|mol2

> <Gold.PLP.Fitness>
55.1155

> <Gold.PLP.PLP>
-47.3932

> <Gold.PLP.part.hbond>
-6.0000

> <Gold.PLP.part.metal>
0.0000

> <Gold.PLP.part.buried>
-5.6198

> <Gold.PLP.part.nonpolar>
-36.1245

> <Gold.PLP.part.repulsive>
0.0000

> <Gold.PLP.ligand.clash>
0.0000

> <Gold.PLP.ligand.torsion>
0.3506

> <Gold.PLP.Chemscore.Hbond>
2.7974

> <Gold.PLP.Chemscore.CHOScore>
0.0000

> <Gold.PLP.Chemscore.Metal>
0.0000

> <Gold.Chemscore.Hbonds>
donor molecule, donor type, donor heavy atom, donor atom, acceptor molecule, acceptor atom, score
      P1  H  6896  6907       L1    27  1.00
      P1  H  6896  6908       L1    15  0.98
      P1  H  6931  6943       L1     9  0.12
      P1  H  6934  6947       L1     9  0.62

> <Gold.PLP.Chemscore.Internal.Correction>
0.0314

> <Gold.Rescore>
     Score         DG    S(hbond)    S(metal)    S(lipo)     H(rot)  DE(clash)    DE(int)     intcor
     17.56     -19.05       2.17        0.00      97.55       1.99       0.02       1.48       ----

> <Gold.Chemscore.Fitness>
17.5584

> <Gold.Chemscore.DG>
-19.0546

> <Gold.Chemscore.ZeroCoef>
-5.4800

> <Gold.Chemscore.Hbond>
2.1707

> <Gold.Chemscore.Metal>
0.0000

> <Gold.Chemscore.Lipo>
97.5501

> <Gold.Chemscore.Internal_Hbond>
0.0000

> <Gold.Chemscore.DEClash>
0.0153

> <Gold.Chemscore.DEInternal>
1.4809

> <Gold.Chemscore.Rot>
1.9879

> <Gold.Chemscore.Internal.Correction>
   9.000000E+99

> <Gold.Chemscore.Hbonds>
donor molecule, donor type, donor heavy atom, donor atom, acceptor molecule, acceptor atom, score
      P1  H  6896  6907       L1    27  0.95
      P1  H  6896  6908       L1    15  0.88
      P1  H  6934  6947       L1     9  0.25

> <Gold.Chemscore.Hbond.Weighted>
-7.2503

> <Gold.Chemscore.Metal.Weighted>
-0.0000

> <Gold.Chemscore.Lipo.Weighted>
-11.4134

> <Gold.Chemscore.Internal_Hbond.Weighted>
0.0000

> <Gold.Chemscore.DEClash.Weighted>
0.0153

> <Gold.Chemscore.DEInternal.Weighted>
1.4809

> <Gold.Chemscore.Rot.Weighted>
5.0890

> <Gold.Chemscore.Internal.Correction.Weighted>
   9.000000E+99

> <Gold.Protein.RotatedTorsions>
[ 6907 6896 6895 6894 ] final  -72.57 input  -60.11 | X-H torsion
[ 7974 7965 7964 7962 ] final  103.60 input  175.53 | X-H torsion
[ 8008 7997 7996 7995 ] final  163.97 input   59.86 | X-H torsion
[ 10167 10162 10161 10158 ] final  111.16 input  -65.29 | X-H torsion
[ 10718 10713 10712 10709 ] final -150.68 input   66.30 | X-H torsion
[ 10763 10752 10751 10750 ] final -139.52 input  -60.55 | X-H torsion
[ 11005 11000 10999 10996 ] final  124.24 input  -57.11 | X-H torsion

> <Gold.Protein.ActiveResidues>
 VAL166  LYS551  ARG553  GLY616  TRP617  ASP618  TYR619  PRO620  LYS621  CYS622 
 ASP623  PHE694  ASN695  SER759  ASP760  ASP761  ALA762  ILE779  LEU786  VAL792 
 PHE793  MET794  SER795  GLU796  ALA797  LYS798  CYS799  TRP800  GLU811  SER814 

> <Gold.Protein.RotatedAtoms>
  150.7164  134.5143  159.5622 H   0  0  0  0  0  0  0  0  0  0  0  0  # atno 6907 bound_to 6896
  152.2713  134.7927  160.0423 H   0  0  0  0  0  0  0  0  0  0  0  0  # atno 6908 bound_to 6896
  151.8606  133.3421  159.3739 H   0  0  0  0  0  0  0  0  0  0  0  0  # atno 6909 bound_to 6896
  145.3438  139.2456  143.3595 H   0  0  0  0  0  0  0  0  0  0  0  0  # atno 7974 bound_to 7965
  156.1916  140.1709  156.8080 H   0  0  0  0  0  0  0  0  0  0  0  0  # atno 8008 bound_to 7997
  154.5478  140.0723  156.8650 H   0  0  0  0  0  0  0  0  0  0  0  0  # atno 8009 bound_to 7997
  155.3087  140.3366  155.4247 H   0  0  0  0  0  0  0  0  0  0  0  0  # atno 8010 bound_to 7997
  139.6632  144.7128  151.1826 H   0  0  0  0  0  0  0  0  0  0  0  0  # atno 10167 bound_to 10162
  156.4492  130.8160  151.2390 H   0  0  0  0  0  0  0  0  0  0  0  0  # atno 10718 bound_to 10713
  154.8606  135.3580  154.5560 H   0  0  0  0  0  0  0  0  0  0  0  0  # atno 10763 bound_to 10752
  153.6176  135.7007  153.5327 H   0  0  0  0  0  0  0  0  0  0  0  0  # atno 10764 bound_to 10752
  153.3156  135.4166  155.1333 H   0  0  0  0  0  0  0  0  0  0  0  0  # atno 10765 bound_to 10752
  139.9349  134.9640  156.8379 H   0  0  0  0  0  0  0  0  0  0  0  0  # atno 11005 bound_to 11000
  146.2996  140.4041  142.8709 LP  0  0  0  0  0  0  0  0  0  0  0  0  # atno 17320 bound_to 7965
  144.8770  140.7349  143.6011 LP  0  0  0  0  0  0  0  0  0  0  0  0  # atno 17321 bound_to 7965
  140.7588  143.5961  150.8747 LP  0  0  0  0  0  0  0  0  0  0  0  0  # atno 17342 bound_to 10162
  139.9620  143.6153  152.2999 LP  0  0  0  0  0  0  0  0  0  0  0  0  # atno 17343 bound_to 10162
  157.7503  131.0143  150.3459 LP  0  0  0  0  0  0  0  0  0  0  0  0  # atno 17370 bound_to 10713
  156.3834  130.3884  149.7084 LP  0  0  0  0  0  0  0  0  0  0  0  0  # atno 17371 bound_to 10713
  140.6102  134.0090  155.7573 LP  0  0  0  0  0  0  0  0  0  0  0  0  # atno 17394 bound_to 11000
  141.0958  133.9846  157.3162 LP  0  0  0  0  0  0  0  0  0  0  0  0  # atno 17395 bound_to 11000

$$$$
