AV-unprocessed.smi:295|AV-procd|sdf|2256|dock2
  -GOLD-   2262022143D 1   1.00000     0.00000
 Structure written by MMmdl.
 35 36  0  0  0  0  0  0  0  0  1 V2000
  147.9156  133.1790  152.7386 C   0  0  0  0  0  0  0  0  0  0  0  0
  146.5178  133.0727  152.1030 C   0  0  2  0  0  0  0  0  0  0  0  0
  146.6126  132.8636  150.5771 C   0  0  0  0  0  0  0  0  0  0  0  0
  145.2233  132.7025  149.9404 C   0  0  0  0  0  0  0  0  0  0  0  0
  144.3161  133.8973  150.2683 C   0  0  0  0  0  0  0  0  0  0  0  0
  144.2118  134.1169  151.7880 C   0  0  0  0  0  0  0  0  0  0  0  0
  145.5945  134.2690  152.4532 C   0  0  2  0  0  0  0  0  0  0  0  0
  146.2015  135.5379  152.0542 N   0  0  0  0  0  0  0  0  0  0  0  0
  145.6026  136.7389  152.0329 C   0  0  0  0  0  0  0  0  0  0  0  0
  144.4055  136.9140  152.2567 O   0  0  0  0  0  0  0  0  0  0  0  0
  146.5126  137.9337  151.7484 C   0  0  0  0  0  0  0  0  0  0  0  0
  146.5528  138.8239  152.8952 N   0  0  0  0  0  0  0  0  0  0  0  0
  147.1035  140.0344  153.0348 C   0  0  0  0  0  0  0  0  0  0  0  0
  146.9002  140.5854  154.2252 N   0  0  0  0  0  0  0  0  0  0  0  0
  146.1686  139.5863  154.7991 C   0  0  0  0  0  0  0  0  0  0  0  0
  145.6577  139.7011  156.1542 C   0  0  0  0  0  0  0  0  0  0  0  0
  145.2515  139.7924  157.2338 N   0  0  0  0  0  0  0  0  0  0  0  0
  145.9322  138.5059  154.0584 N   0  0  0  0  0  0  0  0  0  0  0  0
  148.4917  134.0025  152.3157 H   0  0  0  0  0  0  0  0  0  0  0  0
  148.4869  132.2647  152.5764 H   0  0  0  0  0  0  0  0  0  0  0  0
  147.8468  133.3378  153.8149 H   0  0  0  0  0  0  0  0  0  0  0  0
  146.0512  132.1800  152.5222 H   0  0  0  0  0  0  0  0  0  0  0  0
  147.1304  133.7059  150.1158 H   0  0  0  0  0  0  0  0  0  0  0  0
  147.2146  131.9806  150.3603 H   0  0  0  0  0  0  0  0  0  0  0  0
  145.3205  132.5953  148.8599 H   0  0  0  0  0  0  0  0  0  0  0  0
  144.7612  131.7830  150.3019 H   0  0  0  0  0  0  0  0  0  0  0  0
  144.7070  134.7958  149.7892 H   0  0  0  0  0  0  0  0  0  0  0  0
  143.3228  133.7344  149.8491 H   0  0  0  0  0  0  0  0  0  0  0  0
  143.5944  134.9914  151.9975 H   0  0  0  0  0  0  0  0  0  0  0  0
  143.6935  133.2675  152.2344 H   0  0  0  0  0  0  0  0  0  0  0  0
  145.4360  134.2698  153.5330 H   0  0  0  0  0  0  0  0  0  0  0  0
  147.1899  135.5111  151.8482 H   0  0  0  0  0  0  0  0  0  0  0  0
  147.5216  137.5904  151.5151 H   0  0  0  0  0  0  0  0  0  0  0  0
  146.1482  138.4889  150.8830 H   0  0  0  0  0  0  0  0  0  0  0  0
  147.6504  140.5273  152.2444 H   0  0  0  0  0  0  0  0  0  0  0  0
  1  2  1  0  0  0  0
  1 19  1  0  0  0  0
  1 20  1  0  0  0  0
  1 21  1  0  0  0  0
  2  7  1  0  0  0  0
  2  3  1  0  0  0  0
  2 22  1  0  0  0  0
  3  4  1  0  0  0  0
  3 23  1  0  0  0  0
  3 24  1  0  0  0  0
  4  5  1  0  0  0  0
  4 25  1  0  0  0  0
  4 26  1  0  0  0  0
  5  6  1  0  0  0  0
  5 27  1  0  0  0  0
  5 28  1  0  0  0  0
  6  7  1  0  0  0  0
  6 29  1  0  0  0  0
  6 30  1  0  0  0  0
  7  8  1  0  0  0  0
  7 31  1  0  0  0  0
  8  9  1  0  0  0  0
  8 32  1  0  0  0  0
  9 10  2  0  0  0  0
  9 11  1  0  0  0  0
 11 12  1  0  0  0  0
 11 33  1  0  0  0  0
 11 34  1  0  0  0  0
 12 18  1  0  0  0  0
 12 13  1  0  0  0  0
 13 14  2  0  0  0  0
 13 35  1  0  0  0  0
 14 15  1  0  0  0  0
 15 16  1  0  0  0  0
 15 18  2  0  0  0  0
 16 17  3  0  0  0  0
M  END
> <s_m_source_file>
AV-unprocessed.smi

> <i_m_source_file_index>
295

> <i_lp_mmshare_version>
43012

> <i_f3d_flags>
0

> <s_epik_input>
W0NIM11bQ0BASF0xW0NIMl1bQ0gyXVtDSDJdW0NIMl1bQ0BIXTFbTkhdQyg9TylbQ0gyXW4yW2NIXW5jKG4yKUMjTg==

> <s_epik_cmdline>
J2VwaWtfcHl0aG9uJywgJy1waCcsICc3LjAnLCAnLXRuJywgJzgnLCAnLW1hJywgJzIwMCcsICctbWV0YWxfYmluZGluZycsICctaW1hZScsICc8aW5maWxlLm1hZT4nLCAnLW9tYWUnLCAnPG91dGZpbGUubWFlPic=

> <r_lp_tautomer_probability>
1

> <r_epik_Ionization_Penalty>
5.31112e-08

> <r_epik_Ionization_Penalty_Charging>
0

> <r_epik_Ionization_Penalty_Neutral>
5.31112e-08

> <r_epik_State_Penalty>
-0

> <r_epik_Charging_Adjusted_Penalty>
0

> <i_epik_Tot_Q>
0

> <i_epik_Tot_abs_Q>
0

> <r_epik_Metal_State_Penalty>
-0

> <b_epik_Metal_Only>
0

> <s_lp_Force_Field>
OPLS_2005

> <r_lp_Energy>
12.1326

> <b_lp_Chiralities_Consistent>
1

> <s_lp_Variant>
AV-unprocessed.smi:295-3

> <Gold.Version>
5.8.1

> <Gold.Id.Protein>
6NUR|6NUR_protein|mol2

> <Gold.PLP.Fitness>
31.6734

> <Gold.PLP.PLP>
-26.0242

> <Gold.PLP.part.hbond>
-1.0000

> <Gold.PLP.part.metal>
0.0000

> <Gold.PLP.part.buried>
0.4077

> <Gold.PLP.part.nonpolar>
-26.0801

> <Gold.PLP.part.repulsive>
0.9231

> <Gold.PLP.ligand.clash>
0.0000

> <Gold.PLP.ligand.torsion>
0.1800

> <Gold.PLP.Chemscore.Hbond>
1.0000

> <Gold.PLP.Chemscore.CHOScore>
0.9986

> <Gold.PLP.Chemscore.Metal>
0.0000

> <Gold.Chemscore.Hbonds>
donor molecule, donor type, donor heavy atom, donor atom, acceptor molecule, acceptor atom, score
      L1  H     8    32       P1  7948  1.00
      L1  C    13    35       P1  7957  1.00

> <Gold.PLP.Chemscore.Internal.Correction>
0.0134

> <Gold.Rescore>
     Score         DG    S(hbond)    S(metal)    S(lipo)     H(rot)  DE(clash)    DE(int)     intcor
      7.33     -10.35       0.98        0.00      56.33       1.95       0.11       2.91       ----

> <Gold.Chemscore.Fitness>
7.3345

> <Gold.Chemscore.DG>
-10.3505

> <Gold.Chemscore.ZeroCoef>
-5.4800

> <Gold.Chemscore.Hbond>
0.9777

> <Gold.Chemscore.Metal>
0.0000

> <Gold.Chemscore.Lipo>
56.3259

> <Gold.Chemscore.Internal_Hbond>
0.0000

> <Gold.Chemscore.DEClash>
0.1104

> <Gold.Chemscore.DEInternal>
2.9056

> <Gold.Chemscore.Rot>
1.9474

> <Gold.Chemscore.Internal.Correction>
   9.000000E+99

> <Gold.Chemscore.Hbonds>
donor molecule, donor type, donor heavy atom, donor atom, acceptor molecule, acceptor atom, score
      L1  H     8    32       P1  7948  0.98

> <Gold.Chemscore.Hbond.Weighted>
-3.2656

> <Gold.Chemscore.Metal.Weighted>
-0.0000

> <Gold.Chemscore.Lipo.Weighted>
-6.5901

> <Gold.Chemscore.Internal_Hbond.Weighted>
0.0000

> <Gold.Chemscore.DEClash.Weighted>
0.1104

> <Gold.Chemscore.DEInternal.Weighted>
2.9056

> <Gold.Chemscore.Rot.Weighted>
4.9852

> <Gold.Chemscore.Internal.Correction.Weighted>
   9.000000E+99

> <Gold.Protein.RotatedTorsions>
[ 6907 6896 6895 6894 ] final  108.84 input  -60.11 | X-H torsion
[ 7974 7965 7964 7962 ] final  138.90 input  175.53 | X-H torsion
[ 8008 7997 7996 7995 ] final  134.99 input   59.86 | X-H torsion
[ 10167 10162 10161 10158 ] final -132.36 input  -65.29 | X-H torsion
[ 10718 10713 10712 10709 ] final   23.67 input   66.30 | X-H torsion
[ 10763 10752 10751 10750 ] final   34.93 input  -60.55 | X-H torsion
[ 11005 11000 10999 10996 ] final  150.10 input  -57.11 | X-H torsion

> <Gold.Protein.ActiveResidues>
 VAL166  LYS551  ARG553  GLY616  TRP617  ASP618  TYR619  PRO620  LYS621  CYS622 
 ASP623  PHE694  ASN695  SER759  ASP760  ASP761  ALA762  ILE779  LEU786  VAL792 
 PHE793  MET794  SER795  GLU796  ALA797  LYS798  CYS799  TRP800  GLU811  SER814 

> <Gold.Protein.RotatedAtoms>
  152.5094  133.9030  159.7450 H   0  0  0  0  0  0  0  0  0  0  0  0  # atno 6907 bound_to 6896
  150.9442  133.6614  159.2791 H   0  0  0  0  0  0  0  0  0  0  0  0  # atno 6908 bound_to 6896
  151.3915  135.0961  159.9580 H   0  0  0  0  0  0  0  0  0  0  0  0  # atno 6909 bound_to 6896
  144.9329  139.5025  143.5609 H   0  0  0  0  0  0  0  0  0  0  0  0  # atno 7974 bound_to 7965
  156.3001  140.2482  156.3507 H   0  0  0  0  0  0  0  0  0  0  0  0  # atno 8008 bound_to 7997
  154.8968  140.0407  157.1890 H   0  0  0  0  0  0  0  0  0  0  0  0  # atno 8009 bound_to 7997
  154.8541  140.2910  155.5584 H   0  0  0  0  0  0  0  0  0  0  0  0  # atno 8010 bound_to 7997
  139.9093  143.6513  152.2578 H   0  0  0  0  0  0  0  0  0  0  0  0  # atno 10167 bound_to 10162
  157.1692  130.6752  149.6072 H   0  0  0  0  0  0  0  0  0  0  0  0  # atno 10718 bound_to 10713
  153.0142  135.6347  154.1746 H   0  0  0  0  0  0  0  0  0  0  0  0  # atno 10763 bound_to 10752
  154.1487  135.2830  155.3143 H   0  0  0  0  0  0  0  0  0  0  0  0  # atno 10764 bound_to 10752
  154.6070  135.5569  153.7494 H   0  0  0  0  0  0  0  0  0  0  0  0  # atno 10765 bound_to 10752
  140.1102  134.8929  157.1925 H   0  0  0  0  0  0  0  0  0  0  0  0  # atno 11005 bound_to 11000
  146.3254  139.8292  142.8911 LP  0  0  0  0  0  0  0  0  0  0  0  0  # atno 17320 bound_to 7965
  145.3113  141.0220  143.3553 LP  0  0  0  0  0  0  0  0  0  0  0  0  # atno 17321 bound_to 7965
  139.6956  144.7641  151.1362 LP  0  0  0  0  0  0  0  0  0  0  0  0  # atno 17342 bound_to 10162
  140.7689  143.5528  150.9185 LP  0  0  0  0  0  0  0  0  0  0  0  0  # atno 17343 bound_to 10162
  155.9741  130.4685  150.6361 LP  0  0  0  0  0  0  0  0  0  0  0  0  # atno 17370 bound_to 10713
  157.4059  131.0816  151.1266 LP  0  0  0  0  0  0  0  0  0  0  0  0  # atno 17371 bound_to 10713
  140.3101  134.3033  155.7269 LP  0  0  0  0  0  0  0  0  0  0  0  0  # atno 17394 bound_to 11000
  141.2128  133.7645  156.9765 LP  0  0  0  0  0  0  0  0  0  0  0  0  # atno 17395 bound_to 11000

$$$$
