AV-unprocessed.smi:216|AV-procd|sdf|1659|dock4
  -GOLD-   2262020 53D 1   1.00000     0.00000
 Structure written by MMmdl.
 65 69  0  0  0  0  0  0  0  0  1 V2000
  154.1641  141.5035  160.1284 C   0  0  0  0  0  0  0  0  0  0  0  0
  153.0695  141.5414  159.0400 C   0  0  1  0  0  0  0  0  0  0  0  0
  152.2163  140.2599  159.1263 C   0  0  0  0  0  0  0  0  0  0  0  0
  151.1856  140.1934  157.9964 C   0  0  0  0  0  0  0  0  0  0  0  0
  150.3711  141.4047  157.9729 N   0  0  0  0  0  0  0  0  0  0  0  0
  149.2362  141.3707  157.2275 C   0  0  0  0  0  0  0  0  0  0  0  0
  149.2372  140.7524  156.0155 N   0  0  0  0  0  0  0  0  0  0  0  0
  148.1277  140.7174  155.2723 C   0  0  0  0  0  0  0  0  0  0  0  0
  146.9245  141.2235  155.5463 N   0  0  0  0  0  0  0  0  0  0  0  0
  146.9121  141.8390  156.7631 C   0  0  0  0  0  0  0  0  0  0  0  0
  148.0142  141.9624  157.6562 C   0  0  0  0  0  0  0  0  0  0  0  0
  147.6206  142.6531  158.7952 N   0  0  0  0  0  0  0  0  0  0  0  0
  146.3642  142.9328  158.5832 C   0  0  0  0  0  0  0  0  0  0  0  0
  145.8500  142.4621  157.3960 N   0  0  0  0  0  0  0  0  0  0  0  0
  144.4852  142.6170  156.9126 C   0  0  0  0  0  0  0  0  0  0  0  0
  144.2134  143.9430  156.1402 C   0  0  0  0  0  0  0  0  0  0  0  0
  145.0634  144.0102  154.8387 C   0  0  0  0  0  0  0  0  0  0  0  0
  144.8382  142.8999  153.9929 O   0  0  0  0  0  0  0  0  0  0  0  0
  142.6981  144.0253  155.8274 C   0  0  0  0  0  0  0  0  0  0  0  0
  142.2620  145.4139  155.3254 C   0  0  0  0  0  0  0  0  0  0  0  0
  142.6212  146.4083  156.2756 O   0  0  0  0  0  0  0  0  0  0  0  0
  144.0247  146.4901  156.4846 C   0  0  0  0  0  0  0  0  0  0  0  0
  144.5546  145.1563  157.0421 C   0  0  0  0  0  0  0  0  0  0  0  0
  151.1331  142.6487  157.8598 C   0  0  0  0  0  0  0  0  0  0  0  0
  152.1740  142.8304  159.0056 C   0  0  0  0  0  0  0  0  0  0  0  0
  151.4561  143.0798  160.3667 C   0  0  0  0  0  0  0  0  0  0  0  0
  150.7061  144.4235  160.4413 C   0  0  0  0  0  0  0  0  0  0  0  0
  151.6268  145.6031  160.1054 C   0  0  0  0  0  0  0  0  0  0  0  0
  152.2898  145.4081  158.7362 C   0  0  0  0  0  0  0  0  0  0  0  0
  153.0526  144.0723  158.6780 C   0  0  0  0  0  0  0  0  0  0  0  0
  153.7444  141.4886  161.1336 H   0  0  0  0  0  0  0  0  0  0  0  0
  154.8546  142.3421  160.0608 H   0  0  0  0  0  0  0  0  0  0  0  0
  154.7676  140.6011  160.0273 H   0  0  0  0  0  0  0  0  0  0  0  0
  153.5949  141.4977  158.0845 H   0  0  0  0  0  0  0  0  0  0  0  0
  152.8570  139.3788  159.0742 H   0  0  0  0  0  0  0  0  0  0  0  0
  151.7089  140.2074  160.0899 H   0  0  0  0  0  0  0  0  0  0  0  0
  151.6936  140.0793  157.0376 H   0  0  0  0  0  0  0  0  0  0  0  0
  150.5521  139.3159  158.1346 H   0  0  0  0  0  0  0  0  0  0  0  0
  148.2167  140.2112  154.3226 H   0  0  0  0  0  0  0  0  0  0  0  0
  145.7706  143.4835  159.2984 H   0  0  0  0  0  0  0  0  0  0  0  0
  144.2512  141.7555  156.2857 H   0  0  0  0  0  0  0  0  0  0  0  0
  143.8181  142.5399  157.7723 H   0  0  0  0  0  0  0  0  0  0  0  0
  144.8478  144.9078  154.2618 H   0  0  0  0  0  0  0  0  0  0  0  0
  146.1274  144.0571  155.0707 H   0  0  0  0  0  0  0  0  0  0  0  0
  144.0652  143.0684  153.4759 H   0  0  0  0  0  0  0  0  0  0  0  0
  142.4106  143.2623  155.1035 H   0  0  0  0  0  0  0  0  0  0  0  0
  142.1298  143.8041  156.7319 H   0  0  0  0  0  0  0  0  0  0  0  0
  142.6954  145.6453  154.3520 H   0  0  0  0  0  0  0  0  0  0  0  0
  141.1799  145.4360  155.1953 H   0  0  0  0  0  0  0  0  0  0  0  0
  144.5287  146.7684  155.5585 H   0  0  0  0  0  0  0  0  0  0  0  0
  144.2222  147.2916  157.1966 H   0  0  0  0  0  0  0  0  0  0  0  0
  144.1157  145.0079  158.0295 H   0  0  0  0  0  0  0  0  0  0  0  0
  145.6314  145.2315  157.1968 H   0  0  0  0  0  0  0  0  0  0  0  0
  151.6502  142.6295  156.8992 H   0  0  0  0  0  0  0  0  0  0  0  0
  150.4594  143.5018  157.8111 H   0  0  0  0  0  0  0  0  0  0  0  0
  150.7576  142.2732  160.5889 H   0  0  0  0  0  0  0  0  0  0  0  0
  152.1839  143.0753  161.1767 H   0  0  0  0  0  0  0  0  0  0  0  0
  149.8551  144.4225  159.7631 H   0  0  0  0  0  0  0  0  0  0  0  0
  150.2913  144.5558  161.4408 H   0  0  0  0  0  0  0  0  0  0  0  0
  151.0602  146.5347  160.1175 H   0  0  0  0  0  0  0  0  0  0  0  0
  152.3945  145.6971  160.8745 H   0  0  0  0  0  0  0  0  0  0  0  0
  151.5386  145.4551  157.9476 H   0  0  0  0  0  0  0  0  0  0  0  0
  152.9787  146.2311  158.5438 H   0  0  0  0  0  0  0  0  0  0  0  0
  153.8771  144.1496  159.3845 H   0  0  0  0  0  0  0  0  0  0  0  0
  153.5127  143.9590  157.6957 H   0  0  0  0  0  0  0  0  0  0  0  0
  1  2  1  0  0  0  0
  1 31  1  0  0  0  0
  1 32  1  0  0  0  0
  1 33  1  0  0  0  0
  2 25  1  0  0  0  0
  2  3  1  0  0  0  0
  2 34  1  0  0  0  0
  3  4  1  0  0  0  0
  3 35  1  0  0  0  0
  3 36  1  0  0  0  0
  4  5  1  0  0  0  0
  4 37  1  0  0  0  0
  4 38  1  0  0  0  0
  5  6  1  0  0  0  0
  5 24  1  0  0  0  0
  6 11  1  0  0  0  0
  6  7  2  0  0  0  0
  7  8  1  0  0  0  0
  8  9  2  0  0  0  0
  8 39  1  0  0  0  0
  9 10  1  0  0  0  0
 10 14  1  0  0  0  0
 10 11  2  0  0  0  0
 11 12  1  0  0  0  0
 12 13  2  0  0  0  0
 13 14  1  0  0  0  0
 13 40  1  0  0  0  0
 14 15  1  0  0  0  0
 15 16  1  0  0  0  0
 15 41  1  0  0  0  0
 15 42  1  0  0  0  0
 16 23  1  0  0  0  0
 16 17  1  0  0  0  0
 16 19  1  0  0  0  0
 17 18  1  0  0  0  0
 17 43  1  0  0  0  0
 17 44  1  0  0  0  0
 18 45  1  0  0  0  0
 19 20  1  0  0  0  0
 19 46  1  0  0  0  0
 19 47  1  0  0  0  0
 20 21  1  0  0  0  0
 20 48  1  0  0  0  0
 20 49  1  0  0  0  0
 21 22  1  0  0  0  0
 22 23  1  0  0  0  0
 22 50  1  0  0  0  0
 22 51  1  0  0  0  0
 23 52  1  0  0  0  0
 23 53  1  0  0  0  0
 24 25  1  0  0  0  0
 24 54  1  0  0  0  0
 24 55  1  0  0  0  0
 25 30  1  0  0  0  0
 25 26  1  0  0  0  0
 26 27  1  0  0  0  0
 26 56  1  0  0  0  0
 26 57  1  0  0  0  0
 27 28  1  0  0  0  0
 27 58  1  0  0  0  0
 27 59  1  0  0  0  0
 28 29  1  0  0  0  0
 28 60  1  0  0  0  0
 28 61  1  0  0  0  0
 29 30  1  0  0  0  0
 29 62  1  0  0  0  0
 29 63  1  0  0  0  0
 30 64  1  0  0  0  0
 30 65  1  0  0  0  0
M  END
> <s_m_source_file>
AV-unprocessed.smi

> <i_m_source_file_index>
216

> <i_lp_mmshare_version>
43012

> <i_f3d_flags>
0

> <s_epik_input>
W0NIMl0xW0NIMl1bQ0gyXVtDSDJdW0NIMl1DMTJbQ0BIXShbQ0gzXSlbQ0gyXVtDSDJdTihbQ0gyXTIpYyhuW2NIXW4zKWMoYzM0KW5bY0hdbjRbQ0gyXUM1KFtDSDJdW09IXSlbQ0gyXVtDSDJdT1tDSDJdW0NIMl01

> <s_epik_cmdline>
J2VwaWtfcHl0aG9uJywgJy1waCcsICc3LjAnLCAnLXRuJywgJzgnLCAnLW1hJywgJzIwMCcsICctbWV0YWxfYmluZGluZycsICctaW1hZScsICc8aW5maWxlLm1hZT4nLCAnLW9tYWUnLCAnPG91dGZpbGUubWFlPic=

> <r_lp_tautomer_probability>
1

> <r_epik_Ionization_Penalty>
0.00291566

> <r_epik_Ionization_Penalty_Charging>
0

> <r_epik_Ionization_Penalty_Neutral>
0.00291566

> <r_epik_State_Penalty>
0.00199166

> <r_epik_Charging_Adjusted_Penalty>
0.00199166

> <i_epik_Tot_Q>
0

> <i_epik_Tot_abs_Q>
0

> <r_epik_Metal_State_Penalty>
-0

> <b_epik_Metal_Only>
0

> <s_lp_Force_Field>
OPLS_2005

> <r_lp_Energy>
50.0726

> <b_lp_Chiralities_Consistent>
1

> <s_lp_Variant>
AV-unprocessed.smi:216-2

> <Gold.Version>
5.8.1

> <Gold.Id.Protein>
6NUR|6NUR_protein|mol2

> <Gold.PLP.Fitness>
45.6355

> <Gold.PLP.PLP>
-45.3179

> <Gold.PLP.part.hbond>
-1.9754

> <Gold.PLP.part.metal>
0.0000

> <Gold.PLP.part.buried>
-6.8563

> <Gold.PLP.part.nonpolar>
-37.4116

> <Gold.PLP.part.repulsive>
0.2985

> <Gold.PLP.ligand.clash>
0.0000

> <Gold.PLP.ligand.torsion>
0.9782

> <Gold.PLP.Chemscore.Hbond>
0.6500

> <Gold.PLP.Chemscore.CHOScore>
0.0000

> <Gold.PLP.Chemscore.Metal>
0.0000

> <Gold.Chemscore.Hbonds>
donor molecule, donor type, donor heavy atom, donor atom, acceptor molecule, acceptor atom, score
      L1  H    18    45       P1 10174  0.65

> <Gold.PLP.Chemscore.Internal.Correction>
0.3239

> <Gold.Rescore>
     Score         DG    S(hbond)    S(metal)    S(lipo)     H(rot)  DE(clash)    DE(int)     intcor
     14.99     -16.59       0.12        0.00     139.72       2.20       0.62       0.97       ----

> <Gold.Chemscore.Fitness>
14.9949

> <Gold.Chemscore.DG>
-16.5900

> <Gold.Chemscore.ZeroCoef>
-5.4800

> <Gold.Chemscore.Hbond>
0.1197

> <Gold.Chemscore.Metal>
0.0000

> <Gold.Chemscore.Lipo>
139.7203

> <Gold.Chemscore.Internal_Hbond>
0.0000

> <Gold.Chemscore.DEClash>
0.6222

> <Gold.Chemscore.DEInternal>
0.9730

> <Gold.Chemscore.Rot>
2.2019

> <Gold.Chemscore.Internal.Correction>
   9.000000E+99

> <Gold.Chemscore.Hbonds>
donor molecule, donor type, donor heavy atom, donor atom, acceptor molecule, acceptor atom, score
      L1  H    18    45       P1 10174  0.05

> <Gold.Chemscore.Hbond.Weighted>
-0.3997

> <Gold.Chemscore.Metal.Weighted>
-0.0000

> <Gold.Chemscore.Lipo.Weighted>
-16.3473

> <Gold.Chemscore.Internal_Hbond.Weighted>
0.0000

> <Gold.Chemscore.DEClash.Weighted>
0.6222

> <Gold.Chemscore.DEInternal.Weighted>
0.9730

> <Gold.Chemscore.Rot.Weighted>
5.6370

> <Gold.Chemscore.Internal.Correction.Weighted>
   9.000000E+99

> <Gold.Protein.RotatedTorsions>
[ 6907 6896 6895 6894 ] final   53.01 input  -60.11 | X-H torsion
[ 7974 7965 7964 7962 ] final -175.18 input  175.53 | X-H torsion
[ 8008 7997 7996 7995 ] final -130.76 input   59.86 | X-H torsion
[ 10167 10162 10161 10158 ] final   87.01 input  -65.29 | X-H torsion
[ 10718 10713 10712 10709 ] final  -17.01 input   66.30 | X-H torsion
[ 10763 10752 10751 10750 ] final    7.80 input  -60.55 | X-H torsion
[ 11005 11000 10999 10996 ] final  111.72 input  -57.11 | X-H torsion

> <Gold.Protein.ActiveResidues>
 VAL166  LYS551  ARG553  GLY616  TRP617  ASP618  TYR619  PRO620  LYS621  CYS622 
 ASP623  PHE694  ASN695  SER759  ASP760  ASP761  ALA762  ILE779  LEU786  VAL792 
 PHE793  MET794  SER795  GLU796  ALA797  LYS798  CYS799  TRP800  GLU811  SER814 

> <Gold.Protein.RotatedAtoms>
  152.3293  134.7280  160.0293 H   0  0  0  0  0  0  0  0  0  0  0  0  # atno 6907 bound_to 6896
  151.7703  133.3335  159.3450 H   0  0  0  0  0  0  0  0  0  0  0  0  # atno 6908 bound_to 6896
  150.7413  134.5957  159.6055 H   0  0  0  0  0  0  0  0  0  0  0  0  # atno 6909 bound_to 6896
  144.7129  140.1360  143.6395 H   0  0  0  0  0  0  0  0  0  0  0  0  # atno 7974 bound_to 7965
  155.3011  140.0453  157.3029 H   0  0  0  0  0  0  0  0  0  0  0  0  # atno 8008 bound_to 7997
  154.5486  140.2310  155.8489 H   0  0  0  0  0  0  0  0  0  0  0  0  # atno 8009 bound_to 7997
  156.1947  140.3041  155.9409 H   0  0  0  0  0  0  0  0  0  0  0  0  # atno 8010 bound_to 7997
  139.8817  144.6436  150.8836 H   0  0  0  0  0  0  0  0  0  0  0  0  # atno 10167 bound_to 10162
  156.5796  130.4770  149.6326 H   0  0  0  0  0  0  0  0  0  0  0  0  # atno 10718 bound_to 10713
  153.2321  135.6894  153.7878 H   0  0  0  0  0  0  0  0  0  0  0  0  # atno 10763 bound_to 10752
  153.7038  135.3293  155.3232 H   0  0  0  0  0  0  0  0  0  0  0  0  # atno 10764 bound_to 10752
  154.8319  135.4574  154.1211 H   0  0  0  0  0  0  0  0  0  0  0  0  # atno 10765 bound_to 10752
  139.8910  134.9514  156.6475 H   0  0  0  0  0  0  0  0  0  0  0  0  # atno 11005 bound_to 11000
  145.9245  139.2566  143.1362 LP  0  0  0  0  0  0  0  0  0  0  0  0  # atno 17320 bound_to 7965
  145.9587  140.8853  143.0222 LP  0  0  0  0  0  0  0  0  0  0  0  0  # atno 17321 bound_to 7965
  140.7743  143.3581  151.1882 LP  0  0  0  0  0  0  0  0  0  0  0  0  # atno 17342 bound_to 10162
  139.7190  143.9254  152.2978 LP  0  0  0  0  0  0  0  0  0  0  0  0  # atno 17343 bound_to 10162
  156.2643  130.6980  151.1759 LP  0  0  0  0  0  0  0  0  0  0  0  0  # atno 17370 bound_to 10713
  157.7329  131.0595  150.5602 LP  0  0  0  0  0  0  0  0  0  0  0  0  # atno 17371 bound_to 10713
  140.7546  133.8868  155.8372 LP  0  0  0  0  0  0  0  0  0  0  0  0  # atno 17394 bound_to 11000
  140.9972  134.1198  157.4352 LP  0  0  0  0  0  0  0  0  0  0  0  0  # atno 17395 bound_to 11000

$$$$
