AV-unprocessed.smi:1194|AV-procd|sdf|4992|dock10
  -GOLD-   22720 3593D 1   1.00000     0.00000
 Structure written by MMmdl.
 48 49  0  0  0  0  0  0  0  0  2 V2000
  155.6786  135.2241  163.8792 C   0  0  0  0  0  0  0  0  0  0  0  0
  154.8427  136.0688  162.9113 C   0  0  0  0  0  0  0  0  0  0  0  0
  155.0947  137.5793  163.0823 C   0  0  0  0  0  0  0  0  0  0  0  0
  156.5534  138.0044  162.8286 C   0  0  0  0  0  0  0  0  0  0  0  0
  157.2402  137.3108  162.0759 O   0  0  0  0  0  0  0  0  0  0  0  0
  157.0497  139.1103  163.4488 N   0  0  0  0  0  0  0  0  0  0  0  0
  158.4215  139.6221  163.2153 C   0  0  0  0  0  0  0  0  0  0  0  0
  159.1153  140.0442  164.5192 C   0  0  0  0  0  0  0  0  0  0  0  0
  158.2525  141.0253  165.3137 C   0  0  0  0  0  0  0  0  0  0  0  0
  156.8836  140.3918  165.5751 C   0  0  0  0  0  0  0  0  0  0  0  0
  156.1546  139.9665  164.2766 C   0  0  1  0  0  0  0  0  0  0  0  0
  155.5907  141.1930  163.5200 C   0  0  0  0  0  0  0  0  0  0  0  0
  155.7145  142.3172  164.0055 O   0  0  0  0  0  0  0  0  0  0  0  0
  154.9249  140.9775  162.3735 N   0  0  0  0  0  0  0  0  0  0  0  0
  154.1980  141.9849  161.6099 C   0  0  0  0  0  0  0  0  0  0  0  0
  153.4667  141.3771  160.3958 C   0  0  0  0  0  0  0  0  0  0  0  0
  152.7055  142.4050  159.5734 C   0  0  0  0  0  0  0  0  0  0  0  0
  152.7347  143.7727  159.9243 C   0  0  0  0  0  0  0  0  0  0  0  0
  152.0455  144.7070  159.1231 C   0  0  0  0  0  0  0  0  0  0  0  0
  151.3405  144.2522  157.9900 C   0  0  0  0  0  0  0  0  0  0  0  0
  151.3323  142.9358  157.6872 N   0  3  0  0  0  0  0  0  0  0  0  0
  151.9790  142.0102  158.4284 C   0  0  0  0  0  0  0  0  0  0  0  0
  155.4820  134.1613  163.7368 H   0  0  0  0  0  0  0  0  0  0  0  0
  155.4472  135.4689  164.9163 H   0  0  0  0  0  0  0  0  0  0  0  0
  156.7453  135.3887  163.7252 H   0  0  0  0  0  0  0  0  0  0  0  0
  155.0751  135.7668  161.8894 H   0  0  0  0  0  0  0  0  0  0  0  0
  153.7865  135.8468  163.0695 H   0  0  0  0  0  0  0  0  0  0  0  0
  154.4455  138.1295  162.4000 H   0  0  0  0  0  0  0  0  0  0  0  0
  154.8178  137.8615  164.0987 H   0  0  0  0  0  0  0  0  0  0  0  0
  159.0796  138.9030  162.7324 H   0  0  0  0  0  0  0  0  0  0  0  0
  158.3738  140.4739  162.5373 H   0  0  0  0  0  0  0  0  0  0  0  0
  159.3182  139.1606  165.1262 H   0  0  0  0  0  0  0  0  0  0  0  0
  160.0829  140.4953  164.2974 H   0  0  0  0  0  0  0  0  0  0  0  0
  158.7384  141.2727  166.2578 H   0  0  0  0  0  0  0  0  0  0  0  0
  158.1415  141.9608  164.7639 H   0  0  0  0  0  0  0  0  0  0  0  0
  157.0179  139.5119  166.2058 H   0  0  0  0  0  0  0  0  0  0  0  0
  156.2676  141.0752  166.1611 H   0  0  0  0  0  0  0  0  0  0  0  0
  155.2785  139.4077  164.6087 H   0  0  0  0  0  0  0  0  0  0  0  0
  154.8704  140.0273  162.0361 H   0  0  0  0  0  0  0  0  0  0  0  0
  153.5017  142.5307  162.2485 H   0  0  0  0  0  0  0  0  0  0  0  0
  154.9321  142.7119  161.2620 H   0  0  0  0  0  0  0  0  0  0  0  0
  154.1904  140.8775  159.7500 H   0  0  0  0  0  0  0  0  0  0  0  0
  152.7758  140.6021  160.7293 H   0  0  0  0  0  0  0  0  0  0  0  0
  153.2858  144.1042  160.7923 H   0  0  0  0  0  0  0  0  0  0  0  0
  152.0595  145.7580  159.3727 H   0  0  0  0  0  0  0  0  0  0  0  0
  150.7901  144.8966  157.3201 H   0  0  0  0  0  0  0  0  0  0  0  0
  151.9088  140.9912  158.0762 H   0  0  0  0  0  0  0  0  0  0  0  0
  150.8213  142.6278  156.8594 H   0  0  0  0  0  0  0  0  0  0  0  0
  1  2  1  0  0  0  0
  1 23  1  0  0  0  0
  1 24  1  0  0  0  0
  1 25  1  0  0  0  0
  2  3  1  0  0  0  0
  2 26  1  0  0  0  0
  2 27  1  0  0  0  0
  3  4  1  0  0  0  0
  3 28  1  0  0  0  0
  3 29  1  0  0  0  0
  4  5  2  0  0  0  0
  4  6  1  0  0  0  0
  6 11  1  0  0  0  0
  6  7  1  0  0  0  0
  7  8  1  0  0  0  0
  7 30  1  0  0  0  0
  7 31  1  0  0  0  0
  8  9  1  0  0  0  0
  8 32  1  0  0  0  0
  8 33  1  0  0  0  0
  9 10  1  0  0  0  0
  9 34  1  0  0  0  0
  9 35  1  0  0  0  0
 10 11  1  0  0  0  0
 10 36  1  0  0  0  0
 10 37  1  0  0  0  0
 11 12  1  0  0  0  0
 11 38  1  0  0  0  0
 12 13  2  0  0  0  0
 12 14  1  0  0  0  0
 14 15  1  0  0  0  0
 14 39  1  0  0  0  0
 15 16  1  0  0  0  0
 15 40  1  0  0  0  0
 15 41  1  0  0  0  0
 16 17  1  0  0  0  0
 16 42  1  0  0  0  0
 16 43  1  0  0  0  0
 17 22  1  0  0  0  0
 17 18  2  0  0  0  0
 18 19  1  0  0  0  0
 18 44  1  0  0  0  0
 19 20  2  0  0  0  0
 19 45  1  0  0  0  0
 20 21  1  0  0  0  0
 20 46  1  0  0  0  0
 21 22  2  0  0  0  0
 21 48  1  0  0  0  0
 22 47  1  0  0  0  0
M  CHG  1  21   1
M  END
> <s_m_source_file>
AV-unprocessed.smi

> <i_m_source_file_index>
1194

> <i_lp_mmshare_version>
43012

> <i_f3d_flags>
0

> <s_epik_input>
W0NIM11bQ0gyXVtDSDJdQyg9TylOMVtDSDJdW0NIMl1bQ0gyXVtDSDJdW0NASF0xQyg9TylbTkhdW0NIMl1bQ0gyXWMyW2NIXVtjSF1bY0hdbltjSF0y

> <s_epik_cmdline>
J2VwaWtfcHl0aG9uJywgJy1waCcsICc3LjAnLCAnLXRuJywgJzgnLCAnLW1hJywgJzIwMCcsICctbWV0YWxfYmluZGluZycsICctaW1hZScsICc8aW5maWxlLm1hZT4nLCAnLW9tYWUnLCAnPG91dGZpbGUubWFlPic=

> <r_epik_Ionization_Penalty>
2.26523

> <r_epik_Ionization_Penalty_Charging>
2.26523

> <r_epik_Ionization_Penalty_Neutral>
5.33649e-08

> <r_epik_State_Penalty>
2.41338

> <r_epik_Charging_Adjusted_Penalty>
4.67861

> <i_epik_Tot_Q>
1

> <i_epik_Tot_abs_Q>
1

> <r_epik_Metal_State_Penalty>
2.42628

> <b_epik_Metal_Only>
0

> <s_lp_Force_Field>
OPLS_2005

> <r_lp_Energy>
32.0414

> <b_lp_Chiralities_Consistent>
1

> <s_lp_Variant>
AV-unprocessed.smi:1194-3

> <Gold.Version>
5.8.1

> <Gold.Id.Protein>
6NUR|6NUR_protein|mol2

> <Gold.PLP.Fitness>
38.0578

> <Gold.PLP.PLP>
-38.8180

> <Gold.PLP.part.hbond>
-1.6943

> <Gold.PLP.part.metal>
0.0000

> <Gold.PLP.part.buried>
-2.0257

> <Gold.PLP.part.nonpolar>
-35.3179

> <Gold.PLP.part.repulsive>
0.0131

> <Gold.PLP.ligand.clash>
0.0000

> <Gold.PLP.ligand.torsion>
0.4241

> <Gold.PLP.Chemscore.Hbond>
0.0000

> <Gold.PLP.Chemscore.CHOScore>
0.0000

> <Gold.PLP.Chemscore.Metal>
0.0000

> <Gold.PLP.Chemscore.Internal.Correction>
0.0880

> <Gold.Rescore>
     Score         DG    S(hbond)    S(metal)    S(lipo)     H(rot)  DE(clash)    DE(int)     intcor
     13.45     -14.15       0.00        0.00     113.44       1.80       0.02       0.67       ----

> <Gold.Chemscore.Fitness>
13.4539

> <Gold.Chemscore.DG>
-14.1486

> <Gold.Chemscore.ZeroCoef>
-5.4800

> <Gold.Chemscore.Hbond>
0.0000

> <Gold.Chemscore.Metal>
0.0000

> <Gold.Chemscore.Lipo>
113.4422

> <Gold.Chemscore.Internal_Hbond>
0.0000

> <Gold.Chemscore.DEClash>
0.0208

> <Gold.Chemscore.DEInternal>
0.6739

> <Gold.Chemscore.Rot>
1.7985

> <Gold.Chemscore.Internal.Correction>
   9.000000E+99

> <Gold.Chemscore.Hbond.Weighted>
-0.0000

> <Gold.Chemscore.Metal.Weighted>
-0.0000

> <Gold.Chemscore.Lipo.Weighted>
-13.2727

> <Gold.Chemscore.Internal_Hbond.Weighted>
0.0000

> <Gold.Chemscore.DEClash.Weighted>
0.0208

> <Gold.Chemscore.DEInternal.Weighted>
0.6739

> <Gold.Chemscore.Rot.Weighted>
4.6041

> <Gold.Chemscore.Internal.Correction.Weighted>
   9.000000E+99

> <Gold.Protein.RotatedTorsions>
[ 6907 6896 6895 6894 ] final -143.22 input  -60.11 | X-H torsion
[ 7974 7965 7964 7962 ] final  169.68 input  175.53 | X-H torsion
[ 8008 7997 7996 7995 ] final  153.40 input   59.86 | X-H torsion
[ 10167 10162 10161 10158 ] final  -84.20 input  -65.29 | X-H torsion
[ 10718 10713 10712 10709 ] final -108.98 input   66.30 | X-H torsion
[ 10763 10752 10751 10750 ] final  -50.84 input  -60.55 | X-H torsion
[ 11005 11000 10999 10996 ] final   36.79 input  -57.11 | X-H torsion

> <Gold.Protein.ActiveResidues>
 VAL166  LYS551  ARG553  GLY616  TRP617  ASP618  TYR619  PRO620  LYS621  CYS622 
 ASP623  PHE694  ASN695  SER759  ASP760  ASP761  ALA762  ILE779  LEU786  VAL792 
 PHE793  MET794  SER795  GLU796  ALA797  LYS798  CYS799  TRP800  GLU811  SER814 

> <Gold.Protein.RotatedAtoms>
  151.0976  133.5268  159.2611 H   0  0  0  0  0  0  0  0  0  0  0  0  # atno 6907 bound_to 6896
  151.2111  135.0481  159.8921 H   0  0  0  0  0  0  0  0  0  0  0  0  # atno 6908 bound_to 6896
  152.5440  134.0791  159.8281 H   0  0  0  0  0  0  0  0  0  0  0  0  # atno 6909 bound_to 6896
  144.7347  139.9090  143.6414 H   0  0  0  0  0  0  0  0  0  0  0  0  # atno 7974 bound_to 7965
  156.2583  140.1994  156.6485 H   0  0  0  0  0  0  0  0  0  0  0  0  # atno 8008 bound_to 7997
  154.6555  140.0567  157.0029 H   0  0  0  0  0  0  0  0  0  0  0  0  # atno 8009 bound_to 7997
  155.1354  140.3237  155.4467 H   0  0  0  0  0  0  0  0  0  0  0  0  # atno 8010 bound_to 7997
  140.4155  143.2605  151.8961 H   0  0  0  0  0  0  0  0  0  0  0  0  # atno 10167 bound_to 10162
  156.0513  130.5740  150.8036 H   0  0  0  0  0  0  0  0  0  0  0  0  # atno 10718 bound_to 10713
  154.1169  135.6540  153.4895 H   0  0  0  0  0  0  0  0  0  0  0  0  # atno 10763 bound_to 10752
  153.0238  135.5261  154.7136 H   0  0  0  0  0  0  0  0  0  0  0  0  # atno 10764 bound_to 10752
  154.6332  135.2979  155.0162 H   0  0  0  0  0  0  0  0  0  0  0  0  # atno 10765 bound_to 10752
  140.2290  134.3550  155.7972 H   0  0  0  0  0  0  0  0  0  0  0  0  # atno 11005 bound_to 11000
  146.1015  139.4011  143.0344 LP  0  0  0  0  0  0  0  0  0  0  0  0  # atno 17320 bound_to 7965
  145.7572  140.9950  143.1219 LP  0  0  0  0  0  0  0  0  0  0  0  0  # atno 17321 bound_to 7965
  139.4782  144.5492  151.8411 LP  0  0  0  0  0  0  0  0  0  0  0  0  # atno 17342 bound_to 10162
  140.4591  144.1747  150.5904 LP  0  0  0  0  0  0  0  0  0  0  0  0  # atno 17343 bound_to 10162
  157.5442  131.0942  150.9786 LP  0  0  0  0  0  0  0  0  0  0  0  0  # atno 17370 bound_to 10713
  157.0061  130.5618  149.5316 LP  0  0  0  0  0  0  0  0  0  0  0  0  # atno 17371 bound_to 10713
  141.2219  133.7235  156.8700 LP  0  0  0  0  0  0  0  0  0  0  0  0  # atno 17394 bound_to 11000
  140.1770  134.9060  157.2903 LP  0  0  0  0  0  0  0  0  0  0  0  0  # atno 17395 bound_to 11000

$$$$
