AV-unprocessed.smi:1977|AV-procd|sdf|7991|dock2
  -GOLD-   2272010173D 1   1.00000     0.00000
 Structure written by MMmdl.
 45 46  0  0  0  0  0  0  0  0  1 V2000
  146.2475  146.1281  160.3334 C   0  0  0  0  0  0  0  0  0  0  0  0
  146.5054  144.7288  160.9188 C   0  0  0  0  0  0  0  0  0  0  0  0
  147.9256  144.6359  161.4952 C   0  0  0  0  0  0  0  0  0  0  0  0
  146.2606  143.6059  159.8883 C   0  0  0  0  0  0  0  0  0  0  0  0
  147.2982  143.5464  158.8639 N   0  0  0  0  0  0  0  0  0  0  0  0
  147.9868  142.4463  158.5297 C   0  0  0  0  0  0  0  0  0  0  0  0
  147.8228  141.3444  159.0534 O   0  0  0  0  0  0  0  0  0  0  0  0
  148.8791  142.6956  157.5606 N   0  0  0  0  0  0  0  0  0  0  0  0
  149.7858  141.7167  156.9655 C   0  0  0  0  0  0  0  0  0  0  0  0
  151.0942  141.5221  157.7361 C   0  0  0  0  0  0  0  0  0  0  0  0
  151.4948  142.4665  158.7099 C   0  0  0  0  0  0  0  0  0  0  0  0
  152.6815  142.2565  159.4341 C   0  0  0  0  0  0  0  0  0  0  0  0
  153.4294  141.0979  159.1641 C   0  0  0  0  0  0  0  0  0  0  0  0
  153.0610  140.1815  158.2467 N   0  0  0  0  0  0  0  0  0  0  0  0
  151.9178  140.3779  157.5451 C   0  0  0  0  0  0  0  0  0  0  0  0
  151.5840  139.4063  156.5846 N   0  0  0  0  0  0  0  0  0  0  0  0
  151.2649  138.0739  157.0877 C   0  0  0  0  0  0  0  0  0  0  0  0
  150.7495  137.1912  155.9381 C   0  0  0  0  0  0  0  0  0  0  0  0
  151.7175  137.1567  154.8927 O   0  0  0  0  0  0  0  0  0  0  0  0
  151.9758  138.4525  154.3586 C   0  0  0  0  0  0  0  0  0  0  0  0
  152.5190  139.3708  155.4671 C   0  0  0  0  0  0  0  0  0  0  0  0
  146.8986  146.3261  159.4814 H   0  0  0  0  0  0  0  0  0  0  0  0
  146.4304  146.9035  161.0777 H   0  0  0  0  0  0  0  0  0  0  0  0
  145.2161  146.2397  159.9984 H   0  0  0  0  0  0  0  0  0  0  0  0
  145.8119  144.5853  161.7486 H   0  0  0  0  0  0  0  0  0  0  0  0
  148.6786  144.7736  160.7187 H   0  0  0  0  0  0  0  0  0  0  0  0
  148.0991  143.6643  161.9587 H   0  0  0  0  0  0  0  0  0  0  0  0
  148.0910  145.3971  162.2584 H   0  0  0  0  0  0  0  0  0  0  0  0
  146.2308  142.6395  160.3926 H   0  0  0  0  0  0  0  0  0  0  0  0
  145.2861  143.7316  159.4130 H   0  0  0  0  0  0  0  0  0  0  0  0
  147.5053  144.4058  158.3763 H   0  0  0  0  0  0  0  0  0  0  0  0
  148.9348  143.6374  157.2014 H   0  0  0  0  0  0  0  0  0  0  0  0
  149.3011  140.7445  156.8651 H   0  0  0  0  0  0  0  0  0  0  0  0
  149.9746  142.0578  155.9492 H   0  0  0  0  0  0  0  0  0  0  0  0
  150.9014  143.3446  158.9153 H   0  0  0  0  0  0  0  0  0  0  0  0
  153.0070  142.9643  160.1820 H   0  0  0  0  0  0  0  0  0  0  0  0
  154.3460  140.8998  159.6997 H   0  0  0  0  0  0  0  0  0  0  0  0
  152.1545  137.6189  157.5259 H   0  0  0  0  0  0  0  0  0  0  0  0
  150.5135  138.1453  157.8748 H   0  0  0  0  0  0  0  0  0  0  0  0
  150.5732  136.1758  156.2932 H   0  0  0  0  0  0  0  0  0  0  0  0
  149.7988  137.5657  155.5552 H   0  0  0  0  0  0  0  0  0  0  0  0
  152.7029  138.3665  153.5511 H   0  0  0  0  0  0  0  0  0  0  0  0
  151.0640  138.8661  153.9249 H   0  0  0  0  0  0  0  0  0  0  0  0
  152.6841  140.3743  155.0738 H   0  0  0  0  0  0  0  0  0  0  0  0
  153.4847  139.0033  155.8175 H   0  0  0  0  0  0  0  0  0  0  0  0
  1  2  1  0  0  0  0
  1 22  1  0  0  0  0
  1 23  1  0  0  0  0
  1 24  1  0  0  0  0
  2  3  1  0  0  0  0
  2  4  1  0  0  0  0
  2 25  1  0  0  0  0
  3 26  1  0  0  0  0
  3 27  1  0  0  0  0
  3 28  1  0  0  0  0
  4  5  1  0  0  0  0
  4 29  1  0  0  0  0
  4 30  1  0  0  0  0
  5  6  1  0  0  0  0
  5 31  1  0  0  0  0
  6  7  2  0  0  0  0
  6  8  1  0  0  0  0
  8  9  1  0  0  0  0
  8 32  1  0  0  0  0
  9 10  1  0  0  0  0
  9 33  1  0  0  0  0
  9 34  1  0  0  0  0
 10 15  1  0  0  0  0
 10 11  2  0  0  0  0
 11 12  1  0  0  0  0
 11 35  1  0  0  0  0
 12 13  2  0  0  0  0
 12 36  1  0  0  0  0
 13 14  1  0  0  0  0
 13 37  1  0  0  0  0
 14 15  2  0  0  0  0
 15 16  1  0  0  0  0
 16 21  1  0  0  0  0
 16 17  1  0  0  0  0
 17 18  1  0  0  0  0
 17 38  1  0  0  0  0
 17 39  1  0  0  0  0
 18 19  1  0  0  0  0
 18 40  1  0  0  0  0
 18 41  1  0  0  0  0
 19 20  1  0  0  0  0
 20 21  1  0  0  0  0
 20 42  1  0  0  0  0
 20 43  1  0  0  0  0
 21 44  1  0  0  0  0
 21 45  1  0  0  0  0
M  END
> <s_m_source_file>
AV-unprocessed.smi

> <i_m_source_file_index>
1977

> <i_lp_mmshare_version>
43012

> <i_f3d_flags>
0

> <s_epik_input>
W0NIM11bQ0hdKFtDSDNdKVtDSDJdW05IXUMoPU8pW05IXVtDSDJdYzFbY0hdW2NIXVtjSF1uYzFOMltDSDJdW0NIMl1PW0NIMl1bQ0gyXTI=

> <s_epik_cmdline>
J2VwaWtfcHl0aG9uJywgJy1waCcsICc3LjAnLCAnLXRuJywgJzgnLCAnLW1hJywgJzIwMCcsICctbWV0YWxfYmluZGluZycsICctaW1hZScsICc8aW5maWxlLm1hZT4nLCAnLW9tYWUnLCAnPG91dGZpbGUubWFlPic=

> <r_lp_tautomer_probability>
1

> <r_epik_Ionization_Penalty>
0.00617532

> <r_epik_Ionization_Penalty_Charging>
0

> <r_epik_Ionization_Penalty_Neutral>
0.00617532

> <r_epik_State_Penalty>
0.00451205

> <r_epik_Charging_Adjusted_Penalty>
0.00451205

> <i_epik_Tot_Q>
0

> <i_epik_Tot_abs_Q>
0

> <r_epik_Metal_State_Penalty>
-0

> <b_epik_Metal_Only>
0

> <s_lp_Force_Field>
OPLS_2005

> <r_lp_Energy>
18.8779

> <b_lp_Chiralities_Consistent>
1

> <s_lp_Variant>
AV-unprocessed.smi:1977-1

> <Gold.Version>
5.8.1

> <Gold.Id.Protein>
6NUR|6NUR_protein|mol2

> <Gold.PLP.Fitness>
46.0792

> <Gold.PLP.PLP>
-35.0698

> <Gold.PLP.part.hbond>
-5.9467

> <Gold.PLP.part.metal>
0.0000

> <Gold.PLP.part.buried>
-2.2502

> <Gold.PLP.part.nonpolar>
-25.8098

> <Gold.PLP.part.repulsive>
0.2586

> <Gold.PLP.ligand.clash>
0.0000

> <Gold.PLP.ligand.torsion>
0.5619

> <Gold.PLP.Chemscore.Hbond>
3.9827

> <Gold.PLP.Chemscore.CHOScore>
0.0000

> <Gold.PLP.Chemscore.Metal>
0.0000

> <Gold.Chemscore.Hbonds>
donor molecule, donor type, donor heavy atom, donor atom, acceptor molecule, acceptor atom, score
      L1  H     5    31       P1  8029  1.00
      L1  H     8    32       P1  8028  0.94
      P1  H  6934  6946       L1     7  0.06
      P1  H  7997  8009       L1    14  0.96
      P1  H 10752 10763       L1    19  1.00

> <Gold.PLP.Chemscore.Internal.Correction>
0.1854

> <Gold.Rescore>
     Score         DG    S(hbond)    S(metal)    S(lipo)     H(rot)  DE(clash)    DE(int)     intcor
     16.53     -17.35       2.06        0.00      81.20       1.77       0.13       0.69       ----

> <Gold.Chemscore.Fitness>
16.5345

> <Gold.Chemscore.DG>
-17.3521

> <Gold.Chemscore.ZeroCoef>
-5.4800

> <Gold.Chemscore.Hbond>
2.0638

> <Gold.Chemscore.Metal>
0.0000

> <Gold.Chemscore.Lipo>
81.1994

> <Gold.Chemscore.Internal_Hbond>
0.0000

> <Gold.Chemscore.DEClash>
0.1276

> <Gold.Chemscore.DEInternal>
0.6901

> <Gold.Chemscore.Rot>
1.7662

> <Gold.Chemscore.Internal.Correction>
   9.000000E+99

> <Gold.Chemscore.Hbonds>
donor molecule, donor type, donor heavy atom, donor atom, acceptor molecule, acceptor atom, score
      L1  H     5    31       P1  8029  0.82
      L1  H     8    32       P1  8028  0.27
      P1  H  6934  6946       L1     7  0.09
      P1  H  7997  8009       L1    14  0.33
      P1  H 10752 10763       L1    19  0.87

> <Gold.Chemscore.Hbond.Weighted>
-6.8932

> <Gold.Chemscore.Metal.Weighted>
-0.0000

> <Gold.Chemscore.Lipo.Weighted>
-9.5003

> <Gold.Chemscore.Internal_Hbond.Weighted>
0.0000

> <Gold.Chemscore.DEClash.Weighted>
0.1276

> <Gold.Chemscore.DEInternal.Weighted>
0.6901

> <Gold.Chemscore.Rot.Weighted>
4.5214

> <Gold.Chemscore.Internal.Correction.Weighted>
   9.000000E+99

> <Gold.Protein.RotatedTorsions>
[ 6907 6896 6895 6894 ] final  147.18 input  -60.11 | X-H torsion
[ 7974 7965 7964 7962 ] final  107.31 input  175.53 | X-H torsion
[ 8008 7997 7996 7995 ] final  162.50 input   59.86 | X-H torsion
[ 10167 10162 10161 10158 ] final -159.46 input  -65.29 | X-H torsion
[ 10718 10713 10712 10709 ] final   42.48 input   66.30 | X-H torsion
[ 10763 10752 10751 10750 ] final   44.88 input  -60.55 | X-H torsion
[ 11005 11000 10999 10996 ] final -155.03 input  -57.11 | X-H torsion

> <Gold.Protein.ActiveResidues>
 VAL166  LYS551  ARG553  GLY616  TRP617  ASP618  TYR619  PRO620  LYS621  CYS622 
 ASP623  PHE694  ASN695  SER759  ASP760  ASP761  ALA762  ILE779  LEU786  VAL792 
 PHE793  MET794  SER795  GLU796  ALA797  LYS798  CYS799  TRP800  GLU811  SER814 

> <Gold.Protein.RotatedAtoms>
  152.1581  133.4564  159.4846 H   0  0  0  0  0  0  0  0  0  0  0  0  # atno 6907 bound_to 6896
  150.6903  134.2105  159.4366 H   0  0  0  0  0  0  0  0  0  0  0  0  # atno 6908 bound_to 6896
  152.0006  134.9930  160.0615 H   0  0  0  0  0  0  0  0  0  0  0  0  # atno 6909 bound_to 6896
  145.2953  139.2587  143.3843 H   0  0  0  0  0  0  0  0  0  0  0  0  # atno 7974 bound_to 7965
  156.2027  140.1749  156.7865 H   0  0  0  0  0  0  0  0  0  0  0  0  # atno 8008 bound_to 7997
  154.5613  140.0699  156.8854 H   0  0  0  0  0  0  0  0  0  0  0  0  # atno 8009 bound_to 7997
  155.2843  140.3351  155.4259 H   0  0  0  0  0  0  0  0  0  0  0  0  # atno 8010 bound_to 7997
  139.6614  143.9906  152.2227 H   0  0  0  0  0  0  0  0  0  0  0  0  # atno 10167 bound_to 10162
  157.4053  130.7883  149.7384 H   0  0  0  0  0  0  0  0  0  0  0  0  # atno 10718 bound_to 10713
  152.9833  135.6057  154.3346 H   0  0  0  0  0  0  0  0  0  0  0  0  # atno 10763 bound_to 10752
  154.3047  135.2772  155.2596 H   0  0  0  0  0  0  0  0  0  0  0  0  # atno 10764 bound_to 10752
  154.4832  135.5911  153.6461 H   0  0  0  0  0  0  0  0  0  0  0  0  # atno 10765 bound_to 10752
  140.6909  134.4043  157.5219 H   0  0  0  0  0  0  0  0  0  0  0  0  # atno 11005 bound_to 11000
  146.3171  140.3453  142.8651 LP  0  0  0  0  0  0  0  0  0  0  0  0  # atno 17320 bound_to 7965
  144.9139  140.7789  143.5790 LP  0  0  0  0  0  0  0  0  0  0  0  0  # atno 17321 bound_to 7965
  139.9646  144.6534  150.8046 LP  0  0  0  0  0  0  0  0  0  0  0  0  # atno 17342 bound_to 10162
  140.7581  143.3101  151.2867 LP  0  0  0  0  0  0  0  0  0  0  0  0  # atno 17343 bound_to 10162
  155.9835  130.4000  150.3361 LP  0  0  0  0  0  0  0  0  0  0  0  0  # atno 17370 bound_to 10713
  157.1493  131.0317  151.2892 LP  0  0  0  0  0  0  0  0  0  0  0  0  # atno 17371 bound_to 10713
  139.8924  134.8756  156.2274 LP  0  0  0  0  0  0  0  0  0  0  0  0  # atno 17394 bound_to 11000
  141.0242  133.7024  156.1320 LP  0  0  0  0  0  0  0  0  0  0  0  0  # atno 17395 bound_to 11000

$$$$
