AV-unprocessed.smi:1780|AV-procd|sdf|7186|dock5
  -GOLD-   22720 8423D 1   1.00000     0.00000
 Structure written by MMmdl.
 44 45  0  0  0  0  0  0  0  0  2 V2000
  146.2484  129.4572  152.4948 C   0  0  0  0  0  0  0  0  0  0  0  0
  145.5139  130.0338  151.2785 C   0  0  0  0  0  0  0  0  0  0  0  0
  145.4106  131.4786  151.3458 N   0  0  0  0  0  0  0  0  0  0  0  0
  146.4094  132.3946  151.6115 C   0  0  0  0  0  0  0  0  0  0  0  0
  145.8093  133.6210  151.5584 C   0  0  0  0  0  0  0  0  0  0  0  0
  146.3719  134.9075  151.7557 N   0  0  0  0  0  0  0  0  0  0  0  0
  145.7371  136.0218  152.1536 C   0  0  0  0  0  0  0  0  0  0  0  0
  144.5363  136.1001  152.4142 O   0  0  0  0  0  0  0  0  0  0  0  0
  146.5808  137.0594  152.2447 N   0  0  0  0  0  0  0  0  0  0  0  0
  146.2043  138.4048  152.6691 C   0  0  0  0  0  0  0  0  0  0  0  0
  147.4105  139.2499  153.1607 C   0  0  1  0  0  0  0  0  0  0  0  0
  146.9305  140.3352  154.1553 C   0  0  0  0  0  0  0  0  0  0  0  0
  148.4775  138.3567  153.7202 N   0  3  0  0  0  0  0  0  0  0  0  0
  149.7135  139.1021  154.0851 C   0  0  0  0  0  0  0  0  0  0  0  0
  150.8162  138.1432  154.5618 C   0  0  0  0  0  0  0  0  0  0  0  0
  150.3461  137.4018  155.6775 O   0  0  0  0  0  0  0  0  0  0  0  0
  149.2234  136.6026  155.3359 C   0  0  0  0  0  0  0  0  0  0  0  0
  148.0634  137.4970  154.8640 C   0  0  0  0  0  0  0  0  0  0  0  0
  144.4446  133.3720  151.2591 C   0  0  0  0  0  0  0  0  0  0  0  0
  144.2118  132.0749  151.1291 N   0  0  0  0  0  0  0  0  0  0  0  0
  146.3245  128.3721  152.4226 H   0  0  0  0  0  0  0  0  0  0  0  0
  145.7239  129.6918  153.4216 H   0  0  0  0  0  0  0  0  0  0  0  0
  147.2595  129.8580  152.5703 H   0  0  0  0  0  0  0  0  0  0  0  0
  146.0378  129.7634  150.3609 H   0  0  0  0  0  0  0  0  0  0  0  0
  144.5101  129.6130  151.2056 H   0  0  0  0  0  0  0  0  0  0  0  0
  147.4272  132.0921  151.8090 H   0  0  0  0  0  0  0  0  0  0  0  0
  147.3639  134.9831  151.5841 H   0  0  0  0  0  0  0  0  0  0  0  0
  147.5510  136.9078  152.0090 H   0  0  0  0  0  0  0  0  0  0  0  0
  145.7296  138.9007  151.8218 H   0  0  0  0  0  0  0  0  0  0  0  0
  145.4323  138.3104  153.4316 H   0  0  0  0  0  0  0  0  0  0  0  0
  147.8424  139.7772  152.3085 H   0  0  0  0  0  0  0  0  0  0  0  0
  146.1376  140.9508  153.7310 H   0  0  0  0  0  0  0  0  0  0  0  0
  147.7283  141.0294  154.4197 H   0  0  0  0  0  0  0  0  0  0  0  0
  146.5428  139.8919  155.0732 H   0  0  0  0  0  0  0  0  0  0  0  0
  150.0952  139.6734  153.2413 H   0  0  0  0  0  0  0  0  0  0  0  0
  149.4866  139.8213  154.8737 H   0  0  0  0  0  0  0  0  0  0  0  0
  151.1237  137.4697  153.7600 H   0  0  0  0  0  0  0  0  0  0  0  0
  151.6999  138.7068  154.8610 H   0  0  0  0  0  0  0  0  0  0  0  0
  149.4972  135.8809  154.5645 H   0  0  0  0  0  0  0  0  0  0  0  0
  148.9207  136.0292  156.2123 H   0  0  0  0  0  0  0  0  0  0  0  0
  147.7151  138.1242  155.6863 H   0  0  0  0  0  0  0  0  0  0  0  0
  147.2419  136.8397  154.5804 H   0  0  0  0  0  0  0  0  0  0  0  0
  143.6331  134.0730  151.1325 H   0  0  0  0  0  0  0  0  0  0  0  0
  148.7280  137.7194  152.9777 H   0  0  0  0  0  0  0  0  0  0  0  0
  1  2  1  0  0  0  0
  1 21  1  0  0  0  0
  1 22  1  0  0  0  0
  1 23  1  0  0  0  0
  2  3  1  0  0  0  0
  2 24  1  0  0  0  0
  2 25  1  0  0  0  0
  3 20  1  0  0  0  0
  3  4  1  0  0  0  0
  4  5  2  0  0  0  0
  4 26  1  0  0  0  0
  5  6  1  0  0  0  0
  5 19  1  0  0  0  0
  6  7  1  0  0  0  0
  6 27  1  0  0  0  0
  7  8  2  0  0  0  0
  7  9  1  0  0  0  0
  9 10  1  0  0  0  0
  9 28  1  0  0  0  0
 10 11  1  0  0  0  0
 10 29  1  0  0  0  0
 10 30  1  0  0  0  0
 11 12  1  0  0  0  0
 11 13  1  0  0  0  0
 11 31  1  0  0  0  0
 12 32  1  0  0  0  0
 12 33  1  0  0  0  0
 12 34  1  0  0  0  0
 13 18  1  0  0  0  0
 13 14  1  0  0  0  0
 13 44  1  0  0  0  0
 14 15  1  0  0  0  0
 14 35  1  0  0  0  0
 14 36  1  0  0  0  0
 15 16  1  0  0  0  0
 15 37  1  0  0  0  0
 15 38  1  0  0  0  0
 16 17  1  0  0  0  0
 17 18  1  0  0  0  0
 17 39  1  0  0  0  0
 17 40  1  0  0  0  0
 18 41  1  0  0  0  0
 18 42  1  0  0  0  0
 19 20  2  0  0  0  0
 19 43  1  0  0  0  0
M  CHG  1  13   1
M  END
> <s_m_source_file>
AV-unprocessed.smi

> <i_m_source_file_index>
1780

> <i_lp_mmshare_version>
43012

> <i_f3d_flags>
0

> <s_epik_input>
W0NIM11bQ0gyXW4xW2NIXWMoW2NIXW4xKVtOSF1DKD1PKVtOSF1bQ0gyXVtDQEhdKFtDSDNdKU4yW0NIMl1bQ0gyXU9bQ0gyXVtDSDJdMg==

> <s_epik_cmdline>
J2VwaWtfcHl0aG9uJywgJy1waCcsICc3LjAnLCAnLXRuJywgJzgnLCAnLW1hJywgJzIwMCcsICctbWV0YWxfYmluZGluZycsICctaW1hZScsICc8aW5maWxlLm1hZT4nLCAnLW9tYWUnLCAnPG91dGZpbGUubWFlPic=

> <r_lp_tautomer_probability>
1

> <r_epik_Ionization_Penalty>
0.64612

> <r_epik_Ionization_Penalty_Charging>
0.645968

> <r_epik_Ionization_Penalty_Neutral>
0.000152026

> <r_epik_State_Penalty>
0.664063

> <r_epik_Charging_Adjusted_Penalty>
1.31003

> <i_epik_Tot_Q>
1

> <i_epik_Tot_abs_Q>
1

> <r_epik_Metal_State_Penalty>
0.664075

> <b_epik_Metal_Only>
0

> <s_lp_Force_Field>
OPLS_2005

> <r_lp_Energy>
24.1412

> <b_lp_Chiralities_Consistent>
1

> <s_lp_Variant>
AV-unprocessed.smi:1780-4

> <Gold.Version>
5.8.1

> <Gold.Id.Protein>
6NUR|6NUR_protein|mol2

> <Gold.PLP.Fitness>
43.3065

> <Gold.PLP.PLP>
-30.0951

> <Gold.PLP.part.hbond>
-3.2013

> <Gold.PLP.part.metal>
0.0000

> <Gold.PLP.part.buried>
-3.8680

> <Gold.PLP.part.nonpolar>
-24.1200

> <Gold.PLP.part.repulsive>
0.4997

> <Gold.PLP.ligand.clash>
0.0000

> <Gold.PLP.ligand.torsion>
0.7594

> <Gold.PLP.Chemscore.Hbond>
3.8800

> <Gold.PLP.Chemscore.CHOScore>
1.0000

> <Gold.PLP.Chemscore.Metal>
0.0000

> <Gold.Chemscore.Hbonds>
donor molecule, donor type, donor heavy atom, donor atom, acceptor molecule, acceptor atom, score
      L1  H     6    27       P1  7948  0.88
      L1  H     9    28       P1  7948  1.00
      L1  H    13    44       P1  7948  2.00
      L1  C     4    26       P1 10747  0.96

> <Gold.PLP.Chemscore.Internal.Correction>
0.0903

> <Gold.Rescore>
     Score         DG    S(hbond)    S(metal)    S(lipo)     H(rot)  DE(clash)    DE(int)     intcor
     16.89     -18.86       2.71        0.00      73.51       1.67       0.05       1.92       ----

> <Gold.Chemscore.Fitness>
16.8935

> <Gold.Chemscore.DG>
-18.8616

> <Gold.Chemscore.ZeroCoef>
-5.4800

> <Gold.Chemscore.Hbond>
2.7120

> <Gold.Chemscore.Metal>
0.0000

> <Gold.Chemscore.Lipo>
73.5112

> <Gold.Chemscore.Internal_Hbond>
0.0000

> <Gold.Chemscore.DEClash>
0.0469

> <Gold.Chemscore.DEInternal>
1.9213

> <Gold.Chemscore.Rot>
1.6708

> <Gold.Chemscore.Internal.Correction>
   9.000000E+99

> <Gold.Chemscore.Hbonds>
donor molecule, donor type, donor heavy atom, donor atom, acceptor molecule, acceptor atom, score
      L1  H     6    27       P1  7948  0.63
      L1  H     9    28       P1  7948  0.94
      L1  H    13    44       P1  7948  1.00

> <Gold.Chemscore.Hbond.Weighted>
-9.0581

> <Gold.Chemscore.Metal.Weighted>
-0.0000

> <Gold.Chemscore.Lipo.Weighted>
-8.6008

> <Gold.Chemscore.Internal_Hbond.Weighted>
0.0000

> <Gold.Chemscore.DEClash.Weighted>
0.0469

> <Gold.Chemscore.DEInternal.Weighted>
1.9213

> <Gold.Chemscore.Rot.Weighted>
4.2773

> <Gold.Chemscore.Internal.Correction.Weighted>
   9.000000E+99

> <Gold.Protein.RotatedTorsions>
[ 6907 6896 6895 6894 ] final  101.10 input  -60.11 | X-H torsion
[ 7974 7965 7964 7962 ] final   39.08 input  175.53 | X-H torsion
[ 8008 7997 7996 7995 ] final   11.35 input   59.86 | X-H torsion
[ 10167 10162 10161 10158 ] final  -41.96 input  -65.29 | X-H torsion
[ 10718 10713 10712 10709 ] final -122.70 input   66.30 | X-H torsion
[ 10763 10752 10751 10750 ] final   53.55 input  -60.55 | X-H torsion
[ 11005 11000 10999 10996 ] final  -54.87 input  -57.11 | X-H torsion

> <Gold.Protein.ActiveResidues>
 VAL166  LYS551  ARG553  GLY616  TRP617  ASP618  TYR619  PRO620  LYS621  CYS622 
 ASP623  PHE694  ASN695  SER759  ASP760  ASP761  ALA762  ILE779  LEU786  VAL792 
 PHE793  MET794  SER795  GLU796  ALA797  LYS798  CYS799  TRP800  GLU811  SER814 

> <Gold.Protein.RotatedAtoms>
  152.5357  134.0177  159.7967 H   0  0  0  0  0  0  0  0  0  0  0  0  # atno 6907 bound_to 6896
  151.0369  133.5733  159.2662 H   0  0  0  0  0  0  0  0  0  0  0  0  # atno 6908 bound_to 6896
  151.2717  135.0694  159.9190 H   0  0  0  0  0  0  0  0  0  0  0  0  # atno 6909 bound_to 6896
  146.1012  139.5695  142.9413 H   0  0  0  0  0  0  0  0  0  0  0  0  # atno 7974 bound_to 7965
  154.8058  140.2860  155.5888 H   0  0  0  0  0  0  0  0  0  0  0  0  # atno 8008 bound_to 7997
  156.2982  140.2578  156.2865 H   0  0  0  0  0  0  0  0  0  0  0  0  # atno 8009 bound_to 7997
  154.9505  140.0379  157.2131 H   0  0  0  0  0  0  0  0  0  0  0  0  # atno 8010 bound_to 7997
  140.6985  143.3065  151.3141 H   0  0  0  0  0  0  0  0  0  0  0  0  # atno 10167 bound_to 10162
  156.1441  130.6487  150.9815 H   0  0  0  0  0  0  0  0  0  0  0  0  # atno 10718 bound_to 10713
  152.9796  135.5775  154.4759 H   0  0  0  0  0  0  0  0  0  0  0  0  # atno 10763 bound_to 10752
  154.4315  135.2773  155.1911 H   0  0  0  0  0  0  0  0  0  0  0  0  # atno 10764 bound_to 10752
  154.3617  135.6187  153.5748 H   0  0  0  0  0  0  0  0  0  0  0  0  # atno 10765 bound_to 10752
  141.1047  133.6614  156.4385 H   0  0  0  0  0  0  0  0  0  0  0  0  # atno 11005 bound_to 11000
  145.5850  141.0377  143.2101 LP  0  0  0  0  0  0  0  0  0  0  0  0  # atno 17320 bound_to 7965
  144.7434  139.7385  143.7301 LP  0  0  0  0  0  0  0  0  0  0  0  0  # atno 17321 bound_to 7965
  139.6472  144.0429  152.2599 LP  0  0  0  0  0  0  0  0  0  0  0  0  # atno 17342 bound_to 10162
  139.9954  144.6332  150.7777 LP  0  0  0  0  0  0  0  0  0  0  0  0  # atno 17343 bound_to 10162
  157.6601  131.0882  150.7858 LP  0  0  0  0  0  0  0  0  0  0  0  0  # atno 17370 bound_to 10713
  156.7931  130.4896  149.5381 LP  0  0  0  0  0  0  0  0  0  0  0  0  # atno 17371 bound_to 10713
  140.4934  134.6554  157.5220 LP  0  0  0  0  0  0  0  0  0  0  0  0  # atno 17394 bound_to 11000
  139.9912  134.6983  155.9687 LP  0  0  0  0  0  0  0  0  0  0  0  0  # atno 17395 bound_to 11000

$$$$
