AV-unprocessed.smi:1702|AV-procd|sdf|6848|dock1
  -GOLD-   22720 8 23D 1   1.00000     0.00000
 Structure written by MMmdl.
 44 46  0  0  0  0  0  0  0  0  2 V2000
  143.7375  136.6807  152.4740 C   0  0  0  0  0  0  0  0  0  0  0  0
  145.1613  136.1858  152.1631 C   0  0  2  0  0  0  0  0  0  0  0  0
  146.0132  135.9840  153.4296 C   0  0  0  0  0  0  0  0  0  0  0  0
  146.4634  137.3196  154.0484 C   0  0  0  0  0  0  0  0  0  0  0  0
  147.1941  138.1522  153.0561 N   0  3  2  0  0  0  0  0  0  0  0  0
  147.7609  139.3973  153.6366 C   0  0  0  0  0  0  0  0  0  0  0  0
  149.0852  139.1518  154.3867 C   0  0  1  0  0  0  0  0  0  0  0  0
  150.0456  138.6669  153.4673 O   0  0  0  0  0  0  0  0  0  0  0  0
  149.6141  140.4378  155.0508 C   0  0  0  0  0  0  0  0  0  0  0  0
  150.5061  140.1626  156.1633 N   0  0  0  0  0  0  0  0  0  0  0  0
  150.8558  138.9517  156.6383 C   0  0  0  0  0  0  0  0  0  0  0  0
  151.6937  138.9202  157.6701 N   0  0  0  0  0  0  0  0  0  0  0  0
  151.9136  140.2686  157.8935 C   0  0  0  0  0  0  0  0  0  0  0  0
  152.7165  140.9194  158.8572 C   0  0  0  0  0  0  0  0  0  0  0  0
  152.7891  142.3275  158.8940 C   0  0  0  0  0  0  0  0  0  0  0  0
  153.5642  142.9350  159.8236 F   0  0  0  0  0  0  0  0  0  0  0  0
  152.0605  143.1049  157.9693 C   0  0  0  0  0  0  0  0  0  0  0  0
  152.1369  144.4561  158.0104 F   0  0  0  0  0  0  0  0  0  0  0  0
  151.2527  142.4788  157.0006 C   0  0  0  0  0  0  0  0  0  0  0  0
  151.1836  141.0736  156.9674 C   0  0  0  0  0  0  0  0  0  0  0  0
  146.3664  138.4183  151.8513 C   0  0  0  0  0  0  0  0  0  0  0  0
  145.9119  137.1074  151.1849 C   0  0  0  0  0  0  0  0  0  0  0  0
  143.7364  137.6538  152.9644 H   0  0  0  0  0  0  0  0  0  0  0  0
  143.2160  135.9818  153.1286 H   0  0  0  0  0  0  0  0  0  0  0  0
  143.1485  136.7727  151.5609 H   0  0  0  0  0  0  0  0  0  0  0  0
  145.0510  135.2135  151.6810 H   0  0  0  0  0  0  0  0  0  0  0  0
  145.4635  135.3956  154.1654 H   0  0  0  0  0  0  0  0  0  0  0  0
  146.8976  135.3980  153.1754 H   0  0  0  0  0  0  0  0  0  0  0  0
  145.6038  137.8723  154.4298 H   0  0  0  0  0  0  0  0  0  0  0  0
  147.0995  137.1078  154.9069 H   0  0  0  0  0  0  0  0  0  0  0  0
  147.9447  140.1261  152.8453 H   0  0  0  0  0  0  0  0  0  0  0  0
  147.0222  139.8516  154.2987 H   0  0  0  0  0  0  0  0  0  0  0  0
  148.9490  138.3970  155.1606 H   0  0  0  0  0  0  0  0  0  0  0  0
  149.9982  139.1831  152.6767 H   0  0  0  0  0  0  0  0  0  0  0  0
  150.1406  141.0588  154.3249 H   0  0  0  0  0  0  0  0  0  0  0  0
  148.7822  141.0362  155.4248 H   0  0  0  0  0  0  0  0  0  0  0  0
  150.4749  138.0410  156.1992 H   0  0  0  0  0  0  0  0  0  0  0  0
  153.2791  140.3350  159.5700 H   0  0  0  0  0  0  0  0  0  0  0  0
  150.6953  143.0731  156.2926 H   0  0  0  0  0  0  0  0  0  0  0  0
  145.5050  139.0290  152.1249 H   0  0  0  0  0  0  0  0  0  0  0  0
  146.9445  138.9970  151.1298 H   0  0  0  0  0  0  0  0  0  0  0  0
  146.7888  136.5831  150.8025 H   0  0  0  0  0  0  0  0  0  0  0  0
  145.2885  137.3245  150.3167 H   0  0  0  0  0  0  0  0  0  0  0  0
  147.9834  137.6071  152.7385 H   0  0  0  0  0  0  0  0  0  0  0  0
  1  2  1  0  0  0  0
  1 23  1  0  0  0  0
  1 24  1  0  0  0  0
  1 25  1  0  0  0  0
  2 22  1  0  0  0  0
  2  3  1  0  0  0  0
  2 26  1  0  0  0  0
  3  4  1  0  0  0  0
  3 27  1  0  0  0  0
  3 28  1  0  0  0  0
  4  5  1  0  0  0  0
  4 29  1  0  0  0  0
  4 30  1  0  0  0  0
  5  6  1  0  0  0  0
  5 21  1  0  0  0  0
  5 44  1  0  0  0  0
  6  7  1  0  0  0  0
  6 31  1  0  0  0  0
  6 32  1  0  0  0  0
  7  8  1  0  0  0  0
  7  9  1  0  0  0  0
  7 33  1  0  0  0  0
  8 34  1  0  0  0  0
  9 10  1  0  0  0  0
  9 35  1  0  0  0  0
  9 36  1  0  0  0  0
 10 20  1  0  0  0  0
 10 11  1  0  0  0  0
 11 12  2  0  0  0  0
 11 37  1  0  0  0  0
 12 13  1  0  0  0  0
 13 20  2  0  0  0  0
 13 14  1  0  0  0  0
 14 15  2  0  0  0  0
 14 38  1  0  0  0  0
 15 16  1  0  0  0  0
 15 17  1  0  0  0  0
 17 18  1  0  0  0  0
 17 19  2  0  0  0  0
 19 20  1  0  0  0  0
 19 39  1  0  0  0  0
 21 22  1  0  0  0  0
 21 40  1  0  0  0  0
 21 41  1  0  0  0  0
 22 42  1  0  0  0  0
 22 43  1  0  0  0  0
M  CHG  1   5   1
M  END
> <s_m_source_file>
AV-unprocessed.smi

> <i_m_source_file_index>
1702

> <i_lp_mmshare_version>
43012

> <i_f3d_flags>
0

> <s_epik_input>
W0NIM11bQ0hdMVtDSDJdW0NIMl1OKFtDSDJdW0NIMl0xKVtDSDJdW0NASF0oW09IXSlbQ0gyXW4oW2NIXW4yKWMoYzIzKVtjSF1jKEYpYyhGKVtjSF0z

> <s_epik_cmdline>
J2VwaWtfcHl0aG9uJywgJy1waCcsICc3LjAnLCAnLXRuJywgJzgnLCAnLW1hJywgJzIwMCcsICctbWV0YWxfYmluZGluZycsICctaW1hZScsICc8aW5maWxlLm1hZT4nLCAnLW9tYWUnLCAnPG91dGZpbGUubWFlPic=

> <r_epik_Ionization_Penalty>
0.0135195

> <r_epik_Ionization_Penalty_Charging>
0.00181365

> <r_epik_Ionization_Penalty_Neutral>
0.0117059

> <r_epik_State_Penalty>
0.00902283

> <r_epik_Charging_Adjusted_Penalty>
0.0108365

> <i_epik_Tot_Q>
1

> <i_epik_Tot_abs_Q>
1

> <r_epik_Metal_State_Penalty>
9.09181e-06

> <b_epik_Metal_Only>
0

> <s_lp_Force_Field>
OPLS_2005

> <r_lp_Energy>
23.8265

> <b_lp_Chiralities_Consistent>
1

> <s_lp_Variant>
AV-unprocessed.smi:1702-4

> <Gold.Version>
5.8.1

> <Gold.Id.Protein>
6NUR|6NUR_protein|mol2

> <Gold.PLP.Fitness>
50.5436

> <Gold.PLP.PLP>
-42.5223

> <Gold.PLP.part.hbond>
-2.6861

> <Gold.PLP.part.metal>
0.0000

> <Gold.PLP.part.buried>
1.1775

> <Gold.PLP.part.nonpolar>
-41.1604

> <Gold.PLP.part.repulsive>
0.0407

> <Gold.PLP.ligand.clash>
0.0000

> <Gold.PLP.ligand.torsion>
0.5082

> <Gold.PLP.Chemscore.Hbond>
3.0000

> <Gold.PLP.Chemscore.CHOScore>
0.0000

> <Gold.PLP.Chemscore.Metal>
0.0000

> <Gold.Chemscore.Hbonds>
donor molecule, donor type, donor heavy atom, donor atom, acceptor molecule, acceptor atom, score
      L1  H     5    44       P1  7948  2.00
      L1  H     8    34       P1  7957  1.00

> <Gold.PLP.Chemscore.Internal.Correction>
0.0376

> <Gold.Rescore>
     Score         DG    S(hbond)    S(metal)    S(lipo)     H(rot)  DE(clash)    DE(int)     intcor
     16.78     -17.88       1.93        0.00     100.47       2.26       0.58       0.52       ----

> <Gold.Chemscore.Fitness>
16.7784

> <Gold.Chemscore.DG>
-17.8803

> <Gold.Chemscore.ZeroCoef>
-5.4800

> <Gold.Chemscore.Hbond>
1.9268

> <Gold.Chemscore.Metal>
0.0000

> <Gold.Chemscore.Lipo>
100.4728

> <Gold.Chemscore.Internal_Hbond>
0.0000

> <Gold.Chemscore.DEClash>
0.5802

> <Gold.Chemscore.DEInternal>
0.5216

> <Gold.Chemscore.Rot>
2.2619

> <Gold.Chemscore.Internal.Correction>
   9.000000E+99

> <Gold.Chemscore.Hbonds>
donor molecule, donor type, donor heavy atom, donor atom, acceptor molecule, acceptor atom, score
      L1  H     5    44       P1  7948  0.99
      L1  H     8    34       P1  7957  0.85

> <Gold.Chemscore.Hbond.Weighted>
-6.4354

> <Gold.Chemscore.Metal.Weighted>
-0.0000

> <Gold.Chemscore.Lipo.Weighted>
-11.7553

> <Gold.Chemscore.Internal_Hbond.Weighted>
0.0000

> <Gold.Chemscore.DEClash.Weighted>
0.5802

> <Gold.Chemscore.DEInternal.Weighted>
0.5216

> <Gold.Chemscore.Rot.Weighted>
5.7904

> <Gold.Chemscore.Internal.Correction.Weighted>
   9.000000E+99

> <Gold.Protein.RotatedTorsions>
[ 6907 6896 6895 6894 ] final  155.88 input  -60.11 | X-H torsion
[ 7974 7965 7964 7962 ] final  124.04 input  175.53 | X-H torsion
[ 8008 7997 7996 7995 ] final  159.43 input   59.86 | X-H torsion
[ 10167 10162 10161 10158 ] final   31.35 input  -65.29 | X-H torsion
[ 10718 10713 10712 10709 ] final  165.33 input   66.30 | X-H torsion
[ 10763 10752 10751 10750 ] final  174.26 input  -60.55 | X-H torsion
[ 11005 11000 10999 10996 ] final  137.63 input  -57.11 | X-H torsion

> <Gold.Protein.ActiveResidues>
 VAL166  LYS551  ARG553  GLY616  TRP617  ASP618  TYR619  PRO620  LYS621  CYS622 
 ASP623  PHE694  ASN695  SER759  ASP760  ASP761  ALA762  ILE779  LEU786  VAL792 
 PHE793  MET794  SER795  GLU796  ALA797  LYS798  CYS799  TRP800  GLU811  SER814 

> <Gold.Protein.RotatedAtoms>
  152.0378  133.3964  159.4323 H   0  0  0  0  0  0  0  0  0  0  0  0  # atno 6907 bound_to 6896
  150.6877  134.3448  159.4893 H   0  0  0  0  0  0  0  0  0  0  0  0  # atno 6908 bound_to 6896
  152.1243  134.9182  160.0612 H   0  0  0  0  0  0  0  0  0  0  0  0  # atno 6909 bound_to 6896
  145.0890  139.3601  143.4870 H   0  0  0  0  0  0  0  0  0  0  0  0  # atno 7974 bound_to 7965
  156.2239  140.1831  156.7409 H   0  0  0  0  0  0  0  0  0  0  0  0  # atno 8008 bound_to 7997
  154.5910  140.0651  156.9267 H   0  0  0  0  0  0  0  0  0  0  0  0  # atno 8009 bound_to 7997
  155.2336  140.3316  155.4303 H   0  0  0  0  0  0  0  0  0  0  0  0  # atno 8010 bound_to 7997
  140.4596  144.0926  150.6210 H   0  0  0  0  0  0  0  0  0  0  0  0  # atno 10167 bound_to 10162
  157.0817  131.0394  151.2572 H   0  0  0  0  0  0  0  0  0  0  0  0  # atno 10718 bound_to 10713
  154.4515  135.2765  155.1778 H   0  0  0  0  0  0  0  0  0  0  0  0  # atno 10763 bound_to 10752
  154.3603  135.6131  153.5691 H   0  0  0  0  0  0  0  0  0  0  0  0  # atno 10764 bound_to 10752
  152.9847  135.5833  154.4860 H   0  0  0  0  0  0  0  0  0  0  0  0  # atno 10765 bound_to 10752
  140.0127  134.9432  157.0311 H   0  0  0  0  0  0  0  0  0  0  0  0  # atno 11005 bound_to 11000
  146.3531  140.0715  142.8623 LP  0  0  0  0  0  0  0  0  0  0  0  0  # atno 17320 bound_to 7965
  145.1088  140.9392  143.4668 LP  0  0  0  0  0  0  0  0  0  0  0  0  # atno 17321 bound_to 7965
  140.4109  143.2657  151.9834 LP  0  0  0  0  0  0  0  0  0  0  0  0  # atno 17342 bound_to 10162
  139.4805  144.5916  151.7762 LP  0  0  0  0  0  0  0  0  0  0  0  0  # atno 17343 bound_to 10162
  157.4795  130.7756  149.7400 LP  0  0  0  0  0  0  0  0  0  0  0  0  # atno 17370 bound_to 10713
  155.9922  130.3932  150.2953 LP  0  0  0  0  0  0  0  0  0  0  0  0  # atno 17371 bound_to 10713
  140.4526  134.1567  155.7183 LP  0  0  0  0  0  0  0  0  0  0  0  0  # atno 17394 bound_to 11000
  141.1722  133.8586  157.1535 LP  0  0  0  0  0  0  0  0  0  0  0  0  # atno 17395 bound_to 11000

$$$$
