AV-unprocessed.smi:249|AV-procd|sdf|1902|dock1
  -GOLD-   2262020573D 1   1.00000     0.00000
 Structure written by MMmdl.
 64 67  0  0  0  0  0  0  0  0  2 V2000
  143.9401  132.6480  148.9398 C   0  0  0  0  0  0  0  0  0  0  0  0
  145.1855  132.6427  149.8414 C   0  0  0  0  0  0  0  0  0  0  0  0
  145.0877  133.5817  150.9971 N   0  3  2  0  0  0  0  0  0  0  0  0
  144.6275  134.9351  150.5715 C   0  0  0  0  0  0  0  0  0  0  0  0
  144.3996  135.8723  151.7646 C   0  0  0  0  0  0  0  0  0  0  0  0
  145.6844  136.0110  152.5966 C   0  0  1  0  0  0  0  0  0  0  0  0
  145.5625  136.9653  153.7069 N   0  0  0  0  0  0  0  0  0  0  0  0
  144.3952  136.8351  154.5718 C   0  0  0  0  0  0  0  0  0  0  0  0
  146.6943  137.2996  154.3719 C   0  0  0  0  0  0  0  0  0  0  0  0
  147.1901  136.4675  155.3255 N   0  0  0  0  0  0  0  0  0  0  0  0
  148.3074  136.7936  155.9828 C   0  0  0  0  0  0  0  0  0  0  0  0
  149.0682  137.8821  155.8472 N   0  0  0  0  0  0  0  0  0  0  0  0
  148.5657  138.7221  154.8975 C   0  0  0  0  0  0  0  0  0  0  0  0
  147.3938  138.5100  154.1197 C   0  0  0  0  0  0  0  0  0  0  0  0
  147.1934  139.5807  153.2573 N   0  0  0  0  0  0  0  0  0  0  0  0
  148.1909  140.3836  153.5129 C   0  0  0  0  0  0  0  0  0  0  0  0
  149.0655  139.9420  154.4804 N   0  0  0  0  0  0  0  0  0  0  0  0
  150.2527  140.6252  154.9621 C   0  0  0  0  0  0  0  0  0  0  0  0
  151.1137  139.7550  155.9107 C   0  0  1  0  0  0  0  0  0  0  0  0
  152.1598  138.9036  155.1512 C   0  0  0  0  0  0  0  0  0  0  0  0
  153.1967  139.7068  154.6257 O   0  0  0  0  0  0  0  0  0  0  0  0
  151.7468  140.6060  157.0404 C   0  0  2  0  0  0  0  0  0  0  0  0
  152.3892  139.8093  158.1625 C   0  0  0  0  0  0  0  0  0  0  0  0
  152.4724  140.8419  159.2804 C   0  0  0  0  0  0  0  0  0  0  0  0
  151.3275  141.6704  159.1186 O   0  0  0  0  0  0  0  0  0  0  0  0
  150.7460  141.4517  157.8366 C   0  0  0  0  0  0  0  0  0  0  0  0
  146.1358  134.6051  153.0301 C   0  0  0  0  0  0  0  0  0  0  0  0
  146.3373  133.6632  151.8231 C   0  0  1  0  0  0  0  0  0  0  0  0
  146.8159  132.2926  152.3462 C   0  0  0  0  0  0  0  0  0  0  0  0
  143.9977  131.8406  148.2094 H   0  0  0  0  0  0  0  0  0  0  0  0
  143.8369  133.5734  148.3744 H   0  0  0  0  0  0  0  0  0  0  0  0
  143.0301  132.4990  149.5218 H   0  0  0  0  0  0  0  0  0  0  0  0
  145.2885  131.6185  150.1917 H   0  0  0  0  0  0  0  0  0  0  0  0
  146.0803  132.8627  149.2575 H   0  0  0  0  0  0  0  0  0  0  0  0
  145.3594  135.3706  149.8891 H   0  0  0  0  0  0  0  0  0  0  0  0
  143.6888  134.8694  150.0241 H   0  0  0  0  0  0  0  0  0  0  0  0
  144.0739  136.8460  151.3980 H   0  0  0  0  0  0  0  0  0  0  0  0
  143.5859  135.4816  152.3766 H   0  0  0  0  0  0  0  0  0  0  0  0
  146.4612  136.4127  151.9441 H   0  0  0  0  0  0  0  0  0  0  0  0
  144.2936  137.7099  155.2154 H   0  0  0  0  0  0  0  0  0  0  0  0
  144.4645  135.9506  155.2056 H   0  0  0  0  0  0  0  0  0  0  0  0
  143.4867  136.7544  153.9747 H   0  0  0  0  0  0  0  0  0  0  0  0
  148.6390  136.0817  156.7244 H   0  0  0  0  0  0  0  0  0  0  0  0
  148.3209  141.3236  152.9960 H   0  0  0  0  0  0  0  0  0  0  0  0
  150.8418  140.9448  154.1015 H   0  0  0  0  0  0  0  0  0  0  0  0
  149.9261  141.5355  155.4651 H   0  0  0  0  0  0  0  0  0  0  0  0
  150.4371  139.0457  156.3896 H   0  0  0  0  0  0  0  0  0  0  0  0
  152.5977  138.1507  155.8059 H   0  0  0  0  0  0  0  0  0  0  0  0
  151.6953  138.3523  154.3335 H   0  0  0  0  0  0  0  0  0  0  0  0
  152.8758  140.1441  153.8516 H   0  0  0  0  0  0  0  0  0  0  0  0
  152.5009  141.2721  156.6178 H   0  0  0  0  0  0  0  0  0  0  0  0
  151.7438  138.9828  158.4637 H   0  0  0  0  0  0  0  0  0  0  0  0
  153.3663  139.4035  157.8991 H   0  0  0  0  0  0  0  0  0  0  0  0
  152.5013  140.3868  160.2705 H   0  0  0  0  0  0  0  0  0  0  0  0
  153.3652  141.4570  159.1628 H   0  0  0  0  0  0  0  0  0  0  0  0
  150.5184  142.3982  157.3456 H   0  0  0  0  0  0  0  0  0  0  0  0
  149.8079  140.9129  157.9784 H   0  0  0  0  0  0  0  0  0  0  0  0
  147.0686  134.6853  153.5897 H   0  0  0  0  0  0  0  0  0  0  0  0
  145.4036  134.1621  153.7070 H   0  0  0  0  0  0  0  0  0  0  0  0
  147.1277  134.0783  151.1953 H   0  0  0  0  0  0  0  0  0  0  0  0
  147.6257  132.4134  153.0666 H   0  0  0  0  0  0  0  0  0  0  0  0
  147.2142  131.6596  151.5541 H   0  0  0  0  0  0  0  0  0  0  0  0
  146.0114  131.7528  152.8469 H   0  0  0  0  0  0  0  0  0  0  0  0
  144.3719  133.2104  151.6053 H   0  0  0  0  0  0  0  0  0  0  0  0
  1  2  1  0  0  0  0
  1 30  1  0  0  0  0
  1 31  1  0  0  0  0
  1 32  1  0  0  0  0
  2  3  1  0  0  0  0
  2 33  1  0  0  0  0
  2 34  1  0  0  0  0
  3 28  1  0  0  0  0
  3  4  1  0  0  0  0
  3 64  1  0  0  0  0
  4  5  1  0  0  0  0
  4 35  1  0  0  0  0
  4 36  1  0  0  0  0
  5  6  1  0  0  0  0
  5 37  1  0  0  0  0
  5 38  1  0  0  0  0
  6  7  1  0  0  0  0
  6 27  1  0  0  0  0
  6 39  1  0  0  0  0
  7  8  1  0  0  0  0
  7  9  1  0  0  0  0
  8 40  1  0  0  0  0
  8 41  1  0  0  0  0
  8 42  1  0  0  0  0
  9 14  1  0  0  0  0
  9 10  2  0  0  0  0
 10 11  1  0  0  0  0
 11 12  2  0  0  0  0
 11 43  1  0  0  0  0
 12 13  1  0  0  0  0
 13 17  1  0  0  0  0
 13 14  2  0  0  0  0
 14 15  1  0  0  0  0
 15 16  2  0  0  0  0
 16 17  1  0  0  0  0
 16 44  1  0  0  0  0
 17 18  1  0  0  0  0
 18 19  1  0  0  0  0
 18 45  1  0  0  0  0
 18 46  1  0  0  0  0
 19 20  1  0  0  0  0
 19 22  1  0  0  0  0
 19 47  1  0  0  0  0
 20 21  1  0  0  0  0
 20 48  1  0  0  0  0
 20 49  1  0  0  0  0
 21 50  1  0  0  0  0
 22 26  1  0  0  0  0
 22 23  1  0  0  0  0
 22 51  1  0  0  0  0
 23 24  1  0  0  0  0
 23 52  1  0  0  0  0
 23 53  1  0  0  0  0
 24 25  1  0  0  0  0
 24 54  1  0  0  0  0
 24 55  1  0  0  0  0
 25 26  1  0  0  0  0
 26 56  1  0  0  0  0
 26 57  1  0  0  0  0
 27 28  1  0  0  0  0
 27 58  1  0  0  0  0
 27 59  1  0  0  0  0
 28 29  1  0  0  0  0
 28 60  1  0  0  0  0
 29 61  1  0  0  0  0
 29 62  1  0  0  0  0
 29 63  1  0  0  0  0
M  CHG  1   3   1
M  END
> <s_m_source_file>
AV-unprocessed.smi

> <i_m_source_file_index>
249

> <i_lp_mmshare_version>
43012

> <i_f3d_flags>
0

> <s_epik_input>
W0NIM11bQ0gyXU4xW0NIMl1bQ0gyXVtDQEhdKFtDSDJdW0NASF0xW0NIM10pTihbQ0gzXSljKG5bY0hdbjIpYyhjMjMpbltjSF1uM1tDSDJdW0NASF0oW0NIMl1bT0hdKVtDQEBIXTRbQ0gyXVtDSDJdT1tDSDJdNA==

> <s_epik_cmdline>
J2VwaWtfcHl0aG9uJywgJy1waCcsICc3LjAnLCAnLXRuJywgJzgnLCAnLW1hJywgJzIwMCcsICctbWV0YWxfYmluZGluZycsICctaW1hZScsICc8aW5maWxlLm1hZT4nLCAnLW9tYWUnLCAnPG91dGZpbGUubWFlPic=

> <r_lp_tautomer_probability>
1

> <r_epik_Ionization_Penalty>
0.00294688

> <r_epik_Ionization_Penalty_Charging>
0.00169971

> <r_epik_Ionization_Penalty_Neutral>
0.00124717

> <r_epik_State_Penalty>
-0

> <r_epik_Charging_Adjusted_Penalty>
0.00169971

> <i_epik_Tot_Q>
1

> <i_epik_Tot_abs_Q>
1

> <r_epik_Metal_State_Penalty>
-0

> <b_epik_Metal_Only>
0

> <s_lp_Force_Field>
OPLS_2005

> <r_lp_Energy>
53.6229

> <b_lp_Chiralities_Consistent>
1

> <s_lp_Variant>
AV-unprocessed.smi:249-5

> <Gold.Version>
5.8.1

> <Gold.Id.Protein>
6NUR|6NUR_protein|mol2

> <Gold.PLP.Fitness>
43.7258

> <Gold.PLP.PLP>
-41.2613

> <Gold.PLP.part.hbond>
-2.1265

> <Gold.PLP.part.metal>
0.0000

> <Gold.PLP.part.buried>
-2.1166

> <Gold.PLP.part.nonpolar>
-36.6355

> <Gold.PLP.part.repulsive>
0.4577

> <Gold.PLP.ligand.clash>
0.0000

> <Gold.PLP.ligand.torsion>
1.0149

> <Gold.PLP.Chemscore.Hbond>
1.0000

> <Gold.PLP.Chemscore.CHOScore>
0.1990

> <Gold.PLP.Chemscore.Metal>
0.0000

> <Gold.Chemscore.Hbonds>
donor molecule, donor type, donor heavy atom, donor atom, acceptor molecule, acceptor atom, score
      P1  H  7997  8009       L1    21  1.00
      L1  C    16    44       P1  7957  0.16

> <Gold.PLP.Chemscore.Internal.Correction>
0.8973

> <Gold.Rescore>
     Score         DG    S(hbond)    S(metal)    S(lipo)     H(rot)  DE(clash)    DE(int)     intcor
     10.01     -13.19       0.98        0.00     101.24       2.90       0.76       2.41       ----

> <Gold.Chemscore.Fitness>
10.0134

> <Gold.Chemscore.DG>
-13.1872

> <Gold.Chemscore.ZeroCoef>
-5.4800

> <Gold.Chemscore.Hbond>
0.9843

> <Gold.Chemscore.Metal>
0.0000

> <Gold.Chemscore.Lipo>
101.2406

> <Gold.Chemscore.Internal_Hbond>
0.0000

> <Gold.Chemscore.DEClash>
0.7646

> <Gold.Chemscore.DEInternal>
2.4092

> <Gold.Chemscore.Rot>
2.9006

> <Gold.Chemscore.Internal.Correction>
   9.000000E+99

> <Gold.Chemscore.Hbonds>
donor molecule, donor type, donor heavy atom, donor atom, acceptor molecule, acceptor atom, score
      P1  H  7997  8009       L1    21  0.99

> <Gold.Chemscore.Hbond.Weighted>
-3.2877

> <Gold.Chemscore.Metal.Weighted>
-0.0000

> <Gold.Chemscore.Lipo.Weighted>
-11.8452

> <Gold.Chemscore.Internal_Hbond.Weighted>
0.0000

> <Gold.Chemscore.DEClash.Weighted>
0.7646

> <Gold.Chemscore.DEInternal.Weighted>
2.4092

> <Gold.Chemscore.Rot.Weighted>
7.4256

> <Gold.Chemscore.Internal.Correction.Weighted>
   9.000000E+99

> <Gold.Protein.RotatedTorsions>
[ 6907 6896 6895 6894 ] final   40.52 input  -60.11 | X-H torsion
[ 7974 7965 7964 7962 ] final   78.44 input  175.53 | X-H torsion
[ 8008 7997 7996 7995 ] final -113.73 input   59.86 | X-H torsion
[ 10167 10162 10161 10158 ] final   -9.60 input  -65.29 | X-H torsion
[ 10718 10713 10712 10709 ] final  -35.71 input   66.30 | X-H torsion
[ 10763 10752 10751 10750 ] final  -34.44 input  -60.55 | X-H torsion
[ 11005 11000 10999 10996 ] final   55.91 input  -57.11 | X-H torsion

> <Gold.Protein.ActiveResidues>
 VAL166  LYS551  ARG553  GLY616  TRP617  ASP618  TYR619  PRO620  LYS621  CYS622 
 ASP623  PHE694  ASN695  SER759  ASP760  ASP761  ALA762  ILE779  LEU786  VAL792 
 PHE793  MET794  SER795  GLU796  ALA797  LYS798  CYS799  TRP800  GLU811  SER814 

> <Gold.Protein.RotatedAtoms>
  152.1836  134.8733  160.0523 H   0  0  0  0  0  0  0  0  0  0  0  0  # atno 6907 bound_to 6896
  151.9648  133.3702  159.4057 H   0  0  0  0  0  0  0  0  0  0  0  0  # atno 6908 bound_to 6896
  150.6922  134.4125  159.5212 H   0  0  0  0  0  0  0  0  0  0  0  0  # atno 6909 bound_to 6896
  145.6771  139.2513  143.1835 H   0  0  0  0  0  0  0  0  0  0  0  0  # atno 7974 bound_to 7965
  155.0252  140.0393  157.2453 H   0  0  0  0  0  0  0  0  0  0  0  0  # atno 8008 bound_to 7997
  154.7344  140.2736  155.6405 H   0  0  0  0  0  0  0  0  0  0  0  0  # atno 8009 bound_to 7997
  156.2849  140.2678  156.2053 H   0  0  0  0  0  0  0  0  0  0  0  0  # atno 8010 bound_to 7997
  140.7092  143.5840  150.8962 H   0  0  0  0  0  0  0  0  0  0  0  0  # atno 10167 bound_to 10162
  156.3354  130.4285  149.7834 H   0  0  0  0  0  0  0  0  0  0  0  0  # atno 10718 bound_to 10713
  153.8468  135.6852  153.4796 H   0  0  0  0  0  0  0  0  0  0  0  0  # atno 10763 bound_to 10752
  153.1421  135.4653  154.9509 H   0  0  0  0  0  0  0  0  0  0  0  0  # atno 10764 bound_to 10752
  154.7820  135.3272  154.7916 H   0  0  0  0  0  0  0  0  0  0  0  0  # atno 10765 bound_to 10752
  140.0570  134.5656  155.9196 H   0  0  0  0  0  0  0  0  0  0  0  0  # atno 11005 bound_to 11000
  146.0996  140.7560  142.9555 LP  0  0  0  0  0  0  0  0  0  0  0  0  # atno 17320 bound_to 7965
  144.7038  140.3766  143.7134 LP  0  0  0  0  0  0  0  0  0  0  0  0  # atno 17321 bound_to 7965
  139.9566  143.6211  152.3014 LP  0  0  0  0  0  0  0  0  0  0  0  0  # atno 17342 bound_to 10162
  139.6749  144.7659  151.1714 LP  0  0  0  0  0  0  0  0  0  0  0  0  # atno 17343 bound_to 10162
  156.5091  130.8164  151.3162 LP  0  0  0  0  0  0  0  0  0  0  0  0  # atno 17370 bound_to 10713
  157.7438  130.9920  150.2620 LP  0  0  0  0  0  0  0  0  0  0  0  0  # atno 17371 bound_to 10713
  141.1956  133.6588  156.5652 LP  0  0  0  0  0  0  0  0  0  0  0  0  # atno 17394 bound_to 11000
  140.3829  134.7508  157.4672 LP  0  0  0  0  0  0  0  0  0  0  0  0  # atno 17395 bound_to 11000

$$$$
