AV-unprocessed.smi:1789|AV-procd|sdf|7214|dock2
  -GOLD-   22720 8453D 1   1.00000     0.00000
 Structure written by MMmdl.
 34 35  0  0  0  0  0  0  0  0  1 V2000
  151.3065  132.0130  157.5535 C   0  0  0  0  0  0  0  0  0  0  0  0
  150.6002  132.9486  156.6334 C   0  0  0  0  0  0  0  0  0  0  0  0
  149.7640  132.7543  155.5698 C   0  0  0  0  0  0  0  0  0  0  0  0
  149.4581  134.0786  155.1576 C   0  0  0  0  0  0  0  0  0  0  0  0
  148.5981  134.3188  154.0553 N   0  0  0  0  0  0  0  0  0  0  0  0
  147.4877  133.6389  153.7219 C   0  0  0  0  0  0  0  0  0  0  0  0
  147.0419  132.6665  154.3320 O   0  0  0  0  0  0  0  0  0  0  0  0
  146.9144  134.1488  152.6215 N   0  0  0  0  0  0  0  0  0  0  0  0
  145.7036  133.6319  151.9900 C   0  0  2  0  0  0  0  0  0  0  0  0
  145.8452  132.1234  151.6997 C   0  0  0  0  0  0  0  0  0  0  0  0
  144.6042  131.5732  150.9789 C   0  0  0  0  0  0  0  0  0  0  0  0
  144.3192  132.3588  149.6872 C   0  0  1  0  0  0  0  0  0  0  0  0
  143.1338  131.8742  149.0929 O   0  0  0  0  0  0  0  0  0  0  0  0
  144.1738  133.8636  149.9734 C   0  0  0  0  0  0  0  0  0  0  0  0
  145.4159  134.4132  150.6940 C   0  0  0  0  0  0  0  0  0  0  0  0
  150.0559  134.9977  155.9004 N   0  0  0  0  0  0  0  0  0  0  0  0
  150.7912  134.2782  156.8498 O   0  0  0  0  0  0  0  0  0  0  0  0
  150.9512  130.9913  157.4185 H   0  0  0  0  0  0  0  0  0  0  0  0
  151.1400  132.2934  158.5937 H   0  0  0  0  0  0  0  0  0  0  0  0
  152.3802  132.0260  157.3664 H   0  0  0  0  0  0  0  0  0  0  0  0
  149.4263  131.8152  155.1573 H   0  0  0  0  0  0  0  0  0  0  0  0
  148.8577  135.0882  153.4560 H   0  0  0  0  0  0  0  0  0  0  0  0
  147.3490  134.9481  152.1842 H   0  0  0  0  0  0  0  0  0  0  0  0
  144.8589  133.7821  152.6655 H   0  0  0  0  0  0  0  0  0  0  0  0
  146.7286  131.9465  151.0847 H   0  0  0  0  0  0  0  0  0  0  0  0
  146.0002  131.5727  152.6284 H   0  0  0  0  0  0  0  0  0  0  0  0
  144.7486  130.5163  150.7517 H   0  0  0  0  0  0  0  0  0  0  0  0
  143.7442  131.6324  151.6478 H   0  0  0  0  0  0  0  0  0  0  0  0
  145.1362  132.2026  148.9814 H   0  0  0  0  0  0  0  0  0  0  0  0
  142.4817  132.5577  149.1223 H   0  0  0  0  0  0  0  0  0  0  0  0
  144.0162  134.4090  149.0421 H   0  0  0  0  0  0  0  0  0  0  0  0
  143.2913  134.0411  150.5901 H   0  0  0  0  0  0  0  0  0  0  0  0
  145.2705  135.4704  150.9191 H   0  0  0  0  0  0  0  0  0  0  0  0
  146.2766  134.3544  150.0260 H   0  0  0  0  0  0  0  0  0  0  0  0
  1  2  1  0  0  0  0
  1 18  1  0  0  0  0
  1 19  1  0  0  0  0
  1 20  1  0  0  0  0
  2 17  1  0  0  0  0
  2  3  2  0  0  0  0
  3  4  1  0  0  0  0
  3 21  1  0  0  0  0
  4  5  1  0  0  0  0
  4 16  2  0  0  0  0
  5  6  1  0  0  0  0
  5 22  1  0  0  0  0
  6  7  2  0  0  0  0
  6  8  1  0  0  0  0
  8  9  1  0  0  0  0
  8 23  1  0  0  0  0
  9 15  1  0  0  0  0
  9 10  1  0  0  0  0
  9 24  1  0  0  0  0
 10 11  1  0  0  0  0
 10 25  1  0  0  0  0
 10 26  1  0  0  0  0
 11 12  1  0  0  0  0
 11 27  1  0  0  0  0
 11 28  1  0  0  0  0
 12 13  1  0  0  0  0
 12 14  1  0  0  0  0
 12 29  1  0  0  0  0
 13 30  1  0  0  0  0
 14 15  1  0  0  0  0
 14 31  1  0  0  0  0
 14 32  1  0  0  0  0
 15 33  1  0  0  0  0
 15 34  1  0  0  0  0
 16 17  1  0  0  0  0
M  END
> <s_m_source_file>
AV-unprocessed.smi

> <i_m_source_file_index>
1789

> <i_lp_mmshare_version>
43012

> <i_f3d_flags>
0

> <s_epik_input>
W0NIM11jMVtjSF1jKG5vMSlbTkhdQyg9TylbTkhdW0NAQEhdMltDSDJdW0NIMl1bQ0BASF0oW09IXSlbQ0gyXVtDSDJdMg==

> <s_epik_cmdline>
J2VwaWtfcHl0aG9uJywgJy1waCcsICc3LjAnLCAnLXRuJywgJzgnLCAnLW1hJywgJzIwMCcsICctbWV0YWxfYmluZGluZycsICctaW1hZScsICc8aW5maWxlLm1hZT4nLCAnLW9tYWUnLCAnPG91dGZpbGUubWFlPic=

> <r_lp_tautomer_probability>
1

> <r_epik_Ionization_Penalty>
2.38512e-05

> <r_epik_Ionization_Penalty_Charging>
0

> <r_epik_Ionization_Penalty_Neutral>
2.38512e-05

> <r_epik_State_Penalty>
-0

> <r_epik_Charging_Adjusted_Penalty>
0

> <i_epik_Tot_Q>
0

> <i_epik_Tot_abs_Q>
0

> <r_epik_Metal_State_Penalty>
-0

> <b_epik_Metal_Only>
0

> <s_lp_Force_Field>
OPLS_2005

> <r_lp_Energy>
5.01305

> <b_lp_Chiralities_Consistent>
1

> <s_lp_Variant>
AV-unprocessed.smi:1789-1

> <Gold.Version>
5.8.1

> <Gold.Id.Protein>
6NUR|6NUR_protein|mol2

> <Gold.PLP.Fitness>
42.2295

> <Gold.PLP.PLP>
-31.5338

> <Gold.PLP.part.hbond>
-5.0000

> <Gold.PLP.part.metal>
0.0000

> <Gold.PLP.part.buried>
-4.9289

> <Gold.PLP.part.nonpolar>
-22.2674

> <Gold.PLP.part.repulsive>
0.1321

> <Gold.PLP.ligand.clash>
0.0000

> <Gold.PLP.ligand.torsion>
0.3183

> <Gold.PLP.Chemscore.Hbond>
3.7763

> <Gold.PLP.Chemscore.CHOScore>
0.0000

> <Gold.PLP.Chemscore.Metal>
0.0000

> <Gold.Chemscore.Hbonds>
donor molecule, donor type, donor heavy atom, donor atom, acceptor molecule, acceptor atom, score
      L1  H     5    22       P1  7948  1.00
      L1  H     8    23       P1  7948  0.98
      L1  H    13    30       P1 10186  0.06
      P1  H 10785 10796       L1    13  1.00

> <Gold.PLP.Chemscore.Internal.Correction>
0.0036

> <Gold.Rescore>
     Score         DG    S(hbond)    S(metal)    S(lipo)     H(rot)  DE(clash)    DE(int)     intcor
     15.29     -17.26       2.55        0.00      60.39       1.49       0.03       1.94       ----

> <Gold.Chemscore.Fitness>
15.2871

> <Gold.Chemscore.DG>
-17.2572

> <Gold.Chemscore.ZeroCoef>
-5.4800

> <Gold.Chemscore.Hbond>
2.5516

> <Gold.Chemscore.Metal>
0.0000

> <Gold.Chemscore.Lipo>
60.3926

> <Gold.Chemscore.Internal_Hbond>
0.0000

> <Gold.Chemscore.DEClash>
0.0270

> <Gold.Chemscore.DEInternal>
1.9431

> <Gold.Chemscore.Rot>
1.4887

> <Gold.Chemscore.Internal.Correction>
   9.000000E+99

> <Gold.Chemscore.Hbonds>
donor molecule, donor type, donor heavy atom, donor atom, acceptor molecule, acceptor atom, score
      L1  H     5    22       P1  7948  0.55
      L1  H     8    23       P1  7948  0.85
      L1  H    13    30       P1 10186  0.11
      P1  H 10785 10796       L1    13  0.84

> <Gold.Chemscore.Hbond.Weighted>
-8.5224

> <Gold.Chemscore.Metal.Weighted>
-0.0000

> <Gold.Chemscore.Lipo.Weighted>
-7.0659

> <Gold.Chemscore.Internal_Hbond.Weighted>
0.0000

> <Gold.Chemscore.DEClash.Weighted>
0.0270

> <Gold.Chemscore.DEInternal.Weighted>
1.9431

> <Gold.Chemscore.Rot.Weighted>
3.8111

> <Gold.Chemscore.Internal.Correction.Weighted>
   9.000000E+99

> <Gold.Protein.RotatedTorsions>
[ 6907 6896 6895 6894 ] final   39.38 input  -60.11 | X-H torsion
[ 7974 7965 7964 7962 ] final   37.78 input  175.53 | X-H torsion
[ 8008 7997 7996 7995 ] final   93.25 input   59.86 | X-H torsion
[ 10167 10162 10161 10158 ] final  -39.56 input  -65.29 | X-H torsion
[ 10718 10713 10712 10709 ] final -153.51 input   66.30 | X-H torsion
[ 10763 10752 10751 10750 ] final -172.06 input  -60.55 | X-H torsion
[ 11005 11000 10999 10996 ] final   39.17 input  -57.11 | X-H torsion

> <Gold.Protein.ActiveResidues>
 VAL166  LYS551  ARG553  GLY616  TRP617  ASP618  TYR619  PRO620  LYS621  CYS622 
 ASP623  PHE694  ASN695  SER759  ASP760  ASP761  ALA762  ILE779  LEU786  VAL792 
 PHE793  MET794  SER795  GLU796  ALA797  LYS798  CYS799  TRP800  GLU811  SER814 

> <Gold.Protein.RotatedAtoms>
  152.1688  134.8851  160.0535 H   0  0  0  0  0  0  0  0  0  0  0  0  # atno 6907 bound_to 6896
  151.9819  133.3755  159.4119 H   0  0  0  0  0  0  0  0  0  0  0  0  # atno 6908 bound_to 6896
  150.6898  134.3952  159.5138 H   0  0  0  0  0  0  0  0  0  0  0  0  # atno 6909 bound_to 6896
  146.1111  139.5852  142.9351 H   0  0  0  0  0  0  0  0  0  0  0  0  # atno 7974 bound_to 7965
  156.0446  140.3315  155.7282 H   0  0  0  0  0  0  0  0  0  0  0  0  # atno 8008 bound_to 7997
  155.5693  140.0626  157.2828 H   0  0  0  0  0  0  0  0  0  0  0  0  # atno 8009 bound_to 7997
  154.4408  140.1863  156.0851 H   0  0  0  0  0  0  0  0  0  0  0  0  # atno 8010 bound_to 7997
  140.7060  143.3207  151.2799 H   0  0  0  0  0  0  0  0  0  0  0  0  # atno 10167 bound_to 10162
  156.4868  130.8329  151.2553 H   0  0  0  0  0  0  0  0  0  0  0  0  # atno 10718 bound_to 10713
  154.6236  135.2878  155.0298 H   0  0  0  0  0  0  0  0  0  0  0  0  # atno 10763 bound_to 10752
  154.1484  135.6507  153.4962 H   0  0  0  0  0  0  0  0  0  0  0  0  # atno 10764 bound_to 10752
  153.0247  135.5350  154.7035 H   0  0  0  0  0  0  0  0  0  0  0  0  # atno 10765 bound_to 10752
  140.2054  134.3819  155.8075 H   0  0  0  0  0  0  0  0  0  0  0  0  # atno 11005 bound_to 11000
  145.5661  141.0399  143.2200 LP  0  0  0  0  0  0  0  0  0  0  0  0  # atno 17320 bound_to 7965
  144.7513  139.7188  143.7272 LP  0  0  0  0  0  0  0  0  0  0  0  0  # atno 17321 bound_to 7965
  139.6660  144.0105  152.2723 LP  0  0  0  0  0  0  0  0  0  0  0  0  # atno 17342 bound_to 10162
  139.9688  144.6508  150.8009 LP  0  0  0  0  0  0  0  0  0  0  0  0  # atno 17343 bound_to 10162
  157.7478  131.0026  150.3009 LP  0  0  0  0  0  0  0  0  0  0  0  0  # atno 17370 bound_to 10713
  156.3466  130.3824  149.7364 LP  0  0  0  0  0  0  0  0  0  0  0  0  # atno 17371 bound_to 10713
  141.2227  133.7115  156.8328 LP  0  0  0  0  0  0  0  0  0  0  0  0  # atno 17394 bound_to 11000
  140.2008  134.8898  157.3167 LP  0  0  0  0  0  0  0  0  0  0  0  0  # atno 17395 bound_to 11000

$$$$
