AV-unprocessed.smi:1895|AV-procd|sdf|7680|dock4
  -GOLD-   22720 9423D 1   1.00000     0.00000
 Structure written by MMmdl.
 36 37  0  0  0  0  0  0  0  0  1 V2000
  154.1037  140.6637  160.3237 C   0  0  0  0  0  0  0  0  0  0  0  0
  153.2879  141.7913  159.7641 C   0  0  0  0  0  0  0  0  0  0  0  0
  153.1938  143.1302  160.2360 C   0  0  0  0  0  0  0  0  0  0  0  0
  152.3170  143.7305  159.3769 C   0  0  0  0  0  0  0  0  0  0  0  0
  151.8001  145.1316  159.3527 C   0  0  0  0  0  0  0  0  0  0  0  0
  151.9343  142.7692  158.4576 N   0  0  0  0  0  0  0  0  0  0  0  0
  150.9995  142.8799  157.3467 C   0  0  0  0  0  0  0  0  0  0  0  0
  149.8923  141.8307  157.4585 C   0  0  0  0  0  0  0  0  0  0  0  0
  150.0360  140.8582  158.1990 O   0  0  0  0  0  0  0  0  0  0  0  0
  148.8068  142.0272  156.6949 N   0  0  0  0  0  0  0  0  0  0  0  0
  147.7170  141.0749  156.5252 C   0  0  0  0  0  0  0  0  0  0  0  0
  146.5903  141.6605  155.6557 C   0  0  2  0  0  0  0  0  0  0  0  0
  147.0485  142.2350  154.3136 C   0  0  0  0  0  0  0  0  0  0  0  0
  146.0023  143.2940  153.9995 C   0  0  0  0  0  0  0  0  0  0  0  0
  145.2187  143.4502  155.3062 C   0  0  0  0  0  0  0  0  0  0  0  0
  146.0002  142.7840  156.2875 O   0  0  0  0  0  0  0  0  0  0  0  0
  152.5323  141.5818  158.6989 N   0  0  0  0  0  0  0  0  0  0  0  0
  154.7548  141.0094  161.1266 H   0  0  0  0  0  0  0  0  0  0  0  0
  154.7343  140.2145  159.5561 H   0  0  0  0  0  0  0  0  0  0  0  0
  153.4625  139.8815  160.7309 H   0  0  0  0  0  0  0  0  0  0  0  0
  153.6918  143.5811  161.0816 H   0  0  0  0  0  0  0  0  0  0  0  0
  152.2863  145.7390  160.1162 H   0  0  0  0  0  0  0  0  0  0  0  0
  150.7268  145.1528  159.5423 H   0  0  0  0  0  0  0  0  0  0  0  0
  151.9845  145.5995  158.3858 H   0  0  0  0  0  0  0  0  0  0  0  0
  150.5716  143.8830  157.3412 H   0  0  0  0  0  0  0  0  0  0  0  0
  151.5328  142.7546  156.4030 H   0  0  0  0  0  0  0  0  0  0  0  0
  148.7766  142.8604  156.1247 H   0  0  0  0  0  0  0  0  0  0  0  0
  148.0892  140.1451  156.0926 H   0  0  0  0  0  0  0  0  0  0  0  0
  147.3318  140.8248  157.5142 H   0  0  0  0  0  0  0  0  0  0  0  0
  145.8140  140.9112  155.4887 H   0  0  0  0  0  0  0  0  0  0  0  0
  148.0259  142.7082  154.4178 H   0  0  0  0  0  0  0  0  0  0  0  0
  147.1268  141.4721  153.5379 H   0  0  0  0  0  0  0  0  0  0  0  0
  146.4796  144.2298  153.7067 H   0  0  0  0  0  0  0  0  0  0  0  0
  145.3440  142.9843  153.1873 H   0  0  0  0  0  0  0  0  0  0  0  0
  145.0531  144.4937  155.5746 H   0  0  0  0  0  0  0  0  0  0  0  0
  144.2469  142.9603  155.2302 H   0  0  0  0  0  0  0  0  0  0  0  0
  1  2  1  0  0  0  0
  1 18  1  0  0  0  0
  1 19  1  0  0  0  0
  1 20  1  0  0  0  0
  2 17  2  0  0  0  0
  2  3  1  0  0  0  0
  3  4  2  0  0  0  0
  3 21  1  0  0  0  0
  4  5  1  0  0  0  0
  4  6  1  0  0  0  0
  5 22  1  0  0  0  0
  5 23  1  0  0  0  0
  5 24  1  0  0  0  0
  6  7  1  0  0  0  0
  6 17  1  0  0  0  0
  7  8  1  0  0  0  0
  7 25  1  0  0  0  0
  7 26  1  0  0  0  0
  8  9  2  0  0  0  0
  8 10  1  0  0  0  0
 10 11  1  0  0  0  0
 10 27  1  0  0  0  0
 11 12  1  0  0  0  0
 11 28  1  0  0  0  0
 11 29  1  0  0  0  0
 12 16  1  0  0  0  0
 12 13  1  0  0  0  0
 12 30  1  0  0  0  0
 13 14  1  0  0  0  0
 13 31  1  0  0  0  0
 13 32  1  0  0  0  0
 14 15  1  0  0  0  0
 14 33  1  0  0  0  0
 14 34  1  0  0  0  0
 15 16  1  0  0  0  0
 15 35  1  0  0  0  0
 15 36  1  0  0  0  0
M  END
> <s_m_source_file>
AV-unprocessed.smi

> <i_m_source_file_index>
1895

> <i_lp_mmshare_version>
43012

> <i_f3d_flags>
0

> <s_epik_input>
W0NIM11jMVtjSF1jKFtDSDNdKW4objEpW0NIMl1DKD1PKVtOSF1bQ0gyXVtDQEBIXTJbQ0gyXVtDSDJdW0NIMl1PMg==

> <s_epik_cmdline>
J2VwaWtfcHl0aG9uJywgJy1waCcsICc3LjAnLCAnLXRuJywgJzgnLCAnLW1hJywgJzIwMCcsICctbWV0YWxfYmluZGluZycsICctaW1hZScsICc8aW5maWxlLm1hZT4nLCAnLW9tYWUnLCAnPG91dGZpbGUubWFlPic=

> <r_lp_tautomer_probability>
1

> <r_epik_Ionization_Penalty>
0.000408438

> <r_epik_Ionization_Penalty_Charging>
0

> <r_epik_Ionization_Penalty_Neutral>
0.000408438

> <r_epik_State_Penalty>
-0

> <r_epik_Charging_Adjusted_Penalty>
0

> <i_epik_Tot_Q>
0

> <i_epik_Tot_abs_Q>
0

> <r_epik_Metal_State_Penalty>
-0

> <b_epik_Metal_Only>
0

> <s_lp_Force_Field>
OPLS_2005

> <r_lp_Energy>
14.7864

> <b_lp_Chiralities_Consistent>
1

> <s_lp_Variant>
AV-unprocessed.smi:1895-1

> <Gold.Version>
5.8.1

> <Gold.Id.Protein>
6NUR|6NUR_protein|mol2

> <Gold.PLP.Fitness>
41.6910

> <Gold.PLP.PLP>
-39.1935

> <Gold.PLP.part.hbond>
-1.0000

> <Gold.PLP.part.metal>
0.0000

> <Gold.PLP.part.buried>
-5.7761

> <Gold.PLP.part.nonpolar>
-33.0075

> <Gold.PLP.part.repulsive>
0.1683

> <Gold.PLP.ligand.clash>
0.0000

> <Gold.PLP.ligand.torsion>
0.2591

> <Gold.PLP.Chemscore.Hbond>
1.0000

> <Gold.PLP.Chemscore.CHOScore>
0.0000

> <Gold.PLP.Chemscore.Metal>
0.0000

> <Gold.Chemscore.Hbonds>
donor molecule, donor type, donor heavy atom, donor atom, acceptor molecule, acceptor atom, score
      L1  H    10    27       P1  8028  1.00

> <Gold.PLP.Chemscore.Internal.Correction>
0.0158

> <Gold.Rescore>
     Score         DG    S(hbond)    S(metal)    S(lipo)     H(rot)  DE(clash)    DE(int)     intcor
     13.88     -15.48       0.99        0.00      90.99       1.54       0.00       1.60       ----

> <Gold.Chemscore.Fitness>
13.8813

> <Gold.Chemscore.DG>
-15.4796

> <Gold.Chemscore.ZeroCoef>
-5.4800

> <Gold.Chemscore.Hbond>
0.9858

> <Gold.Chemscore.Metal>
0.0000

> <Gold.Chemscore.Lipo>
90.9920

> <Gold.Chemscore.Internal_Hbond>
0.0000

> <Gold.Chemscore.DEClash>
0.0009

> <Gold.Chemscore.DEInternal>
1.5974

> <Gold.Chemscore.Rot>
1.5387

> <Gold.Chemscore.Internal.Correction>
   9.000000E+99

> <Gold.Chemscore.Hbonds>
donor molecule, donor type, donor heavy atom, donor atom, acceptor molecule, acceptor atom, score
      L1  H    10    27       P1  8028  0.99

> <Gold.Chemscore.Hbond.Weighted>
-3.2927

> <Gold.Chemscore.Metal.Weighted>
-0.0000

> <Gold.Chemscore.Lipo.Weighted>
-10.6461

> <Gold.Chemscore.Internal_Hbond.Weighted>
0.0000

> <Gold.Chemscore.DEClash.Weighted>
0.0009

> <Gold.Chemscore.DEInternal.Weighted>
1.5974

> <Gold.Chemscore.Rot.Weighted>
3.9392

> <Gold.Chemscore.Internal.Correction.Weighted>
   9.000000E+99

> <Gold.Protein.RotatedTorsions>
[ 6907 6896 6895 6894 ] final -117.30 input  -60.11 | X-H torsion
[ 7974 7965 7964 7962 ] final  140.77 input  175.53 | X-H torsion
[ 8008 7997 7996 7995 ] final  -86.20 input   59.86 | X-H torsion
[ 10167 10162 10161 10158 ] final  128.94 input  -65.29 | X-H torsion
[ 10718 10713 10712 10709 ] final -134.31 input   66.30 | X-H torsion
[ 10763 10752 10751 10750 ] final  -90.16 input  -60.55 | X-H torsion
[ 11005 11000 10999 10996 ] final  -26.76 input  -57.11 | X-H torsion

> <Gold.Protein.ActiveResidues>
 VAL166  LYS551  ARG553  GLY616  TRP617  ASP618  TYR619  PRO620  LYS621  CYS622 
 ASP623  PHE694  ASN695  SER759  ASP760  ASP761  ALA762  ILE779  LEU786  VAL792 
 PHE793  MET794  SER795  GLU796  ALA797  LYS798  CYS799  TRP800  GLU811  SER814 

> <Gold.Protein.RotatedAtoms>
  150.8126  133.8395  159.3175 H   0  0  0  0  0  0  0  0  0  0  0  0  # atno 6907 bound_to 6896
  151.6176  135.1033  160.0104 H   0  0  0  0  0  0  0  0  0  0  0  0  # atno 6908 bound_to 6896
  152.4218  133.7088  159.6523 H   0  0  0  0  0  0  0  0  0  0  0  0  # atno 6909 bound_to 6896
  144.9157  139.5234  143.5687 H   0  0  0  0  0  0  0  0  0  0  0  0  # atno 7974 bound_to 7965
  154.6492  140.0581  156.9936 H   0  0  0  0  0  0  0  0  0  0  0  0  # atno 8008 bound_to 7997
  155.1397  140.3264  155.4436 H   0  0  0  0  0  0  0  0  0  0  0  0  # atno 8009 bound_to 7997
  156.2568  140.1966  156.6513 H   0  0  0  0  0  0  0  0  0  0  0  0  # atno 8010 bound_to 7997
  139.5502  144.6807  151.4347 H   0  0  0  0  0  0  0  0  0  0  0  0  # atno 10167 bound_to 10162
  156.2541  130.7170  151.1080 H   0  0  0  0  0  0  0  0  0  0  0  0  # atno 10718 bound_to 10713
  154.6629  135.5314  153.8040 H   0  0  0  0  0  0  0  0  0  0  0  0  # atno 10763 bound_to 10752
  153.0453  135.6510  154.0845 H   0  0  0  0  0  0  0  0  0  0  0  0  # atno 10764 bound_to 10752
  154.0751  135.2951  155.3281 H   0  0  0  0  0  0  0  0  0  0  0  0  # atno 10765 bound_to 10752
  140.9058  133.7493  156.0604 H   0  0  0  0  0  0  0  0  0  0  0  0  # atno 11005 bound_to 11000
  146.3180  139.7997  142.8968 LP  0  0  0  0  0  0  0  0  0  0  0  0  # atno 17320 bound_to 7965
  145.3380  141.0281  143.3408 LP  0  0  0  0  0  0  0  0  0  0  0  0  # atno 17321 bound_to 7965
  140.6762  143.8184  150.7062 LP  0  0  0  0  0  0  0  0  0  0  0  0  # atno 17342 bound_to 10162
  140.1623  143.4265  152.2058 LP  0  0  0  0  0  0  0  0  0  0  0  0  # atno 17343 bound_to 10162
  157.7226  131.0672  150.6072 LP  0  0  0  0  0  0  0  0  0  0  0  0  # atno 17370 bound_to 10713
  156.6155  130.4391  149.5842 LP  0  0  0  0  0  0  0  0  0  0  0  0  # atno 17371 bound_to 10713
  140.8172  134.3331  157.5393 LP  0  0  0  0  0  0  0  0  0  0  0  0  # atno 17394 bound_to 11000
  139.8749  134.9288  156.3461 LP  0  0  0  0  0  0  0  0  0  0  0  0  # atno 17395 bound_to 11000

$$$$
