AV-unprocessed.smi:2061|AV-procd|sdf|8362|dock6
  -GOLD-   2272011 33D 1   1.00000     0.00000
 Structure written by MMmdl.
 45 46  0  0  0  0  0  0  0  0  1 V2000
  143.7837  132.5655  148.9357 C   0  0  0  0  0  0  0  0  0  0  0  0
  144.6850  132.9735  150.0506 C   0  0  0  0  0  0  0  0  0  0  0  0
  145.1038  134.1905  150.5103 C   0  0  0  0  0  0  0  0  0  0  0  0
  145.9561  133.8475  151.5935 C   0  0  0  0  0  0  0  0  0  0  0  0
  146.6105  134.8514  152.3525 N   0  0  0  0  0  0  0  0  0  0  0  0
  146.1537  135.4743  153.4521 C   0  0  0  0  0  0  0  0  0  0  0  0
  145.0619  135.2663  153.9822 O   0  0  0  0  0  0  0  0  0  0  0  0
  147.0430  136.3671  153.9099 N   0  0  0  0  0  0  0  0  0  0  0  0
  146.8643  137.2250  155.0801 C   0  0  0  0  0  0  0  0  0  0  0  0
  147.3341  138.6822  154.8274 C   0  0  2  0  0  0  0  0  0  0  0  0
  146.9720  139.0684  153.3753 C   0  0  0  0  0  0  0  0  0  0  0  0
  148.7537  138.9260  155.1667 N   0  0  0  0  0  0  0  0  0  0  0  0
  149.0166  140.3240  155.5145 C   0  0  0  0  0  0  0  0  0  0  0  0
  150.4867  140.5714  155.8983 C   0  0  2  0  0  0  0  0  0  0  0  0
  150.7673  142.0509  156.1808 C   0  0  0  0  0  0  0  0  0  0  0  0
  151.3328  140.1587  154.8296 O   0  0  0  0  0  0  0  0  0  0  0  0
  151.1472  138.8101  154.4040 C   0  0  1  0  0  0  0  0  0  0  0  0
  151.7386  137.8054  155.4078 C   0  0  0  0  0  0  0  0  0  0  0  0
  149.6626  138.5488  154.0804 C   0  0  0  0  0  0  0  0  0  0  0  0
  146.0468  132.5396  151.7799 N   0  0  0  0  0  0  0  0  0  0  0  0
  145.2333  131.9730  150.7917 O   0  0  0  0  0  0  0  0  0  0  0  0
  143.0974  133.3715  148.6751 H   0  0  0  0  0  0  0  0  0  0  0  0
  143.1899  131.6944  149.2133 H   0  0  0  0  0  0  0  0  0  0  0  0
  144.3618  132.3120  148.0470 H   0  0  0  0  0  0  0  0  0  0  0  0
  144.8432  135.1665  150.1288 H   0  0  0  0  0  0  0  0  0  0  0  0
  147.5266  135.1206  152.0256 H   0  0  0  0  0  0  0  0  0  0  0  0
  147.9087  136.4762  153.4025 H   0  0  0  0  0  0  0  0  0  0  0  0
  145.8237  137.2169  155.4088 H   0  0  0  0  0  0  0  0  0  0  0  0
  147.4106  136.7811  155.9115 H   0  0  0  0  0  0  0  0  0  0  0  0
  146.7227  139.3149  155.4727 H   0  0  0  0  0  0  0  0  0  0  0  0
  145.9581  138.7565  153.1237 H   0  0  0  0  0  0  0  0  0  0  0  0
  147.6471  138.6028  152.6565 H   0  0  0  0  0  0  0  0  0  0  0  0
  147.0042  140.1460  153.2177 H   0  0  0  0  0  0  0  0  0  0  0  0
  148.7412  140.9698  154.6793 H   0  0  0  0  0  0  0  0  0  0  0  0
  148.4052  140.6281  156.3622 H   0  0  0  0  0  0  0  0  0  0  0  0
  150.7294  140.0011  156.7952 H   0  0  0  0  0  0  0  0  0  0  0  0
  150.1559  142.4161  157.0061 H   0  0  0  0  0  0  0  0  0  0  0  0
  150.5542  142.6674  155.3072 H   0  0  0  0  0  0  0  0  0  0  0  0
  151.8129  142.2042  156.4491 H   0  0  0  0  0  0  0  0  0  0  0  0
  151.7137  138.7029  153.4786 H   0  0  0  0  0  0  0  0  0  0  0  0
  151.6946  136.7909  155.0111 H   0  0  0  0  0  0  0  0  0  0  0  0
  151.2007  137.8066  156.3555 H   0  0  0  0  0  0  0  0  0  0  0  0
  152.7841  138.0334  155.6153 H   0  0  0  0  0  0  0  0  0  0  0  0
  149.5573  137.4928  153.8370 H   0  0  0  0  0  0  0  0  0  0  0  0
  149.3957  139.1028  153.1791 H   0  0  0  0  0  0  0  0  0  0  0  0
  1  2  1  0  0  0  0
  1 22  1  0  0  0  0
  1 23  1  0  0  0  0
  1 24  1  0  0  0  0
  2 21  1  0  0  0  0
  2  3  2  0  0  0  0
  3  4  1  0  0  0  0
  3 25  1  0  0  0  0
  4  5  1  0  0  0  0
  4 20  2  0  0  0  0
  5  6  1  0  0  0  0
  5 26  1  0  0  0  0
  6  7  2  0  0  0  0
  6  8  1  0  0  0  0
  8  9  1  0  0  0  0
  8 27  1  0  0  0  0
  9 10  1  0  0  0  0
  9 28  1  0  0  0  0
  9 29  1  0  0  0  0
 10 11  1  0  0  0  0
 10 12  1  0  0  0  0
 10 30  1  0  0  0  0
 11 31  1  0  0  0  0
 11 32  1  0  0  0  0
 11 33  1  0  0  0  0
 12 19  1  0  0  0  0
 12 13  1  0  0  0  0
 13 14  1  0  0  0  0
 13 34  1  0  0  0  0
 13 35  1  0  0  0  0
 14 15  1  0  0  0  0
 14 16  1  0  0  0  0
 14 36  1  0  0  0  0
 15 37  1  0  0  0  0
 15 38  1  0  0  0  0
 15 39  1  0  0  0  0
 16 17  1  0  0  0  0
 17 18  1  0  0  0  0
 17 19  1  0  0  0  0
 17 40  1  0  0  0  0
 18 41  1  0  0  0  0
 18 42  1  0  0  0  0
 18 43  1  0  0  0  0
 19 44  1  0  0  0  0
 19 45  1  0  0  0  0
 20 21  1  0  0  0  0
M  END
> <s_m_source_file>
AV-unprocessed.smi

> <i_m_source_file_index>
2061

> <i_lp_mmshare_version>
43012

> <i_f3d_flags>
0

> <s_epik_input>
W0NIM11jMVtjSF1jKG5vMSlbTkhdQyg9TylbTkhdW0NIMl1bQ0BIXShbQ0gzXSlOMltDSDJdW0NAQEhdKFtDSDNdKU9bQ0BASF0oW0NIM10pW0NIMl0y

> <s_epik_cmdline>
J2VwaWtfcHl0aG9uJywgJy1waCcsICc3LjAnLCAnLXRuJywgJzgnLCAnLW1hJywgJzIwMCcsICctbWV0YWxfYmluZGluZycsICctaW1hZScsICc8aW5maWxlLm1hZT4nLCAnLW9tYWUnLCAnPG91dGZpbGUubWFlPic=

> <r_epik_Ionization_Penalty>
0.214073

> <r_epik_Ionization_Penalty_Charging>
0

> <r_epik_Ionization_Penalty_Neutral>
0.214073

> <r_epik_State_Penalty>
0.204211

> <r_epik_Charging_Adjusted_Penalty>
0.204211

> <i_epik_Tot_Q>
0

> <i_epik_Tot_abs_Q>
0

> <r_epik_Metal_State_Penalty>
0.217067

> <b_epik_Metal_Only>
0

> <s_lp_Force_Field>
OPLS_2005

> <r_lp_Energy>
31.3151

> <b_lp_Chiralities_Consistent>
1

> <s_lp_Variant>
AV-unprocessed.smi:2061-3

> <Gold.Version>
5.8.1

> <Gold.Id.Protein>
6NUR|6NUR_protein|mol2

> <Gold.PLP.Fitness>
36.8418

> <Gold.PLP.PLP>
-31.0841

> <Gold.PLP.part.hbond>
-3.0000

> <Gold.PLP.part.metal>
0.0000

> <Gold.PLP.part.buried>
-4.4926

> <Gold.PLP.part.nonpolar>
-24.0545

> <Gold.PLP.part.repulsive>
0.4214

> <Gold.PLP.ligand.clash>
0.0000

> <Gold.PLP.ligand.torsion>
1.6396

> <Gold.PLP.Chemscore.Hbond>
3.0000

> <Gold.PLP.Chemscore.CHOScore>
0.0000

> <Gold.PLP.Chemscore.Metal>
0.0000

> <Gold.Chemscore.Hbonds>
donor molecule, donor type, donor heavy atom, donor atom, acceptor molecule, acceptor atom, score
      L1  H     5    26       P1  7948  1.00
      L1  H     8    27       P1  7948  1.00
      P1  H  7989  7998       L1    16  1.00

> <Gold.PLP.Chemscore.Internal.Correction>
0.0369

> <Gold.Rescore>
     Score         DG    S(hbond)    S(metal)    S(lipo)     H(rot)  DE(clash)    DE(int)     intcor
     18.25     -19.87       2.76        0.00      77.98       1.55       0.13       1.49       ----

> <Gold.Chemscore.Fitness>
18.2465

> <Gold.Chemscore.DG>
-19.8716

> <Gold.Chemscore.ZeroCoef>
-5.4800

> <Gold.Chemscore.Hbond>
2.7633

> <Gold.Chemscore.Metal>
0.0000

> <Gold.Chemscore.Lipo>
77.9782

> <Gold.Chemscore.Internal_Hbond>
0.0000

> <Gold.Chemscore.DEClash>
0.1309

> <Gold.Chemscore.DEInternal>
1.4942

> <Gold.Chemscore.Rot>
1.5474

> <Gold.Chemscore.Internal.Correction>
   9.000000E+99

> <Gold.Chemscore.Hbonds>
donor molecule, donor type, donor heavy atom, donor atom, acceptor molecule, acceptor atom, score
      L1  H     5    26       P1  7948  0.93
      L1  H     8    27       P1  7948  0.95
      P1  H  7989  7998       L1    16  0.32

> <Gold.Chemscore.Hbond.Weighted>
-9.2294

> <Gold.Chemscore.Metal.Weighted>
-0.0000

> <Gold.Chemscore.Lipo.Weighted>
-9.1234

> <Gold.Chemscore.Internal_Hbond.Weighted>
0.0000

> <Gold.Chemscore.DEClash.Weighted>
0.1309

> <Gold.Chemscore.DEInternal.Weighted>
1.4942

> <Gold.Chemscore.Rot.Weighted>
3.9612

> <Gold.Chemscore.Internal.Correction.Weighted>
   9.000000E+99

> <Gold.Protein.RotatedTorsions>
[ 6907 6896 6895 6894 ] final   52.26 input  -60.11 | X-H torsion
[ 7974 7965 7964 7962 ] final    1.09 input  175.53 | X-H torsion
[ 8008 7997 7996 7995 ] final  -55.36 input   59.86 | X-H torsion
[ 10167 10162 10161 10158 ] final  -82.15 input  -65.29 | X-H torsion
[ 10718 10713 10712 10709 ] final  144.30 input   66.30 | X-H torsion
[ 10763 10752 10751 10750 ] final  -82.03 input  -60.55 | X-H torsion
[ 11005 11000 10999 10996 ] final  -37.86 input  -57.11 | X-H torsion

> <Gold.Protein.ActiveResidues>
 VAL166  LYS551  ARG553  GLY616  TRP617  ASP618  TYR619  PRO620  LYS621  CYS622 
 ASP623  PHE694  ASN695  SER759  ASP760  ASP761  ALA762  ILE779  LEU786  VAL792 
 PHE793  MET794  SER795  GLU796  ALA797  LYS798  CYS799  TRP800  GLU811  SER814 

> <Gold.Protein.RotatedAtoms>
  152.3214  134.7375  160.0312 H   0  0  0  0  0  0  0  0  0  0  0  0  # atno 6907 bound_to 6896
  151.7822  133.3345  159.3483 H   0  0  0  0  0  0  0  0  0  0  0  0  # atno 6908 bound_to 6896
  150.7372  134.5851  159.6003 H   0  0  0  0  0  0  0  0  0  0  0  0  # atno 6909 bound_to 6896
  146.2438  140.1039  142.8346 H   0  0  0  0  0  0  0  0  0  0  0  0  # atno 7974 bound_to 7965
  154.4192  140.1154  156.5464 H   0  0  0  0  0  0  0  0  0  0  0  0  # atno 8008 bound_to 7997
  155.6455  140.3496  155.4710 H   0  0  0  0  0  0  0  0  0  0  0  0  # atno 8009 bound_to 7997
  155.9836  140.1165  157.0693 H   0  0  0  0  0  0  0  0  0  0  0  0  # atno 8010 bound_to 7997
  140.4346  143.2536  151.8711 H   0  0  0  0  0  0  0  0  0  0  0  0  # atno 10167 bound_to 10162
  157.3587  131.0962  151.0934 H   0  0  0  0  0  0  0  0  0  0  0  0  # atno 10718 bound_to 10713
  154.5707  135.5606  153.7093 H   0  0  0  0  0  0  0  0  0  0  0  0  # atno 10763 bound_to 10752
  153.0048  135.6296  154.2118 H   0  0  0  0  0  0  0  0  0  0  0  0  # atno 10764 bound_to 10752
  154.2057  135.2876  155.2955 H   0  0  0  0  0  0  0  0  0  0  0  0  # atno 10765 bound_to 10752
  140.9984  133.6968  156.1977 H   0  0  0  0  0  0  0  0  0  0  0  0  # atno 11005 bound_to 11000
  145.0545  140.9042  143.4975 LP  0  0  0  0  0  0  0  0  0  0  0  0  # atno 17320 bound_to 7965
  145.1142  139.2736  143.5621 LP  0  0  0  0  0  0  0  0  0  0  0  0  # atno 17321 bound_to 7965
  139.4786  144.5297  151.8685 LP  0  0  0  0  0  0  0  0  0  0  0  0  # atno 17342 bound_to 10162
  140.4388  144.2015  150.5890 LP  0  0  0  0  0  0  0  0  0  0  0  0  # atno 17343 bound_to 10162
  157.2082  130.6426  149.5764 LP  0  0  0  0  0  0  0  0  0  0  0  0  # atno 17370 bound_to 10713
  155.9734  130.4668  150.6303 LP  0  0  0  0  0  0  0  0  0  0  0  0  # atno 17371 bound_to 10713
  140.6929  134.4647  157.5588 LP  0  0  0  0  0  0  0  0  0  0  0  0  # atno 17394 bound_to 11000
  139.9026  134.8521  156.1833 LP  0  0  0  0  0  0  0  0  0  0  0  0  # atno 17395 bound_to 11000

$$$$
