AV-unprocessed.smi:3306|AV-procd|sdf|12704|dock5
  -GOLD-   2272019 33D 1   1.00000     0.00000
 Structure written by MMmdl.
 44 45  0  0  0  0  0  0  0  0  2 V2000
  141.6991  134.9712  153.1664 C   0  0  0  0  0  0  0  0  0  0  0  0
  143.2295  134.9618  153.3700 C   0  0  0  0  0  0  0  0  0  0  0  0
  143.8201  136.1992  152.6616 C   0  0  0  0  0  0  0  0  0  0  0  0
  143.8792  133.6905  152.9088 N   0  3  2  0  0  0  0  0  0  0  0  0
  145.3398  133.6095  153.2057 C   0  0  0  0  0  0  0  0  0  0  0  0
  145.9328  132.2473  152.8097 C   0  0  0  0  0  0  0  0  0  0  0  0
  145.6948  131.9408  151.3259 C   0  0  1  0  0  0  0  0  0  0  0  0
  146.1980  130.6018  151.0499 N   0  0  0  0  0  0  0  0  0  0  0  0
  145.4456  129.5744  151.7582 C   0  0  0  0  0  0  0  0  0  0  0  0
  146.2981  128.9323  152.8665 C   0  0  0  0  0  0  0  0  0  0  0  0
  147.3329  127.9517  152.3392 C   0  0  0  0  0  0  0  0  0  0  0  0
  147.6091  127.8777  150.9571 C   0  0  0  0  0  0  0  0  0  0  0  0
  148.5632  126.9424  150.5117 C   0  0  0  0  0  0  0  0  0  0  0  0
  149.2009  126.1200  151.4603 C   0  0  0  0  0  0  0  0  0  0  0  0
  148.8547  126.2705  152.8178 C   0  0  0  0  0  0  0  0  0  0  0  0
  147.9408  127.1635  153.2550 N   0  0  0  0  0  0  0  0  0  0  0  0
  144.1862  132.0329  151.0428 C   0  0  0  0  0  0  0  0  0  0  0  0
  143.6225  133.3984  151.4681 C   0  0  0  0  0  0  0  0  0  0  0  0
  141.2784  135.9500  153.3992 H   0  0  0  0  0  0  0  0  0  0  0  0
  141.1911  134.2649  153.8230 H   0  0  0  0  0  0  0  0  0  0  0  0
  141.4314  134.7374  152.1353 H   0  0  0  0  0  0  0  0  0  0  0  0
  143.4153  135.0648  154.4404 H   0  0  0  0  0  0  0  0  0  0  0  0
  143.2650  137.1011  152.9212 H   0  0  0  0  0  0  0  0  0  0  0  0
  143.7805  136.0922  151.5770 H   0  0  0  0  0  0  0  0  0  0  0  0
  144.8529  136.3938  152.9465 H   0  0  0  0  0  0  0  0  0  0  0  0
  145.8638  134.4154  152.6896 H   0  0  0  0  0  0  0  0  0  0  0  0
  145.5291  133.7329  154.2705 H   0  0  0  0  0  0  0  0  0  0  0  0
  147.0018  132.2384  153.0263 H   0  0  0  0  0  0  0  0  0  0  0  0
  145.4862  131.4678  153.4298 H   0  0  0  0  0  0  0  0  0  0  0  0
  146.2388  132.6703  150.7239 H   0  0  0  0  0  0  0  0  0  0  0  0
  146.1472  130.4159  150.0581 H   0  0  0  0  0  0  0  0  0  0  0  0
  144.5376  129.9897  152.1944 H   0  0  0  0  0  0  0  0  0  0  0  0
  145.1402  128.8071  151.0458 H   0  0  0  0  0  0  0  0  0  0  0  0
  146.8163  129.7162  153.4201 H   0  0  0  0  0  0  0  0  0  0  0  0
  145.6562  128.4296  153.5915 H   0  0  0  0  0  0  0  0  0  0  0  0
  147.1003  128.5199  150.2533 H   0  0  0  0  0  0  0  0  0  0  0  0
  148.8005  126.8564  149.4616 H   0  0  0  0  0  0  0  0  0  0  0  0
  149.9375  125.3916  151.1551 H   0  0  0  0  0  0  0  0  0  0  0  0
  149.3231  125.6561  153.5725 H   0  0  0  0  0  0  0  0  0  0  0  0
  143.9806  131.8813  149.9835 H   0  0  0  0  0  0  0  0  0  0  0  0
  143.6577  131.2404  151.5754 H   0  0  0  0  0  0  0  0  0  0  0  0
  142.5556  133.3839  151.2560 H   0  0  0  0  0  0  0  0  0  0  0  0
  144.0562  134.1888  150.8534 H   0  0  0  0  0  0  0  0  0  0  0  0
  143.4461  132.9449  153.4351 H   0  0  0  0  0  0  0  0  0  0  0  0
  1  2  1  0  0  0  0
  1 19  1  0  0  0  0
  1 20  1  0  0  0  0
  1 21  1  0  0  0  0
  2  3  1  0  0  0  0
  2  4  1  0  0  0  0
  2 22  1  0  0  0  0
  3 23  1  0  0  0  0
  3 24  1  0  0  0  0
  3 25  1  0  0  0  0
  4 18  1  0  0  0  0
  4  5  1  0  0  0  0
  4 44  1  0  0  0  0
  5  6  1  0  0  0  0
  5 26  1  0  0  0  0
  5 27  1  0  0  0  0
  6  7  1  0  0  0  0
  6 28  1  0  0  0  0
  6 29  1  0  0  0  0
  7  8  1  0  0  0  0
  7 17  1  0  0  0  0
  7 30  1  0  0  0  0
  8  9  1  0  0  0  0
  8 31  1  0  0  0  0
  9 10  1  0  0  0  0
  9 32  1  0  0  0  0
  9 33  1  0  0  0  0
 10 11  1  0  0  0  0
 10 34  1  0  0  0  0
 10 35  1  0  0  0  0
 11 16  1  0  0  0  0
 11 12  2  0  0  0  0
 12 13  1  0  0  0  0
 12 36  1  0  0  0  0
 13 14  2  0  0  0  0
 13 37  1  0  0  0  0
 14 15  1  0  0  0  0
 14 38  1  0  0  0  0
 15 16  2  0  0  0  0
 15 39  1  0  0  0  0
 17 18  1  0  0  0  0
 17 40  1  0  0  0  0
 17 41  1  0  0  0  0
 18 42  1  0  0  0  0
 18 43  1  0  0  0  0
M  CHG  1   4   1
M  END
> <s_m_source_file>
AV-unprocessed.smi

> <i_m_source_file_index>
3306

> <i_lp_mmshare_version>
43012

> <i_f3d_flags>
0

> <s_epik_input>
W0NIM11bQ0hdKFtDSDNdKU4xW0NIMl1bQ0gyXVtDSF0oW0NIMl1bQ0gyXTEpW05IXVtDSDJdW0NIMl1jMltjSF1bY0hdW2NIXVtjSF1uMg==

> <s_epik_cmdline>
J2VwaWtfcHl0aG9uJywgJy1waCcsICc3LjAnLCAnLXRuJywgJzgnLCAnLW1hJywgJzIwMCcsICctbWV0YWxfYmluZGluZycsICctaW1hZScsICc8aW5maWxlLm1hZT4nLCAnLW9tYWUnLCAnPG91dGZpbGUubWFlPic=

> <r_epik_Ionization_Penalty>
2.29993

> <r_epik_Ionization_Penalty_Charging>
0.000386008

> <r_epik_Ionization_Penalty_Neutral>
2.29954

> <r_epik_State_Penalty>
2.40593

> <r_epik_Charging_Adjusted_Penalty>
2.40631

> <i_epik_Tot_Q>
1

> <i_epik_Tot_abs_Q>
1

> <r_epik_Metal_State_Penalty>
2.31593

> <b_epik_Metal_Only>
0

> <s_lp_Force_Field>
OPLS_2005

> <r_lp_Energy>
25.7367

> <b_lp_Chiralities_Consistent>
1

> <s_lp_Variant>
AV-unprocessed.smi:3306-4

> <Gold.Version>
5.8.1

> <Gold.Id.Protein>
6NUR|6NUR_protein|mol2

> <Gold.PLP.Fitness>
45.0230

> <Gold.PLP.PLP>
-40.0793

> <Gold.PLP.part.hbond>
-2.0000

> <Gold.PLP.part.metal>
0.0000

> <Gold.PLP.part.buried>
-6.8996

> <Gold.PLP.part.nonpolar>
-31.4609

> <Gold.PLP.part.repulsive>
0.0381

> <Gold.PLP.ligand.clash>
0.0000

> <Gold.PLP.ligand.torsion>
0.5714

> <Gold.PLP.Chemscore.Hbond>
2.0000

> <Gold.PLP.Chemscore.CHOScore>
0.0000

> <Gold.PLP.Chemscore.Metal>
0.0000

> <Gold.Chemscore.Hbonds>
donor molecule, donor type, donor heavy atom, donor atom, acceptor molecule, acceptor atom, score
      L1  H     4    44       P1 10957  2.00

> <Gold.PLP.Chemscore.Internal.Correction>
0.0866

> <Gold.Rescore>
     Score         DG    S(hbond)    S(metal)    S(lipo)     H(rot)  DE(clash)    DE(int)     intcor
     16.19     -16.77       0.96        0.00      99.99       1.41       0.06       0.52       ----

> <Gold.Chemscore.Fitness>
16.1920

> <Gold.Chemscore.DG>
-16.7719

> <Gold.Chemscore.ZeroCoef>
-5.4800

> <Gold.Chemscore.Hbond>
0.9571

> <Gold.Chemscore.Metal>
0.0000

> <Gold.Chemscore.Lipo>
99.9933

> <Gold.Chemscore.Internal_Hbond>
0.0000

> <Gold.Chemscore.DEClash>
0.0580

> <Gold.Chemscore.DEInternal>
0.5219

> <Gold.Chemscore.Rot>
1.4078

> <Gold.Chemscore.Internal.Correction>
   9.000000E+99

> <Gold.Chemscore.Hbonds>
donor molecule, donor type, donor heavy atom, donor atom, acceptor molecule, acceptor atom, score
      L1  H     4    44       P1 10957  0.78

> <Gold.Chemscore.Hbond.Weighted>
-3.1967

> <Gold.Chemscore.Metal.Weighted>
-0.0000

> <Gold.Chemscore.Lipo.Weighted>
-11.6992

> <Gold.Chemscore.Internal_Hbond.Weighted>
0.0000

> <Gold.Chemscore.DEClash.Weighted>
0.0580

> <Gold.Chemscore.DEInternal.Weighted>
0.5219

> <Gold.Chemscore.Rot.Weighted>
3.6041

> <Gold.Chemscore.Internal.Correction.Weighted>
   9.000000E+99

> <Gold.Protein.RotatedTorsions>
[ 6907 6896 6895 6894 ] final -167.12 input  -60.11 | X-H torsion
[ 7974 7965 7964 7962 ] final -142.03 input  175.53 | X-H torsion
[ 8008 7997 7996 7995 ] final   90.74 input   59.86 | X-H torsion
[ 10167 10162 10161 10158 ] final   87.56 input  -65.29 | X-H torsion
[ 10718 10713 10712 10709 ] final  -91.96 input   66.30 | X-H torsion
[ 10763 10752 10751 10750 ] final  -17.27 input  -60.55 | X-H torsion
[ 11005 11000 10999 10996 ] final   70.30 input  -57.11 | X-H torsion

> <Gold.Protein.ActiveResidues>
 VAL166  LYS551  ARG553  GLY616  TRP617  ASP618  TYR619  PRO620  LYS621  CYS622 
 ASP623  PHE694  ASN695  SER759  ASP760  ASP761  ALA762  ILE779  LEU786  VAL792 
 PHE793  MET794  SER795  GLU796  ALA797  LYS798  CYS799  TRP800  GLU811  SER814 

> <Gold.Protein.RotatedAtoms>
  151.4545  133.3609  159.2799 H   0  0  0  0  0  0  0  0  0  0  0  0  # atno 6907 bound_to 6896
  150.9068  134.8485  159.7408 H   0  0  0  0  0  0  0  0  0  0  0  0  # atno 6908 bound_to 6896
  152.4910  134.4471  159.9614 H   0  0  0  0  0  0  0  0  0  0  0  0  # atno 6909 bound_to 6896
  144.8474  140.6008  143.5412 H   0  0  0  0  0  0  0  0  0  0  0  0  # atno 7974 bound_to 7965
  156.0156  140.3346  155.6985 H   0  0  0  0  0  0  0  0  0  0  0  0  # atno 8008 bound_to 7997
  155.6096  140.0664  157.2728 H   0  0  0  0  0  0  0  0  0  0  0  0  # atno 8009 bound_to 7997
  154.4297  140.1796  156.1246 H   0  0  0  0  0  0  0  0  0  0  0  0  # atno 8010 bound_to 7997
  139.8761  144.6466  150.8895 H   0  0  0  0  0  0  0  0  0  0  0  0  # atno 10167 bound_to 10162
  155.9998  130.4968  150.5553 H   0  0  0  0  0  0  0  0  0  0  0  0  # atno 10718 bound_to 10713
  153.5713  135.7007  153.5503 H   0  0  0  0  0  0  0  0  0  0  0  0  # atno 10763 bound_to 10752
  153.3342  135.4039  155.1519 H   0  0  0  0  0  0  0  0  0  0  0  0  # atno 10764 bound_to 10752
  154.8632  135.3726  154.5236 H   0  0  0  0  0  0  0  0  0  0  0  0  # atno 10765 bound_to 10752
  139.9605  134.7069  156.0657 H   0  0  0  0  0  0  0  0  0  0  0  0  # atno 11005 bound_to 11000
  145.4569  139.1517  143.3888 LP  0  0  0  0  0  0  0  0  0  0  0  0  # atno 17320 bound_to 7965
  146.2756  140.4697  142.8797 LP  0  0  0  0  0  0  0  0  0  0  0  0  # atno 17321 bound_to 7965
  140.7752  143.3624  151.1803 LP  0  0  0  0  0  0  0  0  0  0  0  0  # atno 17342 bound_to 10162
  139.7239  143.9179  152.2995 LP  0  0  0  0  0  0  0  0  0  0  0  0  # atno 17343 bound_to 10162
  157.3470  131.0727  151.1743 LP  0  0  0  0  0  0  0  0  0  0  0  0  # atno 17370 bound_to 10713
  157.2572  130.6642  149.5958 LP  0  0  0  0  0  0  0  0  0  0  0  0  # atno 17371 bound_to 10713
  141.1282  133.6593  156.3392 LP  0  0  0  0  0  0  0  0  0  0  0  0  # atno 17394 bound_to 11000
  140.5511  134.6027  157.5408 LP  0  0  0  0  0  0  0  0  0  0  0  0  # atno 17395 bound_to 11000

$$$$
