AV-unprocessed.smi:1863|AV-procd|sdf|7551|dock7
  -GOLD-   22720 9263D 1   1.00000     0.00000
 Structure written by MMmdl.
 37 38  0  0  0  0  0  0  0  0  1 V2000
  151.9990  143.9993  158.6892 C   0  0  0  0  0  0  0  0  0  0  0  0
  151.8430  142.7192  157.8569 C   0  0  1  0  0  0  0  0  0  0  0  0
  151.7130  141.4771  158.7687 C   0  0  0  0  0  0  0  0  0  0  0  0
  152.7967  141.3798  159.7454 N   0  0  0  0  0  0  0  0  0  0  0  0
  152.7718  142.1728  160.9636 C   0  0  0  0  0  0  0  0  0  0  0  0
  153.8844  141.5812  161.8396 C   0  0  0  0  0  0  0  0  0  0  0  0
  154.7597  140.7568  160.8899 C   0  0  0  0  0  0  0  0  0  0  0  0
  153.8908  140.6144  159.6517 C   0  0  0  0  0  0  0  0  0  0  0  0
  154.1829  139.8766  158.7117 O   0  0  0  0  0  0  0  0  0  0  0  0
  150.6595  142.8616  157.0102 N   0  0  0  0  0  0  0  0  0  0  0  0
  150.1623  141.9167  156.1983 C   0  0  0  0  0  0  0  0  0  0  0  0
  150.6649  140.8013  156.0641 O   0  0  0  0  0  0  0  0  0  0  0  0
  149.0424  142.3421  155.5898 N   0  0  0  0  0  0  0  0  0  0  0  0
  148.1980  141.6312  154.6949 C   0  0  0  0  0  0  0  0  0  0  0  0
  148.3915  140.2800  154.3182 C   0  0  0  0  0  0  0  0  0  0  0  0
  147.4913  139.6928  153.4082 C   0  0  0  0  0  0  0  0  0  0  0  0
  146.4369  140.4780  152.9030 C   0  0  0  0  0  0  0  0  0  0  0  0
  146.2486  141.7706  153.2428 N   0  0  0  0  0  0  0  0  0  0  0  0
  147.1160  142.3269  154.1149 C   0  0  0  0  0  0  0  0  0  0  0  0
  152.8892  143.9520  159.3172 H   0  0  0  0  0  0  0  0  0  0  0  0
  151.1396  144.1578  159.3420 H   0  0  0  0  0  0  0  0  0  0  0  0
  152.0978  144.8759  158.0481 H   0  0  0  0  0  0  0  0  0  0  0  0
  152.7369  142.6313  157.2371 H   0  0  0  0  0  0  0  0  0  0  0  0
  150.7712  141.5196  159.3182 H   0  0  0  0  0  0  0  0  0  0  0  0
  151.6684  140.5665  158.1692 H   0  0  0  0  0  0  0  0  0  0  0  0
  152.9810  143.2143  160.7157 H   0  0  0  0  0  0  0  0  0  0  0  0
  151.8004  142.1271  161.4571 H   0  0  0  0  0  0  0  0  0  0  0  0
  154.4519  142.3565  162.3549 H   0  0  0  0  0  0  0  0  0  0  0  0
  153.4519  140.9289  162.5996 H   0  0  0  0  0  0  0  0  0  0  0  0
  155.6764  141.2871  160.6300 H   0  0  0  0  0  0  0  0  0  0  0  0
  155.0208  139.7850  161.3094 H   0  0  0  0  0  0  0  0  0  0  0  0
  150.1748  143.7457  157.0579 H   0  0  0  0  0  0  0  0  0  0  0  0
  148.7139  143.2584  155.8574 H   0  0  0  0  0  0  0  0  0  0  0  0
  149.2131  139.6902  154.6931 H   0  0  0  0  0  0  0  0  0  0  0  0
  147.6098  138.6642  153.1008 H   0  0  0  0  0  0  0  0  0  0  0  0
  145.7300  140.0587  152.2025 H   0  0  0  0  0  0  0  0  0  0  0  0
  146.9361  143.3633  154.3611 H   0  0  0  0  0  0  0  0  0  0  0  0
  1  2  1  0  0  0  0
  1 20  1  0  0  0  0
  1 21  1  0  0  0  0
  1 22  1  0  0  0  0
  2  3  1  0  0  0  0
  2 10  1  0  0  0  0
  2 23  1  0  0  0  0
  3  4  1  0  0  0  0
  3 24  1  0  0  0  0
  3 25  1  0  0  0  0
  4  8  1  0  0  0  0
  4  5  1  0  0  0  0
  5  6  1  0  0  0  0
  5 26  1  0  0  0  0
  5 27  1  0  0  0  0
  6  7  1  0  0  0  0
  6 28  1  0  0  0  0
  6 29  1  0  0  0  0
  7  8  1  0  0  0  0
  7 30  1  0  0  0  0
  7 31  1  0  0  0  0
  8  9  2  0  0  0  0
 10 11  1  0  0  0  0
 10 32  1  0  0  0  0
 11 12  2  0  0  0  0
 11 13  1  0  0  0  0
 13 14  1  0  0  0  0
 13 33  1  0  0  0  0
 14 19  1  0  0  0  0
 14 15  2  0  0  0  0
 15 16  1  0  0  0  0
 15 34  1  0  0  0  0
 16 17  2  0  0  0  0
 16 35  1  0  0  0  0
 17 18  1  0  0  0  0
 17 36  1  0  0  0  0
 18 19  2  0  0  0  0
 19 37  1  0  0  0  0
M  END
> <s_m_source_file>
AV-unprocessed.smi

> <i_m_source_file_index>
1863

> <i_lp_mmshare_version>
43012

> <i_f3d_flags>
0

> <s_epik_input>
Tz1DMVtDSDJdW0NIMl1bQ0gyXU4xW0NIMl1bQ0BASF0oW0NIM10pW05IXUMoPU8pW05IXWMyW2NIXVtjSF1bY0hdbltjSF0y

> <s_epik_cmdline>
J2VwaWtfcHl0aG9uJywgJy1waCcsICc3LjAnLCAnLXRuJywgJzgnLCAnLW1hJywgJzIwMCcsICctbWV0YWxfYmluZGluZycsICctaW1hZScsICc8aW5maWxlLm1hZT4nLCAnLW9tYWUnLCAnPG91dGZpbGUubWFlPic=

> <r_epik_Ionization_Penalty>
0.0047799

> <r_epik_Ionization_Penalty_Charging>
0

> <r_epik_Ionization_Penalty_Neutral>
0.0047799

> <r_epik_State_Penalty>
0.0034394

> <r_epik_Charging_Adjusted_Penalty>
0.0034394

> <i_epik_Tot_Q>
0

> <i_epik_Tot_abs_Q>
0

> <r_epik_Metal_State_Penalty>
-0

> <b_epik_Metal_Only>
0

> <s_lp_Force_Field>
OPLS_2005

> <r_lp_Energy>
21.1293

> <b_lp_Chiralities_Consistent>
1

> <s_lp_Variant>
AV-unprocessed.smi:1863-2

> <Gold.Version>
5.8.1

> <Gold.Id.Protein>
6NUR|6NUR_protein|mol2

> <Gold.PLP.Fitness>
49.9823

> <Gold.PLP.PLP>
-39.4442

> <Gold.PLP.part.hbond>
-2.7753

> <Gold.PLP.part.metal>
0.0000

> <Gold.PLP.part.buried>
0.2573

> <Gold.PLP.part.nonpolar>
-36.9024

> <Gold.PLP.part.repulsive>
0.5445

> <Gold.PLP.ligand.clash>
0.0000

> <Gold.PLP.ligand.torsion>
0.3347

> <Gold.PLP.Chemscore.Hbond>
2.4864

> <Gold.PLP.Chemscore.CHOScore>
1.2440

> <Gold.PLP.Chemscore.Metal>
0.0000

> <Gold.Chemscore.Hbonds>
donor molecule, donor type, donor heavy atom, donor atom, acceptor molecule, acceptor atom, score
      L1  H    10    32       P1  8028  0.50
      L1  H    13    33       P1  8028  0.79
      P1  H  7997  8008       L1     9  1.00
      L1  C    17    36       P1 10175  0.78
      L1  C    19    37       P1  8028  0.37

> <Gold.PLP.Chemscore.Internal.Correction>
0.0164

> <Gold.Rescore>
     Score         DG    S(hbond)    S(metal)    S(lipo)     H(rot)  DE(clash)    DE(int)     intcor
     16.03     -20.10       2.19        0.00      96.30       1.54       1.79       2.27       ----

> <Gold.Chemscore.Fitness>
16.0316

> <Gold.Chemscore.DG>
-20.0980

> <Gold.Chemscore.ZeroCoef>
-5.4800

> <Gold.Chemscore.Hbond>
2.1858

> <Gold.Chemscore.Metal>
0.0000

> <Gold.Chemscore.Lipo>
96.2989

> <Gold.Chemscore.Internal_Hbond>
0.0000

> <Gold.Chemscore.DEClash>
1.7926

> <Gold.Chemscore.DEInternal>
2.2738

> <Gold.Chemscore.Rot>
1.5428

> <Gold.Chemscore.Internal.Correction>
   9.000000E+99

> <Gold.Chemscore.Hbonds>
donor molecule, donor type, donor heavy atom, donor atom, acceptor molecule, acceptor atom, score
      L1  H    10    32       P1  8028  0.48
      L1  H    13    33       P1  8028  0.75
      P1  H  7997  8008       L1     9  0.98

> <Gold.Chemscore.Hbond.Weighted>
-7.3007

> <Gold.Chemscore.Metal.Weighted>
-0.0000

> <Gold.Chemscore.Lipo.Weighted>
-11.2670

> <Gold.Chemscore.Internal_Hbond.Weighted>
0.0000

> <Gold.Chemscore.DEClash.Weighted>
1.7926

> <Gold.Chemscore.DEInternal.Weighted>
2.2738

> <Gold.Chemscore.Rot.Weighted>
3.9497

> <Gold.Chemscore.Internal.Correction.Weighted>
   9.000000E+99

> <Gold.Protein.RotatedTorsions>
[ 6907 6896 6895 6894 ] final  -65.39 input  -60.11 | X-H torsion
[ 7974 7965 7964 7962 ] final  -18.47 input  175.53 | X-H torsion
[ 8008 7997 7996 7995 ] final -112.62 input   59.86 | X-H torsion
[ 10167 10162 10161 10158 ] final   78.07 input  -65.29 | X-H torsion
[ 10718 10713 10712 10709 ] final   81.29 input   66.30 | X-H torsion
[ 10763 10752 10751 10750 ] final   78.34 input  -60.55 | X-H torsion
[ 11005 11000 10999 10996 ] final -132.92 input  -57.11 | X-H torsion

> <Gold.Protein.ActiveResidues>
 VAL166  LYS551  ARG553  GLY616  TRP617  ASP618  TYR619  PRO620  LYS621  CYS622 
 ASP623  PHE694  ASN695  SER759  ASP760  ASP761  ALA762  ILE779  LEU786  VAL792 
 PHE793  MET794  SER795  GLU796  ALA797  LYS798  CYS799  TRP800  GLU811  SER814 

> <Gold.Protein.RotatedAtoms>
  150.7527  134.6167  159.6114 H   0  0  0  0  0  0  0  0  0  0  0  0  # atno 6907 bound_to 6896
  152.3485  134.7034  160.0252 H   0  0  0  0  0  0  0  0  0  0  0  0  # atno 6908 bound_to 6896
  151.7463  133.3289  159.3416 H   0  0  0  0  0  0  0  0  0  0  0  0  # atno 6909 bound_to 6896
  146.1891  140.3925  142.8465 H   0  0  0  0  0  0  0  0  0  0  0  0  # atno 7974 bound_to 7965
  155.0080  140.0394  157.2387 H   0  0  0  0  0  0  0  0  0  0  0  0  # atno 8008 bound_to 7997
  154.7485  140.2762  155.6289 H   0  0  0  0  0  0  0  0  0  0  0  0  # atno 8009 bound_to 7997
  156.2880  140.2651  156.2232 H   0  0  0  0  0  0  0  0  0  0  0  0  # atno 8010 bound_to 7997
  139.9748  144.5868  150.7953 H   0  0  0  0  0  0  0  0  0  0  0  0  # atno 10167 bound_to 10162
  157.6829  130.9997  150.2205 H   0  0  0  0  0  0  0  0  0  0  0  0  # atno 10718 bound_to 10713
  153.0867  135.4880  154.8610 H   0  0  0  0  0  0  0  0  0  0  0  0  # atno 10763 bound_to 10752
  154.7219  135.3041  154.9035 H   0  0  0  0  0  0  0  0  0  0  0  0  # atno 10764 bound_to 10752
  153.9697  135.6802  153.4800 H   0  0  0  0  0  0  0  0  0  0  0  0  # atno 10765 bound_to 10752
  140.9127  134.1546  157.4376 H   0  0  0  0  0  0  0  0  0  0  0  0  # atno 11005 bound_to 11000
  144.8452  140.6918  143.6204 LP  0  0  0  0  0  0  0  0  0  0  0  0  # atno 17320 bound_to 7965
  145.3849  139.1629  143.4260 LP  0  0  0  0  0  0  0  0  0  0  0  0  # atno 17321 bound_to 7965
  140.7509  143.2964  151.3194 LP  0  0  0  0  0  0  0  0  0  0  0  0  # atno 17342 bound_to 10162
  139.6454  144.0462  152.2586 LP  0  0  0  0  0  0  0  0  0  0  0  0  # atno 17343 bound_to 10162
  156.2857  130.3739  149.7891 LP  0  0  0  0  0  0  0  0  0  0  0  0  # atno 17370 bound_to 10713
  156.5566  130.8365  151.3316 LP  0  0  0  0  0  0  0  0  0  0  0  0  # atno 17371 bound_to 10713
  139.8760  134.9942  156.5681 LP  0  0  0  0  0  0  0  0  0  0  0  0  # atno 17394 bound_to 11000
  140.8089  133.8445  155.8792 LP  0  0  0  0  0  0  0  0  0  0  0  0  # atno 17395 bound_to 11000

$$$$
