AV-unprocessed.smi:787|AV-procd|sdf|3728|dock8
  -GOLD-   22720 1163D 1   1.00000     0.00000
 Structure written by MMmdl.
 47 49  0  0  0  0  0  0  0  0  2 V2000
  146.1890  137.9378  158.0149 C   0  0  0  0  0  0  0  0  0  0  0  0
  146.7306  138.5955  156.8363 N   0  0  0  0  0  0  0  0  0  0  0  0
  147.9910  139.2084  156.8801 C   0  0  0  0  0  0  0  0  0  0  0  0
  148.7667  139.0681  157.9796 N   0  0  0  0  0  0  0  0  0  0  0  0
  149.9615  139.6727  157.9865 C   0  0  0  0  0  0  0  0  0  0  0  0
  150.5333  140.4233  157.0329 N   0  0  0  0  0  0  0  0  0  0  0  0
  149.7758  140.5648  155.9371 C   0  0  0  0  0  0  0  0  0  0  0  0
  150.1181  141.2810  154.8041 N   0  0  0  0  0  0  0  0  0  0  0  0
  149.0481  141.0991  154.0358 C   0  0  0  0  0  0  0  0  0  0  0  0
  148.0489  140.3387  154.5266 N   0  0  0  0  0  0  0  0  0  0  0  0
  146.8115  139.9968  153.8377 C   0  0  0  0  0  0  0  0  0  0  0  0
  146.9403  138.7617  152.9167 C   0  0  1  0  0  0  0  0  0  0  0  0
  148.3142  138.5338  152.6630 O   0  0  0  0  0  0  0  0  0  0  0  0
  146.3278  137.4809  153.5216 C   0  0  0  0  0  0  0  0  0  0  0  0
  146.2204  136.3837  152.5248 N   0  3  2  0  0  0  0  0  0  0  0  0
  145.6210  136.8339  151.2480 C   0  0  0  0  0  0  0  0  0  0  0  0
  145.5575  135.1662  153.0552 C   0  0  0  0  0  0  0  0  0  0  0  0
  145.3420  134.1267  151.9678 C   0  0  0  0  0  0  0  0  0  0  0  0
  144.0421  133.6457  151.7023 C   0  0  0  0  0  0  0  0  0  0  0  0
  143.8331  132.6946  150.6849 C   0  0  0  0  0  0  0  0  0  0  0  0
  144.9226  132.2195  149.9297 C   0  0  0  0  0  0  0  0  0  0  0  0
  146.2220  132.6936  150.1938 C   0  0  0  0  0  0  0  0  0  0  0  0
  146.4322  133.6426  151.2129 C   0  0  0  0  0  0  0  0  0  0  0  0
  148.4843  139.9702  155.8004 C   0  0  0  0  0  0  0  0  0  0  0  0
  145.1996  137.5370  157.7956 H   0  0  0  0  0  0  0  0  0  0  0  0
  146.0960  138.6419  158.8423 H   0  0  0  0  0  0  0  0  0  0  0  0
  146.8295  137.1122  158.3269 H   0  0  0  0  0  0  0  0  0  0  0  0
  146.1259  138.7490  156.0426 H   0  0  0  0  0  0  0  0  0  0  0  0
  150.5452  139.5381  158.8850 H   0  0  0  0  0  0  0  0  0  0  0  0
  148.9921  141.5352  153.0490 H   0  0  0  0  0  0  0  0  0  0  0  0
  146.0292  139.8327  154.5769 H   0  0  0  0  0  0  0  0  0  0  0  0
  146.4915  140.8638  153.2577 H   0  0  0  0  0  0  0  0  0  0  0  0
  146.4603  138.9927  151.9656 H   0  0  0  0  0  0  0  0  0  0  0  0
  148.4087  137.7458  152.1508 H   0  0  0  0  0  0  0  0  0  0  0  0
  146.9332  137.1697  154.3717 H   0  0  0  0  0  0  0  0  0  0  0  0
  145.3379  137.6878  153.9287 H   0  0  0  0  0  0  0  0  0  0  0  0
  144.5749  137.1122  151.3842 H   0  0  0  0  0  0  0  0  0  0  0  0
  145.6682  136.0422  150.4997 H   0  0  0  0  0  0  0  0  0  0  0  0
  146.1537  137.6964  150.8472 H   0  0  0  0  0  0  0  0  0  0  0  0
  146.1391  134.7496  153.8797 H   0  0  0  0  0  0  0  0  0  0  0  0
  144.5792  135.4244  153.4633 H   0  0  0  0  0  0  0  0  0  0  0  0
  143.2009  134.0072  152.2754 H   0  0  0  0  0  0  0  0  0  0  0  0
  142.8368  132.3294  150.4829 H   0  0  0  0  0  0  0  0  0  0  0  0
  144.7621  131.4903  149.1493 H   0  0  0  0  0  0  0  0  0  0  0  0
  147.0576  132.3291  149.6145 H   0  0  0  0  0  0  0  0  0  0  0  0
  147.4323  134.0024  151.4061 H   0  0  0  0  0  0  0  0  0  0  0  0
  147.1657  136.0999  152.3115 H   0  0  0  0  0  0  0  0  0  0  0  0
  1  2  1  0  0  0  0
  1 25  1  0  0  0  0
  1 26  1  0  0  0  0
  1 27  1  0  0  0  0
  2  3  1  0  0  0  0
  2 28  1  0  0  0  0
  3 24  1  0  0  0  0
  3  4  2  0  0  0  0
  4  5  1  0  0  0  0
  5  6  2  0  0  0  0
  5 29  1  0  0  0  0
  6  7  1  0  0  0  0
  7 24  2  0  0  0  0
  7  8  1  0  0  0  0
  8  9  2  0  0  0  0
  9 10  1  0  0  0  0
  9 30  1  0  0  0  0
 10 11  1  0  0  0  0
 10 24  1  0  0  0  0
 11 12  1  0  0  0  0
 11 31  1  0  0  0  0
 11 32  1  0  0  0  0
 12 13  1  0  0  0  0
 12 14  1  0  0  0  0
 12 33  1  0  0  0  0
 13 34  1  0  0  0  0
 14 15  1  0  0  0  0
 14 35  1  0  0  0  0
 14 36  1  0  0  0  0
 15 16  1  0  0  0  0
 15 17  1  0  0  0  0
 15 47  1  0  0  0  0
 16 37  1  0  0  0  0
 16 38  1  0  0  0  0
 16 39  1  0  0  0  0
 17 18  1  0  0  0  0
 17 40  1  0  0  0  0
 17 41  1  0  0  0  0
 18 23  1  0  0  0  0
 18 19  2  0  0  0  0
 19 20  1  0  0  0  0
 19 42  1  0  0  0  0
 20 21  2  0  0  0  0
 20 43  1  0  0  0  0
 21 22  1  0  0  0  0
 21 44  1  0  0  0  0
 22 23  2  0  0  0  0
 22 45  1  0  0  0  0
 23 46  1  0  0  0  0
M  CHG  1  15   1
M  END
> <s_m_source_file>
AV-unprocessed.smi

> <i_m_source_file_index>
787

> <i_lp_mmshare_version>
43012

> <i_f3d_flags>
0

> <s_epik_input>
bjFbY0hdbmMoW05IXVtDSDNdKWMoYzEyKW4oW2NIXW4yKVtDSDJdW0NASF0oW09IXSlbQ0gyXU4oW0NIM10pW0NIMl1jM1tjSF1bY0hdW2NIXVtjSF1bY0hdMw==

> <s_epik_cmdline>
J2VwaWtfcHl0aG9uJywgJy1waCcsICc3LjAnLCAnLXRuJywgJzgnLCAnLW1hJywgJzIwMCcsICctbWV0YWxfYmluZGluZycsICctaW1hZScsICc8aW5maWxlLm1hZT4nLCAnLW9tYWUnLCAnPG91dGZpbGUubWFlPic=

> <r_lp_tautomer_probability>
0.999987

> <r_epik_Ionization_Penalty>
0.0526284

> <r_epik_Ionization_Penalty_Charging>
0.0475377

> <r_epik_Ionization_Penalty_Neutral>
0.00509065

> <r_epik_State_Penalty>
0.0404888

> <r_epik_Charging_Adjusted_Penalty>
0.0880265

> <i_epik_Tot_Q>
1

> <i_epik_Tot_abs_Q>
1

> <r_epik_Metal_State_Penalty>
0.040507

> <b_epik_Metal_Only>
0

> <s_lp_Force_Field>
OPLS_2005

> <r_lp_Energy>
14.9507

> <b_lp_Chiralities_Consistent>
1

> <s_lp_Variant>
AV-unprocessed.smi:787-4

> <Gold.Version>
5.8.1

> <Gold.Id.Protein>
6NUR|6NUR_protein|mol2

> <Gold.PLP.Fitness>
44.5258

> <Gold.PLP.PLP>
-33.5892

> <Gold.PLP.part.hbond>
-3.7462

> <Gold.PLP.part.metal>
0.0000

> <Gold.PLP.part.buried>
-1.3786

> <Gold.PLP.part.nonpolar>
-27.9288

> <Gold.PLP.part.repulsive>
0.1717

> <Gold.PLP.ligand.clash>
0.0000

> <Gold.PLP.ligand.torsion>
1.1416

> <Gold.PLP.Chemscore.Hbond>
3.5108

> <Gold.PLP.Chemscore.CHOScore>
0.7991

> <Gold.PLP.Chemscore.Metal>
0.0000

> <Gold.Chemscore.Hbonds>
donor molecule, donor type, donor heavy atom, donor atom, acceptor molecule, acceptor atom, score
      L1  H    13    34       P1  7948  1.00
      L1  H    15    47       P1  7948  2.00
      P1  H  7989  7998       L1     8  0.53
      L1  C     9    30       P1  7957  0.74

> <Gold.PLP.Chemscore.Internal.Correction>
0.2900

> <Gold.Rescore>
     Score         DG    S(hbond)    S(metal)    S(lipo)     H(rot)  DE(clash)    DE(int)     intcor
     10.17     -12.32       2.00        0.00      71.17       3.19       0.28       1.86       ----

> <Gold.Chemscore.Fitness>
10.1723

> <Gold.Chemscore.DG>
-12.3189

> <Gold.Chemscore.ZeroCoef>
-5.4800

> <Gold.Chemscore.Hbond>
2.0017

> <Gold.Chemscore.Metal>
0.0000

> <Gold.Chemscore.Lipo>
71.1700

> <Gold.Chemscore.Internal_Hbond>
0.0000

> <Gold.Chemscore.DEClash>
0.2843

> <Gold.Chemscore.DEInternal>
1.8623

> <Gold.Chemscore.Rot>
3.1928

> <Gold.Chemscore.Internal.Correction>
   9.000000E+99

> <Gold.Chemscore.Hbonds>
donor molecule, donor type, donor heavy atom, donor atom, acceptor molecule, acceptor atom, score
      L1  H    13    34       P1  7948  0.97
      L1  H    15    47       P1  7948  1.00
      P1  H  7989  7998       L1     8  0.15

> <Gold.Chemscore.Hbond.Weighted>
-6.6857

> <Gold.Chemscore.Metal.Weighted>
-0.0000

> <Gold.Chemscore.Lipo.Weighted>
-8.3269

> <Gold.Chemscore.Internal_Hbond.Weighted>
0.0000

> <Gold.Chemscore.DEClash.Weighted>
0.2843

> <Gold.Chemscore.DEInternal.Weighted>
1.8623

> <Gold.Chemscore.Rot.Weighted>
8.1736

> <Gold.Chemscore.Internal.Correction.Weighted>
   9.000000E+99

> <Gold.Protein.RotatedTorsions>
[ 6907 6896 6895 6894 ] final  129.21 input  -60.11 | X-H torsion
[ 7974 7965 7964 7962 ] final -107.60 input  175.53 | X-H torsion
[ 8008 7997 7996 7995 ] final   40.13 input   59.86 | X-H torsion
[ 10167 10162 10161 10158 ] final   52.81 input  -65.29 | X-H torsion
[ 10718 10713 10712 10709 ] final  164.37 input   66.30 | X-H torsion
[ 10763 10752 10751 10750 ] final   28.43 input  -60.55 | X-H torsion
[ 11005 11000 10999 10996 ] final    5.76 input  -57.11 | X-H torsion

> <Gold.Protein.ActiveResidues>
 VAL166  LYS551  ARG553  GLY616  TRP617  ASP618  TYR619  PRO620  LYS621  CYS622 
 ASP623  PHE694  ASN695  SER759  ASP760  ASP761  ALA762  ILE779  LEU786  VAL792 
 PHE793  MET794  SER795  GLU796  ALA797  LYS798  CYS799  TRP800  GLU811  SER814 

> <Gold.Protein.RotatedAtoms>
  152.3646  133.6340  159.6040 H   0  0  0  0  0  0  0  0  0  0  0  0  # atno 6907 bound_to 6896
  150.7625  133.9369  159.3453 H   0  0  0  0  0  0  0  0  0  0  0  0  # atno 6908 bound_to 6896
  151.7201  135.0897  160.0334 H   0  0  0  0  0  0  0  0  0  0  0  0  # atno 6909 bound_to 6896
  145.2033  140.9065  143.3357 H   0  0  0  0  0  0  0  0  0  0  0  0  # atno 7974 bound_to 7965
  155.2481  140.3350  155.4285 H   0  0  0  0  0  0  0  0  0  0  0  0  # atno 8008 bound_to 7997
  156.2227  140.1816  156.7481 H   0  0  0  0  0  0  0  0  0  0  0  0  # atno 8009 bound_to 7997
  154.5851  140.0647  156.9144 H   0  0  0  0  0  0  0  0  0  0  0  0  # atno 8010 bound_to 7997
  140.2474  144.3517  150.6359 H   0  0  0  0  0  0  0  0  0  0  0  0  # atno 10167 bound_to 10162
  157.0953  131.0428  151.2520 H   0  0  0  0  0  0  0  0  0  0  0  0  # atno 10718 bound_to 10713
  153.0492  135.6513  154.0737 H   0  0  0  0  0  0  0  0  0  0  0  0  # atno 10763 bound_to 10752
  154.0428  135.2902  155.3354 H   0  0  0  0  0  0  0  0  0  0  0  0  # atno 10764 bound_to 10752
  154.6770  135.5334  153.8279 H   0  0  0  0  0  0  0  0  0  0  0  0  # atno 10765 bound_to 10752
  140.5670  134.0138  155.7994 H   0  0  0  0  0  0  0  0  0  0  0  0  # atno 11005 bound_to 11000
  144.9926  139.3674  143.6207 LP  0  0  0  0  0  0  0  0  0  0  0  0  # atno 17320 bound_to 7965
  146.3413  139.9116  142.8779 LP  0  0  0  0  0  0  0  0  0  0  0  0  # atno 17321 bound_to 7965
  140.6067  143.2168  151.6967 LP  0  0  0  0  0  0  0  0  0  0  0  0  # atno 17342 bound_to 10162
  139.5057  144.3707  152.0473 LP  0  0  0  0  0  0  0  0  0  0  0  0  # atno 17343 bound_to 10162
  157.4686  130.7695  149.7302 LP  0  0  0  0  0  0  0  0  0  0  0  0  # atno 17370 bound_to 10713
  155.9887  130.3957  150.3105 LP  0  0  0  0  0  0  0  0  0  0  0  0  # atno 17371 bound_to 10713
  141.1079  133.9663  157.2963 LP  0  0  0  0  0  0  0  0  0  0  0  0  # atno 17394 bound_to 11000
  139.9380  135.0194  156.8617 LP  0  0  0  0  0  0  0  0  0  0  0  0  # atno 17395 bound_to 11000

$$$$
