AV-unprocessed.smi:1927|AV-procd|sdf|7797|dock1
  -GOLD-   22720 9543D 1   1.00000     0.00000
 Structure written by MMmdl.
 34 35  0  0  0  0  0  0  0  0  1 V2000
  150.3587  144.9816  159.5920 C   0  0  0  0  0  0  0  0  0  0  0  0
  151.3562  143.8506  159.7844 C   0  0  0  0  0  0  0  0  0  0  0  0
  152.1648  143.8316  160.9408 C   0  0  0  0  0  0  0  0  0  0  0  0
  153.0866  142.7855  161.1161 C   0  0  0  0  0  0  0  0  0  0  0  0
  153.1614  141.7961  160.1208 C   0  0  0  0  0  0  0  0  0  0  0  0
  152.3924  141.8061  159.0128 N   0  0  0  0  0  0  0  0  0  0  0  0
  151.4969  142.8086  158.8285 C   0  0  0  0  0  0  0  0  0  0  0  0
  150.6489  142.8817  157.6874 N   0  0  0  0  0  0  0  0  0  0  0  0
  150.5060  141.9915  156.6896 C   0  0  0  0  0  0  0  0  0  0  0  0
  151.1312  140.9364  156.5790 O   0  0  0  0  0  0  0  0  0  0  0  0
  149.5843  142.4028  155.8066 N   0  0  0  0  0  0  0  0  0  0  0  0
  149.1791  141.6820  154.6038 C   0  0  0  0  0  0  0  0  0  0  0  0
  147.6992  141.2612  154.6611 C   0  0  1  0  0  0  0  0  0  0  0  0
  147.1995  140.8431  156.0308 C   0  0  0  0  0  0  0  0  0  0  0  0
  145.6871  140.9778  155.8747 C   0  0  0  0  0  0  0  0  0  0  0  0
  145.4798  142.0008  154.9041 O   0  0  0  0  0  0  0  0  0  0  0  0
  146.7248  142.3917  154.3343 C   0  0  0  0  0  0  0  0  0  0  0  0
  150.3917  145.6866  160.4234 H   0  0  0  0  0  0  0  0  0  0  0  0
  149.3437  144.5887  159.5253 H   0  0  0  0  0  0  0  0  0  0  0  0
  150.5787  145.5326  158.6772 H   0  0  0  0  0  0  0  0  0  0  0  0
  152.0822  144.6083  161.6868 H   0  0  0  0  0  0  0  0  0  0  0  0
  153.7193  142.7424  161.9902 H   0  0  0  0  0  0  0  0  0  0  0  0
  153.8554  140.9743  160.2163 H   0  0  0  0  0  0  0  0  0  0  0  0
  150.0742  143.7090  157.6310 H   0  0  0  0  0  0  0  0  0  0  0  0
  149.1236  143.2841  155.9801 H   0  0  0  0  0  0  0  0  0  0  0  0
  149.3786  142.2714  153.7070 H   0  0  0  0  0  0  0  0  0  0  0  0
  149.8055  140.7930  154.5269 H   0  0  0  0  0  0  0  0  0  0  0  0
  147.5257  140.4426  153.9599 H   0  0  0  0  0  0  0  0  0  0  0  0
  147.5069  139.8358  156.3138 H   0  0  0  0  0  0  0  0  0  0  0  0
  147.5590  141.5353  156.7938 H   0  0  0  0  0  0  0  0  0  0  0  0
  145.2593  140.0496  155.4942 H   0  0  0  0  0  0  0  0  0  0  0  0
  145.1930  141.2171  156.8168 H   0  0  0  0  0  0  0  0  0  0  0  0
  147.0417  143.3237  154.8047 H   0  0  0  0  0  0  0  0  0  0  0  0
  146.6335  142.5686  153.2624 H   0  0  0  0  0  0  0  0  0  0  0  0
  1  2  1  0  0  0  0
  1 18  1  0  0  0  0
  1 19  1  0  0  0  0
  1 20  1  0  0  0  0
  2  7  1  0  0  0  0
  2  3  2  0  0  0  0
  3  4  1  0  0  0  0
  3 21  1  0  0  0  0
  4  5  2  0  0  0  0
  4 22  1  0  0  0  0
  5  6  1  0  0  0  0
  5 23  1  0  0  0  0
  6  7  2  0  0  0  0
  7  8  1  0  0  0  0
  8  9  1  0  0  0  0
  8 24  1  0  0  0  0
  9 10  2  0  0  0  0
  9 11  1  0  0  0  0
 11 12  1  0  0  0  0
 11 25  1  0  0  0  0
 12 13  1  0  0  0  0
 12 26  1  0  0  0  0
 12 27  1  0  0  0  0
 13 17  1  0  0  0  0
 13 14  1  0  0  0  0
 13 28  1  0  0  0  0
 14 15  1  0  0  0  0
 14 29  1  0  0  0  0
 14 30  1  0  0  0  0
 15 16  1  0  0  0  0
 15 31  1  0  0  0  0
 15 32  1  0  0  0  0
 16 17  1  0  0  0  0
 17 33  1  0  0  0  0
 17 34  1  0  0  0  0
M  END
> <s_m_source_file>
AV-unprocessed.smi

> <i_m_source_file_index>
1927

> <i_lp_mmshare_version>
43012

> <i_f3d_flags>
0

> <s_epik_input>
W0NIM11jMVtjSF1bY0hdW2NIXW5jMVtOSF1DKD1PKVtOSF1bQ0gyXVtDQEBIXTJbQ0gyXVtDSDJdT1tDSDJdMg==

> <s_epik_cmdline>
J2VwaWtfcHl0aG9uJywgJy1waCcsICc3LjAnLCAnLXRuJywgJzgnLCAnLW1hJywgJzIwMCcsICctbWV0YWxfYmluZGluZycsICctaW1hZScsICc8aW5maWxlLm1hZT4nLCAnLW9tYWUnLCAnPG91dGZpbGUubWFlPic=

> <r_lp_tautomer_probability>
1

> <r_epik_Ionization_Penalty>
5.84082e-05

> <r_epik_Ionization_Penalty_Charging>
0

> <r_epik_Ionization_Penalty_Neutral>
5.84082e-05

> <r_epik_State_Penalty>
-0

> <r_epik_Charging_Adjusted_Penalty>
0

> <i_epik_Tot_Q>
0

> <i_epik_Tot_abs_Q>
0

> <r_epik_Metal_State_Penalty>
-0

> <b_epik_Metal_Only>
0

> <s_lp_Force_Field>
OPLS_2005

> <r_lp_Energy>
21.9437

> <b_lp_Chiralities_Consistent>
1

> <s_lp_Variant>
AV-unprocessed.smi:1927-2

> <Gold.Version>
5.8.1

> <Gold.Id.Protein>
6NUR|6NUR_protein|mol2

> <Gold.PLP.Fitness>
38.7894

> <Gold.PLP.PLP>
-36.2205

> <Gold.PLP.part.hbond>
-1.0000

> <Gold.PLP.part.metal>
0.0000

> <Gold.PLP.part.buried>
-6.4848

> <Gold.PLP.part.nonpolar>
-28.7370

> <Gold.PLP.part.repulsive>
0.3806

> <Gold.PLP.ligand.clash>
0.0000

> <Gold.PLP.ligand.torsion>
0.2213

> <Gold.PLP.Chemscore.Hbond>
1.0000

> <Gold.PLP.Chemscore.CHOScore>
0.0000

> <Gold.PLP.Chemscore.Metal>
0.0000

> <Gold.Chemscore.Hbonds>
donor molecule, donor type, donor heavy atom, donor atom, acceptor molecule, acceptor atom, score
      L1  H    11    25       P1  8028  0.89

> <Gold.PLP.Chemscore.Internal.Correction>
0.0114

> <Gold.Rescore>
     Score         DG    S(hbond)    S(metal)    S(lipo)     H(rot)  DE(clash)    DE(int)     intcor
     15.48     -17.91       1.80        0.00      81.84       1.23       0.73       1.71       ----

> <Gold.Chemscore.Fitness>
15.4790

> <Gold.Chemscore.DG>
-17.9124

> <Gold.Chemscore.ZeroCoef>
-5.4800

> <Gold.Chemscore.Hbond>
1.8011

> <Gold.Chemscore.Metal>
0.0000

> <Gold.Chemscore.Lipo>
81.8367

> <Gold.Chemscore.Internal_Hbond>
0.0000

> <Gold.Chemscore.DEClash>
0.7269

> <Gold.Chemscore.DEInternal>
1.7066

> <Gold.Chemscore.Rot>
1.2337

> <Gold.Chemscore.Internal.Correction>
   9.000000E+99

> <Gold.Chemscore.Hbonds>
donor molecule, donor type, donor heavy atom, donor atom, acceptor molecule, acceptor atom, score
      L1  H     8    24       P1  8028  0.01
      L1  H    11    25       P1  8028  0.84

> <Gold.Chemscore.Hbond.Weighted>
-6.0157

> <Gold.Chemscore.Metal.Weighted>
-0.0000

> <Gold.Chemscore.Lipo.Weighted>
-9.5749

> <Gold.Chemscore.Internal_Hbond.Weighted>
0.0000

> <Gold.Chemscore.DEClash.Weighted>
0.7269

> <Gold.Chemscore.DEInternal.Weighted>
1.7066

> <Gold.Chemscore.Rot.Weighted>
3.1582

> <Gold.Chemscore.Internal.Correction.Weighted>
   9.000000E+99

> <Gold.Protein.RotatedTorsions>
[ 6907 6896 6895 6894 ] final  150.45 input  -60.11 | X-H torsion
[ 7974 7965 7964 7962 ] final -132.97 input  175.53 | X-H torsion
[ 8008 7997 7996 7995 ] final  -63.11 input   59.86 | X-H torsion
[ 10167 10162 10161 10158 ] final  -89.22 input  -65.29 | X-H torsion
[ 10718 10713 10712 10709 ] final  155.77 input   66.30 | X-H torsion
[ 10763 10752 10751 10750 ] final -111.48 input  -60.55 | X-H torsion
[ 11005 11000 10999 10996 ] final   11.78 input  -57.11 | X-H torsion

> <Gold.Protein.ActiveResidues>
 VAL166  LYS551  ARG553  GLY616  TRP617  ASP618  TYR619  PRO620  LYS621  CYS622 
 ASP623  PHE694  ASN695  SER759  ASP760  ASP761  ALA762  ILE779  LEU786  VAL792 
 PHE793  MET794  SER795  GLU796  ALA797  LYS798  CYS799  TRP800  GLU811  SER814 

> <Gold.Protein.RotatedAtoms>
  152.1143  133.4318  159.4645 H   0  0  0  0  0  0  0  0  0  0  0  0  # atno 6907 bound_to 6896
  150.6868  134.2611  159.4559 H   0  0  0  0  0  0  0  0  0  0  0  0  # atno 6908 bound_to 6896
  152.0482  134.9669  160.0625 H   0  0  0  0  0  0  0  0  0  0  0  0  # atno 6909 bound_to 6896
  144.9236  140.7044  143.4950 H   0  0  0  0  0  0  0  0  0  0  0  0  # atno 7974 bound_to 7965
  154.4536  140.0982  156.6692 H   0  0  0  0  0  0  0  0  0  0  0  0  # atno 8008 bound_to 7997
  155.5207  140.3479  155.4388 H   0  0  0  0  0  0  0  0  0  0  0  0  # atno 8009 bound_to 7997
  156.0732  140.1354  156.9792 H   0  0  0  0  0  0  0  0  0  0  0  0  # atno 8010 bound_to 7997
  140.3670  143.2813  151.9546 H   0  0  0  0  0  0  0  0  0  0  0  0  # atno 10167 bound_to 10162
  157.2139  131.0703  151.1953 H   0  0  0  0  0  0  0  0  0  0  0  0  # atno 10718 bound_to 10713
  154.8302  135.4526  154.1045 H   0  0  0  0  0  0  0  0  0  0  0  0  # atno 10763 bound_to 10752
  153.2325  135.6907  153.7880 H   0  0  0  0  0  0  0  0  0  0  0  0  # atno 10764 bound_to 10752
  153.7258  135.3334  155.3252 H   0  0  0  0  0  0  0  0  0  0  0  0  # atno 10765 bound_to 10752
  140.4993  134.0762  155.7790 H   0  0  0  0  0  0  0  0  0  0  0  0  # atno 11005 bound_to 11000
  145.3256  139.1775  143.4564 LP  0  0  0  0  0  0  0  0  0  0  0  0  # atno 17320 bound_to 7965
  146.3216  140.3279  142.8638 LP  0  0  0  0  0  0  0  0  0  0  0  0  # atno 17321 bound_to 7965
  139.4808  144.5941  151.7720 LP  0  0  0  0  0  0  0  0  0  0  0  0  # atno 17342 bound_to 10162
  140.5071  144.1082  150.5985 LP  0  0  0  0  0  0  0  0  0  0  0  0  # atno 17343 bound_to 10162
  157.3645  130.7148  149.6523 LP  0  0  0  0  0  0  0  0  0  0  0  0  # atno 17370 bound_to 10713
  155.9688  130.4216  150.4478 LP  0  0  0  0  0  0  0  0  0  0  0  0  # atno 17371 bound_to 10713
  141.1444  133.9082  157.2251 LP  0  0  0  0  0  0  0  0  0  0  0  0  # atno 17394 bound_to 11000
  139.9723  135.0124  156.9542 LP  0  0  0  0  0  0  0  0  0  0  0  0  # atno 17395 bound_to 11000

$$$$
