AV-unprocessed.smi:2944|AV-procd|sdf|11273|dock7
  -GOLD-   2272016163D 1   1.00000     0.00000
 Structure written by MMmdl.
 44 46  0  0  0  0  0  0  0  0  1 V2000
  156.9047  139.6344  159.1493 C   0  0  0  0  0  0  0  0  0  0  0  0
  155.5247  139.4295  158.9044 O   0  0  0  0  0  0  0  0  0  0  0  0
  154.7045  139.9611  159.9322 C   0  0  0  0  0  0  0  0  0  0  0  0
  153.4015  139.1541  160.0211 C   0  0  0  0  0  0  0  0  0  0  0  0
  152.3110  139.7966  159.3025 N   0  0  0  0  0  0  0  0  0  0  0  0
  151.2687  139.2029  158.6697 C   0  0  0  0  0  0  0  0  0  0  0  0
  151.0912  137.4396  158.6507 S   0  0  0  0  0  0  0  0  0  0  0  0
  149.3035  137.2735  158.9742 C   0  0  1  0  0  0  0  0  0  0  0  0
  148.5108  137.8450  157.7889 C   0  0  0  0  0  0  0  0  0  0  0  0
  148.8900  135.8050  159.2255 C   0  0  0  0  0  0  0  0  0  0  0  0
  149.2370  134.9700  158.3873 O   0  0  0  0  0  0  0  0  0  0  0  0
  148.2136  135.4236  160.3433 N   0  0  0  0  0  0  0  0  0  0  0  0
  148.0462  134.0055  160.6643 C   0  0  0  0  0  0  0  0  0  0  0  0
  147.3119  134.0025  161.9994 C   0  0  0  0  0  0  0  0  0  0  0  0
  147.0935  135.4098  162.2219 N   0  0  0  0  0  0  0  0  0  0  0  0
  147.5874  136.1969  161.2630 C   0  0  0  0  0  0  0  0  0  0  0  0
  147.4464  137.4190  161.2643 O   0  0  0  0  0  0  0  0  0  0  0  0
  150.4066  140.0376  158.0851 N   0  0  0  0  0  0  0  0  0  0  0  0
  150.9440  141.2796  158.3545 C   0  0  0  0  0  0  0  0  0  0  0  0
  150.4950  142.5714  157.9979 C   0  0  0  0  0  0  0  0  0  0  0  0
  151.2248  143.7130  158.3895 C   0  0  0  0  0  0  0  0  0  0  0  0
  152.4107  143.5793  159.1403 C   0  0  0  0  0  0  0  0  0  0  0  0
  152.8741  142.3009  159.5066 C   0  0  0  0  0  0  0  0  0  0  0  0
  152.1406  141.1647  159.1148 C   0  0  0  0  0  0  0  0  0  0  0  0
  157.4875  139.2213  158.3261 H   0  0  0  0  0  0  0  0  0  0  0  0
  157.2195  139.1373  160.0676 H   0  0  0  0  0  0  0  0  0  0  0  0
  157.1384  140.6970  159.2278 H   0  0  0  0  0  0  0  0  0  0  0  0
  155.2321  139.9267  160.8867 H   0  0  0  0  0  0  0  0  0  0  0  0
  154.4776  141.0077  159.7242 H   0  0  0  0  0  0  0  0  0  0  0  0
  153.5465  138.1472  159.6290 H   0  0  0  0  0  0  0  0  0  0  0  0
  153.1100  139.0343  161.0649 H   0  0  0  0  0  0  0  0  0  0  0  0
  149.1267  137.9016  159.8434 H   0  0  0  0  0  0  0  0  0  0  0  0
  147.4363  137.8006  157.9704 H   0  0  0  0  0  0  0  0  0  0  0  0
  148.7160  137.2974  156.8681 H   0  0  0  0  0  0  0  0  0  0  0  0
  148.7689  138.8903  157.6168 H   0  0  0  0  0  0  0  0  0  0  0  0
  147.4585  133.5034  159.8933 H   0  0  0  0  0  0  0  0  0  0  0  0
  149.0121  133.5032  160.7444 H   0  0  0  0  0  0  0  0  0  0  0  0
  146.3647  133.4648  161.9489 H   0  0  0  0  0  0  0  0  0  0  0  0
  147.9201  133.5810  162.8007 H   0  0  0  0  0  0  0  0  0  0  0  0
  146.5772  135.7558  163.0179 H   0  0  0  0  0  0  0  0  0  0  0  0
  149.5887  142.6839  157.4216 H   0  0  0  0  0  0  0  0  0  0  0  0
  150.8741  144.6959  158.1111 H   0  0  0  0  0  0  0  0  0  0  0  0
  152.9652  144.4585  159.4346 H   0  0  0  0  0  0  0  0  0  0  0  0
  153.7837  142.1958  160.0789 H   0  0  0  0  0  0  0  0  0  0  0  0
  1  2  1  0  0  0  0
  1 25  1  0  0  0  0
  1 26  1  0  0  0  0
  1 27  1  0  0  0  0
  2  3  1  0  0  0  0
  3  4  1  0  0  0  0
  3 28  1  0  0  0  0
  3 29  1  0  0  0  0
  4  5  1  0  0  0  0
  4 30  1  0  0  0  0
  4 31  1  0  0  0  0
  5 24  1  0  0  0  0
  5  6  1  0  0  0  0
  6  7  1  0  0  0  0
  6 18  2  0  0  0  0
  7  8  1  0  0  0  0
  8  9  1  0  0  0  0
  8 10  1  0  0  0  0
  8 32  1  0  0  0  0
  9 33  1  0  0  0  0
  9 34  1  0  0  0  0
  9 35  1  0  0  0  0
 10 11  2  0  0  0  0
 10 12  1  0  0  0  0
 12 16  1  0  0  0  0
 12 13  1  0  0  0  0
 13 14  1  0  0  0  0
 13 36  1  0  0  0  0
 13 37  1  0  0  0  0
 14 15  1  0  0  0  0
 14 38  1  0  0  0  0
 14 39  1  0  0  0  0
 15 16  1  0  0  0  0
 15 40  1  0  0  0  0
 16 17  2  0  0  0  0
 18 19  1  0  0  0  0
 19 24  2  0  0  0  0
 19 20  1  0  0  0  0
 20 21  2  0  0  0  0
 20 41  1  0  0  0  0
 21 22  1  0  0  0  0
 21 42  1  0  0  0  0
 22 23  2  0  0  0  0
 22 43  1  0  0  0  0
 23 24  1  0  0  0  0
 23 44  1  0  0  0  0
M  END
> <s_m_source_file>
AV-unprocessed.smi

> <i_m_source_file_index>
2944

> <i_lp_mmshare_version>
43012

> <i_f3d_flags>
0

> <s_epik_input>
W2NIXTFbY0hdW2NIXVtjSF1jKGMxMiluKFtDSDJdW0NIMl1PW0NIM10pYyhuMilTW0NASF0oW0NIM10pQyg9TylOM1tDSDJdW0NIMl1bTkhdQzM9Tw==

> <s_epik_cmdline>
J2VwaWtfcHl0aG9uJywgJy1waCcsICc3LjAnLCAnLXRuJywgJzgnLCAnLW1hJywgJzIwMCcsICctbWV0YWxfYmluZGluZycsICctaW1hZScsICc8aW5maWxlLm1hZT4nLCAnLW9tYWUnLCAnPG91dGZpbGUubWFlPic=

> <r_lp_tautomer_probability>
0.9999

> <r_epik_Ionization_Penalty>
0.0250226

> <r_epik_Ionization_Penalty_Charging>
0

> <r_epik_Ionization_Penalty_Neutral>
0.0250226

> <r_epik_State_Penalty>
0.0203222

> <r_epik_Charging_Adjusted_Penalty>
0.0203222

> <i_epik_Tot_Q>
0

> <i_epik_Tot_abs_Q>
0

> <r_epik_Metal_State_Penalty>
0.0194901

> <b_epik_Metal_Only>
0

> <s_lp_Force_Field>
OPLS_2005

> <r_lp_Energy>
41.7508

> <b_lp_Chiralities_Consistent>
1

> <s_lp_Variant>
AV-unprocessed.smi:2944-2

> <Gold.Version>
5.8.1

> <Gold.Id.Protein>
6NUR|6NUR_protein|mol2

> <Gold.PLP.Fitness>
51.0662

> <Gold.PLP.PLP>
-42.2496

> <Gold.PLP.part.hbond>
-3.8063

> <Gold.PLP.part.metal>
0.0000

> <Gold.PLP.part.buried>
-4.5836

> <Gold.PLP.part.nonpolar>
-34.2759

> <Gold.PLP.part.repulsive>
0.0997

> <Gold.PLP.ligand.clash>
0.0000

> <Gold.PLP.ligand.torsion>
1.2405

> <Gold.PLP.Chemscore.Hbond>
3.6960

> <Gold.PLP.Chemscore.CHOScore>
0.0000

> <Gold.PLP.Chemscore.Metal>
0.0000

> <Gold.Chemscore.Hbonds>
donor molecule, donor type, donor heavy atom, donor atom, acceptor molecule, acceptor atom, score
      P1  H  6896  6909       L1    11  1.00
      P1  H  6931  6943       L1    17  0.78
      P1  H  6934  6947       L1    17  0.93
      P1  H  7997  8009       L1     2  1.00

> <Gold.PLP.Chemscore.Internal.Correction>
0.2096

> <Gold.Rescore>
     Score         DG    S(hbond)    S(metal)    S(lipo)     H(rot)  DE(clash)    DE(int)     intcor
     16.11     -19.78       2.60        0.00      96.92       2.24       0.00       3.66       ----

> <Gold.Chemscore.Fitness>
16.1126

> <Gold.Chemscore.DG>
-19.7777

> <Gold.Chemscore.ZeroCoef>
-5.4800

> <Gold.Chemscore.Hbond>
2.5992

> <Gold.Chemscore.Metal>
0.0000

> <Gold.Chemscore.Lipo>
96.9211

> <Gold.Chemscore.Internal_Hbond>
0.0000

> <Gold.Chemscore.DEClash>
0.0009

> <Gold.Chemscore.DEInternal>
3.6643

> <Gold.Chemscore.Rot>
2.2357

> <Gold.Chemscore.Internal.Correction>
   9.000000E+99

> <Gold.Chemscore.Hbonds>
donor molecule, donor type, donor heavy atom, donor atom, acceptor molecule, acceptor atom, score
      P1  H  6896  6909       L1    11  0.24
      P1  H  6931  6943       L1    17  0.61
      P1  H  6934  6947       L1    17  0.89
      P1  H  7997  8009       L1     2  0.42

> <Gold.Chemscore.Hbond.Weighted>
-8.6814

> <Gold.Chemscore.Metal.Weighted>
-0.0000

> <Gold.Chemscore.Lipo.Weighted>
-11.3398

> <Gold.Chemscore.Internal_Hbond.Weighted>
0.0000

> <Gold.Chemscore.DEClash.Weighted>
0.0009

> <Gold.Chemscore.DEInternal.Weighted>
3.6643

> <Gold.Chemscore.Rot.Weighted>
5.7234

> <Gold.Chemscore.Internal.Correction.Weighted>
   9.000000E+99

> <Gold.Protein.RotatedTorsions>
[ 6907 6896 6895 6894 ] final   18.24 input  -60.11 | X-H torsion
[ 7974 7965 7964 7962 ] final  -99.09 input  175.53 | X-H torsion
[ 8008 7997 7996 7995 ] final  109.99 input   59.86 | X-H torsion
[ 10167 10162 10161 10158 ] final  -96.13 input  -65.29 | X-H torsion
[ 10718 10713 10712 10709 ] final   94.07 input   66.30 | X-H torsion
[ 10763 10752 10751 10750 ] final  -86.79 input  -60.55 | X-H torsion
[ 11005 11000 10999 10996 ] final  -96.70 input  -57.11 | X-H torsion

> <Gold.Protein.ActiveResidues>
 VAL166  LYS551  ARG553  GLY616  TRP617  ASP618  TYR619  PRO620  LYS621  CYS622 
 ASP623  PHE694  ASN695  SER759  ASP760  ASP761  ALA762  ILE779  LEU786  VAL792 
 PHE793  MET794  SER795  GLU796  ALA797  LYS798  CYS799  TRP800  GLU811  SER814 

> <Gold.Protein.RotatedAtoms>
  151.8621  135.0520  160.0470 H   0  0  0  0  0  0  0  0  0  0  0  0  # atno 6907 bound_to 6896
  152.2655  133.5330  159.5415 H   0  0  0  0  0  0  0  0  0  0  0  0  # atno 6908 bound_to 6896
  150.7132  134.0687  159.3899 H   0  0  0  0  0  0  0  0  0  0  0  0  # atno 6909 bound_to 6896
  145.3121  140.9402  143.2763 H   0  0  0  0  0  0  0  0  0  0  0  0  # atno 7974 bound_to 7965
  156.2020  140.3047  155.9547 H   0  0  0  0  0  0  0  0  0  0  0  0  # atno 8008 bound_to 7997
  155.2931  140.0443  157.3041 H   0  0  0  0  0  0  0  0  0  0  0  0  # atno 8009 bound_to 7997
  154.5583  140.2312  155.8384 H   0  0  0  0  0  0  0  0  0  0  0  0  # atno 8010 bound_to 7997
  140.2969  143.3186  152.0288 H   0  0  0  0  0  0  0  0  0  0  0  0  # atno 10167 bound_to 10162
  157.6950  131.0500  150.4131 H   0  0  0  0  0  0  0  0  0  0  0  0  # atno 10718 bound_to 10713
  154.6264  135.5436  153.7631 H   0  0  0  0  0  0  0  0  0  0  0  0  # atno 10763 bound_to 10752
  153.0263  135.6425  154.1366 H   0  0  0  0  0  0  0  0  0  0  0  0  # atno 10764 bound_to 10752
  154.1298  135.2915  155.3168 H   0  0  0  0  0  0  0  0  0  0  0  0  # atno 10765 bound_to 10752
  141.1403  133.8117  157.0606 H   0  0  0  0  0  0  0  0  0  0  0  0  # atno 11005 bound_to 11000
  144.9007  139.4653  143.6634 LP  0  0  0  0  0  0  0  0  0  0  0  0  # atno 17320 bound_to 7965
  146.3114  139.7760  142.9017 LP  0  0  0  0  0  0  0  0  0  0  0  0  # atno 17321 bound_to 7965
  139.4924  144.6484  151.6729 LP  0  0  0  0  0  0  0  0  0  0  0  0  # atno 17342 bound_to 10162
  140.5684  144.0150  150.6204 LP  0  0  0  0  0  0  0  0  0  0  0  0  # atno 17343 bound_to 10162
  156.4513  130.4012  149.6634 LP  0  0  0  0  0  0  0  0  0  0  0  0  # atno 17370 bound_to 10713
  156.3782  130.7566  151.2556 LP  0  0  0  0  0  0  0  0  0  0  0  0  # atno 17371 bound_to 10713
  140.0573  134.9773  157.1243 LP  0  0  0  0  0  0  0  0  0  0  0  0  # atno 17394 bound_to 11000
  140.3900  134.2195  155.7166 LP  0  0  0  0  0  0  0  0  0  0  0  0  # atno 17395 bound_to 11000

$$$$
