AV-unprocessed.smi:2504|AV-procd|sdf|9849|dock7
  -GOLD-   2272013473D 1   1.00000     0.00000
 Structure written by MMmdl.
 46 48  0  0  0  0  0  0  0  0  1 V2000
  151.5983  140.9177  159.4959 O   0  0  0  0  0  0  0  0  0  0  0  0
  151.6806  141.5551  158.4453 C   0  0  0  0  0  0  0  0  0  0  0  0
  152.1202  143.0351  158.4431 C   0  0  0  0  0  0  0  0  0  0  0  0
  152.5466  143.5660  159.8285 C   0  0  0  0  0  0  0  0  0  0  0  0
  152.1561  145.0419  159.8269 C   0  0  0  0  0  0  0  0  0  0  0  0
  150.8452  145.0669  159.0480 C   0  0  0  0  0  0  0  0  0  0  0  0
  151.0161  144.0051  157.9566 C   0  0  0  0  0  0  0  0  0  0  0  0
  151.4871  140.9348  157.2069 N   0  0  0  0  0  0  0  0  0  0  0  0
  150.4344  139.9523  156.9951 C   0  0  0  0  0  0  0  0  0  0  0  0
  150.4556  140.4207  155.5337 C   0  0  0  0  0  0  0  0  0  0  0  0
  148.7902  140.7264  154.7954 S   0  0  0  0  0  0  0  0  0  0  0  0
  147.7563  140.5727  155.8308 O   0  0  0  0  0  0  0  0  0  0  0  0
  148.8436  141.9557  153.9898 O   0  0  0  0  0  0  0  0  0  0  0  0
  148.6315  139.4042  153.7032 N   0  0  0  0  0  0  0  0  0  0  0  0
  147.3868  138.6372  153.7266 C   0  0  0  0  0  0  0  0  0  0  0  0
  146.7469  138.5982  152.3303 C   0  0  0  0  0  0  0  0  0  0  0  0
  145.7065  137.5015  152.1863 C   0  0  0  0  0  0  0  0  0  0  0  0
  144.5245  137.5217  152.9548 C   0  0  0  0  0  0  0  0  0  0  0  0
  143.5842  136.4880  152.7808 C   0  0  0  0  0  0  0  0  0  0  0  0
  143.8668  135.4753  151.8424 C   0  0  0  0  0  0  0  0  0  0  0  0
  144.9959  135.4448  151.1019 N   0  0  0  0  0  0  0  0  0  0  0  0
  145.8933  136.4385  151.2768 C   0  0  0  0  0  0  0  0  0  0  0  0
  151.1380  141.7039  156.0215 C   0  0  0  0  0  0  0  0  0  0  0  0
  152.9784  143.1305  157.7767 H   0  0  0  0  0  0  0  0  0  0  0  0
  152.0075  143.0660  160.6348 H   0  0  0  0  0  0  0  0  0  0  0  0
  153.6127  143.4290  160.0124 H   0  0  0  0  0  0  0  0  0  0  0  0
  152.0559  145.4522  160.8322 H   0  0  0  0  0  0  0  0  0  0  0  0
  152.9119  145.6257  159.2993 H   0  0  0  0  0  0  0  0  0  0  0  0
  150.0242  144.7842  159.7084 H   0  0  0  0  0  0  0  0  0  0  0  0
  150.6186  146.0530  158.6411 H   0  0  0  0  0  0  0  0  0  0  0  0
  151.3338  144.4780  157.0265 H   0  0  0  0  0  0  0  0  0  0  0  0
  150.0629  143.5149  157.7525 H   0  0  0  0  0  0  0  0  0  0  0  0
  150.7536  138.9200  157.1399 H   0  0  0  0  0  0  0  0  0  0  0  0
  149.5134  140.1846  157.5319 H   0  0  0  0  0  0  0  0  0  0  0  0
  151.0881  139.8211  154.8769 H   0  0  0  0  0  0  0  0  0  0  0  0
  148.8586  139.6920  152.7514 H   0  0  0  0  0  0  0  0  0  0  0  0
  147.5982  137.6239  154.0692 H   0  0  0  0  0  0  0  0  0  0  0  0
  146.7029  139.0853  154.4483 H   0  0  0  0  0  0  0  0  0  0  0  0
  146.2916  139.5630  152.1018 H   0  0  0  0  0  0  0  0  0  0  0  0
  147.5218  138.4435  151.5785 H   0  0  0  0  0  0  0  0  0  0  0  0
  144.3398  138.3158  153.6635 H   0  0  0  0  0  0  0  0  0  0  0  0
  142.6677  136.4715  153.3519 H   0  0  0  0  0  0  0  0  0  0  0  0
  143.1673  134.6682  151.6826 H   0  0  0  0  0  0  0  0  0  0  0  0
  146.7831  136.3873  150.6663 H   0  0  0  0  0  0  0  0  0  0  0  0
  150.4418  142.5211  156.2219 H   0  0  0  0  0  0  0  0  0  0  0  0
  151.9954  142.0174  155.4256 H   0  0  0  0  0  0  0  0  0  0  0  0
  1  2  2  0  0  0  0
  2  3  1  0  0  0  0
  2  8  1  0  0  0  0
  3  7  1  0  0  0  0
  3  4  1  0  0  0  0
  3 24  1  0  0  0  0
  4  5  1  0  0  0  0
  4 25  1  0  0  0  0
  4 26  1  0  0  0  0
  5  6  1  0  0  0  0
  5 27  1  0  0  0  0
  5 28  1  0  0  0  0
  6  7  1  0  0  0  0
  6 29  1  0  0  0  0
  6 30  1  0  0  0  0
  7 31  1  0  0  0  0
  7 32  1  0  0  0  0
  8 23  1  0  0  0  0
  8  9  1  0  0  0  0
  9 10  1  0  0  0  0
  9 33  1  0  0  0  0
  9 34  1  0  0  0  0
 10 11  1  0  0  0  0
 10 23  1  0  0  0  0
 10 35  1  0  0  0  0
 11 12  2  0  0  0  0
 11 13  2  0  0  0  0
 11 14  1  0  0  0  0
 14 15  1  0  0  0  0
 14 36  1  0  0  0  0
 15 16  1  0  0  0  0
 15 37  1  0  0  0  0
 15 38  1  0  0  0  0
 16 17  1  0  0  0  0
 16 39  1  0  0  0  0
 16 40  1  0  0  0  0
 17 22  1  0  0  0  0
 17 18  2  0  0  0  0
 18 19  1  0  0  0  0
 18 41  1  0  0  0  0
 19 20  2  0  0  0  0
 19 42  1  0  0  0  0
 20 21  1  0  0  0  0
 20 43  1  0  0  0  0
 21 22  2  0  0  0  0
 22 44  1  0  0  0  0
 23 45  1  0  0  0  0
 23 46  1  0  0  0  0
M  END
> <s_m_source_file>
AV-unprocessed.smi

> <i_m_source_file_index>
2504

> <i_lp_mmshare_version>
43012

> <i_f3d_flags>
0

> <s_epik_input>
W0NIMl0xW0NIMl1bQ0gyXVtDSDJdW0NIXTFDKD1PKU4yW0NIMl1bQ0hdKFtDSDJdMilTKD1PKSg9TylbTkhdW0NIMl1bQ0gyXWMzW2NIXVtjSF1bY0hdbltjSF0z

> <s_epik_cmdline>
J2VwaWtfcHl0aG9uJywgJy1waCcsICc3LjAnLCAnLXRuJywgJzgnLCAnLW1hJywgJzIwMCcsICctbWV0YWxfYmluZGluZycsICctaW1hZScsICc8aW5maWxlLm1hZT4nLCAnLW9tYWUnLCAnPG91dGZpbGUubWFlPic=

> <r_epik_Ionization_Penalty>
0.0107611

> <r_epik_Ionization_Penalty_Charging>
0

> <r_epik_Ionization_Penalty_Neutral>
0.0107611

> <r_epik_State_Penalty>
0.00821942

> <r_epik_Charging_Adjusted_Penalty>
0.00821942

> <i_epik_Tot_Q>
0

> <i_epik_Tot_abs_Q>
0

> <r_epik_Metal_State_Penalty>
0.0376733

> <b_epik_Metal_Only>
0

> <s_lp_Force_Field>
OPLS_2005

> <r_lp_Energy>
34.3459

> <b_lp_Chiralities_Consistent>
1

> <s_lp_Variant>
AV-unprocessed.smi:2504-1

> <Gold.Version>
5.8.1

> <Gold.Id.Protein>
6NUR|6NUR_protein|mol2

> <Gold.PLP.Fitness>
47.9676

> <Gold.PLP.PLP>
-43.5068

> <Gold.PLP.part.hbond>
-2.0000

> <Gold.PLP.part.metal>
0.0000

> <Gold.PLP.part.buried>
-4.4516

> <Gold.PLP.part.nonpolar>
-37.8565

> <Gold.PLP.part.repulsive>
0.4601

> <Gold.PLP.ligand.clash>
0.0000

> <Gold.PLP.ligand.torsion>
1.8775

> <Gold.PLP.Chemscore.Hbond>
1.4160

> <Gold.PLP.Chemscore.CHOScore>
0.7427

> <Gold.PLP.Chemscore.Metal>
0.0000

> <Gold.Chemscore.Hbonds>
donor molecule, donor type, donor heavy atom, donor atom, acceptor molecule, acceptor atom, score
      L1  H    14    36       P1  7957  1.00
      P1  H  8011  8017       L1    13  0.45
      L1  C    22    44       P1  7948  0.77

> <Gold.PLP.Chemscore.Internal.Correction>
1.7396

> <Gold.Rescore>
     Score         DG    S(hbond)    S(metal)    S(lipo)     H(rot)  DE(clash)    DE(int)     intcor
     16.11     -18.43       1.44        0.00     110.03       1.85       0.29       2.03       ----

> <Gold.Chemscore.Fitness>
16.1078

> <Gold.Chemscore.DG>
-18.4266

> <Gold.Chemscore.ZeroCoef>
-5.4800

> <Gold.Chemscore.Hbond>
1.4392

> <Gold.Chemscore.Metal>
0.0000

> <Gold.Chemscore.Lipo>
110.0349

> <Gold.Chemscore.Internal_Hbond>
0.0000

> <Gold.Chemscore.DEClash>
0.2886

> <Gold.Chemscore.DEInternal>
2.0302

> <Gold.Chemscore.Rot>
1.8494

> <Gold.Chemscore.Internal.Correction>
   9.000000E+99

> <Gold.Chemscore.Hbonds>
donor molecule, donor type, donor heavy atom, donor atom, acceptor molecule, acceptor atom, score
      L1  H    14    36       P1  7957  1.00
      P1  H  8011  8017       L1    13  0.43

> <Gold.Chemscore.Hbond.Weighted>
-4.8071

> <Gold.Chemscore.Metal.Weighted>
-0.0000

> <Gold.Chemscore.Lipo.Weighted>
-12.8741

> <Gold.Chemscore.Internal_Hbond.Weighted>
0.0000

> <Gold.Chemscore.DEClash.Weighted>
0.2886

> <Gold.Chemscore.DEInternal.Weighted>
2.0302

> <Gold.Chemscore.Rot.Weighted>
4.7346

> <Gold.Chemscore.Internal.Correction.Weighted>
   9.000000E+99

> <Gold.Protein.RotatedTorsions>
[ 6907 6896 6895 6894 ] final  -22.30 input  -60.11 | X-H torsion
[ 7974 7965 7964 7962 ] final   18.61 input  175.53 | X-H torsion
[ 8008 7997 7996 7995 ] final   45.38 input   59.86 | X-H torsion
[ 10167 10162 10161 10158 ] final -116.66 input  -65.29 | X-H torsion
[ 10718 10713 10712 10709 ] final  145.14 input   66.30 | X-H torsion
[ 10763 10752 10751 10750 ] final  101.68 input  -60.55 | X-H torsion
[ 11005 11000 10999 10996 ] final   93.50 input  -57.11 | X-H torsion

> <Gold.Protein.ActiveResidues>
 VAL166  LYS551  ARG553  GLY616  TRP617  ASP618  TYR619  PRO620  LYS621  CYS622 
 ASP623  PHE694  ASN695  SER759  ASP760  ASP761  ALA762  ILE779  LEU786  VAL792 
 PHE793  MET794  SER795  GLU796  ALA797  LYS798  CYS799  TRP800  GLU811  SER814 

> <Gold.Protein.RotatedAtoms>
  151.2206  135.0517  159.8947 H   0  0  0  0  0  0  0  0  0  0  0  0  # atno 6907 bound_to 6896
  152.5416  134.0645  159.8177 H   0  0  0  0  0  0  0  0  0  0  0  0  # atno 6908 bound_to 6896
  151.0810  133.5342  159.2652 H   0  0  0  0  0  0  0  0  0  0  0  0  # atno 6909 bound_to 6896
  146.2179  139.8432  142.8637 H   0  0  0  0  0  0  0  0  0  0  0  0  # atno 7974 bound_to 7965
  155.3349  140.3405  155.4239 H   0  0  0  0  0  0  0  0  0  0  0  0  # atno 8008 bound_to 7997
  156.1843  140.1675  156.8252 H   0  0  0  0  0  0  0  0  0  0  0  0  # atno 8009 bound_to 7997
  154.5368  140.0733  156.8425 H   0  0  0  0  0  0  0  0  0  0  0  0  # atno 8010 bound_to 7997
  140.0768  143.4825  152.1949 H   0  0  0  0  0  0  0  0  0  0  0  0  # atno 10167 bound_to 10162
  157.3488  131.0947  151.1018 H   0  0  0  0  0  0  0  0  0  0  0  0  # atno 10718 bound_to 10713
  153.3297  135.4036  155.1485 H   0  0  0  0  0  0  0  0  0  0  0  0  # atno 10763 bound_to 10752
  154.8620  135.3607  154.5486 H   0  0  0  0  0  0  0  0  0  0  0  0  # atno 10764 bound_to 10752
  153.5924  135.7073  153.5477 H   0  0  0  0  0  0  0  0  0  0  0  0  # atno 10765 bound_to 10752
  139.8809  134.8793  156.3726 H   0  0  0  0  0  0  0  0  0  0  0  0  # atno 11005 bound_to 11000
  145.2877  141.0158  143.3681 LP  0  0  0  0  0  0  0  0  0  0  0  0  # atno 17320 bound_to 7965
  144.9101  139.4539  143.6591 LP  0  0  0  0  0  0  0  0  0  0  0  0  # atno 17321 bound_to 7965
  139.5803  144.7507  151.3657 LP  0  0  0  0  0  0  0  0  0  0  0  0  # atno 17342 bound_to 10162
  140.7098  143.7420  150.7546 LP  0  0  0  0  0  0  0  0  0  0  0  0  # atno 17343 bound_to 10162
  157.2201  130.6477  149.5808 LP  0  0  0  0  0  0  0  0  0  0  0  0  # atno 17370 bound_to 10713
  155.9718  130.4632  150.6172 LP  0  0  0  0  0  0  0  0  0  0  0  0  # atno 17371 bound_to 10713
  140.9453  133.7487  156.0200 LP  0  0  0  0  0  0  0  0  0  0  0  0  # atno 17394 bound_to 11000
  140.8170  134.3333  157.5394 LP  0  0  0  0  0  0  0  0  0  0  0  0  # atno 17395 bound_to 11000

$$$$
