AV-unprocessed.smi:1881|AV-procd|sdf|7640|dock2
  -GOLD-   22720 9363D 1   1.00000     0.00000
 Structure written by MMmdl.
 51 52  0  0  0  0  0  0  0  0  2 V2000
  150.8185  138.0655  157.5503 C   0  0  0  0  0  0  0  0  0  0  0  0
  151.1680  138.0508  156.0407 C   0  0  0  0  0  0  0  0  0  0  0  0
  152.7188  138.0810  155.9678 C   0  0  0  0  0  0  0  0  0  0  0  0
  150.7376  136.7394  155.3438 C   0  0  0  0  0  0  0  0  0  0  0  0
  150.5974  139.2980  155.2890 C   0  0  0  0  0  0  0  0  0  0  0  0
  151.4097  140.0952  154.8138 O   0  0  0  0  0  0  0  0  0  0  0  0
  149.2613  139.5313  155.1483 N   0  0  0  0  0  0  0  0  0  0  0  0
  148.5926  140.6450  154.4619 C   0  0  0  0  0  0  0  0  0  0  0  0
  147.9433  140.1217  153.1676 C   0  0  0  0  0  0  0  0  0  0  0  0
  146.9438  138.9815  153.4707 C   0  0  0  0  0  0  0  0  0  0  0  0
  146.4155  138.3607  152.1717 C   0  0  0  0  0  0  0  0  0  0  0  0
  146.7873  138.7941  151.0805 O   0  0  0  0  0  0  0  0  0  0  0  0
  145.5281  137.3614  152.3027 N   0  0  0  0  0  0  0  0  0  0  0  0
  144.8821  136.6499  151.2022 C   0  0  0  0  0  0  0  0  0  0  0  0
  143.9011  135.5610  151.6828 C   0  0  0  0  0  0  0  0  0  0  0  0
  144.3491  134.1435  151.3686 C   0  0  0  0  0  0  0  0  0  0  0  0
  145.5546  133.6123  151.8755 C   0  0  0  0  0  0  0  0  0  0  0  0
  145.9346  132.3021  151.5183 C   0  0  0  0  0  0  0  0  0  0  0  0
  145.1032  131.5509  150.6622 C   0  0  0  0  0  0  0  0  0  0  0  0
  143.9098  132.1298  150.1849 C   0  0  0  0  0  0  0  0  0  0  0  0
  143.5795  133.3875  150.5512 N   0  3  0  0  0  0  0  0  0  0  0  0
  147.5901  137.9120  154.3813 C   0  0  0  0  0  0  0  0  0  0  0  0
  148.2539  138.5605  155.6094 C   0  0  0  0  0  0  0  0  0  0  0  0
  151.5316  137.4763  158.1278 H   0  0  0  0  0  0  0  0  0  0  0  0
  149.8456  137.6361  157.7763 H   0  0  0  0  0  0  0  0  0  0  0  0
  150.8428  139.0767  157.9588 H   0  0  0  0  0  0  0  0  0  0  0  0
  153.1295  138.9748  156.4403 H   0  0  0  0  0  0  0  0  0  0  0  0
  153.0817  138.0524  154.9389 H   0  0  0  0  0  0  0  0  0  0  0  0
  153.1601  137.2220  156.4752 H   0  0  0  0  0  0  0  0  0  0  0  0
  151.2414  135.8801  155.7876 H   0  0  0  0  0  0  0  0  0  0  0  0
  150.9993  136.7527  154.2849 H   0  0  0  0  0  0  0  0  0  0  0  0
  149.6718  136.5360  155.4042 H   0  0  0  0  0  0  0  0  0  0  0  0
  147.8225  141.0560  155.1163 H   0  0  0  0  0  0  0  0  0  0  0  0
  149.2325  141.4889  154.2421 H   0  0  0  0  0  0  0  0  0  0  0  0
  147.4325  140.9397  152.6579 H   0  0  0  0  0  0  0  0  0  0  0  0
  148.7221  139.7745  152.4868 H   0  0  0  0  0  0  0  0  0  0  0  0
  146.1027  139.4139  154.0159 H   0  0  0  0  0  0  0  0  0  0  0  0
  145.2859  137.0670  153.2379 H   0  0  0  0  0  0  0  0  0  0  0  0
  144.3702  137.3510  150.5407 H   0  0  0  0  0  0  0  0  0  0  0  0
  145.6656  136.1880  150.6011 H   0  0  0  0  0  0  0  0  0  0  0  0
  143.7617  135.6498  152.7607 H   0  0  0  0  0  0  0  0  0  0  0  0
  142.9189  135.7297  151.2389 H   0  0  0  0  0  0  0  0  0  0  0  0
  146.1862  134.2038  152.5222 H   0  0  0  0  0  0  0  0  0  0  0  0
  146.8555  131.8797  151.8930 H   0  0  0  0  0  0  0  0  0  0  0  0
  145.3786  130.5468  150.3744 H   0  0  0  0  0  0  0  0  0  0  0  0
  143.2171  131.6303  149.5235 H   0  0  0  0  0  0  0  0  0  0  0  0
  146.8366  137.1939  154.7073 H   0  0  0  0  0  0  0  0  0  0  0  0
  148.3414  137.3431  153.8306 H   0  0  0  0  0  0  0  0  0  0  0  0
  148.6598  137.7822  156.2562 H   0  0  0  0  0  0  0  0  0  0  0  0
  147.5034  139.0699  156.2159 H   0  0  0  0  0  0  0  0  0  0  0  0
  142.7153  133.7895  150.1878 H   0  0  0  0  0  0  0  0  0  0  0  0
  1  2  1  0  0  0  0
  1 24  1  0  0  0  0
  1 25  1  0  0  0  0
  1 26  1  0  0  0  0
  2  3  1  0  0  0  0
  2  4  1  0  0  0  0
  2  5  1  0  0  0  0
  3 27  1  0  0  0  0
  3 28  1  0  0  0  0
  3 29  1  0  0  0  0
  4 30  1  0  0  0  0
  4 31  1  0  0  0  0
  4 32  1  0  0  0  0
  5  6  2  0  0  0  0
  5  7  1  0  0  0  0
  7 23  1  0  0  0  0
  7  8  1  0  0  0  0
  8  9  1  0  0  0  0
  8 33  1  0  0  0  0
  8 34  1  0  0  0  0
  9 10  1  0  0  0  0
  9 35  1  0  0  0  0
  9 36  1  0  0  0  0
 10 11  1  0  0  0  0
 10 22  1  0  0  0  0
 10 37  1  0  0  0  0
 11 12  2  0  0  0  0
 11 13  1  0  0  0  0
 13 14  1  0  0  0  0
 13 38  1  0  0  0  0
 14 15  1  0  0  0  0
 14 39  1  0  0  0  0
 14 40  1  0  0  0  0
 15 16  1  0  0  0  0
 15 41  1  0  0  0  0
 15 42  1  0  0  0  0
 16 21  1  0  0  0  0
 16 17  2  0  0  0  0
 17 18  1  0  0  0  0
 17 43  1  0  0  0  0
 18 19  2  0  0  0  0
 18 44  1  0  0  0  0
 19 20  1  0  0  0  0
 19 45  1  0  0  0  0
 20 21  2  0  0  0  0
 20 46  1  0  0  0  0
 21 51  1  0  0  0  0
 22 23  1  0  0  0  0
 22 47  1  0  0  0  0
 22 48  1  0  0  0  0
 23 49  1  0  0  0  0
 23 50  1  0  0  0  0
M  CHG  1  21   1
M  END
> <s_m_source_file>
AV-unprocessed.smi

> <i_m_source_file_index>
1881

> <i_lp_mmshare_version>
43012

> <i_f3d_flags>
0

> <s_epik_input>
W0NIM11DKFtDSDNdKShbQ0gzXSlDKD1PKU4xW0NIMl1bQ0gyXVtDSF0oW0NIMl1bQ0gyXTEpQyg9TylbTkhdW0NIMl1bQ0gyXWMyW2NIXVtjSF1bY0hdW2NIXW4y

> <s_epik_cmdline>
J2VwaWtfcHl0aG9uJywgJy1waCcsICc3LjAnLCAnLXRuJywgJzgnLCAnLW1hJywgJzIwMCcsICctbWV0YWxfYmluZGluZycsICctaW1hZScsICc8aW5maWxlLm1hZT4nLCAnLW9tYWUnLCAnPG91dGZpbGUubWFlPic=

> <r_epik_Ionization_Penalty>
1.84673

> <r_epik_Ionization_Penalty_Charging>
1.84673

> <r_epik_Ionization_Penalty_Neutral>
1.24553e-07

> <r_epik_State_Penalty>
1.9639

> <r_epik_Charging_Adjusted_Penalty>
3.81063

> <i_epik_Tot_Q>
1

> <i_epik_Tot_abs_Q>
1

> <r_epik_Metal_State_Penalty>
1.98977

> <b_epik_Metal_Only>
0

> <s_lp_Force_Field>
OPLS_2005

> <r_lp_Energy>
43.8057

> <b_lp_Chiralities_Consistent>
1

> <s_lp_Variant>
AV-unprocessed.smi:1881-2

> <Gold.Version>
5.8.1

> <Gold.Id.Protein>
6NUR|6NUR_protein|mol2

> <Gold.PLP.Fitness>
45.6647

> <Gold.PLP.PLP>
-34.5707

> <Gold.PLP.part.hbond>
-3.1249

> <Gold.PLP.part.metal>
0.0000

> <Gold.PLP.part.buried>
-1.1679

> <Gold.PLP.part.nonpolar>
-32.8685

> <Gold.PLP.part.repulsive>
1.1193

> <Gold.PLP.ligand.clash>
0.0000

> <Gold.PLP.ligand.torsion>
0.4189

> <Gold.PLP.Chemscore.Hbond>
3.9440

> <Gold.PLP.Chemscore.CHOScore>
0.0000

> <Gold.PLP.Chemscore.Metal>
0.0000

> <Gold.Chemscore.Hbonds>
donor molecule, donor type, donor heavy atom, donor atom, acceptor molecule, acceptor atom, score
      L1  H    21    51       P1 10186  2.00
      P1  H  7954  7966       L1    12  0.92
      P1  H  7989  7998       L1     6  1.00

> <Gold.PLP.Chemscore.Internal.Correction>
0.0999

> <Gold.Rescore>
     Score         DG    S(hbond)    S(metal)    S(lipo)     H(rot)  DE(clash)    DE(int)     intcor
     18.54     -21.62       2.96        0.00      89.78       1.65       2.63       0.45       ----

> <Gold.Chemscore.Fitness>
18.5373

> <Gold.Chemscore.DG>
-21.6198

> <Gold.Chemscore.ZeroCoef>
-5.4800

> <Gold.Chemscore.Hbond>
2.9552

> <Gold.Chemscore.Metal>
0.0000

> <Gold.Chemscore.Lipo>
89.7751

> <Gold.Chemscore.Internal_Hbond>
0.0000

> <Gold.Chemscore.DEClash>
2.6304

> <Gold.Chemscore.DEInternal>
0.4521

> <Gold.Chemscore.Rot>
1.6540

> <Gold.Chemscore.Internal.Correction>
   9.000000E+99

> <Gold.Chemscore.Hbonds>
donor molecule, donor type, donor heavy atom, donor atom, acceptor molecule, acceptor atom, score
      L1  H    21    51       P1 10186  0.99
      P1  H  7954  7966       L1    12  0.83
      P1  H  7989  7998       L1     6  0.94

> <Gold.Chemscore.Hbond.Weighted>
-9.8703

> <Gold.Chemscore.Metal.Weighted>
-0.0000

> <Gold.Chemscore.Lipo.Weighted>
-10.5037

> <Gold.Chemscore.Internal_Hbond.Weighted>
0.0000

> <Gold.Chemscore.DEClash.Weighted>
2.6304

> <Gold.Chemscore.DEInternal.Weighted>
0.4521

> <Gold.Chemscore.Rot.Weighted>
4.2342

> <Gold.Chemscore.Internal.Correction.Weighted>
   9.000000E+99

> <Gold.Protein.RotatedTorsions>
[ 6907 6896 6895 6894 ] final   53.07 input  -60.11 | X-H torsion
[ 7974 7965 7964 7962 ] final    2.74 input  175.53 | X-H torsion
[ 8008 7997 7996 7995 ] final  -38.21 input   59.86 | X-H torsion
[ 10167 10162 10161 10158 ] final  -15.12 input  -65.29 | X-H torsion
[ 10718 10713 10712 10709 ] final  -80.81 input   66.30 | X-H torsion
[ 10763 10752 10751 10750 ] final  -45.01 input  -60.55 | X-H torsion
[ 11005 11000 10999 10996 ] final   19.11 input  -57.11 | X-H torsion

> <Gold.Protein.ActiveResidues>
 VAL166  LYS551  ARG553  GLY616  TRP617  ASP618  TYR619  PRO620  LYS621  CYS622 
 ASP623  PHE694  ASN695  SER759  ASP760  ASP761  ALA762  ILE779  LEU786  VAL792 
 PHE793  MET794  SER795  GLU796  ALA797  LYS798  CYS799  TRP800  GLU811  SER814 

> <Gold.Protein.RotatedAtoms>
  152.3299  134.7273  160.0291 H   0  0  0  0  0  0  0  0  0  0  0  0  # atno 6907 bound_to 6896
  151.7693  133.3334  159.3448 H   0  0  0  0  0  0  0  0  0  0  0  0  # atno 6908 bound_to 6896
  150.7417  134.5965  159.6059 H   0  0  0  0  0  0  0  0  0  0  0  0  # atno 6909 bound_to 6896
  146.2444  140.0790  142.8358 H   0  0  0  0  0  0  0  0  0  0  0  0  # atno 7974 bound_to 7965
  154.4040  140.1584  156.2663 H   0  0  0  0  0  0  0  0  0  0  0  0  # atno 8008 bound_to 7997
  155.8992  140.3434  155.5992 H   0  0  0  0  0  0  0  0  0  0  0  0  # atno 8009 bound_to 7997
  155.7467  140.0799  157.2211 H   0  0  0  0  0  0  0  0  0  0  0  0  # atno 8010 bound_to 7997
  140.7213  143.5251  150.9587 H   0  0  0  0  0  0  0  0  0  0  0  0  # atno 10167 bound_to 10162
  156.0062  130.4585  150.3858 H   0  0  0  0  0  0  0  0  0  0  0  0  # atno 10718 bound_to 10713
  154.0215  135.6668  153.4773 H   0  0  0  0  0  0  0  0  0  0  0  0  # atno 10763 bound_to 10752
  153.0578  135.5045  154.8019 H   0  0  0  0  0  0  0  0  0  0  0  0  # atno 10764 bound_to 10752
  154.6934  135.3065  154.9411 H   0  0  0  0  0  0  0  0  0  0  0  0  # atno 10765 bound_to 10752
  140.4173  134.1555  155.7670 H   0  0  0  0  0  0  0  0  0  0  0  0  # atno 11005 bound_to 11000
  145.0749  140.9181  143.4859 LP  0  0  0  0  0  0  0  0  0  0  0  0  # atno 17320 bound_to 7965
  145.0931  139.2875  143.5724 LP  0  0  0  0  0  0  0  0  0  0  0  0  # atno 17321 bound_to 7965
  139.8969  143.6883  152.3137 LP  0  0  0  0  0  0  0  0  0  0  0  0  # atno 17342 bound_to 10162
  139.7219  144.7601  151.0941 LP  0  0  0  0  0  0  0  0  0  0  0  0  # atno 17343 bound_to 10162
  157.1935  131.0421  151.2688 LP  0  0  0  0  0  0  0  0  0  0  0  0  # atno 17370 bound_to 10713
  157.4040  130.7349  149.6788 LP  0  0  0  0  0  0  0  0  0  0  0  0  # atno 17371 bound_to 10713
  141.1798  133.8438  157.1298 LP  0  0  0  0  0  0  0  0  0  0  0  0  # atno 17394 bound_to 11000
  140.0225  134.9939  157.0620 LP  0  0  0  0  0  0  0  0  0  0  0  0  # atno 17395 bound_to 11000

$$$$
