AV-unprocessed.smi:2605|AV-procd|sdf|10193|dock7
  -GOLD-   2272014203D 1   1.00000     0.00000
 Structure written by MMmdl.
 26 27  0  0  0  0  0  0  0  0  2 V2000
  144.0339  133.4318  150.3122 C   0  0  0  0  0  0  0  0  0  0  0  0
  144.1045  134.7382  150.8366 C   0  0  0  0  0  0  0  0  0  0  0  0
  145.3369  135.1934  151.3495 C   0  0  0  0  0  0  0  0  0  0  0  0
  145.4597  136.5986  151.9171 C   0  0  2  0  0  0  0  0  0  0  0  0
  145.9852  137.5891  150.8532 C   0  0  0  0  0  0  0  0  0  0  0  0
  146.0596  138.9557  151.4096 N   0  3  0  0  0  0  0  0  0  0  0  0
  146.8778  138.9865  152.6380 C   0  0  0  0  0  0  0  0  0  0  0  0
  146.3264  137.9791  153.6631 C   0  0  0  0  0  0  0  0  0  0  0  0
  146.3346  136.6372  153.0890 N   0  0  0  0  0  0  0  0  0  0  0  0
  146.4449  134.3191  151.3072 C   0  0  0  0  0  0  0  0  0  0  0  0
  146.2674  133.0320  150.7617 C   0  0  0  0  0  0  0  0  0  0  0  0
  145.0892  132.5908  150.2722 N   0  0  0  0  0  0  0  0  0  0  0  0
  143.1043  133.0529  149.9138 H   0  0  0  0  0  0  0  0  0  0  0  0
  143.2289  135.3707  150.8435 H   0  0  0  0  0  0  0  0  0  0  0  0
  144.4633  136.9116  152.2338 H   0  0  0  0  0  0  0  0  0  0  0  0
  146.9729  137.2907  150.4977 H   0  0  0  0  0  0  0  0  0  0  0  0
  145.3246  137.6015  149.9857 H   0  0  0  0  0  0  0  0  0  0  0  0
  146.4590  139.5783  150.7220 H   0  0  0  0  0  0  0  0  0  0  0  0
  147.9154  138.7553  152.3918 H   0  0  0  0  0  0  0  0  0  0  0  0
  146.8633  139.9953  153.0510 H   0  0  0  0  0  0  0  0  0  0  0  0
  146.9447  137.9824  154.5610 H   0  0  0  0  0  0  0  0  0  0  0  0
  145.3146  138.2481  153.9702 H   0  0  0  0  0  0  0  0  0  0  0  0
  146.0118  135.9671  153.7733 H   0  0  0  0  0  0  0  0  0  0  0  0
  147.4107  134.6228  151.6838 H   0  0  0  0  0  0  0  0  0  0  0  0
  147.0945  132.3391  150.7167 H   0  0  0  0  0  0  0  0  0  0  0  0
  145.1252  139.2655  151.6353 H   0  0  0  0  0  0  0  0  0  0  0  0
  1 12  1  0  0  0  0
  1  2  2  0  0  0  0
  1 13  1  0  0  0  0
  2  3  1  0  0  0  0
  2 14  1  0  0  0  0
  3  4  1  0  0  0  0
  3 10  2  0  0  0  0
  4  9  1  0  0  0  0
  4  5  1  0  0  0  0
  4 15  1  0  0  0  0
  5  6  1  0  0  0  0
  5 16  1  0  0  0  0
  5 17  1  0  0  0  0
  6  7  1  0  0  0  0
  6 18  1  0  0  0  0
  6 26  1  0  0  0  0
  7  8  1  0  0  0  0
  7 19  1  0  0  0  0
  7 20  1  0  0  0  0
  8  9  1  0  0  0  0
  8 21  1  0  0  0  0
  8 22  1  0  0  0  0
  9 23  1  0  0  0  0
 10 11  1  0  0  0  0
 10 24  1  0  0  0  0
 11 12  2  0  0  0  0
 11 25  1  0  0  0  0
M  CHG  1   6   1
M  END
> <s_m_source_file>
AV-unprocessed.smi

> <i_m_source_file_index>
2605

> <i_lp_mmshare_version>
43012

> <i_f3d_flags>
0

> <s_epik_input>
W2NIXTFbY0hdbltjSF1bY0hdYzFbQ0BASF0yW0NIMl1bTkhdW0NIMl1bQ0gyXVtOSF0y

> <s_epik_cmdline>
J2VwaWtfcHl0aG9uJywgJy1waCcsICc3LjAnLCAnLXRuJywgJzgnLCAnLW1hJywgJzIwMCcsICctbWV0YWxfYmluZGluZycsICctaW1hZScsICc8aW5maWxlLm1hZT4nLCAnLW9tYWUnLCAnPG91dGZpbGUubWFlPic=

> <r_epik_Ionization_Penalty>
0.0197506

> <r_epik_Ionization_Penalty_Charging>
0.010317

> <r_epik_Ionization_Penalty_Neutral>
0.00943359

> <r_epik_State_Penalty>
0.319455

> <r_epik_Charging_Adjusted_Penalty>
0.329772

> <i_epik_Tot_Q>
1

> <i_epik_Tot_abs_Q>
1

> <r_epik_Metal_State_Penalty>
0.318246

> <b_epik_Metal_Only>
0

> <s_lp_Force_Field>
OPLS_2005

> <r_lp_Energy>
9.79217

> <b_lp_Chiralities_Consistent>
1

> <s_lp_Variant>
AV-unprocessed.smi:2605-1

> <Gold.Version>
5.8.1

> <Gold.Id.Protein>
6NUR|6NUR_protein|mol2

> <Gold.PLP.Fitness>
32.3212

> <Gold.PLP.PLP>
-21.9208

> <Gold.PLP.part.hbond>
-3.0000

> <Gold.PLP.part.metal>
0.0000

> <Gold.PLP.part.buried>
0.9610

> <Gold.PLP.part.nonpolar>
-20.9965

> <Gold.PLP.part.repulsive>
0.2056

> <Gold.PLP.ligand.clash>
0.0000

> <Gold.PLP.ligand.torsion>
0.6601

> <Gold.PLP.Chemscore.Hbond>
2.0000

> <Gold.PLP.Chemscore.CHOScore>
1.9045

> <Gold.PLP.Chemscore.Metal>
0.0000

> <Gold.Chemscore.Hbonds>
donor molecule, donor type, donor heavy atom, donor atom, acceptor molecule, acceptor atom, score
      L1  H     6    26       P1 10175  1.98
      L1  C     1    13       P1 10186  0.91
      L1  C    11    25       P1 10747  1.00

> <Gold.PLP.Chemscore.Internal.Correction>
0.0074

> <Gold.Rescore>
     Score         DG    S(hbond)    S(metal)    S(lipo)     H(rot)  DE(clash)    DE(int)     intcor
     11.30     -12.96       0.97        0.00      58.08       1.00       1.32       0.34       ----

> <Gold.Chemscore.Fitness>
11.2968

> <Gold.Chemscore.DG>
-12.9576

> <Gold.Chemscore.ZeroCoef>
-5.4800

> <Gold.Chemscore.Hbond>
0.9706

> <Gold.Chemscore.Metal>
0.0000

> <Gold.Chemscore.Lipo>
58.0830

> <Gold.Chemscore.Internal_Hbond>
0.0000

> <Gold.Chemscore.DEClash>
1.3183

> <Gold.Chemscore.DEInternal>
0.3424

> <Gold.Chemscore.Rot>
1.0000

> <Gold.Chemscore.Internal.Correction>
   9.000000E+99

> <Gold.Chemscore.Hbonds>
donor molecule, donor type, donor heavy atom, donor atom, acceptor molecule, acceptor atom, score
      L1  H     6    26       P1 10175  0.81

> <Gold.Chemscore.Hbond.Weighted>
-3.2419

> <Gold.Chemscore.Metal.Weighted>
-0.0000

> <Gold.Chemscore.Lipo.Weighted>
-6.7957

> <Gold.Chemscore.Internal_Hbond.Weighted>
0.0000

> <Gold.Chemscore.DEClash.Weighted>
1.3183

> <Gold.Chemscore.DEInternal.Weighted>
0.3424

> <Gold.Chemscore.Rot.Weighted>
2.5600

> <Gold.Chemscore.Internal.Correction.Weighted>
   9.000000E+99

> <Gold.Protein.RotatedTorsions>
[ 6907 6896 6895 6894 ] final  101.04 input  -60.11 | X-H torsion
[ 7974 7965 7964 7962 ] final  125.23 input  175.53 | X-H torsion
[ 8008 7997 7996 7995 ] final -108.65 input   59.86 | X-H torsion
[ 10167 10162 10161 10158 ] final  -12.38 input  -65.29 | X-H torsion
[ 10718 10713 10712 10709 ] final  -28.33 input   66.30 | X-H torsion
[ 10763 10752 10751 10750 ] final   50.96 input  -60.55 | X-H torsion
[ 11005 11000 10999 10996 ] final  -78.28 input  -57.11 | X-H torsion

> <Gold.Protein.ActiveResidues>
 VAL166  LYS551  ARG553  GLY616  TRP617  ASP618  TYR619  PRO620  LYS621  CYS622 
 ASP623  PHE694  ASN695  SER759  ASP760  ASP761  ALA762  ILE779  LEU786  VAL792 
 PHE793  MET794  SER795  GLU796  ALA797  LYS798  CYS799  TRP800  GLU811  SER814 

> <Gold.Protein.RotatedAtoms>
  152.5358  134.0185  159.7970 H   0  0  0  0  0  0  0  0  0  0  0  0  # atno 6907 bound_to 6896
  151.0376  133.5727  159.2661 H   0  0  0  0  0  0  0  0  0  0  0  0  # atno 6908 bound_to 6896
  151.2709  135.0691  159.9187 H   0  0  0  0  0  0  0  0  0  0  0  0  # atno 6909 bound_to 6896
  145.0753  139.3698  143.4937 H   0  0  0  0  0  0  0  0  0  0  0  0  # atno 7974 bound_to 7965
  154.9475  140.0401  157.2127 H   0  0  0  0  0  0  0  0  0  0  0  0  # atno 8008 bound_to 7997
  154.8010  140.2852  155.5899 H   0  0  0  0  0  0  0  0  0  0  0  0  # atno 8009 bound_to 7997
  156.2961  140.2555  156.2878 H   0  0  0  0  0  0  0  0  0  0  0  0  # atno 8010 bound_to 7997
  140.7160  143.5539  150.9270 H   0  0  0  0  0  0  0  0  0  0  0  0  # atno 10167 bound_to 10162
  156.4267  130.4437  149.7146 H   0  0  0  0  0  0  0  0  0  0  0  0  # atno 10718 bound_to 10713
  152.9785  135.5862  154.4337 H   0  0  0  0  0  0  0  0  0  0  0  0  # atno 10763 bound_to 10752
  154.3947  135.2768  155.2135 H   0  0  0  0  0  0  0  0  0  0  0  0  # atno 10764 bound_to 10752
  154.3992  135.6107  153.5942 H   0  0  0  0  0  0  0  0  0  0  0  0  # atno 10765 bound_to 10752
  141.1664  133.7057  156.7948 H   0  0  0  0  0  0  0  0  0  0  0  0  # atno 11005 bound_to 11000
  146.3530  140.0518  142.8635 LP  0  0  0  0  0  0  0  0  0  0  0  0  # atno 17320 bound_to 7965
  145.1243  140.9481  143.4582 LP  0  0  0  0  0  0  0  0  0  0  0  0  # atno 17321 bound_to 7965
  139.9263  143.6546  152.3086 LP  0  0  0  0  0  0  0  0  0  0  0  0  # atno 17342 bound_to 10162
  139.6980  144.7639  151.1322 LP  0  0  0  0  0  0  0  0  0  0  0  0  # atno 17343 bound_to 10162
  156.4065  130.7701  151.2712 LP  0  0  0  0  0  0  0  0  0  0  0  0  # atno 17370 bound_to 10713
  157.7508  131.0224  150.3790 LP  0  0  0  0  0  0  0  0  0  0  0  0  # atno 17371 bound_to 10713
  140.2299  134.8693  157.3466 LP  0  0  0  0  0  0  0  0  0  0  0  0  # atno 17394 bound_to 11000
  140.1901  134.4382  155.7720 LP  0  0  0  0  0  0  0  0  0  0  0  0  # atno 17395 bound_to 11000

$$$$
