AV-unprocessed.smi:2910|AV-procd|sdf|11176|dock5
  -GOLD-   2272016 63D 1   1.00000     0.00000
 Structure written by MMmdl.
 47 48  0  0  0  0  0  0  0  0  1 V2000
  145.8100  130.0716  151.2876 C   0  0  0  0  0  0  0  0  0  0  0  0
  145.8564  131.5670  151.1779 C   0  0  0  0  0  0  0  0  0  0  0  0
  146.5772  132.4846  151.9961 C   0  0  0  0  0  0  0  0  0  0  0  0
  146.2512  133.6958  151.4496 C   0  0  0  0  0  0  0  0  0  0  0  0
  146.6463  134.9398  151.8303 N   0  0  0  0  0  0  0  0  0  0  0  0
  145.9058  135.9330  152.3522 C   0  0  0  0  0  0  0  0  0  0  0  0
  144.7040  135.8661  152.6105 O   0  0  0  0  0  0  0  0  0  0  0  0
  146.6514  137.0281  152.5649 N   0  0  0  0  0  0  0  0  0  0  0  0
  146.1754  138.3028  153.1098 C   0  0  1  0  0  0  0  0  0  0  0  0
  145.3746  138.0285  154.4055 C   0  0  0  0  0  0  0  0  0  0  0  0
  144.6795  139.2697  154.9924 C   0  0  0  0  0  0  0  0  0  0  0  0
  143.6337  139.6790  154.1380 O   0  0  0  0  0  0  0  0  0  0  0  0
  147.3734  139.2764  153.3104 C   0  0  0  0  0  0  0  0  0  0  0  0
  148.3157  138.8301  154.4560 C   0  0  0  0  0  0  0  0  0  0  0  0
  149.4869  139.8033  154.6670 C   0  0  0  0  0  0  0  0  0  0  0  0
  148.9891  141.2306  154.9245 C   0  0  0  0  0  0  0  0  0  0  0  0
  148.0824  141.6989  153.7804 C   0  0  0  0  0  0  0  0  0  0  0  0
  146.9064  140.7324  153.5708 C   0  0  0  0  0  0  0  0  0  0  0  0
  145.3990  133.4896  150.3877 N   0  0  0  0  0  0  0  0  0  0  0  0
  144.7839  134.4566  149.4994 C   0  0  0  0  0  0  0  0  0  0  0  0
  145.1589  132.1709  150.2223 N   0  0  0  0  0  0  0  0  0  0  0  0
  146.4419  129.7169  152.1021 H   0  0  0  0  0  0  0  0  0  0  0  0
  146.1567  129.5987  150.3685 H   0  0  0  0  0  0  0  0  0  0  0  0
  144.7949  129.7241  151.4806 H   0  0  0  0  0  0  0  0  0  0  0  0
  147.2171  132.2684  152.8381 H   0  0  0  0  0  0  0  0  0  0  0  0
  147.6254  135.1407  151.6913 H   0  0  0  0  0  0  0  0  0  0  0  0
  147.6300  136.9845  152.3207 H   0  0  0  0  0  0  0  0  0  0  0  0
  145.4914  138.7721  152.4004 H   0  0  0  0  0  0  0  0  0  0  0  0
  144.6324  137.2507  154.2194 H   0  0  0  0  0  0  0  0  0  0  0  0
  146.0413  137.6371  155.1726 H   0  0  0  0  0  0  0  0  0  0  0  0
  144.2679  139.0501  155.9780 H   0  0  0  0  0  0  0  0  0  0  0  0
  145.3768  140.0999  155.1060 H   0  0  0  0  0  0  0  0  0  0  0  0
  143.9857  139.8024  153.2695 H   0  0  0  0  0  0  0  0  0  0  0  0
  147.9555  139.2804  152.3874 H   0  0  0  0  0  0  0  0  0  0  0  0
  147.7486  138.7380  155.3833 H   0  0  0  0  0  0  0  0  0  0  0  0
  148.7358  137.8463  154.2521 H   0  0  0  0  0  0  0  0  0  0  0  0
  150.1005  139.4687  155.5038 H   0  0  0  0  0  0  0  0  0  0  0  0
  150.1323  139.7942  153.7878 H   0  0  0  0  0  0  0  0  0  0  0  0
  148.4409  141.2653  155.8669 H   0  0  0  0  0  0  0  0  0  0  0  0
  149.8361  141.9088  155.0321 H   0  0  0  0  0  0  0  0  0  0  0  0
  147.7061  142.7002  153.9916 H   0  0  0  0  0  0  0  0  0  0  0  0
  148.6627  141.7741  152.8598 H   0  0  0  0  0  0  0  0  0  0  0  0
  146.3097  141.1041  152.7380 H   0  0  0  0  0  0  0  0  0  0  0  0
  146.2564  140.7562  154.4467 H   0  0  0  0  0  0  0  0  0  0  0  0
  144.2370  135.1957  150.0856 H   0  0  0  0  0  0  0  0  0  0  0  0
  144.0898  133.9646  148.8163 H   0  0  0  0  0  0  0  0  0  0  0  0
  145.5559  134.9614  148.9181 H   0  0  0  0  0  0  0  0  0  0  0  0
  1  2  1  0  0  0  0
  1 22  1  0  0  0  0
  1 23  1  0  0  0  0
  1 24  1  0  0  0  0
  2 21  2  0  0  0  0
  2  3  1  0  0  0  0
  3  4  2  0  0  0  0
  3 25  1  0  0  0  0
  4  5  1  0  0  0  0
  4 19  1  0  0  0  0
  5  6  1  0  0  0  0
  5 26  1  0  0  0  0
  6  7  2  0  0  0  0
  6  8  1  0  0  0  0
  8  9  1  0  0  0  0
  8 27  1  0  0  0  0
  9 10  1  0  0  0  0
  9 13  1  0  0  0  0
  9 28  1  0  0  0  0
 10 11  1  0  0  0  0
 10 29  1  0  0  0  0
 10 30  1  0  0  0  0
 11 12  1  0  0  0  0
 11 31  1  0  0  0  0
 11 32  1  0  0  0  0
 12 33  1  0  0  0  0
 13 18  1  0  0  0  0
 13 14  1  0  0  0  0
 13 34  1  0  0  0  0
 14 15  1  0  0  0  0
 14 35  1  0  0  0  0
 14 36  1  0  0  0  0
 15 16  1  0  0  0  0
 15 37  1  0  0  0  0
 15 38  1  0  0  0  0
 16 17  1  0  0  0  0
 16 39  1  0  0  0  0
 16 40  1  0  0  0  0
 17 18  1  0  0  0  0
 17 41  1  0  0  0  0
 17 42  1  0  0  0  0
 18 43  1  0  0  0  0
 18 44  1  0  0  0  0
 19 20  1  0  0  0  0
 19 21  1  0  0  0  0
 20 45  1  0  0  0  0
 20 46  1  0  0  0  0
 20 47  1  0  0  0  0
M  END
> <s_m_source_file>
AV-unprocessed.smi

> <i_m_source_file_index>
2910

> <i_lp_mmshare_version>
43012

> <i_f3d_flags>
0

> <s_epik_input>
W0NIM11jMVtjSF1jKG4objEpW0NIM10pW05IXUMoPU8pW05IXVtDQEhdKFtDSDJdW0NIMl1bT0hdKVtDSF0yW0NIMl1bQ0gyXVtDSDJdW0NIMl1bQ0gyXTI=

> <s_epik_cmdline>
J2VwaWtfcHl0aG9uJywgJy1waCcsICc3LjAnLCAnLXRuJywgJzgnLCAnLW1hJywgJzIwMCcsICctbWV0YWxfYmluZGluZycsICctaW1hZScsICc8aW5maWxlLm1hZT4nLCAnLW9tYWUnLCAnPG91dGZpbGUubWFlPic=

> <r_lp_tautomer_probability>
1

> <r_epik_Ionization_Penalty>
0.000101449

> <r_epik_Ionization_Penalty_Charging>
0

> <r_epik_Ionization_Penalty_Neutral>
0.000101449

> <r_epik_State_Penalty>
-0

> <r_epik_Charging_Adjusted_Penalty>
0

> <i_epik_Tot_Q>
0

> <i_epik_Tot_abs_Q>
0

> <r_epik_Metal_State_Penalty>
-0

> <b_epik_Metal_Only>
0

> <s_lp_Force_Field>
OPLS_2005

> <r_lp_Energy>
16.2271

> <b_lp_Chiralities_Consistent>
1

> <s_lp_Variant>
AV-unprocessed.smi:2910-2

> <Gold.Version>
5.8.1

> <Gold.Id.Protein>
6NUR|6NUR_protein|mol2

> <Gold.PLP.Fitness>
41.0027

> <Gold.PLP.PLP>
-33.4976

> <Gold.PLP.part.hbond>
-3.0000

> <Gold.PLP.part.metal>
0.0000

> <Gold.PLP.part.buried>
-2.5181

> <Gold.PLP.part.nonpolar>
-26.7079

> <Gold.PLP.part.repulsive>
0.2284

> <Gold.PLP.ligand.clash>
0.0000

> <Gold.PLP.ligand.torsion>
0.8298

> <Gold.PLP.Chemscore.Hbond>
3.0000

> <Gold.PLP.Chemscore.CHOScore>
0.0000

> <Gold.PLP.Chemscore.Metal>
0.0000

> <Gold.Chemscore.Hbonds>
donor molecule, donor type, donor heavy atom, donor atom, acceptor molecule, acceptor atom, score
      L1  H     5    26       P1  7948  1.00
      L1  H     8    27       P1  7948  1.00

> <Gold.PLP.Chemscore.Internal.Correction>
0.1647

> <Gold.Rescore>
     Score         DG    S(hbond)    S(metal)    S(lipo)     H(rot)  DE(clash)    DE(int)     intcor
     16.14     -18.10       2.74        0.00      79.38       2.27       0.12       1.84       ----

> <Gold.Chemscore.Fitness>
16.1359

> <Gold.Chemscore.DG>
-18.0991

> <Gold.Chemscore.ZeroCoef>
-5.4800

> <Gold.Chemscore.Hbond>
2.7406

> <Gold.Chemscore.Metal>
0.0000

> <Gold.Chemscore.Lipo>
79.3831

> <Gold.Chemscore.Internal_Hbond>
0.0000

> <Gold.Chemscore.DEClash>
0.1232

> <Gold.Chemscore.DEInternal>
1.8400

> <Gold.Chemscore.Rot>
2.2743

> <Gold.Chemscore.Internal.Correction>
   9.000000E+99

> <Gold.Chemscore.Hbonds>
donor molecule, donor type, donor heavy atom, donor atom, acceptor molecule, acceptor atom, score
      L1  H     5    26       P1  7948  0.71
      L1  H     8    27       P1  7948  0.95
      L1  H    12    33       P1 10175  0.01

> <Gold.Chemscore.Hbond.Weighted>
-9.1535

> <Gold.Chemscore.Metal.Weighted>
-0.0000

> <Gold.Chemscore.Lipo.Weighted>
-9.2878

> <Gold.Chemscore.Internal_Hbond.Weighted>
0.0000

> <Gold.Chemscore.DEClash.Weighted>
0.1232

> <Gold.Chemscore.DEInternal.Weighted>
1.8400

> <Gold.Chemscore.Rot.Weighted>
5.8223

> <Gold.Chemscore.Internal.Correction.Weighted>
   9.000000E+99

> <Gold.Protein.RotatedTorsions>
[ 6907 6896 6895 6894 ] final   71.30 input  -60.11 | X-H torsion
[ 7974 7965 7964 7962 ] final  178.39 input  175.53 | X-H torsion
[ 8008 7997 7996 7995 ] final  108.77 input   59.86 | X-H torsion
[ 10167 10162 10161 10158 ] final  -55.88 input  -65.29 | X-H torsion
[ 10718 10713 10712 10709 ] final   98.16 input   66.30 | X-H torsion
[ 10763 10752 10751 10750 ] final   90.56 input  -60.55 | X-H torsion
[ 11005 11000 10999 10996 ] final  136.13 input  -57.11 | X-H torsion

> <Gold.Protein.ActiveResidues>
 VAL166  LYS551  ARG553  GLY616  TRP617  ASP618  TYR619  PRO620  LYS621  CYS622 
 ASP623  PHE694  ASN695  SER759  ASP760  ASP761  ALA762  ILE779  LEU786  VAL792 
 PHE793  MET794  SER795  GLU796  ALA797  LYS798  CYS799  TRP800  GLU811  SER814 

> <Gold.Protein.RotatedAtoms>
  152.4801  134.4741  159.9644 H   0  0  0  0  0  0  0  0  0  0  0  0  # atno 6907 bound_to 6896
  151.4748  133.3554  159.2837 H   0  0  0  0  0  0  0  0  0  0  0  0  # atno 6908 bound_to 6896
  150.8868  134.8293  159.7326 H   0  0  0  0  0  0  0  0  0  0  0  0  # atno 6909 bound_to 6896
  144.7157  140.0390  143.6437 H   0  0  0  0  0  0  0  0  0  0  0  0  # atno 7974 bound_to 7965
  156.1929  140.3070  155.9368 H   0  0  0  0  0  0  0  0  0  0  0  0  # atno 8008 bound_to 7997
  155.3133  140.0452  157.3053 H   0  0  0  0  0  0  0  0  0  0  0  0  # atno 8009 bound_to 7997
  154.5474  140.2280  155.8550 H   0  0  0  0  0  0  0  0  0  0  0  0  # atno 8010 bound_to 7997
  140.6349  143.2477  151.5144 H   0  0  0  0  0  0  0  0  0  0  0  0  # atno 10167 bound_to 10162
  157.6900  131.0631  150.4754 H   0  0  0  0  0  0  0  0  0  0  0  0  # atno 10718 bound_to 10713
  153.1988  135.4429  155.0241 H   0  0  0  0  0  0  0  0  0  0  0  0  # atno 10763 bound_to 10752
  154.8135  135.3304  154.7244 H   0  0  0  0  0  0  0  0  0  0  0  0  # atno 10764 bound_to 10752
  153.7691  135.6986  153.4965 H   0  0  0  0  0  0  0  0  0  0  0  0  # atno 10765 bound_to 10752
  140.0025  134.9472  157.0104 H   0  0  0  0  0  0  0  0  0  0  0  0  # atno 11005 bound_to 11000
  146.0039  139.3113  143.0911 LP  0  0  0  0  0  0  0  0  0  0  0  0  # atno 17320 bound_to 7965
  145.8761  140.9391  143.0625 LP  0  0  0  0  0  0  0  0  0  0  0  0  # atno 17321 bound_to 7965
  139.5560  144.2274  152.1613 LP  0  0  0  0  0  0  0  0  0  0  0  0  # atno 17342 bound_to 10162
  140.1528  144.5099  150.6678 LP  0  0  0  0  0  0  0  0  0  0  0  0  # atno 17343 bound_to 10162
  156.5089  130.4134  149.6312 LP  0  0  0  0  0  0  0  0  0  0  0  0  # atno 17370 bound_to 10713
  156.3259  130.7305  151.2226 LP  0  0  0  0  0  0  0  0  0  0  0  0  # atno 17371 bound_to 10713
  140.4701  134.1395  155.7202 LP  0  0  0  0  0  0  0  0  0  0  0  0  # atno 17394 bound_to 11000
  141.1653  133.8715  157.1733 LP  0  0  0  0  0  0  0  0  0  0  0  0  # atno 17395 bound_to 11000

$$$$
