AV-unprocessed.smi:1714|AV-procd|sdf|6907|dock10
  -GOLD-   22720 8113D 1   1.00000     0.00000
 Structure written by MMmdl.
 45 46  0  0  0  0  0  0  0  0  1 V2000
  145.4660  135.7339  150.9409 C   0  0  0  0  0  0  0  0  0  0  0  0
  145.3185  134.2211  150.9050 C   0  0  0  0  0  0  0  0  0  0  0  0
  144.2741  133.6464  150.1500 C   0  0  0  0  0  0  0  0  0  0  0  0
  144.1396  132.2478  150.1194 C   0  0  0  0  0  0  0  0  0  0  0  0
  145.0610  131.4786  150.8507 C   0  0  0  0  0  0  0  0  0  0  0  0
  146.0614  132.0195  151.5756 N   0  0  0  0  0  0  0  0  0  0  0  0
  146.2050  133.3679  151.6153 C   0  0  0  0  0  0  0  0  0  0  0  0
  147.2379  134.0090  152.3545 N   0  0  0  0  0  0  0  0  0  0  0  0
  147.7001  133.7113  153.5813 C   0  0  0  0  0  0  0  0  0  0  0  0
  147.2829  132.8065  154.3047 O   0  0  0  0  0  0  0  0  0  0  0  0
  148.6892  134.5407  153.9351 N   0  0  0  0  0  0  0  0  0  0  0  0
  149.3874  134.5031  155.2157 C   0  0  0  0  0  0  0  0  0  0  0  0
  149.2796  135.8535  155.9795 C   0  0  0  0  0  0  0  0  0  0  0  0
  147.7932  136.0422  156.3673 C   0  0  0  0  0  0  0  0  0  0  0  0
  150.0792  135.6722  157.2951 C   0  0  0  0  0  0  0  0  0  0  0  0
  149.8225  136.9844  155.1748 N   0  0  0  0  0  0  0  0  0  0  0  0
  149.5004  138.3194  155.6931 C   0  0  0  0  0  0  0  0  0  0  0  0
  149.9844  139.4382  154.7552 C   0  0  0  0  0  0  0  0  0  0  0  0
  151.3840  139.3101  154.5386 O   0  0  0  0  0  0  0  0  0  0  0  0
  151.7326  138.0505  153.9780 C   0  0  0  0  0  0  0  0  0  0  0  0
  151.2644  136.9198  154.9096 C   0  0  0  0  0  0  0  0  0  0  0  0
  144.7006  136.2225  150.3370 H   0  0  0  0  0  0  0  0  0  0  0  0
  146.4402  136.0326  150.5527 H   0  0  0  0  0  0  0  0  0  0  0  0
  145.3721  136.1017  151.9631 H   0  0  0  0  0  0  0  0  0  0  0  0
  143.5825  134.2677  149.5999 H   0  0  0  0  0  0  0  0  0  0  0  0
  143.3512  131.7773  149.5508 H   0  0  0  0  0  0  0  0  0  0  0  0
  144.9944  130.4005  150.8542 H   0  0  0  0  0  0  0  0  0  0  0  0
  147.6776  134.7900  151.8910 H   0  0  0  0  0  0  0  0  0  0  0  0
  148.9709  135.2610  153.2859 H   0  0  0  0  0  0  0  0  0  0  0  0
  148.9953  133.6785  155.8120 H   0  0  0  0  0  0  0  0  0  0  0  0
  150.4350  134.2544  155.0361 H   0  0  0  0  0  0  0  0  0  0  0  0
  147.4372  135.2030  156.9662 H   0  0  0  0  0  0  0  0  0  0  0  0
  147.1446  136.0996  155.4932 H   0  0  0  0  0  0  0  0  0  0  0  0
  147.6313  136.9419  156.9606 H   0  0  0  0  0  0  0  0  0  0  0  0
  149.8017  134.7508  157.8086 H   0  0  0  0  0  0  0  0  0  0  0  0
  149.8961  136.4794  158.0040 H   0  0  0  0  0  0  0  0  0  0  0  0
  151.1536  135.6307  157.1119 H   0  0  0  0  0  0  0  0  0  0  0  0
  148.4264  138.4383  155.8226 H   0  0  0  0  0  0  0  0  0  0  0  0
  149.9558  138.4628  156.6730 H   0  0  0  0  0  0  0  0  0  0  0  0
  149.4554  139.3986  153.8016 H   0  0  0  0  0  0  0  0  0  0  0  0
  149.7803  140.4145  155.1947 H   0  0  0  0  0  0  0  0  0  0  0  0
  151.2829  137.9465  152.9892 H   0  0  0  0  0  0  0  0  0  0  0  0
  152.8135  138.0074  153.8440 H   0  0  0  0  0  0  0  0  0  0  0  0
  151.8233  136.9801  155.8435 H   0  0  0  0  0  0  0  0  0  0  0  0
  151.5317  135.9749  154.4400 H   0  0  0  0  0  0  0  0  0  0  0  0
  1  2  1  0  0  0  0
  1 22  1  0  0  0  0
  1 23  1  0  0  0  0
  1 24  1  0  0  0  0
  2  7  1  0  0  0  0
  2  3  2  0  0  0  0
  3  4  1  0  0  0  0
  3 25  1  0  0  0  0
  4  5  2  0  0  0  0
  4 26  1  0  0  0  0
  5  6  1  0  0  0  0
  5 27  1  0  0  0  0
  6  7  2  0  0  0  0
  7  8  1  0  0  0  0
  8  9  1  0  0  0  0
  8 28  1  0  0  0  0
  9 10  2  0  0  0  0
  9 11  1  0  0  0  0
 11 12  1  0  0  0  0
 11 29  1  0  0  0  0
 12 13  1  0  0  0  0
 12 30  1  0  0  0  0
 12 31  1  0  0  0  0
 13 14  1  0  0  0  0
 13 15  1  0  0  0  0
 13 16  1  0  0  0  0
 14 32  1  0  0  0  0
 14 33  1  0  0  0  0
 14 34  1  0  0  0  0
 15 35  1  0  0  0  0
 15 36  1  0  0  0  0
 15 37  1  0  0  0  0
 16 21  1  0  0  0  0
 16 17  1  0  0  0  0
 17 18  1  0  0  0  0
 17 38  1  0  0  0  0
 17 39  1  0  0  0  0
 18 19  1  0  0  0  0
 18 40  1  0  0  0  0
 18 41  1  0  0  0  0
 19 20  1  0  0  0  0
 20 21  1  0  0  0  0
 20 42  1  0  0  0  0
 20 43  1  0  0  0  0
 21 44  1  0  0  0  0
 21 45  1  0  0  0  0
M  END
> <s_m_source_file>
AV-unprocessed.smi

> <i_m_source_file_index>
1714

> <i_lp_mmshare_version>
43012

> <i_f3d_flags>
0

> <s_epik_input>
W0NIM11jMVtjSF1bY0hdW2NIXW5jMVtOSF1DKD1PKVtOSF1bQ0gyXUMoW0NIM10pKFtDSDNdKU4yW0NIMl1bQ0gyXU9bQ0gyXVtDSDJdMg==

> <s_epik_cmdline>
J2VwaWtfcHl0aG9uJywgJy1waCcsICc3LjAnLCAnLXRuJywgJzgnLCAnLW1hJywgJzIwMCcsICctbWV0YWxfYmluZGluZycsICctaW1hZScsICc8aW5maWxlLm1hZT4nLCAnLW9tYWUnLCAnPG91dGZpbGUubWFlPic=

> <r_epik_Ionization_Penalty>
0.26605

> <r_epik_Ionization_Penalty_Charging>
0

> <r_epik_Ionization_Penalty_Neutral>
0.26605

> <r_epik_State_Penalty>
0.257924

> <r_epik_Charging_Adjusted_Penalty>
0.257924

> <i_epik_Tot_Q>
0

> <i_epik_Tot_abs_Q>
0

> <r_epik_Metal_State_Penalty>
0.257922

> <b_epik_Metal_Only>
0

> <s_lp_Force_Field>
OPLS_2005

> <r_lp_Energy>
43.6145

> <b_lp_Chiralities_Consistent>
1

> <s_lp_Variant>
AV-unprocessed.smi:1714-1

> <Gold.Version>
5.8.1

> <Gold.Id.Protein>
6NUR|6NUR_protein|mol2

> <Gold.PLP.Fitness>
40.1824

> <Gold.PLP.PLP>
-32.1274

> <Gold.PLP.part.hbond>
-3.0000

> <Gold.PLP.part.metal>
0.0000

> <Gold.PLP.part.buried>
-6.1808

> <Gold.PLP.part.nonpolar>
-23.4200

> <Gold.PLP.part.repulsive>
0.3811

> <Gold.PLP.ligand.clash>
0.0000

> <Gold.PLP.ligand.torsion>
0.5038

> <Gold.PLP.Chemscore.Hbond>
3.0000

> <Gold.PLP.Chemscore.CHOScore>
0.0000

> <Gold.PLP.Chemscore.Metal>
0.0000

> <Gold.Chemscore.Hbonds>
donor molecule, donor type, donor heavy atom, donor atom, acceptor molecule, acceptor atom, score
      L1  H     8    28       P1  7948  1.00
      L1  H    11    29       P1  7948  1.00
      P1  H  7989  7998       L1    19  0.95

> <Gold.PLP.Chemscore.Internal.Correction>
0.0625

> <Gold.Rescore>
     Score         DG    S(hbond)    S(metal)    S(lipo)     H(rot)  DE(clash)    DE(int)     intcor
     16.51     -17.12       2.06        0.00      72.32       1.45       0.01       0.60       ----

> <Gold.Chemscore.Fitness>
16.5110

> <Gold.Chemscore.DG>
-17.1244

> <Gold.Chemscore.ZeroCoef>
-5.4800

> <Gold.Chemscore.Hbond>
2.0641

> <Gold.Chemscore.Metal>
0.0000

> <Gold.Chemscore.Lipo>
72.3238

> <Gold.Chemscore.Internal_Hbond>
0.0000

> <Gold.Chemscore.DEClash>
0.0126

> <Gold.Chemscore.DEInternal>
0.6008

> <Gold.Chemscore.Rot>
1.4498

> <Gold.Chemscore.Internal.Correction>
   9.000000E+99

> <Gold.Chemscore.Hbonds>
donor molecule, donor type, donor heavy atom, donor atom, acceptor molecule, acceptor atom, score
      L1  H     8    28       P1  7948  0.53
      L1  H    11    29       P1  7948  0.44
      P1  H  7989  7998       L1    19  0.21

> <Gold.Chemscore.Hbond.Weighted>
-6.8941

> <Gold.Chemscore.Metal.Weighted>
-0.0000

> <Gold.Chemscore.Lipo.Weighted>
-8.4619

> <Gold.Chemscore.Internal_Hbond.Weighted>
0.0000

> <Gold.Chemscore.DEClash.Weighted>
0.0126

> <Gold.Chemscore.DEInternal.Weighted>
0.6008

> <Gold.Chemscore.Rot.Weighted>
3.7116

> <Gold.Chemscore.Internal.Correction.Weighted>
   9.000000E+99

> <Gold.Protein.RotatedTorsions>
[ 6907 6896 6895 6894 ] final   81.95 input  -60.11 | X-H torsion
[ 7974 7965 7964 7962 ] final  104.58 input  175.53 | X-H torsion
[ 8008 7997 7996 7995 ] final   73.43 input   59.86 | X-H torsion
[ 10167 10162 10161 10158 ] final -100.05 input  -65.29 | X-H torsion
[ 10718 10713 10712 10709 ] final -134.19 input   66.30 | X-H torsion
[ 10763 10752 10751 10750 ] final  -35.11 input  -60.55 | X-H torsion
[ 11005 11000 10999 10996 ] final   47.35 input  -57.11 | X-H torsion

> <Gold.Protein.ActiveResidues>
 VAL166  LYS551  ARG553  GLY616  TRP617  ASP618  TYR619  PRO620  LYS621  CYS622 
 ASP623  PHE694  ASN695  SER759  ASP760  ASP761  ALA762  ILE779  LEU786  VAL792 
 PHE793  MET794  SER795  GLU796  ALA797  LYS798  CYS799  TRP800  GLU811  SER814 

> <Gold.Protein.RotatedAtoms>
  152.5284  134.3125  159.9118 H   0  0  0  0  0  0  0  0  0  0  0  0  # atno 6907 bound_to 6896
  151.3074  133.4089  159.2652 H   0  0  0  0  0  0  0  0  0  0  0  0  # atno 6908 bound_to 6896
  151.0067  134.9381  159.8041 H   0  0  0  0  0  0  0  0  0  0  0  0  # atno 6909 bound_to 6896
  145.3309  139.2487  143.3661 H   0  0  0  0  0  0  0  0  0  0  0  0  # atno 7974 bound_to 7965
  155.7836  140.3481  155.5311 H   0  0  0  0  0  0  0  0  0  0  0  0  # atno 8008 bound_to 7997
  155.8704  140.0985  157.1575 H   0  0  0  0  0  0  0  0  0  0  0  0  # atno 8009 bound_to 7997
  154.4017  140.1341  156.4058 H   0  0  0  0  0  0  0  0  0  0  0  0  # atno 8010 bound_to 7997
  140.2560  143.3440  152.0671 H   0  0  0  0  0  0  0  0  0  0  0  0  # atno 10167 bound_to 10162
  156.2529  130.7164  151.1069 H   0  0  0  0  0  0  0  0  0  0  0  0  # atno 10718 bound_to 10713
  153.8578  135.6843  153.4786 H   0  0  0  0  0  0  0  0  0  0  0  0  # atno 10763 bound_to 10752
  153.1359  135.4678  154.9420 H   0  0  0  0  0  0  0  0  0  0  0  0  # atno 10764 bound_to 10752
  154.7772  135.3257  154.8015 H   0  0  0  0  0  0  0  0  0  0  0  0  # atno 10765 bound_to 10752
  140.1287  134.4734  155.8539 H   0  0  0  0  0  0  0  0  0  0  0  0  # atno 11005 bound_to 11000
  146.3046  140.3886  142.8692 LP  0  0  0  0  0  0  0  0  0  0  0  0  # atno 17320 bound_to 7965
  144.8865  140.7468  143.5954 LP  0  0  0  0  0  0  0  0  0  0  0  0  # atno 17321 bound_to 7965
  139.5031  144.6749  151.6152 LP  0  0  0  0  0  0  0  0  0  0  0  0  # atno 17342 bound_to 10162
  140.6004  143.9621  150.6382 LP  0  0  0  0  0  0  0  0  0  0  0  0  # atno 17343 bound_to 10162
  157.7221  131.0674  150.6091 LP  0  0  0  0  0  0  0  0  0  0  0  0  # atno 17370 bound_to 10713
  156.6172  130.4396  149.5836 LP  0  0  0  0  0  0  0  0  0  0  0  0  # atno 17371 bound_to 10713
  141.2166  133.6787  156.7027 LP  0  0  0  0  0  0  0  0  0  0  0  0  # atno 17394 bound_to 11000
  140.2871  134.8271  157.3984 LP  0  0  0  0  0  0  0  0  0  0  0  0  # atno 17395 bound_to 11000

$$$$
