AV-unprocessed.smi:196|AV-procd|sdf|1532|dock4
  -GOLD-   2262019383D 1   1.00000     0.00000
 Structure written by MMmdl.
 47 50  0  0  0  0  0  0  0  0  1 V2000
  142.8536  133.5646  152.1922 C   0  0  0  0  0  0  0  0  0  0  0  0
  143.9477  133.6980  151.1215 C   0  0  2  0  0  0  0  0  0  0  0  0
  144.9042  132.6643  151.3349 O   0  0  0  0  0  0  0  0  0  0  0  0
  146.1537  133.0989  150.8306 C   0  0  0  0  0  0  0  0  0  0  0  0
  146.2013  134.5472  151.2927 C   0  0  0  0  0  0  0  0  0  0  0  0
  144.7614  135.0238  151.1044 C   0  0  1  0  0  0  0  0  0  0  0  0
  144.6541  135.5775  149.8039 O   0  0  0  0  0  0  0  0  0  0  0  0
  144.3328  136.1079  152.1285 C   0  0  0  0  0  0  0  0  0  0  0  0
  145.4537  136.8302  152.7112 N   0  0  0  0  0  0  0  0  0  0  0  0
  145.9111  138.0775  152.3475 C   0  0  0  0  0  0  0  0  0  0  0  0
  146.9373  138.5149  153.0251 N   0  0  0  0  0  0  0  0  0  0  0  0
  147.2128  137.4873  153.9177 C   0  0  0  0  0  0  0  0  0  0  0  0
  148.1833  137.2980  154.9357 C   0  0  0  0  0  0  0  0  0  0  0  0
  149.1097  138.2398  155.2295 N   0  0  0  0  0  0  0  0  0  0  0  0
  148.5692  139.5559  155.5636 C   0  0  0  0  0  0  0  0  0  0  0  0
  149.0945  140.5037  154.4909 C   0  0  1  0  0  0  0  0  0  0  0  0
  149.1809  141.7642  154.9146 F   0  0  0  0  0  0  0  0  0  0  0  0
  150.4520  139.9004  154.1632 C   0  0  0  0  0  0  0  0  0  0  0  0
  150.1850  138.3873  154.2347 C   0  0  1  0  0  0  0  0  0  0  0  0
  151.4651  137.5984  154.5645 C   0  0  0  0  0  0  0  0  0  0  0  0
  152.5913  138.2712  154.8213 N   0  0  0  0  0  0  0  0  0  0  0  0
  151.4307  136.3703  154.5942 O   0  0  0  0  0  0  0  0  0  0  0  0
  148.1626  136.1265  155.6252 N   0  0  0  0  0  0  0  0  0  0  0  0
  147.2426  135.2003  155.3388 C   0  0  0  0  0  0  0  0  0  0  0  0
  146.2724  135.2424  154.4227 N   0  0  0  0  0  0  0  0  0  0  0  0
  146.2957  136.4165  153.7287 C   0  0  0  0  0  0  0  0  0  0  0  0
  148.4473  140.4874  153.6128 H   0  0  0  0  0  0  0  0  0  0  0  0
  149.8394  138.0543  153.2538 H   0  0  0  0  0  0  0  0  0  0  0  0
  142.0831  134.3262  152.0705 H   0  0  0  0  0  0  0  0  0  0  0  0
  143.2630  133.6486  153.1991 H   0  0  0  0  0  0  0  0  0  0  0  0
  142.3646  132.5929  152.1208 H   0  0  0  0  0  0  0  0  0  0  0  0
  143.4939  133.5205  150.1444 H   0  0  0  0  0  0  0  0  0  0  0  0
  146.9769  132.5022  151.2240 H   0  0  0  0  0  0  0  0  0  0  0  0
  146.1608  133.0300  149.7416 H   0  0  0  0  0  0  0  0  0  0  0  0
  146.4664  134.5628  152.3505 H   0  0  0  0  0  0  0  0  0  0  0  0
  146.9405  135.1446  150.7573 H   0  0  0  0  0  0  0  0  0  0  0  0
  144.3755  136.4772  149.8820 H   0  0  0  0  0  0  0  0  0  0  0  0
  143.6660  136.8334  151.6607 H   0  0  0  0  0  0  0  0  0  0  0  0
  143.7728  135.6572  152.9482 H   0  0  0  0  0  0  0  0  0  0  0  0
  145.4539  138.6595  151.5603 H   0  0  0  0  0  0  0  0  0  0  0  0
  147.4801  139.5869  155.6315 H   0  0  0  0  0  0  0  0  0  0  0  0
  148.9606  139.8355  156.5425 H   0  0  0  0  0  0  0  0  0  0  0  0
  150.8252  140.2174  153.1888 H   0  0  0  0  0  0  0  0  0  0  0  0
  151.1808  140.2048  154.9172 H   0  0  0  0  0  0  0  0  0  0  0  0
  153.4400  137.7678  155.0371 H   0  0  0  0  0  0  0  0  0  0  0  0
  152.5900  139.2804  154.7963 H   0  0  0  0  0  0  0  0  0  0  0  0
  147.2897  134.2968  155.9288 H   0  0  0  0  0  0  0  0  0  0  0  0
  1  2  1  0  0  0  0
  1 29  1  0  0  0  0
  1 30  1  0  0  0  0
  1 31  1  0  0  0  0
  2  6  1  0  0  0  0
  2  3  1  0  0  0  0
  2 32  1  0  0  0  0
  3  4  1  0  0  0  0
  4  5  1  0  0  0  0
  4 33  1  0  0  0  0
  4 34  1  0  0  0  0
  5  6  1  0  0  0  0
  5 35  1  0  0  0  0
  5 36  1  0  0  0  0
  6  7  1  0  0  0  0
  6  8  1  0  0  0  0
  7 37  1  0  0  0  0
  8  9  1  0  0  0  0
  8 38  1  0  0  0  0
  8 39  1  0  0  0  0
  9 26  1  0  0  0  0
  9 10  1  0  0  0  0
 10 11  2  0  0  0  0
 10 40  1  0  0  0  0
 11 12  1  0  0  0  0
 12 26  2  0  0  0  0
 12 13  1  0  0  0  0
 13 14  1  0  0  0  0
 13 23  2  0  0  0  0
 14 19  1  0  0  0  0
 14 15  1  0  0  0  0
 15 16  1  0  0  0  0
 15 41  1  0  0  0  0
 15 42  1  0  0  0  0
 16 27  1  0  0  0  0
 16 17  1  0  0  0  0
 16 18  1  0  0  0  0
 18 19  1  0  0  0  0
 18 43  1  0  0  0  0
 18 44  1  0  0  0  0
 19 28  1  0  0  0  0
 19 20  1  0  0  0  0
 20 21  1  0  0  0  0
 20 22  2  0  0  0  0
 21 45  1  0  0  0  0
 21 46  1  0  0  0  0
 23 24  1  0  0  0  0
 24 25  2  0  0  0  0
 24 47  1  0  0  0  0
 25 26  1  0  0  0  0
M  END
> <s_m_source_file>
AV-unprocessed.smi

> <i_m_source_file_index>
196

> <i_lp_mmshare_version>
43012

> <i_f3d_flags>
0

> <s_epik_input>
W0NIMl0xW0NIMl1PW0NAQEhdKFtDSDNdKVtDQEBdMShbT0hdKVtDSDJdbihbY0hdbjIpYyhjMjMpbltjSF1uYzNONFtDSDJdW0NASF0oRilbQ0gyXVtDQEhdNEMoPU8pW05IMl0=

> <s_epik_cmdline>
J2VwaWtfcHl0aG9uJywgJy1waCcsICc3LjAnLCAnLXRuJywgJzgnLCAnLW1hJywgJzIwMCcsICctbWV0YWxfYmluZGluZycsICctaW1hZScsICc8aW5maWxlLm1hZT4nLCAnLW9tYWUnLCAnPG91dGZpbGUubWFlPic=

> <r_lp_tautomer_probability>
1

> <r_epik_Ionization_Penalty>
0.000857933

> <r_epik_Ionization_Penalty_Charging>
0

> <r_epik_Ionization_Penalty_Neutral>
0.000857933

> <r_epik_State_Penalty>
0.000462053

> <r_epik_Charging_Adjusted_Penalty>
0.000462053

> <i_epik_Tot_Q>
0

> <i_epik_Tot_abs_Q>
0

> <r_epik_Metal_State_Penalty>
-0

> <b_epik_Metal_Only>
0

> <s_lp_Force_Field>
OPLS_2005

> <r_lp_Energy>
45.3025

> <b_lp_Chiralities_Consistent>
1

> <s_lp_Variant>
AV-unprocessed.smi:196-5

> <Gold.Version>
5.8.1

> <Gold.Id.Protein>
6NUR|6NUR_protein|mol2

> <Gold.PLP.Fitness>
39.8526

> <Gold.PLP.PLP>
-31.5245

> <Gold.PLP.part.hbond>
-3.0000

> <Gold.PLP.part.metal>
0.0000

> <Gold.PLP.part.buried>
-0.0965

> <Gold.PLP.part.nonpolar>
-30.4994

> <Gold.PLP.part.repulsive>
0.9114

> <Gold.PLP.ligand.clash>
0.0000

> <Gold.PLP.ligand.torsion>
1.2614

> <Gold.PLP.Chemscore.Hbond>
2.0000

> <Gold.PLP.Chemscore.CHOScore>
1.5901

> <Gold.PLP.Chemscore.Metal>
0.0000

> <Gold.Chemscore.Hbonds>
donor molecule, donor type, donor heavy atom, donor atom, acceptor molecule, acceptor atom, score
      L1  H     7    37       P1 10171  0.71
      P1  H 10752 10764       L1    22  1.00
      L1  C    10    40       P1 10171  1.00
      L1  C    10    40       P1 10175  0.44

> <Gold.PLP.Chemscore.Internal.Correction>
0.0806

> <Gold.Rescore>
     Score         DG    S(hbond)    S(metal)    S(lipo)     H(rot)  DE(clash)    DE(int)     intcor
      8.48     -11.30       1.98        0.00      59.84       3.04       1.57       1.25       ----

> <Gold.Chemscore.Fitness>
8.4816

> <Gold.Chemscore.DG>
-11.2982

> <Gold.Chemscore.ZeroCoef>
-5.4800

> <Gold.Chemscore.Hbond>
1.9770

> <Gold.Chemscore.Metal>
0.0000

> <Gold.Chemscore.Lipo>
59.8353

> <Gold.Chemscore.Internal_Hbond>
0.0000

> <Gold.Chemscore.DEClash>
1.5703

> <Gold.Chemscore.DEInternal>
1.2463

> <Gold.Chemscore.Rot>
3.0413

> <Gold.Chemscore.Internal.Correction>
   9.000000E+99

> <Gold.Chemscore.Hbonds>
donor molecule, donor type, donor heavy atom, donor atom, acceptor molecule, acceptor atom, score
      L1  H     7    37       P1 10171  0.71
      P1  H 10752 10764       L1    22  0.91

> <Gold.Chemscore.Hbond.Weighted>
-6.6031

> <Gold.Chemscore.Metal.Weighted>
-0.0000

> <Gold.Chemscore.Lipo.Weighted>
-7.0007

> <Gold.Chemscore.Internal_Hbond.Weighted>
0.0000

> <Gold.Chemscore.DEClash.Weighted>
1.5703

> <Gold.Chemscore.DEInternal.Weighted>
1.2463

> <Gold.Chemscore.Rot.Weighted>
7.7856

> <Gold.Chemscore.Internal.Correction.Weighted>
   9.000000E+99

> <Gold.Protein.RotatedTorsions>
[ 6907 6896 6895 6894 ] final -177.22 input  -60.11 | X-H torsion
[ 7974 7965 7964 7962 ] final  -11.18 input  175.53 | X-H torsion
[ 8008 7997 7996 7995 ] final   37.64 input   59.86 | X-H torsion
[ 10167 10162 10161 10158 ] final   55.46 input  -65.29 | X-H torsion
[ 10718 10713 10712 10709 ] final  112.28 input   66.30 | X-H torsion
[ 10763 10752 10751 10750 ] final  -64.01 input  -60.55 | X-H torsion
[ 11005 11000 10999 10996 ] final   27.20 input  -57.11 | X-H torsion

> <Gold.Protein.ActiveResidues>
 VAL166  LYS551  ARG553  GLY616  TRP617  ASP618  TYR619  PRO620  LYS621  CYS622 
 ASP623  PHE694  ASN695  SER759  ASP760  ASP761  ALA762  ILE779  LEU786  VAL792 
 PHE793  MET794  SER795  GLU796  ALA797  LYS798  CYS799  TRP800  GLU811  SER814 

> <Gold.Protein.RotatedAtoms>
  151.6174  133.3342  159.3080 H   0  0  0  0  0  0  0  0  0  0  0  0  # atno 6907 bound_to 6896
  150.8124  134.7290  159.6711 H   0  0  0  0  0  0  0  0  0  0  0  0  # atno 6908 bound_to 6896
  152.4220  134.5942  160.0034 H   0  0  0  0  0  0  0  0  0  0  0  0  # atno 6909 bound_to 6896
  146.2196  140.2874  142.8366 H   0  0  0  0  0  0  0  0  0  0  0  0  # atno 7974 bound_to 7965
  155.2070  140.3320  155.4334 H   0  0  0  0  0  0  0  0  0  0  0  0  # atno 8008 bound_to 7997
  156.2385  140.1884  156.7103 H   0  0  0  0  0  0  0  0  0  0  0  0  # atno 8009 bound_to 7997
  154.6103  140.0610  156.9471 H   0  0  0  0  0  0  0  0  0  0  0  0  # atno 8010 bound_to 7997
  140.2192  144.3807  150.6457 H   0  0  0  0  0  0  0  0  0  0  0  0  # atno 10167 bound_to 10162
  157.6401  131.0965  150.6871 H   0  0  0  0  0  0  0  0  0  0  0  0  # atno 10718 bound_to 10713
  154.3237  135.6191  153.5519 H   0  0  0  0  0  0  0  0  0  0  0  0  # atno 10763 bound_to 10752
  152.9817  135.5730  154.5040 H   0  0  0  0  0  0  0  0  0  0  0  0  # atno 10764 bound_to 10752
  154.4713  135.2859  155.1617 H   0  0  0  0  0  0  0  0  0  0  0  0  # atno 10765 bound_to 10752
  140.3288  134.2461  155.7705 H   0  0  0  0  0  0  0  0  0  0  0  0  # atno 11005 bound_to 11000
  144.9152  140.7804  143.5782 LP  0  0  0  0  0  0  0  0  0  0  0  0  # atno 17320 bound_to 7965
  145.2807  139.1919  143.4792 LP  0  0  0  0  0  0  0  0  0  0  0  0  # atno 17321 bound_to 7965
  140.6267  143.2182  151.6581 LP  0  0  0  0  0  0  0  0  0  0  0  0  # atno 17342 bound_to 10162
  139.5150  144.3391  152.0757 LP  0  0  0  0  0  0  0  0  0  0  0  0  # atno 17343 bound_to 10162
  156.7197  130.4677  149.5526 LP  0  0  0  0  0  0  0  0  0  0  0  0  # atno 17370 bound_to 10713
  156.1674  130.6414  151.0795 LP  0  0  0  0  0  0  0  0  0  0  0  0  # atno 17371 bound_to 10713
  141.2068  133.7822  157.0153 LP  0  0  0  0  0  0  0  0  0  0  0  0  # atno 17394 bound_to 11000
  140.0878  134.9610  157.1728 LP  0  0  0  0  0  0  0  0  0  0  0  0  # atno 17395 bound_to 11000

$$$$
