AV-unprocessed.smi:2306|AV-procd|sdf|9248|dock6
  -GOLD-   2272012463D 1   1.00000     0.00000
 Structure written by MMmdl.
 41 42  0  0  0  0  0  0  0  0  1 V2000
  147.4826  136.9628  155.4819 C   0  0  0  0  0  0  0  0  0  0  0  0
  148.9765  137.1606  155.2961 C   0  0  0  0  0  0  0  0  0  0  0  0
  149.3519  138.3232  154.6163 N   0  0  0  0  0  0  0  0  0  0  0  0
  150.6028  138.5686  154.4005 C   0  0  0  0  0  0  0  0  0  0  0  0
  151.6109  137.6924  154.8330 N   0  0  0  0  0  0  0  0  0  0  0  0
  152.9942  138.0867  154.5232 C   0  0  0  0  0  0  0  0  0  0  0  0
  153.6055  138.9730  155.6332 C   0  0  2  0  0  0  0  0  0  0  0  0
  155.0141  138.9413  155.5202 O   0  0  0  0  0  0  0  0  0  0  0  0
  153.2473  138.4723  157.0404 C   0  0  0  0  0  0  0  0  0  0  0  0
  153.2980  139.5727  157.9326 O   0  0  0  0  0  0  0  0  0  0  0  0
  152.1278  140.3726  157.9031 C   0  0  0  0  0  0  0  0  0  0  0  0
  152.2964  141.6643  158.6823 C   0  0  0  0  0  0  0  0  0  0  0  0
  152.8054  141.6511  159.9995 C   0  0  0  0  0  0  0  0  0  0  0  0
  152.9432  142.8549  160.7180 C   0  0  0  0  0  0  0  0  0  0  0  0
  152.5668  144.0762  160.1266 C   0  0  0  0  0  0  0  0  0  0  0  0
  152.0499  144.0931  158.8169 C   0  0  0  0  0  0  0  0  0  0  0  0
  151.9125  142.8897  158.0976 C   0  0  0  0  0  0  0  0  0  0  0  0
  151.3341  136.5467  155.5211 C   0  0  0  0  0  0  0  0  0  0  0  0
  152.2292  135.7985  155.9195 O   0  0  0  0  0  0  0  0  0  0  0  0
  149.9058  136.2763  155.7515 C   0  0  0  0  0  0  0  0  0  0  0  0
  149.5559  134.9926  156.4939 C   0  0  0  0  0  0  0  0  0  0  0  0
  147.2314  136.9262  156.5422 H   0  0  0  0  0  0  0  0  0  0  0  0
  147.1592  136.0329  155.0137 H   0  0  0  0  0  0  0  0  0  0  0  0
  146.9143  137.7782  155.0322 H   0  0  0  0  0  0  0  0  0  0  0  0
  150.9488  139.4624  153.8784 H   0  0  0  0  0  0  0  0  0  0  0  0
  153.5866  137.1771  154.4081 H   0  0  0  0  0  0  0  0  0  0  0  0
  153.0776  138.5720  153.5481 H   0  0  0  0  0  0  0  0  0  0  0  0
  153.2770  140.0091  155.5388 H   0  0  0  0  0  0  0  0  0  0  0  0
  155.2447  139.0179  154.6070 H   0  0  0  0  0  0  0  0  0  0  0  0
  152.2564  138.0152  157.0477 H   0  0  0  0  0  0  0  0  0  0  0  0
  153.9632  137.7145  157.3639 H   0  0  0  0  0  0  0  0  0  0  0  0
  151.8745  140.6103  156.8685 H   0  0  0  0  0  0  0  0  0  0  0  0
  151.2880  139.8206  158.3275 H   0  0  0  0  0  0  0  0  0  0  0  0
  153.0932  140.7205  160.4666 H   0  0  0  0  0  0  0  0  0  0  0  0
  153.3360  142.8403  161.7240 H   0  0  0  0  0  0  0  0  0  0  0  0
  152.6718  144.9987  160.6785 H   0  0  0  0  0  0  0  0  0  0  0  0
  151.7576  145.0292  158.3643 H   0  0  0  0  0  0  0  0  0  0  0  0
  151.5119  142.9104  157.0946 H   0  0  0  0  0  0  0  0  0  0  0  0
  149.8947  134.1268  155.9241 H   0  0  0  0  0  0  0  0  0  0  0  0
  148.4878  134.8740  156.6677 H   0  0  0  0  0  0  0  0  0  0  0  0
  150.0493  134.9723  157.4661 H   0  0  0  0  0  0  0  0  0  0  0  0
  1  2  1  0  0  0  0
  1 22  1  0  0  0  0
  1 23  1  0  0  0  0
  1 24  1  0  0  0  0
  2 20  2  0  0  0  0
  2  3  1  0  0  0  0
  3  4  2  0  0  0  0
  4  5  1  0  0  0  0
  4 25  1  0  0  0  0
  5  6  1  0  0  0  0
  5 18  1  0  0  0  0
  6  7  1  0  0  0  0
  6 26  1  0  0  0  0
  6 27  1  0  0  0  0
  7  8  1  0  0  0  0
  7  9  1  0  0  0  0
  7 28  1  0  0  0  0
  8 29  1  0  0  0  0
  9 10  1  0  0  0  0
  9 30  1  0  0  0  0
  9 31  1  0  0  0  0
 10 11  1  0  0  0  0
 11 12  1  0  0  0  0
 11 32  1  0  0  0  0
 11 33  1  0  0  0  0
 12 17  1  0  0  0  0
 12 13  2  0  0  0  0
 13 14  1  0  0  0  0
 13 34  1  0  0  0  0
 14 15  2  0  0  0  0
 14 35  1  0  0  0  0
 15 16  1  0  0  0  0
 15 36  1  0  0  0  0
 16 17  2  0  0  0  0
 16 37  1  0  0  0  0
 17 38  1  0  0  0  0
 18 19  2  0  0  0  0
 18 20  1  0  0  0  0
 20 21  1  0  0  0  0
 21 39  1  0  0  0  0
 21 40  1  0  0  0  0
 21 41  1  0  0  0  0
M  END
> <s_m_source_file>
AV-unprocessed.smi

> <i_m_source_file_index>
2306

> <i_lp_mmshare_version>
43012

> <i_f3d_flags>
0

> <s_epik_input>
W0NIM11jMW5bY0hdbihjKD1PKWMxW0NIM10pW0NIMl1bQ0BIXShbT0hdKVtDSDJdT1tDSDJdYzJbY0hdW2NIXVtjSF1bY0hdW2NIXTI=

> <s_epik_cmdline>
J2VwaWtfcHl0aG9uJywgJy1waCcsICc3LjAnLCAnLXRuJywgJzgnLCAnLW1hJywgJzIwMCcsICctbWV0YWxfYmluZGluZycsICctaW1hZScsICc8aW5maWxlLm1hZT4nLCAnLW9tYWUnLCAnPG91dGZpbGUubWFlPic=

> <r_lp_tautomer_probability>
1

> <r_epik_Ionization_Penalty>
5.35985e-05

> <r_epik_Ionization_Penalty_Charging>
1.17753e-07

> <r_epik_Ionization_Penalty_Neutral>
5.34808e-05

> <r_epik_State_Penalty>
-0

> <r_epik_Charging_Adjusted_Penalty>
1.17753e-07

> <i_epik_Tot_Q>
0

> <i_epik_Tot_abs_Q>
0

> <r_epik_Metal_State_Penalty>
-0

> <b_epik_Metal_Only>
0

> <s_lp_Force_Field>
OPLS_2005

> <r_lp_Energy>
22.2439

> <b_lp_Chiralities_Consistent>
1

> <s_lp_Variant>
AV-unprocessed.smi:2306-1

> <Gold.Version>
5.8.1

> <Gold.Id.Protein>
6NUR|6NUR_protein|mol2

> <Gold.PLP.Fitness>
48.4284

> <Gold.PLP.PLP>
-40.0257

> <Gold.PLP.part.hbond>
-3.0000

> <Gold.PLP.part.metal>
0.0000

> <Gold.PLP.part.buried>
-5.1100

> <Gold.PLP.part.nonpolar>
-31.2176

> <Gold.PLP.part.repulsive>
0.2233

> <Gold.PLP.ligand.clash>
0.0000

> <Gold.PLP.ligand.torsion>
1.0758

> <Gold.PLP.Chemscore.Hbond>
2.4720

> <Gold.PLP.Chemscore.CHOScore>
1.0000

> <Gold.PLP.Chemscore.Metal>
0.0000

> <Gold.Chemscore.Hbonds>
donor molecule, donor type, donor heavy atom, donor atom, acceptor molecule, acceptor atom, score
      P1  H  7997  8008       L1    10  0.20
      P1  H 10752 10765       L1    19  0.42

> <Gold.PLP.Chemscore.Internal.Correction>
0.1382

> <Gold.Rescore>
     Score         DG    S(hbond)    S(metal)    S(lipo)     H(rot)  DE(clash)    DE(int)     intcor
     16.27     -17.64       1.89        0.00     104.95       2.52       0.22       1.16       ----

> <Gold.Chemscore.Fitness>
16.2719

> <Gold.Chemscore.DG>
-17.6431

> <Gold.Chemscore.ZeroCoef>
-5.4800

> <Gold.Chemscore.Hbond>
1.8940

> <Gold.Chemscore.Metal>
0.0000

> <Gold.Chemscore.Lipo>
104.9456

> <Gold.Chemscore.Internal_Hbond>
0.0000

> <Gold.Chemscore.DEClash>
0.2159

> <Gold.Chemscore.DEInternal>
1.1554

> <Gold.Chemscore.Rot>
2.5162

> <Gold.Chemscore.Internal.Correction>
   9.000000E+99

> <Gold.Chemscore.Hbonds>
donor molecule, donor type, donor heavy atom, donor atom, acceptor molecule, acceptor atom, score
      P1  H 10752 10765       L1    19  0.42

> <Gold.Chemscore.Hbond.Weighted>
-6.3259

> <Gold.Chemscore.Metal.Weighted>
-0.0000

> <Gold.Chemscore.Lipo.Weighted>
-12.2786

> <Gold.Chemscore.Internal_Hbond.Weighted>
0.0000

> <Gold.Chemscore.DEClash.Weighted>
0.2159

> <Gold.Chemscore.DEInternal.Weighted>
1.1554

> <Gold.Chemscore.Rot.Weighted>
6.4414

> <Gold.Chemscore.Internal.Correction.Weighted>
   9.000000E+99

> <Gold.Protein.RotatedTorsions>
[ 6907 6896 6895 6894 ] final   83.12 input  -60.11 | X-H torsion
[ 7974 7965 7964 7962 ] final -131.30 input  175.53 | X-H torsion
[ 8008 7997 7996 7995 ] final  -85.04 input   59.86 | X-H torsion
[ 10167 10162 10161 10158 ] final    3.59 input  -65.29 | X-H torsion
[ 10718 10713 10712 10709 ] final  -66.67 input   66.30 | X-H torsion
[ 10763 10752 10751 10750 ] final -146.96 input  -60.55 | X-H torsion
[ 11005 11000 10999 10996 ] final  -98.53 input  -57.11 | X-H torsion

> <Gold.Protein.ActiveResidues>
 VAL166  LYS551  ARG553  GLY616  TRP617  ASP618  TYR619  PRO620  LYS621  CYS622 
 ASP623  PHE694  ASN695  SER759  ASP760  ASP761  ALA762  ILE779  LEU786  VAL792 
 PHE793  MET794  SER795  GLU796  ALA797  LYS798  CYS799  TRP800  GLU811  SER814 

> <Gold.Protein.RotatedAtoms>
  152.5318  134.2944  159.9054 H   0  0  0  0  0  0  0  0  0  0  0  0  # atno 6907 bound_to 6896
  151.2896  133.4165  159.2640 H   0  0  0  0  0  0  0  0  0  0  0  0  # atno 6908 bound_to 6896
  151.0212  134.9486  159.8117 H   0  0  0  0  0  0  0  0  0  0  0  0  # atno 6909 bound_to 6896
  144.9392  140.7219  143.4857 H   0  0  0  0  0  0  0  0  0  0  0  0  # atno 7974 bound_to 7965
  154.6363  140.0597  156.9793 H   0  0  0  0  0  0  0  0  0  0  0  0  # atno 8008 bound_to 7997
  155.1586  140.3280  155.4397 H   0  0  0  0  0  0  0  0  0  0  0  0  # atno 8009 bound_to 7997
  156.2509  140.1935  156.6694 H   0  0  0  0  0  0  0  0  0  0  0  0  # atno 8010 bound_to 7997
  140.6578  143.7383  150.7684 H   0  0  0  0  0  0  0  0  0  0  0  0  # atno 10167 bound_to 10162
  156.0600  130.4265  150.1742 H   0  0  0  0  0  0  0  0  0  0  0  0  # atno 10718 bound_to 10713
  154.8310  135.3373  154.6743 H   0  0  0  0  0  0  0  0  0  0  0  0  # atno 10763 bound_to 10752
  153.7363  135.6949  153.4982 H   0  0  0  0  0  0  0  0  0  0  0  0  # atno 10764 bound_to 10752
  153.2276  135.4427  155.0510 H   0  0  0  0  0  0  0  0  0  0  0  0  # atno 10765 bound_to 10752
  141.1341  133.8252  157.0851 H   0  0  0  0  0  0  0  0  0  0  0  0  # atno 11005 bound_to 11000
  145.3018  139.1848  143.4685 LP  0  0  0  0  0  0  0  0  0  0  0  0  # atno 17320 bound_to 7965
  146.3279  140.3010  142.8621 LP  0  0  0  0  0  0  0  0  0  0  0  0  # atno 17321 bound_to 7965
  140.1046  143.4756  152.2406 LP  0  0  0  0  0  0  0  0  0  0  0  0  # atno 17342 bound_to 10162
  139.5804  144.7508  151.3654 LP  0  0  0  0  0  0  0  0  0  0  0  0  # atno 17343 bound_to 10162
  156.9812  130.9865  151.3437 LP  0  0  0  0  0  0  0  0  0  0  0  0  # atno 17370 bound_to 10713
  157.5600  130.8239  149.8254 LP  0  0  0  0  0  0  0  0  0  0  0  0  # atno 17371 bound_to 10713
  140.0427  134.9846  157.0991 LP  0  0  0  0  0  0  0  0  0  0  0  0  # atno 17394 bound_to 11000
  140.4111  134.1981  155.7163 LP  0  0  0  0  0  0  0  0  0  0  0  0  # atno 17395 bound_to 11000

$$$$
