AV-unprocessed.smi:694|AV-procd|sdf|3382|dock9
  -GOLD-   22720 0363D 1   1.00000     0.00000
 Structure written by MMmdl.
 42 43  0  0  0  0  0  0  0  0  1 V2000
  146.2127  137.7931  160.4263 C   0  0  0  0  0  0  0  0  0  0  0  0
  145.4200  138.7822  159.7027 N   0  0  0  0  0  0  0  0  0  0  0  0
  144.7243  139.8336  160.4344 C   0  0  0  0  0  0  0  0  0  0  0  0
  145.3181  138.7068  158.2948 C   0  0  0  0  0  0  0  0  0  0  0  0
  146.0300  137.7330  157.5517 C   0  0  0  0  0  0  0  0  0  0  0  0
  145.8953  137.7039  156.1505 C   0  0  0  0  0  0  0  0  0  0  0  0
  145.0608  138.6434  155.5152 C   0  0  0  0  0  0  0  0  0  0  0  0
  144.9355  138.5718  154.1004 N   0  0  0  0  0  0  0  0  0  0  0  0
  145.4143  137.6412  153.2564 C   0  0  0  0  0  0  0  0  0  0  0  0
  146.0291  136.6271  153.5847 O   0  0  0  0  0  0  0  0  0  0  0  0
  145.1201  137.9444  151.9842 N   0  0  0  0  0  0  0  0  0  0  0  0
  145.4962  137.1421  150.8242 C   0  0  0  0  0  0  0  0  0  0  0  0
  145.1470  135.6490  151.0044 C   0  0  2  0  0  0  0  0  0  0  0  0
  146.2970  134.7953  151.5507 C   0  0  0  0  0  0  0  0  0  0  0  0
  145.9693  133.3490  151.1492 C   0  0  0  0  0  0  0  0  0  0  0  0
  144.8083  133.4238  150.1446 C   0  0  0  0  0  0  0  0  0  0  0  0
  144.6892  134.8981  149.7437 C   0  0  2  0  0  0  0  0  0  0  0  0
  145.5518  135.1472  148.6490 O   0  0  0  0  0  0  0  0  0  0  0  0
  144.3797  139.5714  156.3380 C   0  0  0  0  0  0  0  0  0  0  0  0
  144.5076  139.6031  157.6811 N   0  0  0  0  0  0  0  0  0  0  0  0
  147.2528  137.8226  160.0999 H   0  0  0  0  0  0  0  0  0  0  0  0
  145.8233  136.7894  160.2516 H   0  0  0  0  0  0  0  0  0  0  0  0
  146.1948  137.9752  161.5009 H   0  0  0  0  0  0  0  0  0  0  0  0
  143.6474  139.7602  160.2807 H   0  0  0  0  0  0  0  0  0  0  0  0
  145.0593  140.8171  160.1037 H   0  0  0  0  0  0  0  0  0  0  0  0
  144.9123  139.7630  161.5057 H   0  0  0  0  0  0  0  0  0  0  0  0
  146.6751  137.0093  158.0263 H   0  0  0  0  0  0  0  0  0  0  0  0
  146.4318  136.9662  155.5721 H   0  0  0  0  0  0  0  0  0  0  0  0
  144.3879  139.3084  153.6805 H   0  0  0  0  0  0  0  0  0  0  0  0
  144.6087  138.7957  151.8032 H   0  0  0  0  0  0  0  0  0  0  0  0
  144.9876  137.5501  149.9505 H   0  0  0  0  0  0  0  0  0  0  0  0
  146.5644  137.2553  150.6311 H   0  0  0  0  0  0  0  0  0  0  0  0
  144.3336  135.5786  151.7288 H   0  0  0  0  0  0  0  0  0  0  0  0
  147.2380  135.0952  151.0876 H   0  0  0  0  0  0  0  0  0  0  0  0
  146.4140  134.9084  152.6290 H   0  0  0  0  0  0  0  0  0  0  0  0
  146.8432  132.8745  150.7016 H   0  0  0  0  0  0  0  0  0  0  0  0
  145.6854  132.7531  152.0172 H   0  0  0  0  0  0  0  0  0  0  0  0
  144.9468  132.7586  149.2913 H   0  0  0  0  0  0  0  0  0  0  0  0
  143.8884  133.1157  150.6434 H   0  0  0  0  0  0  0  0  0  0  0  0
  143.6699  135.1599  149.4573 H   0  0  0  0  0  0  0  0  0  0  0  0
  145.2415  135.9128  148.1905 H   0  0  0  0  0  0  0  0  0  0  0  0
  143.6967  140.3042  155.9392 H   0  0  0  0  0  0  0  0  0  0  0  0
  1  2  1  0  0  0  0
  1 21  1  0  0  0  0
  1 22  1  0  0  0  0
  1 23  1  0  0  0  0
  2  3  1  0  0  0  0
  2  4  1  0  0  0  0
  3 24  1  0  0  0  0
  3 25  1  0  0  0  0
  3 26  1  0  0  0  0
  4 20  1  0  0  0  0
  4  5  2  0  0  0  0
  5  6  1  0  0  0  0
  5 27  1  0  0  0  0
  6  7  2  0  0  0  0
  6 28  1  0  0  0  0
  7  8  1  0  0  0  0
  7 19  1  0  0  0  0
  8  9  1  0  0  0  0
  8 29  1  0  0  0  0
  9 10  2  0  0  0  0
  9 11  1  0  0  0  0
 11 12  1  0  0  0  0
 11 30  1  0  0  0  0
 12 13  1  0  0  0  0
 12 31  1  0  0  0  0
 12 32  1  0  0  0  0
 13 17  1  0  0  0  0
 13 14  1  0  0  0  0
 13 33  1  0  0  0  0
 14 15  1  0  0  0  0
 14 34  1  0  0  0  0
 14 35  1  0  0  0  0
 15 16  1  0  0  0  0
 15 36  1  0  0  0  0
 15 37  1  0  0  0  0
 16 17  1  0  0  0  0
 16 38  1  0  0  0  0
 16 39  1  0  0  0  0
 17 18  1  0  0  0  0
 17 40  1  0  0  0  0
 18 41  1  0  0  0  0
 19 20  2  0  0  0  0
 19 42  1  0  0  0  0
M  END
> <s_m_source_file>
AV-unprocessed.smi

> <i_m_source_file_index>
694

> <i_lp_mmshare_version>
43012

> <i_f3d_flags>
0

> <s_epik_input>
W0NIM11OKFtDSDNdKWMxW2NIXVtjSF1jKFtjSF1uMSlbTkhdQyg9TylbTkhdW0NIMl1bQ0BASF0yW0NIMl1bQ0gyXVtDSDJdW0NASF0yW09IXQ==

> <s_epik_cmdline>
J2VwaWtfcHl0aG9uJywgJy1waCcsICc3LjAnLCAnLXRuJywgJzgnLCAnLW1hJywgJzIwMCcsICctbWV0YWxfYmluZGluZycsICctaW1hZScsICc8aW5maWxlLm1hZT4nLCAnLW9tYWUnLCAnPG91dGZpbGUubWFlPic=

> <r_lp_tautomer_probability>
1

> <r_epik_Ionization_Penalty>
0.60335

> <r_epik_Ionization_Penalty_Charging>
0

> <r_epik_Ionization_Penalty_Neutral>
0.60335

> <r_epik_State_Penalty>
0.616805

> <r_epik_Charging_Adjusted_Penalty>
0.616805

> <i_epik_Tot_Q>
0

> <i_epik_Tot_abs_Q>
0

> <r_epik_Metal_State_Penalty>
0.301709

> <b_epik_Metal_Only>
0

> <s_lp_Force_Field>
OPLS_2005

> <r_lp_Energy>
30.3621

> <b_lp_Chiralities_Consistent>
1

> <s_lp_Variant>
AV-unprocessed.smi:694-7

> <Gold.Version>
5.8.1

> <Gold.Id.Protein>
6NUR|6NUR_protein|mol2

> <Gold.PLP.Fitness>
45.6045

> <Gold.PLP.PLP>
-36.8298

> <Gold.PLP.part.hbond>
-4.5420

> <Gold.PLP.part.metal>
0.0000

> <Gold.PLP.part.buried>
-2.3632

> <Gold.PLP.part.nonpolar>
-29.3213

> <Gold.PLP.part.repulsive>
0.2792

> <Gold.PLP.ligand.clash>
0.0000

> <Gold.PLP.ligand.torsion>
0.5437

> <Gold.PLP.Chemscore.Hbond>
2.6716

> <Gold.PLP.Chemscore.CHOScore>
0.6106

> <Gold.PLP.Chemscore.Metal>
0.0000

> <Gold.Chemscore.Hbonds>
donor molecule, donor type, donor heavy atom, donor atom, acceptor molecule, acceptor atom, score
      L1  H     8    29       P1 10175  1.00
      L1  H    11    30       P1 10175  1.00

> <Gold.PLP.Chemscore.Internal.Correction>
0.0154

> <Gold.Rescore>
     Score         DG    S(hbond)    S(metal)    S(lipo)     H(rot)  DE(clash)    DE(int)     intcor
     13.71     -18.48       2.83        0.00      68.12       1.73       0.05       4.71       ----

> <Gold.Chemscore.Fitness>
13.7133

> <Gold.Chemscore.DG>
-18.4784

> <Gold.Chemscore.ZeroCoef>
-5.4800

> <Gold.Chemscore.Hbond>
2.8282

> <Gold.Chemscore.Metal>
0.0000

> <Gold.Chemscore.Lipo>
68.1237

> <Gold.Chemscore.Internal_Hbond>
0.0000

> <Gold.Chemscore.DEClash>
0.0515

> <Gold.Chemscore.DEInternal>
4.7136

> <Gold.Chemscore.Rot>
1.7259

> <Gold.Chemscore.Internal.Correction>
   9.000000E+99

> <Gold.Chemscore.Hbonds>
donor molecule, donor type, donor heavy atom, donor atom, acceptor molecule, acceptor atom, score
      L1  H     8    29       P1 10175  1.00
      L1  H    11    30       P1 10175  0.92

> <Gold.Chemscore.Hbond.Weighted>
-9.4463

> <Gold.Chemscore.Metal.Weighted>
-0.0000

> <Gold.Chemscore.Lipo.Weighted>
-7.9705

> <Gold.Chemscore.Internal_Hbond.Weighted>
0.0000

> <Gold.Chemscore.DEClash.Weighted>
0.0515

> <Gold.Chemscore.DEInternal.Weighted>
4.7136

> <Gold.Chemscore.Rot.Weighted>
4.4184

> <Gold.Chemscore.Internal.Correction.Weighted>
   9.000000E+99

> <Gold.Protein.RotatedTorsions>
[ 6907 6896 6895 6894 ] final  -95.66 input  -60.11 | X-H torsion
[ 7974 7965 7964 7962 ] final -150.22 input  175.53 | X-H torsion
[ 8008 7997 7996 7995 ] final  -64.49 input   59.86 | X-H torsion
[ 10167 10162 10161 10158 ] final  -72.51 input  -65.29 | X-H torsion
[ 10718 10713 10712 10709 ] final   18.29 input   66.30 | X-H torsion
[ 10763 10752 10751 10750 ] final -148.30 input  -60.55 | X-H torsion
[ 11005 11000 10999 10996 ] final  144.90 input  -57.11 | X-H torsion

> <Gold.Protein.ActiveResidues>
 VAL166  LYS551  ARG553  GLY616  TRP617  ASP618  TYR619  PRO620  LYS621  CYS622 
 ASP623  PHE694  ASN695  SER759  ASP760  ASP761  ALA762  ILE779  LEU786  VAL792 
 PHE793  MET794  SER795  GLU796  ALA797  LYS798  CYS799  TRP800  GLU811  SER814 

> <Gold.Protein.RotatedAtoms>
  150.6969  134.1624  159.4180 H   0  0  0  0  0  0  0  0  0  0  0  0  # atno 6907 bound_to 6896
  151.9604  135.0124  160.0556 H   0  0  0  0  0  0  0  0  0  0  0  0  # atno 6908 bound_to 6896
  152.1932  133.4753  159.5056 H   0  0  0  0  0  0  0  0  0  0  0  0  # atno 6909 bound_to 6896
  144.7921  140.4961  143.5766 H   0  0  0  0  0  0  0  0  0  0  0  0  # atno 7974 bound_to 7965
  154.4615  140.0953  156.6905 H   0  0  0  0  0  0  0  0  0  0  0  0  # atno 8008 bound_to 7997
  155.4981  140.3473  155.4348 H   0  0  0  0  0  0  0  0  0  0  0  0  # atno 8009 bound_to 7997
  156.0878  140.1389  156.9619 H   0  0  0  0  0  0  0  0  0  0  0  0  # atno 8010 bound_to 7997
  140.5186  143.2334  151.7470 H   0  0  0  0  0  0  0  0  0  0  0  0  # atno 10167 bound_to 10162
  157.0943  130.6441  149.5856 H   0  0  0  0  0  0  0  0  0  0  0  0  # atno 10718 bound_to 10713
  154.8240  135.3338  154.6952 H   0  0  0  0  0  0  0  0  0  0  0  0  # atno 10763 bound_to 10752
  153.7581  135.6934  153.4936 H   0  0  0  0  0  0  0  0  0  0  0  0  # atno 10764 bound_to 10752
  153.2129  135.4476  155.0351 H   0  0  0  0  0  0  0  0  0  0  0  0  # atno 10765 bound_to 10752
  140.0669  134.9174  157.1279 H   0  0  0  0  0  0  0  0  0  0  0  0  # atno 11005 bound_to 11000
  145.5768  139.1486  143.3257 LP  0  0  0  0  0  0  0  0  0  0  0  0  # atno 17320 bound_to 7965
  146.2176  140.5900  142.9031 LP  0  0  0  0  0  0  0  0  0  0  0  0  # atno 17321 bound_to 7965
  139.4916  144.4288  151.9896 LP  0  0  0  0  0  0  0  0  0  0  0  0  # atno 17342 bound_to 10162
  140.3383  144.3234  150.5972 LP  0  0  0  0  0  0  0  0  0  0  0  0  # atno 17343 bound_to 10162
  155.9890  130.4935  150.7194 LP  0  0  0  0  0  0  0  0  0  0  0  0  # atno 17370 bound_to 10713
  157.4695  131.0891  151.0658 LP  0  0  0  0  0  0  0  0  0  0  0  0  # atno 17371 bound_to 10713
  140.3686  134.2415  155.7180 LP  0  0  0  0  0  0  0  0  0  0  0  0  # atno 17394 bound_to 11000
  141.1996  133.8007  157.0528 LP  0  0  0  0  0  0  0  0  0  0  0  0  # atno 17395 bound_to 11000

$$$$
