AV-unprocessed.smi:1895|AV-procd|sdf|7681|dock3
  -GOLD-   22720 9423D 1   1.00000     0.00000
 Structure written by MMmdl.
 36 37  0  0  0  0  0  0  0  0  1 V2000
  154.3168  140.5387  161.4316 C   0  0  0  0  0  0  0  0  0  0  0  0
  153.5206  141.7368  161.0062 C   0  0  0  0  0  0  0  0  0  0  0  0
  153.0047  142.7855  161.8181 C   0  0  0  0  0  0  0  0  0  0  0  0
  152.3635  143.6099  160.9370 C   0  0  0  0  0  0  0  0  0  0  0  0
  151.6179  144.8818  161.1746 C   0  0  0  0  0  0  0  0  0  0  0  0
  152.5136  143.0494  159.6805 N   0  0  0  0  0  0  0  0  0  0  0  0
  152.0235  143.5287  158.3952 C   0  0  0  0  0  0  0  0  0  0  0  0
  150.9554  142.6156  157.7792 C   0  0  0  0  0  0  0  0  0  0  0  0
  149.8143  142.5634  158.2409 O   0  0  0  0  0  0  0  0  0  0  0  0
  151.3490  141.8978  156.7164 N   0  0  0  0  0  0  0  0  0  0  0  0
  150.5110  140.9635  155.9738 C   0  0  0  0  0  0  0  0  0  0  0  0
  151.1975  139.5987  155.8022 C   0  0  1  0  0  0  0  0  0  0  0  0
  150.6215  138.7599  154.6653 C   0  0  0  0  0  0  0  0  0  0  0  0
  151.7564  137.7972  154.3964 C   0  0  0  0  0  0  0  0  0  0  0  0
  152.9926  138.6634  154.6393 C   0  0  0  0  0  0  0  0  0  0  0  0
  152.5646  139.7623  155.4415 O   0  0  0  0  0  0  0  0  0  0  0  0
  153.2242  141.9012  159.7275 N   0  0  0  0  0  0  0  0  0  0  0  0
  154.4742  140.5332  162.5102 H   0  0  0  0  0  0  0  0  0  0  0  0
  155.2966  140.5281  160.9536 H   0  0  0  0  0  0  0  0  0  0  0  0
  153.8049  139.6133  161.1666 H   0  0  0  0  0  0  0  0  0  0  0  0
  153.0913  142.9118  162.8869 H   0  0  0  0  0  0  0  0  0  0  0  0
  151.5985  145.1289  162.2360 H   0  0  0  0  0  0  0  0  0  0  0  0
  150.5865  144.7977  160.8318 H   0  0  0  0  0  0  0  0  0  0  0  0
  152.0858  145.7122  160.6457 H   0  0  0  0  0  0  0  0  0  0  0  0
  151.6106  144.5293  158.5259 H   0  0  0  0  0  0  0  0  0  0  0  0
  152.8650  143.6212  157.7065 H   0  0  0  0  0  0  0  0  0  0  0  0
  152.3043  141.9966  156.4048 H   0  0  0  0  0  0  0  0  0  0  0  0
  149.5516  140.8436  156.4799 H   0  0  0  0  0  0  0  0  0  0  0  0
  150.2930  141.3984  154.9980 H   0  0  0  0  0  0  0  0  0  0  0  0
  151.1518  139.0237  156.7289 H   0  0  0  0  0  0  0  0  0  0  0  0
  149.6905  138.2599  154.9339 H   0  0  0  0  0  0  0  0  0  0  0  0
  150.4388  139.3777  153.7848 H   0  0  0  0  0  0  0  0  0  0  0  0
  151.7266  136.9797  155.1179 H   0  0  0  0  0  0  0  0  0  0  0  0
  151.7264  137.3680  153.3944 H   0  0  0  0  0  0  0  0  0  0  0  0
  153.7862  138.1030  155.1346 H   0  0  0  0  0  0  0  0  0  0  0  0
  153.3882  139.0515  153.7001 H   0  0  0  0  0  0  0  0  0  0  0  0
  1  2  1  0  0  0  0
  1 18  1  0  0  0  0
  1 19  1  0  0  0  0
  1 20  1  0  0  0  0
  2 17  2  0  0  0  0
  2  3  1  0  0  0  0
  3  4  2  0  0  0  0
  3 21  1  0  0  0  0
  4  5  1  0  0  0  0
  4  6  1  0  0  0  0
  5 22  1  0  0  0  0
  5 23  1  0  0  0  0
  5 24  1  0  0  0  0
  6  7  1  0  0  0  0
  6 17  1  0  0  0  0
  7  8  1  0  0  0  0
  7 25  1  0  0  0  0
  7 26  1  0  0  0  0
  8  9  2  0  0  0  0
  8 10  1  0  0  0  0
 10 11  1  0  0  0  0
 10 27  1  0  0  0  0
 11 12  1  0  0  0  0
 11 28  1  0  0  0  0
 11 29  1  0  0  0  0
 12 16  1  0  0  0  0
 12 13  1  0  0  0  0
 12 30  1  0  0  0  0
 13 14  1  0  0  0  0
 13 31  1  0  0  0  0
 13 32  1  0  0  0  0
 14 15  1  0  0  0  0
 14 33  1  0  0  0  0
 14 34  1  0  0  0  0
 15 16  1  0  0  0  0
 15 35  1  0  0  0  0
 15 36  1  0  0  0  0
M  END
> <s_m_source_file>
AV-unprocessed.smi

> <i_m_source_file_index>
1895

> <i_lp_mmshare_version>
43012

> <i_f3d_flags>
0

> <s_epik_input>
W0NIM11jMVtjSF1jKFtDSDNdKW4objEpW0NIMl1DKD1PKVtOSF1bQ0gyXVtDQEBIXTJbQ0gyXVtDSDJdW0NIMl1PMg==

> <s_epik_cmdline>
J2VwaWtfcHl0aG9uJywgJy1waCcsICc3LjAnLCAnLXRuJywgJzgnLCAnLW1hJywgJzIwMCcsICctbWV0YWxfYmluZGluZycsICctaW1hZScsICc8aW5maWxlLm1hZT4nLCAnLW9tYWUnLCAnPG91dGZpbGUubWFlPic=

> <r_lp_tautomer_probability>
1

> <r_epik_Ionization_Penalty>
0.000408438

> <r_epik_Ionization_Penalty_Charging>
0

> <r_epik_Ionization_Penalty_Neutral>
0.000408438

> <r_epik_State_Penalty>
-0

> <r_epik_Charging_Adjusted_Penalty>
0

> <i_epik_Tot_Q>
0

> <i_epik_Tot_abs_Q>
0

> <r_epik_Metal_State_Penalty>
-0

> <b_epik_Metal_Only>
0

> <s_lp_Force_Field>
OPLS_2005

> <r_lp_Energy>
16.1731

> <b_lp_Chiralities_Consistent>
1

> <s_lp_Variant>
AV-unprocessed.smi:1895-2

> <Gold.Version>
5.8.1

> <Gold.Id.Protein>
6NUR|6NUR_protein|mol2

> <Gold.PLP.Fitness>
44.7302

> <Gold.PLP.PLP>
-42.4457

> <Gold.PLP.part.hbond>
-1.9902

> <Gold.PLP.part.metal>
0.0000

> <Gold.PLP.part.buried>
-2.1794

> <Gold.PLP.part.nonpolar>
-38.7618

> <Gold.PLP.part.repulsive>
0.2565

> <Gold.PLP.ligand.clash>
0.0000

> <Gold.PLP.ligand.torsion>
0.3783

> <Gold.PLP.Chemscore.Hbond>
1.0067

> <Gold.PLP.Chemscore.CHOScore>
0.0000

> <Gold.PLP.Chemscore.Metal>
0.0000

> <Gold.Chemscore.Hbonds>
donor molecule, donor type, donor heavy atom, donor atom, acceptor molecule, acceptor atom, score
      P1  H  7989  7998       L1    16  0.01
      P1  H  7997  8009       L1    16  0.80

> <Gold.PLP.Chemscore.Internal.Correction>
0.0209

> <Gold.Rescore>
     Score         DG    S(hbond)    S(metal)    S(lipo)     H(rot)  DE(clash)    DE(int)     intcor
     14.10     -15.16       0.34        0.00     106.83       1.54       0.52       0.54       ----

> <Gold.Chemscore.Fitness>
14.1007

> <Gold.Chemscore.DG>
-15.1595

> <Gold.Chemscore.ZeroCoef>
-5.4800

> <Gold.Chemscore.Hbond>
0.3352

> <Gold.Chemscore.Metal>
0.0000

> <Gold.Chemscore.Lipo>
106.8317

> <Gold.Chemscore.Internal_Hbond>
0.0000

> <Gold.Chemscore.DEClash>
0.5171

> <Gold.Chemscore.DEInternal>
0.5417

> <Gold.Chemscore.Rot>
1.5387

> <Gold.Chemscore.Internal.Correction>
   9.000000E+99

> <Gold.Chemscore.Hbonds>
donor molecule, donor type, donor heavy atom, donor atom, acceptor molecule, acceptor atom, score
      P1  H  7997  8009       L1    16  0.12

> <Gold.Chemscore.Hbond.Weighted>
-1.1194

> <Gold.Chemscore.Metal.Weighted>
-0.0000

> <Gold.Chemscore.Lipo.Weighted>
-12.4993

> <Gold.Chemscore.Internal_Hbond.Weighted>
0.0000

> <Gold.Chemscore.DEClash.Weighted>
0.5171

> <Gold.Chemscore.DEInternal.Weighted>
0.5417

> <Gold.Chemscore.Rot.Weighted>
3.9392

> <Gold.Chemscore.Internal.Correction.Weighted>
   9.000000E+99

> <Gold.Protein.RotatedTorsions>
[ 6907 6896 6895 6894 ] final  177.03 input  -60.11 | X-H torsion
[ 7974 7965 7964 7962 ] final   63.12 input  175.53 | X-H torsion
[ 8008 7997 7996 7995 ] final -156.73 input   59.86 | X-H torsion
[ 10167 10162 10161 10158 ] final   32.33 input  -65.29 | X-H torsion
[ 10718 10713 10712 10709 ] final  -76.18 input   66.30 | X-H torsion
[ 10763 10752 10751 10750 ] final  -45.73 input  -60.55 | X-H torsion
[ 11005 11000 10999 10996 ] final   46.40 input  -57.11 | X-H torsion

> <Gold.Protein.ActiveResidues>
 VAL166  LYS551  ARG553  GLY616  TRP617  ASP618  TYR619  PRO620  LYS621  CYS622 
 ASP623  PHE694  ASN695  SER759  ASP760  ASP761  ALA762  ILE779  LEU786  VAL792 
 PHE793  MET794  SER795  GLU796  ALA797  LYS798  CYS799  TRP800  GLU811  SER814 

> <Gold.Protein.RotatedAtoms>
  151.7105  133.3312  159.3289 H   0  0  0  0  0  0  0  0  0  0  0  0  # atno 6907 bound_to 6896
  150.7696  134.6536  159.6311 H   0  0  0  0  0  0  0  0  0  0  0  0  # atno 6908 bound_to 6896
  152.3714  134.6731  160.0226 H   0  0  0  0  0  0  0  0  0  0  0  0  # atno 6909 bound_to 6896
  145.8655  139.3343  143.0793 H   0  0  0  0  0  0  0  0  0  0  0  0  # atno 7974 bound_to 7965
  155.7216  140.0791  157.2328 H   0  0  0  0  0  0  0  0  0  0  0  0  # atno 8008 bound_to 7997
  154.4044  140.1611  156.2463 H   0  0  0  0  0  0  0  0  0  0  0  0  # atno 8009 bound_to 7997
  155.9191  140.3399  155.6161 H   0  0  0  0  0  0  0  0  0  0  0  0  # atno 8010 bound_to 7997
  140.4508  144.1051  150.6191 H   0  0  0  0  0  0  0  0  0  0  0  0  # atno 10167 bound_to 10162
  156.0183  130.4459  150.3155 H   0  0  0  0  0  0  0  0  0  0  0  0  # atno 10718 bound_to 10713
  154.0334  135.6653  153.4783 H   0  0  0  0  0  0  0  0  0  0  0  0  # atno 10763 bound_to 10752
  153.0531  135.5072  154.7911 H   0  0  0  0  0  0  0  0  0  0  0  0  # atno 10764 bound_to 10752
  154.6864  135.3053  154.9507 H   0  0  0  0  0  0  0  0  0  0  0  0  # atno 10765 bound_to 10752
  140.1373  134.4629  155.8476 H   0  0  0  0  0  0  0  0  0  0  0  0  # atno 11005 bound_to 11000
  145.9198  140.9123  143.0411 LP  0  0  0  0  0  0  0  0  0  0  0  0  # atno 17320 bound_to 7965
  144.6726  140.1273  143.7446 LP  0  0  0  0  0  0  0  0  0  0  0  0  # atno 17321 bound_to 7965
  140.4209  143.2612  151.9716 LP  0  0  0  0  0  0  0  0  0  0  0  0  # atno 17342 bound_to 10162
  139.4796  144.5831  151.7899 LP  0  0  0  0  0  0  0  0  0  0  0  0  # atno 17343 bound_to 10162
  157.1256  131.0258  151.2991 LP  0  0  0  0  0  0  0  0  0  0  0  0  # atno 17370 bound_to 10713
  157.4592  130.7643  149.7221 LP  0  0  0  0  0  0  0  0  0  0  0  0  # atno 17371 bound_to 10713
  141.2180  133.6819  156.7181 LP  0  0  0  0  0  0  0  0  0  0  0  0  # atno 17394 bound_to 11000
  140.2767  134.8349  157.3896 LP  0  0  0  0  0  0  0  0  0  0  0  0  # atno 17395 bound_to 11000

$$$$
