AV-unprocessed.smi:1554|AV-procd|sdf|6248|dock9
  -GOLD-   22720 6433D 1   1.00000     0.00000
 Structure written by MMmdl.
 48 50  0  0  0  0  0  0  0  0  2 V2000
  152.7046  143.1037  161.0120 C   0  0  0  0  0  0  0  0  0  0  0  0
  152.1283  142.6800  159.6725 C   0  0  0  0  0  0  0  0  0  0  0  0
  152.5840  141.4827  159.0763 C   0  0  0  0  0  0  0  0  0  0  0  0
  152.0723  141.0519  157.8330 C   0  0  0  0  0  0  0  0  0  0  0  0
  152.3708  139.9312  157.0777 N   0  0  0  0  0  0  0  0  0  0  0  0
  151.5714  140.0943  156.0276 C   0  0  0  0  0  0  0  0  0  0  0  0
  150.7940  141.1945  156.0090 N   0  0  0  0  0  0  0  0  0  0  0  0
  149.8588  141.5891  154.9675 C   0  0  0  0  0  0  0  0  0  0  0  0
  148.7383  140.5549  154.7190 C   0  0  2  0  0  0  0  0  0  0  0  0
  149.1786  139.6348  153.7381 O   0  0  0  0  0  0  0  0  0  0  0  0
  147.4143  141.1956  154.2458 C   0  0  0  0  0  0  0  0  0  0  0  0
  146.9963  142.3502  155.0848 N   0  3  1  0  0  0  0  0  0  0  0  0
  145.8195  143.0959  154.5694 C   0  0  0  0  0  0  0  0  0  0  0  0
  144.5012  142.3561  154.8729 C   0  0  0  0  0  0  0  0  0  0  0  0
  144.4062  142.0855  156.2663 O   0  0  0  0  0  0  0  0  0  0  0  0
  145.4684  141.2623  156.7357 C   0  0  2  0  0  0  0  0  0  0  0  0
  145.2180  140.9565  158.2162 C   0  0  0  0  0  0  0  0  0  0  0  0
  146.8033  142.0030  156.5143 C   0  0  0  0  0  0  0  0  0  0  0  0
  151.0852  141.8592  157.1960 C   0  0  0  0  0  0  0  0  0  0  0  0
  150.6218  143.0513  157.7808 C   0  0  0  0  0  0  0  0  0  0  0  0
  151.1444  143.4675  159.0228 C   0  0  0  0  0  0  0  0  0  0  0  0
  150.6389  144.7575  159.6445 C   0  0  0  0  0  0  0  0  0  0  0  0
  153.4201  142.3714  161.3869 H   0  0  0  0  0  0  0  0  0  0  0  0
  151.9124  143.2056  161.7539 H   0  0  0  0  0  0  0  0  0  0  0  0
  153.2204  144.0600  160.9213 H   0  0  0  0  0  0  0  0  0  0  0  0
  153.3328  140.8821  159.5715 H   0  0  0  0  0  0  0  0  0  0  0  0
  151.5551  139.3771  155.2199 H   0  0  0  0  0  0  0  0  0  0  0  0
  149.4307  142.5564  155.2344 H   0  0  0  0  0  0  0  0  0  0  0  0
  150.4222  141.7507  154.0480 H   0  0  0  0  0  0  0  0  0  0  0  0
  148.5870  140.0026  155.6457 H   0  0  0  0  0  0  0  0  0  0  0  0
  149.5161  140.1130  152.9967 H   0  0  0  0  0  0  0  0  0  0  0  0
  147.5033  141.5125  153.2072 H   0  0  0  0  0  0  0  0  0  0  0  0
  146.6326  140.4346  154.2604 H   0  0  0  0  0  0  0  0  0  0  0  0
  145.7996  144.0720  155.0556 H   0  0  0  0  0  0  0  0  0  0  0  0
  145.9106  143.2904  153.5015 H   0  0  0  0  0  0  0  0  0  0  0  0
  143.6526  142.9739  154.5789 H   0  0  0  0  0  0  0  0  0  0  0  0
  144.4217  141.4284  154.3051 H   0  0  0  0  0  0  0  0  0  0  0  0
  145.4649  140.3198  156.1854 H   0  0  0  0  0  0  0  0  0  0  0  0
  146.0042  140.3204  158.6235 H   0  0  0  0  0  0  0  0  0  0  0  0
  144.2686  140.4380  158.3521 H   0  0  0  0  0  0  0  0  0  0  0  0
  145.1863  141.8709  158.8096 H   0  0  0  0  0  0  0  0  0  0  0  0
  147.6435  141.4118  156.8810 H   0  0  0  0  0  0  0  0  0  0  0  0
  146.8073  142.9276  157.0934 H   0  0  0  0  0  0  0  0  0  0  0  0
  149.8696  143.6410  157.2786 H   0  0  0  0  0  0  0  0  0  0  0  0
  149.9158  145.2550  158.9975 H   0  0  0  0  0  0  0  0  0  0  0  0
  151.4640  145.4489  159.8166 H   0  0  0  0  0  0  0  0  0  0  0  0
  150.1510  144.5552  160.5982 H   0  0  0  0  0  0  0  0  0  0  0  0
  147.7790  142.9880  155.0621 H   0  0  0  0  0  0  0  0  0  0  0  0
  1  2  1  0  0  0  0
  1 23  1  0  0  0  0
  1 24  1  0  0  0  0
  1 25  1  0  0  0  0
  2 21  1  0  0  0  0
  2  3  2  0  0  0  0
  3  4  1  0  0  0  0
  3 26  1  0  0  0  0
  4 19  2  0  0  0  0
  4  5  1  0  0  0  0
  5  6  2  0  0  0  0
  6  7  1  0  0  0  0
  6 27  1  0  0  0  0
  7  8  1  0  0  0  0
  7 19  1  0  0  0  0
  8  9  1  0  0  0  0
  8 28  1  0  0  0  0
  8 29  1  0  0  0  0
  9 10  1  0  0  0  0
  9 11  1  0  0  0  0
  9 30  1  0  0  0  0
 10 31  1  0  0  0  0
 11 12  1  0  0  0  0
 11 32  1  0  0  0  0
 11 33  1  0  0  0  0
 12 18  1  0  0  0  0
 12 13  1  0  0  0  0
 12 48  1  0  0  0  0
 13 14  1  0  0  0  0
 13 34  1  0  0  0  0
 13 35  1  0  0  0  0
 14 15  1  0  0  0  0
 14 36  1  0  0  0  0
 14 37  1  0  0  0  0
 15 16  1  0  0  0  0
 16 17  1  0  0  0  0
 16 18  1  0  0  0  0
 16 38  1  0  0  0  0
 17 39  1  0  0  0  0
 17 40  1  0  0  0  0
 17 41  1  0  0  0  0
 18 42  1  0  0  0  0
 18 43  1  0  0  0  0
 19 20  1  0  0  0  0
 20 21  2  0  0  0  0
 20 44  1  0  0  0  0
 21 22  1  0  0  0  0
 22 45  1  0  0  0  0
 22 46  1  0  0  0  0
 22 47  1  0  0  0  0
M  CHG  1  12   1
M  END
> <s_m_source_file>
AV-unprocessed.smi

> <i_m_source_file_index>
1554

> <i_lp_mmshare_version>
43012

> <i_f3d_flags>
0

> <s_epik_input>
W0NIM11jKFtjSF0xKWMoW0NIM10pW2NIXWMoYzEyKW4oW2NIXW4yKVtDSDJdW0NASF0oW09IXSlbQ0gyXU4zW0NIMl1bQ0gyXU9bQ0BASF0oW0NIM10pW0NIMl0z

> <s_epik_cmdline>
J2VwaWtfcHl0aG9uJywgJy1waCcsICc3LjAnLCAnLXRuJywgJzgnLCAnLW1hJywgJzIwMCcsICctbWV0YWxfYmluZGluZycsICctaW1hZScsICc8aW5maWxlLm1hZT4nLCAnLW9tYWUnLCAnPG91dGZpbGUubWFlPic=

> <r_epik_Ionization_Penalty>
0.695251

> <r_epik_Ionization_Penalty_Charging>
0.608065

> <r_epik_Ionization_Penalty_Neutral>
0.0871863

> <r_epik_State_Penalty>
0.731955

> <r_epik_Charging_Adjusted_Penalty>
1.34002

> <i_epik_Tot_Q>
1

> <i_epik_Tot_abs_Q>
1

> <r_epik_Metal_State_Penalty>
0.652186

> <b_epik_Metal_Only>
0

> <s_lp_Force_Field>
OPLS_2005

> <r_lp_Energy>
22.8588

> <b_lp_Chiralities_Consistent>
1

> <s_lp_Variant>
AV-unprocessed.smi:1554-9

> <Gold.Version>
5.8.1

> <Gold.Id.Protein>
6NUR|6NUR_protein|mol2

> <Gold.PLP.Fitness>
52.4858

> <Gold.PLP.PLP>
-41.6090

> <Gold.PLP.part.hbond>
-3.0000

> <Gold.PLP.part.metal>
0.0000

> <Gold.PLP.part.buried>
-5.3937

> <Gold.PLP.part.nonpolar>
-33.6225

> <Gold.PLP.part.repulsive>
0.1303

> <Gold.PLP.ligand.clash>
0.0000

> <Gold.PLP.ligand.torsion>
0.4458

> <Gold.PLP.Chemscore.Hbond>
3.9120

> <Gold.PLP.Chemscore.CHOScore>
0.0000

> <Gold.PLP.Chemscore.Metal>
0.0000

> <Gold.Chemscore.Hbonds>
donor molecule, donor type, donor heavy atom, donor atom, acceptor molecule, acceptor atom, score
      L1  H    10    31       P1  7957  0.83
      L1  H    12    48       P1  8028  1.62
      P1  H  7997  8010       L1     5  0.94

> <Gold.PLP.Chemscore.Internal.Correction>
0.0324

> <Gold.Rescore>
     Score         DG    S(hbond)    S(metal)    S(lipo)     H(rot)  DE(clash)    DE(int)     intcor
     19.13     -19.95       2.13        0.00     107.69       2.05       0.27       0.55       ----

> <Gold.Chemscore.Fitness>
19.1284

> <Gold.Chemscore.DG>
-19.9498

> <Gold.Chemscore.ZeroCoef>
-5.4800

> <Gold.Chemscore.Hbond>
2.1348

> <Gold.Chemscore.Metal>
0.0000

> <Gold.Chemscore.Lipo>
107.6876

> <Gold.Chemscore.Internal_Hbond>
0.0000

> <Gold.Chemscore.DEClash>
0.2728

> <Gold.Chemscore.DEInternal>
0.5487

> <Gold.Chemscore.Rot>
2.0546

> <Gold.Chemscore.Internal.Correction>
   9.000000E+99

> <Gold.Chemscore.Hbonds>
donor molecule, donor type, donor heavy atom, donor atom, acceptor molecule, acceptor atom, score
      L1  H    10    31       P1  7957  0.83
      L1  H    12    48       P1  8028  0.58
      P1  H  7997  8010       L1     5  0.41

> <Gold.Chemscore.Hbond.Weighted>
-7.1301

> <Gold.Chemscore.Metal.Weighted>
-0.0000

> <Gold.Chemscore.Lipo.Weighted>
-12.5995

> <Gold.Chemscore.Internal_Hbond.Weighted>
0.0000

> <Gold.Chemscore.DEClash.Weighted>
0.2728

> <Gold.Chemscore.DEInternal.Weighted>
0.5487

> <Gold.Chemscore.Rot.Weighted>
5.2597

> <Gold.Chemscore.Internal.Correction.Weighted>
   9.000000E+99

> <Gold.Protein.RotatedTorsions>
[ 6907 6896 6895 6894 ] final   27.58 input  -60.11 | X-H torsion
[ 7974 7965 7964 7962 ] final  105.99 input  175.53 | X-H torsion
[ 8008 7997 7996 7995 ] final   65.23 input   59.86 | X-H torsion
[ 10167 10162 10161 10158 ] final  -35.48 input  -65.29 | X-H torsion
[ 10718 10713 10712 10709 ] final  170.49 input   66.30 | X-H torsion
[ 10763 10752 10751 10750 ] final  130.90 input  -60.55 | X-H torsion
[ 11005 11000 10999 10996 ] final -103.44 input  -57.11 | X-H torsion

> <Gold.Protein.ActiveResidues>
 VAL166  LYS551  ARG553  GLY616  TRP617  ASP618  TYR619  PRO620  LYS621  CYS622 
 ASP623  PHE694  ASN695  SER759  ASP760  ASP761  ALA762  ILE779  LEU786  VAL792 
 PHE793  MET794  SER795  GLU796  ALA797  LYS798  CYS799  TRP800  GLU811  SER814 

> <Gold.Protein.RotatedAtoms>
  152.0044  134.9911  160.0565 H   0  0  0  0  0  0  0  0  0  0  0  0  # atno 6907 bound_to 6896
  152.1489  133.4505  159.4812 H   0  0  0  0  0  0  0  0  0  0  0  0  # atno 6908 bound_to 6896
  150.6873  134.2132  159.4410 H   0  0  0  0  0  0  0  0  0  0  0  0  # atno 6909 bound_to 6896
  145.3125  139.2536  143.3755 H   0  0  0  0  0  0  0  0  0  0  0  0  # atno 7974 bound_to 7965
  155.6585  140.3497  155.4774 H   0  0  0  0  0  0  0  0  0  0  0  0  # atno 8008 bound_to 7997
  155.9789  140.1170  157.0768 H   0  0  0  0  0  0  0  0  0  0  0  0  # atno 8009 bound_to 7997
  154.4186  140.1142  156.5394 H   0  0  0  0  0  0  0  0  0  0  0  0  # atno 8010 bound_to 7997
  140.7164  143.3475  151.2226 H   0  0  0  0  0  0  0  0  0  0  0  0  # atno 10167 bound_to 10162
  157.0073  131.0194  151.2813 H   0  0  0  0  0  0  0  0  0  0  0  0  # atno 10718 bound_to 10713
  153.7656  135.3189  155.3344 H   0  0  0  0  0  0  0  0  0  0  0  0  # atno 10763 bound_to 10752
  154.8214  135.4600  154.0794 H   0  0  0  0  0  0  0  0  0  0  0  0  # atno 10764 bound_to 10752
  153.2038  135.6926  153.8281 H   0  0  0  0  0  0  0  0  0  0  0  0  # atno 10765 bound_to 10752
  141.1145  133.8640  157.1486 H   0  0  0  0  0  0  0  0  0  0  0  0  # atno 11005 bound_to 11000
  146.3112  140.3664  142.8670 LP  0  0  0  0  0  0  0  0  0  0  0  0  # atno 17320 bound_to 7965
  144.9004  140.7635  143.5870 LP  0  0  0  0  0  0  0  0  0  0  0  0  # atno 17321 bound_to 7965
  139.6997  143.9553  152.2900 LP  0  0  0  0  0  0  0  0  0  0  0  0  # atno 17342 bound_to 10162
  139.9242  144.6781  150.8430 LP  0  0  0  0  0  0  0  0  0  0  0  0  # atno 17343 bound_to 10162
  157.5346  130.8081  149.7957 LP  0  0  0  0  0  0  0  0  0  0  0  0  # atno 17370 bound_to 10713
  156.0149  130.3818  150.2143 LP  0  0  0  0  0  0  0  0  0  0  0  0  # atno 17371 bound_to 10713
  140.0059  135.0008  157.0292 LP  0  0  0  0  0  0  0  0  0  0  0  0  # atno 17394 bound_to 11000
  140.4683  134.1413  155.7200 LP  0  0  0  0  0  0  0  0  0  0  0  0  # atno 17395 bound_to 11000

$$$$
