AV-unprocessed.smi:595|AV-procd|sdf|3018|dock8
  -GOLD-   2262023523D 1   1.00000     0.00000
 Structure written by MMmdl.
 39 40  0  0  0  0  0  0  0  0  1 V2000
  148.7262  139.1348  158.2574 O   0  0  0  0  0  0  0  0  0  0  0  0
  149.7095  138.4770  158.6075 C   0  0  0  0  0  0  0  0  0  0  0  0
  151.1194  138.9439  158.2147 C   0  0  0  0  0  0  0  0  0  0  0  0
  151.1269  140.2836  157.6042 N   0  0  0  0  0  0  0  0  0  0  0  0
  151.5125  141.3557  158.4328 C   0  0  0  0  0  0  0  0  0  0  0  0
  151.5798  142.6295  158.0009 C   0  0  0  0  0  0  0  0  0  0  0  0
  151.9520  143.7719  158.9331 C   0  0  0  0  0  0  0  0  0  0  0  0
  150.9907  143.9919  159.8303 F   0  0  0  0  0  0  0  0  0  0  0  0
  153.0842  143.5100  159.5874 F   0  0  0  0  0  0  0  0  0  0  0  0
  152.1286  144.8902  158.2309 F   0  0  0  0  0  0  0  0  0  0  0  0
  151.1933  142.8641  156.6234 C   0  0  0  0  0  0  0  0  0  0  0  0
  150.8162  141.8512  155.8191 C   0  0  0  0  0  0  0  0  0  0  0  0
  150.7765  140.4667  156.2959 C   0  0  0  0  0  0  0  0  0  0  0  0
  150.4502  139.5320  155.5644 O   0  0  0  0  0  0  0  0  0  0  0  0
  149.6734  137.3372  159.3360 N   0  0  0  0  0  0  0  0  0  0  0  0
  148.6316  136.6402  159.8489 C   0  0  0  0  0  0  0  0  0  0  0  0
  147.5244  137.1639  159.9618 O   0  0  0  0  0  0  0  0  0  0  0  0
  148.8657  135.3672  160.2199 N   0  0  0  0  0  0  0  0  0  0  0  0
  147.8464  134.3375  160.3985 C   0  0  0  0  0  0  0  0  0  0  0  0
  146.9355  134.6854  161.5893 C   0  0  0  0  0  0  0  0  0  0  0  0
  147.3231  133.7190  162.7082 C   0  0  0  0  0  0  0  0  0  0  0  0
  147.7499  132.4530  161.9721 C   0  0  0  0  0  0  0  0  0  0  0  0
  148.4719  132.9648  160.7242 C   0  0  0  0  0  0  0  0  0  0  0  0
  151.7569  138.9003  159.0990 H   0  0  0  0  0  0  0  0  0  0  0  0
  151.5577  138.2286  157.5163 H   0  0  0  0  0  0  0  0  0  0  0  0
  151.7560  141.0714  159.4467 H   0  0  0  0  0  0  0  0  0  0  0  0
  151.2104  143.8689  156.2274 H   0  0  0  0  0  0  0  0  0  0  0  0
  150.5365  142.0630  154.7976 H   0  0  0  0  0  0  0  0  0  0  0  0
  150.5782  136.9350  159.5328 H   0  0  0  0  0  0  0  0  0  0  0  0
  149.8238  135.0934  160.3882 H   0  0  0  0  0  0  0  0  0  0  0  0
  147.2365  134.2720  159.4956 H   0  0  0  0  0  0  0  0  0  0  0  0
  147.0089  135.7281  161.9021 H   0  0  0  0  0  0  0  0  0  0  0  0
  145.8963  134.5080  161.3093 H   0  0  0  0  0  0  0  0  0  0  0  0
  148.1684  134.1222  163.2674 H   0  0  0  0  0  0  0  0  0  0  0  0
  146.5096  133.5422  163.4121 H   0  0  0  0  0  0  0  0  0  0  0  0
  148.3762  131.8018  162.5822 H   0  0  0  0  0  0  0  0  0  0  0  0
  146.8661  131.8854  161.6780 H   0  0  0  0  0  0  0  0  0  0  0  0
  148.3859  132.2665  159.8911 H   0  0  0  0  0  0  0  0  0  0  0  0
  149.5349  133.0683  160.9478 H   0  0  0  0  0  0  0  0  0  0  0  0
  1  2  2  0  0  0  0
  2  3  1  0  0  0  0
  2 15  1  0  0  0  0
  3  4  1  0  0  0  0
  3 24  1  0  0  0  0
  3 25  1  0  0  0  0
  4 13  1  0  0  0  0
  4  5  1  0  0  0  0
  5  6  2  0  0  0  0
  5 26  1  0  0  0  0
  6  7  1  0  0  0  0
  6 11  1  0  0  0  0
  7  8  1  0  0  0  0
  7  9  1  0  0  0  0
  7 10  1  0  0  0  0
 11 12  2  0  0  0  0
 11 27  1  0  0  0  0
 12 13  1  0  0  0  0
 12 28  1  0  0  0  0
 13 14  2  0  0  0  0
 15 16  1  0  0  0  0
 15 29  1  0  0  0  0
 16 17  2  0  0  0  0
 16 18  1  0  0  0  0
 18 19  1  0  0  0  0
 18 30  1  0  0  0  0
 19 23  1  0  0  0  0
 19 20  1  0  0  0  0
 19 31  1  0  0  0  0
 20 21  1  0  0  0  0
 20 32  1  0  0  0  0
 20 33  1  0  0  0  0
 21 22  1  0  0  0  0
 21 34  1  0  0  0  0
 21 35  1  0  0  0  0
 22 23  1  0  0  0  0
 22 36  1  0  0  0  0
 22 37  1  0  0  0  0
 23 38  1  0  0  0  0
 23 39  1  0  0  0  0
M  END
> <s_m_source_file>
AV-unprocessed.smi

> <i_m_source_file_index>
595

> <i_lp_mmshare_version>
43012

> <i_f3d_flags>
0

> <s_epik_input>
W0NIMl0xW0NIMl1bQ0gyXVtDSDJdW0NIXTFbTkhdQyg9TylbTkhdQyg9TylbQ0gyXW4yW2NIXWMoQyhGKShGKUYpW2NIXVtjSF1jMj1P

> <s_epik_cmdline>
J2VwaWtfcHl0aG9uJywgJy1waCcsICc3LjAnLCAnLXRuJywgJzgnLCAnLW1hJywgJzIwMCcsICctbWV0YWxfYmluZGluZycsICctaW1hZScsICc8aW5maWxlLm1hZT4nLCAnLW9tYWUnLCAnPG91dGZpbGUubWFlPic=

> <r_lp_tautomer_probability>
1

> <r_epik_Ionization_Penalty>
3.29047e-05

> <r_epik_Ionization_Penalty_Charging>
1.42456e-08

> <r_epik_Ionization_Penalty_Neutral>
3.28905e-05

> <r_epik_State_Penalty>
-0

> <r_epik_Charging_Adjusted_Penalty>
1.42456e-08

> <i_epik_Tot_Q>
0

> <i_epik_Tot_abs_Q>
0

> <r_epik_Metal_State_Penalty>
-0

> <b_epik_Metal_Only>
0

> <s_lp_Force_Field>
OPLS_2005

> <r_lp_Energy>
34.7393

> <b_lp_Chiralities_Consistent>
1

> <s_lp_Variant>
AV-unprocessed.smi:595-1

> <Gold.Version>
5.8.1

> <Gold.Id.Protein>
6NUR|6NUR_protein|mol2

> <Gold.PLP.Fitness>
44.2151

> <Gold.PLP.PLP>
-42.8223

> <Gold.PLP.part.hbond>
-2.0000

> <Gold.PLP.part.metal>
0.0000

> <Gold.PLP.part.buried>
-5.2513

> <Gold.PLP.part.nonpolar>
-36.5277

> <Gold.PLP.part.repulsive>
0.3761

> <Gold.PLP.ligand.clash>
0.0000

> <Gold.PLP.ligand.torsion>
0.8407

> <Gold.PLP.Chemscore.Hbond>
1.0000

> <Gold.PLP.Chemscore.CHOScore>
0.0000

> <Gold.PLP.Chemscore.Metal>
0.0000

> <Gold.Chemscore.Hbonds>
donor molecule, donor type, donor heavy atom, donor atom, acceptor molecule, acceptor atom, score
      P1  H  6934  6947       L1    17  0.72

> <Gold.PLP.Chemscore.Internal.Correction>
0.0741

> <Gold.Rescore>
     Score         DG    S(hbond)    S(metal)    S(lipo)     H(rot)  DE(clash)    DE(int)     intcor
     12.16     -14.34       0.90        0.00      86.55       1.68       0.13       2.04       ----

> <Gold.Chemscore.Fitness>
12.1610

> <Gold.Chemscore.DG>
-14.3352

> <Gold.Chemscore.ZeroCoef>
-5.4800

> <Gold.Chemscore.Hbond>
0.9033

> <Gold.Chemscore.Metal>
0.0000

> <Gold.Chemscore.Lipo>
86.5500

> <Gold.Chemscore.Internal_Hbond>
0.0000

> <Gold.Chemscore.DEClash>
0.1299

> <Gold.Chemscore.DEInternal>
2.0443

> <Gold.Chemscore.Rot>
1.6750

> <Gold.Chemscore.Internal.Correction>
   9.000000E+99

> <Gold.Chemscore.Hbonds>
donor molecule, donor type, donor heavy atom, donor atom, acceptor molecule, acceptor atom, score
      P1  H  6934  6947       L1    17  0.71

> <Gold.Chemscore.Hbond.Weighted>
-3.0170

> <Gold.Chemscore.Metal.Weighted>
-0.0000

> <Gold.Chemscore.Lipo.Weighted>
-10.1264

> <Gold.Chemscore.Internal_Hbond.Weighted>
0.0000

> <Gold.Chemscore.DEClash.Weighted>
0.1299

> <Gold.Chemscore.DEInternal.Weighted>
2.0443

> <Gold.Chemscore.Rot.Weighted>
4.2881

> <Gold.Chemscore.Internal.Correction.Weighted>
   9.000000E+99

> <Gold.Protein.RotatedTorsions>
[ 6907 6896 6895 6894 ] final  152.04 input  -60.11 | X-H torsion
[ 7974 7965 7964 7962 ] final  -98.55 input  175.53 | X-H torsion
[ 8008 7997 7996 7995 ] final   96.41 input   59.86 | X-H torsion
[ 10167 10162 10161 10158 ] final  -36.46 input  -65.29 | X-H torsion
[ 10718 10713 10712 10709 ] final   34.91 input   66.30 | X-H torsion
[ 10763 10752 10751 10750 ] final -170.96 input  -60.55 | X-H torsion
[ 11005 11000 10999 10996 ] final  -32.19 input  -57.11 | X-H torsion

> <Gold.Protein.ActiveResidues>
 VAL166  LYS551  ARG553  GLY616  TRP617  ASP618  TYR619  PRO620  LYS621  CYS622 
 ASP623  PHE694  ASN695  SER759  ASP760  ASP761  ALA762  ILE779  LEU786  VAL792 
 PHE793  MET794  SER795  GLU796  ALA797  LYS798  CYS799  TRP800  GLU811  SER814 

> <Gold.Protein.RotatedAtoms>
  152.0922  133.4206  159.4548 H   0  0  0  0  0  0  0  0  0  0  0  0  # atno 6907 bound_to 6896
  150.6862  134.2858  159.4655 H   0  0  0  0  0  0  0  0  0  0  0  0  # atno 6908 bound_to 6896
  152.0710  134.9533  160.0625 H   0  0  0  0  0  0  0  0  0  0  0  0  # atno 6909 bound_to 6896
  145.3191  140.9418  143.2726 H   0  0  0  0  0  0  0  0  0  0  0  0  # atno 7974 bound_to 7965
  156.0793  140.3273  155.7673 H   0  0  0  0  0  0  0  0  0  0  0  0  # atno 8008 bound_to 7997
  155.5179  140.0582  157.2929 H   0  0  0  0  0  0  0  0  0  0  0  0  # atno 8009 bound_to 7997
  154.4573  140.1949  156.0361 H   0  0  0  0  0  0  0  0  0  0  0  0  # atno 8010 bound_to 7997
  140.7142  143.3407  151.2364 H   0  0  0  0  0  0  0  0  0  0  0  0  # atno 10167 bound_to 10162
  157.3162  130.7425  149.6756 H   0  0  0  0  0  0  0  0  0  0  0  0  # atno 10718 bound_to 10713
  154.6358  135.2892  155.0163 H   0  0  0  0  0  0  0  0  0  0  0  0  # atno 10763 bound_to 10752
  154.1307  135.6534  153.4925 H   0  0  0  0  0  0  0  0  0  0  0  0  # atno 10764 bound_to 10752
  153.0302  135.5309  154.7204 H   0  0  0  0  0  0  0  0  0  0  0  0  # atno 10765 bound_to 10752
  140.9531  133.7209  156.1251 H   0  0  0  0  0  0  0  0  0  0  0  0  # atno 11005 bound_to 11000
  144.8954  139.4720  143.6658 LP  0  0  0  0  0  0  0  0  0  0  0  0  # atno 17320 bound_to 7965
  146.3089  139.7676  142.9035 LP  0  0  0  0  0  0  0  0  0  0  0  0  # atno 17321 bound_to 7965
  139.6914  143.9686  152.2861 LP  0  0  0  0  0  0  0  0  0  0  0  0  # atno 17342 bound_to 10162
  139.9349  144.6718  150.8325 LP  0  0  0  0  0  0  0  0  0  0  0  0  # atno 17343 bound_to 10162
  155.9682  130.4236  150.4572 LP  0  0  0  0  0  0  0  0  0  0  0  0  # atno 17370 bound_to 10713
  157.2579  131.0560  151.2338 LP  0  0  0  0  0  0  0  0  0  0  0  0  # atno 17371 bound_to 10713
  140.7574  134.3977  157.5531 LP  0  0  0  0  0  0  0  0  0  0  0  0  # atno 17394 bound_to 11000
  139.8854  134.8939  156.2648 LP  0  0  0  0  0  0  0  0  0  0  0  0  # atno 17395 bound_to 11000

$$$$
