AV-unprocessed.smi:1831|AV-procd|sdf|7460|dock2
  -GOLD-   22720 9153D 1   1.00000     0.00000
 Structure written by MMmdl.
 40 41  0  0  0  0  0  0  0  0  3 V2000
  151.2894  141.3272  158.1806 C   0  0  0  0  0  0  0  0  0  0  0  0
  151.0085  140.5621  156.9332 C   0  0  0  0  0  0  0  0  0  0  0  0
  150.6607  141.1531  155.7877 N   0  0  0  0  0  0  0  0  0  0  0  0
  150.4542  140.2356  154.7675 N   0  0  0  0  0  0  0  0  0  0  0  0
  150.6556  138.9679  155.1524 C   0  0  0  0  0  0  0  0  0  0  0  0
  150.5090  137.9277  154.3154 N   0  5  0  0  0  0  0  0  0  0  0  0
  150.7979  136.6778  154.7388 C   0  0  0  0  0  0  0  0  0  0  0  0
  151.5660  136.3762  155.6546 O   0  0  0  0  0  0  0  0  0  0  0  0
  150.1201  135.7211  154.0885 N   0  0  0  0  0  0  0  0  0  0  0  0
  150.1168  134.2921  154.4012 C   0  0  0  0  0  0  0  0  0  0  0  0
  148.6947  133.7143  154.6162 C   0  0  2  0  0  0  0  0  0  0  0  0
  148.3847  132.4942  153.7361 C   0  0  0  0  0  0  0  0  0  0  0  0
  147.4466  132.9973  152.6279 C   0  0  0  0  0  0  0  0  0  0  0  0
  147.2571  134.4491  152.8473 N   0  3  1  0  0  0  0  0  0  0  0  0
  145.9703  135.0138  152.3557 C   0  0  0  0  0  0  0  0  0  0  0  0
  145.7915  134.7619  150.8468 C   0  0  0  0  0  0  0  0  0  0  0  0
  145.8747  136.5239  152.6421 C   0  0  0  0  0  0  0  0  0  0  0  0
  147.5661  134.6925  154.2717 C   0  0  0  0  0  0  0  0  0  0  0  0
  151.1073  138.8112  156.8496 S   0  0  0  0  0  0  0  0  0  0  0  0
  152.1842  141.9362  158.0514 H   0  0  0  0  0  0  0  0  0  0  0  0
  151.4476  140.6460  159.0168 H   0  0  0  0  0  0  0  0  0  0  0  0
  150.4495  141.9806  158.4173 H   0  0  0  0  0  0  0  0  0  0  0  0
  149.5194  136.0189  153.3336 H   0  0  0  0  0  0  0  0  0  0  0  0
  150.5883  133.7777  153.5635 H   0  0  0  0  0  0  0  0  0  0  0  0
  150.7457  134.0833  155.2680 H   0  0  0  0  0  0  0  0  0  0  0  0
  148.6158  133.4372  155.6683 H   0  0  0  0  0  0  0  0  0  0  0  0
  149.2874  132.0371  153.3292 H   0  0  0  0  0  0  0  0  0  0  0  0
  147.8781  131.7275  154.3238 H   0  0  0  0  0  0  0  0  0  0  0  0
  147.8634  132.8185  151.6362 H   0  0  0  0  0  0  0  0  0  0  0  0
  146.4920  132.4730  152.6917 H   0  0  0  0  0  0  0  0  0  0  0  0
  145.1556  134.5152  152.8830 H   0  0  0  0  0  0  0  0  0  0  0  0
  144.8682  135.2124  150.4814 H   0  0  0  0  0  0  0  0  0  0  0  0
  145.7380  133.6987  150.6131 H   0  0  0  0  0  0  0  0  0  0  0  0
  146.6154  135.1876  150.2735 H   0  0  0  0  0  0  0  0  0  0  0  0
  144.9606  136.9445  152.2220 H   0  0  0  0  0  0  0  0  0  0  0  0
  146.7168  137.0639  152.2076 H   0  0  0  0  0  0  0  0  0  0  0  0
  145.8564  136.7359  153.7110 H   0  0  0  0  0  0  0  0  0  0  0  0
  146.6850  134.4605  154.8725 H   0  0  0  0  0  0  0  0  0  0  0  0
  147.8385  135.7288  154.4711 H   0  0  0  0  0  0  0  0  0  0  0  0
  147.9971  134.9040  152.3295 H   0  0  0  0  0  0  0  0  0  0  0  0
  1  2  1  0  0  0  0
  1 20  1  0  0  0  0
  1 21  1  0  0  0  0
  1 22  1  0  0  0  0
  2 19  1  0  0  0  0
  2  3  2  0  0  0  0
  3  4  1  0  0  0  0
  4  5  2  0  0  0  0
  5  6  1  0  0  0  0
  5 19  1  0  0  0  0
  6  7  1  0  0  0  0
  7  8  2  0  0  0  0
  7  9  1  0  0  0  0
  9 10  1  0  0  0  0
  9 23  1  0  0  0  0
 10 11  1  0  0  0  0
 10 24  1  0  0  0  0
 10 25  1  0  0  0  0
 11 18  1  0  0  0  0
 11 12  1  0  0  0  0
 11 26  1  0  0  0  0
 12 13  1  0  0  0  0
 12 27  1  0  0  0  0
 12 28  1  0  0  0  0
 13 14  1  0  0  0  0
 13 29  1  0  0  0  0
 13 30  1  0  0  0  0
 14 15  1  0  0  0  0
 14 18  1  0  0  0  0
 14 40  1  0  0  0  0
 15 16  1  0  0  0  0
 15 17  1  0  0  0  0
 15 31  1  0  0  0  0
 16 32  1  0  0  0  0
 16 33  1  0  0  0  0
 16 34  1  0  0  0  0
 17 35  1  0  0  0  0
 17 36  1  0  0  0  0
 17 37  1  0  0  0  0
 18 38  1  0  0  0  0
 18 39  1  0  0  0  0
M  CHG  1   6  -1
M  CHG  1  14   1
M  END
> <s_m_source_file>
AV-unprocessed.smi

> <i_m_source_file_index>
1831

> <i_lp_mmshare_version>
43012

> <i_f3d_flags>
0

> <s_epik_input>
W0NIM11jMW5uYyhzMSlbTkhdQyg9TylbTkhdW0NIMl1bQ0BASF0yW0NIMl1bQ0gyXU4oW0NIMl0yKVtDSF0oW0NIM10pW0NIM10=

> <s_epik_cmdline>
J2VwaWtfcHl0aG9uJywgJy1waCcsICc3LjAnLCAnLXRuJywgJzgnLCAnLW1hJywgJzIwMCcsICctbWV0YWxfYmluZGluZycsICctaW1hZScsICc8aW5maWxlLm1hZT4nLCAnLW9tYWUnLCAnPG91dGZpbGUubWFlPic=

> <r_lp_tautomer_probability>
1

> <r_epik_Ionization_Penalty>
4.24531

> <r_epik_Ionization_Penalty_Charging>
4.11954

> <r_epik_Ionization_Penalty_Neutral>
0.125766

> <r_epik_State_Penalty>
4.11879

> <r_epik_Charging_Adjusted_Penalty>
8.23833

> <i_epik_Tot_Q>
0

> <i_epik_Tot_abs_Q>
2

> <r_epik_Metal_State_Penalty>
0.659341

> <b_epik_Metal_Only>
1

> <s_lp_Force_Field>
OPLS_2005

> <r_lp_Energy>
22.0545

> <b_lp_Chiralities_Consistent>
1

> <s_lp_Variant>
AV-unprocessed.smi:1831-5

> <Gold.Version>
5.8.1

> <Gold.Id.Protein>
6NUR|6NUR_protein|mol2

> <Gold.PLP.Fitness>
40.5226

> <Gold.PLP.PLP>
-27.1668

> <Gold.PLP.part.hbond>
-5.7788

> <Gold.PLP.part.metal>
0.0000

> <Gold.PLP.part.buried>
-1.2189

> <Gold.PLP.part.nonpolar>
-19.7027

> <Gold.PLP.part.repulsive>
0.4716

> <Gold.PLP.ligand.clash>
0.0000

> <Gold.PLP.ligand.torsion>
0.8921

> <Gold.PLP.Chemscore.Hbond>
5.0000

> <Gold.PLP.Chemscore.CHOScore>
0.0000

> <Gold.PLP.Chemscore.Metal>
0.0000

> <Gold.Chemscore.Hbonds>
donor molecule, donor type, donor heavy atom, donor atom, acceptor molecule, acceptor atom, score
      L1  H     9    23       P1  7948  1.00
      L1  H    14    40       P1  7948  2.00
      P1  H  7989  7998       L1     4  1.00
      P1  H 10752 10765       L1     8  1.00

> <Gold.PLP.Chemscore.Internal.Correction>
0.1400

> <Gold.Rescore>
     Score         DG    S(hbond)    S(metal)    S(lipo)     H(rot)  DE(clash)    DE(int)     intcor
     15.71     -18.92       3.41        0.00      50.45       1.51       0.88       2.32       ----

> <Gold.Chemscore.Fitness>
15.7112

> <Gold.Chemscore.DG>
-18.9151

> <Gold.Chemscore.ZeroCoef>
-5.4800

> <Gold.Chemscore.Hbond>
3.4149

> <Gold.Chemscore.Metal>
0.0000

> <Gold.Chemscore.Lipo>
50.4500

> <Gold.Chemscore.Internal_Hbond>
0.0000

> <Gold.Chemscore.DEClash>
0.8845

> <Gold.Chemscore.DEInternal>
2.3195

> <Gold.Chemscore.Rot>
1.5131

> <Gold.Chemscore.Internal.Correction>
   9.000000E+99

> <Gold.Chemscore.Hbonds>
donor molecule, donor type, donor heavy atom, donor atom, acceptor molecule, acceptor atom, score
      L1  H     9    23       P1  7948  0.28
      L1  H    14    40       P1  7948  0.69
      P1  H  7989  7998       L1     4  0.28
      P1  H 10752 10765       L1     8  0.35

> <Gold.Chemscore.Hbond.Weighted>
-11.4059

> <Gold.Chemscore.Metal.Weighted>
-0.0000

> <Gold.Chemscore.Lipo.Weighted>
-5.9026

> <Gold.Chemscore.Internal_Hbond.Weighted>
0.0000

> <Gold.Chemscore.DEClash.Weighted>
0.8845

> <Gold.Chemscore.DEInternal.Weighted>
2.3195

> <Gold.Chemscore.Rot.Weighted>
3.8735

> <Gold.Chemscore.Internal.Correction.Weighted>
   9.000000E+99

> <Gold.Protein.RotatedTorsions>
[ 6907 6896 6895 6894 ] final   28.49 input  -60.11 | X-H torsion
[ 7974 7965 7964 7962 ] final  -82.18 input  175.53 | X-H torsion
[ 8008 7997 7996 7995 ] final -121.00 input   59.86 | X-H torsion
[ 10167 10162 10161 10158 ] final  115.60 input  -65.29 | X-H torsion
[ 10718 10713 10712 10709 ] final   52.19 input   66.30 | X-H torsion
[ 10763 10752 10751 10750 ] final -171.88 input  -60.55 | X-H torsion
[ 11005 11000 10999 10996 ] final -127.11 input  -57.11 | X-H torsion

> <Gold.Protein.ActiveResidues>
 VAL166  LYS551  ARG553  GLY616  TRP617  ASP618  TYR619  PRO620  LYS621  CYS622 
 ASP623  PHE694  ASN695  SER759  ASP760  ASP761  ALA762  ILE779  LEU786  VAL792 
 PHE793  MET794  SER795  GLU796  ALA797  LYS798  CYS799  TRP800  GLU811  SER814 

> <Gold.Protein.RotatedAtoms>
  152.0177  134.9840  160.0569 H   0  0  0  0  0  0  0  0  0  0  0  0  # atno 6907 bound_to 6896
  152.1367  133.4435  159.4755 H   0  0  0  0  0  0  0  0  0  0  0  0  # atno 6908 bound_to 6896
  150.6861  134.2273  159.4463 H   0  0  0  0  0  0  0  0  0  0  0  0  # atno 6909 bound_to 6896
  145.5367  140.9515  143.1573 H   0  0  0  0  0  0  0  0  0  0  0  0  # atno 7974 bound_to 7965
  155.1410  140.0402  157.2798 H   0  0  0  0  0  0  0  0  0  0  0  0  # atno 8008 bound_to 7997
  154.6473  140.2561  155.7227 H   0  0  0  0  0  0  0  0  0  0  0  0  # atno 8009 bound_to 7997
  156.2561  140.2843  156.0892 H   0  0  0  0  0  0  0  0  0  0  0  0  # atno 8010 bound_to 7997
  139.6306  144.7114  151.2441 H   0  0  0  0  0  0  0  0  0  0  0  0  # atno 10167 bound_to 10162
  157.5052  130.8464  149.8365 H   0  0  0  0  0  0  0  0  0  0  0  0  # atno 10718 bound_to 10713
  154.6256  135.2880  155.0276 H   0  0  0  0  0  0  0  0  0  0  0  0  # atno 10763 bound_to 10752
  154.1455  135.6512  153.4955 H   0  0  0  0  0  0  0  0  0  0  0  0  # atno 10764 bound_to 10752
  153.0256  135.5343  154.7063 H   0  0  0  0  0  0  0  0  0  0  0  0  # atno 10765 bound_to 10752
  140.9626  134.0915  157.3952 H   0  0  0  0  0  0  0  0  0  0  0  0  # atno 11005 bound_to 11000
  144.7598  139.6985  143.7239 LP  0  0  0  0  0  0  0  0  0  0  0  0  # atno 17320 bound_to 7965
  146.2008  139.5302  142.9744 LP  0  0  0  0  0  0  0  0  0  0  0  0  # atno 17321 bound_to 7965
  140.7437  143.6487  150.8268 LP  0  0  0  0  0  0  0  0  0  0  0  0  # atno 17342 bound_to 10162
  140.0112  143.5641  152.2838 LP  0  0  0  0  0  0  0  0  0  0  0  0  # atno 17343 bound_to 10162
  156.0253  130.3781  150.1840 LP  0  0  0  0  0  0  0  0  0  0  0  0  # atno 17370 bound_to 10713
  157.0030  130.9928  151.3386 LP  0  0  0  0  0  0  0  0  0  0  0  0  # atno 17371 bound_to 10713
  139.8883  135.0097  156.6614 LP  0  0  0  0  0  0  0  0  0  0  0  0  # atno 17394 bound_to 11000
  140.7445  133.8950  155.8302 LP  0  0  0  0  0  0  0  0  0  0  0  0  # atno 17395 bound_to 11000

$$$$
