AV-unprocessed.smi:571|AV-procd|sdf|2963|dock6
  -GOLD-   2262023463D 1   1.00000     0.00000
 Structure written by MMmdl.
 44 45  0  0  0  0  0  0  0  0  2 V2000
  151.8711  135.6085  156.7314 C   0  0  0  0  0  0  0  0  0  0  0  0
  150.4594  135.2430  156.2443 C   0  0  2  0  0  0  0  0  0  0  0  0
  150.2241  135.6431  154.7644 C   0  0  0  0  0  0  0  0  0  0  0  0
  149.1817  134.8241  154.0924 N   0  3  0  0  0  0  0  0  0  0  0  0
  149.5514  133.3890  153.9950 C   0  0  0  0  0  0  0  0  0  0  0  0
  148.5350  132.6183  153.1361 C   0  0  0  0  0  0  0  0  0  0  0  0
  147.1134  132.7804  153.6906 C   0  0  0  0  0  0  0  0  0  0  0  0
  146.7680  134.2698  153.8223 C   0  0  0  0  0  0  0  0  0  0  0  0
  147.8222  135.0089  154.6638 C   0  0  0  0  0  0  0  0  0  0  0  0
  149.4301  135.7530  157.1568 N   0  0  0  0  0  0  0  0  0  0  0  0
  148.8787  135.1063  158.1976 C   0  0  0  0  0  0  0  0  0  0  0  0
  149.1522  133.9426  158.4923 O   0  0  0  0  0  0  0  0  0  0  0  0
  147.8762  135.9112  159.0343 C   0  0  0  0  0  0  0  0  0  0  0  0
  147.5006  135.2167  160.2761 N   0  0  0  0  0  0  0  0  0  0  0  0
  146.9452  133.9287  160.1348 C   0  0  0  0  0  0  0  0  0  0  0  0
  146.5497  133.2057  161.1942 C   0  0  0  0  0  0  0  0  0  0  0  0
  146.7070  133.7807  162.5093 C   0  0  0  0  0  0  0  0  0  0  0  0
  147.2321  135.0135  162.6552 C   0  0  0  0  0  0  0  0  0  0  0  0
  147.6595  135.8105  161.4993 C   0  0  0  0  0  0  0  0  0  0  0  0
  148.1268  136.9427  161.6235 O   0  0  0  0  0  0  0  0  0  0  0  0
  152.6321  135.1380  156.1083 H   0  0  0  0  0  0  0  0  0  0  0  0
  152.0324  135.2731  157.7564 H   0  0  0  0  0  0  0  0  0  0  0  0
  152.0424  136.6849  156.7033 H   0  0  0  0  0  0  0  0  0  0  0  0
  150.3777  134.1578  156.3070 H   0  0  0  0  0  0  0  0  0  0  0  0
  149.9148  136.6890  154.7388 H   0  0  0  0  0  0  0  0  0  0  0  0
  151.1567  135.5967  154.2000 H   0  0  0  0  0  0  0  0  0  0  0  0
  150.5405  133.2920  153.5457 H   0  0  0  0  0  0  0  0  0  0  0  0
  149.6111  132.9572  154.9952 H   0  0  0  0  0  0  0  0  0  0  0  0
  148.5726  132.9843  152.1090 H   0  0  0  0  0  0  0  0  0  0  0  0
  148.8029  131.5620  153.0977 H   0  0  0  0  0  0  0  0  0  0  0  0
  146.3942  132.2818  153.0399 H   0  0  0  0  0  0  0  0  0  0  0  0
  147.0405  132.2972  154.6658 H   0  0  0  0  0  0  0  0  0  0  0  0
  146.7099  134.7209  152.8306 H   0  0  0  0  0  0  0  0  0  0  0  0
  145.7819  134.3857  154.2733 H   0  0  0  0  0  0  0  0  0  0  0  0
  147.8049  134.6478  155.6933 H   0  0  0  0  0  0  0  0  0  0  0  0
  147.5684  136.0681  154.6958 H   0  0  0  0  0  0  0  0  0  0  0  0
  149.1200  136.6997  156.9893 H   0  0  0  0  0  0  0  0  0  0  0  0
  148.3034  136.8848  159.2808 H   0  0  0  0  0  0  0  0  0  0  0  0
  147.0045  136.1318  158.4164 H   0  0  0  0  0  0  0  0  0  0  0  0
  146.8575  133.5758  159.1172 H   0  0  0  0  0  0  0  0  0  0  0  0
  146.1229  132.2217  161.0667 H   0  0  0  0  0  0  0  0  0  0  0  0
  146.4022  133.2198  163.3805 H   0  0  0  0  0  0  0  0  0  0  0  0
  147.3417  135.4275  163.6469 H   0  0  0  0  0  0  0  0  0  0  0  0
  149.1436  135.1603  153.1407 H   0  0  0  0  0  0  0  0  0  0  0  0
  1  2  1  0  0  0  0
  1 21  1  0  0  0  0
  1 22  1  0  0  0  0
  1 23  1  0  0  0  0
  2  3  1  0  0  0  0
  2 10  1  0  0  0  0
  2 24  1  0  0  0  0
  3  4  1  0  0  0  0
  3 25  1  0  0  0  0
  3 26  1  0  0  0  0
  4  9  1  0  0  0  0
  4  5  1  0  0  0  0
  4 44  1  0  0  0  0
  5  6  1  0  0  0  0
  5 27  1  0  0  0  0
  5 28  1  0  0  0  0
  6  7  1  0  0  0  0
  6 29  1  0  0  0  0
  6 30  1  0  0  0  0
  7  8  1  0  0  0  0
  7 31  1  0  0  0  0
  7 32  1  0  0  0  0
  8  9  1  0  0  0  0
  8 33  1  0  0  0  0
  8 34  1  0  0  0  0
  9 35  1  0  0  0  0
  9 36  1  0  0  0  0
 10 11  1  0  0  0  0
 10 37  1  0  0  0  0
 11 12  2  0  0  0  0
 11 13  1  0  0  0  0
 13 14  1  0  0  0  0
 13 38  1  0  0  0  0
 13 39  1  0  0  0  0
 14 19  1  0  0  0  0
 14 15  1  0  0  0  0
 15 16  2  0  0  0  0
 15 40  1  0  0  0  0
 16 17  1  0  0  0  0
 16 41  1  0  0  0  0
 17 18  2  0  0  0  0
 17 42  1  0  0  0  0
 18 19  1  0  0  0  0
 18 43  1  0  0  0  0
 19 20  2  0  0  0  0
M  CHG  1   4   1
M  END
> <s_m_source_file>
AV-unprocessed.smi

> <i_m_source_file_index>
571

> <i_lp_mmshare_version>
43012

> <i_f3d_flags>
0

> <s_epik_input>
W0NIMl0xW0NIMl1bQ0gyXVtDSDJdW0NIMl1OMVtDSDJdW0NAQEhdKFtDSDNdKVtOSF1DKD1PKVtDSDJdbjJbY0hdW2NIXVtjSF1bY0hdYzI9Tw==

> <s_epik_cmdline>
J2VwaWtfcHl0aG9uJywgJy1waCcsICc3LjAnLCAnLXRuJywgJzgnLCAnLW1hJywgJzIwMCcsICctbWV0YWxfYmluZGluZycsICctaW1hZScsICc8aW5maWxlLm1hZT4nLCAnLW9tYWUnLCAnPG91dGZpbGUubWFlPic=

> <r_lp_tautomer_probability>
1

> <r_epik_Ionization_Penalty>
0.00237248

> <r_epik_Ionization_Penalty_Charging>
0.0023724

> <r_epik_Ionization_Penalty_Neutral>
8.2065e-08

> <r_epik_State_Penalty>
0.00163922

> <r_epik_Charging_Adjusted_Penalty>
0.00401161

> <i_epik_Tot_Q>
1

> <i_epik_Tot_abs_Q>
1

> <r_epik_Metal_State_Penalty>
-0

> <b_epik_Metal_Only>
0

> <s_lp_Force_Field>
OPLS_2005

> <r_lp_Energy>
32.5109

> <b_lp_Chiralities_Consistent>
1

> <s_lp_Variant>
AV-unprocessed.smi:571-1

> <Gold.Version>
5.8.1

> <Gold.Id.Protein>
6NUR|6NUR_protein|mol2

> <Gold.PLP.Fitness>
44.9570

> <Gold.PLP.PLP>
-31.9101

> <Gold.PLP.part.hbond>
-4.0000

> <Gold.PLP.part.metal>
0.0000

> <Gold.PLP.part.buried>
-1.3171

> <Gold.PLP.part.nonpolar>
-25.6252

> <Gold.PLP.part.repulsive>
0.0683

> <Gold.PLP.ligand.clash>
0.0000

> <Gold.PLP.ligand.torsion>
0.6521

> <Gold.PLP.Chemscore.Hbond>
4.7360

> <Gold.PLP.Chemscore.CHOScore>
0.0000

> <Gold.PLP.Chemscore.Metal>
0.0000

> <Gold.Chemscore.Hbonds>
donor molecule, donor type, donor heavy atom, donor atom, acceptor molecule, acceptor atom, score
      L1  H     4    44       P1  7948  1.60
      P1  H  6896  6908       L1    12  1.00
      P1  H  6931  6943       L1    20  1.00
      P1  H  6934  6947       L1    20  0.08

> <Gold.PLP.Chemscore.Internal.Correction>
0.1430

> <Gold.Rescore>
     Score         DG    S(hbond)    S(metal)    S(lipo)     H(rot)  DE(clash)    DE(int)     intcor
     17.55     -20.48       3.56        0.00      66.95       1.84       0.00       2.92       ----

> <Gold.Chemscore.Fitness>
17.5530

> <Gold.Chemscore.DG>
-20.4806

> <Gold.Chemscore.ZeroCoef>
-5.4800

> <Gold.Chemscore.Hbond>
3.5572

> <Gold.Chemscore.Metal>
0.0000

> <Gold.Chemscore.Lipo>
66.9503

> <Gold.Chemscore.Internal_Hbond>
0.0000

> <Gold.Chemscore.DEClash>
0.0042

> <Gold.Chemscore.DEInternal>
2.9234

> <Gold.Chemscore.Rot>
1.8413

> <Gold.Chemscore.Internal.Correction>
   9.000000E+99

> <Gold.Chemscore.Hbonds>
donor molecule, donor type, donor heavy atom, donor atom, acceptor molecule, acceptor atom, score
      L1  H     4    44       P1  7948  0.12
      P1  H  6896  6908       L1    12  0.70
      P1  H  6931  6943       L1    20  0.99
      P1  H  6934  6947       L1    20  0.10

> <Gold.Chemscore.Hbond.Weighted>
-11.8811

> <Gold.Chemscore.Metal.Weighted>
-0.0000

> <Gold.Chemscore.Lipo.Weighted>
-7.8332

> <Gold.Chemscore.Internal_Hbond.Weighted>
0.0000

> <Gold.Chemscore.DEClash.Weighted>
0.0042

> <Gold.Chemscore.DEInternal.Weighted>
2.9234

> <Gold.Chemscore.Rot.Weighted>
4.7137

> <Gold.Chemscore.Internal.Correction.Weighted>
   9.000000E+99

> <Gold.Protein.RotatedTorsions>
[ 6907 6896 6895 6894 ] final  128.19 input  -60.11 | X-H torsion
[ 7974 7965 7964 7962 ] final  -35.32 input  175.53 | X-H torsion
[ 8008 7997 7996 7995 ] final   76.18 input   59.86 | X-H torsion
[ 10167 10162 10161 10158 ] final  160.75 input  -65.29 | X-H torsion
[ 10718 10713 10712 10709 ] final  -56.53 input   66.30 | X-H torsion
[ 10763 10752 10751 10750 ] final  153.71 input  -60.55 | X-H torsion
[ 11005 11000 10999 10996 ] final  174.50 input  -57.11 | X-H torsion

> <Gold.Protein.ActiveResidues>
 VAL166  LYS551  ARG553  GLY616  TRP617  ASP618  TYR619  PRO620  LYS621  CYS622 
 ASP623  PHE694  ASN695  SER759  ASP760  ASP761  ALA762  ILE779  LEU786  VAL792 
 PHE793  MET794  SER795  GLU796  ALA797  LYS798  CYS799  TRP800  GLU811  SER814 

> <Gold.Protein.RotatedAtoms>
  152.3742  133.6459  159.6110 H   0  0  0  0  0  0  0  0  0  0  0  0  # atno 6907 bound_to 6896
  150.7691  133.9220  159.3410 H   0  0  0  0  0  0  0  0  0  0  0  0  # atno 6908 bound_to 6896
  151.7037  135.0926  160.0307 H   0  0  0  0  0  0  0  0  0  0  0  0  # atno 6909 bound_to 6896
  146.0756  140.6145  142.8932 H   0  0  0  0  0  0  0  0  0  0  0  0  # atno 7974 bound_to 7965
  155.8237  140.3469  155.5529 H   0  0  0  0  0  0  0  0  0  0  0  0  # atno 8008 bound_to 7997
  155.8315  140.0928  157.1809 H   0  0  0  0  0  0  0  0  0  0  0  0  # atno 8009 bound_to 7997
  154.4004  140.1411  156.3607 H   0  0  0  0  0  0  0  0  0  0  0  0  # atno 8010 bound_to 7997
  139.4843  144.4603  151.8713 H   0  0  0  0  0  0  0  0  0  0  0  0  # atno 10167 bound_to 10162
  156.1281  130.4161  150.0318 H   0  0  0  0  0  0  0  0  0  0  0  0  # atno 10718 bound_to 10713
  154.1405  135.2821  155.3162 H   0  0  0  0  0  0  0  0  0  0  0  0  # atno 10763 bound_to 10752
  154.6290  135.5441  153.7662 H   0  0  0  0  0  0  0  0  0  0  0  0  # atno 10764 bound_to 10752
  153.0252  135.6458  154.1552 H   0  0  0  0  0  0  0  0  0  0  0  0  # atno 10765 bound_to 10752
  140.3520  134.7187  157.4274 H   0  0  0  0  0  0  0  0  0  0  0  0  # atno 11005 bound_to 11000
  144.7260  140.4524  143.6973 LP  0  0  0  0  0  0  0  0  0  0  0  0  # atno 17320 bound_to 7965
  145.6311  139.1536  143.2968 LP  0  0  0  0  0  0  0  0  0  0  0  0  # atno 17321 bound_to 7965
  140.4065  144.2425  150.5890 LP  0  0  0  0  0  0  0  0  0  0  0  0  # atno 17342 bound_to 10162
  140.5007  143.2319  151.8683 LP  0  0  0  0  0  0  0  0  0  0  0  0  # atno 17343 bound_to 10162
  156.8238  130.9368  151.3640 LP  0  0  0  0  0  0  0  0  0  0  0  0  # atno 17370 bound_to 10713
  157.6461  130.8846  149.9542 LP  0  0  0  0  0  0  0  0  0  0  0  0  # atno 17371 bound_to 10713
  140.0695  134.5882  155.8657 LP  0  0  0  0  0  0  0  0  0  0  0  0  # atno 17394 bound_to 11000
  141.2009  133.6615  156.5923 LP  0  0  0  0  0  0  0  0  0  0  0  0  # atno 17395 bound_to 11000

$$$$
