AV-unprocessed.smi:1029|AV-procd|sdf|4476|dock9
  -GOLD-   22720 2453D 1   1.00000     0.00000
 Structure written by MMmdl.
 46 47  0  0  0  0  0  0  0  0  2 V2000
  141.4891  135.5874  153.1489 C   0  0  0  0  0  0  0  0  0  0  0  0
  142.7110  136.3099  153.6344 C   0  0  0  0  0  0  0  0  0  0  0  0
  143.3114  137.4838  153.1004 C   0  0  0  0  0  0  0  0  0  0  0  0
  144.3805  137.6839  153.9329 C   0  0  0  0  0  0  0  0  0  0  0  0
  145.3093  138.6753  153.8923 N   0  0  0  0  0  0  0  0  0  0  0  0
  146.5909  138.6465  154.2990 C   0  0  0  0  0  0  0  0  0  0  0  0
  147.1547  137.6863  154.8241 O   0  0  0  0  0  0  0  0  0  0  0  0
  147.2055  139.8126  154.0589 N   0  0  0  0  0  0  0  0  0  0  0  0
  148.6099  140.0697  154.3522 C   0  0  0  0  0  0  0  0  0  0  0  0
  148.7933  141.4234  155.0597 C   0  0  2  0  0  0  0  0  0  0  0  0
  148.5932  142.4503  154.1073 O   0  0  0  0  0  0  0  0  0  0  0  0
  150.2206  141.5761  155.6240 C   0  0  0  0  0  0  0  0  0  0  0  0
  150.3316  142.6964  156.5936 N   0  3  2  0  0  0  0  0  0  0  0  0
  151.7324  143.1590  156.7674 C   0  0  0  0  0  0  0  0  0  0  0  0
  151.7971  144.4158  157.6541 C   0  0  0  0  0  0  0  0  0  0  0  0
  151.1252  144.2002  159.0222 C   0  0  2  0  0  0  0  0  0  0  0  0
  151.9697  143.3288  159.9684 C   0  0  0  0  0  0  0  0  0  0  0  0
  149.7026  143.6488  158.8133 C   0  0  0  0  0  0  0  0  0  0  0  0
  149.6847  142.4088  157.9010 C   0  0  0  0  0  0  0  0  0  0  0  0
  144.4422  136.7274  154.8909 O   0  0  0  0  0  0  0  0  0  0  0  0
  143.3683  135.8519  154.6898 N   0  0  0  0  0  0  0  0  0  0  0  0
  140.8995  136.2165  152.4814 H   0  0  0  0  0  0  0  0  0  0  0  0
  140.8456  135.2942  153.9789 H   0  0  0  0  0  0  0  0  0  0  0  0
  141.7610  134.6847  152.6014 H   0  0  0  0  0  0  0  0  0  0  0  0
  142.9929  138.0658  152.2489 H   0  0  0  0  0  0  0  0  0  0  0  0
  144.9921  139.5414  153.4828 H   0  0  0  0  0  0  0  0  0  0  0  0
  146.6803  140.5564  153.6228 H   0  0  0  0  0  0  0  0  0  0  0  0
  148.9661  139.2667  154.9993 H   0  0  0  0  0  0  0  0  0  0  0  0
  149.2052  140.0268  153.4379 H   0  0  0  0  0  0  0  0  0  0  0  0
  148.0545  141.5219  155.8553 H   0  0  0  0  0  0  0  0  0  0  0  0
  148.9411  143.2581  154.4543 H   0  0  0  0  0  0  0  0  0  0  0  0
  150.5463  140.6523  156.1053 H   0  0  0  0  0  0  0  0  0  0  0  0
  150.9054  141.7364  154.7894 H   0  0  0  0  0  0  0  0  0  0  0  0
  152.3353  142.3554  157.1923 H   0  0  0  0  0  0  0  0  0  0  0  0
  152.1640  143.3939  155.7937 H   0  0  0  0  0  0  0  0  0  0  0  0
  152.8334  144.7290  157.7864 H   0  0  0  0  0  0  0  0  0  0  0  0
  151.2980  145.2373  157.1379 H   0  0  0  0  0  0  0  0  0  0  0  0
  151.0335  145.1756  159.5020 H   0  0  0  0  0  0  0  0  0  0  0  0
  152.1249  142.3243  159.5759 H   0  0  0  0  0  0  0  0  0  0  0  0
  151.4892  143.2317  160.9424 H   0  0  0  0  0  0  0  0  0  0  0  0
  152.9520  143.7723  160.1338 H   0  0  0  0  0  0  0  0  0  0  0  0
  149.2447  143.4138  159.7748 H   0  0  0  0  0  0  0  0  0  0  0  0
  149.0810  144.4252  158.3649 H   0  0  0  0  0  0  0  0  0  0  0  0
  148.6513  142.0987  157.7502 H   0  0  0  0  0  0  0  0  0  0  0  0
  150.1918  141.5728  158.3847 H   0  0  0  0  0  0  0  0  0  0  0  0
  149.8319  143.4720  156.1818 H   0  0  0  0  0  0  0  0  0  0  0  0
  1  2  1  0  0  0  0
  1 22  1  0  0  0  0
  1 23  1  0  0  0  0
  1 24  1  0  0  0  0
  2 21  2  0  0  0  0
  2  3  1  0  0  0  0
  3  4  2  0  0  0  0
  3 25  1  0  0  0  0
  4  5  1  0  0  0  0
  4 20  1  0  0  0  0
  5  6  1  0  0  0  0
  5 26  1  0  0  0  0
  6  7  2  0  0  0  0
  6  8  1  0  0  0  0
  8  9  1  0  0  0  0
  8 27  1  0  0  0  0
  9 10  1  0  0  0  0
  9 28  1  0  0  0  0
  9 29  1  0  0  0  0
 10 11  1  0  0  0  0
 10 12  1  0  0  0  0
 10 30  1  0  0  0  0
 11 31  1  0  0  0  0
 12 13  1  0  0  0  0
 12 32  1  0  0  0  0
 12 33  1  0  0  0  0
 13 19  1  0  0  0  0
 13 14  1  0  0  0  0
 13 46  1  0  0  0  0
 14 15  1  0  0  0  0
 14 34  1  0  0  0  0
 14 35  1  0  0  0  0
 15 16  1  0  0  0  0
 15 36  1  0  0  0  0
 15 37  1  0  0  0  0
 16 17  1  0  0  0  0
 16 18  1  0  0  0  0
 16 38  1  0  0  0  0
 17 39  1  0  0  0  0
 17 40  1  0  0  0  0
 17 41  1  0  0  0  0
 18 19  1  0  0  0  0
 18 42  1  0  0  0  0
 18 43  1  0  0  0  0
 19 44  1  0  0  0  0
 19 45  1  0  0  0  0
 20 21  1  0  0  0  0
M  CHG  1  13   1
M  END
> <s_m_source_file>
AV-unprocessed.smi

> <i_m_source_file_index>
1029

> <i_lp_mmshare_version>
43012

> <i_f3d_flags>
0

> <s_epik_input>
W0NIM11jMVtjSF1jKG9uMSlbTkhdQyg9TylbTkhdW0NIMl1bQ0BIXShbT0hdKVtDSDJdTjJbQ0gyXVtDSDJdW0NIXShbQ0gzXSlbQ0gyXVtDSDJdMg==

> <s_epik_cmdline>
J2VwaWtfcHl0aG9uJywgJy1waCcsICc3LjAnLCAnLXRuJywgJzgnLCAnLW1hJywgJzIwMCcsICctbWV0YWxfYmluZGluZycsICctaW1hZScsICc8aW5maWxlLm1hZT4nLCAnLW9tYWUnLCAnPG91dGZpbGUubWFlPic=

> <r_lp_tautomer_probability>
1

> <r_epik_Ionization_Penalty>
0.00211787

> <r_epik_Ionization_Penalty_Charging>
0.00153238

> <r_epik_Ionization_Penalty_Neutral>
0.000585488

> <r_epik_State_Penalty>
-0

> <r_epik_Charging_Adjusted_Penalty>
0.00153238

> <i_epik_Tot_Q>
1

> <i_epik_Tot_abs_Q>
1

> <r_epik_Metal_State_Penalty>
-0

> <b_epik_Metal_Only>
0

> <s_lp_Force_Field>
OPLS_2005

> <r_lp_Energy>
23.9078

> <b_lp_Chiralities_Consistent>
1

> <s_lp_Variant>
AV-unprocessed.smi:1029-3

> <Gold.Version>
5.8.1

> <Gold.Id.Protein>
6NUR|6NUR_protein|mol2

> <Gold.PLP.Fitness>
44.3638

> <Gold.PLP.PLP>
-33.2466

> <Gold.PLP.part.hbond>
-4.0011

> <Gold.PLP.part.metal>
0.0000

> <Gold.PLP.part.buried>
-6.4041

> <Gold.PLP.part.nonpolar>
-23.6021

> <Gold.PLP.part.repulsive>
0.1981

> <Gold.PLP.ligand.clash>
0.0000

> <Gold.PLP.ligand.torsion>
0.5802

> <Gold.PLP.Chemscore.Hbond>
4.0705

> <Gold.PLP.Chemscore.CHOScore>
0.0000

> <Gold.PLP.Chemscore.Metal>
0.0000

> <Gold.Chemscore.Hbonds>
donor molecule, donor type, donor heavy atom, donor atom, acceptor molecule, acceptor atom, score
      L1  H     5    26       P1 10175  0.96
      L1  H    11    31       P1  8028  1.00
      L1  H    13    46       P1  8028  2.00
      P1  H  8011  8017       L1    11  0.10

> <Gold.PLP.Chemscore.Internal.Correction>
0.0661

> <Gold.Rescore>
     Score         DG    S(hbond)    S(metal)    S(lipo)     H(rot)  DE(clash)    DE(int)     intcor
     16.58     -19.84       2.96        0.00      92.24       2.46       1.54       1.73       ----

> <Gold.Chemscore.Fitness>
16.5770

> <Gold.Chemscore.DG>
-19.8405

> <Gold.Chemscore.ZeroCoef>
-5.4800

> <Gold.Chemscore.Hbond>
2.9558

> <Gold.Chemscore.Metal>
0.0000

> <Gold.Chemscore.Lipo>
92.2378

> <Gold.Chemscore.Internal_Hbond>
0.0000

> <Gold.Chemscore.DEClash>
1.5355

> <Gold.Chemscore.DEInternal>
1.7280

> <Gold.Chemscore.Rot>
2.4624

> <Gold.Chemscore.Internal.Correction>
   9.000000E+99

> <Gold.Chemscore.Hbonds>
donor molecule, donor type, donor heavy atom, donor atom, acceptor molecule, acceptor atom, score
      L1  H     5    26       P1 10175  0.92
      L1  H    11    31       P1  8028  0.96
      L1  H    13    46       P1  8028  1.00
      P1  H  8011  8017       L1    11  0.01

> <Gold.Chemscore.Hbond.Weighted>
-9.8724

> <Gold.Chemscore.Metal.Weighted>
-0.0000

> <Gold.Chemscore.Lipo.Weighted>
-10.7918

> <Gold.Chemscore.Internal_Hbond.Weighted>
0.0000

> <Gold.Chemscore.DEClash.Weighted>
1.5355

> <Gold.Chemscore.DEInternal.Weighted>
1.7280

> <Gold.Chemscore.Rot.Weighted>
6.3037

> <Gold.Chemscore.Internal.Correction.Weighted>
   9.000000E+99

> <Gold.Protein.RotatedTorsions>
[ 6907 6896 6895 6894 ] final   28.55 input  -60.11 | X-H torsion
[ 7974 7965 7964 7962 ] final   95.23 input  175.53 | X-H torsion
[ 8008 7997 7996 7995 ] final   45.82 input   59.86 | X-H torsion
[ 10167 10162 10161 10158 ] final  -32.17 input  -65.29 | X-H torsion
[ 10718 10713 10712 10709 ] final  -77.59 input   66.30 | X-H torsion
[ 10763 10752 10751 10750 ] final   14.23 input  -60.55 | X-H torsion
[ 11005 11000 10999 10996 ] final  -42.64 input  -57.11 | X-H torsion

> <Gold.Protein.ActiveResidues>
 VAL166  LYS551  ARG553  GLY616  TRP617  ASP618  TYR619  PRO620  LYS621  CYS622 
 ASP623  PHE694  ASN695  SER759  ASP760  ASP761  ALA762  ILE779  LEU786  VAL792 
 PHE793  MET794  SER795  GLU796  ALA797  LYS798  CYS799  TRP800  GLU811  SER814 

> <Gold.Protein.RotatedAtoms>
  152.0186  134.9835  160.0569 H   0  0  0  0  0  0  0  0  0  0  0  0  # atno 6907 bound_to 6896
  152.1359  133.4430  159.4751 H   0  0  0  0  0  0  0  0  0  0  0  0  # atno 6908 bound_to 6896
  150.6860  134.2282  159.4467 H   0  0  0  0  0  0  0  0  0  0  0  0  # atno 6909 bound_to 6896
  145.4550  139.2290  143.3019 H   0  0  0  0  0  0  0  0  0  0  0  0  # atno 7974 bound_to 7965
  155.3423  140.3409  155.4239 H   0  0  0  0  0  0  0  0  0  0  0  0  # atno 8008 bound_to 7997
  156.1807  140.1663  156.8315 H   0  0  0  0  0  0  0  0  0  0  0  0  # atno 8009 bound_to 7997
  154.5330  140.0741  156.8362 H   0  0  0  0  0  0  0  0  0  0  0  0  # atno 8010 bound_to 7997
  140.7225  143.3715  151.1770 H   0  0  0  0  0  0  0  0  0  0  0  0  # atno 10167 bound_to 10162
  156.0140  130.4495  150.3368 H   0  0  0  0  0  0  0  0  0  0  0  0  # atno 10718 bound_to 10713
  153.1642  135.6801  153.8698 H   0  0  0  0  0  0  0  0  0  0  0  0  # atno 10763 bound_to 10752
  153.8084  135.3146  155.3399 H   0  0  0  0  0  0  0  0  0  0  0  0  # atno 10764 bound_to 10752
  154.7954  135.4810  154.0239 H   0  0  0  0  0  0  0  0  0  0  0  0  # atno 10765 bound_to 10752
  141.0329  133.6812  156.2622 H   0  0  0  0  0  0  0  0  0  0  0  0  # atno 11005 bound_to 11000
  146.2483  140.5313  142.8904 LP  0  0  0  0  0  0  0  0  0  0  0  0  # atno 17320 bound_to 7965
  144.8038  140.6262  143.6460 LP  0  0  0  0  0  0  0  0  0  0  0  0  # atno 17321 bound_to 7965
  139.7287  143.9108  152.3012 LP  0  0  0  0  0  0  0  0  0  0  0  0  # atno 17342 bound_to 10162
  139.8889  144.6976  150.8793 LP  0  0  0  0  0  0  0  0  0  0  0  0  # atno 17343 bound_to 10162
  157.1465  131.0310  151.2904 LP  0  0  0  0  0  0  0  0  0  0  0  0  # atno 17370 bound_to 10713
  157.4428  130.7554  149.7084 LP  0  0  0  0  0  0  0  0  0  0  0  0  # atno 17371 bound_to 10713
  140.6374  134.5201  157.5566 LP  0  0  0  0  0  0  0  0  0  0  0  0  # atno 17394 bound_to 11000
  139.9220  134.8129  156.1181 LP  0  0  0  0  0  0  0  0  0  0  0  0  # atno 17395 bound_to 11000

$$$$
