AV-unprocessed.smi:2865|AV-procd|sdf|11015|dock9
  -GOLD-   2272015473D 1   1.00000     0.00000
 Structure written by MMmdl.
 38 41  0  0  0  0  0  0  0  0  1 V2000
  150.2936  134.3782  155.4894 O   0  0  0  0  0  0  0  0  0  0  0  0
  149.6985  134.8819  154.5397 C   0  0  0  0  0  0  0  0  0  0  0  0
  149.0188  134.1907  153.6039 N   0  0  0  0  0  0  0  0  0  0  0  0
  148.7752  132.7930  153.5298 C   0  0  0  0  0  0  0  0  0  0  0  0
  149.6097  131.7852  154.0738 C   0  0  0  0  0  0  0  0  0  0  0  0
  149.2952  130.4751  153.9762 N   0  0  0  0  0  0  0  0  0  0  0  0
  148.1629  130.1684  153.3373 C   0  0  0  0  0  0  0  0  0  0  0  0
  147.8014  128.7167  153.2685 C   0  0  0  0  0  0  0  0  0  0  0  0
  147.6939  128.0060  151.9349 C   0  0  0  0  0  0  0  0  0  0  0  0
  146.4521  128.2773  152.7374 C   0  0  0  0  0  0  0  0  0  0  0  0
  147.2912  131.0296  152.8057 N   0  0  0  0  0  0  0  0  0  0  0  0
  147.5972  132.3414  152.8988 C   0  0  0  0  0  0  0  0  0  0  0  0
  149.7079  136.2117  154.3405 N   0  0  0  0  0  0  0  0  0  0  0  0
  150.3478  137.2418  155.1605 C   0  0  2  0  0  0  0  0  0  0  0  0
  150.5434  138.5662  154.4107 C   0  0  0  0  0  0  0  0  0  0  0  0
  152.0643  138.7531  154.4903 C   0  0  1  0  0  0  0  0  0  0  0  0
  152.5354  139.0697  155.9174 C   0  0  0  0  0  0  0  0  0  0  0  0
  152.3731  137.7169  156.6111 C   0  0  0  0  0  0  0  0  0  0  0  0
  151.8026  136.8547  155.4775 C   0  0  2  0  0  0  0  0  0  0  0  0
  152.4901  137.4083  154.3675 O   0  0  0  0  0  0  0  0  0  0  0  0
  148.6486  134.7347  152.8385 H   0  0  0  0  0  0  0  0  0  0  0  0
  150.5209  132.0026  154.6080 H   0  0  0  0  0  0  0  0  0  0  0  0
  148.2232  128.1637  154.1057 H   0  0  0  0  0  0  0  0  0  0  0  0
  147.8441  128.5942  151.0315 H   0  0  0  0  0  0  0  0  0  0  0  0
  148.0467  126.9778  151.8860 H   0  0  0  0  0  0  0  0  0  0  0  0
  145.9732  127.4308  153.2251 H   0  0  0  0  0  0  0  0  0  0  0  0
  145.7763  129.0460  152.3675 H   0  0  0  0  0  0  0  0  0  0  0  0
  146.8922  133.0364  152.4666 H   0  0  0  0  0  0  0  0  0  0  0  0
  149.2373  136.5456  153.5116 H   0  0  0  0  0  0  0  0  0  0  0  0
  149.7877  137.3786  156.0874 H   0  0  0  0  0  0  0  0  0  0  0  0
  150.2270  138.4891  153.3692 H   0  0  0  0  0  0  0  0  0  0  0  0
  149.9992  139.3934  154.8676 H   0  0  0  0  0  0  0  0  0  0  0  0
  152.4674  139.4237  153.7310 H   0  0  0  0  0  0  0  0  0  0  0  0
  153.5815  139.3775  155.9230 H   0  0  0  0  0  0  0  0  0  0  0  0
  151.9438  139.8587  156.3828 H   0  0  0  0  0  0  0  0  0  0  0  0
  153.3415  137.3357  156.9371 H   0  0  0  0  0  0  0  0  0  0  0  0
  151.7133  137.7596  157.4785 H   0  0  0  0  0  0  0  0  0  0  0  0
  151.9645  135.7856  155.6208 H   0  0  0  0  0  0  0  0  0  0  0  0
  1  2  2  0  0  0  0
  2  3  1  0  0  0  0
  2 13  1  0  0  0  0
  3  4  1  0  0  0  0
  3 21  1  0  0  0  0
  4 12  1  0  0  0  0
  4  5  2  0  0  0  0
  5  6  1  0  0  0  0
  5 22  1  0  0  0  0
  6  7  2  0  0  0  0
  7  8  1  0  0  0  0
  7 11  1  0  0  0  0
  8 10  1  0  0  0  0
  8  9  1  0  0  0  0
  8 23  1  0  0  0  0
  9 10  1  0  0  0  0
  9 24  1  0  0  0  0
  9 25  1  0  0  0  0
 10 26  1  0  0  0  0
 10 27  1  0  0  0  0
 11 12  2  0  0  0  0
 12 28  1  0  0  0  0
 13 14  1  0  0  0  0
 13 29  1  0  0  0  0
 14 19  1  0  0  0  0
 14 15  1  0  0  0  0
 14 30  1  0  0  0  0
 15 16  1  0  0  0  0
 15 31  1  0  0  0  0
 15 32  1  0  0  0  0
 16 20  1  0  0  0  0
 16 17  1  0  0  0  0
 16 33  1  0  0  0  0
 17 18  1  0  0  0  0
 17 34  1  0  0  0  0
 17 35  1  0  0  0  0
 18 19  1  0  0  0  0
 18 36  1  0  0  0  0
 18 37  1  0  0  0  0
 19 20  1  0  0  0  0
 19 38  1  0  0  0  0
M  END
> <s_m_source_file>
AV-unprocessed.smi

> <i_m_source_file_index>
2865

> <i_lp_mmshare_version>
43012

> <i_f3d_flags>
0

> <s_epik_input>
W0NIMl0xW0NIMl1bQ0BIXShPMilbQ0BASF0oW0NIMl1bQ0BASF0xMilbTkhdQyg9TylbTkhdYzNbY0hdbmMobltjSF0zKVtDSF00W0NIMl1bQ0gyXTQ=

> <s_epik_cmdline>
J2VwaWtfcHl0aG9uJywgJy1waCcsICc3LjAnLCAnLXRuJywgJzgnLCAnLW1hJywgJzIwMCcsICctbWV0YWxfYmluZGluZycsICctaW1hZScsICc8aW5maWxlLm1hZT4nLCAnLW9tYWUnLCAnPG91dGZpbGUubWFlPic=

> <r_lp_tautomer_probability>
1

> <r_epik_Ionization_Penalty>
2.43104e-05

> <r_epik_Ionization_Penalty_Charging>
0

> <r_epik_Ionization_Penalty_Neutral>
2.43104e-05

> <r_epik_State_Penalty>
-0

> <r_epik_Charging_Adjusted_Penalty>
0

> <i_epik_Tot_Q>
0

> <i_epik_Tot_abs_Q>
0

> <r_epik_Metal_State_Penalty>
-0

> <b_epik_Metal_Only>
0

> <s_lp_Force_Field>
OPLS_2005

> <r_lp_Energy>
45.9934

> <b_lp_Chiralities_Consistent>
1

> <s_lp_Variant>
AV-unprocessed.smi:2865-1

> <Gold.Version>
5.8.1

> <Gold.Id.Protein>
6NUR|6NUR_protein|mol2

> <Gold.PLP.Fitness>
38.6689

> <Gold.PLP.PLP>
-31.9414

> <Gold.PLP.part.hbond>
-3.0000

> <Gold.PLP.part.metal>
0.0000

> <Gold.PLP.part.buried>
-4.2775

> <Gold.PLP.part.nonpolar>
-26.3901

> <Gold.PLP.part.repulsive>
0.8142

> <Gold.PLP.ligand.clash>
0.0000

> <Gold.PLP.ligand.torsion>
0.4291

> <Gold.PLP.Chemscore.Hbond>
2.4800

> <Gold.PLP.Chemscore.CHOScore>
0.0000

> <Gold.PLP.Chemscore.Metal>
0.0000

> <Gold.Chemscore.Hbonds>
donor molecule, donor type, donor heavy atom, donor atom, acceptor molecule, acceptor atom, score
      L1  H     3    21       P1  7948  0.76
      L1  H    13    29       P1  7948  0.86
      P1  H 10752 10765       L1    20  0.10

> <Gold.PLP.Chemscore.Internal.Correction>
0.1458

> <Gold.Rescore>
     Score         DG    S(hbond)    S(metal)    S(lipo)     H(rot)  DE(clash)    DE(int)     intcor
     14.57     -15.51       1.35        0.00      73.63       1.20       0.02       0.92       ----

> <Gold.Chemscore.Fitness>
14.5722

> <Gold.Chemscore.DG>
-15.5129

> <Gold.Chemscore.ZeroCoef>
-5.4800

> <Gold.Chemscore.Hbond>
1.3454

> <Gold.Chemscore.Metal>
0.0000

> <Gold.Chemscore.Lipo>
73.6265

> <Gold.Chemscore.Internal_Hbond>
0.0000

> <Gold.Chemscore.DEClash>
0.0234

> <Gold.Chemscore.DEInternal>
0.9173

> <Gold.Chemscore.Rot>
1.2012

> <Gold.Chemscore.Internal.Correction>
   9.000000E+99

> <Gold.Chemscore.Hbonds>
donor molecule, donor type, donor heavy atom, donor atom, acceptor molecule, acceptor atom, score
      L1  H     3    21       P1  7948  0.15
      L1  H    13    29       P1  7948  0.81

> <Gold.Chemscore.Hbond.Weighted>
-4.4938

> <Gold.Chemscore.Metal.Weighted>
-0.0000

> <Gold.Chemscore.Lipo.Weighted>
-8.6143

> <Gold.Chemscore.Internal_Hbond.Weighted>
0.0000

> <Gold.Chemscore.DEClash.Weighted>
0.0234

> <Gold.Chemscore.DEInternal.Weighted>
0.9173

> <Gold.Chemscore.Rot.Weighted>
3.0752

> <Gold.Chemscore.Internal.Correction.Weighted>
   9.000000E+99

> <Gold.Protein.RotatedTorsions>
[ 6907 6896 6895 6894 ] final   54.15 input  -60.11 | X-H torsion
[ 7974 7965 7964 7962 ] final -169.44 input  175.53 | X-H torsion
[ 8008 7997 7996 7995 ] final -146.66 input   59.86 | X-H torsion
[ 10167 10162 10161 10158 ] final  114.71 input  -65.29 | X-H torsion
[ 10718 10713 10712 10709 ] final   26.32 input   66.30 | X-H torsion
[ 10763 10752 10751 10750 ] final  150.84 input  -60.55 | X-H torsion
[ 11005 11000 10999 10996 ] final  -94.80 input  -57.11 | X-H torsion

> <Gold.Protein.ActiveResidues>
 VAL166  LYS551  ARG553  GLY616  TRP617  ASP618  TYR619  PRO620  LYS621  CYS622 
 ASP623  PHE694  ASN695  SER759  ASP760  ASP761  ALA762  ILE779  LEU786  VAL792 
 PHE793  MET794  SER795  GLU796  ALA797  LYS798  CYS799  TRP800  GLU811  SER814 

> <Gold.Protein.RotatedAtoms>
  152.3410  134.7135  160.0263 H   0  0  0  0  0  0  0  0  0  0  0  0  # atno 6907 bound_to 6896
  151.7520  133.3322  159.3402 H   0  0  0  0  0  0  0  0  0  0  0  0  # atno 6908 bound_to 6896
  150.7479  134.6116  159.6134 H   0  0  0  0  0  0  0  0  0  0  0  0  # atno 6909 bound_to 6896
  144.7185  140.2220  143.6315 H   0  0  0  0  0  0  0  0  0  0  0  0  # atno 7974 bound_to 7965
  155.5630  140.0627  157.2824 H   0  0  0  0  0  0  0  0  0  0  0  0  # atno 8008 bound_to 7997
  154.4384  140.1882  156.0847 H   0  0  0  0  0  0  0  0  0  0  0  0  # atno 8009 bound_to 7997
  156.0432  140.3293  155.7271 H   0  0  0  0  0  0  0  0  0  0  0  0  # atno 8010 bound_to 7997
  139.6369  144.7120  151.2317 H   0  0  0  0  0  0  0  0  0  0  0  0  # atno 10167 bound_to 10162
  157.2052  130.6908  149.6205 H   0  0  0  0  0  0  0  0  0  0  0  0  # atno 10718 bound_to 10713
  154.0940  135.2850  155.3265 H   0  0  0  0  0  0  0  0  0  0  0  0  # atno 10763 bound_to 10752
  154.6601  135.5338  153.8010 H   0  0  0  0  0  0  0  0  0  0  0  0  # atno 10764 bound_to 10752
  153.0403  135.6531  154.1107 H   0  0  0  0  0  0  0  0  0  0  0  0  # atno 10765 bound_to 10752
  141.1460  133.7982  157.0348 H   0  0  0  0  0  0  0  0  0  0  0  0  # atno 11005 bound_to 11000
  145.8492  139.2167  143.1782 LP  0  0  0  0  0  0  0  0  0  0  0  0  # atno 17320 bound_to 7965
  146.0276  140.8288  142.9892 LP  0  0  0  0  0  0  0  0  0  0  0  0  # atno 17321 bound_to 7965
  140.7470  143.6381  150.8360 LP  0  0  0  0  0  0  0  0  0  0  0  0  # atno 17342 bound_to 10162
  140.0013  143.5741  152.2874 LP  0  0  0  0  0  0  0  0  0  0  0  0  # atno 17343 bound_to 10162
  155.9696  130.4569  150.5943 LP  0  0  0  0  0  0  0  0  0  0  0  0  # atno 17370 bound_to 10713
  157.3727  131.0768  151.1544 LP  0  0  0  0  0  0  0  0  0  0  0  0  # atno 17371 bound_to 10713
  140.0730  134.9691  157.1499 LP  0  0  0  0  0  0  0  0  0  0  0  0  # atno 17394 bound_to 11000
  140.3683  134.2418  155.7180 LP  0  0  0  0  0  0  0  0  0  0  0  0  # atno 17395 bound_to 11000

$$$$
