AV-unprocessed.smi:3068|AV-procd|sdf|11701|dock2
  -GOLD-   2272017103D 1   1.00000     0.00000
 Structure written by MMmdl.
 40 42  0  0  0  0  0  0  0  0  2 V2000
  152.0268  136.1178  156.2350 N   0  0  0  0  0  0  0  0  0  0  0  0
  151.1484  136.3317  156.9575 C   0  0  0  0  0  0  0  0  0  0  0  0
  150.0418  136.6021  157.8665 C   0  0  0  0  0  0  0  0  0  0  0  0
  149.5329  135.5417  158.5356 N   0  0  0  0  0  0  0  0  0  0  0  0
  148.5080  135.7780  159.3818 C   0  0  0  0  0  0  0  0  0  0  0  0
  147.9856  137.0730  159.5640 C   0  0  0  0  0  0  0  0  0  0  0  0
  148.4858  138.1366  158.8997 N   0  0  0  0  0  0  0  0  0  0  0  0
  149.5162  137.9132  158.0455 C   0  0  0  0  0  0  0  0  0  0  0  0
  150.0487  139.0119  157.3452 N   0  0  0  0  0  0  0  0  0  0  0  0
  149.8975  140.3810  157.8242 C   0  0  0  0  0  0  0  0  0  0  0  0
  151.2492  141.0559  158.1126 C   0  0  1  0  0  0  0  0  0  0  0  0
  151.1423  142.5900  158.0490 C   0  0  0  0  0  0  0  0  0  0  0  0
  152.4342  143.2192  158.4196 N   0  3  1  0  0  0  0  0  0  0  0  0
  152.4288  144.7027  158.3289 C   0  0  0  0  0  0  0  0  0  0  0  0
  151.6643  145.3555  159.4967 C   0  0  0  0  0  0  0  0  0  0  0  0
  152.2042  144.8718  160.8494 C   0  0  0  0  0  0  0  0  0  0  0  0
  152.1898  143.3380  160.9145 C   0  0  0  0  0  0  0  0  0  0  0  0
  152.9564  142.7231  159.7228 C   0  0  1  0  0  0  0  0  0  0  0  0
  152.9527  141.1820  159.7448 C   0  0  0  0  0  0  0  0  0  0  0  0
  151.6576  140.6889  159.4261 O   0  0  0  0  0  0  0  0  0  0  0  0
  148.1029  134.9305  159.9146 H   0  0  0  0  0  0  0  0  0  0  0  0
  147.1655  137.2559  160.2423 H   0  0  0  0  0  0  0  0  0  0  0  0
  150.4606  138.8656  156.4343 H   0  0  0  0  0  0  0  0  0  0  0  0
  149.3311  140.9604  157.0943 H   0  0  0  0  0  0  0  0  0  0  0  0
  149.2915  140.3634  158.7304 H   0  0  0  0  0  0  0  0  0  0  0  0
  151.9919  140.7174  157.3880 H   0  0  0  0  0  0  0  0  0  0  0  0
  150.8683  142.8992  157.0397 H   0  0  0  0  0  0  0  0  0  0  0  0
  150.3470  142.9333  158.7110 H   0  0  0  0  0  0  0  0  0  0  0  0
  153.4634  145.0483  158.3368 H   0  0  0  0  0  0  0  0  0  0  0  0
  152.0083  145.0163  157.3727 H   0  0  0  0  0  0  0  0  0  0  0  0
  151.7485  146.4406  159.4321 H   0  0  0  0  0  0  0  0  0  0  0  0
  150.6002  145.1297  159.4234 H   0  0  0  0  0  0  0  0  0  0  0  0
  153.2226  145.2366  160.9896 H   0  0  0  0  0  0  0  0  0  0  0  0
  151.6094  145.2887  161.6626 H   0  0  0  0  0  0  0  0  0  0  0  0
  152.6370  143.0097  161.8534 H   0  0  0  0  0  0  0  0  0  0  0  0
  151.1592  142.9815  160.9294 H   0  0  0  0  0  0  0  0  0  0  0  0
  153.9950  143.0492  159.7980 H   0  0  0  0  0  0  0  0  0  0  0  0
  153.6818  140.7844  159.0368 H   0  0  0  0  0  0  0  0  0  0  0  0
  153.2425  140.8135  160.7292 H   0  0  0  0  0  0  0  0  0  0  0  0
  153.0905  142.9021  157.7202 H   0  0  0  0  0  0  0  0  0  0  0  0
  1  2  3  0  0  0  0
  2  3  1  0  0  0  0
  3  8  1  0  0  0  0
  3  4  2  0  0  0  0
  4  5  1  0  0  0  0
  5  6  2  0  0  0  0
  5 21  1  0  0  0  0
  6  7  1  0  0  0  0
  6 22  1  0  0  0  0
  7  8  2  0  0  0  0
  8  9  1  0  0  0  0
  9 10  1  0  0  0  0
  9 23  1  0  0  0  0
 10 11  1  0  0  0  0
 10 24  1  0  0  0  0
 10 25  1  0  0  0  0
 11 20  1  0  0  0  0
 11 12  1  0  0  0  0
 11 26  1  0  0  0  0
 12 13  1  0  0  0  0
 12 27  1  0  0  0  0
 12 28  1  0  0  0  0
 13 18  1  0  0  0  0
 13 14  1  0  0  0  0
 13 40  1  0  0  0  0
 14 15  1  0  0  0  0
 14 29  1  0  0  0  0
 14 30  1  0  0  0  0
 15 16  1  0  0  0  0
 15 31  1  0  0  0  0
 15 32  1  0  0  0  0
 16 17  1  0  0  0  0
 16 33  1  0  0  0  0
 16 34  1  0  0  0  0
 17 18  1  0  0  0  0
 17 35  1  0  0  0  0
 17 36  1  0  0  0  0
 18 19  1  0  0  0  0
 18 37  1  0  0  0  0
 19 20  1  0  0  0  0
 19 38  1  0  0  0  0
 19 39  1  0  0  0  0
M  CHG  1  13   1
M  END
> <s_m_source_file>
AV-unprocessed.smi

> <i_m_source_file_index>
3068

> <i_lp_mmshare_version>
43012

> <i_f3d_flags>
0

> <s_epik_input>
TiNDYzFuW2NIXVtjSF1uYzFbTkhdW0NIMl1bQ0BIXShbQ0gyXTIpT1tDSDJdW0NAQEhdKE4yMylbQ0gyXVtDSDJdW0NIMl1bQ0gyXTM=

> <s_epik_cmdline>
J2VwaWtfcHl0aG9uJywgJy1waCcsICc3LjAnLCAnLXRuJywgJzgnLCAnLW1hJywgJzIwMCcsICctbWV0YWxfYmluZGluZycsICctaW1hZScsICc8aW5maWxlLm1hZT4nLCAnLW9tYWUnLCAnPG91dGZpbGUubWFlPic=

> <r_epik_Ionization_Penalty>
0.0804321

> <r_epik_Ionization_Penalty_Charging>
0.0803403

> <r_epik_Ionization_Penalty_Neutral>
9.17277e-05

> <r_epik_State_Penalty>
0.0711481

> <r_epik_Charging_Adjusted_Penalty>
0.151488

> <i_epik_Tot_Q>
1

> <i_epik_Tot_abs_Q>
1

> <r_epik_Metal_State_Penalty>
0.0711481

> <b_epik_Metal_Only>
0

> <s_lp_Force_Field>
OPLS_2005

> <r_lp_Energy>
39.2156

> <b_lp_Chiralities_Consistent>
1

> <s_lp_Variant>
AV-unprocessed.smi:3068-4

> <Gold.Version>
5.8.1

> <Gold.Id.Protein>
6NUR|6NUR_protein|mol2

> <Gold.PLP.Fitness>
42.7936

> <Gold.PLP.PLP>
-37.5231

> <Gold.PLP.part.hbond>
-3.0000

> <Gold.PLP.part.metal>
0.0000

> <Gold.PLP.part.buried>
-5.6692

> <Gold.PLP.part.nonpolar>
-29.1970

> <Gold.PLP.part.repulsive>
0.0737

> <Gold.PLP.ligand.clash>
0.0000

> <Gold.PLP.ligand.torsion>
0.3657

> <Gold.PLP.Chemscore.Hbond>
2.0000

> <Gold.PLP.Chemscore.CHOScore>
0.0000

> <Gold.PLP.Chemscore.Metal>
0.0000

> <Gold.Chemscore.Hbonds>
donor molecule, donor type, donor heavy atom, donor atom, acceptor molecule, acceptor atom, score
      P1  H  6896  6909       L1     4  1.00
      P1  H 10752 10764       L1     1  1.00

> <Gold.PLP.Chemscore.Internal.Correction>
0.0021

> <Gold.Rescore>
     Score         DG    S(hbond)    S(metal)    S(lipo)     H(rot)  DE(clash)    DE(int)     intcor
     19.32     -19.70       1.80        0.00      99.12       1.32       0.09       0.29       ----

> <Gold.Chemscore.Fitness>
19.3203

> <Gold.Chemscore.DG>
-19.6982

> <Gold.Chemscore.ZeroCoef>
-5.4800

> <Gold.Chemscore.Hbond>
1.7959

> <Gold.Chemscore.Metal>
0.0000

> <Gold.Chemscore.Lipo>
99.1207

> <Gold.Chemscore.Internal_Hbond>
0.0000

> <Gold.Chemscore.DEClash>
0.0892

> <Gold.Chemscore.DEInternal>
0.2887

> <Gold.Chemscore.Rot>
1.3193

> <Gold.Chemscore.Internal.Correction>
   9.000000E+99

> <Gold.Chemscore.Hbonds>
donor molecule, donor type, donor heavy atom, donor atom, acceptor molecule, acceptor atom, score
      P1  H  6896  6909       L1     4  0.47
      P1  H 10752 10764       L1     1  1.00

> <Gold.Chemscore.Hbond.Weighted>
-5.9984

> <Gold.Chemscore.Metal.Weighted>
-0.0000

> <Gold.Chemscore.Lipo.Weighted>
-11.5971

> <Gold.Chemscore.Internal_Hbond.Weighted>
0.0000

> <Gold.Chemscore.DEClash.Weighted>
0.0892

> <Gold.Chemscore.DEInternal.Weighted>
0.2887

> <Gold.Chemscore.Rot.Weighted>
3.3774

> <Gold.Chemscore.Internal.Correction.Weighted>
   9.000000E+99

> <Gold.Protein.RotatedTorsions>
[ 6907 6896 6895 6894 ] final   34.40 input  -60.11 | X-H torsion
[ 7974 7965 7964 7962 ] final -154.99 input  175.53 | X-H torsion
[ 8008 7997 7996 7995 ] final   53.80 input   59.86 | X-H torsion
[ 10167 10162 10161 10158 ] final -126.00 input  -65.29 | X-H torsion
[ 10718 10713 10712 10709 ] final -149.06 input   66.30 | X-H torsion
[ 10763 10752 10751 10750 ] final  -23.70 input  -60.55 | X-H torsion
[ 11005 11000 10999 10996 ] final -120.89 input  -57.11 | X-H torsion

> <Gold.Protein.ActiveResidues>
 VAL166  LYS551  ARG553  GLY616  TRP617  ASP618  TYR619  PRO620  LYS621  CYS622 
 ASP623  PHE694  ASN695  SER759  ASP760  ASP761  ALA762  ILE779  LEU786  VAL792 
 PHE793  MET794  SER795  GLU796  ALA797  LYS798  CYS799  TRP800  GLU811  SER814 

> <Gold.Protein.RotatedAtoms>
  152.1019  134.9336  160.0569 H   0  0  0  0  0  0  0  0  0  0  0  0  # atno 6907 bound_to 6896
  152.0547  133.4030  159.4400 H   0  0  0  0  0  0  0  0  0  0  0  0  # atno 6908 bound_to 6896
  150.6840  134.3189  159.4821 H   0  0  0  0  0  0  0  0  0  0  0  0  # atno 6909 bound_to 6896
  144.7662  140.4312  143.5940 H   0  0  0  0  0  0  0  0  0  0  0  0  # atno 7974 bound_to 7965
  155.4743  140.3466  155.4330 H   0  0  0  0  0  0  0  0  0  0  0  0  # atno 8008 bound_to 7997
  156.1080  140.1453  156.9406 H   0  0  0  0  0  0  0  0  0  0  0  0  # atno 8009 bound_to 7997
  154.4737  140.0892  156.7188 H   0  0  0  0  0  0  0  0  0  0  0  0  # atno 8010 bound_to 7997
  139.9761  143.5793  152.2395 H   0  0  0  0  0  0  0  0  0  0  0  0  # atno 10167 bound_to 10162
  156.4282  130.8062  151.2288 H   0  0  0  0  0  0  0  0  0  0  0  0  # atno 10718 bound_to 10713
  153.6719  135.6971  153.5144 H   0  0  0  0  0  0  0  0  0  0  0  0  # atno 10763 bound_to 10752
  153.2551  135.4262  155.0836 H   0  0  0  0  0  0  0  0  0  0  0  0  # atno 10764 bound_to 10752
  154.8424  135.3541  154.6263 H   0  0  0  0  0  0  0  0  0  0  0  0  # atno 10765 bound_to 10752
  141.0111  134.0264  157.3413 H   0  0  0  0  0  0  0  0  0  0  0  0  # atno 11005 bound_to 11000
  145.6463  139.1558  143.2887 LP  0  0  0  0  0  0  0  0  0  0  0  0  # atno 17320 bound_to 7965
  146.1771  140.6555  142.9206 LP  0  0  0  0  0  0  0  0  0  0  0  0  # atno 17321 bound_to 7965
  139.6445  144.7657  151.2272 LP  0  0  0  0  0  0  0  0  0  0  0  0  # atno 17342 bound_to 10162
  140.7505  143.6262  150.8466 LP  0  0  0  0  0  0  0  0  0  0  0  0  # atno 17343 bound_to 10162
  157.7508  131.0206  150.3717 LP  0  0  0  0  0  0  0  0  0  0  0  0  # atno 17370 bound_to 10713
  156.4049  130.3923  149.6933 LP  0  0  0  0  0  0  0  0  0  0  0  0  # atno 17371 bound_to 10713
  139.9090  135.0186  156.7611 LP  0  0  0  0  0  0  0  0  0  0  0  0  # atno 17394 bound_to 11000
  140.6732  133.9540  155.7868 LP  0  0  0  0  0  0  0  0  0  0  0  0  # atno 17395 bound_to 11000

$$$$
