AV-unprocessed.smi:867|AV-procd|sdf|3994|dock2
  -GOLD-   22720 1473D 1   1.00000     0.00000
 Structure written by MMmdl.
 53 56  0  0  0  0  0  0  0  0  2 V2000
  144.5772  136.5245  155.0073 O   0  0  0  0  0  0  0  0  0  0  0  0
  144.6809  136.9633  153.8615 C   0  0  0  0  0  0  0  0  0  0  0  0
  145.5384  137.9486  153.5419 N   0  0  0  0  0  0  0  0  0  0  0  0
  146.4376  138.6326  154.4685 C   0  0  0  0  0  0  0  0  0  0  0  0
  147.3234  139.6729  153.7572 C   0  0  0  0  0  0  0  0  0  0  0  0
  148.5705  140.0456  154.5397 C   0  0  0  0  0  0  0  0  0  0  0  0
  148.4835  140.7894  155.7347 C   0  0  0  0  0  0  0  0  0  0  0  0
  149.6671  141.0873  156.4361 C   0  0  0  0  0  0  0  0  0  0  0  0
  150.8915  140.6310  155.9086 C   0  0  0  0  0  0  0  0  0  0  0  0
  150.9875  139.9213  154.7638 N   0  0  0  0  0  0  0  0  0  0  0  0
  149.8474  139.6385  154.0981 C   0  0  0  0  0  0  0  0  0  0  0  0
  143.8828  136.5613  152.8420 N   0  0  0  0  0  0  0  0  0  0  0  0
  144.0820  136.8703  151.4201 C   0  0  0  0  0  0  0  0  0  0  0  0
  144.6258  135.6177  150.7085 C   0  0  0  0  0  0  0  0  0  0  0  0
  143.7304  134.4399  150.8988 N   0  3  0  0  0  0  0  0  0  0  0  0
  144.2375  133.2177  150.2108 C   0  0  2  0  0  0  0  0  0  0  0  0
  143.6260  131.8925  150.7291 C   0  0  0  0  0  0  0  0  0  0  0  0
  144.8632  131.0081  150.9761 C   0  0  2  0  0  0  0  0  0  0  0  0
  145.5562  131.4745  152.2675 C   0  0  0  0  0  0  0  0  0  0  0  0
  146.1619  132.8267  151.8510 C   0  0  0  0  0  0  0  0  0  0  0  0
  145.7555  132.9475  150.3658 C   0  0  1  0  0  0  0  0  0  0  0  0
  145.8374  131.4944  149.9099 C   0  0  0  0  0  0  0  0  0  0  0  0
  143.4015  134.2134  152.3356 C   0  0  0  0  0  0  0  0  0  0  0  0
  142.8888  135.4991  153.0084 C   0  0  0  0  0  0  0  0  0  0  0  0
  145.5435  138.2751  152.5867 H   0  0  0  0  0  0  0  0  0  0  0  0
  145.8751  139.1070  155.2741 H   0  0  0  0  0  0  0  0  0  0  0  0
  147.0692  137.8818  154.9436 H   0  0  0  0  0  0  0  0  0  0  0  0
  147.6258  139.2902  152.7820 H   0  0  0  0  0  0  0  0  0  0  0  0
  146.7429  140.5753  153.5610 H   0  0  0  0  0  0  0  0  0  0  0  0
  147.5273  141.1186  156.1138 H   0  0  0  0  0  0  0  0  0  0  0  0
  149.6379  141.6512  157.3565 H   0  0  0  0  0  0  0  0  0  0  0  0
  151.8189  140.8417  156.4202 H   0  0  0  0  0  0  0  0  0  0  0  0
  149.9561  139.0629  153.1907 H   0  0  0  0  0  0  0  0  0  0  0  0
  143.1268  137.1641  150.9821 H   0  0  0  0  0  0  0  0  0  0  0  0
  144.7548  137.7092  151.2416 H   0  0  0  0  0  0  0  0  0  0  0  0
  144.7479  135.8411  149.6493 H   0  0  0  0  0  0  0  0  0  0  0  0
  145.6186  135.3798  151.0942 H   0  0  0  0  0  0  0  0  0  0  0  0
  144.0159  133.3173  149.1464 H   0  0  0  0  0  0  0  0  0  0  0  0
  143.0443  132.0085  151.6441 H   0  0  0  0  0  0  0  0  0  0  0  0
  142.9730  131.4534  149.9739 H   0  0  0  0  0  0  0  0  0  0  0  0
  144.6504  129.9388  150.9567 H   0  0  0  0  0  0  0  0  0  0  0  0
  144.8634  131.5662  153.1051 H   0  0  0  0  0  0  0  0  0  0  0  0
  146.3419  130.7764  152.5596 H   0  0  0  0  0  0  0  0  0  0  0  0
  145.7951  133.6511  152.4625 H   0  0  0  0  0  0  0  0  0  0  0  0
  147.2478  132.8019  151.9512 H   0  0  0  0  0  0  0  0  0  0  0  0
  146.3866  133.6261  149.7912 H   0  0  0  0  0  0  0  0  0  0  0  0
  146.8360  131.0644  150.0081 H   0  0  0  0  0  0  0  0  0  0  0  0
  145.4790  131.3357  148.8911 H   0  0  0  0  0  0  0  0  0  0  0  0
  142.6368  133.4439  152.4358 H   0  0  0  0  0  0  0  0  0  0  0  0
  144.2885  133.8502  152.8572 H   0  0  0  0  0  0  0  0  0  0  0  0
  142.6529  135.3068  154.0563 H   0  0  0  0  0  0  0  0  0  0  0  0
  141.9498  135.8124  152.5498 H   0  0  0  0  0  0  0  0  0  0  0  0
  142.8567  134.6749  150.4501 H   0  0  0  0  0  0  0  0  0  0  0  0
  1  2  2  0  0  0  0
  2  3  1  0  0  0  0
  2 12  1  0  0  0  0
  3  4  1  0  0  0  0
  3 25  1  0  0  0  0
  4  5  1  0  0  0  0
  4 26  1  0  0  0  0
  4 27  1  0  0  0  0
  5  6  1  0  0  0  0
  5 28  1  0  0  0  0
  5 29  1  0  0  0  0
  6 11  1  0  0  0  0
  6  7  2  0  0  0  0
  7  8  1  0  0  0  0
  7 30  1  0  0  0  0
  8  9  2  0  0  0  0
  8 31  1  0  0  0  0
  9 10  1  0  0  0  0
  9 32  1  0  0  0  0
 10 11  2  0  0  0  0
 11 33  1  0  0  0  0
 12 24  1  0  0  0  0
 12 13  1  0  0  0  0
 13 14  1  0  0  0  0
 13 34  1  0  0  0  0
 13 35  1  0  0  0  0
 14 15  1  0  0  0  0
 14 36  1  0  0  0  0
 14 37  1  0  0  0  0
 15 16  1  0  0  0  0
 15 23  1  0  0  0  0
 15 53  1  0  0  0  0
 16 21  1  0  0  0  0
 16 17  1  0  0  0  0
 16 38  1  0  0  0  0
 17 18  1  0  0  0  0
 17 39  1  0  0  0  0
 17 40  1  0  0  0  0
 18 22  1  0  0  0  0
 18 19  1  0  0  0  0
 18 41  1  0  0  0  0
 19 20  1  0  0  0  0
 19 42  1  0  0  0  0
 19 43  1  0  0  0  0
 20 21  1  0  0  0  0
 20 44  1  0  0  0  0
 20 45  1  0  0  0  0
 21 22  1  0  0  0  0
 21 46  1  0  0  0  0
 22 47  1  0  0  0  0
 22 48  1  0  0  0  0
 23 24  1  0  0  0  0
 23 49  1  0  0  0  0
 23 50  1  0  0  0  0
 24 51  1  0  0  0  0
 24 52  1  0  0  0  0
M  CHG  1  15   1
M  END
> <s_m_source_file>
AV-unprocessed.smi

> <i_m_source_file_index>
867

> <i_lp_mmshare_version>
43012

> <i_f3d_flags>
0

> <s_epik_input>
W0NIMl0xW0NIMl1bQ0BASF0oW0NIMl0yKVtDQEBIXShbQ0gyXVtDQEhdMTIpTihbQ0gyXVtDSDJdMylbQ0gyXVtDSDJdTjNDKD1PKVtOSF1bQ0gyXVtDSDJdYzRbY0hdW2NIXVtjSF1uW2NIXTQ=

> <s_epik_cmdline>
J2VwaWtfcHl0aG9uJywgJy1waCcsICc3LjAnLCAnLXRuJywgJzgnLCAnLW1hJywgJzIwMCcsICctbWV0YWxfYmluZGluZycsICctaW1hZScsICc8aW5maWxlLm1hZT4nLCAnLW9tYWUnLCAnPG91dGZpbGUubWFlPic=

> <r_epik_Ionization_Penalty>
0.0161279

> <r_epik_Ionization_Penalty_Charging>
0.00262064

> <r_epik_Ionization_Penalty_Neutral>
0.0135072

> <r_epik_State_Penalty>
0.0104914

> <r_epik_Charging_Adjusted_Penalty>
0.013112

> <i_epik_Tot_Q>
1

> <i_epik_Tot_abs_Q>
1

> <r_epik_Metal_State_Penalty>
0.0102536

> <b_epik_Metal_Only>
0

> <s_lp_Force_Field>
OPLS_2005

> <r_lp_Energy>
96.6143

> <b_lp_Chiralities_Consistent>
1

> <s_lp_Variant>
AV-unprocessed.smi:867-1

> <Gold.Version>
5.8.1

> <Gold.Id.Protein>
6NUR|6NUR_protein|mol2

> <Gold.PLP.Fitness>
47.0105

> <Gold.PLP.PLP>
-36.2658

> <Gold.PLP.part.hbond>
-2.8588

> <Gold.PLP.part.metal>
0.0000

> <Gold.PLP.part.buried>
2.7565

> <Gold.PLP.part.nonpolar>
-36.9126

> <Gold.PLP.part.repulsive>
0.0954

> <Gold.PLP.ligand.clash>
0.0000

> <Gold.PLP.ligand.torsion>
0.6715

> <Gold.PLP.Chemscore.Hbond>
2.9825

> <Gold.PLP.Chemscore.CHOScore>
1.0000

> <Gold.PLP.Chemscore.Metal>
0.0000

> <Gold.Chemscore.Hbonds>
donor molecule, donor type, donor heavy atom, donor atom, acceptor molecule, acceptor atom, score
      L1  H    15    53       P1 10186  1.85
      P1  H  7989  7998       L1    10  0.70
      L1  C    11    33       P1  7957  0.82

> <Gold.PLP.Chemscore.Internal.Correction>
0.1401

> <Gold.Rescore>
     Score         DG    S(hbond)    S(metal)    S(lipo)     H(rot)  DE(clash)    DE(int)     intcor
     17.48     -22.08       1.64        0.00     125.11       1.37       4.02       0.58       ----

> <Gold.Chemscore.Fitness>
17.4775

> <Gold.Chemscore.DG>
-22.0783

> <Gold.Chemscore.ZeroCoef>
-5.4800

> <Gold.Chemscore.Hbond>
1.6395

> <Gold.Chemscore.Metal>
0.0000

> <Gold.Chemscore.Lipo>
125.1061

> <Gold.Chemscore.Internal_Hbond>
0.0000

> <Gold.Chemscore.DEClash>
4.0238

> <Gold.Chemscore.DEInternal>
0.5770

> <Gold.Chemscore.Rot>
1.3731

> <Gold.Chemscore.Internal.Correction>
   9.000000E+99

> <Gold.Chemscore.Hbonds>
donor molecule, donor type, donor heavy atom, donor atom, acceptor molecule, acceptor atom, score
      L1  H    15    53       P1 10186  0.31
      P1  H  7989  7998       L1    10  0.06

> <Gold.Chemscore.Hbond.Weighted>
-5.4760

> <Gold.Chemscore.Metal.Weighted>
-0.0000

> <Gold.Chemscore.Lipo.Weighted>
-14.6374

> <Gold.Chemscore.Internal_Hbond.Weighted>
0.0000

> <Gold.Chemscore.DEClash.Weighted>
4.0238

> <Gold.Chemscore.DEInternal.Weighted>
0.5770

> <Gold.Chemscore.Rot.Weighted>
3.5152

> <Gold.Chemscore.Internal.Correction.Weighted>
   9.000000E+99

> <Gold.Protein.RotatedTorsions>
[ 6907 6896 6895 6894 ] final   60.66 input  -60.11 | X-H torsion
[ 7974 7965 7964 7962 ] final  -48.00 input  175.53 | X-H torsion
[ 8008 7997 7996 7995 ] final   44.28 input   59.86 | X-H torsion
[ 10167 10162 10161 10158 ] final -109.02 input  -65.29 | X-H torsion
[ 10718 10713 10712 10709 ] final -119.45 input   66.30 | X-H torsion
[ 10763 10752 10751 10750 ] final   40.87 input  -60.55 | X-H torsion
[ 11005 11000 10999 10996 ] final -121.33 input  -57.11 | X-H torsion

> <Gold.Protein.ActiveResidues>
 VAL166  LYS551  ARG553  GLY616  TRP617  ASP618  TYR619  PRO620  LYS621  CYS622 
 ASP623  PHE694  ASN695  SER759  ASP760  ASP761  ALA762  ILE779  LEU786  VAL792 
 PHE793  MET794  SER795  GLU796  ALA797  LYS798  CYS799  TRP800  GLU811  SER814 

> <Gold.Protein.RotatedAtoms>
  152.4022  134.6267  160.0064 H   0  0  0  0  0  0  0  0  0  0  0  0  # atno 6907 bound_to 6896
  151.6469  133.3317  159.3151 H   0  0  0  0  0  0  0  0  0  0  0  0  # atno 6908 bound_to 6896
  150.7921  134.6994  159.6586 H   0  0  0  0  0  0  0  0  0  0  0  0  # atno 6909 bound_to 6896
  145.9557  140.7528  142.9482 H   0  0  0  0  0  0  0  0  0  0  0  0  # atno 7974 bound_to 7965
  155.3166  140.3394  155.4242 H   0  0  0  0  0  0  0  0  0  0  0  0  # atno 8008 bound_to 7997
  156.1929  140.1704  156.8093 H   0  0  0  0  0  0  0  0  0  0  0  0  # atno 8009 bound_to 7997
  154.5464  140.0714  156.8579 H   0  0  0  0  0  0  0  0  0  0  0  0  # atno 8010 bound_to 7997
  140.1599  143.4129  152.1433 H   0  0  0  0  0  0  0  0  0  0  0  0  # atno 10167 bound_to 10162
  156.1182  130.6302  150.9418 H   0  0  0  0  0  0  0  0  0  0  0  0  # atno 10718 bound_to 10713
  152.9924  135.6178  154.2696 H   0  0  0  0  0  0  0  0  0  0  0  0  # atno 10763 bound_to 10752
  154.2429  135.2788  155.2848 H   0  0  0  0  0  0  0  0  0  0  0  0  # atno 10764 bound_to 10752
  154.5354  135.5776  153.6851 H   0  0  0  0  0  0  0  0  0  0  0  0  # atno 10765 bound_to 10752
  141.0078  134.0309  157.3454 H   0  0  0  0  0  0  0  0  0  0  0  0  # atno 11005 bound_to 11000
  144.6804  140.2508  143.7332 LP  0  0  0  0  0  0  0  0  0  0  0  0  # atno 17320 bound_to 7965
  145.8109  139.2003  143.1993 LP  0  0  0  0  0  0  0  0  0  0  0  0  # atno 17321 bound_to 7965
  139.5386  144.7234  151.4809 LP  0  0  0  0  0  0  0  0  0  0  0  0  # atno 17342 bound_to 10162
  140.6650  143.8418  150.6931 LP  0  0  0  0  0  0  0  0  0  0  0  0  # atno 17343 bound_to 10162
  157.6365  131.0915  150.8337 LP  0  0  0  0  0  0  0  0  0  0  0  0  # atno 17370 bound_to 10713
  156.8437  130.5057  149.5318 LP  0  0  0  0  0  0  0  0  0  0  0  0  # atno 17371 bound_to 10713
  139.9073  135.0182  156.7541 LP  0  0  0  0  0  0  0  0  0  0  0  0  # atno 17394 bound_to 11000
  140.6784  133.9497  155.7896 LP  0  0  0  0  0  0  0  0  0  0  0  0  # atno 17395 bound_to 11000

$$$$
