AV-unprocessed.smi:740|AV-procd|sdf|3550|dock3
  -GOLD-   22720 0543D 1   1.00000     0.00000
 Structure written by MMmdl.
 45 47  0  0  0  0  0  0  0  0  2 V2000
  151.8553  145.4091  160.2046 C   0  0  0  0  0  0  0  0  0  0  0  0
  151.6767  144.1250  159.4127 C   0  0  0  0  0  0  0  0  0  0  0  0
  150.9567  144.1767  158.1980 C   0  0  0  0  0  0  0  0  0  0  0  0
  150.8094  142.9860  157.4966 C   0  0  0  0  0  0  0  0  0  0  0  0
  150.1617  142.7103  156.2905 N   0  3  0  0  0  0  0  0  0  0  0  0
  150.2835  141.3853  156.0021 C   0  0  0  0  0  0  0  0  0  0  0  0
  151.0026  140.8110  157.0043 N   0  0  0  0  0  0  0  0  0  0  0  0
  151.4121  139.4099  157.1750 C   0  0  0  0  0  0  0  0  0  0  0  0
  152.0053  138.8029  155.8886 C   0  0  2  0  0  0  0  0  0  0  0  0
  153.0409  139.6449  155.4204 O   0  0  0  0  0  0  0  0  0  0  0  0
  150.9394  138.6656  154.7824 C   0  0  0  0  0  0  0  0  0  0  0  0
  150.0819  137.4922  154.9861 N   0  0  0  0  0  0  0  0  0  0  0  0
  148.7488  137.5044  154.8517 C   0  0  0  0  0  0  0  0  0  0  0  0
  148.0570  138.4744  154.5427 O   0  0  0  0  0  0  0  0  0  0  0  0
  148.1575  136.1327  155.1452 C   0  0  0  0  0  0  0  0  0  0  0  0
  149.3906  135.2831  155.4884 C   0  0  1  0  0  0  0  0  0  0  0  0
  149.5750  134.0612  154.5734 C   0  0  0  0  0  0  0  0  0  0  0  0
  150.5366  136.2823  155.3413 C   0  0  0  0  0  0  0  0  0  0  0  0
  151.7138  135.9779  155.5353 O   0  0  0  0  0  0  0  0  0  0  0  0
  151.3512  141.7717  157.9615 C   0  0  0  0  0  0  0  0  0  0  0  0
  152.0624  141.7037  159.1576 C   0  0  0  0  0  0  0  0  0  0  0  0
  152.2204  142.9034  159.8875 C   0  0  0  0  0  0  0  0  0  0  0  0
  152.9859  142.8574  161.1990 C   0  0  0  0  0  0  0  0  0  0  0  0
  151.4079  146.2602  159.6906 H   0  0  0  0  0  0  0  0  0  0  0  0
  152.9138  145.6270  160.3487 H   0  0  0  0  0  0  0  0  0  0  0  0
  151.3819  145.3238  161.1830 H   0  0  0  0  0  0  0  0  0  0  0  0
  150.5367  145.1022  157.8319 H   0  0  0  0  0  0  0  0  0  0  0  0
  149.8812  140.8802  155.1357 H   0  0  0  0  0  0  0  0  0  0  0  0
  152.1607  139.3958  157.9681 H   0  0  0  0  0  0  0  0  0  0  0  0
  150.5691  138.8244  157.5426 H   0  0  0  0  0  0  0  0  0  0  0  0
  152.4304  137.8269  156.1269 H   0  0  0  0  0  0  0  0  0  0  0  0
  152.9411  139.7546  154.4872 H   0  0  0  0  0  0  0  0  0  0  0  0
  150.3018  139.5516  154.7805 H   0  0  0  0  0  0  0  0  0  0  0  0
  151.4071  138.6517  153.7961 H   0  0  0  0  0  0  0  0  0  0  0  0
  147.4599  136.1899  155.9814 H   0  0  0  0  0  0  0  0  0  0  0  0
  147.6221  135.7601  154.2710 H   0  0  0  0  0  0  0  0  0  0  0  0
  149.3429  134.9601  156.5292 H   0  0  0  0  0  0  0  0  0  0  0  0
  150.4590  133.4873  154.8536 H   0  0  0  0  0  0  0  0  0  0  0  0
  149.6848  134.3550  153.5287 H   0  0  0  0  0  0  0  0  0  0  0  0
  148.7160  133.3933  154.6412 H   0  0  0  0  0  0  0  0  0  0  0  0
  152.4741  140.7748  159.5228 H   0  0  0  0  0  0  0  0  0  0  0  0
  153.3087  141.8434  161.4375 H   0  0  0  0  0  0  0  0  0  0  0  0
  152.3612  143.2084  162.0206 H   0  0  0  0  0  0  0  0  0  0  0  0
  153.8749  143.4860  161.1457 H   0  0  0  0  0  0  0  0  0  0  0  0
  149.6702  143.3750  155.7064 H   0  0  0  0  0  0  0  0  0  0  0  0
  1  2  1  0  0  0  0
  1 24  1  0  0  0  0
  1 25  1  0  0  0  0
  1 26  1  0  0  0  0
  2 22  1  0  0  0  0
  2  3  2  0  0  0  0
  3  4  1  0  0  0  0
  3 27  1  0  0  0  0
  4 20  2  0  0  0  0
  4  5  1  0  0  0  0
  5  6  2  0  0  0  0
  5 45  1  0  0  0  0
  6  7  1  0  0  0  0
  6 28  1  0  0  0  0
  7  8  1  0  0  0  0
  7 20  1  0  0  0  0
  8  9  1  0  0  0  0
  8 29  1  0  0  0  0
  8 30  1  0  0  0  0
  9 10  1  0  0  0  0
  9 11  1  0  0  0  0
  9 31  1  0  0  0  0
 10 32  1  0  0  0  0
 11 12  1  0  0  0  0
 11 33  1  0  0  0  0
 11 34  1  0  0  0  0
 12 18  1  0  0  0  0
 12 13  1  0  0  0  0
 13 14  2  0  0  0  0
 13 15  1  0  0  0  0
 15 16  1  0  0  0  0
 15 35  1  0  0  0  0
 15 36  1  0  0  0  0
 16 17  1  0  0  0  0
 16 18  1  0  0  0  0
 16 37  1  0  0  0  0
 17 38  1  0  0  0  0
 17 39  1  0  0  0  0
 17 40  1  0  0  0  0
 18 19  2  0  0  0  0
 20 21  1  0  0  0  0
 21 22  2  0  0  0  0
 21 41  1  0  0  0  0
 22 23  1  0  0  0  0
 23 42  1  0  0  0  0
 23 43  1  0  0  0  0
 23 44  1  0  0  0  0
M  CHG  1   5   1
M  END
> <s_m_source_file>
AV-unprocessed.smi

> <i_m_source_file_index>
740

> <i_lp_mmshare_version>
43012

> <i_f3d_flags>
0

> <s_epik_input>
W0NIM11jKFtjSF0xKWMoW0NIM10pW2NIXWMoYzEyKW4oW2NIXW4yKVtDSDJdW0NASF0oW09IXSlbQ0gyXU4zQyg9TylbQ0gyXVtDQEBIXShbQ0gzXSlDMz1P

> <s_epik_cmdline>
J2VwaWtfcHl0aG9uJywgJy1waCcsICc3LjAnLCAnLXRuJywgJzgnLCAnLW1hJywgJzIwMCcsICctbWV0YWxfYmluZGluZycsICctaW1hZScsICc8aW5maWxlLm1hZT4nLCAnLW9tYWUnLCAnPG91dGZpbGUubWFlPic=

> <r_lp_tautomer_probability>
1

> <r_epik_Ionization_Penalty>
1.08202

> <r_epik_Ionization_Penalty_Charging>
1.08202

> <r_epik_Ionization_Penalty_Neutral>
1.16605e-06

> <r_epik_State_Penalty>
1.13754

> <r_epik_Charging_Adjusted_Penalty>
2.21956

> <i_epik_Tot_Q>
1

> <i_epik_Tot_abs_Q>
1

> <r_epik_Metal_State_Penalty>
5.13645

> <b_epik_Metal_Only>
0

> <s_lp_Force_Field>
OPLS_2005

> <r_lp_Energy>
22.4261

> <b_lp_Chiralities_Consistent>
1

> <s_lp_Variant>
AV-unprocessed.smi:740-5

> <Gold.Version>
5.8.1

> <Gold.Id.Protein>
6NUR|6NUR_protein|mol2

> <Gold.PLP.Fitness>
57.4120

> <Gold.PLP.PLP>
-46.7035

> <Gold.PLP.part.hbond>
-2.9845

> <Gold.PLP.part.metal>
0.0000

> <Gold.PLP.part.buried>
-5.6032

> <Gold.PLP.part.nonpolar>
-39.1816

> <Gold.PLP.part.repulsive>
0.3069

> <Gold.PLP.ligand.clash>
0.0000

> <Gold.PLP.ligand.torsion>
0.5614

> <Gold.PLP.Chemscore.Hbond>
3.9433

> <Gold.PLP.Chemscore.CHOScore>
0.0000

> <Gold.PLP.Chemscore.Metal>
0.0000

> <Gold.Chemscore.Hbonds>
donor molecule, donor type, donor heavy atom, donor atom, acceptor molecule, acceptor atom, score
      L1  H     5    45       P1  8028  1.86
      P1  H  7997  8008       L1    10  1.00
      P1  H 10752 10765       L1    19  1.00

> <Gold.PLP.Chemscore.Internal.Correction>
0.0015

> <Gold.Rescore>
     Score         DG    S(hbond)    S(metal)    S(lipo)     H(rot)  DE(clash)    DE(int)     intcor
     19.54     -22.13       2.95        0.00     109.88       2.37       0.01       2.58       ----

> <Gold.Chemscore.Fitness>
19.5414

> <Gold.Chemscore.DG>
-22.1322

> <Gold.Chemscore.ZeroCoef>
-5.4800

> <Gold.Chemscore.Hbond>
2.9549

> <Gold.Chemscore.Metal>
0.0000

> <Gold.Chemscore.Lipo>
109.8834

> <Gold.Chemscore.Internal_Hbond>
0.0000

> <Gold.Chemscore.DEClash>
0.0081

> <Gold.Chemscore.DEInternal>
2.5827

> <Gold.Chemscore.Rot>
2.3724

> <Gold.Chemscore.Internal.Correction>
   9.000000E+99

> <Gold.Chemscore.Hbonds>
donor molecule, donor type, donor heavy atom, donor atom, acceptor molecule, acceptor atom, score
      L1  H     5    45       P1  8028  0.86
      P1  H  7997  8008       L1    10  0.85
      P1  H 10752 10765       L1    19  0.93

> <Gold.Chemscore.Hbond.Weighted>
-9.8692

> <Gold.Chemscore.Metal.Weighted>
-0.0000

> <Gold.Chemscore.Lipo.Weighted>
-12.8564

> <Gold.Chemscore.Internal_Hbond.Weighted>
0.0000

> <Gold.Chemscore.DEClash.Weighted>
0.0081

> <Gold.Chemscore.DEInternal.Weighted>
2.5827

> <Gold.Chemscore.Rot.Weighted>
6.0734

> <Gold.Chemscore.Internal.Correction.Weighted>
   9.000000E+99

> <Gold.Protein.RotatedTorsions>
[ 6907 6896 6895 6894 ] final   42.33 input  -60.11 | X-H torsion
[ 7974 7965 7964 7962 ] final -150.34 input  175.53 | X-H torsion
[ 8008 7997 7996 7995 ] final  -22.56 input   59.86 | X-H torsion
[ 10167 10162 10161 10158 ] final  -29.90 input  -65.29 | X-H torsion
[ 10718 10713 10712 10709 ] final   44.75 input   66.30 | X-H torsion
[ 10763 10752 10751 10750 ] final -166.75 input  -60.55 | X-H torsion
[ 11005 11000 10999 10996 ] final -153.44 input  -57.11 | X-H torsion

> <Gold.Protein.ActiveResidues>
 VAL166  LYS551  ARG553  GLY616  TRP617  ASP618  TYR619  PRO620  LYS621  CYS622 
 ASP623  PHE694  ASN695  SER759  ASP760  ASP761  ALA762  ILE779  LEU786  VAL792 
 PHE793  MET794  SER795  GLU796  ALA797  LYS798  CYS799  TRP800  GLU811  SER814 

> <Gold.Protein.RotatedAtoms>
  152.2065  134.8540  160.0501 H   0  0  0  0  0  0  0  0  0  0  0  0  # atno 6907 bound_to 6896
  151.9374  133.3623  159.3961 H   0  0  0  0  0  0  0  0  0  0  0  0  # atno 6908 bound_to 6896
  150.6966  134.4399  159.5331 H   0  0  0  0  0  0  0  0  0  0  0  0  # atno 6909 bound_to 6896
  144.7913  140.4945  143.5770 H   0  0  0  0  0  0  0  0  0  0  0  0  # atno 7974 bound_to 7965
  154.4637  140.2004  156.0177 H   0  0  0  0  0  0  0  0  0  0  0  0  # atno 8008 bound_to 7997
  156.0887  140.3261  155.7758 H   0  0  0  0  0  0  0  0  0  0  0  0  # atno 8009 bound_to 7997
  155.4993  140.0552  157.2932 H   0  0  0  0  0  0  0  0  0  0  0  0  # atno 8010 bound_to 7997
  140.7255  143.3891  151.1461 H   0  0  0  0  0  0  0  0  0  0  0  0  # atno 10167 bound_to 10162
  157.4302  130.8020  149.7596 H   0  0  0  0  0  0  0  0  0  0  0  0  # atno 10718 bound_to 10713
  154.6801  135.2953  154.9624 H   0  0  0  0  0  0  0  0  0  0  0  0  # atno 10763 bound_to 10752
  154.0622  135.6630  153.4817 H   0  0  0  0  0  0  0  0  0  0  0  0  # atno 10764 bound_to 10752
  153.0542  135.5155  154.7840 H   0  0  0  0  0  0  0  0  0  0  0  0  # atno 10765 bound_to 10752
  140.7081  134.3863  157.5201 H   0  0  0  0  0  0  0  0  0  0  0  0  # atno 11005 bound_to 11000
  145.5786  139.1487  143.3248 LP  0  0  0  0  0  0  0  0  0  0  0  0  # atno 17320 bound_to 7965
  146.2166  140.5917  142.9036 LP  0  0  0  0  0  0  0  0  0  0  0  0  # atno 17321 bound_to 7965
  139.7493  143.8803  152.3072 LP  0  0  0  0  0  0  0  0  0  0  0  0  # atno 17342 bound_to 10162
  139.8651  144.7097  150.9053 LP  0  0  0  0  0  0  0  0  0  0  0  0  # atno 17343 bound_to 10162
  155.9910  130.3940  150.3002 LP  0  0  0  0  0  0  0  0  0  0  0  0  # atno 17370 bound_to 10713
  157.1158  131.0233  151.3029 LP  0  0  0  0  0  0  0  0  0  0  0  0  # atno 17371 bound_to 10713
  139.8879  134.8871  156.2504 LP  0  0  0  0  0  0  0  0  0  0  0  0  # atno 17394 bound_to 11000
  141.0108  133.7097  156.1108 LP  0  0  0  0  0  0  0  0  0  0  0  0  # atno 17395 bound_to 11000

$$$$
