AV-unprocessed.smi:974|AV-procd|sdf|4300|dock5
  -GOLD-   22720 2203D 1   1.00000     0.00000
 Structure written by MMmdl.
 31 32  0  0  0  0  0  0  0  0  1 V2000
  151.7822  137.7890  153.8585 N   0  0  0  0  0  0  0  0  0  0  0  0
  150.8425  138.7434  154.2907 C   0  0  0  0  0  0  0  0  0  0  0  0
  149.5449  139.0310  153.7818 C   0  0  0  0  0  0  0  0  0  0  0  0
  148.9411  140.0041  154.4454 N   0  0  0  0  0  0  0  0  0  0  0  0
  149.8300  140.3682  155.3961 N   0  0  0  0  0  0  0  0  0  0  0  0
  149.4970  141.4280  156.3305 C   0  0  0  0  0  0  0  0  0  0  0  0
  150.7209  141.8450  157.1463 C   0  0  0  0  0  0  0  0  0  0  0  0
  151.4277  140.9886  157.6771 O   0  0  0  0  0  0  0  0  0  0  0  0
  150.9582  143.1627  157.2370 N   0  0  0  0  0  0  0  0  0  0  0  0
  152.0612  143.7704  157.9760 C   0  0  0  0  0  0  0  0  0  0  0  0
  152.3068  143.0257  159.3026 C   0  0  0  0  0  0  0  0  0  0  0  0
  152.4013  144.1042  160.3837 C   0  0  0  0  0  0  0  0  0  0  0  0
  151.5157  145.2335  159.8675 C   0  0  0  0  0  0  0  0  0  0  0  0
  151.7533  145.2327  158.3574 C   0  0  0  0  0  0  0  0  0  0  0  0
  150.9883  139.6218  155.3261 C   0  0  0  0  0  0  0  0  0  0  0  0
  152.6795  137.6816  154.3094 H   0  0  0  0  0  0  0  0  0  0  0  0
  151.5941  137.1653  153.0867 H   0  0  0  0  0  0  0  0  0  0  0  0
  149.0267  138.5659  152.9561 H   0  0  0  0  0  0  0  0  0  0  0  0
  149.1154  142.2821  155.7694 H   0  0  0  0  0  0  0  0  0  0  0  0
  148.6959  141.0959  156.9932 H   0  0  0  0  0  0  0  0  0  0  0  0
  150.3203  143.7913  156.7704 H   0  0  0  0  0  0  0  0  0  0  0  0
  152.9674  143.7364  157.3681 H   0  0  0  0  0  0  0  0  0  0  0  0
  151.4690  142.3656  159.5346 H   0  0  0  0  0  0  0  0  0  0  0  0
  153.2029  142.4051  159.2670 H   0  0  0  0  0  0  0  0  0  0  0  0
  152.0936  143.7433  161.3655 H   0  0  0  0  0  0  0  0  0  0  0  0
  153.4311  144.4547  160.4651 H   0  0  0  0  0  0  0  0  0  0  0  0
  150.4696  145.0043  160.0752 H   0  0  0  0  0  0  0  0  0  0  0  0
  151.7457  146.1943  160.3288 H   0  0  0  0  0  0  0  0  0  0  0  0
  152.6231  145.8509  158.1308 H   0  0  0  0  0  0  0  0  0  0  0  0
  150.9098  145.6586  157.8123 H   0  0  0  0  0  0  0  0  0  0  0  0
  151.8077  139.7774  156.0126 H   0  0  0  0  0  0  0  0  0  0  0  0
  1  2  1  0  0  0  0
  1 16  1  0  0  0  0
  1 17  1  0  0  0  0
  2 15  2  0  0  0  0
  2  3  1  0  0  0  0
  3  4  2  0  0  0  0
  3 18  1  0  0  0  0
  4  5  1  0  0  0  0
  5  6  1  0  0  0  0
  5 15  1  0  0  0  0
  6  7  1  0  0  0  0
  6 19  1  0  0  0  0
  6 20  1  0  0  0  0
  7  8  2  0  0  0  0
  7  9  1  0  0  0  0
  9 10  1  0  0  0  0
  9 21  1  0  0  0  0
 10 14  1  0  0  0  0
 10 11  1  0  0  0  0
 10 22  1  0  0  0  0
 11 12  1  0  0  0  0
 11 23  1  0  0  0  0
 11 24  1  0  0  0  0
 12 13  1  0  0  0  0
 12 25  1  0  0  0  0
 12 26  1  0  0  0  0
 13 14  1  0  0  0  0
 13 27  1  0  0  0  0
 13 28  1  0  0  0  0
 14 29  1  0  0  0  0
 14 30  1  0  0  0  0
 15 31  1  0  0  0  0
M  END
> <s_m_source_file>
AV-unprocessed.smi

> <i_m_source_file_index>
974

> <i_lp_mmshare_version>
43012

> <i_f3d_flags>
0

> <s_epik_input>
W05IMl1jMVtjSF1ubihbY0hdMSlbQ0gyXUMoPU8pW05IXVtDSF0yW0NIMl1bQ0gyXVtDSDJdW0NIMl0y

> <s_epik_cmdline>
J2VwaWtfcHl0aG9uJywgJy1waCcsICc3LjAnLCAnLXRuJywgJzgnLCAnLW1hJywgJzIwMCcsICctbWV0YWxfYmluZGluZycsICctaW1hZScsICc8aW5maWxlLm1hZT4nLCAnLW9tYWUnLCAnPG91dGZpbGUubWFlPic=

> <r_lp_tautomer_probability>
1

> <r_epik_Ionization_Penalty>
0.000104856

> <r_epik_Ionization_Penalty_Charging>
0

> <r_epik_Ionization_Penalty_Neutral>
0.000104856

> <r_epik_State_Penalty>
-0

> <r_epik_Charging_Adjusted_Penalty>
0

> <i_epik_Tot_Q>
0

> <i_epik_Tot_abs_Q>
0

> <r_epik_Metal_State_Penalty>
-0

> <b_epik_Metal_Only>
0

> <s_lp_Force_Field>
OPLS_2005

> <r_lp_Energy>
19.843

> <b_lp_Chiralities_Consistent>
1

> <s_lp_Variant>
AV-unprocessed.smi:974-1

> <Gold.Version>
5.8.1

> <Gold.Id.Protein>
6NUR|6NUR_protein|mol2

> <Gold.PLP.Fitness>
42.2320

> <Gold.PLP.PLP>
-33.0786

> <Gold.PLP.part.hbond>
-1.9342

> <Gold.PLP.part.metal>
0.0000

> <Gold.PLP.part.buried>
-2.6798

> <Gold.PLP.part.nonpolar>
-28.4848

> <Gold.PLP.part.repulsive>
0.2656

> <Gold.PLP.ligand.clash>
0.0000

> <Gold.PLP.ligand.torsion>
0.5413

> <Gold.PLP.Chemscore.Hbond>
1.9825

> <Gold.PLP.Chemscore.CHOScore>
1.4284

> <Gold.PLP.Chemscore.Metal>
0.0000

> <Gold.Chemscore.Hbonds>
donor molecule, donor type, donor heavy atom, donor atom, acceptor molecule, acceptor atom, score
      L1  H     1    17       P1  7949  1.00
      L1  H     9    21       P1  8028  1.00
      L1  C     3    18       P1  7948  0.96
      L1  C     3    18       P1  7957  0.44

> <Gold.PLP.Chemscore.Internal.Correction>
0.0031

> <Gold.Rescore>
     Score         DG    S(hbond)    S(metal)    S(lipo)     H(rot)  DE(clash)    DE(int)     intcor
     13.78     -17.91       1.84        0.00      89.05       1.61       0.68       3.46       ----

> <Gold.Chemscore.Fitness>
13.7750

> <Gold.Chemscore.DG>
-17.9127

> <Gold.Chemscore.ZeroCoef>
-5.4800

> <Gold.Chemscore.Hbond>
1.8362

> <Gold.Chemscore.Metal>
0.0000

> <Gold.Chemscore.Lipo>
89.0471

> <Gold.Chemscore.Internal_Hbond>
0.0000

> <Gold.Chemscore.DEClash>
0.6810

> <Gold.Chemscore.DEInternal>
3.4568

> <Gold.Chemscore.Rot>
1.6089

> <Gold.Chemscore.Internal.Correction>
   9.000000E+99

> <Gold.Chemscore.Hbonds>
donor molecule, donor type, donor heavy atom, donor atom, acceptor molecule, acceptor atom, score
      L1  H     1    17       P1  7949  0.88
      L1  H     9    21       P1  8028  0.93

> <Gold.Chemscore.Hbond.Weighted>
-6.1330

> <Gold.Chemscore.Metal.Weighted>
-0.0000

> <Gold.Chemscore.Lipo.Weighted>
-10.4185

> <Gold.Chemscore.Internal_Hbond.Weighted>
0.0000

> <Gold.Chemscore.DEClash.Weighted>
0.6810

> <Gold.Chemscore.DEInternal.Weighted>
3.4568

> <Gold.Chemscore.Rot.Weighted>
4.1188

> <Gold.Chemscore.Internal.Correction.Weighted>
   9.000000E+99

> <Gold.Protein.RotatedTorsions>
[ 6907 6896 6895 6894 ] final  124.83 input  -60.11 | X-H torsion
[ 7974 7965 7964 7962 ] final -102.34 input  175.53 | X-H torsion
[ 8008 7997 7996 7995 ] final -139.06 input   59.86 | X-H torsion
[ 10167 10162 10161 10158 ] final   20.21 input  -65.29 | X-H torsion
[ 10718 10713 10712 10709 ] final  -94.92 input   66.30 | X-H torsion
[ 10763 10752 10751 10750 ] final  129.38 input  -60.55 | X-H torsion
[ 11005 11000 10999 10996 ] final   -9.47 input  -57.11 | X-H torsion

> <Gold.Protein.ActiveResidues>
 VAL166  LYS551  ARG553  GLY616  TRP617  ASP618  TYR619  PRO620  LYS621  CYS622 
 ASP623  PHE694  ASN695  SER759  ASP760  ASP761  ALA762  ILE779  LEU786  VAL792 
 PHE793  MET794  SER795  GLU796  ALA797  LYS798  CYS799  TRP800  GLU811  SER814 

> <Gold.Protein.RotatedAtoms>
  152.4044  133.6867  159.6343 H   0  0  0  0  0  0  0  0  0  0  0  0  # atno 6907 bound_to 6896
  150.7931  133.8734  159.3274 H   0  0  0  0  0  0  0  0  0  0  0  0  # atno 6908 bound_to 6896
  151.6492  135.1005  160.0208 H   0  0  0  0  0  0  0  0  0  0  0  0  # atno 6909 bound_to 6896
  145.2700  140.9295  143.2992 H   0  0  0  0  0  0  0  0  0  0  0  0  # atno 7974 bound_to 7965
  155.4386  140.0530  157.3012 H   0  0  0  0  0  0  0  0  0  0  0  0  # atno 8008 bound_to 7997
  154.4828  140.2088  155.9681 H   0  0  0  0  0  0  0  0  0  0  0  0  # atno 8009 bound_to 7997
  156.1231  140.3185  155.8242 H   0  0  0  0  0  0  0  0  0  0  0  0  # atno 8010 bound_to 7997
  140.5520  143.9491  150.6584 H   0  0  0  0  0  0  0  0  0  0  0  0  # atno 10167 bound_to 10162
  156.0035  130.5088  150.5999 H   0  0  0  0  0  0  0  0  0  0  0  0  # atno 10718 bound_to 10713
  153.7408  135.3224  155.3304 H   0  0  0  0  0  0  0  0  0  0  0  0  # atno 10763 bound_to 10752
  154.8295  135.4544  154.1028 H   0  0  0  0  0  0  0  0  0  0  0  0  # atno 10764 bound_to 10752
  153.2202  135.6947  153.8090 H   0  0  0  0  0  0  0  0  0  0  0  0  # atno 10765 bound_to 10752
  140.7344  133.8722  155.8918 H   0  0  0  0  0  0  0  0  0  0  0  0  # atno 11005 bound_to 11000
  144.9344  139.4261  143.6479 LP  0  0  0  0  0  0  0  0  0  0  0  0  # atno 17320 bound_to 7965
  146.3249  139.8271  142.8915 LP  0  0  0  0  0  0  0  0  0  0  0  0  # atno 17321 bound_to 7965
  140.2920  143.3318  152.1054 LP  0  0  0  0  0  0  0  0  0  0  0  0  # atno 17342 bound_to 10162
  139.5031  144.6750  151.6151 LP  0  0  0  0  0  0  0  0  0  0  0  0  # atno 17343 bound_to 10162
  157.3850  131.0787  151.1444 LP  0  0  0  0  0  0  0  0  0  0  0  0  # atno 17370 bound_to 10713
  157.2154  130.6457  149.5790 LP  0  0  0  0  0  0  0  0  0  0  0  0  # atno 17371 bound_to 10713
  140.9892  134.1301  157.4424 LP  0  0  0  0  0  0  0  0  0  0  0  0  # atno 17394 bound_to 11000
  139.8819  135.0035  156.6191 LP  0  0  0  0  0  0  0  0  0  0  0  0  # atno 17395 bound_to 11000

$$$$
