AV-unprocessed.smi:3202|AV-procd|sdf|12246|dock4
  -GOLD-   2272018 83D 1   1.00000     0.00000
 Structure written by MMmdl.
 43 44  0  0  0  0  0  0  0  0  2 V2000
  150.9418  141.4552  156.0873 C   0  0  0  0  0  0  0  0  0  0  0  0
  150.2262  140.4048  155.2901 C   0  0  0  0  0  0  0  0  0  0  0  0
  148.8435  140.0601  155.3275 C   0  0  0  0  0  0  0  0  0  0  0  0
  148.7185  139.0540  154.4090 C   0  0  0  0  0  0  0  0  0  0  0  0
  147.5424  138.2371  153.9730 C   0  0  0  0  0  0  0  0  0  0  0  0
  146.4647  139.0183  153.1890 C   0  0  1  0  0  0  0  0  0  0  0  0
  146.8045  139.1149  151.6926 C   0  0  0  0  0  0  0  0  0  0  0  0
  145.1384  138.3746  153.3364 N   0  3  0  0  0  0  0  0  0  0  0  0
  145.0634  136.9414  152.9638 C   0  0  2  0  0  0  0  0  0  0  0  0
  145.0558  136.6884  151.4510 C   0  0  0  0  0  0  0  0  0  0  0  0
  144.3781  135.3243  151.2712 C   0  0  0  0  0  0  0  0  0  0  0  0
  143.7862  134.9512  152.6392 C   0  0  0  0  0  0  0  0  0  0  0  0
  143.7941  136.2362  153.4879 C   0  0  0  0  0  0  0  0  0  0  0  0
  143.8997  135.9105  154.9897 C   0  0  0  0  0  0  0  0  0  0  0  0
  142.5030  137.0458  153.2247 C   0  0  0  0  0  0  0  0  0  0  0  0
  149.9802  138.8454  153.9005 N   0  0  0  0  0  0  0  0  0  0  0  0
  150.9067  139.6682  154.4252 N   0  0  0  0  0  0  0  0  0  0  0  0
  150.2213  138.1576  153.2009 H   0  0  0  0  0  0  0  0  0  0  0  0
  150.2895  141.8848  156.8479 H   0  0  0  0  0  0  0  0  0  0  0  0
  151.2845  142.2680  155.4467 H   0  0  0  0  0  0  0  0  0  0  0  0
  151.8126  141.0400  156.5957 H   0  0  0  0  0  0  0  0  0  0  0  0
  148.0638  140.4900  155.9388 H   0  0  0  0  0  0  0  0  0  0  0  0
  147.1026  137.7889  154.8626 H   0  0  0  0  0  0  0  0  0  0  0  0
  147.8909  137.4006  153.3653 H   0  0  0  0  0  0  0  0  0  0  0  0
  146.4055  140.0355  153.5789 H   0  0  0  0  0  0  0  0  0  0  0  0
  147.7427  139.6438  151.5251 H   0  0  0  0  0  0  0  0  0  0  0  0
  146.0289  139.6567  151.1499 H   0  0  0  0  0  0  0  0  0  0  0  0
  146.8965  138.1264  151.2411 H   0  0  0  0  0  0  0  0  0  0  0  0
  144.9010  138.4230  154.3170 H   0  0  0  0  0  0  0  0  0  0  0  0
  145.9293  136.4301  153.3892 H   0  0  0  0  0  0  0  0  0  0  0  0
  144.4681  137.4511  150.9383 H   0  0  0  0  0  0  0  0  0  0  0  0
  146.0603  136.7061  151.0266 H   0  0  0  0  0  0  0  0  0  0  0  0
  143.5966  135.3886  150.5131 H   0  0  0  0  0  0  0  0  0  0  0  0
  145.0896  134.5669  150.9409 H   0  0  0  0  0  0  0  0  0  0  0  0
  142.7935  134.5076  152.5518 H   0  0  0  0  0  0  0  0  0  0  0  0
  144.4268  134.1973  153.0997 H   0  0  0  0  0  0  0  0  0  0  0  0
  143.0396  135.3318  155.3283 H   0  0  0  0  0  0  0  0  0  0  0  0
  143.9417  136.8197  155.5903 H   0  0  0  0  0  0  0  0  0  0  0  0
  144.7937  135.3279  155.2143 H   0  0  0  0  0  0  0  0  0  0  0  0
  141.6198  136.4782  153.5202 H   0  0  0  0  0  0  0  0  0  0  0  0
  142.3836  137.2997  152.1713 H   0  0  0  0  0  0  0  0  0  0  0  0
  142.4874  137.9768  153.7917 H   0  0  0  0  0  0  0  0  0  0  0  0
  144.4470  138.8993  152.8199 H   0  0  0  0  0  0  0  0  0  0  0  0
  1 19  1  0  0  0  0
  1 20  1  0  0  0  0
  1 21  1  0  0  0  0
  1  2  1  0  0  0  0
  2 17  2  0  0  0  0
  2  3  1  0  0  0  0
  3  4  2  0  0  0  0
  3 22  1  0  0  0  0
  4 16  1  0  0  0  0
  4  5  1  0  0  0  0
  5  6  1  0  0  0  0
  5 23  1  0  0  0  0
  5 24  1  0  0  0  0
  6  7  1  0  0  0  0
  6  8  1  0  0  0  0
  6 25  1  0  0  0  0
  7 26  1  0  0  0  0
  7 27  1  0  0  0  0
  7 28  1  0  0  0  0
  8  9  1  0  0  0  0
  8 29  1  0  0  0  0
  8 43  1  0  0  0  0
  9 13  1  0  0  0  0
  9 10  1  0  0  0  0
  9 30  1  0  0  0  0
 10 11  1  0  0  0  0
 10 31  1  0  0  0  0
 10 32  1  0  0  0  0
 11 12  1  0  0  0  0
 11 33  1  0  0  0  0
 11 34  1  0  0  0  0
 12 13  1  0  0  0  0
 12 35  1  0  0  0  0
 12 36  1  0  0  0  0
 13 14  1  0  0  0  0
 13 15  1  0  0  0  0
 14 37  1  0  0  0  0
 14 38  1  0  0  0  0
 14 39  1  0  0  0  0
 15 40  1  0  0  0  0
 15 41  1  0  0  0  0
 15 42  1  0  0  0  0
 16 17  1  0  0  0  0
 16 18  1  0  0  0  0
M  CHG  1   8   1
M  END
> <s_m_source_file>
AV-unprocessed.smi

> <i_m_source_file_index>
3202

> <i_lp_mmshare_version>
43012

> <i_f3d_flags>
0

> <s_epik_input>
W0NIM11jMVtjSF1jKG5bbkhdMSlbQ0gyXVtDQEhdKFtDSDNdKVtOSF1bQ0BASF0oQzIoW0NIM10pW0NIM10pW0NIMl1bQ0gyXVtDSDJdMg==

> <s_epik_cmdline>
J2VwaWtfcHl0aG9uJywgJy1waCcsICc3LjAnLCAnLXRuJywgJzgnLCAnLW1hJywgJzIwMCcsICctbWV0YWxfYmluZGluZycsICctaW1hZScsICc8aW5maWxlLm1hZT4nLCAnLW9tYWUnLCAnPG91dGZpbGUubWFlPic=

> <r_lp_tautomer_probability>
0.5

> <r_epik_Ionization_Penalty>
0.000449684

> <r_epik_Ionization_Penalty_Charging>
0.000404963

> <r_epik_Ionization_Penalty_Neutral>
4.47208e-05

> <r_epik_State_Penalty>
0.41068

> <r_epik_Charging_Adjusted_Penalty>
0.411085

> <i_epik_Tot_Q>
1

> <i_epik_Tot_abs_Q>
1

> <r_epik_Metal_State_Penalty>
0.410687

> <b_epik_Metal_Only>
0

> <s_lp_Force_Field>
OPLS_2005

> <r_lp_Energy>
31.7221

> <b_lp_Chiralities_Consistent>
1

> <s_lp_Variant>
AV-unprocessed.smi:3202-6

> <Gold.Version>
5.8.1

> <Gold.Id.Protein>
6NUR|6NUR_protein|mol2

> <Gold.PLP.Fitness>
33.7543

> <Gold.PLP.PLP>
-25.7061

> <Gold.PLP.part.hbond>
-3.0000

> <Gold.PLP.part.metal>
0.0000

> <Gold.PLP.part.buried>
1.0937

> <Gold.PLP.part.nonpolar>
-23.7488

> <Gold.PLP.part.repulsive>
0.2060

> <Gold.PLP.ligand.clash>
0.0000

> <Gold.PLP.ligand.torsion>
0.4844

> <Gold.PLP.Chemscore.Hbond>
3.0000

> <Gold.PLP.Chemscore.CHOScore>
0.0000

> <Gold.PLP.Chemscore.Metal>
0.0000

> <Gold.Chemscore.Hbonds>
donor molecule, donor type, donor heavy atom, donor atom, acceptor molecule, acceptor atom, score
      L1  H     8    43       P1 10175  1.98
      P1  H  7989  7998       L1    17  1.00

> <Gold.PLP.Chemscore.Internal.Correction>
0.0171

> <Gold.Rescore>
     Score         DG    S(hbond)    S(metal)    S(lipo)     H(rot)  DE(clash)    DE(int)     intcor
     13.89     -15.70       1.71        0.00      70.35       1.46       0.14       1.67       ----

> <Gold.Chemscore.Fitness>
13.8946

> <Gold.Chemscore.DG>
-15.6960

> <Gold.Chemscore.ZeroCoef>
-5.4800

> <Gold.Chemscore.Hbond>
1.7132

> <Gold.Chemscore.Metal>
0.0000

> <Gold.Chemscore.Lipo>
70.3453

> <Gold.Chemscore.Internal_Hbond>
0.0000

> <Gold.Chemscore.DEClash>
0.1357

> <Gold.Chemscore.DEInternal>
1.6657

> <Gold.Chemscore.Rot>
1.4596

> <Gold.Chemscore.Internal.Correction>
   9.000000E+99

> <Gold.Chemscore.Hbonds>
donor molecule, donor type, donor heavy atom, donor atom, acceptor molecule, acceptor atom, score
      L1  H     8    43       P1 10175  0.94
      P1  H  7989  7998       L1    17  0.29

> <Gold.Chemscore.Hbond.Weighted>
-5.7221

> <Gold.Chemscore.Metal.Weighted>
-0.0000

> <Gold.Chemscore.Lipo.Weighted>
-8.2304

> <Gold.Chemscore.Internal_Hbond.Weighted>
0.0000

> <Gold.Chemscore.DEClash.Weighted>
0.1357

> <Gold.Chemscore.DEInternal.Weighted>
1.6657

> <Gold.Chemscore.Rot.Weighted>
3.7365

> <Gold.Chemscore.Internal.Correction.Weighted>
   9.000000E+99

> <Gold.Protein.RotatedTorsions>
[ 6907 6896 6895 6894 ] final -129.34 input  -60.11 | X-H torsion
[ 7974 7965 7964 7962 ] final  122.31 input  175.53 | X-H torsion
[ 8008 7997 7996 7995 ] final  101.37 input   59.86 | X-H torsion
[ 10167 10162 10161 10158 ] final  167.14 input  -65.29 | X-H torsion
[ 10718 10713 10712 10709 ] final  163.71 input   66.30 | X-H torsion
[ 10763 10752 10751 10750 ] final   71.31 input  -60.55 | X-H torsion
[ 11005 11000 10999 10996 ] final  -20.76 input  -57.11 | X-H torsion

> <Gold.Protein.ActiveResidues>
 VAL166  LYS551  ARG553  GLY616  TRP617  ASP618  TYR619  PRO620  LYS621  CYS622 
 ASP623  PHE694  ASN695  SER759  ASP760  ASP761  ALA762  ILE779  LEU786  VAL792 
 PHE793  MET794  SER795  GLU796  ALA797  LYS798  CYS799  TRP800  GLU811  SER814 

> <Gold.Protein.RotatedAtoms>
  150.9276  133.6805  159.2817 H   0  0  0  0  0  0  0  0  0  0  0  0  # atno 6907 bound_to 6896
  151.4238  135.1000  159.9631 H   0  0  0  0  0  0  0  0  0  0  0  0  # atno 6908 bound_to 6896
  152.5010  133.8722  159.7359 H   0  0  0  0  0  0  0  0  0  0  0  0  # atno 6909 bound_to 6896
  145.1090  139.3466  143.4773 H   0  0  0  0  0  0  0  0  0  0  0  0  # atno 7974 bound_to 7965
  156.1292  140.3198  155.8324 H   0  0  0  0  0  0  0  0  0  0  0  0  # atno 8008 bound_to 7997
  155.4363  140.0522  157.3031 H   0  0  0  0  0  0  0  0  0  0  0  0  # atno 8009 bound_to 7997
  154.4886  140.2083  155.9612 H   0  0  0  0  0  0  0  0  0  0  0  0  # atno 8010 bound_to 7997
  139.4939  144.3954  151.9470 H   0  0  0  0  0  0  0  0  0  0  0  0  # atno 10167 bound_to 10162
  157.1046  131.0452  151.2483 H   0  0  0  0  0  0  0  0  0  0  0  0  # atno 10718 bound_to 10713
  153.0391  135.5141  154.7574 H   0  0  0  0  0  0  0  0  0  0  0  0  # atno 10763 bound_to 10752
  154.6525  135.2927  154.9971 H   0  0  0  0  0  0  0  0  0  0  0  0  # atno 10764 bound_to 10752
  154.0850  135.6658  153.4896 H   0  0  0  0  0  0  0  0  0  0  0  0  # atno 10765 bound_to 10752
  140.8495  133.7867  155.9950 H   0  0  0  0  0  0  0  0  0  0  0  0  # atno 11005 bound_to 11000
  146.3527  140.1001  142.8608 LP  0  0  0  0  0  0  0  0  0  0  0  0  # atno 17320 bound_to 7965
  145.0869  140.9258  143.4792 LP  0  0  0  0  0  0  0  0  0  0  0  0  # atno 17321 bound_to 7965
  140.3392  144.3224  150.5971 LP  0  0  0  0  0  0  0  0  0  0  0  0  # atno 17342 bound_to 10162
  140.5580  143.2196  151.7813 LP  0  0  0  0  0  0  0  0  0  0  0  0  # atno 17343 bound_to 10162
  157.4611  130.7654  149.7237 LP  0  0  0  0  0  0  0  0  0  0  0  0  # atno 17370 bound_to 10713
  155.9865  130.3974  150.3209 LP  0  0  0  0  0  0  0  0  0  0  0  0  # atno 17371 bound_to 10713
  140.8806  134.2616  157.5146 LP  0  0  0  0  0  0  0  0  0  0  0  0  # atno 17394 bound_to 11000
  139.8704  134.9613  156.4391 LP  0  0  0  0  0  0  0  0  0  0  0  0  # atno 17395 bound_to 11000

$$$$
