AV-unprocessed.smi:906|AV-procd|sdf|4100|dock2
  -GOLD-   22720 1593D 1   1.00000     0.00000
 Structure written by MMmdl.
 47 48  0  0  0  0  0  0  0  0  1 V2000
  151.1808  145.2808  160.3699 C   0  0  0  0  0  0  0  0  0  0  0  0
  152.0533  144.0673  160.6130 C   0  0  0  0  0  0  0  0  0  0  0  0
  152.7808  143.4754  159.5589 C   0  0  0  0  0  0  0  0  0  0  0  0
  153.5738  142.3470  159.8427 C   0  0  0  0  0  0  0  0  0  0  0  0
  153.6081  141.8543  161.1636 C   0  0  0  0  0  0  0  0  0  0  0  0
  154.4315  140.6284  161.5205 C   0  0  0  0  0  0  0  0  0  0  0  0
  154.0219  139.3754  160.7284 C   0  0  0  0  0  0  0  0  0  0  0  0
  154.7586  138.2014  161.1874 N   0  0  0  0  0  0  0  0  0  0  0  0
  154.4659  136.9224  160.8989 C   0  0  0  0  0  0  0  0  0  0  0  0
  153.4750  136.6059  160.2392 O   0  0  0  0  0  0  0  0  0  0  0  0
  155.3682  136.0210  161.3604 N   0  0  0  0  0  0  0  0  0  0  0  0
  156.2337  136.1623  162.5403 C   0  0  0  0  0  0  0  0  0  0  0  0
  155.7398  135.1961  163.6340 C   0  0  0  0  0  0  0  0  0  0  0  0
  155.7705  133.8133  163.1371 N   0  0  0  0  0  0  0  0  0  0  0  0
  155.4299  132.7835  164.1340 C   0  0  2  0  0  0  0  0  0  0  0  0
  154.1446  133.0903  164.9342 C   0  0  0  0  0  0  0  0  0  0  0  0
  156.6291  132.4502  165.0535 C   0  0  0  0  0  0  0  0  0  0  0  0
  157.7117  132.1835  164.3218 F   0  0  0  0  0  0  0  0  0  0  0  0
  156.9100  133.4431  165.8974 F   0  0  0  0  0  0  0  0  0  0  0  0
  156.3393  131.3649  165.7713 F   0  0  0  0  0  0  0  0  0  0  0  0
  154.9640  133.6754  161.9175 C   0  0  0  0  0  0  0  0  0  0  0  0
  155.4595  134.6555  160.8370 C   0  0  0  0  0  0  0  0  0  0  0  0
  152.8433  142.5202  162.1443 C   0  0  0  0  0  0  0  0  0  0  0  0
  152.0808  143.6033  161.8817 N   0  0  0  0  0  0  0  0  0  0  0  0
  151.2723  145.6342  159.3422 H   0  0  0  0  0  0  0  0  0  0  0  0
  151.4671  146.0955  161.0355 H   0  0  0  0  0  0  0  0  0  0  0  0
  150.1342  145.0373  160.5543 H   0  0  0  0  0  0  0  0  0  0  0  0
  152.7321  143.8725  158.5557 H   0  0  0  0  0  0  0  0  0  0  0  0
  154.1383  141.8664  159.0572 H   0  0  0  0  0  0  0  0  0  0  0  0
  155.4862  140.8442  161.3453 H   0  0  0  0  0  0  0  0  0  0  0  0
  154.3344  140.4374  162.5897 H   0  0  0  0  0  0  0  0  0  0  0  0
  152.9535  139.1909  160.8427 H   0  0  0  0  0  0  0  0  0  0  0  0
  154.1954  139.5540  159.6660 H   0  0  0  0  0  0  0  0  0  0  0  0
  155.5922  138.3766  161.7292 H   0  0  0  0  0  0  0  0  0  0  0  0
  157.2615  135.9222  162.2634 H   0  0  0  0  0  0  0  0  0  0  0  0
  156.2726  137.1744  162.9425 H   0  0  0  0  0  0  0  0  0  0  0  0
  156.3789  135.3027  164.5081 H   0  0  0  0  0  0  0  0  0  0  0  0
  154.7287  135.4723  163.9349 H   0  0  0  0  0  0  0  0  0  0  0  0
  155.2414  131.8707  163.5669 H   0  0  0  0  0  0  0  0  0  0  0  0
  153.8755  132.2423  165.5640 H   0  0  0  0  0  0  0  0  0  0  0  0
  153.2918  133.2858  164.2849 H   0  0  0  0  0  0  0  0  0  0  0  0
  154.2696  133.9494  165.5932 H   0  0  0  0  0  0  0  0  0  0  0  0
  155.0393  132.6557  161.5384 H   0  0  0  0  0  0  0  0  0  0  0  0
  153.9114  133.8630  162.1305 H   0  0  0  0  0  0  0  0  0  0  0  0
  154.8828  134.5162  159.9217 H   0  0  0  0  0  0  0  0  0  0  0  0
  156.4946  134.4355  160.5704 H   0  0  0  0  0  0  0  0  0  0  0  0
  152.8380  142.1711  163.1665 H   0  0  0  0  0  0  0  0  0  0  0  0
  1  2  1  0  0  0  0
  1 25  1  0  0  0  0
  1 26  1  0  0  0  0
  1 27  1  0  0  0  0
  2 24  1  0  0  0  0
  2  3  2  0  0  0  0
  3  4  1  0  0  0  0
  3 28  1  0  0  0  0
  4  5  2  0  0  0  0
  4 29  1  0  0  0  0
  5  6  1  0  0  0  0
  5 23  1  0  0  0  0
  6  7  1  0  0  0  0
  6 30  1  0  0  0  0
  6 31  1  0  0  0  0
  7  8  1  0  0  0  0
  7 32  1  0  0  0  0
  7 33  1  0  0  0  0
  8  9  1  0  0  0  0
  8 34  1  0  0  0  0
  9 10  2  0  0  0  0
  9 11  1  0  0  0  0
 11 22  1  0  0  0  0
 11 12  1  0  0  0  0
 12 13  1  0  0  0  0
 12 35  1  0  0  0  0
 12 36  1  0  0  0  0
 13 14  1  0  0  0  0
 13 37  1  0  0  0  0
 13 38  1  0  0  0  0
 14 15  1  0  0  0  0
 14 21  1  0  0  0  0
 15 16  1  0  0  0  0
 15 17  1  0  0  0  0
 15 39  1  0  0  0  0
 16 40  1  0  0  0  0
 16 41  1  0  0  0  0
 16 42  1  0  0  0  0
 17 18  1  0  0  0  0
 17 19  1  0  0  0  0
 17 20  1  0  0  0  0
 21 22  1  0  0  0  0
 21 43  1  0  0  0  0
 21 44  1  0  0  0  0
 22 45  1  0  0  0  0
 22 46  1  0  0  0  0
 23 24  2  0  0  0  0
 23 47  1  0  0  0  0
M  END
> <s_m_source_file>
AV-unprocessed.smi

> <i_m_source_file_index>
906

> <i_lp_mmshare_version>
43012

> <i_f3d_flags>
0

> <s_epik_input>
W0NIM11jMVtjSF1bY0hdYyhbY0hdbjEpW0NIMl1bQ0gyXVtOSF1DKD1PKU4yW0NIMl1bQ0gyXU4oW0NASF0oW0NIM10pQyhGKShGKUYpW0NIMl1bQ0gyXTI=

> <s_epik_cmdline>
J2VwaWtfcHl0aG9uJywgJy1waCcsICc3LjAnLCAnLXRuJywgJzgnLCAnLW1hJywgJzIwMCcsICctbWV0YWxfYmluZGluZycsICctaW1hZScsICc8aW5maWxlLm1hZT4nLCAnLW9tYWUnLCAnPG91dGZpbGUubWFlPic=

> <r_epik_Ionization_Penalty>
0.0782886

> <r_epik_Ionization_Penalty_Charging>
0

> <r_epik_Ionization_Penalty_Neutral>
0.0782886

> <r_epik_State_Penalty>
0.0661423

> <r_epik_Charging_Adjusted_Penalty>
0.0661423

> <i_epik_Tot_Q>
0

> <i_epik_Tot_abs_Q>
0

> <r_epik_Metal_State_Penalty>
0.060629

> <b_epik_Metal_Only>
0

> <s_lp_Force_Field>
OPLS_2005

> <r_lp_Energy>
48.1538

> <b_lp_Chiralities_Consistent>
1

> <s_lp_Variant>
AV-unprocessed.smi:906-1

> <Gold.Version>
5.8.1

> <Gold.Id.Protein>
6NUR|6NUR_protein|mol2

> <Gold.PLP.Fitness>
48.7108

> <Gold.PLP.PLP>
-46.6488

> <Gold.PLP.part.hbond>
-1.0000

> <Gold.PLP.part.metal>
0.0000

> <Gold.PLP.part.buried>
-5.5719

> <Gold.PLP.part.nonpolar>
-40.1372

> <Gold.PLP.part.repulsive>
0.1726

> <Gold.PLP.ligand.clash>
0.0000

> <Gold.PLP.ligand.torsion>
0.7801

> <Gold.PLP.Chemscore.Hbond>
1.0000

> <Gold.PLP.Chemscore.CHOScore>
0.0000

> <Gold.PLP.Chemscore.Metal>
0.0000

> <Gold.Chemscore.Hbonds>
donor molecule, donor type, donor heavy atom, donor atom, acceptor molecule, acceptor atom, score
      P1  H  6896  6909       L1    10  0.83

> <Gold.PLP.Chemscore.Internal.Correction>
0.6222

> <Gold.Rescore>
     Score         DG    S(hbond)    S(metal)    S(lipo)     H(rot)  DE(clash)    DE(int)     intcor
     18.37     -19.15       0.98        0.00     123.48       1.58       0.03       0.75       ----

> <Gold.Chemscore.Fitness>
18.3736

> <Gold.Chemscore.DG>
-19.1537

> <Gold.Chemscore.ZeroCoef>
-5.4800

> <Gold.Chemscore.Hbond>
0.9826

> <Gold.Chemscore.Metal>
0.0000

> <Gold.Chemscore.Lipo>
123.4808

> <Gold.Chemscore.Internal_Hbond>
0.0000

> <Gold.Chemscore.DEClash>
0.0294

> <Gold.Chemscore.DEInternal>
0.7507

> <Gold.Chemscore.Rot>
1.5841

> <Gold.Chemscore.Internal.Correction>
   9.000000E+99

> <Gold.Chemscore.Hbonds>
donor molecule, donor type, donor heavy atom, donor atom, acceptor molecule, acceptor atom, score
      P1  H  6896  6909       L1    10  0.82

> <Gold.Chemscore.Hbond.Weighted>
-3.2818

> <Gold.Chemscore.Metal.Weighted>
-0.0000

> <Gold.Chemscore.Lipo.Weighted>
-14.4472

> <Gold.Chemscore.Internal_Hbond.Weighted>
0.0000

> <Gold.Chemscore.DEClash.Weighted>
0.0294

> <Gold.Chemscore.DEInternal.Weighted>
0.7507

> <Gold.Chemscore.Rot.Weighted>
4.0554

> <Gold.Chemscore.Internal.Correction.Weighted>
   9.000000E+99

> <Gold.Protein.RotatedTorsions>
[ 6907 6896 6895 6894 ] final  158.16 input  -60.11 | X-H torsion
[ 7974 7965 7964 7962 ] final  129.34 input  175.53 | X-H torsion
[ 8008 7997 7996 7995 ] final  -10.60 input   59.86 | X-H torsion
[ 10167 10162 10161 10158 ] final -167.37 input  -65.29 | X-H torsion
[ 10718 10713 10712 10709 ] final  -84.90 input   66.30 | X-H torsion
[ 10763 10752 10751 10750 ] final  -85.04 input  -60.55 | X-H torsion
[ 11005 11000 10999 10996 ] final -150.22 input  -57.11 | X-H torsion

> <Gold.Protein.ActiveResidues>
 VAL166  LYS551  ARG553  GLY616  TRP617  ASP618  TYR619  PRO620  LYS621  CYS622 
 ASP623  PHE694  ASN695  SER759  ASP760  ASP761  ALA762  ILE779  LEU786  VAL792 
 PHE793  MET794  SER795  GLU796  ALA797  LYS798  CYS799  TRP800  GLU811  SER814 

> <Gold.Protein.RotatedAtoms>
  152.0044  133.3837  159.4194 H   0  0  0  0  0  0  0  0  0  0  0  0  # atno 6907 bound_to 6896
  150.6906  134.3798  159.5038 H   0  0  0  0  0  0  0  0  0  0  0  0  # atno 6908 bound_to 6896
  152.1550  134.8957  160.0596 H   0  0  0  0  0  0  0  0  0  0  0  0  # atno 6909 bound_to 6896
  145.0298  139.4057  143.5156 H   0  0  0  0  0  0  0  0  0  0  0  0  # atno 7974 bound_to 7965
  154.5540  140.2324  155.8440 H   0  0  0  0  0  0  0  0  0  0  0  0  # atno 8008 bound_to 7997
  156.1972  140.3062  155.9411 H   0  0  0  0  0  0  0  0  0  0  0  0  # atno 8009 bound_to 7997
  155.3016  140.0431  157.3020 H   0  0  0  0  0  0  0  0  0  0  0  0  # atno 8010 bound_to 7997
  139.6054  144.0924  152.1787 H   0  0  0  0  0  0  0  0  0  0  0  0  # atno 10167 bound_to 10162
  156.0001  130.4713  150.4481 H   0  0  0  0  0  0  0  0  0  0  0  0  # atno 10718 bound_to 10713
  154.6065  135.5499  153.7429 H   0  0  0  0  0  0  0  0  0  0  0  0  # atno 10763 bound_to 10752
  153.0177  135.6379  154.1639 H   0  0  0  0  0  0  0  0  0  0  0  0  # atno 10764 bound_to 10752
  154.1578  135.2899  155.3097 H   0  0  0  0  0  0  0  0  0  0  0  0  # atno 10765 bound_to 10752
  140.7424  134.3499  157.5144 H   0  0  0  0  0  0  0  0  0  0  0  0  # atno 11005 bound_to 11000
  146.3497  139.9841  142.8692 LP  0  0  0  0  0  0  0  0  0  0  0  0  # atno 17320 bound_to 7965
  145.1786  140.9756  143.4279 LP  0  0  0  0  0  0  0  0  0  0  0  0  # atno 17321 bound_to 7965
  140.0530  144.5917  150.7321 LP  0  0  0  0  0  0  0  0  0  0  0  0  # atno 17342 bound_to 10162
  140.7281  143.2658  151.4050 LP  0  0  0  0  0  0  0  0  0  0  0  0  # atno 17343 bound_to 10162
  157.2516  131.0547  151.2375 LP  0  0  0  0  0  0  0  0  0  0  0  0  # atno 17370 bound_to 10713
  157.3522  130.7088  149.6448 LP  0  0  0  0  0  0  0  0  0  0  0  0  # atno 17371 bound_to 10713
  139.8803  134.9089  156.2980 LP  0  0  0  0  0  0  0  0  0  0  0  0  # atno 17394 bound_to 11000
  140.9824  133.7259  156.0692 LP  0  0  0  0  0  0  0  0  0  0  0  0  # atno 17395 bound_to 11000

$$$$
