AV-unprocessed.smi:3329|AV-procd|sdf|12797|dock6
  -GOLD-   2272019153D 1   1.00000     0.00000
 Structure written by MMmdl.
 41 42  0  0  0  0  0  0  0  0  1 V2000
  151.7780  144.9672  159.8414 C   0  0  0  0  0  0  0  0  0  0  0  0
  151.8119  143.4985  159.5305 C   0  0  0  0  0  0  0  0  0  0  0  0
  152.5769  142.4843  160.1742 C   0  0  0  0  0  0  0  0  0  0  0  0
  152.3756  141.2823  159.6586 N   0  0  0  0  0  0  0  0  0  0  0  0
  151.4798  141.4865  158.6698 N   0  0  0  0  0  0  0  0  0  0  0  0
  151.0148  140.3664  157.8757 C   0  0  0  0  0  0  0  0  0  0  0  0
  149.4967  140.1738  158.0035 C   0  0  0  0  0  0  0  0  0  0  0  0
  149.2226  139.1568  159.0067 N   0  0  0  0  0  0  0  0  0  0  0  0
  149.8869  137.8966  158.6628 C   0  0  0  0  0  0  0  0  0  0  0  0
  149.0679  136.6953  159.1299 C   0  0  0  0  0  0  0  0  0  0  0  0
  149.4242  135.5578  158.8261 O   0  0  0  0  0  0  0  0  0  0  0  0
  147.9833  136.9677  159.8754 N   0  0  0  0  0  0  0  0  0  0  0  0
  147.0327  136.0226  160.4678 C   0  0  1  0  0  0  0  0  0  0  0  0
  145.7925  136.7872  160.9725 C   0  0  0  0  0  0  0  0  0  0  0  0
  146.5881  135.1188  159.3906 C   0  0  0  0  0  0  0  0  0  0  0  0
  146.2382  134.4070  158.5476 N   0  0  0  0  0  0  0  0  0  0  0  0
  147.6283  135.1962  161.6134 C   0  0  0  0  0  0  0  0  0  0  0  0
  146.7750  134.4419  162.6082 C   0  0  0  0  0  0  0  0  0  0  0  0
  147.5692  135.6497  163.0552 C   0  0  0  0  0  0  0  0  0  0  0  0
  151.1232  142.8141  158.5693 C   0  0  0  0  0  0  0  0  0  0  0  0
  152.2835  145.1951  160.7800 H   0  0  0  0  0  0  0  0  0  0  0  0
  150.7562  145.3367  159.9301 H   0  0  0  0  0  0  0  0  0  0  0  0
  152.2662  145.5536  159.0629 H   0  0  0  0  0  0  0  0  0  0  0  0
  153.2680  142.5859  160.9982 H   0  0  0  0  0  0  0  0  0  0  0  0
  151.2893  140.5448  156.8350 H   0  0  0  0  0  0  0  0  0  0  0  0
  151.5461  139.4680  158.1942 H   0  0  0  0  0  0  0  0  0  0  0  0
  149.0211  141.1133  158.2898 H   0  0  0  0  0  0  0  0  0  0  0  0
  149.0764  139.8711  157.0431 H   0  0  0  0  0  0  0  0  0  0  0  0
  148.2233  139.0358  159.0909 H   0  0  0  0  0  0  0  0  0  0  0  0
  150.0480  137.8450  157.5843 H   0  0  0  0  0  0  0  0  0  0  0  0
  150.8681  137.8519  159.1379 H   0  0  0  0  0  0  0  0  0  0  0  0
  147.7938  137.9427  160.0573 H   0  0  0  0  0  0  0  0  0  0  0  0
  145.0244  136.0971  161.3234 H   0  0  0  0  0  0  0  0  0  0  0  0
  145.3490  137.3913  160.1801 H   0  0  0  0  0  0  0  0  0  0  0  0
  146.0298  137.4525  161.8031 H   0  0  0  0  0  0  0  0  0  0  0  0
  148.5618  134.7062  161.3452 H   0  0  0  0  0  0  0  0  0  0  0  0
  145.6939  134.5453  162.5458 H   0  0  0  0  0  0  0  0  0  0  0  0
  147.1279  133.4632  162.9268 H   0  0  0  0  0  0  0  0  0  0  0  0
  148.4500  135.4732  163.6693 H   0  0  0  0  0  0  0  0  0  0  0  0
  147.0160  136.5563  163.2915 H   0  0  0  0  0  0  0  0  0  0  0  0
  150.4144  143.1582  157.8308 H   0  0  0  0  0  0  0  0  0  0  0  0
  1  2  1  0  0  0  0
  1 21  1  0  0  0  0
  1 22  1  0  0  0  0
  1 23  1  0  0  0  0
  2 20  2  0  0  0  0
  2  3  1  0  0  0  0
  3  4  2  0  0  0  0
  3 24  1  0  0  0  0
  4  5  1  0  0  0  0
  5  6  1  0  0  0  0
  5 20  1  0  0  0  0
  6  7  1  0  0  0  0
  6 25  1  0  0  0  0
  6 26  1  0  0  0  0
  7  8  1  0  0  0  0
  7 27  1  0  0  0  0
  7 28  1  0  0  0  0
  8  9  1  0  0  0  0
  8 29  1  0  0  0  0
  9 10  1  0  0  0  0
  9 30  1  0  0  0  0
  9 31  1  0  0  0  0
 10 11  2  0  0  0  0
 10 12  1  0  0  0  0
 12 13  1  0  0  0  0
 12 32  1  0  0  0  0
 13 14  1  0  0  0  0
 13 15  1  0  0  0  0
 13 17  1  0  0  0  0
 14 33  1  0  0  0  0
 14 34  1  0  0  0  0
 14 35  1  0  0  0  0
 15 16  3  0  0  0  0
 17 19  1  0  0  0  0
 17 18  1  0  0  0  0
 17 36  1  0  0  0  0
 18 19  1  0  0  0  0
 18 37  1  0  0  0  0
 18 38  1  0  0  0  0
 19 39  1  0  0  0  0
 19 40  1  0  0  0  0
 20 41  1  0  0  0  0
M  END
> <s_m_source_file>
AV-unprocessed.smi

> <i_m_source_file_index>
3329

> <i_lp_mmshare_version>
43012

> <i_f3d_flags>
0

> <s_epik_input>
W0NIM11jMVtjSF1ubihbY0hdMSlbQ0gyXVtDSDJdW05IXVtDSDJdQyg9TylbTkhdW0NAQF0oW0NIM10pKEMjTilbQ0hdMltDSDJdW0NIMl0y

> <s_epik_cmdline>
J2VwaWtfcHl0aG9uJywgJy1waCcsICc3LjAnLCAnLXRuJywgJzgnLCAnLW1hJywgJzIwMCcsICctbWV0YWxfYmluZGluZycsICctaW1hZScsICc8aW5maWxlLm1hZT4nLCAnLW9tYWUnLCAnPG91dGZpbGUubWFlPic=

> <r_lp_tautomer_probability>
1

> <r_epik_Ionization_Penalty>
0.481866

> <r_epik_Ionization_Penalty_Charging>
0

> <r_epik_Ionization_Penalty_Neutral>
0.481866

> <r_epik_State_Penalty>
0.48398

> <r_epik_Charging_Adjusted_Penalty>
0.48398

> <i_epik_Tot_Q>
0

> <i_epik_Tot_abs_Q>
0

> <r_epik_Metal_State_Penalty>
0.5042

> <b_epik_Metal_Only>
0

> <s_lp_Force_Field>
OPLS_2005

> <r_lp_Energy>
12.8497

> <b_lp_Chiralities_Consistent>
1

> <s_lp_Variant>
AV-unprocessed.smi:3329-3

> <Gold.Version>
5.8.1

> <Gold.Id.Protein>
6NUR|6NUR_protein|mol2

> <Gold.PLP.Fitness>
42.7124

> <Gold.PLP.PLP>
-38.2560

> <Gold.PLP.part.hbond>
-1.7585

> <Gold.PLP.part.metal>
0.0000

> <Gold.PLP.part.buried>
-4.7442

> <Gold.PLP.part.nonpolar>
-32.1135

> <Gold.PLP.part.repulsive>
0.3291

> <Gold.PLP.ligand.clash>
0.0000

> <Gold.PLP.ligand.torsion>
1.4194

> <Gold.PLP.Chemscore.Hbond>
1.0000

> <Gold.PLP.Chemscore.CHOScore>
0.8905

> <Gold.PLP.Chemscore.Metal>
0.0000

> <Gold.Chemscore.Hbonds>
donor molecule, donor type, donor heavy atom, donor atom, acceptor molecule, acceptor atom, score
      P1  H  6896  6908       L1    11  1.00

> <Gold.PLP.Chemscore.Internal.Correction>
1.6238

> <Gold.Rescore>
     Score         DG    S(hbond)    S(metal)    S(lipo)     H(rot)  DE(clash)    DE(int)     intcor
     12.70     -14.04       0.97        0.00      95.93       2.31       0.14       1.20       ----

> <Gold.Chemscore.Fitness>
12.6956

> <Gold.Chemscore.DG>
-14.0372

> <Gold.Chemscore.ZeroCoef>
-5.4800

> <Gold.Chemscore.Hbond>
0.9743

> <Gold.Chemscore.Metal>
0.0000

> <Gold.Chemscore.Lipo>
95.9321

> <Gold.Chemscore.Internal_Hbond>
0.0000

> <Gold.Chemscore.DEClash>
0.1421

> <Gold.Chemscore.DEInternal>
1.1995

> <Gold.Chemscore.Rot>
2.3129

> <Gold.Chemscore.Internal.Correction>
   9.000000E+99

> <Gold.Chemscore.Hbonds>
donor molecule, donor type, donor heavy atom, donor atom, acceptor molecule, acceptor atom, score
      P1  H  6896  6908       L1    11  0.99

> <Gold.Chemscore.Hbond.Weighted>
-3.2543

> <Gold.Chemscore.Metal.Weighted>
-0.0000

> <Gold.Chemscore.Lipo.Weighted>
-11.2241

> <Gold.Chemscore.Internal_Hbond.Weighted>
0.0000

> <Gold.Chemscore.DEClash.Weighted>
0.1421

> <Gold.Chemscore.DEInternal.Weighted>
1.1995

> <Gold.Chemscore.Rot.Weighted>
5.9211

> <Gold.Chemscore.Internal.Correction.Weighted>
   9.000000E+99

> <Gold.Protein.RotatedTorsions>
[ 6907 6896 6895 6894 ] final  158.72 input  -60.11 | X-H torsion
[ 7974 7965 7964 7962 ] final -167.58 input  175.53 | X-H torsion
[ 8008 7997 7996 7995 ] final   86.45 input   59.86 | X-H torsion
[ 10167 10162 10161 10158 ] final   52.05 input  -65.29 | X-H torsion
[ 10718 10713 10712 10709 ] final  -59.74 input   66.30 | X-H torsion
[ 10763 10752 10751 10750 ] final  -43.22 input  -60.55 | X-H torsion
[ 11005 11000 10999 10996 ] final   58.60 input  -57.11 | X-H torsion

> <Gold.Protein.ActiveResidues>
 VAL166  LYS551  ARG553  GLY616  TRP617  ASP618  TYR619  PRO620  LYS621  CYS622 
 ASP623  PHE694  ASN695  SER759  ASP760  ASP761  ALA762  ILE779  LEU786  VAL792 
 PHE793  MET794  SER795  GLU796  ALA797  LYS798  CYS799  TRP800  GLU811  SER814 

> <Gold.Protein.RotatedAtoms>
  151.9963  133.3809  159.4163 H   0  0  0  0  0  0  0  0  0  0  0  0  # atno 6907 bound_to 6896
  150.6915  134.3882  159.5074 H   0  0  0  0  0  0  0  0  0  0  0  0  # atno 6908 bound_to 6896
  152.1623  134.8902  160.0591 H   0  0  0  0  0  0  0  0  0  0  0  0  # atno 6909 bound_to 6896
  144.7220  140.2498  143.6280 H   0  0  0  0  0  0  0  0  0  0  0  0  # atno 7974 bound_to 7965
  155.9630  140.3392  155.6507 H   0  0  0  0  0  0  0  0  0  0  0  0  # atno 8008 bound_to 7997
  155.6774  140.0734  157.2516 H   0  0  0  0  0  0  0  0  0  0  0  0  # atno 8009 bound_to 7997
  154.4147  140.1680  156.1932 H   0  0  0  0  0  0  0  0  0  0  0  0  # atno 8010 bound_to 7997
  140.2555  144.3432  150.6334 H   0  0  0  0  0  0  0  0  0  0  0  0  # atno 10167 bound_to 10162
  156.1040  130.4182  150.0757 H   0  0  0  0  0  0  0  0  0  0  0  0  # atno 10718 bound_to 10713
  153.9920  135.6704  153.4754 H   0  0  0  0  0  0  0  0  0  0  0  0  # atno 10763 bound_to 10752
  153.0700  135.4979  154.8281 H   0  0  0  0  0  0  0  0  0  0  0  0  # atno 10764 bound_to 10752
  154.7103  135.3096  154.9169 H   0  0  0  0  0  0  0  0  0  0  0  0  # atno 10765 bound_to 10752
  140.0365  134.5935  155.9437 H   0  0  0  0  0  0  0  0  0  0  0  0  # atno 11005 bound_to 11000
  145.8239  139.2056  143.1922 LP  0  0  0  0  0  0  0  0  0  0  0  0  # atno 17320 bound_to 7965
  146.0490  140.8089  142.9791 LP  0  0  0  0  0  0  0  0  0  0  0  0  # atno 17321 bound_to 7965
  140.6007  143.2167  151.7077 LP  0  0  0  0  0  0  0  0  0  0  0  0  # atno 17342 bound_to 10162
  139.5033  144.3797  152.0389 LP  0  0  0  0  0  0  0  0  0  0  0  0  # atno 17343 bound_to 10162
  156.8737  130.9533  151.3606 LP  0  0  0  0  0  0  0  0  0  0  0  0  # atno 17370 bound_to 10713
  157.6214  130.8658  149.9115 LP  0  0  0  0  0  0  0  0  0  0  0  0  # atno 17371 bound_to 10713
  141.1860  133.6556  156.5222 LP  0  0  0  0  0  0  0  0  0  0  0  0  # atno 17394 bound_to 11000
  140.4138  134.7248  157.4851 LP  0  0  0  0  0  0  0  0  0  0  0  0  # atno 17395 bound_to 11000

$$$$
