AV-unprocessed.smi:3092|AV-procd|sdf|11782|dock4
  -GOLD-   2272017163D 1   1.00000     0.00000
 Structure written by MMmdl.
 25 26  0  0  0  0  0  0  0  0  2 V2000
  151.6061  145.6118  160.1284 C   0  0  0  0  0  0  0  0  0  0  0  0
  151.9358  144.2572  160.5293 N   0  0  0  0  0  0  0  0  0  0  0  0
  152.5875  143.8980  161.7021 C   0  0  0  0  0  0  0  0  0  0  0  0
  152.6963  142.5290  161.6907 C   0  0  0  0  0  0  0  0  0  0  0  0
  152.1221  142.0325  160.5258 N   0  0  0  0  0  0  0  0  0  0  0  0
  151.6868  143.1062  159.8714 C   0  0  0  0  0  0  0  0  0  0  0  0
  150.9847  143.0389  158.5443 C   0  0  2  0  0  0  0  0  0  0  0  0
  150.9582  141.6638  157.8816 C   0  0  0  0  0  0  0  0  0  0  0  0
  150.6651  141.9849  156.4084 C   0  0  0  0  0  0  0  0  0  0  0  0
  151.0257  143.4046  156.1994 N   0  3  0  0  0  0  0  0  0  0  0  0
  151.5947  143.9206  157.4568 C   0  0  0  0  0  0  0  0  0  0  0  0
  151.9098  146.3181  160.9017 H   0  0  0  0  0  0  0  0  0  0  0  0
  150.5301  145.7011  159.9757 H   0  0  0  0  0  0  0  0  0  0  0  0
  152.1255  145.8592  159.2020 H   0  0  0  0  0  0  0  0  0  0  0  0
  152.9109  144.6270  162.4308 H   0  0  0  0  0  0  0  0  0  0  0  0
  153.1386  141.8699  162.4233 H   0  0  0  0  0  0  0  0  0  0  0  0
  149.9497  143.3561  158.6731 H   0  0  0  0  0  0  0  0  0  0  0  0
  151.9393  141.1920  157.9557 H   0  0  0  0  0  0  0  0  0  0  0  0
  150.2288  140.9882  158.3295 H   0  0  0  0  0  0  0  0  0  0  0  0
  151.2282  141.3363  155.7364 H   0  0  0  0  0  0  0  0  0  0  0  0
  149.6047  141.8587  156.1875 H   0  0  0  0  0  0  0  0  0  0  0  0
  151.6864  143.5053  155.4418 H   0  0  0  0  0  0  0  0  0  0  0  0
  151.3840  144.9809  157.5988 H   0  0  0  0  0  0  0  0  0  0  0  0
  152.6775  143.7915  157.4170 H   0  0  0  0  0  0  0  0  0  0  0  0
  150.1828  143.9189  155.9866 H   0  0  0  0  0  0  0  0  0  0  0  0
  1  2  1  0  0  0  0
  1 12  1  0  0  0  0
  1 13  1  0  0  0  0
  1 14  1  0  0  0  0
  2  6  1  0  0  0  0
  2  3  1  0  0  0  0
  3  4  2  0  0  0  0
  3 15  1  0  0  0  0
  4  5  1  0  0  0  0
  4 16  1  0  0  0  0
  5  6  2  0  0  0  0
  6  7  1  0  0  0  0
  7 11  1  0  0  0  0
  7  8  1  0  0  0  0
  7 17  1  0  0  0  0
  8  9  1  0  0  0  0
  8 18  1  0  0  0  0
  8 19  1  0  0  0  0
  9 10  1  0  0  0  0
  9 20  1  0  0  0  0
  9 21  1  0  0  0  0
 10 11  1  0  0  0  0
 10 22  1  0  0  0  0
 10 25  1  0  0  0  0
 11 23  1  0  0  0  0
 11 24  1  0  0  0  0
M  CHG  1  10   1
M  END
> <s_m_source_file>
AV-unprocessed.smi

> <i_m_source_file_index>
3092

> <i_lp_mmshare_version>
43012

> <i_f3d_flags>
0

> <s_epik_input>
W0NIM11uMVtjSF1bY0hdbmMxW0NAQEhdMltDSDJdW0NIMl1bTkhdW0NIMl0y

> <s_epik_cmdline>
J2VwaWtfcHl0aG9uJywgJy1waCcsICc3LjAnLCAnLXRuJywgJzgnLCAnLW1hJywgJzIwMCcsICctbWV0YWxfYmluZGluZycsICctaW1hZScsICc8aW5maWxlLm1hZT4nLCAnLW9tYWUnLCAnPG91dGZpbGUubWFlPic=

> <r_lp_tautomer_probability>
1

> <r_epik_Ionization_Penalty>
0.177139

> <r_epik_Ionization_Penalty_Charging>
0.177139

> <r_epik_Ionization_Penalty_Neutral>
7.43304e-14

> <r_epik_State_Penalty>
0.16632

> <r_epik_Charging_Adjusted_Penalty>
0.343459

> <i_epik_Tot_Q>
1

> <i_epik_Tot_abs_Q>
1

> <r_epik_Metal_State_Penalty>
0.000191838

> <b_epik_Metal_Only>
0

> <s_lp_Force_Field>
OPLS_2005

> <r_lp_Energy>
23.658

> <b_lp_Chiralities_Consistent>
1

> <s_lp_Variant>
AV-unprocessed.smi:3092-1

> <Gold.Version>
5.8.1

> <Gold.Id.Protein>
6NUR|6NUR_protein|mol2

> <Gold.PLP.Fitness>
36.2535

> <Gold.PLP.PLP>
-30.4539

> <Gold.PLP.part.hbond>
-1.3929

> <Gold.PLP.part.metal>
0.0000

> <Gold.PLP.part.buried>
-3.0609

> <Gold.PLP.part.nonpolar>
-26.0721

> <Gold.PLP.part.repulsive>
0.1391

> <Gold.PLP.ligand.clash>
0.0000

> <Gold.PLP.ligand.torsion>
0.1008

> <Gold.PLP.Chemscore.Hbond>
2.0000

> <Gold.PLP.Chemscore.CHOScore>
0.0000

> <Gold.PLP.Chemscore.Metal>
0.0000

> <Gold.Chemscore.Hbonds>
donor molecule, donor type, donor heavy atom, donor atom, acceptor molecule, acceptor atom, score
      L1  H    10    25       P1  8028  2.00

> <Gold.PLP.Chemscore.Internal.Correction>
0.0012

> <Gold.Rescore>
     Score         DG    S(hbond)    S(metal)    S(lipo)     H(rot)  DE(clash)    DE(int)     intcor
     14.78     -15.13       1.00        0.00      75.91       1.00       0.35       0.00       ----

> <Gold.Chemscore.Fitness>
14.7756

> <Gold.Chemscore.DG>
-15.1256

> <Gold.Chemscore.ZeroCoef>
-5.4800

> <Gold.Chemscore.Hbond>
0.9952

> <Gold.Chemscore.Metal>
0.0000

> <Gold.Chemscore.Lipo>
75.9123

> <Gold.Chemscore.Internal_Hbond>
0.0000

> <Gold.Chemscore.DEClash>
0.3494

> <Gold.Chemscore.DEInternal>
0.0006

> <Gold.Chemscore.Rot>
1.0000

> <Gold.Chemscore.Internal.Correction>
   9.000000E+99

> <Gold.Chemscore.Hbonds>
donor molecule, donor type, donor heavy atom, donor atom, acceptor molecule, acceptor atom, score
      L1  H    10    25       P1  8028  0.94

> <Gold.Chemscore.Hbond.Weighted>
-3.3239

> <Gold.Chemscore.Metal.Weighted>
-0.0000

> <Gold.Chemscore.Lipo.Weighted>
-8.8817

> <Gold.Chemscore.Internal_Hbond.Weighted>
0.0000

> <Gold.Chemscore.DEClash.Weighted>
0.3494

> <Gold.Chemscore.DEInternal.Weighted>
0.0006

> <Gold.Chemscore.Rot.Weighted>
2.5600

> <Gold.Chemscore.Internal.Correction.Weighted>
   9.000000E+99

> <Gold.Protein.RotatedTorsions>
[ 6907 6896 6895 6894 ] final -119.18 input  -60.11 | X-H torsion
[ 7974 7965 7964 7962 ] final  125.36 input  175.53 | X-H torsion
[ 8008 7997 7996 7995 ] final -154.00 input   59.86 | X-H torsion
[ 10167 10162 10161 10158 ] final  117.84 input  -65.29 | X-H torsion
[ 10718 10713 10712 10709 ] final -166.92 input   66.30 | X-H torsion
[ 10763 10752 10751 10750 ] final   90.10 input  -60.55 | X-H torsion
[ 11005 11000 10999 10996 ] final   45.11 input  -57.11 | X-H torsion

> <Gold.Protein.ActiveResidues>
 VAL166  LYS551  ARG553  GLY616  TRP617  ASP618  TYR619  PRO620  LYS621  CYS622 
 ASP623  PHE694  ASN695  SER759  ASP760  ASP761  ALA762  ILE779  LEU786  VAL792 
 PHE793  MET794  SER795  GLU796  ALA797  LYS798  CYS799  TRP800  GLU811  SER814 

> <Gold.Protein.RotatedAtoms>
  150.8283  133.8135  159.3109 H   0  0  0  0  0  0  0  0  0  0  0  0  # atno 6907 bound_to 6896
  151.5873  135.1053  160.0040 H   0  0  0  0  0  0  0  0  0  0  0  0  # atno 6908 bound_to 6896
  152.4365  133.7329  159.6654 H   0  0  0  0  0  0  0  0  0  0  0  0  # atno 6909 bound_to 6896
  145.0739  139.3709  143.4943 H   0  0  0  0  0  0  0  0  0  0  0  0  # atno 7974 bound_to 7965
  155.6795  140.0742  157.2490 H   0  0  0  0  0  0  0  0  0  0  0  0  # atno 8008 bound_to 7997
  154.4108  140.1684  156.2019 H   0  0  0  0  0  0  0  0  0  0  0  0  # atno 8009 bound_to 7997
  155.9547  140.3374  155.6441 H   0  0  0  0  0  0  0  0  0  0  0  0  # atno 8010 bound_to 7997
  139.6151  144.7090  151.2756 H   0  0  0  0  0  0  0  0  0  0  0  0  # atno 10167 bound_to 10162
  156.6748  130.9098  151.3049 H   0  0  0  0  0  0  0  0  0  0  0  0  # atno 10718 bound_to 10713
  153.1940  135.4446  155.0185 H   0  0  0  0  0  0  0  0  0  0  0  0  # atno 10763 bound_to 10752
  154.8108  135.3293  154.7313 H   0  0  0  0  0  0  0  0  0  0  0  0  # atno 10764 bound_to 10752
  153.7765  135.6981  153.4952 H   0  0  0  0  0  0  0  0  0  0  0  0  # atno 10765 bound_to 10752
  140.1490  134.4486  155.8395 H   0  0  0  0  0  0  0  0  0  0  0  0  # atno 11005 bound_to 11000
  146.3529  140.0497  142.8637 LP  0  0  0  0  0  0  0  0  0  0  0  0  # atno 17320 bound_to 7965
  145.1259  140.9490  143.4573 LP  0  0  0  0  0  0  0  0  0  0  0  0  # atno 17321 bound_to 7965
  140.7346  143.6762  150.8039 LP  0  0  0  0  0  0  0  0  0  0  0  0  # atno 17342 bound_to 10162
  140.0363  143.5391  152.2737 LP  0  0  0  0  0  0  0  0  0  0  0  0  # atno 17343 bound_to 10162
  157.7064  130.9390  150.0946 LP  0  0  0  0  0  0  0  0  0  0  0  0  # atno 17370 bound_to 10713
  156.1911  130.3655  149.8908 LP  0  0  0  0  0  0  0  0  0  0  0  0  # atno 17371 bound_to 10713
  141.2196  133.6864  156.7386 LP  0  0  0  0  0  0  0  0  0  0  0  0  # atno 17394 bound_to 11000
  140.2628  134.8453  157.3775 LP  0  0  0  0  0  0  0  0  0  0  0  0  # atno 17395 bound_to 11000

$$$$
