AV-unprocessed.smi:3153|AV-procd|sdf|12019|dock10
  -GOLD-   2272017433D 1   1.00000     0.00000
 Structure written by MMmdl.
 38 39  0  0  0  0  0  0  0  0  2 V2000
  149.4782  140.6973  153.3878 O   0  0  0  0  0  0  0  0  0  0  0  0
  149.2326  139.7107  154.3752 C   0  0  0  0  0  0  0  0  0  0  0  0
  147.9737  138.9267  153.9411 C   0  0  0  0  0  0  0  0  0  0  0  0
  147.9225  138.7031  152.4805 N   0  3  0  0  0  0  0  0  0  0  0  0
  146.5577  138.7039  151.9201 C   0  0  0  0  0  0  0  0  0  0  0  0
  145.6568  137.7023  152.6586 C   0  0  0  0  0  0  0  0  0  0  0  0
  145.2762  136.5862  151.8136 N   0  0  0  0  0  0  0  0  0  0  0  0
  146.0518  135.8924  150.9082 C   0  0  0  0  0  0  0  0  0  0  0  0
  145.2654  134.9196  150.3608 C   0  0  0  0  0  0  0  0  0  0  0  0
  144.0109  135.0935  151.0094 C   0  0  0  0  0  0  0  0  0  0  0  0
  144.0222  136.0886  151.8820 N   0  0  0  0  0  0  0  0  0  0  0  0
  150.4531  138.7599  154.4151 C   0  0  0  0  0  0  0  0  0  0  0  0
  151.7308  139.4385  154.9402 C   0  0  0  0  0  0  0  0  0  0  0  0
  151.4978  140.0740  156.3173 C   0  0  0  0  0  0  0  0  0  0  0  0
  150.3268  141.0652  156.2722 C   0  0  0  0  0  0  0  0  0  0  0  0
  149.0417  140.3960  155.7519 C   0  0  0  0  0  0  0  0  0  0  0  0
  149.3888  140.3013  152.5340 H   0  0  0  0  0  0  0  0  0  0  0  0
  147.9403  137.9605  154.4470 H   0  0  0  0  0  0  0  0  0  0  0  0
  147.0772  139.4705  154.2431 H   0  0  0  0  0  0  0  0  0  0  0  0
  148.4586  139.4283  152.0260 H   0  0  0  0  0  0  0  0  0  0  0  0
  146.1434  139.7103  151.9946 H   0  0  0  0  0  0  0  0  0  0  0  0
  146.6059  138.4516  150.8599 H   0  0  0  0  0  0  0  0  0  0  0  0
  146.1695  137.3106  153.5381 H   0  0  0  0  0  0  0  0  0  0  0  0
  144.7481  138.1917  153.0123 H   0  0  0  0  0  0  0  0  0  0  0  0
  147.0863  136.1457  150.7286 H   0  0  0  0  0  0  0  0  0  0  0  0
  145.5447  134.1918  149.6134 H   0  0  0  0  0  0  0  0  0  0  0  0
  143.1000  134.5290  150.8746 H   0  0  0  0  0  0  0  0  0  0  0  0
  150.2247  137.9100  155.0599 H   0  0  0  0  0  0  0  0  0  0  0  0
  150.6416  138.3428  153.4249 H   0  0  0  0  0  0  0  0  0  0  0  0
  152.5380  138.7080  155.0019 H   0  0  0  0  0  0  0  0  0  0  0  0
  152.0626  140.2018  154.2355 H   0  0  0  0  0  0  0  0  0  0  0  0
  151.2912  139.2942  157.0516 H   0  0  0  0  0  0  0  0  0  0  0  0
  152.4034  140.5819  156.6507 H   0  0  0  0  0  0  0  0  0  0  0  0
  150.1528  141.4767  157.2669 H   0  0  0  0  0  0  0  0  0  0  0  0
  150.5882  141.9097  155.6334 H   0  0  0  0  0  0  0  0  0  0  0  0
  148.2462  141.1405  155.7045 H   0  0  0  0  0  0  0  0  0  0  0  0
  148.7167  139.6524  156.4810 H   0  0  0  0  0  0  0  0  0  0  0  0
  148.3543  137.8117  152.2817 H   0  0  0  0  0  0  0  0  0  0  0  0
  1  2  1  0  0  0  0
  1 17  1  0  0  0  0
  2 16  1  0  0  0  0
  2  3  1  0  0  0  0
  2 12  1  0  0  0  0
  3  4  1  0  0  0  0
  3 18  1  0  0  0  0
  3 19  1  0  0  0  0
  4  5  1  0  0  0  0
  4 20  1  0  0  0  0
  4 38  1  0  0  0  0
  5  6  1  0  0  0  0
  5 21  1  0  0  0  0
  5 22  1  0  0  0  0
  6  7  1  0  0  0  0
  6 23  1  0  0  0  0
  6 24  1  0  0  0  0
  7 11  1  0  0  0  0
  7  8  1  0  0  0  0
  8  9  2  0  0  0  0
  8 25  1  0  0  0  0
  9 10  1  0  0  0  0
  9 26  1  0  0  0  0
 10 11  2  0  0  0  0
 10 27  1  0  0  0  0
 12 13  1  0  0  0  0
 12 28  1  0  0  0  0
 12 29  1  0  0  0  0
 13 14  1  0  0  0  0
 13 30  1  0  0  0  0
 13 31  1  0  0  0  0
 14 15  1  0  0  0  0
 14 32  1  0  0  0  0
 14 33  1  0  0  0  0
 15 16  1  0  0  0  0
 15 34  1  0  0  0  0
 15 35  1  0  0  0  0
 16 36  1  0  0  0  0
 16 37  1  0  0  0  0
M  CHG  1   4   1
M  END
> <s_m_source_file>
AV-unprocessed.smi

> <i_m_source_file_index>
3153

> <i_lp_mmshare_version>
43012

> <i_f3d_flags>
0

> <s_epik_input>
W0NIMl0xW0NIMl1bQ0gyXVtDSDJdW0NIMl1DMShbT0hdKVtDSDJdW05IXVtDSDJdW0NIMl1uMltjSF1bY0hdW2NIXW4y

> <s_epik_cmdline>
J2VwaWtfcHl0aG9uJywgJy1waCcsICc3LjAnLCAnLXRuJywgJzgnLCAnLW1hJywgJzIwMCcsICctbWV0YWxfYmluZGluZycsICctaW1hZScsICc8aW5maWxlLm1hZT4nLCAnLW9tYWUnLCAnPG91dGZpbGUubWFlPic=

> <r_lp_tautomer_probability>
1

> <r_epik_Ionization_Penalty>
0.0240152

> <r_epik_Ionization_Penalty_Charging>
0.0240119

> <r_epik_Ionization_Penalty_Neutral>
3.38076e-06

> <r_epik_State_Penalty>
0.0194671

> <r_epik_Charging_Adjusted_Penalty>
0.043479

> <i_epik_Tot_Q>
1

> <i_epik_Tot_abs_Q>
1

> <r_epik_Metal_State_Penalty>
0.0195093

> <b_epik_Metal_Only>
0

> <s_lp_Force_Field>
OPLS_2005

> <r_lp_Energy>
15.7554

> <b_lp_Chiralities_Consistent>
1

> <s_lp_Variant>
AV-unprocessed.smi:3153-1

> <Gold.Version>
5.8.1

> <Gold.Id.Protein>
6NUR|6NUR_protein|mol2

> <Gold.PLP.Fitness>
49.5094

> <Gold.PLP.PLP>
-33.6697

> <Gold.PLP.part.hbond>
-4.1392

> <Gold.PLP.part.metal>
0.0000

> <Gold.PLP.part.buried>
-2.1761

> <Gold.PLP.part.nonpolar>
-28.4645

> <Gold.PLP.part.repulsive>
0.2292

> <Gold.PLP.ligand.clash>
0.0000

> <Gold.PLP.ligand.torsion>
1.1707

> <Gold.PLP.Chemscore.Hbond>
4.3060

> <Gold.PLP.Chemscore.CHOScore>
1.7385

> <Gold.PLP.Chemscore.Metal>
0.0000

> <Gold.Chemscore.Hbonds>
donor molecule, donor type, donor heavy atom, donor atom, acceptor molecule, acceptor atom, score
      L1  H     1    17       P1  7957  0.71
      L1  H     4    20       P1  7957  1.00
      L1  H     4    38       P1  7948  2.00
      P1  H  7989  7998       L1     1  0.24
      P1  H  8011  8017       L1     1  0.20
      L1  C     8    25       P1  7948  1.00
      L1  C    10    27       P1 10186  1.00

> <Gold.PLP.Chemscore.Internal.Correction>
0.0475

> <Gold.Rescore>
     Score         DG    S(hbond)    S(metal)    S(lipo)     H(rot)  DE(clash)    DE(int)     intcor
     16.19     -17.68       2.69        0.00      76.97       2.26       0.31       1.17       ----

> <Gold.Chemscore.Fitness>
16.1936

> <Gold.Chemscore.DG>
-17.6760

> <Gold.Chemscore.ZeroCoef>
-5.4800

> <Gold.Chemscore.Hbond>
2.6874

> <Gold.Chemscore.Metal>
0.0000

> <Gold.Chemscore.Lipo>
76.9721

> <Gold.Chemscore.Internal_Hbond>
0.0000

> <Gold.Chemscore.DEClash>
0.3126

> <Gold.Chemscore.DEInternal>
1.1698

> <Gold.Chemscore.Rot>
2.2601

> <Gold.Chemscore.Internal.Correction>
   9.000000E+99

> <Gold.Chemscore.Hbonds>
donor molecule, donor type, donor heavy atom, donor atom, acceptor molecule, acceptor atom, score
      L1  H     1    17       P1  7957  0.70
      L1  H     4    20       P1  7957  0.93
      L1  H     4    38       P1  7948  1.00
      P1  H  7989  7998       L1     1  0.02

> <Gold.Chemscore.Hbond.Weighted>
-8.9761

> <Gold.Chemscore.Metal.Weighted>
-0.0000

> <Gold.Chemscore.Lipo.Weighted>
-9.0057

> <Gold.Chemscore.Internal_Hbond.Weighted>
0.0000

> <Gold.Chemscore.DEClash.Weighted>
0.3126

> <Gold.Chemscore.DEInternal.Weighted>
1.1698

> <Gold.Chemscore.Rot.Weighted>
5.7858

> <Gold.Chemscore.Internal.Correction.Weighted>
   9.000000E+99

> <Gold.Protein.RotatedTorsions>
[ 6907 6896 6895 6894 ] final   59.85 input  -60.11 | X-H torsion
[ 7974 7965 7964 7962 ] final  151.03 input  175.53 | X-H torsion
[ 8008 7997 7996 7995 ] final  161.25 input   59.86 | X-H torsion
[ 10167 10162 10161 10158 ] final  -38.49 input  -65.29 | X-H torsion
[ 10718 10713 10712 10709 ] final   53.45 input   66.30 | X-H torsion
[ 10763 10752 10751 10750 ] final  -98.18 input  -60.55 | X-H torsion
[ 11005 11000 10999 10996 ] final  106.10 input  -57.11 | X-H torsion

> <Gold.Protein.ActiveResidues>
 VAL166  LYS551  ARG553  GLY616  TRP617  ASP618  TYR619  PRO620  LYS621  CYS622 
 ASP623  PHE694  ASN695  SER759  ASP760  ASP761  ALA762  ILE779  LEU786  VAL792 
 PHE793  MET794  SER795  GLU796  ALA797  LYS798  CYS799  TRP800  GLU811  SER814 

> <Gold.Protein.RotatedAtoms>
  152.3951  134.6378  160.0091 H   0  0  0  0  0  0  0  0  0  0  0  0  # atno 6907 bound_to 6896
  151.6600  133.3312  159.3180 H   0  0  0  0  0  0  0  0  0  0  0  0  # atno 6908 bound_to 6896
  150.7860  134.6889  159.6530 H   0  0  0  0  0  0  0  0  0  0  0  0  # atno 6909 bound_to 6896
  144.8322  139.6484  143.6054 H   0  0  0  0  0  0  0  0  0  0  0  0  # atno 7974 bound_to 7965
  156.2116  140.1782  156.7681 H   0  0  0  0  0  0  0  0  0  0  0  0  # atno 8008 bound_to 7997
  154.5731  140.0679  156.9024 H   0  0  0  0  0  0  0  0  0  0  0  0  # atno 8009 bound_to 7997
  155.2637  140.3337  155.4273 H   0  0  0  0  0  0  0  0  0  0  0  0  # atno 8010 bound_to 7997
  140.7090  143.3274  151.2649 H   0  0  0  0  0  0  0  0  0  0  0  0  # atno 10167 bound_to 10162
  157.5168  130.8538  149.8506 H   0  0  0  0  0  0  0  0  0  0  0  0  # atno 10718 bound_to 10713
  154.7392  135.5019  153.9093 H   0  0  0  0  0  0  0  0  0  0  0  0  # atno 10763 bound_to 10752
  153.1026  135.6689  153.9653 H   0  0  0  0  0  0  0  0  0  0  0  0  # atno 10764 bound_to 10752
  153.9435  135.3065  155.3421 H   0  0  0  0  0  0  0  0  0  0  0  0  # atno 10765 bound_to 10752
  139.8810  134.9358  156.5615 H   0  0  0  0  0  0  0  0  0  0  0  0  # atno 11005 bound_to 11000
  146.2624  139.6440  142.9353 LP  0  0  0  0  0  0  0  0  0  0  0  0  # atno 17320 bound_to 7965
  145.4872  141.0438  143.2613 LP  0  0  0  0  0  0  0  0  0  0  0  0  # atno 17321 bound_to 7965
  139.6746  143.9961  152.2773 LP  0  0  0  0  0  0  0  0  0  0  0  0  # atno 17342 bound_to 10162
  139.9570  144.6583  150.8116 LP  0  0  0  0  0  0  0  0  0  0  0  0  # atno 17343 bound_to 10162
  156.0326  130.3760  150.1647 LP  0  0  0  0  0  0  0  0  0  0  0  0  # atno 17370 bound_to 10713
  156.9836  130.9871  151.3431 LP  0  0  0  0  0  0  0  0  0  0  0  0  # atno 17371 bound_to 10713
  140.8166  133.8387  155.8857 LP  0  0  0  0  0  0  0  0  0  0  0  0  # atno 17394 bound_to 11000
  140.9457  134.1843  157.4765 LP  0  0  0  0  0  0  0  0  0  0  0  0  # atno 17395 bound_to 11000

$$$$
