AV-unprocessed.smi:49|AV-procd|sdf|472|dock10
  -GOLD-   2262016343D 1   1.00000     0.00000
 Structure written by MMmdl.
 27 28  0  0  0  0  0  0  0  0  1 V2000
  152.6884  141.9114  159.3016 C   0  0  0  0  0  0  0  0  0  0  0  0
  152.2392  140.5306  158.8118 C   0  0  0  0  0  0  0  0  0  0  0  0
  151.6456  140.5735  157.4421 C   0  0  0  0  0  0  0  0  0  0  0  0
  150.5537  141.2498  157.1019 N   0  0  0  0  0  0  0  0  0  0  0  0
  150.4857  140.9493  155.7696 C   0  0  0  0  0  0  0  0  0  0  0  0
  149.4254  141.5205  154.8783 C   0  0  1  0  0  0  0  0  0  0  0  0
  148.6821  140.4388  154.0816 C   0  0  0  0  0  0  0  0  0  0  0  0
  147.3101  141.0629  153.8713 C   0  0  1  0  0  0  0  0  0  0  0  0
  146.3042  140.1070  153.6119 O   0  0  0  0  0  0  0  0  0  0  0  0
  147.0892  141.7963  155.1908 C   0  0  0  0  0  0  0  0  0  0  0  0
  148.4017  142.3007  155.5868 N   0  0  0  0  0  0  0  0  0  0  0  0
  151.4634  140.1739  155.2977 N   0  0  0  0  0  0  0  0  0  0  0  0
  152.1966  139.9389  156.4057 N   0  0  0  0  0  0  0  0  0  0  0  0
  149.9131  142.1839  154.1628 H   0  0  0  0  0  0  0  0  0  0  0  0
  147.3496  141.7790  153.0492 H   0  0  0  0  0  0  0  0  0  0  0  0
  153.0327  139.3724  156.4043 H   0  0  0  0  0  0  0  0  0  0  0  0
  153.1180  141.8485  160.3014 H   0  0  0  0  0  0  0  0  0  0  0  0
  151.8488  142.6059  159.3430 H   0  0  0  0  0  0  0  0  0  0  0  0
  153.4430  142.3371  158.6396 H   0  0  0  0  0  0  0  0  0  0  0  0
  153.0859  139.8432  158.8122 H   0  0  0  0  0  0  0  0  0  0  0  0
  151.5010  140.1153  159.4988 H   0  0  0  0  0  0  0  0  0  0  0  0
  149.1866  140.1680  153.1539 H   0  0  0  0  0  0  0  0  0  0  0  0
  148.5797  139.5336  154.6834 H   0  0  0  0  0  0  0  0  0  0  0  0
  145.5780  140.5413  153.1913 H   0  0  0  0  0  0  0  0  0  0  0  0
  146.3524  142.5957  155.1095 H   0  0  0  0  0  0  0  0  0  0  0  0
  146.7334  141.0939  155.9460 H   0  0  0  0  0  0  0  0  0  0  0  0
  148.4785  143.2691  155.2934 H   0  0  0  0  0  0  0  0  0  0  0  0
  1  2  1  0  0  0  0
  1 17  1  0  0  0  0
  1 18  1  0  0  0  0
  1 19  1  0  0  0  0
  2  3  1  0  0  0  0
  2 20  1  0  0  0  0
  2 21  1  0  0  0  0
  3 13  1  0  0  0  0
  3  4  2  0  0  0  0
  4  5  1  0  0  0  0
  5  6  1  0  0  0  0
  5 12  2  0  0  0  0
  6 14  1  0  0  0  0
  6 11  1  0  0  0  0
  6  7  1  0  0  0  0
  7  8  1  0  0  0  0
  7 22  1  0  0  0  0
  7 23  1  0  0  0  0
  8 15  1  0  0  0  0
  8  9  1  0  0  0  0
  8 10  1  0  0  0  0
  9 24  1  0  0  0  0
 10 11  1  0  0  0  0
 10 25  1  0  0  0  0
 10 26  1  0  0  0  0
 11 27  1  0  0  0  0
 12 13  1  0  0  0  0
 13 16  1  0  0  0  0
M  END
> <s_m_source_file>
AV-unprocessed.smi

> <i_m_source_file_index>
49

> <i_lp_mmshare_version>
43012

> <i_f3d_flags>
0

> <s_epik_input>
W0NIM11bQ0gyXWMxbmMobltuSF0xKVtDQEBIXTJbQ0gyXVtDQEBIXShbT0hdKVtDSDJdW05IXTI=

> <s_epik_cmdline>
J2VwaWtfcHl0aG9uJywgJy1waCcsICc3LjAnLCAnLXRuJywgJzgnLCAnLW1hJywgJzIwMCcsICctbWV0YWxfYmluZGluZycsICctaW1hZScsICc8aW5maWxlLm1hZT4nLCAnLW9tYWUnLCAnPG91dGZpbGUubWFlPic=

> <r_lp_tautomer_probability>
0.948284

> <r_epik_Ionization_Penalty>
1.6657

> <r_epik_Ionization_Penalty_Charging>
0

> <r_epik_Ionization_Penalty_Neutral>
1.6657

> <r_epik_State_Penalty>
2.01417

> <r_epik_Charging_Adjusted_Penalty>
2.01417

> <i_epik_Tot_Q>
0

> <i_epik_Tot_abs_Q>
0

> <r_epik_Metal_State_Penalty>
2.28256

> <b_epik_Metal_Only>
0

> <s_lp_Force_Field>
OPLS_2005

> <r_lp_Energy>
18.9273

> <b_lp_Chiralities_Consistent>
1

> <s_lp_Variant>
AV-unprocessed.smi:49-10

> <Gold.Version>
5.8.1

> <Gold.Id.Protein>
6NUR|6NUR_protein|mol2

> <Gold.PLP.Fitness>
32.8591

> <Gold.PLP.PLP>
-24.0025

> <Gold.PLP.part.hbond>
-2.7580

> <Gold.PLP.part.metal>
0.0000

> <Gold.PLP.part.buried>
-3.8604

> <Gold.PLP.part.nonpolar>
-18.8550

> <Gold.PLP.part.repulsive>
0.2857

> <Gold.PLP.ligand.clash>
0.0000

> <Gold.PLP.ligand.torsion>
0.0688

> <Gold.PLP.Chemscore.Hbond>
2.9920

> <Gold.PLP.Chemscore.CHOScore>
0.0000

> <Gold.PLP.Chemscore.Metal>
0.0000

> <Gold.Chemscore.Hbonds>
donor molecule, donor type, donor heavy atom, donor atom, acceptor molecule, acceptor atom, score
      L1  H     9    24       P1 10175  1.00
      L1  H    11    27       P1  8028  0.98
      P1  H  7989  7998       L1    12  1.00

> <Gold.PLP.Chemscore.Internal.Correction>
0.0182

> <Gold.Rescore>
     Score         DG    S(hbond)    S(metal)    S(lipo)     H(rot)  DE(clash)    DE(int)     intcor
     14.34     -14.56       2.68        0.00      41.54       1.86       0.21       0.01       ----

> <Gold.Chemscore.Fitness>
14.3359

> <Gold.Chemscore.DG>
-14.5565

> <Gold.Chemscore.ZeroCoef>
-5.4800

> <Gold.Chemscore.Hbond>
2.6848

> <Gold.Chemscore.Metal>
0.0000

> <Gold.Chemscore.Lipo>
41.5387

> <Gold.Chemscore.Internal_Hbond>
0.0000

> <Gold.Chemscore.DEClash>
0.2112

> <Gold.Chemscore.DEInternal>
0.0095

> <Gold.Chemscore.Rot>
1.8558

> <Gold.Chemscore.Internal.Correction>
   9.000000E+99

> <Gold.Chemscore.Hbonds>
donor molecule, donor type, donor heavy atom, donor atom, acceptor molecule, acceptor atom, score
      L1  H     9    24       P1 10175  0.81
      L1  H    11    27       P1  8028  0.87
      P1  H  7989  7998       L1    12  0.28

> <Gold.Chemscore.Hbond.Weighted>
-8.9672

> <Gold.Chemscore.Metal.Weighted>
-0.0000

> <Gold.Chemscore.Lipo.Weighted>
-4.8600

> <Gold.Chemscore.Internal_Hbond.Weighted>
0.0000

> <Gold.Chemscore.DEClash.Weighted>
0.2112

> <Gold.Chemscore.DEInternal.Weighted>
0.0095

> <Gold.Chemscore.Rot.Weighted>
4.7507

> <Gold.Chemscore.Internal.Correction.Weighted>
   9.000000E+99

> <Gold.Protein.RotatedTorsions>
[ 6907 6896 6895 6894 ] final  161.65 input  -60.11 | X-H torsion
[ 7974 7965 7964 7962 ] final -142.75 input  175.53 | X-H torsion
[ 8008 7997 7996 7995 ] final  -20.28 input   59.86 | X-H torsion
[ 10167 10162 10161 10158 ] final    3.04 input  -65.29 | X-H torsion
[ 10718 10713 10712 10709 ] final   39.21 input   66.30 | X-H torsion
[ 10763 10752 10751 10750 ] final -102.19 input  -60.55 | X-H torsion
[ 11005 11000 10999 10996 ] final  111.07 input  -57.11 | X-H torsion

> <Gold.Protein.ActiveResidues>
 VAL166  LYS551  ARG553  GLY616  TRP617  ASP618  TYR619  PRO620  LYS621  CYS622 
 ASP623  PHE694  ASN695  SER759  ASP760  ASP761  ALA762  ILE779  LEU786  VAL792 
 PHE793  MET794  SER795  GLU796  ALA797  LYS798  CYS799  TRP800  GLU811  SER814 

> <Gold.Protein.RotatedAtoms>
  151.9524  133.3670  159.4004 H   0  0  0  0  0  0  0  0  0  0  0  0  # atno 6907 bound_to 6896
  150.6978  134.4326  159.5265 H   0  0  0  0  0  0  0  0  0  0  0  0  # atno 6908 bound_to 6896
  152.2001  134.8595  160.0559 H   0  0  0  0  0  0  0  0  0  0  0  0  # atno 6909 bound_to 6896
  144.8420  140.5919  143.5446 H   0  0  0  0  0  0  0  0  0  0  0  0  # atno 7974 bound_to 7965
  154.4780  140.2066  155.9832 H   0  0  0  0  0  0  0  0  0  0  0  0  # atno 8008 bound_to 7997
  156.1120  140.3227  155.8055 H   0  0  0  0  0  0  0  0  0  0  0  0  # atno 8009 bound_to 7997
  155.4619  140.0524  157.2980 H   0  0  0  0  0  0  0  0  0  0  0  0  # atno 8010 bound_to 7997
  140.6606  143.7314  150.7731 H   0  0  0  0  0  0  0  0  0  0  0  0  # atno 10167 bound_to 10162
  157.3679  130.7685  149.7097 H   0  0  0  0  0  0  0  0  0  0  0  0  # atno 10718 bound_to 10713
  154.7715  135.4870  153.9658 H   0  0  0  0  0  0  0  0  0  0  0  0  # atno 10763 bound_to 10752
  153.1374  135.6765  153.9089 H   0  0  0  0  0  0  0  0  0  0  0  0  # atno 10764 bound_to 10752
  153.8774  135.3136  155.3422 H   0  0  0  0  0  0  0  0  0  0  0  0  # atno 10765 bound_to 10752
  139.8895  134.9499  156.6376 H   0  0  0  0  0  0  0  0  0  0  0  0  # atno 11005 bound_to 11000
  145.4675  139.1506  143.3832 LP  0  0  0  0  0  0  0  0  0  0  0  0  # atno 17320 bound_to 7965
  146.2711  140.4807  142.8814 LP  0  0  0  0  0  0  0  0  0  0  0  0  # atno 17321 bound_to 7965
  140.0982  143.4812  152.2440 LP  0  0  0  0  0  0  0  0  0  0  0  0  # atno 17342 bound_to 10162
  139.5839  144.7522  151.3571 LP  0  0  0  0  0  0  0  0  0  0  0  0  # atno 17343 bound_to 10162
  155.9750  130.4095  150.3884 LP  0  0  0  0  0  0  0  0  0  0  0  0  # atno 17370 bound_to 10713
  157.1970  131.0429  151.2670 LP  0  0  0  0  0  0  0  0  0  0  0  0  # atno 17371 bound_to 10713
  140.7618  133.8811  155.8424 LP  0  0  0  0  0  0  0  0  0  0  0  0  # atno 17394 bound_to 11000
  140.9915  134.1272  157.4403 LP  0  0  0  0  0  0  0  0  0  0  0  0  # atno 17395 bound_to 11000

$$$$
