AV-unprocessed.smi:99|AV-procd|sdf|878|dock4
  -GOLD-   2262017353D 1   1.00000     0.00000
 Structure written by MMmdl.
 53 56  0  0  0  0  0  0  0  0  1 V2000
  150.9180  135.6854  157.7471 O   0  0  0  0  0  0  0  0  0  0  0  0
  150.7826  135.5902  156.5255 C   0  0  0  0  0  0  0  0  0  0  0  0
  150.6057  136.6485  155.7108 O   0  0  0  0  0  0  0  0  0  0  0  0
  150.5227  137.9559  156.2532 C   0  0  0  0  0  0  0  0  0  0  0  0
  150.1712  138.9417  155.1346 C   0  0  1  0  0  0  0  0  0  0  0  0
  149.5470  138.2551  154.0514 O   0  0  0  0  0  0  0  0  0  0  0  0
  148.6265  139.0914  153.4077 C   0  0  1  0  0  0  0  0  0  0  0  0
  147.2710  138.4200  153.3921 N   0  0  0  0  0  0  0  0  0  0  0  0
  146.6169  138.0611  154.5643 C   0  0  0  0  0  0  0  0  0  0  0  0
  145.3953  137.4768  154.5787 C   0  0  0  0  0  0  0  0  0  0  0  0
  144.6924  137.1985  153.3306 C   0  0  0  0  0  0  0  0  0  0  0  0
  143.5862  136.6701  153.2428 O   0  0  0  0  0  0  0  0  0  0  0  0
  145.3797  137.5898  152.1782 N   0  0  0  0  0  0  0  0  0  0  0  0
  146.6364  138.1961  152.1506 C   0  0  0  0  0  0  0  0  0  0  0  0
  147.1415  138.5186  151.0760 O   0  0  0  0  0  0  0  0  0  0  0  0
  148.5531  140.4062  154.1980 C   0  0  2  0  0  0  0  0  0  0  0  0
  149.3508  141.3975  153.5766 O   0  0  0  0  0  0  0  0  0  0  0  0
  149.1170  139.9643  155.5405 C   0  0  2  0  0  0  0  0  0  0  0  0
  149.6207  141.0418  156.3220 O   0  0  0  0  0  0  0  0  0  0  0  0
  150.0232  140.8368  157.5950 C   0  0  0  0  0  0  0  0  0  0  0  0
  149.7288  139.8360  158.2512 O   0  0  0  0  0  0  0  0  0  0  0  0
  150.8547  141.9537  158.1280 C   0  0  0  0  0  0  0  0  0  0  0  0
  151.9436  141.6594  158.9813 C   0  0  0  0  0  0  0  0  0  0  0  0
  152.7456  142.6929  159.5035 C   0  0  0  0  0  0  0  0  0  0  0  0
  152.4681  144.0334  159.1786 C   0  0  0  0  0  0  0  0  0  0  0  0
  151.3881  144.3391  158.3301 C   0  0  0  0  0  0  0  0  0  0  0  0
  150.5851  143.3069  157.8066 C   0  0  0  0  0  0  0  0  0  0  0  0
  150.7961  134.2902  155.7939 C   0  0  0  0  0  0  0  0  0  0  0  0
  150.3026  134.2347  154.4693 C   0  0  0  0  0  0  0  0  0  0  0  0
  150.3070  133.0224  153.7521 C   0  0  0  0  0  0  0  0  0  0  0  0
  150.8051  131.8508  154.3508 C   0  0  0  0  0  0  0  0  0  0  0  0
  151.2980  131.8923  155.6680 C   0  0  0  0  0  0  0  0  0  0  0  0
  151.2942  133.1037  156.3869 C   0  0  0  0  0  0  0  0  0  0  0  0
  144.9264  137.4249  151.2912 H   0  0  0  0  0  0  0  0  0  0  0  0
  149.7767  137.9962  157.0481 H   0  0  0  0  0  0  0  0  0  0  0  0
  151.4862  138.2205  156.6910 H   0  0  0  0  0  0  0  0  0  0  0  0
  151.0632  139.4530  154.7684 H   0  0  0  0  0  0  0  0  0  0  0  0
  148.9216  139.2086  152.3628 H   0  0  0  0  0  0  0  0  0  0  0  0
  147.0834  138.2516  155.5192 H   0  0  0  0  0  0  0  0  0  0  0  0
  144.9337  137.2159  155.5201 H   0  0  0  0  0  0  0  0  0  0  0  0
  147.5287  140.7729  154.2758 H   0  0  0  0  0  0  0  0  0  0  0  0
  150.2380  141.3085  153.8897 H   0  0  0  0  0  0  0  0  0  0  0  0
  148.3378  139.4368  156.0939 H   0  0  0  0  0  0  0  0  0  0  0  0
  152.1756  140.6378  159.2460 H   0  0  0  0  0  0  0  0  0  0  0  0
  153.5742  142.4559  160.1546 H   0  0  0  0  0  0  0  0  0  0  0  0
  153.0829  144.8256  159.5798 H   0  0  0  0  0  0  0  0  0  0  0  0
  151.1743  145.3678  158.0800 H   0  0  0  0  0  0  0  0  0  0  0  0
  149.7640  143.5766  157.1585 H   0  0  0  0  0  0  0  0  0  0  0  0
  149.9156  135.1214  153.9883 H   0  0  0  0  0  0  0  0  0  0  0  0
  149.9289  132.9924  152.7410 H   0  0  0  0  0  0  0  0  0  0  0  0
  150.8095  130.9216  153.8003 H   0  0  0  0  0  0  0  0  0  0  0  0
  151.6811  130.9937  156.1287 H   0  0  0  0  0  0  0  0  0  0  0  0
  151.6815  133.1005  157.3953 H   0  0  0  0  0  0  0  0  0  0  0  0
  1  2  2  0  0  0  0
  2  3  1  0  0  0  0
  2 28  1  0  0  0  0
  3  4  1  0  0  0  0
  4  5  1  0  0  0  0
  4 35  1  0  0  0  0
  4 36  1  0  0  0  0
  5 18  1  0  0  0  0
  5  6  1  0  0  0  0
  5 37  1  0  0  0  0
  6  7  1  0  0  0  0
  7  8  1  0  0  0  0
  7 16  1  0  0  0  0
  7 38  1  0  0  0  0
  8 14  1  0  0  0  0
  8  9  1  0  0  0  0
  9 10  2  0  0  0  0
  9 39  1  0  0  0  0
 10 11  1  0  0  0  0
 10 40  1  0  0  0  0
 11 12  2  0  0  0  0
 11 13  1  0  0  0  0
 13 34  1  0  0  0  0
 13 14  1  0  0  0  0
 14 15  2  0  0  0  0
 16 17  1  0  0  0  0
 16 18  1  0  0  0  0
 16 41  1  0  0  0  0
 17 42  1  0  0  0  0
 18 19  1  0  0  0  0
 18 43  1  0  0  0  0
 19 20  1  0  0  0  0
 20 21  2  0  0  0  0
 20 22  1  0  0  0  0
 22 27  1  0  0  0  0
 22 23  2  0  0  0  0
 23 24  1  0  0  0  0
 23 44  1  0  0  0  0
 24 25  2  0  0  0  0
 24 45  1  0  0  0  0
 25 26  1  0  0  0  0
 25 46  1  0  0  0  0
 26 27  2  0  0  0  0
 26 47  1  0  0  0  0
 27 48  1  0  0  0  0
 28 33  1  0  0  0  0
 28 29  2  0  0  0  0
 29 30  1  0  0  0  0
 29 49  1  0  0  0  0
 30 31  2  0  0  0  0
 30 50  1  0  0  0  0
 31 32  1  0  0  0  0
 31 51  1  0  0  0  0
 32 33  2  0  0  0  0
 32 52  1  0  0  0  0
 33 53  1  0  0  0  0
M  END
> <s_m_source_file>
AV-unprocessed.smi

> <i_m_source_file_index>
99

> <i_lp_mmshare_version>
43012

> <i_f3d_flags>
0

> <s_epik_input>
W2NIXTFbY0hdW2NIXVtjSF1bY0hdYzFDKD1PKU9bQ0gyXVtDQEBIXTJPW0NAQEhdKG4zW2NIXVtjSF1jKD1PKVtuSF1jMz1PKVtDQEBIXShbT0hdKVtDQEhdMk9DKD1PKWM0W2NIXVtjSF1bY0hdW2NIXVtjSF00

> <s_epik_cmdline>
J2VwaWtfcHl0aG9uJywgJy1waCcsICc3LjAnLCAnLXRuJywgJzgnLCAnLW1hJywgJzIwMCcsICctbWV0YWxfYmluZGluZycsICctaW1hZScsICc8aW5maWxlLm1hZT4nLCAnLW9tYWUnLCAnPG91dGZpbGUubWFlPic=

> <r_lp_tautomer_probability>
1

> <r_epik_Ionization_Penalty>
0.00454555

> <r_epik_Ionization_Penalty_Charging>
0.0045191

> <r_epik_Ionization_Penalty_Neutral>
2.64449e-05

> <r_epik_State_Penalty>
-0

> <r_epik_Charging_Adjusted_Penalty>
0.0045191

> <i_epik_Tot_Q>
0

> <i_epik_Tot_abs_Q>
0

> <r_epik_Metal_State_Penalty>
1.27877

> <b_epik_Metal_Only>
0

> <s_epik_Chemistry_Notes>
This compound has an ester and may undergo hydrolysis at high or low pH. This compound contains an acetal/aminal-like group ( X-CH(R)-Y where X, Y are N, S, or O) that may be acid/base labile, releasing an aldehyde.

> <s_lp_Force_Field>
OPLS_2005

> <r_lp_Energy>
38.7636

> <b_lp_Chiralities_Consistent>
1

> <s_lp_Variant>
AV-unprocessed.smi:99-14

> <Gold.Version>
5.8.1

> <Gold.Id.Protein>
6NUR|6NUR_protein|mol2

> <Gold.PLP.Fitness>
58.0417

> <Gold.PLP.PLP>
-50.2283

> <Gold.PLP.part.hbond>
-7.0000

> <Gold.PLP.part.metal>
0.0000

> <Gold.PLP.part.buried>
-1.8704

> <Gold.PLP.part.nonpolar>
-44.4361

> <Gold.PLP.part.repulsive>
2.8474

> <Gold.PLP.ligand.clash>
0.0000

> <Gold.PLP.ligand.torsion>
1.5121

> <Gold.PLP.Chemscore.Hbond>
3.5200

> <Gold.PLP.Chemscore.CHOScore>
0.0000

> <Gold.PLP.Chemscore.Metal>
0.0000

> <Gold.Chemscore.Hbonds>
donor molecule, donor type, donor heavy atom, donor atom, acceptor molecule, acceptor atom, score
      L1  H    13    34       P1 10171  0.51
      P1  H  6896  6909       L1     1  0.27
      P1  H  7954  7966       L1    15  1.00
      P1  H  8011  8017       L1    17  0.57

> <Gold.PLP.Chemscore.Internal.Correction>
0.2776

> <Gold.Rescore>
     Score         DG    S(hbond)    S(metal)    S(lipo)     H(rot)  DE(clash)    DE(int)     intcor
     16.57     -21.91       3.56        0.00     108.66       3.19       2.52       2.82       ----

> <Gold.Chemscore.Fitness>
16.5665

> <Gold.Chemscore.DG>
-21.9100

> <Gold.Chemscore.ZeroCoef>
-5.4800

> <Gold.Chemscore.Hbond>
3.5582

> <Gold.Chemscore.Metal>
0.0000

> <Gold.Chemscore.Lipo>
108.6561

> <Gold.Chemscore.Internal_Hbond>
0.0000

> <Gold.Chemscore.DEClash>
2.5199

> <Gold.Chemscore.DEInternal>
2.8236

> <Gold.Chemscore.Rot>
3.1903

> <Gold.Chemscore.Internal.Correction>
   9.000000E+99

> <Gold.Chemscore.Hbonds>
donor molecule, donor type, donor heavy atom, donor atom, acceptor molecule, acceptor atom, score
      L1  H    13    34       P1 10171  0.51
      P1  H  6896  6909       L1     1  0.26
      P1  H  7954  7966       L1    15  0.97
      P1  H  8011  8017       L1    17  0.05

> <Gold.Chemscore.Hbond.Weighted>
-11.8843

> <Gold.Chemscore.Metal.Weighted>
-0.0000

> <Gold.Chemscore.Lipo.Weighted>
-12.7128

> <Gold.Chemscore.Internal_Hbond.Weighted>
0.0000

> <Gold.Chemscore.DEClash.Weighted>
2.5199

> <Gold.Chemscore.DEInternal.Weighted>
2.8236

> <Gold.Chemscore.Rot.Weighted>
8.1671

> <Gold.Chemscore.Internal.Correction.Weighted>
   9.000000E+99

> <Gold.Protein.RotatedTorsions>
[ 6907 6896 6895 6894 ] final   42.44 input  -60.11 | X-H torsion
[ 7974 7965 7964 7962 ] final -175.90 input  175.53 | X-H torsion
[ 8008 7997 7996 7995 ] final   88.50 input   59.86 | X-H torsion
[ 10167 10162 10161 10158 ] final -111.38 input  -65.29 | X-H torsion
[ 10718 10713 10712 10709 ] final -147.92 input   66.30 | X-H torsion
[ 10763 10752 10751 10750 ] final   88.53 input  -60.55 | X-H torsion
[ 11005 11000 10999 10996 ] final   71.32 input  -57.11 | X-H torsion

> <Gold.Protein.ActiveResidues>
 VAL166  LYS551  ARG553  GLY616  TRP617  ASP618  TYR619  PRO620  LYS621  CYS622 
 ASP623  PHE694  ASN695  SER759  ASP760  ASP761  ALA762  ILE779  LEU786  VAL792 
 PHE793  MET794  SER795  GLU796  ALA797  LYS798  CYS799  TRP800  GLU811  SER814 

> <Gold.Protein.RotatedAtoms>
  152.2079  134.8528  160.0500 H   0  0  0  0  0  0  0  0  0  0  0  0  # atno 6907 bound_to 6896
  151.9358  133.3619  159.3955 H   0  0  0  0  0  0  0  0  0  0  0  0  # atno 6908 bound_to 6896
  150.6969  134.4415  159.5338 H   0  0  0  0  0  0  0  0  0  0  0  0  # atno 6909 bound_to 6896
  144.7127  140.1252  143.6402 H   0  0  0  0  0  0  0  0  0  0  0  0  # atno 7974 bound_to 7965
  155.9885  140.3371  155.6730 H   0  0  0  0  0  0  0  0  0  0  0  0  # atno 8008 bound_to 7997
  155.6453  140.0699  157.2623 H   0  0  0  0  0  0  0  0  0  0  0  0  # atno 8009 bound_to 7997
  154.4212  140.1735  156.1604 H   0  0  0  0  0  0  0  0  0  0  0  0  # atno 8010 bound_to 7997
  140.1342  143.4334  152.1607 H   0  0  0  0  0  0  0  0  0  0  0  0  # atno 10167 bound_to 10162
  156.4136  130.7994  151.2213 H   0  0  0  0  0  0  0  0  0  0  0  0  # atno 10718 bound_to 10713
  153.1778  135.4503  154.9988 H   0  0  0  0  0  0  0  0  0  0  0  0  # atno 10763 bound_to 10752
  154.8009  135.3255  154.7553 H   0  0  0  0  0  0  0  0  0  0  0  0  # atno 10764 bound_to 10752
  153.8021  135.6961  153.4909 H   0  0  0  0  0  0  0  0  0  0  0  0  # atno 10765 bound_to 10752
  139.9550  134.7161  156.0775 H   0  0  0  0  0  0  0  0  0  0  0  0  # atno 11005 bound_to 11000
  145.9336  139.2622  143.1310 LP  0  0  0  0  0  0  0  0  0  0  0  0  # atno 17320 bound_to 7965
  145.9497  140.8918  143.0265 LP  0  0  0  0  0  0  0  0  0  0  0  0  # atno 17321 bound_to 7965
  139.5504  144.7333  151.4452 LP  0  0  0  0  0  0  0  0  0  0  0  0  # atno 17342 bound_to 10162
  140.6799  143.8105  150.7107 LP  0  0  0  0  0  0  0  0  0  0  0  0  # atno 17343 bound_to 10162
  157.7507  131.0250  150.3900 LP  0  0  0  0  0  0  0  0  0  0  0  0  # atno 17370 bound_to 10713
  156.4203  130.3951  149.6830 LP  0  0  0  0  0  0  0  0  0  0  0  0  # atno 17371 bound_to 10713
  141.1219  133.6610  156.3238 LP  0  0  0  0  0  0  0  0  0  0  0  0  # atno 17394 bound_to 11000
  140.5631  134.5914  157.5439 LP  0  0  0  0  0  0  0  0  0  0  0  0  # atno 17395 bound_to 11000

$$$$
