AV-unprocessed.smi:2922|AV-procd|sdf|11199|dock7
  -GOLD-   2272016 93D 1   1.00000     0.00000
 Structure written by MMmdl.
 30 31  0  0  0  0  0  0  0  0  1 V2000
  150.4397  136.3085  154.5361 N   0  0  0  0  0  0  0  0  0  0  0  0
  151.2490  137.1973  155.1193 C   0  0  0  0  0  0  0  0  0  0  0  0
  152.0509  136.8688  155.9917 O   0  0  0  0  0  0  0  0  0  0  0  0
  151.1289  138.6648  154.6807 C   0  0  1  0  0  0  0  0  0  0  0  0
  149.6943  139.1165  154.3459 C   0  0  0  0  0  0  0  0  0  0  0  0
  149.4329  140.2539  155.3169 C   0  0  0  0  0  0  0  0  0  0  0  0
  150.8402  140.7443  155.6452 C   0  0  1  0  0  0  0  0  0  0  0  0
  150.9515  141.5231  156.9623 C   0  0  0  0  0  0  0  0  0  0  0  0
  152.1708  141.1903  157.6836 N   0  0  0  0  0  0  0  0  0  0  0  0
  152.5132  141.7179  158.9139 C   0  0  0  0  0  0  0  0  0  0  0  0
  152.0052  142.9085  159.2565 N   0  0  0  0  0  0  0  0  0  0  0  0
  152.3548  143.4010  160.4652 C   0  0  0  0  0  0  0  0  0  0  0  0
  153.2151  142.6936  161.3282 C   0  0  0  0  0  0  0  0  0  0  0  0
  153.6641  143.3158  162.8733 Cl  0  0  0  0  0  0  0  0  0  0  0  0
  153.6893  141.4508  160.8631 C   0  0  0  0  0  0  0  0  0  0  0  0
  153.3349  140.9664  159.6521 N   0  0  0  0  0  0  0  0  0  0  0  0
  151.5594  139.5258  155.7350 O   0  0  0  0  0  0  0  0  0  0  0  0
  150.4915  135.3341  154.7952 H   0  0  0  0  0  0  0  0  0  0  0  0
  149.7815  136.6172  153.8349 H   0  0  0  0  0  0  0  0  0  0  0  0
  151.7751  138.8257  153.8166 H   0  0  0  0  0  0  0  0  0  0  0  0
  149.6525  139.4788  153.3180 H   0  0  0  0  0  0  0  0  0  0  0  0
  148.9419  138.3333  154.4474 H   0  0  0  0  0  0  0  0  0  0  0  0
  148.7965  141.0337  154.8977 H   0  0  0  0  0  0  0  0  0  0  0  0
  148.9495  139.8669  156.2152 H   0  0  0  0  0  0  0  0  0  0  0  0
  151.2451  141.3279  154.8160 H   0  0  0  0  0  0  0  0  0  0  0  0
  150.9206  142.5963  156.7703 H   0  0  0  0  0  0  0  0  0  0  0  0
  150.0979  141.2875  157.5988 H   0  0  0  0  0  0  0  0  0  0  0  0
  152.8016  140.5154  157.2760 H   0  0  0  0  0  0  0  0  0  0  0  0
  151.9457  144.3613  160.7426 H   0  0  0  0  0  0  0  0  0  0  0  0
  154.3528  140.8437  161.4610 H   0  0  0  0  0  0  0  0  0  0  0  0
  1  2  1  0  0  0  0
  1 18  1  0  0  0  0
  1 19  1  0  0  0  0
  2  3  2  0  0  0  0
  2  4  1  0  0  0  0
  4 17  1  0  0  0  0
  4  5  1  0  0  0  0
  4 20  1  0  0  0  0
  5  6  1  0  0  0  0
  5 21  1  0  0  0  0
  5 22  1  0  0  0  0
  6  7  1  0  0  0  0
  6 23  1  0  0  0  0
  6 24  1  0  0  0  0
  7  8  1  0  0  0  0
  7 17  1  0  0  0  0
  7 25  1  0  0  0  0
  8  9  1  0  0  0  0
  8 26  1  0  0  0  0
  8 27  1  0  0  0  0
  9 10  1  0  0  0  0
  9 28  1  0  0  0  0
 10 16  1  0  0  0  0
 10 11  2  0  0  0  0
 11 12  1  0  0  0  0
 12 13  2  0  0  0  0
 12 29  1  0  0  0  0
 13 14  1  0  0  0  0
 13 15  1  0  0  0  0
 15 16  2  0  0  0  0
 15 30  1  0  0  0  0
M  END
> <s_m_source_file>
AV-unprocessed.smi

> <i_m_source_file_index>
2922

> <i_lp_mmshare_version>
43012

> <i_f3d_flags>
0

> <s_epik_input>
W05IMl1DKD1PKVtDQEBIXTFbQ0gyXVtDSDJdW0NASF0oTzEpW0NIMl1bTkhdYzJuW2NIXWMoQ2wpW2NIXW4y

> <s_epik_cmdline>
J2VwaWtfcHl0aG9uJywgJy1waCcsICc3LjAnLCAnLXRuJywgJzgnLCAnLW1hJywgJzIwMCcsICctbWV0YWxfYmluZGluZycsICctaW1hZScsICc8aW5maWxlLm1hZT4nLCAnLW9tYWUnLCAnPG91dGZpbGUubWFlPic=

> <r_lp_tautomer_probability>
1

> <r_epik_Ionization_Penalty>
6.13883e-06

> <r_epik_Ionization_Penalty_Charging>
0

> <r_epik_Ionization_Penalty_Neutral>
6.13883e-06

> <r_epik_State_Penalty>
-0

> <r_epik_Charging_Adjusted_Penalty>
0

> <i_epik_Tot_Q>
0

> <i_epik_Tot_abs_Q>
0

> <r_epik_Metal_State_Penalty>
-0

> <b_epik_Metal_Only>
0

> <s_lp_Force_Field>
OPLS_2005

> <r_lp_Energy>
9.86334

> <b_lp_Chiralities_Consistent>
1

> <s_lp_Variant>
AV-unprocessed.smi:2922-2

> <Gold.Version>
5.8.1

> <Gold.Id.Protein>
6NUR|6NUR_protein|mol2

> <Gold.PLP.Fitness>
39.2490

> <Gold.PLP.PLP>
-36.0970

> <Gold.PLP.part.hbond>
-3.0000

> <Gold.PLP.part.metal>
0.0000

> <Gold.PLP.part.buried>
-3.2480

> <Gold.PLP.part.nonpolar>
-28.6730

> <Gold.PLP.part.repulsive>
0.1853

> <Gold.PLP.ligand.clash>
0.0000

> <Gold.PLP.ligand.torsion>
1.3288

> <Gold.PLP.Chemscore.Hbond>
1.9280

> <Gold.PLP.Chemscore.CHOScore>
0.0000

> <Gold.PLP.Chemscore.Metal>
0.0000

> <Gold.Chemscore.Hbonds>
donor molecule, donor type, donor heavy atom, donor atom, acceptor molecule, acceptor atom, score
      L1  H     1    19       P1  7948  0.64
      P1  H 10752 10763       L1     3  0.95

> <Gold.PLP.Chemscore.Internal.Correction>
0.0257

> <Gold.Rescore>
     Score         DG    S(hbond)    S(metal)    S(lipo)     H(rot)  DE(clash)    DE(int)     intcor
     12.86     -14.37       1.38        0.00      78.35       1.91       0.20       1.31       ----

> <Gold.Chemscore.Fitness>
12.8579

> <Gold.Chemscore.DG>
-14.3669

> <Gold.Chemscore.ZeroCoef>
-5.4800

> <Gold.Chemscore.Hbond>
1.3833

> <Gold.Chemscore.Metal>
0.0000

> <Gold.Chemscore.Lipo>
78.3495

> <Gold.Chemscore.Internal_Hbond>
0.0000

> <Gold.Chemscore.DEClash>
0.2032

> <Gold.Chemscore.DEInternal>
1.3058

> <Gold.Chemscore.Rot>
1.9142

> <Gold.Chemscore.Internal.Correction>
   9.000000E+99

> <Gold.Chemscore.Hbonds>
donor molecule, donor type, donor heavy atom, donor atom, acceptor molecule, acceptor atom, score
      L1  H     1    19       P1  7948  0.31
      P1  H 10752 10763       L1     3  0.20

> <Gold.Chemscore.Hbond.Weighted>
-4.6202

> <Gold.Chemscore.Metal.Weighted>
-0.0000

> <Gold.Chemscore.Lipo.Weighted>
-9.1669

> <Gold.Chemscore.Internal_Hbond.Weighted>
0.0000

> <Gold.Chemscore.DEClash.Weighted>
0.2032

> <Gold.Chemscore.DEInternal.Weighted>
1.3058

> <Gold.Chemscore.Rot.Weighted>
4.9002

> <Gold.Chemscore.Internal.Correction.Weighted>
   9.000000E+99

> <Gold.Protein.RotatedTorsions>
[ 6907 6896 6895 6894 ] final  104.77 input  -60.11 | X-H torsion
[ 7974 7965 7964 7962 ] final -141.54 input  175.53 | X-H torsion
[ 8008 7997 7996 7995 ] final    4.45 input   59.86 | X-H torsion
[ 10167 10162 10161 10158 ] final -178.38 input  -65.29 | X-H torsion
[ 10718 10713 10712 10709 ] final   73.49 input   66.30 | X-H torsion
[ 10763 10752 10751 10750 ] final   83.49 input  -60.55 | X-H torsion
[ 11005 11000 10999 10996 ] final  -31.55 input  -57.11 | X-H torsion

> <Gold.Protein.ActiveResidues>
 VAL166  LYS551  ARG553  GLY616  TRP617  ASP618  TYR619  PRO620  LYS621  CYS622 
 ASP623  PHE694  ASN695  SER759  ASP760  ASP761  ALA762  ILE779  LEU786  VAL792 
 PHE793  MET794  SER795  GLU796  ALA797  LYS798  CYS799  TRP800  GLU811  SER814 

> <Gold.Protein.RotatedAtoms>
  152.5253  133.9628  159.7724 H   0  0  0  0  0  0  0  0  0  0  0  0  # atno 6907 bound_to 6896
  150.9915  133.6137  159.2714 H   0  0  0  0  0  0  0  0  0  0  0  0  # atno 6908 bound_to 6896
  151.3278  135.0840  159.9381 H   0  0  0  0  0  0  0  0  0  0  0  0  # atno 6909 bound_to 6896
  144.8512  140.6067  143.5389 H   0  0  0  0  0  0  0  0  0  0  0  0  # atno 7974 bound_to 7965
  154.7161  140.2702  155.6584 H   0  0  0  0  0  0  0  0  0  0  0  0  # atno 8008 bound_to 7997
  156.2810  140.2743  156.1742 H   0  0  0  0  0  0  0  0  0  0  0  0  # atno 8009 bound_to 7997
  155.0569  140.0371  157.2553 H   0  0  0  0  0  0  0  0  0  0  0  0  # atno 8010 bound_to 7997
  139.5435  144.2299  152.0942 H   0  0  0  0  0  0  0  0  0  0  0  0  # atno 10167 bound_to 10162
  157.6550  130.9631  150.1076 H   0  0  0  0  0  0  0  0  0  0  0  0  # atno 10718 bound_to 10713
  153.1296  135.4689  154.9327 H   0  0  0  0  0  0  0  0  0  0  0  0  # atno 10763 bound_to 10752
  154.7652  135.3142  154.8303 H   0  0  0  0  0  0  0  0  0  0  0  0  # atno 10764 bound_to 10752
  153.8848  135.6890  153.4818 H   0  0  0  0  0  0  0  0  0  0  0  0  # atno 10765 bound_to 10752
  140.9477  133.7240  156.1172 H   0  0  0  0  0  0  0  0  0  0  0  0  # atno 11005 bound_to 11000
  145.4497  139.1525  143.3925 LP  0  0  0  0  0  0  0  0  0  0  0  0  # atno 17320 bound_to 7965
  146.2786  140.4622  142.8785 LP  0  0  0  0  0  0  0  0  0  0  0  0  # atno 17321 bound_to 7965
  140.1781  144.4871  150.6543 LP  0  0  0  0  0  0  0  0  0  0  0  0  # atno 17342 bound_to 10162
  140.6674  143.2273  151.5709 LP  0  0  0  0  0  0  0  0  0  0  0  0  # atno 17343 bound_to 10162
  156.1982  130.3658  149.8822 LP  0  0  0  0  0  0  0  0  0  0  0  0  # atno 17370 bound_to 10713
  156.6733  130.8829  151.3565 LP  0  0  0  0  0  0  0  0  0  0  0  0  # atno 17371 bound_to 10713
  140.7646  134.3901  157.5519 LP  0  0  0  0  0  0  0  0  0  0  0  0  # atno 17394 bound_to 11000
  139.8838  134.8983  156.2742 LP  0  0  0  0  0  0  0  0  0  0  0  0  # atno 17395 bound_to 11000

$$$$
