AV-unprocessed.smi:3252|AV-procd|sdf|12444|dock7
  -GOLD-   2272018333D 1   1.00000     0.00000
 Structure written by MMmdl.
 36 37  0  0  0  0  0  0  0  0  1 V2000
  151.9640  145.6114  159.3268 C   0  0  0  0  0  0  0  0  0  0  0  0
  150.7978  144.7081  159.7529 C   0  0  0  0  0  0  0  0  0  0  0  0
  150.9568  143.2951  159.4145 N   0  0  0  0  0  0  0  0  0  0  0  0
  152.2127  142.7375  159.9103 C   0  0  0  0  0  0  0  0  0  0  0  0
  152.3817  141.2611  159.5120 C   0  0  0  0  0  0  0  0  0  0  0  0
  152.2770  141.1313  158.0977 O   0  0  0  0  0  0  0  0  0  0  0  0
  151.0352  141.6091  157.5851 C   0  0  2  0  0  0  0  0  0  0  0  0
  151.0276  141.4175  156.0627 C   0  0  0  0  0  0  0  0  0  0  0  0
  149.7814  141.8808  155.4690 N   0  0  0  0  0  0  0  0  0  0  0  0
  148.9619  141.0052  154.7442 C   0  0  0  0  0  0  0  0  0  0  0  0
  147.8161  141.5251  154.1057 C   0  0  0  0  0  0  0  0  0  0  0  0
  146.9911  140.6502  153.3718 C   0  0  0  0  0  0  0  0  0  0  0  0
  147.3397  139.2868  153.3030 C   0  0  0  0  0  0  0  0  0  0  0  0
  146.5219  138.3451  152.5577 C   0  0  0  0  0  0  0  0  0  0  0  0
  145.8708  137.5952  151.9640 N   0  0  0  0  0  0  0  0  0  0  0  0
  148.5030  138.8599  153.9753 C   0  0  0  0  0  0  0  0  0  0  0  0
  149.2981  139.6943  154.6794 N   0  0  0  0  0  0  0  0  0  0  0  0
  150.8884  143.0936  157.9713 C   0  0  0  0  0  0  0  0  0  0  0  0
  151.8196  146.6239  159.7040 H   0  0  0  0  0  0  0  0  0  0  0  0
  152.0533  145.6798  158.2428 H   0  0  0  0  0  0  0  0  0  0  0  0
  152.9110  145.2437  159.7225 H   0  0  0  0  0  0  0  0  0  0  0  0
  150.6938  144.8001  160.8349 H   0  0  0  0  0  0  0  0  0  0  0  0
  149.8675  145.0892  159.3295 H   0  0  0  0  0  0  0  0  0  0  0  0
  153.0527  143.3142  159.5201 H   0  0  0  0  0  0  0  0  0  0  0  0
  152.2579  142.8131  160.9962 H   0  0  0  0  0  0  0  0  0  0  0  0
  153.3554  140.8908  159.8328 H   0  0  0  0  0  0  0  0  0  0  0  0
  151.6268  140.6406  159.9974 H   0  0  0  0  0  0  0  0  0  0  0  0
  150.2142  141.0403  158.0264 H   0  0  0  0  0  0  0  0  0  0  0  0
  151.8496  141.9841  155.6236 H   0  0  0  0  0  0  0  0  0  0  0  0
  151.1888  140.3682  155.8122 H   0  0  0  0  0  0  0  0  0  0  0  0
  149.5263  142.8533  155.5646 H   0  0  0  0  0  0  0  0  0  0  0  0
  147.5716  142.5752  154.1730 H   0  0  0  0  0  0  0  0  0  0  0  0
  146.1092  141.0249  152.8722 H   0  0  0  0  0  0  0  0  0  0  0  0
  148.8091  137.8239  153.9503 H   0  0  0  0  0  0  0  0  0  0  0  0
  149.9371  143.4701  157.5934 H   0  0  0  0  0  0  0  0  0  0  0  0
  151.6697  143.6757  157.4797 H   0  0  0  0  0  0  0  0  0  0  0  0
  1  2  1  0  0  0  0
  1 19  1  0  0  0  0
  1 20  1  0  0  0  0
  1 21  1  0  0  0  0
  2  3  1  0  0  0  0
  2 22  1  0  0  0  0
  2 23  1  0  0  0  0
  3 18  1  0  0  0  0
  3  4  1  0  0  0  0
  4  5  1  0  0  0  0
  4 24  1  0  0  0  0
  4 25  1  0  0  0  0
  5  6  1  0  0  0  0
  5 26  1  0  0  0  0
  5 27  1  0  0  0  0
  6  7  1  0  0  0  0
  7  8  1  0  0  0  0
  7 18  1  0  0  0  0
  7 28  1  0  0  0  0
  8  9  1  0  0  0  0
  8 29  1  0  0  0  0
  8 30  1  0  0  0  0
  9 10  1  0  0  0  0
  9 31  1  0  0  0  0
 10 17  1  0  0  0  0
 10 11  2  0  0  0  0
 11 12  1  0  0  0  0
 11 32  1  0  0  0  0
 12 13  2  0  0  0  0
 12 33  1  0  0  0  0
 13 14  1  0  0  0  0
 13 16  1  0  0  0  0
 14 15  3  0  0  0  0
 16 17  2  0  0  0  0
 16 34  1  0  0  0  0
 18 35  1  0  0  0  0
 18 36  1  0  0  0  0
M  END
> <s_m_source_file>
AV-unprocessed.smi

> <i_m_source_file_index>
3252

> <i_lp_mmshare_version>
43012

> <i_f3d_flags>
0

> <s_epik_input>
W0NIM11bQ0gyXU4xW0NIMl1bQ0gyXU9bQ0BIXShbQ0gyXTEpW0NIMl1bTkhdYzJbY0hdW2NIXWMoQyNOKVtjSF1uMg==

> <s_epik_cmdline>
J2VwaWtfcHl0aG9uJywgJy1waCcsICc3LjAnLCAnLXRuJywgJzgnLCAnLW1hJywgJzIwMCcsICctbWV0YWxfYmluZGluZycsICctaW1hZScsICc8aW5maWxlLm1hZT4nLCAnLW9tYWUnLCAnPG91dGZpbGUubWFlPic=

> <r_epik_Ionization_Penalty>
0.797836

> <r_epik_Ionization_Penalty_Charging>
0

> <r_epik_Ionization_Penalty_Neutral>
0.797836

> <r_epik_State_Penalty>
0.828842

> <r_epik_Charging_Adjusted_Penalty>
0.828842

> <i_epik_Tot_Q>
0

> <i_epik_Tot_abs_Q>
0

> <r_epik_Metal_State_Penalty>
0.828842

> <b_epik_Metal_Only>
0

> <s_lp_Force_Field>
OPLS_2005

> <r_lp_Energy>
23.1529

> <b_lp_Chiralities_Consistent>
1

> <s_lp_Variant>
AV-unprocessed.smi:3252-6

> <Gold.Version>
5.8.1

> <Gold.Id.Protein>
6NUR|6NUR_protein|mol2

> <Gold.PLP.Fitness>
43.0699

> <Gold.PLP.PLP>
-37.1422

> <Gold.PLP.part.hbond>
-1.0601

> <Gold.PLP.part.metal>
0.0000

> <Gold.PLP.part.buried>
-3.6187

> <Gold.PLP.part.nonpolar>
-33.8469

> <Gold.PLP.part.repulsive>
1.8711

> <Gold.PLP.ligand.clash>
0.0000

> <Gold.PLP.ligand.torsion>
0.0334

> <Gold.PLP.Chemscore.Hbond>
1.0000

> <Gold.PLP.Chemscore.CHOScore>
0.9959

> <Gold.PLP.Chemscore.Metal>
0.0000

> <Gold.Chemscore.Hbonds>
donor molecule, donor type, donor heavy atom, donor atom, acceptor molecule, acceptor atom, score
      L1  H     9    31       P1  8028  1.00
      L1  C    16    34       P1  7948  0.75

> <Gold.PLP.Chemscore.Internal.Correction>
0.0067

> <Gold.Rescore>
     Score         DG    S(hbond)    S(metal)    S(lipo)     H(rot)  DE(clash)    DE(int)     intcor
     15.87     -16.02       1.00        0.00      92.91       1.43       0.10       0.05       ----

> <Gold.Chemscore.Fitness>
15.8693

> <Gold.Chemscore.DG>
-16.0194

> <Gold.Chemscore.ZeroCoef>
-5.4800

> <Gold.Chemscore.Hbond>
0.9992

> <Gold.Chemscore.Metal>
0.0000

> <Gold.Chemscore.Lipo>
92.9120

> <Gold.Chemscore.Internal_Hbond>
0.0000

> <Gold.Chemscore.DEClash>
0.0956

> <Gold.Chemscore.DEInternal>
0.0544

> <Gold.Chemscore.Rot>
1.4331

> <Gold.Chemscore.Internal.Correction>
   9.000000E+99

> <Gold.Chemscore.Hbonds>
donor molecule, donor type, donor heavy atom, donor atom, acceptor molecule, acceptor atom, score
      L1  H     9    31       P1  8028  0.98

> <Gold.Chemscore.Hbond.Weighted>
-3.3374

> <Gold.Chemscore.Metal.Weighted>
-0.0000

> <Gold.Chemscore.Lipo.Weighted>
-10.8707

> <Gold.Chemscore.Internal_Hbond.Weighted>
0.0000

> <Gold.Chemscore.DEClash.Weighted>
0.0956

> <Gold.Chemscore.DEInternal.Weighted>
0.0544

> <Gold.Chemscore.Rot.Weighted>
3.6688

> <Gold.Chemscore.Internal.Correction.Weighted>
   9.000000E+99

> <Gold.Protein.RotatedTorsions>
[ 6907 6896 6895 6894 ] final  172.53 input  -60.11 | X-H torsion
[ 7974 7965 7964 7962 ] final  -60.92 input  175.53 | X-H torsion
[ 8008 7997 7996 7995 ] final    1.92 input   59.86 | X-H torsion
[ 10167 10162 10161 10158 ] final  -36.77 input  -65.29 | X-H torsion
[ 10718 10713 10712 10709 ] final   27.46 input   66.30 | X-H torsion
[ 10763 10752 10751 10750 ] final   96.05 input  -60.55 | X-H torsion
[ 11005 11000 10999 10996 ] final -106.57 input  -57.11 | X-H torsion

> <Gold.Protein.ActiveResidues>
 VAL166  LYS551  ARG553  GLY616  TRP617  ASP618  TYR619  PRO620  LYS621  CYS622 
 ASP623  PHE694  ASN695  SER759  ASP760  ASP761  ALA762  ILE779  LEU786  VAL792 
 PHE793  MET794  SER795  GLU796  ALA797  LYS798  CYS799  TRP800  GLU811  SER814 

> <Gold.Protein.RotatedAtoms>
  151.7828  133.3351  159.3476 H   0  0  0  0  0  0  0  0  0  0  0  0  # atno 6907 bound_to 6896
  150.7420  134.5915  159.5999 H   0  0  0  0  0  0  0  0  0  0  0  0  # atno 6908 bound_to 6896
  152.3264  134.7317  160.0352 H   0  0  0  0  0  0  0  0  0  0  0  0  # atno 6909 bound_to 6896
  145.8096  140.8606  143.0188 H   0  0  0  0  0  0  0  0  0  0  0  0  # atno 7974 bound_to 7965
  154.6854  140.2642  155.6866 H   0  0  0  0  0  0  0  0  0  0  0  0  # atno 8008 bound_to 7997
  156.2712  140.2802  156.1336 H   0  0  0  0  0  0  0  0  0  0  0  0  # atno 8009 bound_to 7997
  155.0972  140.0374  157.2676 H   0  0  0  0  0  0  0  0  0  0  0  0  # atno 8010 bound_to 7997
  140.7135  143.3386  151.2406 H   0  0  0  0  0  0  0  0  0  0  0  0  # atno 10167 bound_to 10162
  157.2204  130.6976  149.6268 H   0  0  0  0  0  0  0  0  0  0  0  0  # atno 10718 bound_to 10713
  153.2604  135.4232  155.0888 H   0  0  0  0  0  0  0  0  0  0  0  0  # atno 10763 bound_to 10752
  154.8417  135.3447  154.6386 H   0  0  0  0  0  0  0  0  0  0  0  0  # atno 10764 bound_to 10752
  153.6807  135.7039  153.5176 H   0  0  0  0  0  0  0  0  0  0  0  0  # atno 10765 bound_to 10752
  141.0998  133.8905  157.1871 H   0  0  0  0  0  0  0  0  0  0  0  0  # atno 11005 bound_to 11000
  144.6759  140.0377  143.7481 LP  0  0  0  0  0  0  0  0  0  0  0  0  # atno 17320 bound_to 7965
  145.9791  139.2927  143.1053 LP  0  0  0  0  0  0  0  0  0  0  0  0  # atno 17321 bound_to 7965
  139.6888  143.9727  152.2848 LP  0  0  0  0  0  0  0  0  0  0  0  0  # atno 17342 bound_to 10162
  139.9382  144.6698  150.8293 LP  0  0  0  0  0  0  0  0  0  0  0  0  # atno 17343 bound_to 10162
  155.9683  130.4521  150.5763 LP  0  0  0  0  0  0  0  0  0  0  0  0  # atno 17370 bound_to 10713
  157.3581  131.0745  151.1659 LP  0  0  0  0  0  0  0  0  0  0  0  0  # atno 17371 bound_to 10713
  139.9846  135.0086  156.9831 LP  0  0  0  0  0  0  0  0  0  0  0  0  # atno 17394 bound_to 11000
  140.5050  134.1059  155.7258 LP  0  0  0  0  0  0  0  0  0  0  0  0  # atno 17395 bound_to 11000

$$$$
