AV-unprocessed.smi:648|AV-procd|sdf|3171|dock5
  -GOLD-   22720 0 93D 1   1.00000     0.00000
 Structure written by MMmdl.
 46 47  0  0  0  0  0  0  0  0  2 V2000
  153.7181  138.8554  154.1213 C   0  0  0  0  0  0  0  0  0  0  0  0
  152.3125  138.9875  154.7260 C   0  0  1  0  0  0  0  0  0  0  0  0
  152.1015  140.3891  155.3299 C   0  0  0  0  0  0  0  0  0  0  0  0
  150.7089  140.5909  155.9737 C   0  0  0  0  0  0  0  0  0  0  0  0
  150.6322  139.8902  157.3495 C   0  0  0  0  0  0  0  0  0  0  0  0
  150.5140  142.0990  156.2433 C   0  0  0  0  0  0  0  0  0  0  0  0
  149.5865  140.1329  154.9941 C   0  0  0  0  0  0  0  0  0  0  0  0
  149.7800  138.7813  154.2397 C   0  0  1  0  0  0  0  0  0  0  0  0
  149.4833  137.5765  155.1747 C   0  0  0  0  0  0  0  0  0  0  0  0
  149.6691  136.3394  154.5131 O   0  0  0  0  0  0  0  0  0  0  0  0
  148.7541  138.6912  153.1590 N   0  3  0  0  0  0  0  0  0  0  0  0
  147.3182  138.6672  153.5234 C   0  0  0  0  0  0  0  0  0  0  0  0
  146.5010  137.9352  152.4492 C   0  0  0  0  0  0  0  0  0  0  0  0
  145.8676  136.7407  152.9729 N   0  0  0  0  0  0  0  0  0  0  0  0
  144.5793  136.4068  153.0639 C   0  0  0  0  0  0  0  0  0  0  0  0
  144.3729  135.2122  153.6005 N   0  0  0  0  0  0  0  0  0  0  0  0
  145.6668  134.8374  153.8287 C   0  0  0  0  0  0  0  0  0  0  0  0
  146.6017  135.7171  153.4686 N   0  0  0  0  0  0  0  0  0  0  0  0
  151.2258  138.7047  153.6715 C   0  0  0  0  0  0  0  0  0  0  0  0
  153.8729  139.5685  153.3109 H   0  0  0  0  0  0  0  0  0  0  0  0
  153.8813  137.8546  153.7205 H   0  0  0  0  0  0  0  0  0  0  0  0
  154.4866  139.0355  154.8738 H   0  0  0  0  0  0  0  0  0  0  0  0
  152.2469  138.2443  155.5190 H   0  0  0  0  0  0  0  0  0  0  0  0
  152.8800  140.5959  156.0658 H   0  0  0  0  0  0  0  0  0  0  0  0
  152.2418  141.1263  154.5376 H   0  0  0  0  0  0  0  0  0  0  0  0
  149.6150  139.8920  157.7423 H   0  0  0  0  0  0  0  0  0  0  0  0
  151.2590  140.4014  158.0813 H   0  0  0  0  0  0  0  0  0  0  0  0
  150.9842  138.8635  157.3352 H   0  0  0  0  0  0  0  0  0  0  0  0
  149.5477  142.2979  156.7087 H   0  0  0  0  0  0  0  0  0  0  0  0
  150.5603  142.6850  155.3244 H   0  0  0  0  0  0  0  0  0  0  0  0
  151.2844  142.4889  156.9097 H   0  0  0  0  0  0  0  0  0  0  0  0
  148.6251  140.1341  155.5098 H   0  0  0  0  0  0  0  0  0  0  0  0
  149.4949  140.9203  154.2476 H   0  0  0  0  0  0  0  0  0  0  0  0
  150.1248  137.5527  156.0480 H   0  0  0  0  0  0  0  0  0  0  0  0
  148.4569  137.6165  155.5422 H   0  0  0  0  0  0  0  0  0  0  0  0
  149.5657  136.4768  153.5831 H   0  0  0  0  0  0  0  0  0  0  0  0
  148.8907  139.4919  152.5578 H   0  0  0  0  0  0  0  0  0  0  0  0
  147.1716  138.1789  154.4855 H   0  0  0  0  0  0  0  0  0  0  0  0
  146.9485  139.6887  153.6179 H   0  0  0  0  0  0  0  0  0  0  0  0
  145.7274  138.5906  152.0465 H   0  0  0  0  0  0  0  0  0  0  0  0
  147.1400  137.6464  151.6133 H   0  0  0  0  0  0  0  0  0  0  0  0
  143.7760  137.0485  152.7320 H   0  0  0  0  0  0  0  0  0  0  0  0
  145.9278  133.8882  154.2729 H   0  0  0  0  0  0  0  0  0  0  0  0
  151.3629  139.4425  152.8816 H   0  0  0  0  0  0  0  0  0  0  0  0
  151.3999  137.7341  153.2055 H   0  0  0  0  0  0  0  0  0  0  0  0
  148.9567  137.8619  152.6193 H   0  0  0  0  0  0  0  0  0  0  0  0
  1  2  1  0  0  0  0
  1 20  1  0  0  0  0
  1 21  1  0  0  0  0
  1 22  1  0  0  0  0
  2 19  1  0  0  0  0
  2  3  1  0  0  0  0
  2 23  1  0  0  0  0
  3  4  1  0  0  0  0
  3 24  1  0  0  0  0
  3 25  1  0  0  0  0
  4  5  1  0  0  0  0
  4  6  1  0  0  0  0
  4  7  1  0  0  0  0
  5 26  1  0  0  0  0
  5 27  1  0  0  0  0
  5 28  1  0  0  0  0
  6 29  1  0  0  0  0
  6 30  1  0  0  0  0
  6 31  1  0  0  0  0
  7  8  1  0  0  0  0
  7 32  1  0  0  0  0
  7 33  1  0  0  0  0
  8  9  1  0  0  0  0
  8 11  1  0  0  0  0
  8 19  1  0  0  0  0
  9 10  1  0  0  0  0
  9 34  1  0  0  0  0
  9 35  1  0  0  0  0
 10 36  1  0  0  0  0
 11 12  1  0  0  0  0
 11 37  1  0  0  0  0
 11 46  1  0  0  0  0
 12 13  1  0  0  0  0
 12 38  1  0  0  0  0
 12 39  1  0  0  0  0
 13 14  1  0  0  0  0
 13 40  1  0  0  0  0
 13 41  1  0  0  0  0
 14 18  1  0  0  0  0
 14 15  1  0  0  0  0
 15 16  2  0  0  0  0
 15 42  1  0  0  0  0
 16 17  1  0  0  0  0
 17 18  2  0  0  0  0
 17 43  1  0  0  0  0
 19 44  1  0  0  0  0
 19 45  1  0  0  0  0
M  CHG  1  11   1
M  END
> <s_m_source_file>
AV-unprocessed.smi

> <i_m_source_file_index>
648

> <i_lp_mmshare_version>
43012

> <i_f3d_flags>
0

> <s_epik_input>
W0NIM11DMShbQ0gzXSlbQ0gyXVtDQEBIXShbQ0gzXSlbQ0gyXVtDQF0oW0NIMl0xKShbQ0gyXVtPSF0pW05IXVtDSDJdW0NIMl1uMltjSF1uW2NIXW4y

> <s_epik_cmdline>
J2VwaWtfcHl0aG9uJywgJy1waCcsICc3LjAnLCAnLXRuJywgJzgnLCAnLW1hJywgJzIwMCcsICctbWV0YWxfYmluZGluZycsICctaW1hZScsICc8aW5maWxlLm1hZT4nLCAnLW9tYWUnLCAnPG91dGZpbGUubWFlPic=

> <r_lp_tautomer_probability>
1

> <r_epik_Ionization_Penalty>
0.00942316

> <r_epik_Ionization_Penalty_Charging>
0.00942185

> <r_epik_Ionization_Penalty_Neutral>
1.31257e-06

> <r_epik_State_Penalty>
0.00715409

> <r_epik_Charging_Adjusted_Penalty>
0.0165759

> <i_epik_Tot_Q>
1

> <i_epik_Tot_abs_Q>
1

> <r_epik_Metal_State_Penalty>
0.00715563

> <b_epik_Metal_Only>
0

> <s_lp_Force_Field>
OPLS_2005

> <r_lp_Energy>
31.5534

> <b_lp_Chiralities_Consistent>
1

> <s_lp_Variant>
AV-unprocessed.smi:648-2

> <Gold.Version>
5.8.1

> <Gold.Id.Protein>
6NUR|6NUR_protein|mol2

> <Gold.PLP.Fitness>
48.5928

> <Gold.PLP.PLP>
-32.0805

> <Gold.PLP.part.hbond>
-2.8075

> <Gold.PLP.part.metal>
0.0000

> <Gold.PLP.part.buried>
-0.7918

> <Gold.PLP.part.nonpolar>
-28.8789

> <Gold.PLP.part.repulsive>
0.2815

> <Gold.PLP.ligand.clash>
0.0000

> <Gold.PLP.ligand.torsion>
0.5448

> <Gold.PLP.Chemscore.Hbond>
4.0000

> <Gold.PLP.Chemscore.CHOScore>
1.8576

> <Gold.PLP.Chemscore.Metal>
0.0000

> <Gold.Chemscore.Hbonds>
donor molecule, donor type, donor heavy atom, donor atom, acceptor molecule, acceptor atom, score
      L1  H    10    36       P1  7948  1.00
      L1  H    11    37       P1  7957  0.90
      L1  H    11    46       P1  7948  2.00

> <Gold.PLP.Chemscore.Internal.Correction>
0.0291

> <Gold.Rescore>
     Score         DG    S(hbond)    S(metal)    S(lipo)     H(rot)  DE(clash)    DE(int)     intcor
     13.58     -16.18       2.95        0.00      76.59       3.17       1.66       0.93       ----

> <Gold.Chemscore.Fitness>
13.5843

> <Gold.Chemscore.DG>
-16.1765

> <Gold.Chemscore.ZeroCoef>
-5.4800

> <Gold.Chemscore.Hbond>
2.9533

> <Gold.Chemscore.Metal>
0.0000

> <Gold.Chemscore.Lipo>
76.5857

> <Gold.Chemscore.Internal_Hbond>
0.0000

> <Gold.Chemscore.DEClash>
1.6614

> <Gold.Chemscore.DEInternal>
0.9309

> <Gold.Chemscore.Rot>
3.1750

> <Gold.Chemscore.Internal.Correction>
   9.000000E+99

> <Gold.Chemscore.Hbonds>
donor molecule, donor type, donor heavy atom, donor atom, acceptor molecule, acceptor atom, score
      L1  H    10    36       P1  7948  0.65
      L1  H    11    37       P1  7957  0.86
      L1  H    11    46       P1  7948  1.00

> <Gold.Chemscore.Hbond.Weighted>
-9.8639

> <Gold.Chemscore.Metal.Weighted>
-0.0000

> <Gold.Chemscore.Lipo.Weighted>
-8.9605

> <Gold.Chemscore.Internal_Hbond.Weighted>
0.0000

> <Gold.Chemscore.DEClash.Weighted>
1.6614

> <Gold.Chemscore.DEInternal.Weighted>
0.9309

> <Gold.Chemscore.Rot.Weighted>
8.1279

> <Gold.Chemscore.Internal.Correction.Weighted>
   9.000000E+99

> <Gold.Protein.RotatedTorsions>
[ 6907 6896 6895 6894 ] final -131.29 input  -60.11 | X-H torsion
[ 7974 7965 7964 7962 ] final  116.00 input  175.53 | X-H torsion
[ 8008 7997 7996 7995 ] final -177.08 input   59.86 | X-H torsion
[ 10167 10162 10161 10158 ] final   21.35 input  -65.29 | X-H torsion
[ 10718 10713 10712 10709 ] final   17.14 input   66.30 | X-H torsion
[ 10763 10752 10751 10750 ] final -121.28 input  -60.55 | X-H torsion
[ 11005 11000 10999 10996 ] final   92.81 input  -57.11 | X-H torsion

> <Gold.Protein.ActiveResidues>
 VAL166  LYS551  ARG553  GLY616  TRP617  ASP618  TYR619  PRO620  LYS621  CYS622 
 ASP623  PHE694  ASN695  SER759  ASP760  ASP761  ALA762  ILE779  LEU786  VAL792 
 PHE793  MET794  SER795  GLU796  ALA797  LYS798  CYS799  TRP800  GLU811  SER814 

> <Gold.Protein.RotatedAtoms>
  150.9493  133.6567  159.2774 H   0  0  0  0  0  0  0  0  0  0  0  0  # atno 6907 bound_to 6896
  151.3928  135.0957  159.9541 H   0  0  0  0  0  0  0  0  0  0  0  0  # atno 6908 bound_to 6896
  152.5103  133.9004  159.7493 H   0  0  0  0  0  0  0  0  0  0  0  0  # atno 6909 bound_to 6896
  145.1850  139.3030  143.4398 H   0  0  0  0  0  0  0  0  0  0  0  0  # atno 7974 bound_to 7965
  156.0026  140.1224  157.0532 H   0  0  0  0  0  0  0  0  0  0  0  0  # atno 8008 bound_to 7997
  154.4247  140.1103  156.5787 H   0  0  0  0  0  0  0  0  0  0  0  0  # atno 8009 bound_to 7997
  155.6191  140.3472  155.4648 H   0  0  0  0  0  0  0  0  0  0  0  0  # atno 8010 bound_to 7997
  140.5434  143.9638  150.6533 H   0  0  0  0  0  0  0  0  0  0  0  0  # atno 10167 bound_to 10162
  157.0778  130.6375  149.5820 H   0  0  0  0  0  0  0  0  0  0  0  0  # atno 10718 bound_to 10713
  154.8664  135.4173  154.2595 H   0  0  0  0  0  0  0  0  0  0  0  0  # atno 10763 bound_to 10752
  153.3526  135.6999  153.6782 H   0  0  0  0  0  0  0  0  0  0  0  0  # atno 10764 bound_to 10752
  153.5715  135.3590  155.2812 H   0  0  0  0  0  0  0  0  0  0  0  0  # atno 10765 bound_to 10752
  139.8818  134.8754  156.3627 H   0  0  0  0  0  0  0  0  0  0  0  0  # atno 11005 bound_to 11000
  146.3446  140.2043  142.8589 LP  0  0  0  0  0  0  0  0  0  0  0  0  # atno 17320 bound_to 7965
  145.0098  140.8704  143.5231 LP  0  0  0  0  0  0  0  0  0  0  0  0  # atno 17321 bound_to 7965
  140.3044  143.3239  152.0940 LP  0  0  0  0  0  0  0  0  0  0  0  0  # atno 17342 bound_to 10162
  139.4997  144.6676  151.6319 LP  0  0  0  0  0  0  0  0  0  0  0  0  # atno 17343 bound_to 10162
  155.9932  130.4992  150.7370 LP  0  0  0  0  0  0  0  0  0  0  0  0  # atno 17370 bound_to 10713
  157.4825  131.0903  151.0520 LP  0  0  0  0  0  0  0  0  0  0  0  0  # atno 17371 bound_to 10713
  140.9518  133.7446  156.0282 LP  0  0  0  0  0  0  0  0  0  0  0  0  # atno 17394 bound_to 11000
  140.8096  134.3414  157.5415 LP  0  0  0  0  0  0  0  0  0  0  0  0  # atno 17395 bound_to 11000

$$$$
