AV-unprocessed.smi:196|AV-procd|sdf|1530|dock8
  -GOLD-   2262019383D 1   1.00000     0.00000
 Structure written by MMmdl.
 47 50  0  0  0  0  0  0  0  0  1 V2000
  148.6956  140.0651  153.9417 C   0  0  0  0  0  0  0  0  0  0  0  0
  149.5951  139.6221  155.1074 C   0  0  2  0  0  0  0  0  0  0  0  0
  150.7154  140.4872  155.2284 O   0  0  0  0  0  0  0  0  0  0  0  0
  151.6838  139.8083  156.0068 C   0  0  0  0  0  0  0  0  0  0  0  0
  151.6601  138.4045  155.4159 C   0  0  0  0  0  0  0  0  0  0  0  0
  150.1926  138.1911  155.0334 C   0  0  2  0  0  0  0  0  0  0  0  0
  150.1516  137.6716  153.7146 O   0  0  0  0  0  0  0  0  0  0  0  0
  149.4870  137.1859  155.9783 C   0  0  0  0  0  0  0  0  0  0  0  0
  148.4981  136.3534  155.3095 N   0  0  0  0  0  0  0  0  0  0  0  0
  148.5103  134.9811  155.2026 C   0  0  0  0  0  0  0  0  0  0  0  0
  147.4968  134.4642  154.5640 N   0  0  0  0  0  0  0  0  0  0  0  0
  146.7357  135.5633  154.1815 C   0  0  0  0  0  0  0  0  0  0  0  0
  145.5123  135.7267  153.4683 C   0  0  0  0  0  0  0  0  0  0  0  0
  144.7915  134.6840  152.9727 N   0  0  0  0  0  0  0  0  0  0  0  0
  145.5091  133.5105  152.4850 C   0  0  0  0  0  0  0  0  0  0  0  0
  144.7277  133.0211  151.2662 C   0  0  2  0  0  0  0  0  0  0  0  0
  145.2102  133.6019  150.1664 F   0  0  0  0  0  0  0  0  0  0  0  0
  143.3145  133.5279  151.5309 C   0  0  0  0  0  0  0  0  0  0  0  0
  143.5329  134.8756  152.2379 C   0  0  1  0  0  0  0  0  0  0  0  0
  142.3155  135.2420  153.1103 C   0  0  0  0  0  0  0  0  0  0  0  0
  141.9103  134.3804  154.0493 N   0  0  0  0  0  0  0  0  0  0  0  0
  141.7417  136.3143  152.9320 O   0  0  0  0  0  0  0  0  0  0  0  0
  145.0563  136.9966  153.3022 N   0  0  0  0  0  0  0  0  0  0  0  0
  145.7465  138.0348  153.7819 C   0  0  0  0  0  0  0  0  0  0  0  0
  146.8967  138.0306  154.4569 N   0  0  0  0  0  0  0  0  0  0  0  0
  147.3560  136.7601  154.6415 C   0  0  0  0  0  0  0  0  0  0  0  0
  144.7844  131.9421  151.1208 H   0  0  0  0  0  0  0  0  0  0  0  0
  143.6709  135.6484  151.4796 H   0  0  0  0  0  0  0  0  0  0  0  0
  147.8399  139.3989  153.8298 H   0  0  0  0  0  0  0  0  0  0  0  0
  149.2399  140.0780  152.9972 H   0  0  0  0  0  0  0  0  0  0  0  0
  148.3113  141.0710  154.1114 H   0  0  0  0  0  0  0  0  0  0  0  0
  149.0346  139.7311  156.0368 H   0  0  0  0  0  0  0  0  0  0  0  0
  152.6639  140.2801  155.9354 H   0  0  0  0  0  0  0  0  0  0  0  0
  151.3779  139.7996  157.0542 H   0  0  0  0  0  0  0  0  0  0  0  0
  152.3012  138.3886  154.5325 H   0  0  0  0  0  0  0  0  0  0  0  0
  152.0445  137.6557  156.1093 H   0  0  0  0  0  0  0  0  0  0  0  0
  149.3405  137.2003  153.6014 H   0  0  0  0  0  0  0  0  0  0  0  0
  150.2200  136.5322  156.4532 H   0  0  0  0  0  0  0  0  0  0  0  0
  148.9880  137.7202  156.7881 H   0  0  0  0  0  0  0  0  0  0  0  0
  149.2936  134.3685  155.6242 H   0  0  0  0  0  0  0  0  0  0  0  0
  146.5487  133.7187  152.2258 H   0  0  0  0  0  0  0  0  0  0  0  0
  145.5021  132.7530  153.2696 H   0  0  0  0  0  0  0  0  0  0  0  0
  142.7241  133.6209  150.6187 H   0  0  0  0  0  0  0  0  0  0  0  0
  142.7999  132.8243  152.1882 H   0  0  0  0  0  0  0  0  0  0  0  0
  141.1109  134.6028  154.6244 H   0  0  0  0  0  0  0  0  0  0  0  0
  142.4018  133.5077  154.1752 H   0  0  0  0  0  0  0  0  0  0  0  0
  145.3141  139.0075  153.5992 H   0  0  0  0  0  0  0  0  0  0  0  0
  1  2  1  0  0  0  0
  1 29  1  0  0  0  0
  1 30  1  0  0  0  0
  1 31  1  0  0  0  0
  2  6  1  0  0  0  0
  2  3  1  0  0  0  0
  2 32  1  0  0  0  0
  3  4  1  0  0  0  0
  4  5  1  0  0  0  0
  4 33  1  0  0  0  0
  4 34  1  0  0  0  0
  5  6  1  0  0  0  0
  5 35  1  0  0  0  0
  5 36  1  0  0  0  0
  6  7  1  0  0  0  0
  6  8  1  0  0  0  0
  7 37  1  0  0  0  0
  8  9  1  0  0  0  0
  8 38  1  0  0  0  0
  8 39  1  0  0  0  0
  9 26  1  0  0  0  0
  9 10  1  0  0  0  0
 10 11  2  0  0  0  0
 10 40  1  0  0  0  0
 11 12  1  0  0  0  0
 12 26  2  0  0  0  0
 12 13  1  0  0  0  0
 13 14  1  0  0  0  0
 13 23  2  0  0  0  0
 14 19  1  0  0  0  0
 14 15  1  0  0  0  0
 15 16  1  0  0  0  0
 15 41  1  0  0  0  0
 15 42  1  0  0  0  0
 16 27  1  0  0  0  0
 16 17  1  0  0  0  0
 16 18  1  0  0  0  0
 18 19  1  0  0  0  0
 18 43  1  0  0  0  0
 18 44  1  0  0  0  0
 19 28  1  0  0  0  0
 19 20  1  0  0  0  0
 20 21  1  0  0  0  0
 20 22  2  0  0  0  0
 21 45  1  0  0  0  0
 21 46  1  0  0  0  0
 23 24  1  0  0  0  0
 24 25  2  0  0  0  0
 24 47  1  0  0  0  0
 25 26  1  0  0  0  0
M  END
> <s_m_source_file>
AV-unprocessed.smi

> <i_m_source_file_index>
196

> <i_lp_mmshare_version>
43012

> <i_f3d_flags>
0

> <s_epik_input>
W0NIMl0xW0NIMl1PW0NAQEhdKFtDSDNdKVtDQEBdMShbT0hdKVtDSDJdbihbY0hdbjIpYyhjMjMpbltjSF1uYzNONFtDSDJdW0NASF0oRilbQ0gyXVtDQEhdNEMoPU8pW05IMl0=

> <s_epik_cmdline>
J2VwaWtfcHl0aG9uJywgJy1waCcsICc3LjAnLCAnLXRuJywgJzgnLCAnLW1hJywgJzIwMCcsICctbWV0YWxfYmluZGluZycsICctaW1hZScsICc8aW5maWxlLm1hZT4nLCAnLW9tYWUnLCAnPG91dGZpbGUubWFlPic=

> <r_lp_tautomer_probability>
1

> <r_epik_Ionization_Penalty>
0.000857933

> <r_epik_Ionization_Penalty_Charging>
0

> <r_epik_Ionization_Penalty_Neutral>
0.000857933

> <r_epik_State_Penalty>
0.000462053

> <r_epik_Charging_Adjusted_Penalty>
0.000462053

> <i_epik_Tot_Q>
0

> <i_epik_Tot_abs_Q>
0

> <r_epik_Metal_State_Penalty>
-0

> <b_epik_Metal_Only>
0

> <s_lp_Force_Field>
OPLS_2005

> <r_lp_Energy>
46.3924

> <b_lp_Chiralities_Consistent>
1

> <s_lp_Variant>
AV-unprocessed.smi:196-3

> <Gold.Version>
5.8.1

> <Gold.Id.Protein>
6NUR|6NUR_protein|mol2

> <Gold.PLP.Fitness>
42.1895

> <Gold.PLP.PLP>
-30.9585

> <Gold.PLP.part.hbond>
-5.0000

> <Gold.PLP.part.metal>
0.0000

> <Gold.PLP.part.buried>
-1.8282

> <Gold.PLP.part.nonpolar>
-24.7289

> <Gold.PLP.part.repulsive>
0.6042

> <Gold.PLP.ligand.clash>
0.0000

> <Gold.PLP.ligand.torsion>
0.9881

> <Gold.PLP.Chemscore.Hbond>
3.3200

> <Gold.PLP.Chemscore.CHOScore>
0.9895

> <Gold.PLP.Chemscore.Metal>
0.0000

> <Gold.Chemscore.Hbonds>
donor molecule, donor type, donor heavy atom, donor atom, acceptor molecule, acceptor atom, score
      L1  H     7    37       P1  7948  0.38
      L1  H    21    45       P1 11000  0.41
      L1  H    21    46       P1 10957  1.00
      P1  H  7989  7998       L1     3  1.00
      L1  C    24    47       P1 10175  1.00

> <Gold.PLP.Chemscore.Internal.Correction>
0.2787

> <Gold.Rescore>
     Score         DG    S(hbond)    S(metal)    S(lipo)     H(rot)  DE(clash)    DE(int)     intcor
     12.06     -16.11       3.15        0.00      57.78       2.60       1.70       2.35       ----

> <Gold.Chemscore.Fitness>
12.0623

> <Gold.Chemscore.DG>
-16.1111

> <Gold.Chemscore.ZeroCoef>
-5.4800

> <Gold.Chemscore.Hbond>
3.1491

> <Gold.Chemscore.Metal>
0.0000

> <Gold.Chemscore.Lipo>
57.7849

> <Gold.Chemscore.Internal_Hbond>
0.0000

> <Gold.Chemscore.DEClash>
1.6957

> <Gold.Chemscore.DEInternal>
2.3531

> <Gold.Chemscore.Rot>
2.5968

> <Gold.Chemscore.Internal.Correction>
   9.000000E+99

> <Gold.Chemscore.Hbonds>
donor molecule, donor type, donor heavy atom, donor atom, acceptor molecule, acceptor atom, score
      L1  H     7    37       P1  7948  0.36
      L1  H    21    45       P1 11000  0.39
      L1  H    21    46       P1 10957  0.98
      P1  H  7989  7998       L1     3  0.40

> <Gold.Chemscore.Hbond.Weighted>
-10.5180

> <Gold.Chemscore.Metal.Weighted>
-0.0000

> <Gold.Chemscore.Lipo.Weighted>
-6.7608

> <Gold.Chemscore.Internal_Hbond.Weighted>
0.0000

> <Gold.Chemscore.DEClash.Weighted>
1.6957

> <Gold.Chemscore.DEInternal.Weighted>
2.3531

> <Gold.Chemscore.Rot.Weighted>
6.6477

> <Gold.Chemscore.Internal.Correction.Weighted>
   9.000000E+99

> <Gold.Protein.RotatedTorsions>
[ 6907 6896 6895 6894 ] final -141.67 input  -60.11 | X-H torsion
[ 7974 7965 7964 7962 ] final  -42.88 input  175.53 | X-H torsion
[ 8008 7997 7996 7995 ] final   53.10 input   59.86 | X-H torsion
[ 10167 10162 10161 10158 ] final   81.72 input  -65.29 | X-H torsion
[ 10718 10713 10712 10709 ] final  139.28 input   66.30 | X-H torsion
[ 10763 10752 10751 10750 ] final -124.37 input  -60.55 | X-H torsion
[ 11005 11000 10999 10996 ] final  162.12 input  -57.11 | X-H torsion

> <Gold.Protein.ActiveResidues>
 VAL166  LYS551  ARG553  GLY616  TRP617  ASP618  TYR619  PRO620  LYS621  CYS622 
 ASP623  PHE694  ASN695  SER759  ASP760  ASP761  ALA762  ILE779  LEU786  VAL792 
 PHE793  MET794  SER795  GLU796  ALA797  LYS798  CYS799  TRP800  GLU811  SER814 

> <Gold.Protein.RotatedAtoms>
  151.0769  133.5421  159.2623 H   0  0  0  0  0  0  0  0  0  0  0  0  # atno 6907 bound_to 6896
  151.2339  135.0564  159.9008 H   0  0  0  0  0  0  0  0  0  0  0  0  # atno 6908 bound_to 6896
  152.5419  134.0554  159.8182 H   0  0  0  0  0  0  0  0  0  0  0  0  # atno 6909 bound_to 6896
  146.0073  140.7005  142.9241 H   0  0  0  0  0  0  0  0  0  0  0  0  # atno 7974 bound_to 7965
  155.4627  140.3462  155.4315 H   0  0  0  0  0  0  0  0  0  0  0  0  # atno 8008 bound_to 7997
  156.1151  140.1471  156.9314 H   0  0  0  0  0  0  0  0  0  0  0  0  # atno 8009 bound_to 7997
  154.4783  140.0878  156.7295 H   0  0  0  0  0  0  0  0  0  0  0  0  # atno 8010 bound_to 7997
  139.9363  144.6119  150.8295 H   0  0  0  0  0  0  0  0  0  0  0  0  # atno 10167 bound_to 10162
  157.4161  131.1033  151.0403 H   0  0  0  0  0  0  0  0  0  0  0  0  # atno 10718 bound_to 10713
  154.8722  135.4066  154.3095 H   0  0  0  0  0  0  0  0  0  0  0  0  # atno 10763 bound_to 10752
  153.3941  135.7016  153.6479 H   0  0  0  0  0  0  0  0  0  0  0  0  # atno 10764 bound_to 10752
  153.5249  135.3679  155.2620 H   0  0  0  0  0  0  0  0  0  0  0  0  # atno 10765 bound_to 10752
  140.2225  134.8185  157.3235 H   0  0  0  0  0  0  0  0  0  0  0  0  # atno 11005 bound_to 11000
  144.6940  140.3336  143.7211 LP  0  0  0  0  0  0  0  0  0  0  0  0  # atno 17320 bound_to 7965
  145.7397  139.1760  143.2383 LP  0  0  0  0  0  0  0  0  0  0  0  0  # atno 17321 bound_to 7965
  140.7623  143.3196  151.2653 LP  0  0  0  0  0  0  0  0  0  0  0  0  # atno 17342 bound_to 10162
  139.6741  143.9969  152.2770 LP  0  0  0  0  0  0  0  0  0  0  0  0  # atno 17343 bound_to 10162
  157.1350  130.6118  149.5539 LP  0  0  0  0  0  0  0  0  0  0  0  0  # atno 17370 bound_to 10713
  155.9865  130.4901  150.7084 LP  0  0  0  0  0  0  0  0  0  0  0  0  # atno 17371 bound_to 10713
  140.1834  134.4461  155.7758 LP  0  0  0  0  0  0  0  0  0  0  0  0  # atno 17394 bound_to 11000
  141.2222  133.6994  156.7907 LP  0  0  0  0  0  0  0  0  0  0  0  0  # atno 17395 bound_to 11000

$$$$
