AV-unprocessed.smi:2562|AV-procd|sdf|10054|dock4
  -GOLD-   2272014 93D 1   1.00000     0.00000
 Structure written by MMmdl.
 29 30  0  0  0  0  0  0  0  0  2 V2000
  152.2593  144.4065  158.4326 C   0  0  0  0  0  0  0  0  0  0  0  0
  152.1797  143.4713  159.6442 C   0  0  0  0  0  0  0  0  0  0  0  0
  152.9083  142.1405  159.4126 C   0  0  0  0  0  0  0  0  0  0  0  0
  152.2250  141.2950  158.3601 C   0  0  0  0  0  0  0  0  0  0  0  0
  152.6715  140.1199  157.8827 N   0  5  0  0  0  0  0  0  0  0  0  0
  151.8127  139.6406  157.0062 N   0  0  0  0  0  0  0  0  0  0  0  0
  150.8107  140.5323  156.9617 C   0  0  0  0  0  0  0  0  0  0  0  0
  149.6011  140.4163  156.0556 C   0  0  2  0  0  0  0  0  0  0  0  0
  150.0264  140.1684  154.5939 C   0  0  0  0  0  0  0  0  0  0  0  0
  148.8547  140.0683  153.7234 N   0  0  0  0  0  0  0  0  0  0  0  0
  147.9962  141.2432  153.8542 C   0  0  0  0  0  0  0  0  0  0  0  0
  147.6145  141.4622  155.3280 C   0  0  0  0  0  0  0  0  0  0  0  0
  148.7967  141.5931  156.1088 O   0  0  0  0  0  0  0  0  0  0  0  0
  151.0552  141.5605  157.7877 N   0  0  0  0  0  0  0  0  0  0  0  0
  151.7343  145.3414  158.6294 H   0  0  0  0  0  0  0  0  0  0  0  0
  151.8077  143.9487  157.5522 H   0  0  0  0  0  0  0  0  0  0  0  0
  153.2940  144.6508  158.1912 H   0  0  0  0  0  0  0  0  0  0  0  0
  152.6045  143.9717  160.5152 H   0  0  0  0  0  0  0  0  0  0  0  0
  151.1330  143.2758  159.8799 H   0  0  0  0  0  0  0  0  0  0  0  0
  153.9373  142.3232  159.1011 H   0  0  0  0  0  0  0  0  0  0  0  0
  152.9563  141.5705  160.3409 H   0  0  0  0  0  0  0  0  0  0  0  0
  149.0102  139.5713  156.4144 H   0  0  0  0  0  0  0  0  0  0  0  0
  150.6696  140.9825  154.2566 H   0  0  0  0  0  0  0  0  0  0  0  0
  150.6175  139.2550  154.5266 H   0  0  0  0  0  0  0  0  0  0  0  0
  149.1578  139.9743  152.7595 H   0  0  0  0  0  0  0  0  0  0  0  0
  148.5138  142.1254  153.4756 H   0  0  0  0  0  0  0  0  0  0  0  0
  147.0984  141.1206  153.2482 H   0  0  0  0  0  0  0  0  0  0  0  0
  147.0224  142.3716  155.4301 H   0  0  0  0  0  0  0  0  0  0  0  0
  147.0023  140.6396  155.7016 H   0  0  0  0  0  0  0  0  0  0  0  0
  1  2  1  0  0  0  0
  1 15  1  0  0  0  0
  1 16  1  0  0  0  0
  1 17  1  0  0  0  0
  2  3  1  0  0  0  0
  2 18  1  0  0  0  0
  2 19  1  0  0  0  0
  3 20  1  0  0  0  0
  3 21  1  0  0  0  0
  3  4  1  0  0  0  0
  4 14  2  0  0  0  0
  4  5  1  0  0  0  0
  5  6  1  0  0  0  0
  6  7  2  0  0  0  0
  7 14  1  0  0  0  0
  7  8  1  0  0  0  0
  8 13  1  0  0  0  0
  8  9  1  0  0  0  0
  8 22  1  0  0  0  0
  9 10  1  0  0  0  0
  9 23  1  0  0  0  0
  9 24  1  0  0  0  0
 10 11  1  0  0  0  0
 10 25  1  0  0  0  0
 11 12  1  0  0  0  0
 11 26  1  0  0  0  0
 11 27  1  0  0  0  0
 12 13  1  0  0  0  0
 12 28  1  0  0  0  0
 12 29  1  0  0  0  0
M  CHG  1   5  -1
M  END
> <s_m_source_file>
AV-unprocessed.smi

> <i_m_source_file_index>
2562

> <i_lp_mmshare_version>
43012

> <i_f3d_flags>
0

> <s_epik_input>
W0NIM11bQ0gyXVtDSDJdYzFuW25IXWMobjEpW0NAQEhdMltDSDJdW05IXVtDSDJdW0NIMl1PMg==

> <s_epik_cmdline>
J2VwaWtfcHl0aG9uJywgJy1waCcsICc3LjAnLCAnLXRuJywgJzgnLCAnLW1hJywgJzIwMCcsICctbWV0YWxfYmluZGluZycsICctaW1hZScsICc8aW5maWxlLm1hZT4nLCAnLW9tYWUnLCAnPG91dGZpbGUubWFlPic=

> <r_epik_Ionization_Penalty>
15.949

> <r_epik_Ionization_Penalty_Charging>
14.3757

> <r_epik_Ionization_Penalty_Neutral>
1.5733

> <r_epik_State_Penalty>
7.02775

> <r_epik_Charging_Adjusted_Penalty>
21.4034

> <i_epik_Tot_Q>
-1

> <i_epik_Tot_abs_Q>
1

> <r_epik_Metal_State_Penalty>
3.10311

> <b_epik_Metal_Only>
1

> <s_lp_Force_Field>
OPLS_2005

> <r_lp_Energy>
11.5852

> <b_lp_Chiralities_Consistent>
1

> <s_lp_Variant>
AV-unprocessed.smi:2562-13

> <Gold.Version>
5.8.1

> <Gold.Id.Protein>
6NUR|6NUR_protein|mol2

> <Gold.PLP.Fitness>
35.9740

> <Gold.PLP.PLP>
-27.2379

> <Gold.PLP.part.hbond>
-2.0000

> <Gold.PLP.part.metal>
0.0000

> <Gold.PLP.part.buried>
-2.5778

> <Gold.PLP.part.nonpolar>
-23.1593

> <Gold.PLP.part.repulsive>
0.6923

> <Gold.PLP.ligand.clash>
0.0000

> <Gold.PLP.ligand.torsion>
0.1392

> <Gold.PLP.Chemscore.Hbond>
3.0000

> <Gold.PLP.Chemscore.CHOScore>
0.0000

> <Gold.PLP.Chemscore.Metal>
0.0000

> <Gold.Chemscore.Hbonds>
donor molecule, donor type, donor heavy atom, donor atom, acceptor molecule, acceptor atom, score
      L1  H    10    25       P1  7957  1.00
      P1  H  7997  8010       L1     5  1.79

> <Gold.PLP.Chemscore.Internal.Correction>
0.0145

> <Gold.Rescore>
     Score         DG    S(hbond)    S(metal)    S(lipo)     H(rot)  DE(clash)    DE(int)     intcor
     14.83     -15.01       1.78        0.00      62.11       1.44       0.09       0.08       ----

> <Gold.Chemscore.Fitness>
14.8293

> <Gold.Chemscore.DG>
-15.0053

> <Gold.Chemscore.ZeroCoef>
-5.4800

> <Gold.Chemscore.Hbond>
1.7832

> <Gold.Chemscore.Metal>
0.0000

> <Gold.Chemscore.Lipo>
62.1052

> <Gold.Chemscore.Internal_Hbond>
0.0000

> <Gold.Chemscore.DEClash>
0.0939

> <Gold.Chemscore.DEInternal>
0.0822

> <Gold.Chemscore.Rot>
1.4441

> <Gold.Chemscore.Internal.Correction>
   9.000000E+99

> <Gold.Chemscore.Hbonds>
donor molecule, donor type, donor heavy atom, donor atom, acceptor molecule, acceptor atom, score
      L1  H    10    25       P1  7957  1.00
      P1  H  7997  8010       L1     5  0.24

> <Gold.Chemscore.Hbond.Weighted>
-5.9559

> <Gold.Chemscore.Metal.Weighted>
-0.0000

> <Gold.Chemscore.Lipo.Weighted>
-7.2663

> <Gold.Chemscore.Internal_Hbond.Weighted>
0.0000

> <Gold.Chemscore.DEClash.Weighted>
0.0939

> <Gold.Chemscore.DEInternal.Weighted>
0.0822

> <Gold.Chemscore.Rot.Weighted>
3.6969

> <Gold.Chemscore.Internal.Correction.Weighted>
   9.000000E+99

> <Gold.Protein.RotatedTorsions>
[ 6907 6896 6895 6894 ] final   -6.10 input  -60.11 | X-H torsion
[ 7974 7965 7964 7962 ] final   70.00 input  175.53 | X-H torsion
[ 8008 7997 7996 7995 ] final   53.21 input   59.86 | X-H torsion
[ 10167 10162 10161 10158 ] final -130.63 input  -65.29 | X-H torsion
[ 10718 10713 10712 10709 ] final  -84.33 input   66.30 | X-H torsion
[ 10763 10752 10751 10750 ] final  167.51 input  -60.55 | X-H torsion
[ 11005 11000 10999 10996 ] final   12.72 input  -57.11 | X-H torsion

> <Gold.Protein.ActiveResidues>
 VAL166  LYS551  ARG553  GLY616  TRP617  ASP618  TYR619  PRO620  LYS621  CYS622 
 ASP623  PHE694  ASN695  SER759  ASP760  ASP761  ALA762  ILE779  LEU786  VAL792 
 PHE793  MET794  SER795  GLU796  ALA797  LYS798  CYS799  TRP800  GLU811  SER814 

> <Gold.Protein.RotatedAtoms>
  151.4710  135.1046  159.9751 H   0  0  0  0  0  0  0  0  0  0  0  0  # atno 6907 bound_to 6896
  152.4817  133.8266  159.7092 H   0  0  0  0  0  0  0  0  0  0  0  0  # atno 6908 bound_to 6896
  150.8893  133.7204  159.2936 H   0  0  0  0  0  0  0  0  0  0  0  0  # atno 6909 bound_to 6896
  145.7835  139.2899  143.1252 H   0  0  0  0  0  0  0  0  0  0  0  0  # atno 7974 bound_to 7965
  155.4645  140.3463  155.4317 H   0  0  0  0  0  0  0  0  0  0  0  0  # atno 8008 bound_to 7997
  156.1139  140.1468  156.9328 H   0  0  0  0  0  0  0  0  0  0  0  0  # atno 8009 bound_to 7997
  154.4776  140.0880  156.7278 H   0  0  0  0  0  0  0  0  0  0  0  0  # atno 8010 bound_to 7997
  139.9274  143.6312  152.2538 H   0  0  0  0  0  0  0  0  0  0  0  0  # atno 10167 bound_to 10162
  156.0007  130.4694  150.4393 H   0  0  0  0  0  0  0  0  0  0  0  0  # atno 10718 bound_to 10713
  154.3550  135.2753  155.2351 H   0  0  0  0  0  0  0  0  0  0  0  0  # atno 10763 bound_to 10752
  154.4564  135.5918  153.6230 H   0  0  0  0  0  0  0  0  0  0  0  0  # atno 10764 bound_to 10752
  152.9847  135.6054  154.3764 H   0  0  0  0  0  0  0  0  0  0  0  0  # atno 10765 bound_to 10752
  140.4888  134.0861  155.7766 H   0  0  0  0  0  0  0  0  0  0  0  0  # atno 11005 bound_to 11000
  146.0050  140.8487  142.9999 LP  0  0  0  0  0  0  0  0  0  0  0  0  # atno 17320 bound_to 7965
  144.6792  140.2407  143.7344 LP  0  0  0  0  0  0  0  0  0  0  0  0  # atno 17321 bound_to 7965
  139.6811  144.7655  151.1607 LP  0  0  0  0  0  0  0  0  0  0  0  0  # atno 17342 bound_to 10162
  140.7646  143.5724  150.8982 LP  0  0  0  0  0  0  0  0  0  0  0  0  # atno 17343 bound_to 10162
  157.2436  131.0531  151.2422 LP  0  0  0  0  0  0  0  0  0  0  0  0  # atno 17370 bound_to 10713
  157.3597  130.7125  149.6493 LP  0  0  0  0  0  0  0  0  0  0  0  0  # atno 17371 bound_to 10713
  141.1494  133.8995  157.2134 LP  0  0  0  0  0  0  0  0  0  0  0  0  # atno 17394 bound_to 11000
  139.9782  135.0107  156.9683 LP  0  0  0  0  0  0  0  0  0  0  0  0  # atno 17395 bound_to 11000

$$$$
