AV-unprocessed.smi:3044|AV-procd|sdf|11605|dock1
  -GOLD-   2272016583D 1   1.00000     0.00000
 Structure written by MMmdl.
 41 42  0  0  0  0  0  0  0  0  1 V2000
  147.1413  141.6042  157.8392 C   0  0  0  0  0  0  0  0  0  0  0  0
  147.3985  141.3891  156.3572 C   0  0  0  0  0  0  0  0  0  0  0  0
  146.3574  141.6667  155.5409 N   0  0  0  0  0  0  0  0  0  0  0  0
  146.5253  141.4981  154.2127 C   0  0  0  0  0  0  0  0  0  0  0  0
  147.7315  141.0560  153.6376 C   0  0  0  0  0  0  0  0  0  0  0  0
  148.8145  140.7666  154.4887 C   0  0  0  0  0  0  0  0  0  0  0  0
  148.6504  140.9218  155.8865 C   0  0  0  0  0  0  0  0  0  0  0  0
  149.6871  140.6744  156.8274 N   0  0  0  0  0  0  0  0  0  0  0  0
  150.9963  140.4511  156.6067 C   0  0  0  0  0  0  0  0  0  0  0  0
  151.5311  140.4626  155.4989 O   0  0  0  0  0  0  0  0  0  0  0  0
  151.8485  140.1611  157.8442 C   0  0  0  0  0  0  0  0  0  0  0  0
  151.8247  141.2909  158.7078 O   0  0  0  0  0  0  0  0  0  0  0  0
  153.0689  141.9610  158.8595 C   0  0  2  0  0  0  0  0  0  0  0  0
  154.1248  141.0356  159.4984 C   0  0  0  0  0  0  0  0  0  0  0  0
  153.7401  140.6429  160.9340 C   0  0  0  0  0  0  0  0  0  0  0  0
  153.4956  141.8844  161.8063 C   0  0  0  0  0  0  0  0  0  0  0  0
  152.4305  142.8098  161.1881 C   0  0  1  0  0  0  0  0  0  0  0  0
  152.1939  144.0536  162.0563 C   0  0  0  0  0  0  0  0  0  0  0  0
  152.8213  143.1954  159.7460 C   0  0  0  0  0  0  0  0  0  0  0  0
  147.2882  140.6743  158.3896 H   0  0  0  0  0  0  0  0  0  0  0  0
  146.1224  141.9469  158.0244 H   0  0  0  0  0  0  0  0  0  0  0  0
  147.8262  142.3524  158.2390 H   0  0  0  0  0  0  0  0  0  0  0  0
  145.6749  141.7294  153.5887 H   0  0  0  0  0  0  0  0  0  0  0  0
  147.8251  140.9465  152.5674 H   0  0  0  0  0  0  0  0  0  0  0  0
  149.7493  140.4474  154.0549 H   0  0  0  0  0  0  0  0  0  0  0  0
  149.3841  140.5562  157.7835 H   0  0  0  0  0  0  0  0  0  0  0  0
  151.4580  139.2757  158.3462 H   0  0  0  0  0  0  0  0  0  0  0  0
  152.8702  139.9455  157.5283 H   0  0  0  0  0  0  0  0  0  0  0  0
  153.4191  142.3043  157.8845 H   0  0  0  0  0  0  0  0  0  0  0  0
  154.2782  140.1412  158.8954 H   0  0  0  0  0  0  0  0  0  0  0  0
  155.0856  141.5516  159.5159 H   0  0  0  0  0  0  0  0  0  0  0  0
  152.8419  140.0242  160.9172 H   0  0  0  0  0  0  0  0  0  0  0  0
  154.5278  140.0306  161.3738 H   0  0  0  0  0  0  0  0  0  0  0  0
  153.1860  141.5735  162.8046 H   0  0  0  0  0  0  0  0  0  0  0  0
  154.4318  142.4306  161.9300 H   0  0  0  0  0  0  0  0  0  0  0  0
  151.4895  142.2588  161.1490 H   0  0  0  0  0  0  0  0  0  0  0  0
  153.0978  144.6578  162.1382 H   0  0  0  0  0  0  0  0  0  0  0  0
  151.8861  143.7756  163.0648 H   0  0  0  0  0  0  0  0  0  0  0  0
  151.4097  144.6827  161.6346 H   0  0  0  0  0  0  0  0  0  0  0  0
  153.7237  143.8077  159.7660 H   0  0  0  0  0  0  0  0  0  0  0  0
  152.0422  143.8149  159.3003 H   0  0  0  0  0  0  0  0  0  0  0  0
  1  2  1  0  0  0  0
  1 20  1  0  0  0  0
  1 21  1  0  0  0  0
  1 22  1  0  0  0  0
  2  7  1  0  0  0  0
  2  3  2  0  0  0  0
  3  4  1  0  0  0  0
  4  5  2  0  0  0  0
  4 23  1  0  0  0  0
  5  6  1  0  0  0  0
  5 24  1  0  0  0  0
  6  7  2  0  0  0  0
  6 25  1  0  0  0  0
  7  8  1  0  0  0  0
  8  9  1  0  0  0  0
  8 26  1  0  0  0  0
  9 10  2  0  0  0  0
  9 11  1  0  0  0  0
 11 12  1  0  0  0  0
 11 27  1  0  0  0  0
 11 28  1  0  0  0  0
 12 13  1  0  0  0  0
 13 19  1  0  0  0  0
 13 14  1  0  0  0  0
 13 29  1  0  0  0  0
 14 15  1  0  0  0  0
 14 30  1  0  0  0  0
 14 31  1  0  0  0  0
 15 16  1  0  0  0  0
 15 32  1  0  0  0  0
 15 33  1  0  0  0  0
 16 17  1  0  0  0  0
 16 34  1  0  0  0  0
 16 35  1  0  0  0  0
 17 18  1  0  0  0  0
 17 19  1  0  0  0  0
 17 36  1  0  0  0  0
 18 37  1  0  0  0  0
 18 38  1  0  0  0  0
 18 39  1  0  0  0  0
 19 40  1  0  0  0  0
 19 41  1  0  0  0  0
M  END
> <s_m_source_file>
AV-unprocessed.smi

> <i_m_source_file_index>
3044

> <i_lp_mmshare_version>
43012

> <i_f3d_flags>
0

> <s_epik_input>
W0NIM11jMW5bY0hdW2NIXVtjSF1jMVtOSF1DKD1PKVtDSDJdT1tDQEBIXTJbQ0gyXVtDSDJdW0NIMl1bQ0BASF0oW0NIM10pW0NIMl0y

> <s_epik_cmdline>
J2VwaWtfcHl0aG9uJywgJy1waCcsICc3LjAnLCAnLXRuJywgJzgnLCAnLW1hJywgJzIwMCcsICctbWV0YWxfYmluZGluZycsICctaW1hZScsICc8aW5maWxlLm1hZT4nLCAnLW9tYWUnLCAnPG91dGZpbGUubWFlPic=

> <r_epik_Ionization_Penalty>
0.0077122

> <r_epik_Ionization_Penalty_Charging>
0

> <r_epik_Ionization_Penalty_Neutral>
0.0077122

> <r_epik_State_Penalty>
0.00577497

> <r_epik_Charging_Adjusted_Penalty>
0.00577497

> <i_epik_Tot_Q>
0

> <i_epik_Tot_abs_Q>
0

> <r_epik_Metal_State_Penalty>
-0

> <b_epik_Metal_Only>
0

> <s_lp_Force_Field>
OPLS_2005

> <r_lp_Energy>
17.2241

> <b_lp_Chiralities_Consistent>
1

> <s_lp_Variant>
AV-unprocessed.smi:3044-1

> <Gold.Version>
5.8.1

> <Gold.Id.Protein>
6NUR|6NUR_protein|mol2

> <Gold.PLP.Fitness>
39.9537

> <Gold.PLP.PLP>
-36.8097

> <Gold.PLP.part.hbond>
-1.0000

> <Gold.PLP.part.metal>
0.0000

> <Gold.PLP.part.buried>
-4.2752

> <Gold.PLP.part.nonpolar>
-31.9861

> <Gold.PLP.part.repulsive>
0.1463

> <Gold.PLP.ligand.clash>
0.0000

> <Gold.PLP.ligand.torsion>
0.4045

> <Gold.PLP.Chemscore.Hbond>
0.8320

> <Gold.PLP.Chemscore.CHOScore>
0.4814

> <Gold.PLP.Chemscore.Metal>
0.0000

> <Gold.Chemscore.Hbonds>
donor molecule, donor type, donor heavy atom, donor atom, acceptor molecule, acceptor atom, score
      P1  H  7989  7998       L1    10  0.82
      L1  C     4    23       P1 10175  0.62

> <Gold.PLP.Chemscore.Internal.Correction>
0.0129

> <Gold.Rescore>
     Score         DG    S(hbond)    S(metal)    S(lipo)     H(rot)  DE(clash)    DE(int)     intcor
     15.79     -17.80       0.89        0.00     108.61       1.31       0.37       1.64       ----

> <Gold.Chemscore.Fitness>
15.7873

> <Gold.Chemscore.DG>
-17.8026

> <Gold.Chemscore.ZeroCoef>
-5.4800

> <Gold.Chemscore.Hbond>
0.8859

> <Gold.Chemscore.Metal>
0.0000

> <Gold.Chemscore.Lipo>
108.6147

> <Gold.Chemscore.Internal_Hbond>
0.0000

> <Gold.Chemscore.DEClash>
0.3743

> <Gold.Chemscore.DEInternal>
1.6410

> <Gold.Chemscore.Rot>
1.3064

> <Gold.Chemscore.Internal.Correction>
   9.000000E+99

> <Gold.Chemscore.Hbonds>
donor molecule, donor type, donor heavy atom, donor atom, acceptor molecule, acceptor atom, score
      P1  H  7989  7998       L1    10  0.75

> <Gold.Chemscore.Hbond.Weighted>
-2.9590

> <Gold.Chemscore.Metal.Weighted>
-0.0000

> <Gold.Chemscore.Lipo.Weighted>
-12.7079

> <Gold.Chemscore.Internal_Hbond.Weighted>
0.0000

> <Gold.Chemscore.DEClash.Weighted>
0.3743

> <Gold.Chemscore.DEInternal.Weighted>
1.6410

> <Gold.Chemscore.Rot.Weighted>
3.3443

> <Gold.Chemscore.Internal.Correction.Weighted>
   9.000000E+99

> <Gold.Protein.RotatedTorsions>
[ 6907 6896 6895 6894 ] final  153.97 input  -60.11 | X-H torsion
[ 7974 7965 7964 7962 ] final   96.81 input  175.53 | X-H torsion
[ 8008 7997 7996 7995 ] final   95.91 input   59.86 | X-H torsion
[ 10167 10162 10161 10158 ] final  133.90 input  -65.29 | X-H torsion
[ 10718 10713 10712 10709 ] final   43.18 input   66.30 | X-H torsion
[ 10763 10752 10751 10750 ] final  -78.26 input  -60.55 | X-H torsion
[ 11005 11000 10999 10996 ] final   52.70 input  -57.11 | X-H torsion

> <Gold.Protein.ActiveResidues>
 VAL166  LYS551  ARG553  GLY616  TRP617  ASP618  TYR619  PRO620  LYS621  CYS622 
 ASP623  PHE694  ASN695  SER759  ASP760  ASP761  ALA762  ILE779  LEU786  VAL792 
 PHE793  MET794  SER795  GLU796  ALA797  LYS798  CYS799  TRP800  GLU811  SER814 

> <Gold.Protein.RotatedAtoms>
  152.0651  133.4080  159.4434 H   0  0  0  0  0  0  0  0  0  0  0  0  # atno 6907 bound_to 6896
  150.6865  134.3155  159.4774 H   0  0  0  0  0  0  0  0  0  0  0  0  # atno 6908 bound_to 6896
  152.0981  134.9360  160.0621 H   0  0  0  0  0  0  0  0  0  0  0  0  # atno 6909 bound_to 6896
  145.4339  139.2308  143.3129 H   0  0  0  0  0  0  0  0  0  0  0  0  # atno 7974 bound_to 7965
  156.0739  140.3280  155.7610 H   0  0  0  0  0  0  0  0  0  0  0  0  # atno 8008 bound_to 7997
  155.5261  140.0589  157.2915 H   0  0  0  0  0  0  0  0  0  0  0  0  # atno 8009 bound_to 7997
  154.4545  140.1935  156.0438 H   0  0  0  0  0  0  0  0  0  0  0  0  # atno 8010 bound_to 7997
  139.5278  144.6594  151.5062 H   0  0  0  0  0  0  0  0  0  0  0  0  # atno 10167 bound_to 10162
  157.4130  130.7925  149.7447 H   0  0  0  0  0  0  0  0  0  0  0  0  # atno 10718 bound_to 10713
  154.5236  135.5736  153.6701 H   0  0  0  0  0  0  0  0  0  0  0  0  # atno 10763 bound_to 10752
  152.9923  135.6187  154.2722 H   0  0  0  0  0  0  0  0  0  0  0  0  # atno 10764 bound_to 10752
  154.2644  135.2855  155.2744 H   0  0  0  0  0  0  0  0  0  0  0  0  # atno 10765 bound_to 10752
  140.0827  134.5316  155.8930 H   0  0  0  0  0  0  0  0  0  0  0  0  # atno 11005 bound_to 11000
  146.2592  140.5079  142.8860 LP  0  0  0  0  0  0  0  0  0  0  0  0  # atno 17320 bound_to 7965
  144.8165  140.6477  143.6381 LP  0  0  0  0  0  0  0  0  0  0  0  0  # atno 17321 bound_to 7965
  140.6434  143.8843  150.6714 LP  0  0  0  0  0  0  0  0  0  0  0  0  # atno 17342 bound_to 10162
  140.2185  143.3828  152.1662 LP  0  0  0  0  0  0  0  0  0  0  0  0  # atno 17343 bound_to 10162
  155.9856  130.3981  150.3251 LP  0  0  0  0  0  0  0  0  0  0  0  0  # atno 17370 bound_to 10713
  157.1391  131.0292  151.2935 LP  0  0  0  0  0  0  0  0  0  0  0  0  # atno 17371 bound_to 10713
  141.2052  133.6645  156.6167 LP  0  0  0  0  0  0  0  0  0  0  0  0  # atno 17394 bound_to 11000
  140.3464  134.7805  157.4435 LP  0  0  0  0  0  0  0  0  0  0  0  0  # atno 17395 bound_to 11000

$$$$
