AV-unprocessed.smi:53|AV-procd|sdf|521|dock1
  -GOLD-   2262016393D 1   1.00000     0.00000
 Structure written by MMmdl.
 30 31  0  0  0  0  0  0  0  0  1 V2000
  154.0146  139.7216  160.2724 N   0  0  0  0  0  0  0  0  0  0  0  0
  153.5047  139.4763  159.0573 C   0  0  0  0  0  0  0  0  0  0  0  0
  152.6520  140.4497  158.4130 C   0  0  0  0  0  0  0  0  0  0  0  0
  152.1808  140.1317  157.1873 C   0  0  0  0  0  0  0  0  0  0  0  0
  152.5031  138.9367  156.5586 N   0  0  0  0  0  0  0  0  0  0  0  0
  151.9568  138.5967  155.1905 C   0  0  2  0  0  0  0  0  0  0  0  0
  151.1859  139.6689  154.7320 O   0  0  0  0  0  0  0  0  0  0  0  0
  149.9346  139.1987  154.2410 C   0  0  2  0  0  0  0  0  0  0  0  0
  148.8778  140.3054  154.3759 C   0  0  0  0  0  0  0  0  0  0  0  0
  147.9087  140.1738  153.3584 O   0  0  0  0  0  0  0  0  0  0  0  0
  149.6656  137.9827  155.1278 C   0  0  1  0  0  0  0  0  0  0  0  0
  148.7049  137.0973  154.5842 O   0  0  0  0  0  0  0  0  0  0  0  0
  151.0488  137.3587  155.2728 C   0  0  1  0  0  0  0  0  0  0  0  0
  151.3481  136.4394  154.2379 O   0  0  0  0  0  0  0  0  0  0  0  0
  153.3196  137.9923  157.2255 C   0  0  0  0  0  0  0  0  0  0  0  0
  153.5923  136.9019  156.7247 O   0  0  0  0  0  0  0  0  0  0  0  0
  153.7905  138.3327  158.4652 N   0  0  0  0  0  0  0  0  0  0  0  0
  152.8169  138.4804  154.5278 H   0  0  0  0  0  0  0  0  0  0  0  0
  150.0494  138.8790  153.2032 H   0  0  0  0  0  0  0  0  0  0  0  0
  149.3230  138.3155  156.1087 H   0  0  0  0  0  0  0  0  0  0  0  0
  151.1610  136.8471  156.2300 H   0  0  0  0  0  0  0  0  0  0  0  0
  154.6067  139.0384  160.7218 H   0  0  0  0  0  0  0  0  0  0  0  0
  153.8000  140.5910  160.7394 H   0  0  0  0  0  0  0  0  0  0  0  0
  152.3843  141.3954  158.8623 H   0  0  0  0  0  0  0  0  0  0  0  0
  151.5327  140.8446  156.6990 H   0  0  0  0  0  0  0  0  0  0  0  0
  148.3618  140.2183  155.3323 H   0  0  0  0  0  0  0  0  0  0  0  0
  149.3322  141.2961  154.3419 H   0  0  0  0  0  0  0  0  0  0  0  0
  148.3551  140.0631  152.5327 H   0  0  0  0  0  0  0  0  0  0  0  0
  148.9026  136.9649  153.6697 H   0  0  0  0  0  0  0  0  0  0  0  0
  150.6537  136.4733  153.5974 H   0  0  0  0  0  0  0  0  0  0  0  0
  1  2  1  0  0  0  0
  1 22  1  0  0  0  0
  1 23  1  0  0  0  0
  2 17  2  0  0  0  0
  2  3  1  0  0  0  0
  3  4  2  0  0  0  0
  3 24  1  0  0  0  0
  4  5  1  0  0  0  0
  4 25  1  0  0  0  0
  5  6  1  0  0  0  0
  5 15  1  0  0  0  0
  6 18  1  0  0  0  0
  6 13  1  0  0  0  0
  6  7  1  0  0  0  0
  7  8  1  0  0  0  0
  8 19  1  0  0  0  0
  8  9  1  0  0  0  0
  8 11  1  0  0  0  0
  9 10  1  0  0  0  0
  9 26  1  0  0  0  0
  9 27  1  0  0  0  0
 10 28  1  0  0  0  0
 11 20  1  0  0  0  0
 11 12  1  0  0  0  0
 11 13  1  0  0  0  0
 12 29  1  0  0  0  0
 13 21  1  0  0  0  0
 13 14  1  0  0  0  0
 14 30  1  0  0  0  0
 15 16  2  0  0  0  0
 15 17  1  0  0  0  0
M  END
> <s_m_source_file>
AV-unprocessed.smi

> <i_m_source_file_index>
53

> <i_lp_mmshare_version>
43012

> <i_f3d_flags>
0

> <s_epik_input>
W05IMl1jMVtjSF1bY0hdbihjKD1PKW4xKVtDQEBIXTJPW0NASF0oW0NIMl1bT0hdKVtDQEBIXShbT0hdKVtDQEBIXTJbT0hd

> <s_epik_cmdline>
J2VwaWtfcHl0aG9uJywgJy1waCcsICc3LjAnLCAnLXRuJywgJzgnLCAnLW1hJywgJzIwMCcsICctbWV0YWxfYmluZGluZycsICctaW1hZScsICc8aW5maWxlLm1hZT4nLCAnLW9tYWUnLCAnPG91dGZpbGUubWFlPic=

> <r_lp_tautomer_probability>
0.99996

> <r_epik_Ionization_Penalty>
0.00069087

> <r_epik_Ionization_Penalty_Charging>
2.61959e-08

> <r_epik_Ionization_Penalty_Neutral>
0.000690844

> <r_epik_State_Penalty>
1.15523e-05

> <r_epik_Charging_Adjusted_Penalty>
1.15785e-05

> <i_epik_Tot_Q>
0

> <i_epik_Tot_abs_Q>
0

> <r_epik_Metal_State_Penalty>
-0

> <b_epik_Metal_Only>
0

> <s_epik_Chemistry_Notes>
This compound contains an acetal/aminal-like group ( X-CH(R)-Y where X, Y are N, S, or O) that may be acid/base labile, releasing an aldehyde.

> <s_lp_Force_Field>
OPLS_2005

> <r_lp_Energy>
32.5025

> <b_lp_Chiralities_Consistent>
1

> <s_lp_Variant>
AV-unprocessed.smi:53-9

> <Gold.Version>
5.8.1

> <Gold.Id.Protein>
6NUR|6NUR_protein|mol2

> <Gold.PLP.Fitness>
40.0684

> <Gold.PLP.PLP>
-26.1467

> <Gold.PLP.part.hbond>
-6.3927

> <Gold.PLP.part.metal>
0.0000

> <Gold.PLP.part.buried>
-2.2213

> <Gold.PLP.part.nonpolar>
-17.9658

> <Gold.PLP.part.repulsive>
0.1302

> <Gold.PLP.ligand.clash>
0.0000

> <Gold.PLP.ligand.torsion>
0.4413

> <Gold.PLP.Chemscore.Hbond>
4.9289

> <Gold.PLP.Chemscore.CHOScore>
0.0000

> <Gold.PLP.Chemscore.Metal>
0.0000

> <Gold.Chemscore.Hbonds>
donor molecule, donor type, donor heavy atom, donor atom, acceptor molecule, acceptor atom, score
      L1  H    10    28       P1  7957  1.00
      L1  H    12    29       P1  7948  1.00
      L1  H    14    30       P1  7949  0.10
      P1  H  7989  7998       L1     7  1.00
      P1  H 10752 10763       L1    14  0.82
      P1  H 10752 10764       L1    16  0.77

> <Gold.PLP.Chemscore.Internal.Correction>
0.0175

> <Gold.Rescore>
     Score         DG    S(hbond)    S(metal)    S(lipo)     H(rot)  DE(clash)    DE(int)     intcor
     13.07     -14.77       4.37        0.00      35.90       3.71       0.08       1.63       ----

> <Gold.Chemscore.Fitness>
13.0694

> <Gold.Chemscore.DG>
-14.7745

> <Gold.Chemscore.ZeroCoef>
-5.4800

> <Gold.Chemscore.Hbond>
4.3683

> <Gold.Chemscore.Metal>
0.0000

> <Gold.Chemscore.Lipo>
35.9049

> <Gold.Chemscore.Internal_Hbond>
0.0000

> <Gold.Chemscore.DEClash>
0.0793

> <Gold.Chemscore.DEInternal>
1.6257

> <Gold.Chemscore.Rot>
3.7095

> <Gold.Chemscore.Internal.Correction>
   9.000000E+99

> <Gold.Chemscore.Hbonds>
donor molecule, donor type, donor heavy atom, donor atom, acceptor molecule, acceptor atom, score
      L1  H    10    28       P1  7957  1.00
      L1  H    12    29       P1  7948  0.99
      L1  H    14    30       P1  7949  0.01
      P1  H  7989  7998       L1     7  0.35
      P1  H 10752 10763       L1    14  0.79
      P1  H 10752 10764       L1    16  0.72

> <Gold.Chemscore.Hbond.Weighted>
-14.5900

> <Gold.Chemscore.Metal.Weighted>
-0.0000

> <Gold.Chemscore.Lipo.Weighted>
-4.2009

> <Gold.Chemscore.Internal_Hbond.Weighted>
0.0000

> <Gold.Chemscore.DEClash.Weighted>
0.0793

> <Gold.Chemscore.DEInternal.Weighted>
1.6257

> <Gold.Chemscore.Rot.Weighted>
9.4964

> <Gold.Chemscore.Internal.Correction.Weighted>
   9.000000E+99

> <Gold.Protein.RotatedTorsions>
[ 6907 6896 6895 6894 ] final  -96.88 input  -60.11 | X-H torsion
[ 7974 7965 7964 7962 ] final  111.40 input  175.53 | X-H torsion
[ 8008 7997 7996 7995 ] final   20.63 input   59.86 | X-H torsion
[ 10167 10162 10161 10158 ] final    5.14 input  -65.29 | X-H torsion
[ 10718 10713 10712 10709 ] final   70.61 input   66.30 | X-H torsion
[ 10763 10752 10751 10750 ] final   14.98 input  -60.55 | X-H torsion
[ 11005 11000 10999 10996 ] final   42.25 input  -57.11 | X-H torsion

> <Gold.Protein.ActiveResidues>
 VAL166  LYS551  ARG553  GLY616  TRP617  ASP618  TYR619  PRO620  LYS621  CYS622 
 ASP623  PHE694  ASN695  SER759  ASP760  ASP761  ALA762  ILE779  LEU786  VAL792 
 PHE793  MET794  SER795  GLU796  ALA797  LYS798  CYS799  TRP800  GLU811  SER814 

> <Gold.Protein.RotatedAtoms>
  150.7001  134.1434  159.4113 H   0  0  0  0  0  0  0  0  0  0  0  0  # atno 6907 bound_to 6896
  151.9418  135.0207  160.0545 H   0  0  0  0  0  0  0  0  0  0  0  0  # atno 6908 bound_to 6896
  152.2087  133.4859  159.5135 H   0  0  0  0  0  0  0  0  0  0  0  0  # atno 6909 bound_to 6896
  145.2427  139.2772  143.4109 H   0  0  0  0  0  0  0  0  0  0  0  0  # atno 7974 bound_to 7965
  154.9386  140.3050  155.5132 H   0  0  0  0  0  0  0  0  0  0  0  0  # atno 8008 bound_to 7997
  156.2998  140.2340  156.4390 H   0  0  0  0  0  0  0  0  0  0  0  0  # atno 8009 bound_to 7997
  154.8168  140.0425  157.1371 H   0  0  0  0  0  0  0  0  0  0  0  0  # atno 8010 bound_to 7997
  140.6498  143.7573  150.7556 H   0  0  0  0  0  0  0  0  0  0  0  0  # atno 10167 bound_to 10162
  157.6409  130.9486  150.0675 H   0  0  0  0  0  0  0  0  0  0  0  0  # atno 10718 bound_to 10713
  153.1569  135.6789  153.8798 H   0  0  0  0  0  0  0  0  0  0  0  0  # atno 10763 bound_to 10752
  153.8207  135.3130  155.3411 H   0  0  0  0  0  0  0  0  0  0  0  0  # atno 10764 bound_to 10752
  154.7904  135.4838  154.0128 H   0  0  0  0  0  0  0  0  0  0  0  0  # atno 10765 bound_to 10752
  140.1757  134.4167  155.8230 H   0  0  0  0  0  0  0  0  0  0  0  0  # atno 11005 bound_to 11000
  146.3324  140.2795  142.8609 LP  0  0  0  0  0  0  0  0  0  0  0  0  # atno 17320 bound_to 7965
  144.9574  140.8240  143.5534 LP  0  0  0  0  0  0  0  0  0  0  0  0  # atno 17321 bound_to 7965
  140.1222  143.4602  152.2306 LP  0  0  0  0  0  0  0  0  0  0  0  0  # atno 17342 bound_to 10162
  139.5712  144.7463  151.3887 LP  0  0  0  0  0  0  0  0  0  0  0  0  # atno 17343 bound_to 10162
  156.1689  130.3646  149.9193 LP  0  0  0  0  0  0  0  0  0  0  0  0  # atno 17370 bound_to 10713
  156.7173  130.8993  151.3615 LP  0  0  0  0  0  0  0  0  0  0  0  0  # atno 17371 bound_to 10713
  141.2220  133.6976  156.7842 LP  0  0  0  0  0  0  0  0  0  0  0  0  # atno 17394 bound_to 11000
  140.2326  134.8674  157.3492 LP  0  0  0  0  0  0  0  0  0  0  0  0  # atno 17395 bound_to 11000

$$$$
