AV-unprocessed.smi:2607|AV-procd|sdf|10203|dock8
  -GOLD-   2272014213D 1   1.00000     0.00000
 Structure written by MMmdl.
 21 22  0  0  0  0  0  0  0  0  2 V2000
  150.9390  140.1227  157.0592 C   0  0  0  0  0  0  0  0  0  0  0  0
  152.0226  139.5084  157.9692 C   0  0  2  0  0  0  0  0  0  0  0  0
  152.5317  140.5444  158.9917 C   0  0  0  0  0  0  0  0  0  0  0  0
  153.5400  140.2507  159.9473 C   0  0  0  0  0  0  0  0  0  0  0  0
  153.9859  141.1714  160.8315 N   0  0  0  0  0  0  0  0  0  0  0  0
  153.4260  142.3980  160.7632 C   0  0  0  0  0  0  0  0  0  0  0  0
  152.4290  142.7047  159.8155 C   0  0  0  0  0  0  0  0  0  0  0  0
  151.9843  141.7857  158.9318 N   0  0  0  0  0  0  0  0  0  0  0  0
  153.0782  138.9479  157.1323 N   0  5  0  0  0  0  0  0  0  0  0  0
  153.1838  137.6210  157.3755 C   0  0  0  0  0  0  0  0  0  0  0  0
  153.9766  136.8251  156.8775 O   0  0  0  0  0  0  0  0  0  0  0  0
  152.2714  137.2340  158.2699 N   0  0  0  0  0  0  0  0  0  0  0  0
  151.5109  138.2489  158.6678 C   0  0  0  0  0  0  0  0  0  0  0  0
  150.5549  138.1919  159.4415 O   0  0  0  0  0  0  0  0  0  0  0  0
  150.0911  140.4907  157.6379 H   0  0  0  0  0  0  0  0  0  0  0  0
  150.5516  139.3965  156.3428 H   0  0  0  0  0  0  0  0  0  0  0  0
  151.3361  140.9648  156.4914 H   0  0  0  0  0  0  0  0  0  0  0  0
  154.0049  139.2787  160.0148 H   0  0  0  0  0  0  0  0  0  0  0  0
  153.7764  143.1393  161.4658 H   0  0  0  0  0  0  0  0  0  0  0  0
  151.9880  143.6891  159.7657 H   0  0  0  0  0  0  0  0  0  0  0  0
  152.1579  136.2823  158.5854 H   0  0  0  0  0  0  0  0  0  0  0  0
  1  2  1  0  0  0  0
  1 15  1  0  0  0  0
  1 16  1  0  0  0  0
  1 17  1  0  0  0  0
  2 13  1  0  0  0  0
  2  3  1  0  0  0  0
  2  9  1  0  0  0  0
  3  8  1  0  0  0  0
  3  4  2  0  0  0  0
  4  5  1  0  0  0  0
  4 18  1  0  0  0  0
  5  6  2  0  0  0  0
  6  7  1  0  0  0  0
  6 19  1  0  0  0  0
  7  8  2  0  0  0  0
  7 20  1  0  0  0  0
  9 10  1  0  0  0  0
 10 11  2  0  0  0  0
 10 12  1  0  0  0  0
 12 13  1  0  0  0  0
 12 21  1  0  0  0  0
 13 14  2  0  0  0  0
M  CHG  1   9  -1
M  END
> <s_m_source_file>
AV-unprocessed.smi

> <i_m_source_file_index>
2607

> <i_lp_mmshare_version>
43012

> <i_f3d_flags>
0

> <s_epik_input>
Tz1DMVtOSF1DKD1PKVtOSF1bQ0BAXTEoW0NIM10pYzJbY0hdbltjSF1bY0hdbjI=

> <s_epik_cmdline>
J2VwaWtfcHl0aG9uJywgJy1waCcsICc3LjAnLCAnLXRuJywgJzgnLCAnLW1hJywgJzIwMCcsICctbWV0YWxfYmluZGluZycsICctaW1hZScsICc8aW5maWxlLm1hZT4nLCAnLW9tYWUnLCAnPG91dGZpbGUubWFlPic=

> <r_lp_tautomer_probability>
1

> <r_epik_Ionization_Penalty>
4.70687

> <r_epik_Ionization_Penalty_Charging>
4.70687

> <r_epik_Ionization_Penalty_Neutral>
2.29475e-06

> <r_epik_State_Penalty>
4.73416

> <r_epik_Charging_Adjusted_Penalty>
9.44103

> <i_epik_Tot_Q>
-1

> <i_epik_Tot_abs_Q>
1

> <r_epik_Metal_State_Penalty>
1.2389

> <b_epik_Metal_Only>
1

> <s_lp_Force_Field>
OPLS_2005

> <r_lp_Energy>
21.97

> <b_lp_Chiralities_Consistent>
1

> <s_lp_Variant>
AV-unprocessed.smi:2607-6

> <Gold.Version>
5.8.1

> <Gold.Id.Protein>
6NUR|6NUR_protein|mol2

> <Gold.PLP.Fitness>
30.3898

> <Gold.PLP.PLP>
-21.9174

> <Gold.PLP.part.hbond>
-2.9784

> <Gold.PLP.part.metal>
0.0000

> <Gold.PLP.part.buried>
-4.2476

> <Gold.PLP.part.nonpolar>
-14.8137

> <Gold.PLP.part.repulsive>
0.0954

> <Gold.PLP.ligand.clash>
0.0000

> <Gold.PLP.ligand.torsion>
0.0280

> <Gold.PLP.Chemscore.Hbond>
2.8247

> <Gold.PLP.Chemscore.CHOScore>
0.0000

> <Gold.PLP.Chemscore.Metal>
0.0000

> <Gold.Chemscore.Hbonds>
donor molecule, donor type, donor heavy atom, donor atom, acceptor molecule, acceptor atom, score
      P1  H  7997  8010       L1     9  2.00
      P1  H 10752 10764       L1    11  0.72

> <Gold.PLP.Chemscore.Internal.Correction>
0.0541

> <Gold.Rescore>
     Score         DG    S(hbond)    S(metal)    S(lipo)     H(rot)  DE(clash)    DE(int)     intcor
     14.31     -14.34       1.76        0.00      47.40       1.00       0.00       0.03       ----

> <Gold.Chemscore.Fitness>
14.3077

> <Gold.Chemscore.DG>
-14.3409

> <Gold.Chemscore.ZeroCoef>
-5.4800

> <Gold.Chemscore.Hbond>
1.7589

> <Gold.Chemscore.Metal>
0.0000

> <Gold.Chemscore.Lipo>
47.4030

> <Gold.Chemscore.Internal_Hbond>
0.0000

> <Gold.Chemscore.DEClash>
0.0000

> <Gold.Chemscore.DEInternal>
0.0331

> <Gold.Chemscore.Rot>
1.0000

> <Gold.Chemscore.Internal.Correction>
   9.000000E+99

> <Gold.Chemscore.Hbonds>
donor molecule, donor type, donor heavy atom, donor atom, acceptor molecule, acceptor atom, score
      P1  H  7997  8010       L1     9  0.95
      P1  H 10752 10764       L1    11  0.70

> <Gold.Chemscore.Hbond.Weighted>
-5.8747

> <Gold.Chemscore.Metal.Weighted>
-0.0000

> <Gold.Chemscore.Lipo.Weighted>
-5.5462

> <Gold.Chemscore.Internal_Hbond.Weighted>
0.0000

> <Gold.Chemscore.DEClash.Weighted>
0.0000

> <Gold.Chemscore.DEInternal.Weighted>
0.0331

> <Gold.Chemscore.Rot.Weighted>
2.5600

> <Gold.Chemscore.Internal.Correction.Weighted>
   9.000000E+99

> <Gold.Protein.RotatedTorsions>
[ 6907 6896 6895 6894 ] final  -58.43 input  -60.11 | X-H torsion
[ 7974 7965 7964 7962 ] final  -51.33 input  175.53 | X-H torsion
[ 8008 7997 7996 7995 ] final   67.55 input   59.86 | X-H torsion
[ 10167 10162 10161 10158 ] final  131.57 input  -65.29 | X-H torsion
[ 10718 10713 10712 10709 ] final  116.45 input   66.30 | X-H torsion
[ 10763 10752 10751 10750 ] final   12.19 input  -60.55 | X-H torsion
[ 11005 11000 10999 10996 ] final   48.52 input  -57.11 | X-H torsion

> <Gold.Protein.ActiveResidues>
 VAL166  LYS551  ARG553  GLY616  TRP617  ASP618  TYR619  PRO620  LYS621  CYS622 
 ASP623  PHE694  ASN695  SER759  ASP760  ASP761  ALA762  ILE779  LEU786  VAL792 
 PHE793  MET794  SER795  GLU796  ALA797  LYS798  CYS799  TRP800  GLU811  SER814 

> <Gold.Protein.RotatedAtoms>
  150.8008  134.7100  159.6598 H   0  0  0  0  0  0  0  0  0  0  0  0  # atno 6907 bound_to 6896
  152.4124  134.6097  160.0032 H   0  0  0  0  0  0  0  0  0  0  0  0  # atno 6908 bound_to 6896
  151.6336  133.3293  159.3150 H   0  0  0  0  0  0  0  0  0  0  0  0  # atno 6909 bound_to 6896
  145.9201  140.7841  142.9651 H   0  0  0  0  0  0  0  0  0  0  0  0  # atno 7974 bound_to 7965
  155.6946  140.3496  155.4908 H   0  0  0  0  0  0  0  0  0  0  0  0  # atno 8008 bound_to 7997
  155.9494  140.1116  157.1012 H   0  0  0  0  0  0  0  0  0  0  0  0  # atno 8009 bound_to 7997
  154.4119  140.1197  156.5018 H   0  0  0  0  0  0  0  0  0  0  0  0  # atno 8010 bound_to 7997
  139.5378  144.6700  151.4726 H   0  0  0  0  0  0  0  0  0  0  0  0  # atno 10167 bound_to 10162
  157.6159  131.1025  150.7475 H   0  0  0  0  0  0  0  0  0  0  0  0  # atno 10718 bound_to 10713
  153.1848  135.6833  153.8429 H   0  0  0  0  0  0  0  0  0  0  0  0  # atno 10763 bound_to 10752
  153.7749  135.3191  155.3358 H   0  0  0  0  0  0  0  0  0  0  0  0  # atno 10764 bound_to 10752
  154.8082  135.4735  154.0543 H   0  0  0  0  0  0  0  0  0  0  0  0  # atno 10765 bound_to 10752
  140.1184  134.4862  155.8618 H   0  0  0  0  0  0  0  0  0  0  0  0  # atno 11005 bound_to 11000
  144.6752  140.1962  143.7391 LP  0  0  0  0  0  0  0  0  0  0  0  0  # atno 17320 bound_to 7965
  145.8561  139.2199  143.1744 LP  0  0  0  0  0  0  0  0  0  0  0  0  # atno 17321 bound_to 7965
  140.6593  143.8531  150.6870 LP  0  0  0  0  0  0  0  0  0  0  0  0  # atno 17342 bound_to 10162
  140.1921  143.4028  152.1855 LP  0  0  0  0  0  0  0  0  0  0  0  0  # atno 17343 bound_to 10162
  156.7842  130.4869  149.5396 LP  0  0  0  0  0  0  0  0  0  0  0  0  # atno 17370 bound_to 10713
  156.1281  130.6158  151.0294 LP  0  0  0  0  0  0  0  0  0  0  0  0  # atno 17371 bound_to 10713
  141.2146  133.6751  156.6840 LP  0  0  0  0  0  0  0  0  0  0  0  0  # atno 17394 bound_to 11000
  140.2998  134.8173  157.4088 LP  0  0  0  0  0  0  0  0  0  0  0  0  # atno 17395 bound_to 11000

$$$$
