AV-unprocessed.smi:332|AV-procd|sdf|2354|dock3
  -GOLD-   2262022263D 1   1.00000     0.00000
 Structure written by MMmdl.
 42 44  0  0  0  0  0  0  0  0  1 V2000
  153.6157  141.3235  160.8543 C   0  0  0  0  0  0  0  0  0  0  0  0
  152.3306  141.5851  160.0539 C   0  0  2  0  0  0  0  0  0  0  0  0
  151.9532  140.3531  159.3626 N   0  0  0  0  0  0  0  0  0  0  0  0
  152.7877  139.5036  158.7428 C   0  0  0  0  0  0  0  0  0  0  0  0
  154.0084  139.6616  158.6987 O   0  0  0  0  0  0  0  0  0  0  0  0
  152.1295  138.2764  158.0963 C   0  0  0  0  0  0  0  0  0  0  0  0
  151.4047  138.5877  156.8530 N   0  0  0  0  0  0  0  0  0  0  0  0
  151.8703  137.9795  155.6700 C   0  0  0  0  0  0  0  0  0  0  0  0
  151.2836  138.1960  154.4821 C   0  0  0  0  0  0  0  0  0  0  0  0
  150.1439  139.0808  154.4347 C   0  0  0  0  0  0  0  0  0  0  0  0
  149.6928  139.6708  155.5596 C   0  0  0  0  0  0  0  0  0  0  0  0
  150.3320  139.4383  156.8602 C   0  0  0  0  0  0  0  0  0  0  0  0
  149.9272  139.9743  157.8923 O   0  0  0  0  0  0  0  0  0  0  0  0
  152.4958  142.7322  159.0271 C   0  0  1  0  0  0  0  0  0  0  0  0
  151.2417  143.0340  158.1732 C   0  0  0  0  0  0  0  0  0  0  0  0
  151.0996  144.5626  158.2913 C   0  0  1  0  0  0  0  0  0  0  0  0
  150.5697  144.9093  159.6946 C   0  0  0  0  0  0  0  0  0  0  0  0
  151.7904  144.6370  160.5920 C   0  0  0  0  0  0  0  0  0  0  0  0
  152.8486  144.1325  159.5889 C   0  0  2  0  0  0  0  0  0  0  0  0
  152.5517  145.0164  158.3813 C   0  0  0  0  0  0  0  0  0  0  0  0
  153.9009  142.1945  161.4443 H   0  0  0  0  0  0  0  0  0  0  0  0
  154.4509  141.0774  160.1978 H   0  0  0  0  0  0  0  0  0  0  0  0
  153.4818  140.4933  161.5487 H   0  0  0  0  0  0  0  0  0  0  0  0
  151.5493  141.8515  160.7660 H   0  0  0  0  0  0  0  0  0  0  0  0
  150.9683  140.1304  159.3508 H   0  0  0  0  0  0  0  0  0  0  0  0
  152.9068  137.5343  157.9096 H   0  0  0  0  0  0  0  0  0  0  0  0
  151.4549  137.8072  158.8151 H   0  0  0  0  0  0  0  0  0  0  0  0
  152.7311  137.3377  155.7898 H   0  0  0  0  0  0  0  0  0  0  0  0
  151.6569  137.7236  153.5852 H   0  0  0  0  0  0  0  0  0  0  0  0
  149.6515  139.2719  153.4926 H   0  0  0  0  0  0  0  0  0  0  0  0
  148.8399  140.3312  155.5046 H   0  0  0  0  0  0  0  0  0  0  0  0
  153.3007  142.4476  158.3462 H   0  0  0  0  0  0  0  0  0  0  0  0
  151.4037  142.7326  157.1376 H   0  0  0  0  0  0  0  0  0  0  0  0
  150.3463  142.5228  158.5285 H   0  0  0  0  0  0  0  0  0  0  0  0
  150.5229  145.0127  157.4828 H   0  0  0  0  0  0  0  0  0  0  0  0
  150.2764  145.9582  159.7537 H   0  0  0  0  0  0  0  0  0  0  0  0
  149.7059  144.3040  159.9727 H   0  0  0  0  0  0  0  0  0  0  0  0
  152.1254  145.5632  161.0609 H   0  0  0  0  0  0  0  0  0  0  0  0
  151.5782  143.9312  161.3939 H   0  0  0  0  0  0  0  0  0  0  0  0
  153.8713  144.2092  159.9589 H   0  0  0  0  0  0  0  0  0  0  0  0
  153.1406  144.7611  157.4982 H   0  0  0  0  0  0  0  0  0  0  0  0
  152.6598  146.0833  158.5861 H   0  0  0  0  0  0  0  0  0  0  0  0
  1  2  1  0  0  0  0
  1 21  1  0  0  0  0
  1 22  1  0  0  0  0
  1 23  1  0  0  0  0
  2  3  1  0  0  0  0
  2 14  1  0  0  0  0
  2 24  1  0  0  0  0
  3  4  1  0  0  0  0
  3 25  1  0  0  0  0
  4  5  2  0  0  0  0
  4  6  1  0  0  0  0
  6  7  1  0  0  0  0
  6 26  1  0  0  0  0
  6 27  1  0  0  0  0
  7 12  1  0  0  0  0
  7  8  1  0  0  0  0
  8  9  2  0  0  0  0
  8 28  1  0  0  0  0
  9 10  1  0  0  0  0
  9 29  1  0  0  0  0
 10 11  2  0  0  0  0
 10 30  1  0  0  0  0
 11 12  1  0  0  0  0
 11 31  1  0  0  0  0
 12 13  2  0  0  0  0
 14 19  1  0  0  0  0
 14 15  1  0  0  0  0
 14 32  1  0  0  0  0
 15 16  1  0  0  0  0
 15 33  1  0  0  0  0
 15 34  1  0  0  0  0
 16 20  1  0  0  0  0
 16 17  1  0  0  0  0
 16 35  1  0  0  0  0
 17 18  1  0  0  0  0
 17 36  1  0  0  0  0
 17 37  1  0  0  0  0
 18 19  1  0  0  0  0
 18 38  1  0  0  0  0
 18 39  1  0  0  0  0
 19 20  1  0  0  0  0
 19 40  1  0  0  0  0
 20 41  1  0  0  0  0
 20 42  1  0  0  0  0
M  END
> <s_m_source_file>
AV-unprocessed.smi

> <i_m_source_file_index>
332

> <i_lp_mmshare_version>
43012

> <i_f3d_flags>
0

> <s_epik_input>
W0NIMl0xW0NIMl1bQ0BIXShbQ0gyXTIpW0NAQEhdKFtDSDJdW0NAQEhdMTIpW0NASF0oW0NIM10pW05IXUMoPU8pW0NIMl1uM1tjSF1bY0hdW2NIXVtjSF1jMz1P

> <s_epik_cmdline>
J2VwaWtfcHl0aG9uJywgJy1waCcsICc3LjAnLCAnLXRuJywgJzgnLCAnLW1hJywgJzIwMCcsICctbWV0YWxfYmluZGluZycsICctaW1hZScsICc8aW5maWxlLm1hZT4nLCAnLW9tYWUnLCAnPG91dGZpbGUubWFlPic=

> <r_lp_tautomer_probability>
1

> <r_epik_Ionization_Penalty>
4.05802e-07

> <r_epik_Ionization_Penalty_Charging>
3.84175e-07

> <r_epik_Ionization_Penalty_Neutral>
2.16269e-08

> <r_epik_State_Penalty>
-0

> <r_epik_Charging_Adjusted_Penalty>
3.84175e-07

> <i_epik_Tot_Q>
0

> <i_epik_Tot_abs_Q>
0

> <r_epik_Metal_State_Penalty>
-0

> <b_epik_Metal_Only>
0

> <s_lp_Force_Field>
OPLS_2005

> <r_lp_Energy>
60.6012

> <b_lp_Chiralities_Consistent>
1

> <s_lp_Variant>
AV-unprocessed.smi:332-3

> <Gold.Version>
5.8.1

> <Gold.Id.Protein>
6NUR|6NUR_protein|mol2

> <Gold.PLP.Fitness>
45.5202

> <Gold.PLP.PLP>
-43.4252

> <Gold.PLP.part.hbond>
-1.0000

> <Gold.PLP.part.metal>
0.0000

> <Gold.PLP.part.buried>
-5.4100

> <Gold.PLP.part.nonpolar>
-37.8505

> <Gold.PLP.part.repulsive>
0.1460

> <Gold.PLP.ligand.clash>
0.0000

> <Gold.PLP.ligand.torsion>
0.4601

> <Gold.PLP.Chemscore.Hbond>
1.0000

> <Gold.PLP.Chemscore.CHOScore>
0.0000

> <Gold.PLP.Chemscore.Metal>
0.0000

> <Gold.Chemscore.Hbonds>
donor molecule, donor type, donor heavy atom, donor atom, acceptor molecule, acceptor atom, score
      P1  H  7997  8009       L1     5  1.00

> <Gold.PLP.Chemscore.Internal.Correction>
0.0152

> <Gold.Rescore>
     Score         DG    S(hbond)    S(metal)    S(lipo)     H(rot)  DE(clash)    DE(int)     intcor
     19.47     -21.14       1.00        0.00     139.13       1.54       0.13       1.55       ----

> <Gold.Chemscore.Fitness>
19.4673

> <Gold.Chemscore.DG>
-21.1442

> <Gold.Chemscore.ZeroCoef>
-5.4800

> <Gold.Chemscore.Hbond>
0.9965

> <Gold.Chemscore.Metal>
0.0000

> <Gold.Chemscore.Lipo>
139.1252

> <Gold.Chemscore.Internal_Hbond>
0.0000

> <Gold.Chemscore.DEClash>
0.1304

> <Gold.Chemscore.DEInternal>
1.5465

> <Gold.Chemscore.Rot>
1.5398

> <Gold.Chemscore.Internal.Correction>
   9.000000E+99

> <Gold.Chemscore.Hbonds>
donor molecule, donor type, donor heavy atom, donor atom, acceptor molecule, acceptor atom, score
      P1  H  7997  8009       L1     5  0.99

> <Gold.Chemscore.Hbond.Weighted>
-3.3284

> <Gold.Chemscore.Metal.Weighted>
-0.0000

> <Gold.Chemscore.Lipo.Weighted>
-16.2777

> <Gold.Chemscore.Internal_Hbond.Weighted>
0.0000

> <Gold.Chemscore.DEClash.Weighted>
0.1304

> <Gold.Chemscore.DEInternal.Weighted>
1.5465

> <Gold.Chemscore.Rot.Weighted>
3.9419

> <Gold.Chemscore.Internal.Correction.Weighted>
   9.000000E+99

> <Gold.Protein.RotatedTorsions>
[ 6907 6896 6895 6894 ] final   41.38 input  -60.11 | X-H torsion
[ 7974 7965 7964 7962 ] final  139.75 input  175.53 | X-H torsion
[ 8008 7997 7996 7995 ] final  132.94 input   59.86 | X-H torsion
[ 10167 10162 10161 10158 ] final -107.59 input  -65.29 | X-H torsion
[ 10718 10713 10712 10709 ] final -169.87 input   66.30 | X-H torsion
[ 10763 10752 10751 10750 ] final  -52.69 input  -60.55 | X-H torsion
[ 11005 11000 10999 10996 ] final  152.82 input  -57.11 | X-H torsion

> <Gold.Protein.ActiveResidues>
 VAL166  LYS551  ARG553  GLY616  TRP617  ASP618  TYR619  PRO620  LYS621  CYS622 
 ASP623  PHE694  ASN695  SER759  ASP760  ASP761  ALA762  ILE779  LEU786  VAL792 
 PHE793  MET794  SER795  GLU796  ALA797  LYS798  CYS799  TRP800  GLU811  SER814 

> <Gold.Protein.RotatedAtoms>
  152.1946  134.8642  160.0513 H   0  0  0  0  0  0  0  0  0  0  0  0  # atno 6907 bound_to 6896
  151.9518  133.3663  159.4011 H   0  0  0  0  0  0  0  0  0  0  0  0  # atno 6908 bound_to 6896
  150.6942  134.4256  159.5269 H   0  0  0  0  0  0  0  0  0  0  0  0  # atno 6909 bound_to 6896
  144.9250  139.5119  143.5645 H   0  0  0  0  0  0  0  0  0  0  0  0  # atno 7974 bound_to 7965
  156.2987  140.2534  156.3171 H   0  0  0  0  0  0  0  0  0  0  0  0  # atno 8008 bound_to 7997
  154.9271  140.0399  157.2047 H   0  0  0  0  0  0  0  0  0  0  0  0  # atno 8009 bound_to 7997
  154.8254  140.2867  155.5762 H   0  0  0  0  0  0  0  0  0  0  0  0  # atno 8010 bound_to 7997
  140.1753  143.4009  152.1323 H   0  0  0  0  0  0  0  0  0  0  0  0  # atno 10167 bound_to 10162
  156.7179  130.9259  151.3095 H   0  0  0  0  0  0  0  0  0  0  0  0  # atno 10718 bound_to 10713
  154.1467  135.6496  153.4954 H   0  0  0  0  0  0  0  0  0  0  0  0  # atno 10763 bound_to 10752
  153.0150  135.5328  154.6849 H   0  0  0  0  0  0  0  0  0  0  0  0  # atno 10764 bound_to 10752
  154.6126  135.2955  155.0387 H   0  0  0  0  0  0  0  0  0  0  0  0  # atno 10765 bound_to 10752
  140.1342  134.8782  157.2244 H   0  0  0  0  0  0  0  0  0  0  0  0  # atno 11005 bound_to 11000
  146.3222  139.8157  142.8937 LP  0  0  0  0  0  0  0  0  0  0  0  0  # atno 17320 bound_to 7965
  145.3235  141.0249  143.3487 LP  0  0  0  0  0  0  0  0  0  0  0  0  # atno 17321 bound_to 7965
  139.5320  144.7169  151.5024 LP  0  0  0  0  0  0  0  0  0  0  0  0  # atno 17342 bound_to 10162
  140.6555  143.8608  150.6830 LP  0  0  0  0  0  0  0  0  0  0  0  0  # atno 17343 bound_to 10162
  157.6910  130.9233  150.0513 LP  0  0  0  0  0  0  0  0  0  0  0  0  # atno 17370 bound_to 10713
  156.1615  130.3644  149.9293 LP  0  0  0  0  0  0  0  0  0  0  0  0  # atno 17371 bound_to 10713
  140.2804  134.3357  155.7345 LP  0  0  0  0  0  0  0  0  0  0  0  0  # atno 17394 bound_to 11000
  141.2175  133.7475  156.9355 LP  0  0  0  0  0  0  0  0  0  0  0  0  # atno 17395 bound_to 11000

$$$$
