AV-unprocessed.smi:2655|AV-procd|sdf|10302|dock2
  -GOLD-   2272014313D 1   1.00000     0.00000
 Structure written by MMmdl.
 33 34  0  0  0  0  0  0  0  0  2 V2000
  148.5545  141.0695  154.2521 C   0  0  0  0  0  0  0  0  0  0  0  0
  149.7307  141.0709  155.2052 C   0  0  0  0  0  0  0  0  0  0  0  0
  150.0699  142.2005  155.9045 N   0  0  0  0  0  0  0  0  0  0  0  0
  151.1720  141.9315  156.7037 N   0  5  0  0  0  0  0  0  0  0  0  0
  151.4930  140.6330  156.4754 C   0  0  0  0  0  0  0  0  0  0  0  0
  152.4122  139.9954  156.9862 O   0  0  0  0  0  0  0  0  0  0  0  0
  150.5697  140.0820  155.5077 C   0  0  0  0  0  0  0  0  0  0  0  0
  150.5823  138.6512  155.0031 C   0  0  0  0  0  0  0  0  0  0  0  0
  150.8315  137.6419  156.1353 C   0  0  0  0  0  0  0  0  0  0  0  0
  149.8544  137.7886  157.2075 N   0  0  0  0  0  0  0  0  0  0  0  0
  149.5697  136.8502  158.1216 C   0  0  0  0  0  0  0  0  0  0  0  0
  150.1117  135.7451  158.1507 O   0  0  0  0  0  0  0  0  0  0  0  0
  148.6283  137.2779  158.9797 N   0  0  0  0  0  0  0  0  0  0  0  0
  148.0724  136.5935  160.0915 C   0  0  0  0  0  0  0  0  0  0  0  0
  148.0475  135.1818  160.2878 C   0  0  0  0  0  0  0  0  0  0  0  0
  147.4174  135.0512  161.4928 C   0  0  0  0  0  0  0  0  0  0  0  0
  147.0470  133.8682  162.3201 C   0  0  0  0  0  0  0  0  0  0  0  0
  147.0849  136.2731  161.9889 O   0  0  0  0  0  0  0  0  0  0  0  0
  147.5088  137.2549  161.0857 N   0  0  0  0  0  0  0  0  0  0  0  0
  148.8830  140.7956  153.2493 H   0  0  0  0  0  0  0  0  0  0  0  0
  148.0874  142.0536  154.2041 H   0  0  0  0  0  0  0  0  0  0  0  0
  147.8050  140.3486  154.5788 H   0  0  0  0  0  0  0  0  0  0  0  0
  151.3565  138.5567  154.2411 H   0  0  0  0  0  0  0  0  0  0  0  0
  149.6332  138.4419  154.5078 H   0  0  0  0  0  0  0  0  0  0  0  0
  150.8145  136.6217  155.7479 H   0  0  0  0  0  0  0  0  0  0  0  0
  151.8238  137.7946  156.5605 H   0  0  0  0  0  0  0  0  0  0  0  0
  149.3618  138.6686  157.2550 H   0  0  0  0  0  0  0  0  0  0  0  0
  148.2692  138.2080  158.8225 H   0  0  0  0  0  0  0  0  0  0  0  0
  148.4240  134.3857  159.6636 H   0  0  0  0  0  0  0  0  0  0  0  0
  147.5277  132.9648  161.9444 H   0  0  0  0  0  0  0  0  0  0  0  0
  145.9688  133.7090  162.3055 H   0  0  0  0  0  0  0  0  0  0  0  0
  147.3551  134.0084  163.3564 H   0  0  0  0  0  0  0  0  0  0  0  0
  149.5858  143.0852  155.8508 H   0  0  0  0  0  0  0  0  0  0  0  0
  1 20  1  0  0  0  0
  1 21  1  0  0  0  0
  1 22  1  0  0  0  0
  1  2  1  0  0  0  0
  2  7  2  0  0  0  0
  2  3  1  0  0  0  0
  3  4  1  0  0  0  0
  3 33  1  0  0  0  0
  4  5  1  0  0  0  0
  5  7  1  0  0  0  0
  5  6  2  0  0  0  0
  7  8  1  0  0  0  0
  8  9  1  0  0  0  0
  8 23  1  0  0  0  0
  8 24  1  0  0  0  0
  9 10  1  0  0  0  0
  9 25  1  0  0  0  0
  9 26  1  0  0  0  0
 10 11  1  0  0  0  0
 10 27  1  0  0  0  0
 11 12  2  0  0  0  0
 11 13  1  0  0  0  0
 13 14  1  0  0  0  0
 13 28  1  0  0  0  0
 14 19  2  0  0  0  0
 14 15  1  0  0  0  0
 15 16  2  0  0  0  0
 15 29  1  0  0  0  0
 16 17  1  0  0  0  0
 16 18  1  0  0  0  0
 17 30  1  0  0  0  0
 17 31  1  0  0  0  0
 17 32  1  0  0  0  0
 18 19  1  0  0  0  0
M  CHG  1   4  -1
M  END
> <s_m_source_file>
AV-unprocessed.smi

> <i_m_source_file_index>
2655

> <i_lp_mmshare_version>
43012

> <i_f3d_flags>
0

> <s_epik_input>
W0NIM11DMT1OW05IXUMoPU8pW0NASF0xW0NIMl1bQ0gyXVtOSF1DKD1PKVtOSF1jMltjSF1jKFtDSDNdKW9uMg==

> <s_epik_cmdline>
J2VwaWtfcHl0aG9uJywgJy1waCcsICc3LjAnLCAnLXRuJywgJzgnLCAnLW1hJywgJzIwMCcsICctbWV0YWxfYmluZGluZycsICctaW1hZScsICc8aW5maWxlLm1hZT4nLCAnLW9tYWUnLCAnPG91dGZpbGUubWFlPic=

> <r_lp_tautomer_probability>
0.00220696

> <r_epik_Ionization_Penalty>
4.81787

> <r_epik_Ionization_Penalty_Charging>
2.1236

> <r_epik_Ionization_Penalty_Neutral>
2.69427

> <r_epik_State_Penalty>
2.7337

> <r_epik_Charging_Adjusted_Penalty>
4.8573

> <i_epik_Tot_Q>
-1

> <i_epik_Tot_abs_Q>
1

> <r_epik_Metal_State_Penalty>
2.0342

> <b_epik_Metal_Only>
1

> <s_lp_Force_Field>
OPLS_2005

> <r_lp_Energy>
14.0901

> <b_lp_Chiralities_Consistent>
1

> <s_lp_Variant>
AV-unprocessed.smi:2655-5

> <Gold.Version>
5.8.1

> <Gold.Id.Protein>
6NUR|6NUR_protein|mol2

> <Gold.PLP.Fitness>
43.9528

> <Gold.PLP.PLP>
-30.7065

> <Gold.PLP.part.hbond>
-5.0000

> <Gold.PLP.part.metal>
0.0000

> <Gold.PLP.part.buried>
-4.6180

> <Gold.PLP.part.nonpolar>
-21.5133

> <Gold.PLP.part.repulsive>
0.3690

> <Gold.PLP.ligand.clash>
0.0000

> <Gold.PLP.ligand.torsion>
0.4821

> <Gold.PLP.Chemscore.Hbond>
4.7360

> <Gold.PLP.Chemscore.CHOScore>
0.0000

> <Gold.PLP.Chemscore.Metal>
0.0000

> <Gold.Chemscore.Hbonds>
donor molecule, donor type, donor heavy atom, donor atom, acceptor molecule, acceptor atom, score
      L1  H     3    33       P1  8028  1.00
      P1  H  6896  6907       L1    12  0.88
      P1  H  6931  6943       L1    19  0.85
      P1  H  6934  6947       L1    19  0.96
      P1  H  7997  8008       L1     6  1.00

> <Gold.PLP.Chemscore.Internal.Correction>
0.0025

> <Gold.Rescore>
     Score         DG    S(hbond)    S(metal)    S(lipo)     H(rot)  DE(clash)    DE(int)     intcor
     18.50     -20.66       4.11        0.00      52.83       1.85       0.14       2.02       ----

> <Gold.Chemscore.Fitness>
18.5040

> <Gold.Chemscore.DG>
-20.6623

> <Gold.Chemscore.ZeroCoef>
-5.4800

> <Gold.Chemscore.Hbond>
4.1133

> <Gold.Chemscore.Metal>
0.0000

> <Gold.Chemscore.Lipo>
52.8269

> <Gold.Chemscore.Internal_Hbond>
0.0000

> <Gold.Chemscore.DEClash>
0.1432

> <Gold.Chemscore.DEInternal>
2.0151

> <Gold.Chemscore.Rot>
1.8504

> <Gold.Chemscore.Internal.Correction>
   9.000000E+99

> <Gold.Chemscore.Hbonds>
donor molecule, donor type, donor heavy atom, donor atom, acceptor molecule, acceptor atom, score
      L1  H     3    33       P1  8028  1.00
      P1  H  6896  6907       L1    12  0.86
      P1  H  6931  6943       L1    19  0.25
      P1  H  6934  6947       L1    19  0.90
      P1  H  7997  8008       L1     6  0.95

> <Gold.Chemscore.Hbond.Weighted>
-13.7385

> <Gold.Chemscore.Metal.Weighted>
-0.0000

> <Gold.Chemscore.Lipo.Weighted>
-6.1807

> <Gold.Chemscore.Internal_Hbond.Weighted>
0.0000

> <Gold.Chemscore.DEClash.Weighted>
0.1432

> <Gold.Chemscore.DEInternal.Weighted>
2.0151

> <Gold.Chemscore.Rot.Weighted>
4.7369

> <Gold.Chemscore.Internal.Correction.Weighted>
   9.000000E+99

> <Gold.Protein.RotatedTorsions>
[ 6907 6896 6895 6894 ] final  -57.73 input  -60.11 | X-H torsion
[ 7974 7965 7964 7962 ] final    1.36 input  175.53 | X-H torsion
[ 8008 7997 7996 7995 ] final  -50.19 input   59.86 | X-H torsion
[ 10167 10162 10161 10158 ] final  -59.28 input  -65.29 | X-H torsion
[ 10718 10713 10712 10709 ] final   65.35 input   66.30 | X-H torsion
[ 10763 10752 10751 10750 ] final   -9.43 input  -60.55 | X-H torsion
[ 11005 11000 10999 10996 ] final  151.84 input  -57.11 | X-H torsion

> <Gold.Protein.ActiveResidues>
 VAL166  LYS551  ARG553  GLY616  TRP617  ASP618  TYR619  PRO620  LYS621  CYS622 
 ASP623  PHE694  ASN695  SER759  ASP760  ASP761  ALA762  ILE779  LEU786  VAL792 
 PHE793  MET794  SER795  GLU796  ALA797  LYS798  CYS799  TRP800  GLU811  SER814 

> <Gold.Protein.RotatedAtoms>
  150.8063  134.7189  159.6646 H   0  0  0  0  0  0  0  0  0  0  0  0  # atno 6907 bound_to 6896
  152.4182  134.6000  160.0007 H   0  0  0  0  0  0  0  0  0  0  0  0  # atno 6908 bound_to 6896
  151.6223  133.3301  159.3126 H   0  0  0  0  0  0  0  0  0  0  0  0  # atno 6909 bound_to 6896
  146.2440  140.0998  142.8348 H   0  0  0  0  0  0  0  0  0  0  0  0  # atno 7974 bound_to 7965
  154.4057  140.1278  156.4625 H   0  0  0  0  0  0  0  0  0  0  0  0  # atno 8008 bound_to 7997
  155.7258  140.3492  155.5017 H   0  0  0  0  0  0  0  0  0  0  0  0  # atno 8009 bound_to 7997
  155.9172  140.1046  157.1224 H   0  0  0  0  0  0  0  0  0  0  0  0  # atno 8010 bound_to 7997
  140.6145  143.2398  151.5631 H   0  0  0  0  0  0  0  0  0  0  0  0  # atno 10167 bound_to 10162
  157.6099  130.9209  149.9964 H   0  0  0  0  0  0  0  0  0  0  0  0  # atno 10718 bound_to 10713
  153.4547  135.7015  153.6087 H   0  0  0  0  0  0  0  0  0  0  0  0  # atno 10763 bound_to 10752
  153.4407  135.3781  155.2226 H   0  0  0  0  0  0  0  0  0  0  0  0  # atno 10764 bound_to 10752
  154.8728  135.3973  154.3964 H   0  0  0  0  0  0  0  0  0  0  0  0  # atno 10765 bound_to 10752
  140.1254  134.8836  157.2131 H   0  0  0  0  0  0  0  0  0  0  0  0  # atno 11005 bound_to 11000
  145.0578  140.9065  143.4957 LP  0  0  0  0  0  0  0  0  0  0  0  0  # atno 17320 bound_to 7965
  145.1108  139.2758  143.5638 LP  0  0  0  0  0  0  0  0  0  0  0  0  # atno 17321 bound_to 7965
  139.5387  144.2707  152.1306 LP  0  0  0  0  0  0  0  0  0  0  0  0  # atno 17342 bound_to 10162
  140.1914  144.4748  150.6477 LP  0  0  0  0  0  0  0  0  0  0  0  0  # atno 17343 bound_to 10162
  156.1198  130.3646  149.9906 LP  0  0  0  0  0  0  0  0  0  0  0  0  # atno 17370 bound_to 10713
  156.7988  130.9283  151.3646 LP  0  0  0  0  0  0  0  0  0  0  0  0  # atno 17371 bound_to 10713
  140.2910  134.3240  155.7315 LP  0  0  0  0  0  0  0  0  0  0  0  0  # atno 17394 bound_to 11000
  141.2160  133.7535  156.9503 LP  0  0  0  0  0  0  0  0  0  0  0  0  # atno 17395 bound_to 11000

$$$$
