AV-unprocessed.smi:2764|AV-procd|sdf|10641|dock2
  -GOLD-   2272015 93D 1   1.00000     0.00000
 Structure written by MMmdl.
 47 49  0  0  0  0  0  0  0  0  2 V2000
  146.7380  129.3843  152.5048 O   0  0  0  0  0  0  0  0  0  0  0  0
  147.2694  129.7181  151.4454 C   0  0  0  0  0  0  0  0  0  0  0  0
  148.1779  128.9942  150.7677 N   0  0  0  0  0  0  0  0  0  0  0  0
  148.7375  127.7372  151.1210 C   0  0  0  0  0  0  0  0  0  0  0  0
  149.0217  126.8809  150.0328 C   0  0  0  0  0  0  0  0  0  0  0  0
  149.5837  125.6127  150.2771 C   0  0  0  0  0  0  0  0  0  0  0  0
  149.8448  125.2339  151.6059 C   0  0  0  0  0  0  0  0  0  0  0  0
  150.3839  124.0247  151.8899 F   0  0  0  0  0  0  0  0  0  0  0  0
  149.5313  126.1440  152.6323 C   0  0  0  0  0  0  0  0  0  0  0  0
  148.9938  127.3603  152.3992 N   0  0  0  0  0  0  0  0  0  0  0  0
  147.0022  130.8749  150.8207 N   0  0  0  0  0  0  0  0  0  0  0  0
  146.0847  131.8981  151.3140 C   0  0  2  0  0  0  0  0  0  0  0  0
  144.7978  131.9433  150.4708 C   0  0  0  0  0  0  0  0  0  0  0  0
  143.8692  133.0768  150.9387 C   0  0  0  0  0  0  0  0  0  0  0  0
  144.5621  134.3917  150.9079 N   0  3  1  0  0  0  0  0  0  0  0  0
  143.6561  135.5254  151.2298 C   0  0  0  0  0  0  0  0  0  0  0  0
  143.4169  135.6687  152.7453 C   0  0  1  0  0  0  0  0  0  0  0  0
  142.6960  136.9485  153.1202 C   0  0  0  0  0  0  0  0  0  0  0  0
  142.1949  136.6354  154.5264 C   0  0  0  0  0  0  0  0  0  0  0  0
  141.9589  135.2312  154.5481 O   0  0  0  0  0  0  0  0  0  0  0  0
  142.4829  134.6296  153.3687 C   0  0  0  0  0  0  0  0  0  0  0  0
  145.7941  134.3770  151.7405 C   0  0  0  0  0  0  0  0  0  0  0  0
  146.7639  133.2757  151.2813 C   0  0  0  0  0  0  0  0  0  0  0  0
  148.5225  129.3954  149.9081 H   0  0  0  0  0  0  0  0  0  0  0  0
  148.8148  127.1887  149.0180 H   0  0  0  0  0  0  0  0  0  0  0  0
  149.8098  124.9441  149.4596 H   0  0  0  0  0  0  0  0  0  0  0  0
  149.7162  125.8908  153.6658 H   0  0  0  0  0  0  0  0  0  0  0  0
  147.4808  131.0688  149.9531 H   0  0  0  0  0  0  0  0  0  0  0  0
  145.8241  131.6713  152.3497 H   0  0  0  0  0  0  0  0  0  0  0  0
  145.0473  132.0886  149.4186 H   0  0  0  0  0  0  0  0  0  0  0  0
  144.2702  130.9908  150.5339 H   0  0  0  0  0  0  0  0  0  0  0  0
  142.9933  133.1072  150.2893 H   0  0  0  0  0  0  0  0  0  0  0  0
  143.5100  132.8767  151.9496 H   0  0  0  0  0  0  0  0  0  0  0  0
  144.1079  136.4564  150.8838 H   0  0  0  0  0  0  0  0  0  0  0  0
  142.7147  135.4377  150.6854 H   0  0  0  0  0  0  0  0  0  0  0  0
  144.3735  135.6502  153.2706 H   0  0  0  0  0  0  0  0  0  0  0  0
  143.3377  137.8294  153.0870 H   0  0  0  0  0  0  0  0  0  0  0  0
  141.8491  137.1188  152.4538 H   0  0  0  0  0  0  0  0  0  0  0  0
  142.9619  136.8695  155.2655 H   0  0  0  0  0  0  0  0  0  0  0  0
  141.2951  137.1955  154.7818 H   0  0  0  0  0  0  0  0  0  0  0  0
  141.6497  134.4068  152.7006 H   0  0  0  0  0  0  0  0  0  0  0  0
  142.9929  133.6944  153.6008 H   0  0  0  0  0  0  0  0  0  0  0  0
  146.2987  135.3405  151.6868 H   0  0  0  0  0  0  0  0  0  0  0  0
  145.5248  134.2228  152.7867 H   0  0  0  0  0  0  0  0  0  0  0  0
  147.6467  133.2728  151.9217 H   0  0  0  0  0  0  0  0  0  0  0  0
  147.1141  133.4972  150.2718 H   0  0  0  0  0  0  0  0  0  0  0  0
  144.8544  134.5263  149.9504 H   0  0  0  0  0  0  0  0  0  0  0  0
  1  2  2  0  0  0  0
  2  3  1  0  0  0  0
  2 11  1  0  0  0  0
  3  4  1  0  0  0  0
  3 24  1  0  0  0  0
  4 10  1  0  0  0  0
  4  5  2  0  0  0  0
  5  6  1  0  0  0  0
  5 25  1  0  0  0  0
  6  7  2  0  0  0  0
  6 26  1  0  0  0  0
  7  8  1  0  0  0  0
  7  9  1  0  0  0  0
  9 10  2  0  0  0  0
  9 27  1  0  0  0  0
 11 12  1  0  0  0  0
 11 28  1  0  0  0  0
 12 23  1  0  0  0  0
 12 13  1  0  0  0  0
 12 29  1  0  0  0  0
 13 14  1  0  0  0  0
 13 30  1  0  0  0  0
 13 31  1  0  0  0  0
 14 15  1  0  0  0  0
 14 32  1  0  0  0  0
 14 33  1  0  0  0  0
 15 16  1  0  0  0  0
 15 22  1  0  0  0  0
 15 47  1  0  0  0  0
 16 17  1  0  0  0  0
 16 34  1  0  0  0  0
 16 35  1  0  0  0  0
 17 21  1  0  0  0  0
 17 18  1  0  0  0  0
 17 36  1  0  0  0  0
 18 19  1  0  0  0  0
 18 37  1  0  0  0  0
 18 38  1  0  0  0  0
 19 20  1  0  0  0  0
 19 39  1  0  0  0  0
 19 40  1  0  0  0  0
 20 21  1  0  0  0  0
 21 41  1  0  0  0  0
 21 42  1  0  0  0  0
 22 23  1  0  0  0  0
 22 43  1  0  0  0  0
 22 44  1  0  0  0  0
 23 45  1  0  0  0  0
 23 46  1  0  0  0  0
M  CHG  1  15   1
M  END
> <s_m_source_file>
AV-unprocessed.smi

> <i_m_source_file_index>
2764

> <i_lp_mmshare_version>
43012

> <i_f3d_flags>
0

> <s_epik_input>
bjFbY0hdYyhGKVtjSF1bY0hdYzFbTkhdQyg9TylbTkhdW0NIXTJbQ0gyXVtDSDJdTihbQ0gyXVtDSDJdMilbQ0gyXVtDQEBIXTNbQ0gyXVtDSDJdT1tDSDJdMw==

> <s_epik_cmdline>
J2VwaWtfcHl0aG9uJywgJy1waCcsICc3LjAnLCAnLXRuJywgJzgnLCAnLW1hJywgJzIwMCcsICctbWV0YWxfYmluZGluZycsICctaW1hZScsICc8aW5maWxlLm1hZT4nLCAnLW9tYWUnLCAnPG91dGZpbGUubWFlPic=

> <r_epik_Ionization_Penalty>
0.0075076

> <r_epik_Ionization_Penalty_Charging>
0.00747775

> <r_epik_Ionization_Penalty_Neutral>
2.98483e-05

> <r_epik_State_Penalty>
0.00558817

> <r_epik_Charging_Adjusted_Penalty>
0.0130659

> <i_epik_Tot_Q>
1

> <i_epik_Tot_abs_Q>
1

> <r_epik_Metal_State_Penalty>
-0

> <b_epik_Metal_Only>
0

> <s_lp_Force_Field>
OPLS_2005

> <r_lp_Energy>
37.3143

> <b_lp_Chiralities_Consistent>
1

> <s_lp_Variant>
AV-unprocessed.smi:2764-2

> <Gold.Version>
5.8.1

> <Gold.Id.Protein>
6NUR|6NUR_protein|mol2

> <Gold.PLP.Fitness>
50.3057

> <Gold.PLP.PLP>
-43.8998

> <Gold.PLP.part.hbond>
-3.0255

> <Gold.PLP.part.metal>
0.0000

> <Gold.PLP.part.buried>
-8.6158

> <Gold.PLP.part.nonpolar>
-33.1133

> <Gold.PLP.part.repulsive>
0.5007

> <Gold.PLP.ligand.clash>
0.0000

> <Gold.PLP.ligand.torsion>
0.5532

> <Gold.PLP.Chemscore.Hbond>
2.4896

> <Gold.PLP.Chemscore.CHOScore>
0.0000

> <Gold.PLP.Chemscore.Metal>
0.0000

> <Gold.Chemscore.Hbonds>
donor molecule, donor type, donor heavy atom, donor atom, acceptor molecule, acceptor atom, score
      L1  H     3    24       P1 10747  0.03
      L1  H    11    28       P1 10747  0.13
      P1  H 11000 11005       L1    20  0.32

> <Gold.PLP.Chemscore.Internal.Correction>
0.0436

> <Gold.Rescore>
     Score         DG    S(hbond)    S(metal)    S(lipo)     H(rot)  DE(clash)    DE(int)     intcor
     15.81     -17.58       1.79        0.00      85.00       1.49       0.09       1.68       ----

> <Gold.Chemscore.Fitness>
15.8088

> <Gold.Chemscore.DG>
-17.5842

> <Gold.Chemscore.ZeroCoef>
-5.4800

> <Gold.Chemscore.Hbond>
1.7879

> <Gold.Chemscore.Metal>
0.0000

> <Gold.Chemscore.Lipo>
84.9979

> <Gold.Chemscore.Internal_Hbond>
0.0000

> <Gold.Chemscore.DEClash>
0.0947

> <Gold.Chemscore.DEInternal>
1.6808

> <Gold.Chemscore.Rot>
1.4891

> <Gold.Chemscore.Internal.Correction>
   9.000000E+99

> <Gold.Chemscore.Hbonds>
donor molecule, donor type, donor heavy atom, donor atom, acceptor molecule, acceptor atom, score
      L1  H    11    28       P1 10747  0.12
      P1  H 11000 11005       L1    20  0.32

> <Gold.Chemscore.Hbond.Weighted>
-5.9716

> <Gold.Chemscore.Metal.Weighted>
-0.0000

> <Gold.Chemscore.Lipo.Weighted>
-9.9448

> <Gold.Chemscore.Internal_Hbond.Weighted>
0.0000

> <Gold.Chemscore.DEClash.Weighted>
0.0947

> <Gold.Chemscore.DEInternal.Weighted>
1.6808

> <Gold.Chemscore.Rot.Weighted>
3.8121

> <Gold.Chemscore.Internal.Correction.Weighted>
   9.000000E+99

> <Gold.Protein.RotatedTorsions>
[ 6907 6896 6895 6894 ] final  119.31 input  -60.11 | X-H torsion
[ 7974 7965 7964 7962 ] final -148.98 input  175.53 | X-H torsion
[ 8008 7997 7996 7995 ] final  170.76 input   59.86 | X-H torsion
[ 10167 10162 10161 10158 ] final  -94.94 input  -65.29 | X-H torsion
[ 10718 10713 10712 10709 ] final  154.96 input   66.30 | X-H torsion
[ 10763 10752 10751 10750 ] final -158.76 input  -60.55 | X-H torsion
[ 11005 11000 10999 10996 ] final   27.53 input  -57.11 | X-H torsion

> <Gold.Protein.ActiveResidues>
 VAL166  LYS551  ARG553  GLY616  TRP617  ASP618  TYR619  PRO620  LYS621  CYS622 
 ASP623  PHE694  ASN695  SER759  ASP760  ASP761  ALA762  ILE779  LEU786  VAL792 
 PHE793  MET794  SER795  GLU796  ALA797  LYS798  CYS799  TRP800  GLU811  SER814 

> <Gold.Protein.RotatedAtoms>
  152.4481  133.7576  159.6728 H   0  0  0  0  0  0  0  0  0  0  0  0  # atno 6907 bound_to 6896
  150.8386  133.7962  159.3076 H   0  0  0  0  0  0  0  0  0  0  0  0  # atno 6908 bound_to 6896
  151.5594  135.1068  160.0021 H   0  0  0  0  0  0  0  0  0  0  0  0  # atno 6909 bound_to 6896
  144.7995  140.5125  143.5716 H   0  0  0  0  0  0  0  0  0  0  0  0  # atno 7974 bound_to 7965
  156.1335  140.1529  156.9029 H   0  0  0  0  0  0  0  0  0  0  0  0  # atno 8008 bound_to 7997
  154.4928  140.0846  156.7672 H   0  0  0  0  0  0  0  0  0  0  0  0  # atno 8009 bound_to 7997
  155.4212  140.3423  155.4274 H   0  0  0  0  0  0  0  0  0  0  0  0  # atno 8010 bound_to 7997
  140.3092  143.3115  152.0166 H   0  0  0  0  0  0  0  0  0  0  0  0  # atno 10167 bound_to 10162
  157.2247  131.0726  151.1890 H   0  0  0  0  0  0  0  0  0  0  0  0  # atno 10718 bound_to 10713
  154.7531  135.3097  154.8521 H   0  0  0  0  0  0  0  0  0  0  0  0  # atno 10763 bound_to 10752
  153.9303  135.6786  153.4750 H   0  0  0  0  0  0  0  0  0  0  0  0  # atno 10764 bound_to 10752
  153.1127  135.4859  154.8992 H   0  0  0  0  0  0  0  0  0  0  0  0  # atno 10765 bound_to 10752
  140.3253  134.2498  155.7710 H   0  0  0  0  0  0  0  0  0  0  0  0  # atno 11005 bound_to 11000
  145.5587  139.1479  143.3353 LP  0  0  0  0  0  0  0  0  0  0  0  0  # atno 17320 bound_to 7965
  146.2273  140.5724  142.8991 LP  0  0  0  0  0  0  0  0  0  0  0  0  # atno 17321 bound_to 7965
  139.4897  144.6397  151.6902 LP  0  0  0  0  0  0  0  0  0  0  0  0  # atno 17342 bound_to 10162
  140.5583  144.0311  150.6158 LP  0  0  0  0  0  0  0  0  0  0  0  0  # atno 17343 bound_to 10162
  157.3540  130.7096  149.6458 LP  0  0  0  0  0  0  0  0  0  0  0  0  # atno 17370 bound_to 10713
  155.9679  130.4244  150.4608 LP  0  0  0  0  0  0  0  0  0  0  0  0  # atno 17371 bound_to 10713
  141.2076  133.7799  157.0106 LP  0  0  0  0  0  0  0  0  0  0  0  0  # atno 17394 bound_to 11000
  140.0906  134.9594  157.1771 LP  0  0  0  0  0  0  0  0  0  0  0  0  # atno 17395 bound_to 11000

$$$$
