AV-unprocessed.smi:76|AV-procd|sdf|770|dock2
  -GOLD-   2262017113D 1   1.00000     0.00000
 Structure written by MMmdl.
 55 58  0  0  0  0  0  0  0  0  1 V2000
  148.9154  141.2844  157.1210 C   0  0  0  0  0  0  0  0  0  0  0  0
  150.3534  141.6143  156.6740 C   0  0  1  0  0  0  0  0  0  0  0  0
  150.9123  142.8747  157.3678 C   0  0  0  0  0  0  0  0  0  0  0  0
  151.2834  142.6262  158.8462 C   0  0  2  0  0  0  0  0  0  0  0  0
  151.8648  143.8854  159.5204 C   0  0  0  0  0  0  0  0  0  0  0  0
  152.7928  144.4340  158.7361 F   0  0  0  0  0  0  0  0  0  0  0  0
  150.9094  144.7860  159.7526 F   0  0  0  0  0  0  0  0  0  0  0  0
  152.4392  143.5576  160.6778 F   0  0  0  0  0  0  0  0  0  0  0  0
  152.2451  141.4247  158.9310 C   0  0  0  0  0  0  0  0  0  0  0  0
  151.6560  140.1829  158.2447 C   0  0  0  0  0  0  0  0  0  0  0  0
  151.2701  140.4838  156.8641 N   0  0  0  0  0  0  0  0  0  0  0  0
  151.1104  139.4362  156.0132 C   0  0  0  0  0  0  0  0  0  0  0  0
  150.8798  139.6703  154.6933 N   0  0  0  0  0  0  0  0  0  0  0  0
  150.7358  138.6523  153.8406 C   0  0  0  0  0  0  0  0  0  0  0  0
  150.7793  137.3430  154.0904 N   0  0  0  0  0  0  0  0  0  0  0  0
  150.9971  137.0989  155.4142 C   0  0  0  0  0  0  0  0  0  0  0  0
  151.1771  138.0771  156.4334 C   0  0  0  0  0  0  0  0  0  0  0  0
  151.3719  137.4492  157.6580 N   0  0  0  0  0  0  0  0  0  0  0  0
  151.3211  136.1762  157.3771 C   0  0  0  0  0  0  0  0  0  0  0  0
  151.0798  135.8746  156.0556 N   0  0  0  0  0  0  0  0  0  0  0  0
  150.9710  134.5455  155.4703 C   0  0  0  0  0  0  0  0  0  0  0  0
  149.7613  133.6956  155.9744 C   0  0  0  0  0  0  0  0  0  0  0  0
  149.9289  133.4514  157.5002 C   0  0  0  0  0  0  0  0  0  0  0  0
  151.0636  132.6728  157.8253 O   0  0  0  0  0  0  0  0  0  0  0  0
  148.4482  134.4729  155.6975 C   0  0  0  0  0  0  0  0  0  0  0  0
  148.0912  134.5230  154.1993 C   0  0  0  0  0  0  0  0  0  0  0  0
  148.0244  133.2056  153.6664 O   0  0  0  0  0  0  0  0  0  0  0  0
  149.2584  132.5039  153.7574 C   0  0  0  0  0  0  0  0  0  0  0  0
  149.6576  132.3369  155.2344 C   0  0  0  0  0  0  0  0  0  0  0  0
  148.2532  142.1343  156.9548 H   0  0  0  0  0  0  0  0  0  0  0  0
  148.8603  141.0257  158.1782 H   0  0  0  0  0  0  0  0  0  0  0  0
  148.5102  140.4445  156.5558 H   0  0  0  0  0  0  0  0  0  0  0  0
  150.3007  141.8517  155.6126 H   0  0  0  0  0  0  0  0  0  0  0  0
  151.8009  143.2051  156.8283 H   0  0  0  0  0  0  0  0  0  0  0  0
  150.1929  143.6901  157.2885 H   0  0  0  0  0  0  0  0  0  0  0  0
  150.3730  142.3638  159.3861 H   0  0  0  0  0  0  0  0  0  0  0  0
  153.1948  141.6793  158.4588 H   0  0  0  0  0  0  0  0  0  0  0  0
  152.4705  141.1920  159.9719 H   0  0  0  0  0  0  0  0  0  0  0  0
  152.3984  139.3837  158.2601 H   0  0  0  0  0  0  0  0  0  0  0  0
  150.7885  139.8221  158.7983 H   0  0  0  0  0  0  0  0  0  0  0  0
  150.5601  138.9267  152.8109 H   0  0  0  0  0  0  0  0  0  0  0  0
  151.4496  135.4170  158.1348 H   0  0  0  0  0  0  0  0  0  0  0  0
  150.9132  134.6623  154.3873 H   0  0  0  0  0  0  0  0  0  0  0  0
  151.9172  134.0383  155.6523 H   0  0  0  0  0  0  0  0  0  0  0  0
  150.0257  134.3962  158.0348 H   0  0  0  0  0  0  0  0  0  0  0  0
  149.0491  132.9482  157.9028 H   0  0  0  0  0  0  0  0  0  0  0  0
  151.6038  132.5928  157.0540 H   0  0  0  0  0  0  0  0  0  0  0  0
  147.6129  133.9974  156.2119 H   0  0  0  0  0  0  0  0  0  0  0  0
  148.5107  135.4843  156.1005 H   0  0  0  0  0  0  0  0  0  0  0  0
  147.1186  134.9975  154.0682 H   0  0  0  0  0  0  0  0  0  0  0  0
  148.8028  135.1230  153.6321 H   0  0  0  0  0  0  0  0  0  0  0  0
  149.1342  131.5241  153.2961 H   0  0  0  0  0  0  0  0  0  0  0  0
  150.0301  133.0207  153.1866 H   0  0  0  0  0  0  0  0  0  0  0  0
  150.5851  131.7713  155.3156 H   0  0  0  0  0  0  0  0  0  0  0  0
  148.8981  131.7149  155.7084 H   0  0  0  0  0  0  0  0  0  0  0  0
  1  2  1  0  0  0  0
  1 30  1  0  0  0  0
  1 31  1  0  0  0  0
  1 32  1  0  0  0  0
  2 11  1  0  0  0  0
  2  3  1  0  0  0  0
  2 33  1  0  0  0  0
  3  4  1  0  0  0  0
  3 34  1  0  0  0  0
  3 35  1  0  0  0  0
  4  5  1  0  0  0  0
  4  9  1  0  0  0  0
  4 36  1  0  0  0  0
  5  6  1  0  0  0  0
  5  7  1  0  0  0  0
  5  8  1  0  0  0  0
  9 10  1  0  0  0  0
  9 37  1  0  0  0  0
  9 38  1  0  0  0  0
 10 11  1  0  0  0  0
 10 39  1  0  0  0  0
 10 40  1  0  0  0  0
 11 12  1  0  0  0  0
 12 17  1  0  0  0  0
 12 13  2  0  0  0  0
 13 14  1  0  0  0  0
 14 15  2  0  0  0  0
 14 41  1  0  0  0  0
 15 16  1  0  0  0  0
 16 20  1  0  0  0  0
 16 17  2  0  0  0  0
 17 18  1  0  0  0  0
 18 19  2  0  0  0  0
 19 20  1  0  0  0  0
 19 42  1  0  0  0  0
 20 21  1  0  0  0  0
 21 22  1  0  0  0  0
 21 43  1  0  0  0  0
 21 44  1  0  0  0  0
 22 29  1  0  0  0  0
 22 23  1  0  0  0  0
 22 25  1  0  0  0  0
 23 24  1  0  0  0  0
 23 45  1  0  0  0  0
 23 46  1  0  0  0  0
 24 47  1  0  0  0  0
 25 26  1  0  0  0  0
 25 48  1  0  0  0  0
 25 49  1  0  0  0  0
 26 27  1  0  0  0  0
 26 50  1  0  0  0  0
 26 51  1  0  0  0  0
 27 28  1  0  0  0  0
 28 29  1  0  0  0  0
 28 52  1  0  0  0  0
 28 53  1  0  0  0  0
 29 54  1  0  0  0  0
 29 55  1  0  0  0  0
M  END
> <s_m_source_file>
AV-unprocessed.smi

> <i_m_source_file_index>
76

> <i_lp_mmshare_version>
43012

> <i_f3d_flags>
0

> <s_epik_input>
W0NIM11bQ0BASF0xW0NIMl1bQ0BASF0oQyhGKShGKUYpW0NIMl1bQ0gyXU4xYyhuW2NIXW4yKWMoYzIzKW5bY0hdbjNbQ0gyXUM0KFtDSDJdW09IXSlbQ0gyXVtDSDJdT1tDSDJdW0NIMl00

> <s_epik_cmdline>
J2VwaWtfcHl0aG9uJywgJy1waCcsICc3LjAnLCAnLXRuJywgJzgnLCAnLW1hJywgJzIwMCcsICctbWV0YWxfYmluZGluZycsICctaW1hZScsICc8aW5maWxlLm1hZT4nLCAnLW9tYWUnLCAnPG91dGZpbGUubWFlPic=

> <r_lp_tautomer_probability>
1

> <r_epik_Ionization_Penalty>
0.00244097

> <r_epik_Ionization_Penalty_Charging>
0

> <r_epik_Ionization_Penalty_Neutral>
0.00244097

> <r_epik_State_Penalty>
0.00151846

> <r_epik_Charging_Adjusted_Penalty>
0.00151846

> <i_epik_Tot_Q>
0

> <i_epik_Tot_abs_Q>
0

> <r_epik_Metal_State_Penalty>
-0

> <b_epik_Metal_Only>
0

> <s_lp_Force_Field>
OPLS_2005

> <r_lp_Energy>
37.9525

> <b_lp_Chiralities_Consistent>
1

> <s_lp_Variant>
AV-unprocessed.smi:76-4

> <Gold.Version>
5.8.1

> <Gold.Id.Protein>
6NUR|6NUR_protein|mol2

> <Gold.PLP.Fitness>
50.9499

> <Gold.PLP.PLP>
-43.3223

> <Gold.PLP.part.hbond>
-2.0000

> <Gold.PLP.part.metal>
0.0000

> <Gold.PLP.part.buried>
-4.0181

> <Gold.PLP.part.nonpolar>
-39.6971

> <Gold.PLP.part.repulsive>
2.2336

> <Gold.PLP.ligand.clash>
0.0000

> <Gold.PLP.ligand.torsion>
0.7012

> <Gold.PLP.Chemscore.Hbond>
1.9000

> <Gold.PLP.Chemscore.CHOScore>
1.0000

> <Gold.PLP.Chemscore.Metal>
0.0000

> <Gold.Chemscore.Hbonds>
donor molecule, donor type, donor heavy atom, donor atom, acceptor molecule, acceptor atom, score
      P1  H  6896  6907       L1    24  0.95
      P1  H  7989  7998       L1    13  0.85
      L1  C    14    41       P1  7957  1.00

> <Gold.PLP.Chemscore.Internal.Correction>
0.3300

> <Gold.Rescore>
     Score         DG    S(hbond)    S(metal)    S(lipo)     H(rot)  DE(clash)    DE(int)     intcor
      8.83     -12.77       0.77        0.00      87.71       2.16       0.95       2.99       ----

> <Gold.Chemscore.Fitness>
8.8335

> <Gold.Chemscore.DG>
-12.7710

> <Gold.Chemscore.ZeroCoef>
-5.4800

> <Gold.Chemscore.Hbond>
0.7652

> <Gold.Chemscore.Metal>
0.0000

> <Gold.Chemscore.Lipo>
87.7100

> <Gold.Chemscore.Internal_Hbond>
0.0000

> <Gold.Chemscore.DEClash>
0.9502

> <Gold.Chemscore.DEInternal>
2.9873

> <Gold.Chemscore.Rot>
2.1589

> <Gold.Chemscore.Internal.Correction>
   9.000000E+99

> <Gold.Chemscore.Hbonds>
donor molecule, donor type, donor heavy atom, donor atom, acceptor molecule, acceptor atom, score
      P1  H  6896  6907       L1    24  0.21
      P1  H  7989  7998       L1    13  0.15

> <Gold.Chemscore.Hbond.Weighted>
-2.5557

> <Gold.Chemscore.Metal.Weighted>
-0.0000

> <Gold.Chemscore.Lipo.Weighted>
-10.2621

> <Gold.Chemscore.Internal_Hbond.Weighted>
0.0000

> <Gold.Chemscore.DEClash.Weighted>
0.9502

> <Gold.Chemscore.DEInternal.Weighted>
2.9873

> <Gold.Chemscore.Rot.Weighted>
5.5268

> <Gold.Chemscore.Internal.Correction.Weighted>
   9.000000E+99

> <Gold.Protein.RotatedTorsions>
[ 6907 6896 6895 6894 ] final -166.02 input  -60.11 | X-H torsion
[ 7974 7965 7964 7962 ] final  168.83 input  175.53 | X-H torsion
[ 8008 7997 7996 7995 ] final  172.82 input   59.86 | X-H torsion
[ 10167 10162 10161 10158 ] final -159.74 input  -65.29 | X-H torsion
[ 10718 10713 10712 10709 ] final  -82.09 input   66.30 | X-H torsion
[ 10763 10752 10751 10750 ] final  -10.46 input  -60.55 | X-H torsion
[ 11005 11000 10999 10996 ] final   20.81 input  -57.11 | X-H torsion

> <Gold.Protein.ActiveResidues>
 VAL166  LYS551  ARG553  GLY616  TRP617  ASP618  TYR619  PRO620  LYS621  CYS622 
 ASP623  PHE694  ASN695  SER759  ASP760  ASP761  ALA762  ILE779  LEU786  VAL792 
 PHE793  MET794  SER795  GLU796  ALA797  LYS798  CYS799  TRP800  GLU811  SER814 

> <Gold.Protein.RotatedAtoms>
  151.4370  133.3654  159.2776 H   0  0  0  0  0  0  0  0  0  0  0  0  # atno 6907 bound_to 6896
  150.9184  134.8604  159.7483 H   0  0  0  0  0  0  0  0  0  0  0  0  # atno 6908 bound_to 6896
  152.4969  134.4306  159.9563 H   0  0  0  0  0  0  0  0  0  0  0  0  # atno 6909 bound_to 6896
  144.7375  139.8964  143.6406 H   0  0  0  0  0  0  0  0  0  0  0  0  # atno 7974 bound_to 7965
  156.1136  140.1476  156.9304 H   0  0  0  0  0  0  0  0  0  0  0  0  # atno 8008 bound_to 7997
  154.4784  140.0887  156.7362 H   0  0  0  0  0  0  0  0  0  0  0  0  # atno 8009 bound_to 7997
  155.4553  140.3436  155.4308 H   0  0  0  0  0  0  0  0  0  0  0  0  # atno 8010 bound_to 7997
  139.6592  143.9944  152.2214 H   0  0  0  0  0  0  0  0  0  0  0  0  # atno 10167 bound_to 10162
  156.0039  130.4623  150.4052 H   0  0  0  0  0  0  0  0  0  0  0  0  # atno 10718 bound_to 10713
  153.4696  135.7016  153.6001 H   0  0  0  0  0  0  0  0  0  0  0  0  # atno 10763 bound_to 10752
  153.4261  135.3814  155.2142 H   0  0  0  0  0  0  0  0  0  0  0  0  # atno 10764 bound_to 10752
  154.8725  135.3939  154.4132 H   0  0  0  0  0  0  0  0  0  0  0  0  # atno 10765 bound_to 10752
  140.3985  134.1743  155.7663 H   0  0  0  0  0  0  0  0  0  0  0  0  # atno 11005 bound_to 11000
  146.1104  139.4108  143.0291 LP  0  0  0  0  0  0  0  0  0  0  0  0  # atno 17320 bound_to 7965
  145.7451  140.9993  143.1280 LP  0  0  0  0  0  0  0  0  0  0  0  0  # atno 17321 bound_to 7965
  139.9678  144.6514  150.8018 LP  0  0  0  0  0  0  0  0  0  0  0  0  # atno 17342 bound_to 10162
  140.7572  143.3082  151.2909 LP  0  0  0  0  0  0  0  0  0  0  0  0  # atno 17343 bound_to 10162
  157.2118  131.0462  151.2595 LP  0  0  0  0  0  0  0  0  0  0  0  0  # atno 17370 bound_to 10713
  157.3881  130.7267  149.6678 LP  0  0  0  0  0  0  0  0  0  0  0  0  # atno 17371 bound_to 10713
  141.1865  133.8300  157.1065 LP  0  0  0  0  0  0  0  0  0  0  0  0  # atno 17394 bound_to 11000
  140.0354  134.9881  157.0860 LP  0  0  0  0  0  0  0  0  0  0  0  0  # atno 17395 bound_to 11000

$$$$
