AV-unprocessed.smi:3042|AV-procd|sdf|11601|dock9
  -GOLD-   2272016583D 1   1.00000     0.00000
 Structure written by MMmdl.
 32 33  0  0  0  0  0  0  0  0  1 V2000
  148.6393  142.2835  155.9918 N   0  0  0  0  0  0  0  0  0  0  0  0
  149.7107  141.3711  155.5588 C   0  0  0  0  0  0  0  0  0  0  0  0
  150.3238  140.5535  156.7240 C   0  0  2  0  0  0  0  0  0  0  0  0
  151.1670  141.4878  157.5906 C   0  0  0  0  0  0  0  0  0  0  0  0
  151.8460  141.0151  158.7351 C   0  0  0  0  0  0  0  0  0  0  0  0
  152.6150  141.9192  159.4925 C   0  0  0  0  0  0  0  0  0  0  0  0
  152.6754  143.2629  159.0732 C   0  0  0  0  0  0  0  0  0  0  0  0
  152.0320  143.7284  157.9811 N   0  0  0  0  0  0  0  0  0  0  0  0
  151.2976  142.8544  157.2597 C   0  0  0  0  0  0  0  0  0  0  0  0
  151.0956  139.3678  156.2967 N   0  0  0  0  0  0  0  0  0  0  0  0
  150.2460  138.3734  155.6311 C   0  0  0  0  0  0  0  0  0  0  0  0
  151.0341  137.1342  155.1739 C   0  0  0  0  0  0  0  0  0  0  0  0
  152.0891  137.5340  154.3088 O   0  0  0  0  0  0  0  0  0  0  0  0
  152.9770  138.4533  154.9312 C   0  0  0  0  0  0  0  0  0  0  0  0
  152.1989  139.6988  155.3908 C   0  0  0  0  0  0  0  0  0  0  0  0
  148.9897  143.2379  156.0597 H   0  0  0  0  0  0  0  0  0  0  0  0
  147.8812  142.2912  155.3112 H   0  0  0  0  0  0  0  0  0  0  0  0
  149.2921  140.7041  154.8073 H   0  0  0  0  0  0  0  0  0  0  0  0
  150.4939  141.9407  155.0575 H   0  0  0  0  0  0  0  0  0  0  0  0
  149.4928  140.2060  157.3405 H   0  0  0  0  0  0  0  0  0  0  0  0
  151.7789  139.9776  159.0277 H   0  0  0  0  0  0  0  0  0  0  0  0
  153.1471  141.5902  160.3727 H   0  0  0  0  0  0  0  0  0  0  0  0
  153.2570  143.9830  159.6295 H   0  0  0  0  0  0  0  0  0  0  0  0
  150.7982  143.2601  156.3919 H   0  0  0  0  0  0  0  0  0  0  0  0
  149.4503  138.0392  156.2965 H   0  0  0  0  0  0  0  0  0  0  0  0
  149.7574  138.8260  154.7669 H   0  0  0  0  0  0  0  0  0  0  0  0
  151.4387  136.5937  156.0311 H   0  0  0  0  0  0  0  0  0  0  0  0
  150.3795  136.4450  154.6401 H   0  0  0  0  0  0  0  0  0  0  0  0
  153.4738  137.9751  155.7768 H   0  0  0  0  0  0  0  0  0  0  0  0
  153.7544  138.7335  154.2205 H   0  0  0  0  0  0  0  0  0  0  0  0
  151.8154  140.2290  154.5180 H   0  0  0  0  0  0  0  0  0  0  0  0
  152.9105  140.3627  155.8784 H   0  0  0  0  0  0  0  0  0  0  0  0
  1  2  1  0  0  0  0
  1 16  1  0  0  0  0
  1 17  1  0  0  0  0
  2  3  1  0  0  0  0
  2 18  1  0  0  0  0
  2 19  1  0  0  0  0
  3  4  1  0  0  0  0
  3 10  1  0  0  0  0
  3 20  1  0  0  0  0
  4  9  1  0  0  0  0
  4  5  2  0  0  0  0
  5  6  1  0  0  0  0
  5 21  1  0  0  0  0
  6  7  2  0  0  0  0
  6 22  1  0  0  0  0
  7  8  1  0  0  0  0
  7 23  1  0  0  0  0
  8  9  2  0  0  0  0
  9 24  1  0  0  0  0
 10 15  1  0  0  0  0
 10 11  1  0  0  0  0
 11 12  1  0  0  0  0
 11 25  1  0  0  0  0
 11 26  1  0  0  0  0
 12 13  1  0  0  0  0
 12 27  1  0  0  0  0
 12 28  1  0  0  0  0
 13 14  1  0  0  0  0
 14 15  1  0  0  0  0
 14 29  1  0  0  0  0
 14 30  1  0  0  0  0
 15 31  1  0  0  0  0
 15 32  1  0  0  0  0
M  END
> <s_m_source_file>
AV-unprocessed.smi

> <i_m_source_file_index>
3042

> <i_lp_mmshare_version>
43012

> <i_f3d_flags>
0

> <s_epik_input>
W0NIMl0xW0NIMl1PW0NIMl1bQ0gyXU4xW0NASF0oW0NIMl1bTkgyXSljMltjSF1bY0hdW2NIXW5bY0hdMg==

> <s_epik_cmdline>
J2VwaWtfcHl0aG9uJywgJy1waCcsICc3LjAnLCAnLXRuJywgJzgnLCAnLW1hJywgJzIwMCcsICctbWV0YWxfYmluZGluZycsICctaW1hZScsICc8aW5maWxlLm1hZT4nLCAnLW9tYWUnLCAnPG91dGZpbGUubWFlPic=

> <r_epik_Ionization_Penalty>
2.62143

> <r_epik_Ionization_Penalty_Charging>
0

> <r_epik_Ionization_Penalty_Neutral>
2.62143

> <r_epik_State_Penalty>
2.72742

> <r_epik_Charging_Adjusted_Penalty>
2.72742

> <i_epik_Tot_Q>
0

> <i_epik_Tot_abs_Q>
0

> <r_epik_Metal_State_Penalty>
2.72081

> <b_epik_Metal_Only>
0

> <s_lp_Force_Field>
OPLS_2005

> <r_lp_Energy>
27.3222

> <b_lp_Chiralities_Consistent>
1

> <s_lp_Variant>
AV-unprocessed.smi:3042-3

> <Gold.Version>
5.8.1

> <Gold.Id.Protein>
6NUR|6NUR_protein|mol2

> <Gold.PLP.Fitness>
37.3557

> <Gold.PLP.PLP>
-29.1523

> <Gold.PLP.part.hbond>
-1.7867

> <Gold.PLP.part.metal>
0.0000

> <Gold.PLP.part.buried>
-4.1101

> <Gold.PLP.part.nonpolar>
-24.1287

> <Gold.PLP.part.repulsive>
0.2081

> <Gold.PLP.ligand.clash>
0.0000

> <Gold.PLP.ligand.torsion>
0.1804

> <Gold.PLP.Chemscore.Hbond>
1.8320

> <Gold.PLP.Chemscore.CHOScore>
1.0000

> <Gold.PLP.Chemscore.Metal>
0.0000

> <Gold.Chemscore.Hbonds>
donor molecule, donor type, donor heavy atom, donor atom, acceptor molecule, acceptor atom, score
      L1  H     1    16       P1  8028  0.98
      P1  H 10752 10765       L1    13  0.74
      L1  C     9    24       P1  8028  1.00

> <Gold.PLP.Chemscore.Internal.Correction>
0.0681

> <Gold.Rescore>
     Score         DG    S(hbond)    S(metal)    S(lipo)     H(rot)  DE(clash)    DE(int)     intcor
     16.40     -16.72       1.52        0.00      84.10       1.44       0.04       0.28       ----

> <Gold.Chemscore.Fitness>
16.4003

> <Gold.Chemscore.DG>
-16.7188

> <Gold.Chemscore.ZeroCoef>
-5.4800

> <Gold.Chemscore.Hbond>
1.5194

> <Gold.Chemscore.Metal>
0.0000

> <Gold.Chemscore.Lipo>
84.1029

> <Gold.Chemscore.Internal_Hbond>
0.0000

> <Gold.Chemscore.DEClash>
0.0382

> <Gold.Chemscore.DEInternal>
0.2803

> <Gold.Chemscore.Rot>
1.4359

> <Gold.Chemscore.Internal.Correction>
   9.000000E+99

> <Gold.Chemscore.Hbonds>
donor molecule, donor type, donor heavy atom, donor atom, acceptor molecule, acceptor atom, score
      L1  H     1    16       P1  8028  0.87
      P1  H 10752 10765       L1    13  0.12

> <Gold.Chemscore.Hbond.Weighted>
-5.0747

> <Gold.Chemscore.Metal.Weighted>
-0.0000

> <Gold.Chemscore.Lipo.Weighted>
-9.8400

> <Gold.Chemscore.Internal_Hbond.Weighted>
0.0000

> <Gold.Chemscore.DEClash.Weighted>
0.0382

> <Gold.Chemscore.DEInternal.Weighted>
0.2803

> <Gold.Chemscore.Rot.Weighted>
3.6759

> <Gold.Chemscore.Internal.Correction.Weighted>
   9.000000E+99

> <Gold.Protein.RotatedTorsions>
[ 6907 6896 6895 6894 ] final   81.68 input  -60.11 | X-H torsion
[ 7974 7965 7964 7962 ] final  122.22 input  175.53 | X-H torsion
[ 8008 7997 7996 7995 ] final  -24.58 input   59.86 | X-H torsion
[ 10167 10162 10161 10158 ] final  177.06 input  -65.29 | X-H torsion
[ 10718 10713 10712 10709 ] final  -65.99 input   66.30 | X-H torsion
[ 10763 10752 10751 10750 ] final  149.34 input  -60.55 | X-H torsion
[ 11005 11000 10999 10996 ] final -160.63 input  -57.11 | X-H torsion

> <Gold.Protein.ActiveResidues>
 VAL166  LYS551  ARG553  GLY616  TRP617  ASP618  TYR619  PRO620  LYS621  CYS622 
 ASP623  PHE694  ASN695  SER759  ASP760  ASP761  ALA762  ILE779  LEU786  VAL792 
 PHE793  MET794  SER795  GLU796  ALA797  LYS798  CYS799  TRP800  GLU811  SER814 

> <Gold.Protein.RotatedAtoms>
  152.5276  134.3166  159.9132 H   0  0  0  0  0  0  0  0  0  0  0  0  # atno 6907 bound_to 6896
  151.3116  133.4072  159.2655 H   0  0  0  0  0  0  0  0  0  0  0  0  # atno 6908 bound_to 6896
  151.0034  134.9357  159.8024 H   0  0  0  0  0  0  0  0  0  0  0  0  # atno 6909 bound_to 6896
  145.1101  139.3459  143.4768 H   0  0  0  0  0  0  0  0  0  0  0  0  # atno 7974 bound_to 7965
  154.4521  140.1949  156.0487 H   0  0  0  0  0  0  0  0  0  0  0  0  # atno 8008 bound_to 7997
  156.0670  140.3289  155.7503 H   0  0  0  0  0  0  0  0  0  0  0  0  # atno 8009 bound_to 7997
  155.5322  140.0579  157.2877 H   0  0  0  0  0  0  0  0  0  0  0  0  # atno 8010 bound_to 7997
  139.5238  144.2842  152.0520 H   0  0  0  0  0  0  0  0  0  0  0  0  # atno 10167 bound_to 10162
  156.0637  130.4255  150.1644 H   0  0  0  0  0  0  0  0  0  0  0  0  # atno 10718 bound_to 10713
  154.0695  135.2868  155.3310 H   0  0  0  0  0  0  0  0  0  0  0  0  # atno 10763 bound_to 10752
  154.6756  135.5283  153.8198 H   0  0  0  0  0  0  0  0  0  0  0  0  # atno 10764 bound_to 10752
  153.0491  135.6568  154.0877 H   0  0  0  0  0  0  0  0  0  0  0  0  # atno 10765 bound_to 10752
  140.6293  134.4668  157.5228 H   0  0  0  0  0  0  0  0  0  0  0  0  # atno 11005 bound_to 11000
  146.3526  140.1015  142.8608 LP  0  0  0  0  0  0  0  0  0  0  0  0  # atno 17320 bound_to 7965
  145.0857  140.9251  143.4799 LP  0  0  0  0  0  0  0  0  0  0  0  0  # atno 17321 bound_to 7965
  140.2296  144.4382  150.6306 LP  0  0  0  0  0  0  0  0  0  0  0  0  # atno 17342 bound_to 10162
  140.6364  143.2195  151.6385 LP  0  0  0  0  0  0  0  0  0  0  0  0  # atno 17343 bound_to 10162
  156.9708  130.9834  151.3459 LP  0  0  0  0  0  0  0  0  0  0  0  0  # atno 17370 bound_to 10713
  157.5665  130.8281  149.8334 LP  0  0  0  0  0  0  0  0  0  0  0  0  # atno 17371 bound_to 10713
  139.9122  134.8320  156.1488 LP  0  0  0  0  0  0  0  0  0  0  0  0  # atno 17394 bound_to 11000
  141.0687  133.6807  156.2096 LP  0  0  0  0  0  0  0  0  0  0  0  0  # atno 17395 bound_to 11000

$$$$
