AV-unprocessed.smi:2097|AV-procd|sdf|8563|dock7
  -GOLD-   2272011293D 1   1.00000     0.00000
 Structure written by MMmdl.
 41 42  0  0  0  0  0  0  0  0  1 V2000
  147.6643  144.9196  161.5347 C   0  0  0  0  0  0  0  0  0  0  0  0
  146.8013  144.7416  160.2766 C   0  0  2  0  0  0  0  0  0  0  0  0
  145.4357  144.7930  160.6835 O   0  0  0  0  0  0  0  0  0  0  0  0
  145.0914  143.9655  161.7905 C   0  0  0  0  0  0  0  0  0  0  0  0
  143.5664  143.8235  161.8633 C   0  0  0  0  0  0  0  0  0  0  0  0
  143.1737  142.8699  161.0194 F   0  0  0  0  0  0  0  0  0  0  0  0
  143.1935  143.4834  163.0967 F   0  0  0  0  0  0  0  0  0  0  0  0
  142.9795  144.9690  161.5171 F   0  0  0  0  0  0  0  0  0  0  0  0
  147.1027  143.4071  159.5747 C   0  0  0  0  0  0  0  0  0  0  0  0
  146.3276  142.4603  159.7072 O   0  0  0  0  0  0  0  0  0  0  0  0
  148.2111  143.3863  158.8113 N   0  0  0  0  0  0  0  0  0  0  0  0
  148.7293  142.3177  158.0313 C   0  0  0  0  0  0  0  0  0  0  0  0
  150.1074  142.3165  157.7422 C   0  0  0  0  0  0  0  0  0  0  0  0
  150.6506  141.2655  156.9796 C   0  0  0  0  0  0  0  0  0  0  0  0
  149.7998  140.2294  156.5276 C   0  0  0  0  0  0  0  0  0  0  0  0
  150.3203  139.1701  155.7525 N   0  0  0  0  0  0  0  0  0  0  0  0
  150.0358  137.8258  156.2494 C   0  0  0  0  0  0  0  0  0  0  0  0
  150.3816  136.7741  155.1812 C   0  0  0  0  0  0  0  0  0  0  0  0
  151.7336  136.9349  154.7653 O   0  0  0  0  0  0  0  0  0  0  0  0
  151.9582  138.2130  154.1799 C   0  0  0  0  0  0  0  0  0  0  0  0
  151.6723  139.3140  155.2151 C   0  0  0  0  0  0  0  0  0  0  0  0
  148.4780  140.2179  156.8287 N   0  0  0  0  0  0  0  0  0  0  0  0
  147.9599  141.2288  157.5578 C   0  0  0  0  0  0  0  0  0  0  0  0
  148.7276  144.8783  161.2955 H   0  0  0  0  0  0  0  0  0  0  0  0
  147.4568  144.1482  162.2774 H   0  0  0  0  0  0  0  0  0  0  0  0
  147.4699  145.8851  162.0020 H   0  0  0  0  0  0  0  0  0  0  0  0
  147.0080  145.5732  159.6000 H   0  0  0  0  0  0  0  0  0  0  0  0
  145.5478  142.9814  161.6759 H   0  0  0  0  0  0  0  0  0  0  0  0
  145.4603  144.3895  162.7250 H   0  0  0  0  0  0  0  0  0  0  0  0
  148.7060  144.2625  158.7290 H   0  0  0  0  0  0  0  0  0  0  0  0
  150.7450  143.1135  158.0959 H   0  0  0  0  0  0  0  0  0  0  0  0
  151.7083  141.2598  156.7633 H   0  0  0  0  0  0  0  0  0  0  0  0
  150.6278  137.6516  157.1487 H   0  0  0  0  0  0  0  0  0  0  0  0
  148.9904  137.7116  156.5320 H   0  0  0  0  0  0  0  0  0  0  0  0
  150.2524  135.7710  155.5877 H   0  0  0  0  0  0  0  0  0  0  0  0
  149.7132  136.8578  154.3227 H   0  0  0  0  0  0  0  0  0  0  0  0
  152.9934  138.2737  153.8444 H   0  0  0  0  0  0  0  0  0  0  0  0
  151.3292  138.3364  153.2968 H   0  0  0  0  0  0  0  0  0  0  0  0
  151.7899  140.2907  154.7441 H   0  0  0  0  0  0  0  0  0  0  0  0
  152.3940  139.2551  156.0312 H   0  0  0  0  0  0  0  0  0  0  0  0
  146.9069  141.1353  157.7731 H   0  0  0  0  0  0  0  0  0  0  0  0
  1  2  1  0  0  0  0
  1 24  1  0  0  0  0
  1 25  1  0  0  0  0
  1 26  1  0  0  0  0
  2  3  1  0  0  0  0
  2  9  1  0  0  0  0
  2 27  1  0  0  0  0
  3  4  1  0  0  0  0
  4  5  1  0  0  0  0
  4 28  1  0  0  0  0
  4 29  1  0  0  0  0
  5  6  1  0  0  0  0
  5  7  1  0  0  0  0
  5  8  1  0  0  0  0
  9 10  2  0  0  0  0
  9 11  1  0  0  0  0
 11 12  1  0  0  0  0
 11 30  1  0  0  0  0
 12 23  1  0  0  0  0
 12 13  2  0  0  0  0
 13 14  1  0  0  0  0
 13 31  1  0  0  0  0
 14 15  2  0  0  0  0
 14 32  1  0  0  0  0
 15 16  1  0  0  0  0
 15 22  1  0  0  0  0
 16 21  1  0  0  0  0
 16 17  1  0  0  0  0
 17 18  1  0  0  0  0
 17 33  1  0  0  0  0
 17 34  1  0  0  0  0
 18 19  1  0  0  0  0
 18 35  1  0  0  0  0
 18 36  1  0  0  0  0
 19 20  1  0  0  0  0
 20 21  1  0  0  0  0
 20 37  1  0  0  0  0
 20 38  1  0  0  0  0
 21 39  1  0  0  0  0
 21 40  1  0  0  0  0
 22 23  2  0  0  0  0
 23 41  1  0  0  0  0
M  END
> <s_m_source_file>
AV-unprocessed.smi

> <i_m_source_file_index>
2097

> <i_lp_mmshare_version>
43012

> <i_f3d_flags>
0

> <s_epik_input>
RkMoRikoRilbQ0gyXU9bQ0BASF0oW0NIM10pQyg9TylbTkhdYzFbY0hdW2NIXWMobltjSF0xKU4yW0NIMl1bQ0gyXU9bQ0gyXVtDSDJdMg==

> <s_epik_cmdline>
J2VwaWtfcHl0aG9uJywgJy1waCcsICc3LjAnLCAnLXRuJywgJzgnLCAnLW1hJywgJzIwMCcsICctbWV0YWxfYmluZGluZycsICctaW1hZScsICc8aW5maWxlLm1hZT4nLCAnLW9tYWUnLCAnPG91dGZpbGUubWFlPic=

> <r_lp_tautomer_probability>
1

> <r_epik_Ionization_Penalty>
0.000443452

> <r_epik_Ionization_Penalty_Charging>
0

> <r_epik_Ionization_Penalty_Neutral>
0.000443452

> <r_epik_State_Penalty>
0.00027288

> <r_epik_Charging_Adjusted_Penalty>
0.00027288

> <i_epik_Tot_Q>
0

> <i_epik_Tot_abs_Q>
0

> <r_epik_Metal_State_Penalty>
-0

> <b_epik_Metal_Only>
0

> <s_lp_Force_Field>
OPLS_2005

> <r_lp_Energy>
25.2007

> <b_lp_Chiralities_Consistent>
1

> <s_lp_Variant>
AV-unprocessed.smi:2097-1

> <Gold.Version>
5.8.1

> <Gold.Id.Protein>
6NUR|6NUR_protein|mol2

> <Gold.PLP.Fitness>
39.5426

> <Gold.PLP.PLP>
-33.5206

> <Gold.PLP.part.hbond>
-3.0993

> <Gold.PLP.part.metal>
0.0000

> <Gold.PLP.part.buried>
-2.3684

> <Gold.PLP.part.nonpolar>
-29.0406

> <Gold.PLP.part.repulsive>
0.3465

> <Gold.PLP.ligand.clash>
0.0000

> <Gold.PLP.ligand.torsion>
1.2601

> <Gold.PLP.Chemscore.Hbond>
2.7216

> <Gold.PLP.Chemscore.CHOScore>
0.0000

> <Gold.PLP.Chemscore.Metal>
0.0000

> <Gold.Chemscore.Hbonds>
donor molecule, donor type, donor heavy atom, donor atom, acceptor molecule, acceptor atom, score
      L1  H    11    30       P1  8029  0.07
      P1  H  6934  6946       L1    10  1.00
      P1  H 10752 10763       L1    19  0.94

> <Gold.PLP.Chemscore.Internal.Correction>
0.3775

> <Gold.Rescore>
     Score         DG    S(hbond)    S(metal)    S(lipo)     H(rot)  DE(clash)    DE(int)     intcor
     12.23     -15.57       2.24        0.00      64.81       1.95       0.96       2.38       ----

> <Gold.Chemscore.Fitness>
12.2295

> <Gold.Chemscore.DG>
-15.5694

> <Gold.Chemscore.ZeroCoef>
-5.4800

> <Gold.Chemscore.Hbond>
2.2443

> <Gold.Chemscore.Metal>
0.0000

> <Gold.Chemscore.Lipo>
64.8145

> <Gold.Chemscore.Internal_Hbond>
0.0000

> <Gold.Chemscore.DEClash>
0.9590

> <Gold.Chemscore.DEInternal>
2.3809

> <Gold.Chemscore.Rot>
1.9491

> <Gold.Chemscore.Internal.Correction>
   9.000000E+99

> <Gold.Chemscore.Hbonds>
donor molecule, donor type, donor heavy atom, donor atom, acceptor molecule, acceptor atom, score
      L1  H    11    30       P1  8029  0.06
      P1  H  6934  6946       L1    10  0.94
      P1  H 10752 10763       L1    19  0.90

> <Gold.Chemscore.Hbond.Weighted>
-7.4958

> <Gold.Chemscore.Metal.Weighted>
-0.0000

> <Gold.Chemscore.Lipo.Weighted>
-7.5833

> <Gold.Chemscore.Internal_Hbond.Weighted>
0.0000

> <Gold.Chemscore.DEClash.Weighted>
0.9590

> <Gold.Chemscore.DEInternal.Weighted>
2.3809

> <Gold.Chemscore.Rot.Weighted>
4.9897

> <Gold.Chemscore.Internal.Correction.Weighted>
   9.000000E+99

> <Gold.Protein.RotatedTorsions>
[ 6907 6896 6895 6894 ] final  -88.15 input  -60.11 | X-H torsion
[ 7974 7965 7964 7962 ] final  114.16 input  175.53 | X-H torsion
[ 8008 7997 7996 7995 ] final   59.55 input   59.86 | X-H torsion
[ 10167 10162 10161 10158 ] final    8.97 input  -65.29 | X-H torsion
[ 10718 10713 10712 10709 ] final  155.12 input   66.30 | X-H torsion
[ 10763 10752 10751 10750 ] final   69.60 input  -60.55 | X-H torsion
[ 11005 11000 10999 10996 ] final   76.59 input  -57.11 | X-H torsion

> <Gold.Protein.ActiveResidues>
 VAL166  LYS551  ARG553  GLY616  TRP617  ASP618  TYR619  PRO620  LYS621  CYS622 
 ASP623  PHE694  ASN695  SER759  ASP760  ASP761  ALA762  ILE779  LEU786  VAL792 
 PHE793  MET794  SER795  GLU796  ALA797  LYS798  CYS799  TRP800  GLU811  SER814 

> <Gold.Protein.RotatedAtoms>
  150.6868  134.2787  159.4617 H   0  0  0  0  0  0  0  0  0  0  0  0  # atno 6907 bound_to 6896
  152.0702  134.9535  160.0584 H   0  0  0  0  0  0  0  0  0  0  0  0  # atno 6908 bound_to 6896
  152.0928  133.4174  159.4588 H   0  0  0  0  0  0  0  0  0  0  0  0  # atno 6909 bound_to 6896
  145.2078  139.2920  143.4284 H   0  0  0  0  0  0  0  0  0  0  0  0  # atno 7974 bound_to 7965
  155.5679  140.3489  155.4508 H   0  0  0  0  0  0  0  0  0  0  0  0  # atno 8008 bound_to 7997
  156.0466  140.1308  157.0123 H   0  0  0  0  0  0  0  0  0  0  0  0  # atno 8009 bound_to 7997
  154.4415  140.1013  156.6299 H   0  0  0  0  0  0  0  0  0  0  0  0  # atno 8010 bound_to 7997
  140.6283  143.8052  150.7261 H   0  0  0  0  0  0  0  0  0  0  0  0  # atno 10167 bound_to 10162
  157.2226  131.0722  151.1903 H   0  0  0  0  0  0  0  0  0  0  0  0  # atno 10718 bound_to 10713
  153.0296  135.5204  154.7314 H   0  0  0  0  0  0  0  0  0  0  0  0  # atno 10763 bound_to 10752
  154.6340  135.2904  155.0185 H   0  0  0  0  0  0  0  0  0  0  0  0  # atno 10764 bound_to 10752
  154.1126  135.6619  153.4940 H   0  0  0  0  0  0  0  0  0  0  0  0  # atno 10765 bound_to 10752
  139.9291  134.7613  156.1415 H   0  0  0  0  0  0  0  0  0  0  0  0  # atno 11005 bound_to 11000
  146.3404  140.2344  142.8594 LP  0  0  0  0  0  0  0  0  0  0  0  0  # atno 17320 bound_to 7965
  144.9885  140.8525  143.5354 LP  0  0  0  0  0  0  0  0  0  0  0  0  # atno 17321 bound_to 7965
  140.1657  143.4237  152.2036 LP  0  0  0  0  0  0  0  0  0  0  0  0  # atno 17342 bound_to 10162
  139.5500  144.7330  151.4464 LP  0  0  0  0  0  0  0  0  0  0  0  0  # atno 17343 bound_to 10162
  157.3560  130.7107  149.6471 LP  0  0  0  0  0  0  0  0  0  0  0  0  # atno 17370 bound_to 10713
  155.9681  130.4239  150.4583 LP  0  0  0  0  0  0  0  0  0  0  0  0  # atno 17371 bound_to 10713
  141.0869  133.6730  156.2456 LP  0  0  0  0  0  0  0  0  0  0  0  0  # atno 17394 bound_to 11000
  140.6251  134.5321  157.5552 LP  0  0  0  0  0  0  0  0  0  0  0  0  # atno 17395 bound_to 11000

$$$$
