AV-unprocessed.smi:58|AV-procd|sdf|583|dock4
  -GOLD-   2262016483D 1   1.00000     0.00000
 Structure written by MMmdl.
 32 33  0  0  0  0  0  0  0  0  1 V2000
  151.9017  145.3044  159.4548 C   0  0  0  0  0  0  0  0  0  0  0  0
  152.2469  143.8993  159.4617 N   0  0  0  0  0  0  0  0  0  0  0  0
  152.8243  143.1599  160.4703 C   0  0  0  0  0  0  0  0  0  0  0  0
  152.9504  141.8778  160.0159 C   0  0  0  0  0  0  0  0  0  0  0  0
  153.4866  140.7967  160.7462 N   0  0  0  0  0  0  0  0  0  0  0  0
  152.4333  141.9358  158.6837 C   0  0  0  0  0  0  0  0  0  0  0  0
  152.3451  140.7030  157.8270 C   0  0  0  0  0  0  0  0  0  0  0  0
  153.1796  139.8086  157.9709 O   0  0  0  0  0  0  0  0  0  0  0  0
  151.3697  140.6524  156.8892 N   0  0  0  0  0  0  0  0  0  0  0  0
  151.1739  139.5775  155.9127 C   0  0  0  0  0  0  0  0  0  0  0  0
  149.8844  139.9117  155.1662 C   0  0  0  0  0  0  0  0  0  0  0  0
  149.7613  141.4208  155.3102 C   0  0  0  0  0  0  0  0  0  0  0  0
  150.3860  141.7234  156.6790 C   0  0  1  0  0  0  0  0  0  0  0  0
  149.3367  141.7492  157.8132 C   0  0  0  0  0  0  0  0  0  0  0  0
  148.5334  142.9060  157.7124 O   0  0  0  0  0  0  0  0  0  0  0  0
  151.9924  143.1479  158.3718 N   0  0  0  0  0  0  0  0  0  0  0  0
  152.1888  145.7645  160.4006 H   0  0  0  0  0  0  0  0  0  0  0  0
  150.8263  145.4195  159.3166 H   0  0  0  0  0  0  0  0  0  0  0  0
  152.4245  145.8093  158.6419 H   0  0  0  0  0  0  0  0  0  0  0  0
  153.0892  143.6014  161.4201 H   0  0  0  0  0  0  0  0  0  0  0  0
  153.8241  140.9128  161.6913 H   0  0  0  0  0  0  0  0  0  0  0  0
  153.6945  139.9107  160.3082 H   0  0  0  0  0  0  0  0  0  0  0  0
  152.0116  139.5701  155.2142 H   0  0  0  0  0  0  0  0  0  0  0  0
  151.1128  138.5969  156.3868 H   0  0  0  0  0  0  0  0  0  0  0  0
  149.9009  139.5856  154.1260 H   0  0  0  0  0  0  0  0  0  0  0  0
  149.0394  139.4257  155.6556 H   0  0  0  0  0  0  0  0  0  0  0  0
  150.3481  141.9060  154.5290 H   0  0  0  0  0  0  0  0  0  0  0  0
  148.7335  141.7713  155.2109 H   0  0  0  0  0  0  0  0  0  0  0  0
  150.8996  142.6861  156.6395 H   0  0  0  0  0  0  0  0  0  0  0  0
  148.7033  140.8620  157.7841 H   0  0  0  0  0  0  0  0  0  0  0  0
  149.8135  141.7676  158.7931 H   0  0  0  0  0  0  0  0  0  0  0  0
  148.6154  143.2533  156.8372 H   0  0  0  0  0  0  0  0  0  0  0  0
  1  2  1  0  0  0  0
  1 17  1  0  0  0  0
  1 18  1  0  0  0  0
  1 19  1  0  0  0  0
  2 16  1  0  0  0  0
  2  3  1  0  0  0  0
  3  4  2  0  0  0  0
  3 20  1  0  0  0  0
  4  5  1  0  0  0  0
  4  6  1  0  0  0  0
  5 21  1  0  0  0  0
  5 22  1  0  0  0  0
  6  7  1  0  0  0  0
  6 16  2  0  0  0  0
  7  8  2  0  0  0  0
  7  9  1  0  0  0  0
  9 13  1  0  0  0  0
  9 10  1  0  0  0  0
 10 11  1  0  0  0  0
 10 23  1  0  0  0  0
 10 24  1  0  0  0  0
 11 12  1  0  0  0  0
 11 25  1  0  0  0  0
 11 26  1  0  0  0  0
 12 13  1  0  0  0  0
 12 27  1  0  0  0  0
 12 28  1  0  0  0  0
 13 14  1  0  0  0  0
 13 29  1  0  0  0  0
 14 15  1  0  0  0  0
 14 30  1  0  0  0  0
 14 31  1  0  0  0  0
 15 32  1  0  0  0  0
M  END
> <s_m_source_file>
AV-unprocessed.smi

> <i_m_source_file_index>
58

> <i_lp_mmshare_version>
43012

> <i_f3d_flags>
0

> <s_epik_input>
W0NIM11uMVtjSF1jKFtOSDJdKWMobjEpQyg9TylOMltDSDJdW0NIMl1bQ0gyXVtDQEhdMltDSDJdW09IXQ==

> <s_epik_cmdline>
J2VwaWtfcHl0aG9uJywgJy1waCcsICc3LjAnLCAnLXRuJywgJzgnLCAnLW1hJywgJzIwMCcsICctbWV0YWxfYmluZGluZycsICctaW1hZScsICc8aW5maWxlLm1hZT4nLCAnLW9tYWUnLCAnPG91dGZpbGUubWFlPic=

> <r_lp_tautomer_probability>
1

> <r_epik_Ionization_Penalty>
5.64206e-05

> <r_epik_Ionization_Penalty_Charging>
0

> <r_epik_Ionization_Penalty_Neutral>
5.64206e-05

> <r_epik_State_Penalty>
-0

> <r_epik_Charging_Adjusted_Penalty>
0

> <i_epik_Tot_Q>
0

> <i_epik_Tot_abs_Q>
0

> <r_epik_Metal_State_Penalty>
-0

> <b_epik_Metal_Only>
0

> <s_lp_Force_Field>
OPLS_2005

> <r_lp_Energy>
40.444

> <b_lp_Chiralities_Consistent>
1

> <s_lp_Variant>
AV-unprocessed.smi:58-1

> <Gold.Version>
5.8.1

> <Gold.Id.Protein>
6NUR|6NUR_protein|mol2

> <Gold.PLP.Fitness>
40.3140

> <Gold.PLP.PLP>
-35.3836

> <Gold.PLP.part.hbond>
-2.7718

> <Gold.PLP.part.metal>
0.0000

> <Gold.PLP.part.buried>
-3.3340

> <Gold.PLP.part.nonpolar>
-29.4458

> <Gold.PLP.part.repulsive>
0.0991

> <Gold.PLP.ligand.clash>
0.5765

> <Gold.PLP.ligand.torsion>
0.3900

> <Gold.PLP.Chemscore.Hbond>
2.0000

> <Gold.PLP.Chemscore.CHOScore>
0.0000

> <Gold.PLP.Chemscore.Metal>
0.0000

> <Gold.Chemscore.Hbonds>
donor molecule, donor type, donor heavy atom, donor atom, acceptor molecule, acceptor atom, score
      L1  H    15    32       P1  8028  0.99
      P1  H  7997  8008       L1     8  1.00

> <Gold.PLP.Chemscore.Internal.Correction>
0.2868

> <Gold.Rescore>
     Score         DG    S(hbond)    S(metal)    S(lipo)     H(rot)  DE(clash)    DE(int)     intcor
     12.45     -15.38       1.50        0.00      74.48       1.49       0.00       2.92       ----

> <Gold.Chemscore.Fitness>
12.4547

> <Gold.Chemscore.DG>
-15.3754

> <Gold.Chemscore.ZeroCoef>
-5.4800

> <Gold.Chemscore.Hbond>
1.4962

> <Gold.Chemscore.Metal>
0.0000

> <Gold.Chemscore.Lipo>
74.4822

> <Gold.Chemscore.Internal_Hbond>
0.0000

> <Gold.Chemscore.DEClash>
0.0040

> <Gold.Chemscore.DEInternal>
2.9167

> <Gold.Chemscore.Rot>
1.4907

> <Gold.Chemscore.Internal.Correction>
   9.000000E+99

> <Gold.Chemscore.Hbonds>
donor molecule, donor type, donor heavy atom, donor atom, acceptor molecule, acceptor atom, score
      L1  H    15    32       P1  8028  0.52
      P1  H  7997  8008       L1     8  0.87

> <Gold.Chemscore.Hbond.Weighted>
-4.9973

> <Gold.Chemscore.Metal.Weighted>
-0.0000

> <Gold.Chemscore.Lipo.Weighted>
-8.7144

> <Gold.Chemscore.Internal_Hbond.Weighted>
0.0000

> <Gold.Chemscore.DEClash.Weighted>
0.0040

> <Gold.Chemscore.DEInternal.Weighted>
2.9167

> <Gold.Chemscore.Rot.Weighted>
3.8163

> <Gold.Chemscore.Internal.Correction.Weighted>
   9.000000E+99

> <Gold.Protein.RotatedTorsions>
[ 6907 6896 6895 6894 ] final   88.51 input  -60.11 | X-H torsion
[ 7974 7965 7964 7962 ] final  -73.27 input  175.53 | X-H torsion
[ 8008 7997 7996 7995 ] final  -88.19 input   59.86 | X-H torsion
[ 10167 10162 10161 10158 ] final -154.08 input  -65.29 | X-H torsion
[ 10718 10713 10712 10709 ] final  120.83 input   66.30 | X-H torsion
[ 10763 10752 10751 10750 ] final -126.36 input  -60.55 | X-H torsion
[ 11005 11000 10999 10996 ] final  -71.66 input  -57.11 | X-H torsion

> <Gold.Protein.ActiveResidues>
 VAL166  LYS551  ARG553  GLY616  TRP617  ASP618  TYR619  PRO620  LYS621  CYS622 
 ASP623  PHE694  ASN695  SER759  ASP760  ASP761  ALA762  ILE779  LEU786  VAL792 
 PHE793  MET794  SER795  GLU796  ALA797  LYS798  CYS799  TRP800  GLU811  SER814 

> <Gold.Protein.RotatedAtoms>
  152.5426  134.2111  159.8749 H   0  0  0  0  0  0  0  0  0  0  0  0  # atno 6907 bound_to 6896
  151.2093  133.4558  159.2605 H   0  0  0  0  0  0  0  0  0  0  0  0  # atno 6908 bound_to 6896
  151.0912  134.9930  159.8459 H   0  0  0  0  0  0  0  0  0  0  0  0  # atno 6909 bound_to 6896
  145.6543  140.9273  143.0968 H   0  0  0  0  0  0  0  0  0  0  0  0  # atno 7974 bound_to 7965
  154.6720  140.0556  157.0175 H   0  0  0  0  0  0  0  0  0  0  0  0  # atno 8008 bound_to 7997
  155.1075  140.3235  155.4512 H   0  0  0  0  0  0  0  0  0  0  0  0  # atno 8009 bound_to 7997
  156.2661  140.2020  156.6200 H   0  0  0  0  0  0  0  0  0  0  0  0  # atno 8010 bound_to 7997
  139.7043  143.9212  152.2442 H   0  0  0  0  0  0  0  0  0  0  0  0  # atno 10167 bound_to 10162
  157.5862  131.1069  150.8090 H   0  0  0  0  0  0  0  0  0  0  0  0  # atno 10718 bound_to 10713
  154.8745  135.3998  154.3417 H   0  0  0  0  0  0  0  0  0  0  0  0  # atno 10763 bound_to 10752
  153.4216  135.7023  153.6296 H   0  0  0  0  0  0  0  0  0  0  0  0  # atno 10764 bound_to 10752
  153.4956  135.3739  155.2484 H   0  0  0  0  0  0  0  0  0  0  0  0  # atno 10765 bound_to 10752
  141.1596  133.6824  156.6940 H   0  0  0  0  0  0  0  0  0  0  0  0  # atno 11005 bound_to 11000
  144.7111  139.8366  143.7414 LP  0  0  0  0  0  0  0  0  0  0  0  0  # atno 17320 bound_to 7965
  146.1178  139.4191  143.0247 LP  0  0  0  0  0  0  0  0  0  0  0  0  # atno 17321 bound_to 7965
  139.9063  144.6883  150.8611 LP  0  0  0  0  0  0  0  0  0  0  0  0  # atno 17342 bound_to 10162
  140.7717  143.3476  151.2079 LP  0  0  0  0  0  0  0  0  0  0  0  0  # atno 17343 bound_to 10162
  156.8523  130.5085  149.5311 LP  0  0  0  0  0  0  0  0  0  0  0  0  # atno 17370 bound_to 10713
  156.0911  130.5897  150.9735 LP  0  0  0  0  0  0  0  0  0  0  0  0  # atno 17371 bound_to 10713
  140.3009  134.8164  157.4097 LP  0  0  0  0  0  0  0  0  0  0  0  0  # atno 17394 bound_to 11000
  140.1263  134.5154  155.8142 LP  0  0  0  0  0  0  0  0  0  0  0  0  # atno 17395 bound_to 11000

$$$$
