AV-unprocessed.smi:787|AV-procd|sdf|3730|dock4
  -GOLD-   22720 1163D 1   1.00000     0.00000
 Structure written by MMmdl.
 46 48  0  0  0  0  0  0  0  0  1 V2000
  146.6571  135.9305  154.9998 C   0  0  0  0  0  0  0  0  0  0  0  0
  148.0198  135.7986  154.5098 N   0  0  0  0  0  0  0  0  0  0  0  0
  149.0873  135.6253  155.4019 C   0  0  0  0  0  0  0  0  0  0  0  0
  149.3144  134.4104  155.9528 N   0  0  0  0  0  0  0  0  0  0  0  0
  150.3469  134.2884  156.7973 C   0  0  0  0  0  0  0  0  0  0  0  0
  151.2269  135.2192  157.1972 N   0  0  0  0  0  0  0  0  0  0  0  0
  151.0108  136.4262  156.6566 C   0  0  0  0  0  0  0  0  0  0  0  0
  151.7620  137.5655  156.8893 N   0  0  0  0  0  0  0  0  0  0  0  0
  151.1385  138.4602  156.1270 C   0  0  0  0  0  0  0  0  0  0  0  0
  150.0675  138.0417  155.4248 N   0  0  0  0  0  0  0  0  0  0  0  0
  149.2528  138.8551  154.5379 C   0  0  0  0  0  0  0  0  0  0  0  0
  149.7006  140.3314  154.5068 C   0  0  1  0  0  0  0  0  0  0  0  0
  149.3911  140.9029  153.2511 O   0  0  0  0  0  0  0  0  0  0  0  0
  149.0129  141.1847  155.5927 C   0  0  0  0  0  0  0  0  0  0  0  0
  149.6992  141.2435  156.8849 N   0  0  0  0  0  0  0  0  0  0  0  0
  148.7469  141.5745  157.9409 C   0  0  0  0  0  0  0  0  0  0  0  0
  150.8245  142.1827  156.8776 C   0  0  0  0  0  0  0  0  0  0  0  0
  151.5147  142.3189  158.2240 C   0  0  0  0  0  0  0  0  0  0  0  0
  151.7698  143.5987  158.7612 C   0  0  0  0  0  0  0  0  0  0  0  0
  152.4088  143.7276  160.0099 C   0  0  0  0  0  0  0  0  0  0  0  0
  152.7923  142.5779  160.7268 C   0  0  0  0  0  0  0  0  0  0  0  0
  152.5368  141.2989  160.1949 C   0  0  0  0  0  0  0  0  0  0  0  0
  151.8987  141.1691  158.9458 C   0  0  0  0  0  0  0  0  0  0  0  0
  149.9439  136.6907  155.7454 C   0  0  0  0  0  0  0  0  0  0  0  0
  145.9685  136.0302  154.1610 H   0  0  0  0  0  0  0  0  0  0  0  0
  146.5574  136.8143  155.6307 H   0  0  0  0  0  0  0  0  0  0  0  0
  146.3669  135.0521  155.5771 H   0  0  0  0  0  0  0  0  0  0  0  0
  148.1908  135.8237  153.5151 H   0  0  0  0  0  0  0  0  0  0  0  0
  150.4907  133.3031  157.2153 H   0  0  0  0  0  0  0  0  0  0  0  0
  151.4815  139.4834  156.0744 H   0  0  0  0  0  0  0  0  0  0  0  0
  149.2670  138.4228  153.5382 H   0  0  0  0  0  0  0  0  0  0  0  0
  148.2189  138.7862  154.8792 H   0  0  0  0  0  0  0  0  0  0  0  0
  150.7838  140.3848  154.6094 H   0  0  0  0  0  0  0  0  0  0  0  0
  149.3592  140.2144  152.6046 H   0  0  0  0  0  0  0  0  0  0  0  0
  148.8649  142.1982  155.2163 H   0  0  0  0  0  0  0  0  0  0  0  0
  148.0122  140.7767  155.7451 H   0  0  0  0  0  0  0  0  0  0  0  0
  149.2187  141.5466  158.9234 H   0  0  0  0  0  0  0  0  0  0  0  0
  147.9241  140.8590  157.9596 H   0  0  0  0  0  0  0  0  0  0  0  0
  148.3264  142.5704  157.7939 H   0  0  0  0  0  0  0  0  0  0  0  0
  151.5926  141.8521  156.1805 H   0  0  0  0  0  0  0  0  0  0  0  0
  150.4945  143.1623  156.5284 H   0  0  0  0  0  0  0  0  0  0  0  0
  151.4771  144.4835  158.2150 H   0  0  0  0  0  0  0  0  0  0  0  0
  152.6046  144.7084  160.4177 H   0  0  0  0  0  0  0  0  0  0  0  0
  153.2817  142.6771  161.6845 H   0  0  0  0  0  0  0  0  0  0  0  0
  152.8303  140.4172  160.7451 H   0  0  0  0  0  0  0  0  0  0  0  0
  151.7074  140.1849  158.5437 H   0  0  0  0  0  0  0  0  0  0  0  0
  1  2  1  0  0  0  0
  1 25  1  0  0  0  0
  1 26  1  0  0  0  0
  1 27  1  0  0  0  0
  2  3  1  0  0  0  0
  2 28  1  0  0  0  0
  3 24  1  0  0  0  0
  3  4  2  0  0  0  0
  4  5  1  0  0  0  0
  5  6  2  0  0  0  0
  5 29  1  0  0  0  0
  6  7  1  0  0  0  0
  7 24  2  0  0  0  0
  7  8  1  0  0  0  0
  8  9  2  0  0  0  0
  9 10  1  0  0  0  0
  9 30  1  0  0  0  0
 10 11  1  0  0  0  0
 10 24  1  0  0  0  0
 11 12  1  0  0  0  0
 11 31  1  0  0  0  0
 11 32  1  0  0  0  0
 12 13  1  0  0  0  0
 12 14  1  0  0  0  0
 12 33  1  0  0  0  0
 13 34  1  0  0  0  0
 14 15  1  0  0  0  0
 14 35  1  0  0  0  0
 14 36  1  0  0  0  0
 15 16  1  0  0  0  0
 15 17  1  0  0  0  0
 16 37  1  0  0  0  0
 16 38  1  0  0  0  0
 16 39  1  0  0  0  0
 17 18  1  0  0  0  0
 17 40  1  0  0  0  0
 17 41  1  0  0  0  0
 18 23  1  0  0  0  0
 18 19  2  0  0  0  0
 19 20  1  0  0  0  0
 19 42  1  0  0  0  0
 20 21  2  0  0  0  0
 20 43  1  0  0  0  0
 21 22  1  0  0  0  0
 21 44  1  0  0  0  0
 22 23  2  0  0  0  0
 22 45  1  0  0  0  0
 23 46  1  0  0  0  0
M  END
> <s_m_source_file>
AV-unprocessed.smi

> <i_m_source_file_index>
787

> <i_lp_mmshare_version>
43012

> <i_f3d_flags>
0

> <s_epik_input>
bjFbY0hdbmMoW05IXVtDSDNdKWMoYzEyKW4oW2NIXW4yKVtDSDJdW0NASF0oW09IXSlbQ0gyXU4oW0NIM10pW0NIMl1jM1tjSF1bY0hdW2NIXVtjSF1bY0hdMw==

> <s_epik_cmdline>
J2VwaWtfcHl0aG9uJywgJy1waCcsICc3LjAnLCAnLXRuJywgJzgnLCAnLW1hJywgJzIwMCcsICctbWV0YWxfYmluZGluZycsICctaW1hZScsICc8aW5maWxlLm1hZT4nLCAnLW9tYWUnLCAnPG91dGZpbGUubWFlPic=

> <r_lp_tautomer_probability>
0.999987

> <r_epik_Ionization_Penalty>
1.52367

> <r_epik_Ionization_Penalty_Charging>
0

> <r_epik_Ionization_Penalty_Neutral>
1.52367

> <r_epik_State_Penalty>
1.60995

> <r_epik_Charging_Adjusted_Penalty>
1.60995

> <i_epik_Tot_Q>
0

> <i_epik_Tot_abs_Q>
0

> <r_epik_Metal_State_Penalty>
1.60969

> <b_epik_Metal_Only>
0

> <s_lp_Force_Field>
OPLS_2005

> <r_lp_Energy>
19.785

> <b_lp_Chiralities_Consistent>
1

> <s_lp_Variant>
AV-unprocessed.smi:787-6

> <Gold.Version>
5.8.1

> <Gold.Id.Protein>
6NUR|6NUR_protein|mol2

> <Gold.PLP.Fitness>
50.0657

> <Gold.PLP.PLP>
-42.8116

> <Gold.PLP.part.hbond>
-4.4171

> <Gold.PLP.part.metal>
0.0000

> <Gold.PLP.part.buried>
-4.4765

> <Gold.PLP.part.nonpolar>
-33.6114

> <Gold.PLP.part.repulsive>
0.1355

> <Gold.PLP.ligand.clash>
0.0000

> <Gold.PLP.ligand.torsion>
1.7797

> <Gold.PLP.Chemscore.Hbond>
3.4236

> <Gold.PLP.Chemscore.CHOScore>
0.0000

> <Gold.PLP.Chemscore.Metal>
0.0000

> <Gold.Chemscore.Hbonds>
donor molecule, donor type, donor heavy atom, donor atom, acceptor molecule, acceptor atom, score
      L1  H     2    28       P1  7948  1.00
      L1  H    13    34       P1  7957  0.66
      P1  H  8011  8017       L1    13  1.00

> <Gold.PLP.Chemscore.Internal.Correction>
0.5427

> <Gold.Rescore>
     Score         DG    S(hbond)    S(metal)    S(lipo)     H(rot)  DE(clash)    DE(int)     intcor
     13.73     -15.79       1.99        0.00      99.23       3.11       0.06       2.00       ----

> <Gold.Chemscore.Fitness>
13.7340

> <Gold.Chemscore.DG>
-15.7909

> <Gold.Chemscore.ZeroCoef>
-5.4800

> <Gold.Chemscore.Hbond>
1.9929

> <Gold.Chemscore.Metal>
0.0000

> <Gold.Chemscore.Lipo>
99.2275

> <Gold.Chemscore.Internal_Hbond>
0.0000

> <Gold.Chemscore.DEClash>
0.0599

> <Gold.Chemscore.DEInternal>
1.9970

> <Gold.Chemscore.Rot>
3.1075

> <Gold.Chemscore.Internal.Correction>
   9.000000E+99

> <Gold.Chemscore.Hbonds>
donor molecule, donor type, donor heavy atom, donor atom, acceptor molecule, acceptor atom, score
      L1  H     2    28       P1  7948  1.00
      L1  H    13    34       P1  7957  0.64
      P1  H  8011  8017       L1    13  0.50

> <Gold.Chemscore.Hbond.Weighted>
-6.6564

> <Gold.Chemscore.Metal.Weighted>
-0.0000

> <Gold.Chemscore.Lipo.Weighted>
-11.6096

> <Gold.Chemscore.Internal_Hbond.Weighted>
0.0000

> <Gold.Chemscore.DEClash.Weighted>
0.0599

> <Gold.Chemscore.DEInternal.Weighted>
1.9970

> <Gold.Chemscore.Rot.Weighted>
7.9551

> <Gold.Chemscore.Internal.Correction.Weighted>
   9.000000E+99

> <Gold.Protein.RotatedTorsions>
[ 6907 6896 6895 6894 ] final  133.12 input  -60.11 | X-H torsion
[ 7974 7965 7964 7962 ] final  173.55 input  175.53 | X-H torsion
[ 8008 7997 7996 7995 ] final   73.04 input   59.86 | X-H torsion
[ 10167 10162 10161 10158 ] final   61.17 input  -65.29 | X-H torsion
[ 10718 10713 10712 10709 ] final -177.10 input   66.30 | X-H torsion
[ 10763 10752 10751 10750 ] final   -4.44 input  -60.55 | X-H torsion
[ 11005 11000 10999 10996 ] final  -15.46 input  -57.11 | X-H torsion

> <Gold.Protein.ActiveResidues>
 VAL166  LYS551  ARG553  GLY616  TRP617  ASP618  TYR619  PRO620  LYS621  CYS622 
 ASP623  PHE694  ASN695  SER759  ASP760  ASP761  ALA762  ILE779  LEU786  VAL792 
 PHE793  MET794  SER795  GLU796  ALA797  LYS798  CYS799  TRP800  GLU811  SER814 

> <Gold.Protein.RotatedAtoms>
  152.3253  133.5898  159.5771 H   0  0  0  0  0  0  0  0  0  0  0  0  # atno 6907 bound_to 6896
  150.7393  133.9950  159.3628 H   0  0  0  0  0  0  0  0  0  0  0  0  # atno 6908 bound_to 6896
  151.7830  135.0757  160.0427 H   0  0  0  0  0  0  0  0  0  0  0  0  # atno 6909 bound_to 6896
  144.7241  139.9664  143.6436 H   0  0  0  0  0  0  0  0  0  0  0  0  # atno 7974 bound_to 7965
  155.7778  140.3482  155.5281 H   0  0  0  0  0  0  0  0  0  0  0  0  # atno 8008 bound_to 7997
  155.8758  140.0994  157.1539 H   0  0  0  0  0  0  0  0  0  0  0  0  # atno 8009 bound_to 7997
  154.4021  140.1332  156.4123 H   0  0  0  0  0  0  0  0  0  0  0  0  # atno 8010 bound_to 7997
  140.1576  144.4401  150.6726 H   0  0  0  0  0  0  0  0  0  0  0  0  # atno 10167 bound_to 10162
  156.8245  130.9631  151.3110 H   0  0  0  0  0  0  0  0  0  0  0  0  # atno 10718 bound_to 10713
  153.3849  135.7000  153.6538 H   0  0  0  0  0  0  0  0  0  0  0  0  # atno 10763 bound_to 10752
  153.5134  135.3627  155.2598 H   0  0  0  0  0  0  0  0  0  0  0  0  # atno 10764 bound_to 10752
  154.8696  135.4140  154.3154 H   0  0  0  0  0  0  0  0  0  0  0  0  # atno 10765 bound_to 10752
  140.7968  133.8245  155.9432 H   0  0  0  0  0  0  0  0  0  0  0  0  # atno 11005 bound_to 11000
  146.0597  139.3591  143.0589 LP  0  0  0  0  0  0  0  0  0  0  0  0  # atno 17320 bound_to 7965
  145.8108  140.9726  143.0949 LP  0  0  0  0  0  0  0  0  0  0  0  0  # atno 17321 bound_to 7965
  140.6663  143.2269  151.5735 LP  0  0  0  0  0  0  0  0  0  0  0  0  # atno 17342 bound_to 10162
  139.5396  144.2685  152.1323 LP  0  0  0  0  0  0  0  0  0  0  0  0  # atno 17343 bound_to 10162
  157.6439  130.8828  149.9502 LP  0  0  0  0  0  0  0  0  0  0  0  0  # atno 17370 bound_to 10713
  156.0970  130.3658  150.0289 LP  0  0  0  0  0  0  0  0  0  0  0  0  # atno 17371 bound_to 10713
  140.9334  134.1992  157.4848 LP  0  0  0  0  0  0  0  0  0  0  0  0  # atno 17394 bound_to 11000
  139.8725  134.9842  156.5231 LP  0  0  0  0  0  0  0  0  0  0  0  0  # atno 17395 bound_to 11000

$$$$
