AV-unprocessed.smi:3033|AV-procd|sdf|11575|dock8
  -GOLD-   2272016543D 1   1.00000     0.00000
 Structure written by MMmdl.
 32 33  0  0  0  0  0  0  0  0  2 V2000
  151.2427  145.3734  158.8816 C   0  0  0  0  0  0  0  0  0  0  0  0
  151.7469  144.0565  158.7123 O   0  0  0  0  0  0  0  0  0  0  0  0
  152.3235  143.4385  159.8011 C   0  0  0  0  0  0  0  0  0  0  0  0
  152.2121  143.9072  161.1343 C   0  0  0  0  0  0  0  0  0  0  0  0
  152.8290  143.2068  162.1886 C   0  0  0  0  0  0  0  0  0  0  0  0
  153.5633  142.0359  161.9267 C   0  0  0  0  0  0  0  0  0  0  0  0
  153.6892  141.5607  160.6055 C   0  0  0  0  0  0  0  0  0  0  0  0
  154.4742  140.2872  160.3298 C   0  0  2  0  0  0  0  0  0  0  0  0
  155.4806  140.5027  159.3595 O   0  0  0  0  0  0  0  0  0  0  0  0
  153.5431  139.1600  159.8347 C   0  0  0  0  0  0  0  0  0  0  0  0
  153.8172  137.8821  160.5076 N   0  0  0  0  0  0  0  0  0  0  0  0
  153.9554  137.9025  161.9053 C   0  0  0  0  0  0  0  0  0  0  0  0
  154.2011  136.7845  162.6158 C   0  0  0  0  0  0  0  0  0  0  0  0
  154.3635  136.8394  164.3351 Cl  0  0  0  0  0  0  0  0  0  0  0  0
  154.3231  135.5226  161.8883 C   0  0  0  0  0  0  0  0  0  0  0  0
  154.5506  134.4831  162.5056 O   0  0  0  0  0  0  0  0  0  0  0  0
  154.1755  135.5559  160.5313 N   0  5  0  0  0  0  0  0  0  0  0  0
  153.9227  136.7021  159.8271 C   0  0  0  0  0  0  0  0  0  0  0  0
  153.7837  136.7059  158.6033 O   0  0  0  0  0  0  0  0  0  0  0  0
  153.0660  142.2658  159.5527 C   0  0  0  0  0  0  0  0  0  0  0  0
  150.8035  145.7135  157.9437 H   0  0  0  0  0  0  0  0  0  0  0  0
  152.0360  146.0732  159.1475 H   0  0  0  0  0  0  0  0  0  0  0  0
  150.4616  145.4066  159.6423 H   0  0  0  0  0  0  0  0  0  0  0  0
  151.6567  144.8008  161.3756 H   0  0  0  0  0  0  0  0  0  0  0  0
  152.7364  143.5681  163.2021 H   0  0  0  0  0  0  0  0  0  0  0  0
  154.0266  141.5025  162.7441 H   0  0  0  0  0  0  0  0  0  0  0  0
  154.9696  139.9862  161.2539 H   0  0  0  0  0  0  0  0  0  0  0  0
  156.0399  141.2017  159.6617 H   0  0  0  0  0  0  0  0  0  0  0  0
  152.5045  139.4325  160.0315 H   0  0  0  0  0  0  0  0  0  0  0  0
  153.6005  139.0612  158.7495 H   0  0  0  0  0  0  0  0  0  0  0  0
  153.8445  138.8757  162.3609 H   0  0  0  0  0  0  0  0  0  0  0  0
  153.1522  141.9008  158.5395 H   0  0  0  0  0  0  0  0  0  0  0  0
  1  2  1  0  0  0  0
  1 21  1  0  0  0  0
  1 22  1  0  0  0  0
  1 23  1  0  0  0  0
  2  3  1  0  0  0  0
  3 20  1  0  0  0  0
  3  4  2  0  0  0  0
  4  5  1  0  0  0  0
  4 24  1  0  0  0  0
  5  6  2  0  0  0  0
  5 25  1  0  0  0  0
  6  7  1  0  0  0  0
  6 26  1  0  0  0  0
  7  8  1  0  0  0  0
  7 20  2  0  0  0  0
  8  9  1  0  0  0  0
  8 10  1  0  0  0  0
  8 27  1  0  0  0  0
  9 28  1  0  0  0  0
 10 11  1  0  0  0  0
 10 29  1  0  0  0  0
 10 30  1  0  0  0  0
 11 18  1  0  0  0  0
 11 12  1  0  0  0  0
 12 13  2  0  0  0  0
 12 31  1  0  0  0  0
 13 14  1  0  0  0  0
 13 15  1  0  0  0  0
 15 16  2  0  0  0  0
 15 17  1  0  0  0  0
 17 18  1  0  0  0  0
 18 19  2  0  0  0  0
 20 32  1  0  0  0  0
M  CHG  1  17  -1
M  END
> <s_m_source_file>
AV-unprocessed.smi

> <i_m_source_file_index>
3033

> <i_lp_mmshare_version>
43012

> <i_f3d_flags>
0

> <s_epik_input>
W0NIM11PYzFbY0hdW2NIXVtjSF1jKFtjSF0xKVtDQEhdKFtPSF0pW0NIMl1uMltjSF1jKENsKWMoPU8pW25IXWMyPU8=

> <s_epik_cmdline>
J2VwaWtfcHl0aG9uJywgJy1waCcsICc3LjAnLCAnLXRuJywgJzgnLCAnLW1hJywgJzIwMCcsICctbWV0YWxfYmluZGluZycsICctaW1hZScsICc8aW5maWxlLm1hZT4nLCAnLW9tYWUnLCAnPG91dGZpbGUubWFlPic=

> <r_lp_tautomer_probability>
1

> <r_epik_Ionization_Penalty>
1.7979

> <r_epik_Ionization_Penalty_Charging>
3.23819e-08

> <r_epik_Ionization_Penalty_Neutral>
1.7979

> <r_epik_State_Penalty>
1.91135

> <r_epik_Charging_Adjusted_Penalty>
1.91135

> <i_epik_Tot_Q>
-1

> <i_epik_Tot_abs_Q>
1

> <r_epik_Metal_State_Penalty>
0.014155

> <b_epik_Metal_Only>
0

> <s_lp_Force_Field>
OPLS_2005

> <r_lp_Energy>
24.094

> <b_lp_Chiralities_Consistent>
1

> <s_lp_Variant>
AV-unprocessed.smi:3033-3

> <Gold.Version>
5.8.1

> <Gold.Id.Protein>
6NUR|6NUR_protein|mol2

> <Gold.PLP.Fitness>
53.3161

> <Gold.PLP.PLP>
-47.2124

> <Gold.PLP.part.hbond>
-2.0000

> <Gold.PLP.part.metal>
0.0000

> <Gold.PLP.part.buried>
-4.2153

> <Gold.PLP.part.nonpolar>
-40.2414

> <Gold.PLP.part.repulsive>
0.0534

> <Gold.PLP.ligand.clash>
0.0000

> <Gold.PLP.ligand.torsion>
1.0123

> <Gold.PLP.Chemscore.Hbond>
2.7058

> <Gold.PLP.Chemscore.CHOScore>
0.0000

> <Gold.PLP.Chemscore.Metal>
0.0000

> <Gold.Chemscore.Hbonds>
donor molecule, donor type, donor heavy atom, donor atom, acceptor molecule, acceptor atom, score
      P1  H  6896  6909       L1    17  1.90
      P1  H  7997  8009       L1     9  0.75

> <Gold.PLP.Chemscore.Internal.Correction>
0.0108

> <Gold.Rescore>
     Score         DG    S(hbond)    S(metal)    S(lipo)     H(rot)  DE(clash)    DE(int)     intcor
     16.04     -17.10       1.31        0.00     115.39       2.45       0.04       1.02       ----

> <Gold.Chemscore.Fitness>
16.0383

> <Gold.Chemscore.DG>
-17.0957

> <Gold.Chemscore.ZeroCoef>
-5.4800

> <Gold.Chemscore.Hbond>
1.3126

> <Gold.Chemscore.Metal>
0.0000

> <Gold.Chemscore.Lipo>
115.3939

> <Gold.Chemscore.Internal_Hbond>
0.0000

> <Gold.Chemscore.DEClash>
0.0398

> <Gold.Chemscore.DEInternal>
1.0176

> <Gold.Chemscore.Rot>
2.4491

> <Gold.Chemscore.Internal.Correction>
   9.000000E+99

> <Gold.Chemscore.Hbonds>
donor molecule, donor type, donor heavy atom, donor atom, acceptor molecule, acceptor atom, score
      P1  H  6896  6909       L1    17  0.15
      P1  H  7997  8009       L1     9  0.68

> <Gold.Chemscore.Hbond.Weighted>
-4.3842

> <Gold.Chemscore.Metal.Weighted>
-0.0000

> <Gold.Chemscore.Lipo.Weighted>
-13.5011

> <Gold.Chemscore.Internal_Hbond.Weighted>
0.0000

> <Gold.Chemscore.DEClash.Weighted>
0.0398

> <Gold.Chemscore.DEInternal.Weighted>
1.0176

> <Gold.Chemscore.Rot.Weighted>
6.2696

> <Gold.Chemscore.Internal.Correction.Weighted>
   9.000000E+99

> <Gold.Protein.RotatedTorsions>
[ 6907 6896 6895 6894 ] final -166.26 input  -60.11 | X-H torsion
[ 7974 7965 7964 7962 ] final -131.62 input  175.53 | X-H torsion
[ 8008 7997 7996 7995 ] final   97.22 input   59.86 | X-H torsion
[ 10167 10162 10161 10158 ] final -178.39 input  -65.29 | X-H torsion
[ 10718 10713 10712 10709 ] final   34.78 input   66.30 | X-H torsion
[ 10763 10752 10751 10750 ] final  127.34 input  -60.55 | X-H torsion
[ 11005 11000 10999 10996 ] final  170.94 input  -57.11 | X-H torsion

> <Gold.Protein.ActiveResidues>
 VAL166  LYS551  ARG553  GLY616  TRP617  ASP618  TYR619  PRO620  LYS621  CYS622 
 ASP623  PHE694  ASN695  SER759  ASP760  ASP761  ALA762  ILE779  LEU786  VAL792 
 PHE793  MET794  SER795  GLU796  ALA797  LYS798  CYS799  TRP800  GLU811  SER814 

> <Gold.Protein.RotatedAtoms>
  151.4407  133.3644  159.2781 H   0  0  0  0  0  0  0  0  0  0  0  0  # atno 6907 bound_to 6896
  150.9159  134.8579  159.7467 H   0  0  0  0  0  0  0  0  0  0  0  0  # atno 6908 bound_to 6896
  152.4957  134.4341  159.9574 H   0  0  0  0  0  0  0  0  0  0  0  0  # atno 6909 bound_to 6896
  144.9362  140.7185  143.4875 H   0  0  0  0  0  0  0  0  0  0  0  0  # atno 7974 bound_to 7965
  156.0878  140.3261  155.7776 H   0  0  0  0  0  0  0  0  0  0  0  0  # atno 8008 bound_to 7997
  155.5046  140.0572  157.2951 H   0  0  0  0  0  0  0  0  0  0  0  0  # atno 8009 bound_to 7997
  154.4620  140.1971  156.0236 H   0  0  0  0  0  0  0  0  0  0  0  0  # atno 8010 bound_to 7997
  139.5435  144.2299  152.0942 H   0  0  0  0  0  0  0  0  0  0  0  0  # atno 10167 bound_to 10162
  157.3146  130.7416  149.6746 H   0  0  0  0  0  0  0  0  0  0  0  0  # atno 10718 bound_to 10713
  153.7079  135.3273  155.3239 H   0  0  0  0  0  0  0  0  0  0  0  0  # atno 10763 bound_to 10752
  154.8394  135.4470  154.1344 H   0  0  0  0  0  0  0  0  0  0  0  0  # atno 10764 bound_to 10752
  153.2430  135.6973  153.7841 H   0  0  0  0  0  0  0  0  0  0  0  0  # atno 10765 bound_to 10752
  140.3136  134.7496  157.4010 H   0  0  0  0  0  0  0  0  0  0  0  0  # atno 11005 bound_to 11000
  145.3064  139.1833  143.4662 LP  0  0  0  0  0  0  0  0  0  0  0  0  # atno 17320 bound_to 7965
  146.3267  140.3062  142.8624 LP  0  0  0  0  0  0  0  0  0  0  0  0  # atno 17321 bound_to 7965
  140.1782  144.4870  150.6542 LP  0  0  0  0  0  0  0  0  0  0  0  0  # atno 17342 bound_to 10162
  140.6674  143.2273  151.5710 LP  0  0  0  0  0  0  0  0  0  0  0  0  # atno 17343 bound_to 10162
  155.9680  130.4241  150.4594 LP  0  0  0  0  0  0  0  0  0  0  0  0  # atno 17370 bound_to 10713
  157.2598  131.0564  151.2327 LP  0  0  0  0  0  0  0  0  0  0  0  0  # atno 17371 bound_to 10713
  140.1003  134.5482  155.8359 LP  0  0  0  0  0  0  0  0  0  0  0  0  # atno 17394 bound_to 11000
  141.2102  133.6693  156.6496 LP  0  0  0  0  0  0  0  0  0  0  0  0  # atno 17395 bound_to 11000

$$$$
