AV-unprocessed.smi:2331|AV-procd|sdf|9315|dock8
  -GOLD-   2272012533D 1   1.00000     0.00000
 Structure written by MMmdl.
 49 50  0  0  0  0  0  0  0  0  1 V2000
  143.8234  136.4954  151.9602 C   0  0  0  0  0  0  0  0  0  0  0  0
  145.2168  135.8981  151.6729 C   0  0  0  0  0  0  0  0  0  0  0  0
  145.8329  136.7121  150.5094 C   0  0  0  0  0  0  0  0  0  0  0  0
  146.1118  136.0836  152.9254 C   0  0  0  0  0  0  0  0  0  0  0  0
  146.4507  137.4862  153.1472 N   0  0  0  0  0  0  0  0  0  0  0  0
  147.2278  137.9624  154.1328 C   0  0  0  0  0  0  0  0  0  0  0  0
  147.7806  137.2326  154.9562 O   0  0  0  0  0  0  0  0  0  0  0  0
  147.4041  139.3051  154.0859 N   0  0  0  0  0  0  0  0  0  0  0  0
  146.5761  140.2009  153.2656 C   0  0  0  0  0  0  0  0  0  0  0  0
  146.8176  141.6203  153.7751 C   0  0  0  0  0  0  0  0  0  0  0  0
  147.4034  141.4298  155.1670 C   0  0  0  0  0  0  0  0  0  0  0  0
  148.1344  140.0761  155.1081 C   0  0  2  0  0  0  0  0  0  0  0  0
  149.6804  140.1735  154.8622 C   0  0  0  0  0  0  0  0  0  0  0  0
  150.3267  141.1356  155.8788 C   0  0  0  0  0  0  0  0  0  0  0  0
  150.4272  138.8256  154.9139 C   0  0  0  0  0  0  0  0  0  0  0  0
  149.9334  140.7248  153.5838 O   0  0  0  0  0  0  0  0  0  0  0  0
  145.0755  134.4008  151.3347 C   0  0  0  0  0  0  0  0  0  0  0  0
  143.8198  133.7600  151.1927 C   0  0  0  0  0  0  0  0  0  0  0  0
  143.7838  132.3905  150.8631 C   0  0  0  0  0  0  0  0  0  0  0  0
  144.8890  131.6419  150.6718 N   0  0  0  0  0  0  0  0  0  0  0  0
  146.0859  132.2482  150.8060 C   0  0  0  0  0  0  0  0  0  0  0  0
  146.2312  133.6111  151.1311 C   0  0  0  0  0  0  0  0  0  0  0  0
  143.8869  137.5615  152.1812 H   0  0  0  0  0  0  0  0  0  0  0  0
  143.3416  136.0212  152.8153 H   0  0  0  0  0  0  0  0  0  0  0  0
  143.1588  136.3774  151.1035 H   0  0  0  0  0  0  0  0  0  0  0  0
  145.9173  137.7681  150.7686 H   0  0  0  0  0  0  0  0  0  0  0  0
  145.2194  136.6532  149.6097 H   0  0  0  0  0  0  0  0  0  0  0  0
  146.8360  136.3689  150.2539 H   0  0  0  0  0  0  0  0  0  0  0  0
  145.6180  135.6602  153.8019 H   0  0  0  0  0  0  0  0  0  0  0  0
  147.0479  135.5358  152.8112 H   0  0  0  0  0  0  0  0  0  0  0  0
  146.0604  138.1524  152.4965 H   0  0  0  0  0  0  0  0  0  0  0  0
  146.8272  140.1156  152.2073 H   0  0  0  0  0  0  0  0  0  0  0  0
  145.5220  139.9424  153.3834 H   0  0  0  0  0  0  0  0  0  0  0  0
  147.5399  142.1250  153.1328 H   0  0  0  0  0  0  0  0  0  0  0  0
  145.9093  142.2234  153.7834 H   0  0  0  0  0  0  0  0  0  0  0  0
  148.0307  142.2677  155.4688 H   0  0  0  0  0  0  0  0  0  0  0  0
  146.5877  141.3648  155.8883 H   0  0  0  0  0  0  0  0  0  0  0  0
  147.9907  139.5895  156.0749 H   0  0  0  0  0  0  0  0  0  0  0  0
  150.1790  140.7828  156.9000 H   0  0  0  0  0  0  0  0  0  0  0  0
  149.9126  142.1416  155.8179 H   0  0  0  0  0  0  0  0  0  0  0  0
  151.4020  141.2224  155.7178 H   0  0  0  0  0  0  0  0  0  0  0  0
  150.2845  138.3319  155.8753 H   0  0  0  0  0  0  0  0  0  0  0  0
  151.5007  138.9621  154.7789 H   0  0  0  0  0  0  0  0  0  0  0  0
  150.0965  138.1434  154.1304 H   0  0  0  0  0  0  0  0  0  0  0  0
  149.7897  140.0543  152.9336 H   0  0  0  0  0  0  0  0  0  0  0  0
  142.8856  134.2834  151.3241 H   0  0  0  0  0  0  0  0  0  0  0  0
  142.8376  131.8830  150.7477 H   0  0  0  0  0  0  0  0  0  0  0  0
  146.9566  131.6293  150.6468 H   0  0  0  0  0  0  0  0  0  0  0  0
  147.2200  134.0368  151.2156 H   0  0  0  0  0  0  0  0  0  0  0  0
  1  2  1  0  0  0  0
  1 23  1  0  0  0  0
  1 24  1  0  0  0  0
  1 25  1  0  0  0  0
  2  3  1  0  0  0  0
  2  4  1  0  0  0  0
  2 17  1  0  0  0  0
  3 26  1  0  0  0  0
  3 27  1  0  0  0  0
  3 28  1  0  0  0  0
  4  5  1  0  0  0  0
  4 29  1  0  0  0  0
  4 30  1  0  0  0  0
  5  6  1  0  0  0  0
  5 31  1  0  0  0  0
  6  7  2  0  0  0  0
  6  8  1  0  0  0  0
  8 12  1  0  0  0  0
  8  9  1  0  0  0  0
  9 10  1  0  0  0  0
  9 32  1  0  0  0  0
  9 33  1  0  0  0  0
 10 11  1  0  0  0  0
 10 34  1  0  0  0  0
 10 35  1  0  0  0  0
 11 12  1  0  0  0  0
 11 36  1  0  0  0  0
 11 37  1  0  0  0  0
 12 13  1  0  0  0  0
 12 38  1  0  0  0  0
 13 14  1  0  0  0  0
 13 15  1  0  0  0  0
 13 16  1  0  0  0  0
 14 39  1  0  0  0  0
 14 40  1  0  0  0  0
 14 41  1  0  0  0  0
 15 42  1  0  0  0  0
 15 43  1  0  0  0  0
 15 44  1  0  0  0  0
 16 45  1  0  0  0  0
 17 22  1  0  0  0  0
 17 18  2  0  0  0  0
 18 19  1  0  0  0  0
 18 46  1  0  0  0  0
 19 20  2  0  0  0  0
 19 47  1  0  0  0  0
 20 21  1  0  0  0  0
 21 22  2  0  0  0  0
 21 48  1  0  0  0  0
 22 49  1  0  0  0  0
M  END
> <s_m_source_file>
AV-unprocessed.smi

> <i_m_source_file_index>
2331

> <i_lp_mmshare_version>
43012

> <i_f3d_flags>
0

> <s_epik_input>
W2NIXTFbY0hdbltjSF1bY0hdYzFDKFtDSDNdKShbQ0gzXSlbQ0gyXVtOSF1DKD1PKU4yW0NIMl1bQ0gyXVtDSDJdW0NASF0yQyhbQ0gzXSkoW0NIM10pW09IXQ==

> <s_epik_cmdline>
J2VwaWtfcHl0aG9uJywgJy1waCcsICc3LjAnLCAnLXRuJywgJzgnLCAnLW1hJywgJzIwMCcsICctbWV0YWxfYmluZGluZycsICctaW1hZScsICc8aW5maWxlLm1hZT4nLCAnLW9tYWUnLCAnPG91dGZpbGUubWFlPic=

> <r_epik_Ionization_Penalty>
0.0581496

> <r_epik_Ionization_Penalty_Charging>
0

> <r_epik_Ionization_Penalty_Neutral>
0.0581496

> <r_epik_State_Penalty>
0.0501956

> <r_epik_Charging_Adjusted_Penalty>
0.0501956

> <i_epik_Tot_Q>
0

> <i_epik_Tot_abs_Q>
0

> <r_epik_Metal_State_Penalty>
0.0456895

> <b_epik_Metal_Only>
0

> <s_lp_Force_Field>
OPLS_2005

> <r_lp_Energy>
50.0165

> <b_lp_Chiralities_Consistent>
1

> <s_lp_Variant>
AV-unprocessed.smi:2331-2

> <Gold.Version>
5.8.1

> <Gold.Id.Protein>
6NUR|6NUR_protein|mol2

> <Gold.PLP.Fitness>
43.4171

> <Gold.PLP.PLP>
-34.3768

> <Gold.PLP.part.hbond>
-2.9368

> <Gold.PLP.part.metal>
0.0000

> <Gold.PLP.part.buried>
2.9869

> <Gold.PLP.part.nonpolar>
-34.9676

> <Gold.PLP.part.repulsive>
0.2202

> <Gold.PLP.ligand.clash>
1.0785

> <Gold.PLP.ligand.torsion>
0.2679

> <Gold.PLP.Chemscore.Hbond>
2.1040

> <Gold.PLP.Chemscore.CHOScore>
1.3636

> <Gold.PLP.Chemscore.Metal>
0.0000

> <Gold.Chemscore.Hbonds>
donor molecule, donor type, donor heavy atom, donor atom, acceptor molecule, acceptor atom, score
      L1  H    16    45       P1  7957  0.69
      P1  H  7989  7998       L1    16  0.43
      P1  H  8011  8017       L1    16  0.75
      L1  C    19    47       P1 10952  0.35
      L1  C    21    48       P1 10747  1.00

> <Gold.PLP.Chemscore.Internal.Correction>
0.2519

> <Gold.Rescore>
     Score         DG    S(hbond)    S(metal)    S(lipo)     H(rot)  DE(clash)    DE(int)     intcor
     13.06     -16.10       1.10        0.00     101.68       1.94       2.68       0.36       ----

> <Gold.Chemscore.Fitness>
13.0625

> <Gold.Chemscore.DG>
-16.1045

> <Gold.Chemscore.ZeroCoef>
-5.4800

> <Gold.Chemscore.Hbond>
1.1022

> <Gold.Chemscore.Metal>
0.0000

> <Gold.Chemscore.Lipo>
101.6827

> <Gold.Chemscore.Internal_Hbond>
0.0000

> <Gold.Chemscore.DEClash>
2.6816

> <Gold.Chemscore.DEInternal>
0.3605

> <Gold.Chemscore.Rot>
1.9350

> <Gold.Chemscore.Internal.Correction>
   9.000000E+99

> <Gold.Chemscore.Hbonds>
donor molecule, donor type, donor heavy atom, donor atom, acceptor molecule, acceptor atom, score
      L1  H    16    45       P1  7957  0.70
      P1  H  7989  7998       L1    16  0.06
      P1  H  8011  8017       L1    16  0.14

> <Gold.Chemscore.Hbond.Weighted>
-3.6813

> <Gold.Chemscore.Metal.Weighted>
-0.0000

> <Gold.Chemscore.Lipo.Weighted>
-11.8969

> <Gold.Chemscore.Internal_Hbond.Weighted>
0.0000

> <Gold.Chemscore.DEClash.Weighted>
2.6816

> <Gold.Chemscore.DEInternal.Weighted>
0.3605

> <Gold.Chemscore.Rot.Weighted>
4.9536

> <Gold.Chemscore.Internal.Correction.Weighted>
   9.000000E+99

> <Gold.Protein.RotatedTorsions>
[ 6907 6896 6895 6894 ] final  -44.24 input  -60.11 | X-H torsion
[ 7974 7965 7964 7962 ] final -118.99 input  175.53 | X-H torsion
[ 8008 7997 7996 7995 ] final   75.58 input   59.86 | X-H torsion
[ 10167 10162 10161 10158 ] final -132.51 input  -65.29 | X-H torsion
[ 10718 10713 10712 10709 ] final  -40.79 input   66.30 | X-H torsion
[ 10763 10752 10751 10750 ] final   55.37 input  -60.55 | X-H torsion
[ 11005 11000 10999 10996 ] final  137.56 input  -57.11 | X-H torsion

> <Gold.Protein.ActiveResidues>
 VAL166  LYS551  ARG553  GLY616  TRP617  ASP618  TYR619  PRO620  LYS621  CYS622 
 ASP623  PHE694  ASN695  SER759  ASP760  ASP761  ALA762  ILE779  LEU786  VAL792 
 PHE793  MET794  SER795  GLU796  ALA797  LYS798  CYS799  TRP800  GLU811  SER814 

> <Gold.Protein.RotatedAtoms>
  150.9350  134.8763  159.7575 H   0  0  0  0  0  0  0  0  0  0  0  0  # atno 6907 bound_to 6896
  152.5055  134.4024  159.9431 H   0  0  0  0  0  0  0  0  0  0  0  0  # atno 6908 bound_to 6896
  151.4049  133.3706  159.2771 H   0  0  0  0  0  0  0  0  0  0  0  0  # atno 6909 bound_to 6896
  145.0676  140.8336  143.4115 H   0  0  0  0  0  0  0  0  0  0  0  0  # atno 7974 bound_to 7965
  155.8149  140.3472  155.5479 H   0  0  0  0  0  0  0  0  0  0  0  0  # atno 8008 bound_to 7997
  155.8402  140.0940  157.1759 H   0  0  0  0  0  0  0  0  0  0  0  0  # atno 8009 bound_to 7997
  154.4005  140.1396  156.3707 H   0  0  0  0  0  0  0  0  0  0  0  0  # atno 8010 bound_to 7997
  139.9078  143.6530  152.2582 H   0  0  0  0  0  0  0  0  0  0  0  0  # atno 10167 bound_to 10162
  156.2774  130.4213  149.8373 H   0  0  0  0  0  0  0  0  0  0  0  0  # atno 10718 bound_to 10713
  152.9816  135.5713  154.5056 H   0  0  0  0  0  0  0  0  0  0  0  0  # atno 10763 bound_to 10752
  154.4568  135.2780  155.1743 H   0  0  0  0  0  0  0  0  0  0  0  0  # atno 10764 bound_to 10752
  154.3348  135.6242  153.5622 H   0  0  0  0  0  0  0  0  0  0  0  0  # atno 10765 bound_to 10752
  140.0123  134.9433  157.0303 H   0  0  0  0  0  0  0  0  0  0  0  0  # atno 11005 bound_to 11000
  145.1332  139.2619  143.5529 LP  0  0  0  0  0  0  0  0  0  0  0  0  # atno 17320 bound_to 7965
  146.3527  140.0988  142.8609 LP  0  0  0  0  0  0  0  0  0  0  0  0  # atno 17321 bound_to 7965
  139.6969  144.7640  151.1341 LP  0  0  0  0  0  0  0  0  0  0  0  0  # atno 17342 bound_to 10162
  140.7692  143.5511  150.9203 LP  0  0  0  0  0  0  0  0  0  0  0  0  # atno 17343 bound_to 10162
  156.5833  130.8475  151.3388 LP  0  0  0  0  0  0  0  0  0  0  0  0  # atno 17370 bound_to 10713
  157.7303  130.9684  150.1829 LP  0  0  0  0  0  0  0  0  0  0  0  0  # atno 17371 bound_to 10713
  140.4533  134.1560  155.7183 LP  0  0  0  0  0  0  0  0  0  0  0  0  # atno 17394 bound_to 11000
  141.1719  133.8591  157.1544 LP  0  0  0  0  0  0  0  0  0  0  0  0  # atno 17395 bound_to 11000

$$$$
