AV-unprocessed.smi:2151|AV-procd|sdf|8760|dock2
  -GOLD-   2272011533D 1   1.00000     0.00000
 Structure written by MMmdl.
 39 40  0  0  0  0  0  0  0  0  1 V2000
  151.0365  137.3497  156.7564 C   0  0  0  0  0  0  0  0  0  0  0  0
  151.9305  138.4010  156.0826 C   0  0  2  0  0  0  0  0  0  0  0  0
  152.8562  138.9414  157.0765 N   0  0  0  0  0  0  0  0  0  0  0  0
  152.5448  139.2984  158.3323 C   0  0  0  0  0  0  0  0  0  0  0  0
  151.4033  139.2406  158.7914 O   0  0  0  0  0  0  0  0  0  0  0  0
  153.7104  139.8055  159.1930 C   0  0  0  0  0  0  0  0  0  0  0  0
  153.3594  140.9815  160.0068 N   0  0  0  0  0  0  0  0  0  0  0  0
  152.6151  141.9988  159.3780 C   0  0  0  0  0  0  0  0  0  0  0  0
  152.2375  143.1275  160.0086 C   0  0  0  0  0  0  0  0  0  0  0  0
  151.3769  144.1775  159.3230 C   0  0  0  0  0  0  0  0  0  0  0  0
  151.1997  145.2401  160.1084 F   0  0  0  0  0  0  0  0  0  0  0  0
  151.9680  144.5851  158.2008 F   0  0  0  0  0  0  0  0  0  0  0  0
  150.1781  143.6865  159.0058 F   0  0  0  0  0  0  0  0  0  0  0  0
  152.6127  143.2429  161.4042 C   0  0  0  0  0  0  0  0  0  0  0  0
  153.3122  142.2726  162.0248 C   0  0  0  0  0  0  0  0  0  0  0  0
  153.7273  141.0570  161.3212 C   0  0  0  0  0  0  0  0  0  0  0  0
  154.3640  140.1620  161.8784 O   0  0  0  0  0  0  0  0  0  0  0  0
  151.1013  139.5374  155.4487 C   0  0  1  0  0  0  0  0  0  0  0  0
  149.9579  139.0788  154.5396 C   0  0  0  0  0  0  0  0  0  0  0  0
  149.0372  140.2762  154.5811 C   0  0  0  0  0  0  0  0  0  0  0  0
  149.1582  140.7085  156.0389 C   0  0  0  0  0  0  0  0  0  0  0  0
  150.4632  140.3168  156.4586 O   0  0  0  0  0  0  0  0  0  0  0  0
  150.3509  136.8980  156.0392 H   0  0  0  0  0  0  0  0  0  0  0  0
  150.4385  137.7888  157.5559 H   0  0  0  0  0  0  0  0  0  0  0  0
  151.6332  136.5457  157.1884 H   0  0  0  0  0  0  0  0  0  0  0  0
  152.4877  137.8987  155.2899 H   0  0  0  0  0  0  0  0  0  0  0  0
  153.8206  139.0294  156.7906 H   0  0  0  0  0  0  0  0  0  0  0  0
  154.0649  138.9996  159.8387 H   0  0  0  0  0  0  0  0  0  0  0  0
  154.5479  140.0303  158.5312 H   0  0  0  0  0  0  0  0  0  0  0  0
  152.3577  141.7961  158.3485 H   0  0  0  0  0  0  0  0  0  0  0  0
  152.3307  144.1238  161.9617 H   0  0  0  0  0  0  0  0  0  0  0  0
  153.5752  142.3929  163.0658 H   0  0  0  0  0  0  0  0  0  0  0  0
  151.7535  140.2036  154.8813 H   0  0  0  0  0  0  0  0  0  0  0  0
  150.2876  138.8281  153.5308 H   0  0  0  0  0  0  0  0  0  0  0  0
  149.4546  138.2079  154.9620 H   0  0  0  0  0  0  0  0  0  0  0  0
  149.4139  141.0604  153.9229 H   0  0  0  0  0  0  0  0  0  0  0  0
  148.0132  140.0436  154.2874 H   0  0  0  0  0  0  0  0  0  0  0  0
  149.0029  141.7799  156.1677 H   0  0  0  0  0  0  0  0  0  0  0  0
  148.4264  140.1838  156.6543 H   0  0  0  0  0  0  0  0  0  0  0  0
  1  2  1  0  0  0  0
  1 23  1  0  0  0  0
  1 24  1  0  0  0  0
  1 25  1  0  0  0  0
  2  3  1  0  0  0  0
  2 18  1  0  0  0  0
  2 26  1  0  0  0  0
  3  4  1  0  0  0  0
  3 27  1  0  0  0  0
  4  5  2  0  0  0  0
  4  6  1  0  0  0  0
  6  7  1  0  0  0  0
  6 28  1  0  0  0  0
  6 29  1  0  0  0  0
  7 16  1  0  0  0  0
  7  8  1  0  0  0  0
  8  9  2  0  0  0  0
  8 30  1  0  0  0  0
  9 10  1  0  0  0  0
  9 14  1  0  0  0  0
 10 11  1  0  0  0  0
 10 12  1  0  0  0  0
 10 13  1  0  0  0  0
 14 15  2  0  0  0  0
 14 31  1  0  0  0  0
 15 16  1  0  0  0  0
 15 32  1  0  0  0  0
 16 17  2  0  0  0  0
 18 22  1  0  0  0  0
 18 19  1  0  0  0  0
 18 33  1  0  0  0  0
 19 20  1  0  0  0  0
 19 34  1  0  0  0  0
 19 35  1  0  0  0  0
 20 21  1  0  0  0  0
 20 36  1  0  0  0  0
 20 37  1  0  0  0  0
 21 22  1  0  0  0  0
 21 38  1  0  0  0  0
 21 39  1  0  0  0  0
M  END
> <s_m_source_file>
AV-unprocessed.smi

> <i_m_source_file_index>
2151

> <i_lp_mmshare_version>
43012

> <i_f3d_flags>
0

> <s_epik_input>
TzFbQ0gyXVtDSDJdW0NIMl1bQ0BIXTFbQ0BIXShbQ0gzXSlbTkhdQyg9TylbQ0gyXW4yW2NIXWMoQyhGKShGKUYpW2NIXVtjSF1jMj1P

> <s_epik_cmdline>
J2VwaWtfcHl0aG9uJywgJy1waCcsICc3LjAnLCAnLXRuJywgJzgnLCAnLW1hJywgJzIwMCcsICctbWV0YWxfYmluZGluZycsICctaW1hZScsICc8aW5maWxlLm1hZT4nLCAnLW9tYWUnLCAnPG91dGZpbGUubWFlPic=

> <r_lp_tautomer_probability>
1

> <r_epik_Ionization_Penalty>
4.20109e-08

> <r_epik_Ionization_Penalty_Charging>
1.89977e-08

> <r_epik_Ionization_Penalty_Neutral>
2.30132e-08

> <r_epik_State_Penalty>
-0

> <r_epik_Charging_Adjusted_Penalty>
1.89977e-08

> <i_epik_Tot_Q>
0

> <i_epik_Tot_abs_Q>
0

> <r_epik_Metal_State_Penalty>
-0

> <b_epik_Metal_Only>
0

> <s_lp_Force_Field>
OPLS_2005

> <r_lp_Energy>
29.4657

> <b_lp_Chiralities_Consistent>
1

> <s_lp_Variant>
AV-unprocessed.smi:2151-3

> <Gold.Version>
5.8.1

> <Gold.Id.Protein>
6NUR|6NUR_protein|mol2

> <Gold.PLP.Fitness>
50.6610

> <Gold.PLP.PLP>
-52.3251

> <Gold.PLP.part.hbond>
0.0000

> <Gold.PLP.part.metal>
0.0000

> <Gold.PLP.part.buried>
-5.6941

> <Gold.PLP.part.nonpolar>
-46.8735

> <Gold.PLP.part.repulsive>
1.6376

> <Gold.PLP.ligand.clash>
0.0000

> <Gold.PLP.ligand.torsion>
0.8684

> <Gold.PLP.Chemscore.Hbond>
0.0000

> <Gold.PLP.Chemscore.CHOScore>
0.0000

> <Gold.PLP.Chemscore.Metal>
0.0000

> <Gold.PLP.Chemscore.Internal.Correction>
0.0727

> <Gold.Rescore>
     Score         DG    S(hbond)    S(metal)    S(lipo)     H(rot)  DE(clash)    DE(int)     intcor
      9.11     -12.69       0.00        0.00     101.51       1.82       0.15       3.43       ----

> <Gold.Chemscore.Fitness>
9.1124

> <Gold.Chemscore.DG>
-12.6898

> <Gold.Chemscore.ZeroCoef>
-5.4800

> <Gold.Chemscore.Hbond>
0.0000

> <Gold.Chemscore.Metal>
0.0000

> <Gold.Chemscore.Lipo>
101.5064

> <Gold.Chemscore.Internal_Hbond>
0.0000

> <Gold.Chemscore.DEClash>
0.1510

> <Gold.Chemscore.DEInternal>
3.4264

> <Gold.Chemscore.Rot>
1.8228

> <Gold.Chemscore.Internal.Correction>
   9.000000E+99

> <Gold.Chemscore.Hbond.Weighted>
-0.0000

> <Gold.Chemscore.Metal.Weighted>
-0.0000

> <Gold.Chemscore.Lipo.Weighted>
-11.8763

> <Gold.Chemscore.Internal_Hbond.Weighted>
0.0000

> <Gold.Chemscore.DEClash.Weighted>
0.1510

> <Gold.Chemscore.DEInternal.Weighted>
3.4264

> <Gold.Chemscore.Rot.Weighted>
4.6665

> <Gold.Chemscore.Internal.Correction.Weighted>
   9.000000E+99

> <Gold.Protein.RotatedTorsions>
[ 6907 6896 6895 6894 ] final   57.89 input  -60.11 | X-H torsion
[ 7974 7965 7964 7962 ] final -175.41 input  175.53 | X-H torsion
[ 8008 7997 7996 7995 ] final  -83.93 input   59.86 | X-H torsion
[ 10167 10162 10161 10158 ] final  -54.58 input  -65.29 | X-H torsion
[ 10718 10713 10712 10709 ] final    1.73 input   66.30 | X-H torsion
[ 10763 10752 10751 10750 ] final   47.89 input  -60.55 | X-H torsion
[ 11005 11000 10999 10996 ] final -152.38 input  -57.11 | X-H torsion

> <Gold.Protein.ActiveResidues>
 VAL166  LYS551  ARG553  GLY616  TRP617  ASP618  TYR619  PRO620  LYS621  CYS622 
 ASP623  PHE694  ASN695  SER759  ASP760  ASP761  ALA762  ILE779  LEU786  VAL792 
 PHE793  MET794  SER795  GLU796  ALA797  LYS798  CYS799  TRP800  GLU811  SER814 

> <Gold.Protein.RotatedAtoms>
  152.3774  134.6643  160.0154 H   0  0  0  0  0  0  0  0  0  0  0  0  # atno 6907 bound_to 6896
  151.6917  133.3305  159.3252 H   0  0  0  0  0  0  0  0  0  0  0  0  # atno 6908 bound_to 6896
  150.7720  134.6628  159.6394 H   0  0  0  0  0  0  0  0  0  0  0  0  # atno 6909 bound_to 6896
  144.7128  140.1326  143.6397 H   0  0  0  0  0  0  0  0  0  0  0  0  # atno 7974 bound_to 7965
  154.6243  140.0612  156.9654 H   0  0  0  0  0  0  0  0  0  0  0  0  # atno 8008 bound_to 7997
  155.1767  140.3295  155.4364 H   0  0  0  0  0  0  0  0  0  0  0  0  # atno 8009 bound_to 7997
  156.2449  140.1904  156.6866 H   0  0  0  0  0  0  0  0  0  0  0  0  # atno 8010 bound_to 7997
  140.6423  143.2514  151.4956 H   0  0  0  0  0  0  0  0  0  0  0  0  # atno 10167 bound_to 10162
  156.8526  130.5559  149.5668 H   0  0  0  0  0  0  0  0  0  0  0  0  # atno 10718 bound_to 10713
  152.9796  135.5962  154.3836 H   0  0  0  0  0  0  0  0  0  0  0  0  # atno 10763 bound_to 10752
  154.3498  135.2767  155.2380 H   0  0  0  0  0  0  0  0  0  0  0  0  # atno 10764 bound_to 10752
  154.4424  135.6010  153.6193 H   0  0  0  0  0  0  0  0  0  0  0  0  # atno 10765 bound_to 10752
  140.7195  134.3743  157.5185 H   0  0  0  0  0  0  0  0  0  0  0  0  # atno 11005 bound_to 11000
  145.9273  139.2584  143.1346 LP  0  0  0  0  0  0  0  0  0  0  0  0  # atno 17320 bound_to 7965
  145.9558  140.8873  143.0236 LP  0  0  0  0  0  0  0  0  0  0  0  0  # atno 17321 bound_to 7965
  139.5632  144.2106  152.1724 LP  0  0  0  0  0  0  0  0  0  0  0  0  # atno 17342 bound_to 10162
  140.1380  144.5228  150.6762 LP  0  0  0  0  0  0  0  0  0  0  0  0  # atno 17343 bound_to 10162
  156.0820  130.5828  150.9580 LP  0  0  0  0  0  0  0  0  0  0  0  0  # atno 17370 bound_to 10713
  157.6295  131.0922  150.8469 LP  0  0  0  0  0  0  0  0  0  0  0  0  # atno 17371 bound_to 10713
  139.8852  134.8945  156.2660 LP  0  0  0  0  0  0  0  0  0  0  0  0  # atno 17394 bound_to 11000
  141.0016  133.7148  156.0969 LP  0  0  0  0  0  0  0  0  0  0  0  0  # atno 17395 bound_to 11000

$$$$
