AV-unprocessed.smi:3334|AV-procd|sdf|12836|dock6
  -GOLD-   2272019223D 1   1.00000     0.00000
 Structure written by MMmdl.
 41 42  0  0  0  0  0  0  0  0  1 V2000
  153.7021  139.6145  160.2117 C   0  0  0  0  0  0  0  0  0  0  0  0
  154.0964  141.0287  160.6615 C   0  0  0  0  0  0  0  0  0  0  0  0
  154.3052  141.1239  162.1783 C   0  0  0  0  0  0  0  0  0  0  0  0
  153.1354  142.0647  160.1659 C   0  0  0  0  0  0  0  0  0  0  0  0
  152.7119  142.1207  158.9008 N   0  0  0  0  0  0  0  0  0  0  0  0
  151.8208  143.1738  158.6699 C   0  0  0  0  0  0  0  0  0  0  0  0
  151.2811  143.4029  157.2855 C   0  0  0  0  0  0  0  0  0  0  0  0
  151.1520  142.1106  156.4568 C   0  0  0  0  0  0  0  0  0  0  0  0
  149.9577  142.1298  155.6174 N   0  0  0  0  0  0  0  0  0  0  0  0
  149.5813  141.1490  154.7848 C   0  0  0  0  0  0  0  0  0  0  0  0
  150.2953  140.1874  154.5001 O   0  0  0  0  0  0  0  0  0  0  0  0
  148.1614  141.2504  154.2182 C   0  0  0  0  0  0  0  0  0  0  0  0
  147.4008  142.5027  154.7090 C   0  0  1  0  0  0  0  0  0  0  0  0
  146.2623  142.9233  153.8090 C   0  0  0  0  0  0  0  0  0  0  0  0
  145.1193  143.0885  154.4696 C   0  0  0  0  0  0  0  0  0  0  0  0
  145.2577  142.8022  155.9388 C   0  0  0  0  0  0  0  0  0  0  0  0
  146.7132  142.3039  156.0839 C   0  0  0  0  0  0  0  0  0  0  0  0
  151.5837  143.9344  159.7873 C   0  0  0  0  0  0  0  0  0  0  0  0
  152.4770  143.3567  161.1676 S   0  0  0  0  0  0  0  0  0  0  0  0
  153.6211  139.5569  159.1257 H   0  0  0  0  0  0  0  0  0  0  0  0
  152.7432  139.3135  160.6346 H   0  0  0  0  0  0  0  0  0  0  0  0
  154.4456  138.8818  160.5259 H   0  0  0  0  0  0  0  0  0  0  0  0
  155.0604  141.2442  160.1984 H   0  0  0  0  0  0  0  0  0  0  0  0
  154.6546  142.1168  162.4633 H   0  0  0  0  0  0  0  0  0  0  0  0
  155.0483  140.4029  162.5191 H   0  0  0  0  0  0  0  0  0  0  0  0
  153.3794  140.9256  162.7187 H   0  0  0  0  0  0  0  0  0  0  0  0
  150.2994  143.8740  157.3518 H   0  0  0  0  0  0  0  0  0  0  0  0
  151.9095  144.1143  156.7489 H   0  0  0  0  0  0  0  0  0  0  0  0
  152.0372  141.9613  155.8380 H   0  0  0  0  0  0  0  0  0  0  0  0
  151.1049  141.2660  157.1462 H   0  0  0  0  0  0  0  0  0  0  0  0
  149.3059  142.8842  155.7791 H   0  0  0  0  0  0  0  0  0  0  0  0
  148.2052  141.2523  153.1275 H   0  0  0  0  0  0  0  0  0  0  0  0
  147.6146  140.3513  154.5036 H   0  0  0  0  0  0  0  0  0  0  0  0
  148.0893  143.3468  154.7720 H   0  0  0  0  0  0  0  0  0  0  0  0
  146.3904  143.0871  152.7488 H   0  0  0  0  0  0  0  0  0  0  0  0
  144.1848  143.4006  154.0275 H   0  0  0  0  0  0  0  0  0  0  0  0
  145.0835  143.7137  156.5110 H   0  0  0  0  0  0  0  0  0  0  0  0
  144.5368  142.0473  156.2541 H   0  0  0  0  0  0  0  0  0  0  0  0
  146.7081  141.2497  156.3640 H   0  0  0  0  0  0  0  0  0  0  0  0
  147.2415  142.8393  156.8734 H   0  0  0  0  0  0  0  0  0  0  0  0
  150.9549  144.8076  159.8773 H   0  0  0  0  0  0  0  0  0  0  0  0
  1  2  1  0  0  0  0
  1 20  1  0  0  0  0
  1 21  1  0  0  0  0
  1 22  1  0  0  0  0
  2  3  1  0  0  0  0
  2  4  1  0  0  0  0
  2 23  1  0  0  0  0
  3 24  1  0  0  0  0
  3 25  1  0  0  0  0
  3 26  1  0  0  0  0
  4 19  1  0  0  0  0
  4  5  2  0  0  0  0
  5  6  1  0  0  0  0
  6  7  1  0  0  0  0
  6 18  2  0  0  0  0
  7  8  1  0  0  0  0
  7 27  1  0  0  0  0
  7 28  1  0  0  0  0
  8  9  1  0  0  0  0
  8 29  1  0  0  0  0
  8 30  1  0  0  0  0
  9 10  1  0  0  0  0
  9 31  1  0  0  0  0
 10 11  2  0  0  0  0
 10 12  1  0  0  0  0
 12 13  1  0  0  0  0
 12 32  1  0  0  0  0
 12 33  1  0  0  0  0
 13 17  1  0  0  0  0
 13 14  1  0  0  0  0
 13 34  1  0  0  0  0
 14 15  2  0  0  0  0
 14 35  1  0  0  0  0
 15 16  1  0  0  0  0
 15 36  1  0  0  0  0
 16 17  1  0  0  0  0
 16 37  1  0  0  0  0
 16 38  1  0  0  0  0
 17 39  1  0  0  0  0
 17 40  1  0  0  0  0
 18 19  1  0  0  0  0
 18 41  1  0  0  0  0
M  END
> <s_m_source_file>
AV-unprocessed.smi

> <i_m_source_file_index>
3334

> <i_lp_mmshare_version>
43012

> <i_f3d_flags>
0

> <s_epik_input>
W0NIM11bQ0hdKFtDSDNdKWMxbmMoW2NIXXMxKVtDSDJdW0NIMl1bTkhdQyg9TylbQ0gyXVtDQEBIXTJbQ0hdPVtDSF1bQ0gyXVtDSDJdMg==

> <s_epik_cmdline>
J2VwaWtfcHl0aG9uJywgJy1waCcsICc3LjAnLCAnLXRuJywgJzgnLCAnLW1hJywgJzIwMCcsICctbWV0YWxfYmluZGluZycsICctaW1hZScsICc8aW5maWxlLm1hZT4nLCAnLW9tYWUnLCAnPG91dGZpbGUubWFlPic=

> <r_epik_Ionization_Penalty>
0.000771592

> <r_epik_Ionization_Penalty_Charging>
0

> <r_epik_Ionization_Penalty_Neutral>
0.000771592

> <r_epik_State_Penalty>
0.000494253

> <r_epik_Charging_Adjusted_Penalty>
0.000494253

> <i_epik_Tot_Q>
0

> <i_epik_Tot_abs_Q>
0

> <r_epik_Metal_State_Penalty>
-0

> <b_epik_Metal_Only>
0

> <s_lp_Force_Field>
OPLS_2005

> <r_lp_Energy>
5.93023

> <b_lp_Chiralities_Consistent>
1

> <s_lp_Variant>
AV-unprocessed.smi:3334-2

> <Gold.Version>
5.8.1

> <Gold.Id.Protein>
6NUR|6NUR_protein|mol2

> <Gold.PLP.Fitness>
47.9013

> <Gold.PLP.PLP>
-44.3640

> <Gold.PLP.part.hbond>
-2.0000

> <Gold.PLP.part.metal>
0.0000

> <Gold.PLP.part.buried>
-0.8025

> <Gold.PLP.part.nonpolar>
-39.9175

> <Gold.PLP.part.repulsive>
0.2623

> <Gold.PLP.ligand.clash>
0.3985

> <Gold.PLP.ligand.torsion>
1.0749

> <Gold.PLP.Chemscore.Hbond>
1.9920

> <Gold.PLP.Chemscore.CHOScore>
0.0000

> <Gold.PLP.Chemscore.Metal>
0.0000

> <Gold.Chemscore.Hbonds>
donor molecule, donor type, donor heavy atom, donor atom, acceptor molecule, acceptor atom, score
      L1  H     9    31       P1  8028  0.99
      P1  H  7989  7998       L1    11  1.00

> <Gold.PLP.Chemscore.Internal.Correction>
0.1096

> <Gold.Rescore>
     Score         DG    S(hbond)    S(metal)    S(lipo)     H(rot)  DE(clash)    DE(int)     intcor
     19.38     -20.60       1.56        0.00     117.78       1.52       0.20       1.02       ----

> <Gold.Chemscore.Fitness>
19.3752

> <Gold.Chemscore.DG>
-20.5989

> <Gold.Chemscore.ZeroCoef>
-5.4800

> <Gold.Chemscore.Hbond>
1.5628

> <Gold.Chemscore.Metal>
0.0000

> <Gold.Chemscore.Lipo>
117.7828

> <Gold.Chemscore.Internal_Hbond>
0.0000

> <Gold.Chemscore.DEClash>
0.2008

> <Gold.Chemscore.DEInternal>
1.0229

> <Gold.Chemscore.Rot>
1.5162

> <Gold.Chemscore.Internal.Correction>
   9.000000E+99

> <Gold.Chemscore.Hbonds>
donor molecule, donor type, donor heavy atom, donor atom, acceptor molecule, acceptor atom, score
      L1  H     9    31       P1  8028  0.93
      P1  H  7989  7998       L1    11  0.49

> <Gold.Chemscore.Hbond.Weighted>
-5.2199

> <Gold.Chemscore.Metal.Weighted>
-0.0000

> <Gold.Chemscore.Lipo.Weighted>
-13.7806

> <Gold.Chemscore.Internal_Hbond.Weighted>
0.0000

> <Gold.Chemscore.DEClash.Weighted>
0.2008

> <Gold.Chemscore.DEInternal.Weighted>
1.0229

> <Gold.Chemscore.Rot.Weighted>
3.8815

> <Gold.Chemscore.Internal.Correction.Weighted>
   9.000000E+99

> <Gold.Protein.RotatedTorsions>
[ 6907 6896 6895 6894 ] final  134.18 input  -60.11 | X-H torsion
[ 7974 7965 7964 7962 ] final  -31.14 input  175.53 | X-H torsion
[ 8008 7997 7996 7995 ] final -128.27 input   59.86 | X-H torsion
[ 10167 10162 10161 10158 ] final  -72.68 input  -65.29 | X-H torsion
[ 10718 10713 10712 10709 ] final  124.23 input   66.30 | X-H torsion
[ 10763 10752 10751 10750 ] final  -21.28 input  -60.55 | X-H torsion
[ 11005 11000 10999 10996 ] final   79.08 input  -57.11 | X-H torsion

> <Gold.Protein.ActiveResidues>
 VAL166  LYS551  ARG553  GLY616  TRP617  ASP618  TYR619  PRO620  LYS621  CYS622 
 ASP623  PHE694  ASN695  SER759  ASP760  ASP761  ALA762  ILE779  LEU786  VAL792 
 PHE793  MET794  SER795  GLU796  ALA797  LYS798  CYS799  TRP800  GLU811  SER814 

> <Gold.Protein.RotatedAtoms>
  152.3141  133.5783  159.5699 H   0  0  0  0  0  0  0  0  0  0  0  0  # atno 6907 bound_to 6896
  150.7337  134.0109  159.3678 H   0  0  0  0  0  0  0  0  0  0  0  0  # atno 6908 bound_to 6896
  151.7999  135.0712  160.0450 H   0  0  0  0  0  0  0  0  0  0  0  0  # atno 6909 bound_to 6896
  146.1090  140.5630  142.8786 H   0  0  0  0  0  0  0  0  0  0  0  0  # atno 7974 bound_to 7965
  155.2599  140.0435  157.2996 H   0  0  0  0  0  0  0  0  0  0  0  0  # atno 8008 bound_to 7997
  154.5717  140.2375  155.8151 H   0  0  0  0  0  0  0  0  0  0  0  0  # atno 8009 bound_to 7997
  156.2127  140.2994  155.9778 H   0  0  0  0  0  0  0  0  0  0  0  0  # atno 8010 bound_to 7997
  140.5172  143.2336  151.7492 H   0  0  0  0  0  0  0  0  0  0  0  0  # atno 10167 bound_to 10162
  157.5602  131.1090  150.8552 H   0  0  0  0  0  0  0  0  0  0  0  0  # atno 10718 bound_to 10713
  153.6337  135.6988  153.5266 H   0  0  0  0  0  0  0  0  0  0  0  0  # atno 10763 bound_to 10752
  153.2838  135.4177  155.1103 H   0  0  0  0  0  0  0  0  0  0  0  0  # atno 10764 bound_to 10752
  154.8516  135.3608  154.5880 H   0  0  0  0  0  0  0  0  0  0  0  0  # atno 10765 bound_to 10752
  139.9187  134.7814  156.1732 H   0  0  0  0  0  0  0  0  0  0  0  0  # atno 11005 bound_to 11000
  144.7495  140.5154  143.6812 LP  0  0  0  0  0  0  0  0  0  0  0  0  # atno 17320 bound_to 7965
  145.5703  139.1483  143.3292 LP  0  0  0  0  0  0  0  0  0  0  0  0  # atno 17321 bound_to 7965
  139.4913  144.4307  151.9876 LP  0  0  0  0  0  0  0  0  0  0  0  0  # atno 17342 bound_to 10162
  140.3401  144.3213  150.5969 LP  0  0  0  0  0  0  0  0  0  0  0  0  # atno 17343 bound_to 10162
  156.9052  130.5261  149.5281 LP  0  0  0  0  0  0  0  0  0  0  0  0  # atno 17370 bound_to 10713
  156.0655  130.5699  150.9280 LP  0  0  0  0  0  0  0  0  0  0  0  0  # atno 17371 bound_to 10713
  141.0688  133.6807  156.2098 LP  0  0  0  0  0  0  0  0  0  0  0  0  # atno 17394 bound_to 11000
  140.6542  134.5036  157.5579 LP  0  0  0  0  0  0  0  0  0  0  0  0  # atno 17395 bound_to 11000

$$$$
