AV-unprocessed.smi:2834|AV-procd|sdf|10916|dock8
  -GOLD-   2272015363D 1   1.00000     0.00000
 Structure written by MMmdl.
 35 36  0  0  0  0  0  0  0  0  1 V2000
  146.8661  141.0391  153.1229 C   0  0  0  0  0  0  0  0  0  0  0  0
  146.5879  142.0181  154.2827 C   0  0  1  0  0  0  0  0  0  0  0  0
  147.8165  142.2795  155.0451 N   0  0  0  0  0  0  0  0  0  0  0  0
  148.6152  141.3879  155.6540 C   0  0  0  0  0  0  0  0  0  0  0  0
  148.4146  140.1734  155.6588 O   0  0  0  0  0  0  0  0  0  0  0  0
  149.6532  141.9977  156.2494 N   0  0  0  0  0  0  0  0  0  0  0  0
  150.7063  141.3898  156.9784 C   0  0  0  0  0  0  0  0  0  0  0  0
  151.5920  140.4117  156.4565 C   0  0  0  0  0  0  0  0  0  0  0  0
  152.4726  140.0280  157.3682 N   0  0  0  0  0  0  0  0  0  0  0  0
  152.1684  140.7480  158.4765 N   0  0  0  0  0  0  0  0  0  0  0  0
  152.9556  140.5754  159.6839 C   0  0  0  0  0  0  0  0  0  0  0  0
  153.3766  141.9173  160.3057 C   0  0  0  0  0  0  0  0  0  0  0  0
  154.3728  141.7069  161.1654 F   0  0  0  0  0  0  0  0  0  0  0  0
  153.7982  142.7612  159.3634 F   0  0  0  0  0  0  0  0  0  0  0  0
  152.3553  142.4671  160.9634 F   0  0  0  0  0  0  0  0  0  0  0  0
  151.0932  141.5903  158.2734 C   0  0  0  0  0  0  0  0  0  0  0  0
  145.9049  143.3056  153.8290 C   0  0  0  0  0  0  0  0  0  0  0  0
  145.1863  143.7729  155.0899 C   0  0  0  0  0  0  0  0  0  0  0  0
  144.8153  142.5837  155.7756 O   0  0  0  0  0  0  0  0  0  0  0  0
  145.5264  141.4669  155.2471 C   0  0  0  0  0  0  0  0  0  0  0  0
  145.9479  140.7758  152.5971 H   0  0  0  0  0  0  0  0  0  0  0  0
  147.3104  140.1125  153.4880 H   0  0  0  0  0  0  0  0  0  0  0  0
  147.5451  141.4647  152.3841 H   0  0  0  0  0  0  0  0  0  0  0  0
  148.0872  143.2500  155.1090 H   0  0  0  0  0  0  0  0  0  0  0  0
  149.6966  143.0031  156.1703 H   0  0  0  0  0  0  0  0  0  0  0  0
  151.6251  139.9760  155.4687 H   0  0  0  0  0  0  0  0  0  0  0  0
  152.3657  139.9989  160.3979 H   0  0  0  0  0  0  0  0  0  0  0  0
  153.8352  139.9744  159.4482 H   0  0  0  0  0  0  0  0  0  0  0  0
  150.7176  142.2378  159.0519 H   0  0  0  0  0  0  0  0  0  0  0  0
  146.5778  144.0607  153.4232 H   0  0  0  0  0  0  0  0  0  0  0  0
  145.1657  143.0829  153.0583 H   0  0  0  0  0  0  0  0  0  0  0  0
  145.8644  144.3453  155.7239 H   0  0  0  0  0  0  0  0  0  0  0  0
  144.3192  144.3964  154.8713 H   0  0  0  0  0  0  0  0  0  0  0  0
  144.8043  140.8472  154.7138 H   0  0  0  0  0  0  0  0  0  0  0  0
  145.9495  140.8545  156.0443 H   0  0  0  0  0  0  0  0  0  0  0  0
  1  2  1  0  0  0  0
  1 21  1  0  0  0  0
  1 22  1  0  0  0  0
  1 23  1  0  0  0  0
  2 20  1  0  0  0  0
  2  3  1  0  0  0  0
  2 17  1  0  0  0  0
  3  4  1  0  0  0  0
  3 24  1  0  0  0  0
  4  5  2  0  0  0  0
  4  6  1  0  0  0  0
  6  7  1  0  0  0  0
  6 25  1  0  0  0  0
  7 16  2  0  0  0  0
  7  8  1  0  0  0  0
  8  9  2  0  0  0  0
  8 26  1  0  0  0  0
  9 10  1  0  0  0  0
 10 11  1  0  0  0  0
 10 16  1  0  0  0  0
 11 12  1  0  0  0  0
 11 27  1  0  0  0  0
 11 28  1  0  0  0  0
 12 13  1  0  0  0  0
 12 14  1  0  0  0  0
 12 15  1  0  0  0  0
 16 29  1  0  0  0  0
 17 18  1  0  0  0  0
 17 30  1  0  0  0  0
 17 31  1  0  0  0  0
 18 19  1  0  0  0  0
 18 32  1  0  0  0  0
 18 33  1  0  0  0  0
 19 20  1  0  0  0  0
 20 34  1  0  0  0  0
 20 35  1  0  0  0  0
M  END
> <s_m_source_file>
AV-unprocessed.smi

> <i_m_source_file_index>
2834

> <i_lp_mmshare_version>
43012

> <i_f3d_flags>
0

> <s_epik_input>
W0NIMl0xT1tDSDJdW0NIMl1bQ0BAXTEoW0NIM10pW05IXUMoPU8pW05IXWMyW2NIXW5uKFtjSF0yKVtDSDJdQyhGKShGKUY=

> <s_epik_cmdline>
J2VwaWtfcHl0aG9uJywgJy1waCcsICc3LjAnLCAnLXRuJywgJzgnLCAnLW1hJywgJzIwMCcsICctbWV0YWxfYmluZGluZycsICctaW1hZScsICc8aW5maWxlLm1hZT4nLCAnLW9tYWUnLCAnPG91dGZpbGUubWFlPic=

> <r_lp_tautomer_probability>
1

> <r_epik_Ionization_Penalty>
3.3002e-05

> <r_epik_Ionization_Penalty_Charging>
0

> <r_epik_Ionization_Penalty_Neutral>
3.3002e-05

> <r_epik_State_Penalty>
-0

> <r_epik_Charging_Adjusted_Penalty>
0

> <i_epik_Tot_Q>
0

> <i_epik_Tot_abs_Q>
0

> <r_epik_Metal_State_Penalty>
-0

> <b_epik_Metal_Only>
0

> <s_lp_Force_Field>
OPLS_2005

> <r_lp_Energy>
24.6434

> <b_lp_Chiralities_Consistent>
1

> <s_lp_Variant>
AV-unprocessed.smi:2834-1

> <Gold.Version>
5.8.1

> <Gold.Id.Protein>
6NUR|6NUR_protein|mol2

> <Gold.PLP.Fitness>
45.7839

> <Gold.PLP.PLP>
-38.5782

> <Gold.PLP.part.hbond>
-3.0000

> <Gold.PLP.part.metal>
0.0000

> <Gold.PLP.part.buried>
-4.1469

> <Gold.PLP.part.nonpolar>
-31.4901

> <Gold.PLP.part.repulsive>
0.4094

> <Gold.PLP.ligand.clash>
0.0000

> <Gold.PLP.ligand.torsion>
0.9251

> <Gold.PLP.Chemscore.Hbond>
3.0000

> <Gold.PLP.Chemscore.CHOScore>
0.0000

> <Gold.PLP.Chemscore.Metal>
0.0000

> <Gold.Chemscore.Hbonds>
donor molecule, donor type, donor heavy atom, donor atom, acceptor molecule, acceptor atom, score
      L1  H     3    24       P1  8028  1.00
      L1  H     6    25       P1  8028  1.00
      P1  H  7997  8009       L1     9  0.99

> <Gold.PLP.Chemscore.Internal.Correction>
0.0559

> <Gold.Rescore>
     Score         DG    S(hbond)    S(metal)    S(lipo)     H(rot)  DE(clash)    DE(int)     intcor
     17.71     -19.03       2.77        0.00      66.16       1.34       0.38       0.94       ----

> <Gold.Chemscore.Fitness>
17.7107

> <Gold.Chemscore.DG>
-19.0319

> <Gold.Chemscore.ZeroCoef>
-5.4800

> <Gold.Chemscore.Hbond>
2.7682

> <Gold.Chemscore.Metal>
0.0000

> <Gold.Chemscore.Lipo>
66.1606

> <Gold.Chemscore.Internal_Hbond>
0.0000

> <Gold.Chemscore.DEClash>
0.3777

> <Gold.Chemscore.DEInternal>
0.9434

> <Gold.Chemscore.Rot>
1.3417

> <Gold.Chemscore.Internal.Correction>
   9.000000E+99

> <Gold.Chemscore.Hbonds>
donor molecule, donor type, donor heavy atom, donor atom, acceptor molecule, acceptor atom, score
      L1  H     3    24       P1  8028  0.88
      L1  H     6    25       P1  8028  0.94
      P1  H  7997  8009       L1     9  0.74

> <Gold.Chemscore.Hbond.Weighted>
-9.2458

> <Gold.Chemscore.Metal.Weighted>
-0.0000

> <Gold.Chemscore.Lipo.Weighted>
-7.7408

> <Gold.Chemscore.Internal_Hbond.Weighted>
0.0000

> <Gold.Chemscore.DEClash.Weighted>
0.3777

> <Gold.Chemscore.DEInternal.Weighted>
0.9434

> <Gold.Chemscore.Rot.Weighted>
3.4347

> <Gold.Chemscore.Internal.Correction.Weighted>
   9.000000E+99

> <Gold.Protein.RotatedTorsions>
[ 6907 6896 6895 6894 ] final   52.58 input  -60.11 | X-H torsion
[ 7974 7965 7964 7962 ] final   -8.66 input  175.53 | X-H torsion
[ 8008 7997 7996 7995 ] final  176.31 input   59.86 | X-H torsion
[ 10167 10162 10161 10158 ] final   87.28 input  -65.29 | X-H torsion
[ 10718 10713 10712 10709 ] final   30.01 input   66.30 | X-H torsion
[ 10763 10752 10751 10750 ] final   34.01 input  -60.55 | X-H torsion
[ 11005 11000 10999 10996 ] final -100.58 input  -57.11 | X-H torsion

> <Gold.Protein.ActiveResidues>
 VAL166  LYS551  ARG553  GLY616  TRP617  ASP618  TYR619  PRO620  LYS621  CYS622 
 ASP623  PHE694  ASN695  SER759  ASP760  ASP761  ALA762  ILE779  LEU786  VAL792 
 PHE793  MET794  SER795  GLU796  ALA797  LYS798  CYS799  TRP800  GLU811  SER814 

> <Gold.Protein.RotatedAtoms>
  152.3248  134.7334  160.0304 H   0  0  0  0  0  0  0  0  0  0  0  0  # atno 6907 bound_to 6896
  151.7771  133.3341  159.3469 H   0  0  0  0  0  0  0  0  0  0  0  0  # atno 6908 bound_to 6896
  150.7390  134.5897  159.6025 H   0  0  0  0  0  0  0  0  0  0  0  0  # atno 6909 bound_to 6896
  146.2274  140.2501  142.8347 H   0  0  0  0  0  0  0  0  0  0  0  0  # atno 7974 bound_to 7965
  156.0778  140.1387  156.9750 H   0  0  0  0  0  0  0  0  0  0  0  0  # atno 8008 bound_to 7997
  154.4568  140.0958  156.6829 H   0  0  0  0  0  0  0  0  0  0  0  0  # atno 8009 bound_to 7997
  155.5125  140.3454  155.4393 H   0  0  0  0  0  0  0  0  0  0  0  0  # atno 8010 bound_to 7997
  139.8790  144.6450  150.8864 H   0  0  0  0  0  0  0  0  0  0  0  0  # atno 10167 bound_to 10162
  157.2540  130.7129  149.6420 H   0  0  0  0  0  0  0  0  0  0  0  0  # atno 10718 bound_to 10713
  153.0184  135.6372  154.1602 H   0  0  0  0  0  0  0  0  0  0  0  0  # atno 10763 bound_to 10752
  154.1338  135.2839  155.3180 H   0  0  0  0  0  0  0  0  0  0  0  0  # atno 10764 bound_to 10752
  154.6174  135.5536  153.7600 H   0  0  0  0  0  0  0  0  0  0  0  0  # atno 10765 bound_to 10752
  141.1265  133.8410  157.1120 H   0  0  0  0  0  0  0  0  0  0  0  0  # atno 11005 bound_to 11000
  144.9418  140.8087  143.5625 LP  0  0  0  0  0  0  0  0  0  0  0  0  # atno 17320 bound_to 7965
  145.2453  139.2055  143.4971 LP  0  0  0  0  0  0  0  0  0  0  0  0  # atno 17321 bound_to 7965
  140.7748  143.3601  151.1844 LP  0  0  0  0  0  0  0  0  0  0  0  0  # atno 17342 bound_to 10162
  139.7213  143.9218  152.2986 LP  0  0  0  0  0  0  0  0  0  0  0  0  # atno 17343 bound_to 10162
  155.9665  130.4418  150.5357 LP  0  0  0  0  0  0  0  0  0  0  0  0  # atno 17370 bound_to 10713
  157.3247  131.0688  151.1905 LP  0  0  0  0  0  0  0  0  0  0  0  0  # atno 17371 bound_to 10713
  140.0269  134.9920  157.0703 LP  0  0  0  0  0  0  0  0  0  0  0  0  # atno 17394 bound_to 11000
  140.4348  134.1742  155.7170 LP  0  0  0  0  0  0  0  0  0  0  0  0  # atno 17395 bound_to 11000

$$$$
