AV-unprocessed.smi:1434|AV-procd|sdf|5850|dock10
  -GOLD-   22720 5523D 1   1.00000     0.00000
 Structure written by MMmdl.
 44 45  0  0  0  0  0  0  0  0  1 V2000
  146.6516  139.8654  153.0294 C   0  0  0  0  0  0  0  0  0  0  0  0
  146.8765  138.7473  154.4699 S   0  0  0  0  0  0  0  0  0  0  0  0
  147.1137  139.5565  155.6746 O   0  0  0  0  0  0  0  0  0  0  0  0
  145.8037  137.7412  154.4570 O   0  0  0  0  0  0  0  0  0  0  0  0
  148.3518  137.9395  154.0915 N   0  0  0  0  0  0  0  0  0  0  0  0
  149.5453  138.3092  154.8507 C   0  0  1  0  0  0  0  0  0  0  0  0
  150.7928  137.5979  154.2853 C   0  0  0  0  0  0  0  0  0  0  0  0
  152.0868  138.0919  154.9647 C   0  0  0  0  0  0  0  0  0  0  0  0
  152.1446  139.6315  155.0020 C   0  0  0  0  0  0  0  0  0  0  0  0
  150.9226  140.1321  155.6524 N   0  0  0  0  0  0  0  0  0  0  0  0
  150.8144  140.5751  156.9294 C   0  0  0  0  0  0  0  0  0  0  0  0
  149.7870  141.0846  157.3786 O   0  0  0  0  0  0  0  0  0  0  0  0
  151.8888  140.3279  157.7002 N   0  0  0  0  0  0  0  0  0  0  0  0
  151.9397  140.4777  159.1535 C   0  0  0  0  0  0  0  0  0  0  0  0
  152.8459  141.6497  159.5877 C   0  0  0  0  0  0  0  0  0  0  0  0
  152.1488  143.0017  159.5993 C   0  0  0  0  0  0  0  0  0  0  0  0
  152.1691  143.8135  160.7543 C   0  0  0  0  0  0  0  0  0  0  0  0
  151.4702  145.0357  160.7291 C   0  0  0  0  0  0  0  0  0  0  0  0
  150.7806  145.3977  159.5565 C   0  0  0  0  0  0  0  0  0  0  0  0
  150.8298  144.5227  158.4532 C   0  0  0  0  0  0  0  0  0  0  0  0
  151.5017  143.3510  158.4648 N   0  0  0  0  0  0  0  0  0  0  0  0
  149.7344  139.8377  154.8445 C   0  0  0  0  0  0  0  0  0  0  0  0
  145.7309  140.4346  153.1547 H   0  0  0  0  0  0  0  0  0  0  0  0
  146.5912  139.2751  152.1154 H   0  0  0  0  0  0  0  0  0  0  0  0
  147.4954  140.5519  152.9649 H   0  0  0  0  0  0  0  0  0  0  0  0
  148.5344  137.9560  153.0885 H   0  0  0  0  0  0  0  0  0  0  0  0
  149.4041  137.9943  155.8851 H   0  0  0  0  0  0  0  0  0  0  0  0
  150.6994  136.5172  154.4003 H   0  0  0  0  0  0  0  0  0  0  0  0
  150.8629  137.7896  153.2137 H   0  0  0  0  0  0  0  0  0  0  0  0
  152.1334  137.7035  155.9823 H   0  0  0  0  0  0  0  0  0  0  0  0
  152.9577  137.6943  154.4431 H   0  0  0  0  0  0  0  0  0  0  0  0
  153.0611  139.9695  155.4864 H   0  0  0  0  0  0  0  0  0  0  0  0
  152.1960  140.0244  153.9855 H   0  0  0  0  0  0  0  0  0  0  0  0
  152.6931  139.9057  157.2599 H   0  0  0  0  0  0  0  0  0  0  0  0
  150.9265  140.6423  159.5197 H   0  0  0  0  0  0  0  0  0  0  0  0
  152.2824  139.5540  159.6225 H   0  0  0  0  0  0  0  0  0  0  0  0
  153.2384  141.4497  160.5855 H   0  0  0  0  0  0  0  0  0  0  0  0
  153.7143  141.7058  158.9301 H   0  0  0  0  0  0  0  0  0  0  0  0
  152.6956  143.5028  161.6444 H   0  0  0  0  0  0  0  0  0  0  0  0
  151.4538  145.6783  161.5971 H   0  0  0  0  0  0  0  0  0  0  0  0
  150.2260  146.3230  159.5047 H   0  0  0  0  0  0  0  0  0  0  0  0
  150.3146  144.7697  157.5369 H   0  0  0  0  0  0  0  0  0  0  0  0
  149.8765  140.2055  153.8270 H   0  0  0  0  0  0  0  0  0  0  0  0
  148.8367  140.3330  155.2182 H   0  0  0  0  0  0  0  0  0  0  0  0
  1  2  1  0  0  0  0
  1 23  1  0  0  0  0
  1 24  1  0  0  0  0
  1 25  1  0  0  0  0
  2  3  2  0  0  0  0
  2  4  2  0  0  0  0
  2  5  1  0  0  0  0
  5  6  1  0  0  0  0
  5 26  1  0  0  0  0
  6 22  1  0  0  0  0
  6  7  1  0  0  0  0
  6 27  1  0  0  0  0
  7  8  1  0  0  0  0
  7 28  1  0  0  0  0
  7 29  1  0  0  0  0
  8  9  1  0  0  0  0
  8 30  1  0  0  0  0
  8 31  1  0  0  0  0
  9 10  1  0  0  0  0
  9 32  1  0  0  0  0
  9 33  1  0  0  0  0
 10 11  1  0  0  0  0
 10 22  1  0  0  0  0
 11 12  2  0  0  0  0
 11 13  1  0  0  0  0
 13 14  1  0  0  0  0
 13 34  1  0  0  0  0
 14 15  1  0  0  0  0
 14 35  1  0  0  0  0
 14 36  1  0  0  0  0
 15 16  1  0  0  0  0
 15 37  1  0  0  0  0
 15 38  1  0  0  0  0
 16 21  1  0  0  0  0
 16 17  2  0  0  0  0
 17 18  1  0  0  0  0
 17 39  1  0  0  0  0
 18 19  2  0  0  0  0
 18 40  1  0  0  0  0
 19 20  1  0  0  0  0
 19 41  1  0  0  0  0
 20 21  2  0  0  0  0
 20 42  1  0  0  0  0
 22 43  1  0  0  0  0
 22 44  1  0  0  0  0
M  END
> <s_m_source_file>
AV-unprocessed.smi

> <i_m_source_file_index>
1434

> <i_lp_mmshare_version>
43012

> <i_f3d_flags>
0

> <s_epik_input>
W0NIM11TKD1PKSg9TylbTkhdW0NAQEhdMVtDSDJdW0NIMl1bQ0gyXU4oW0NIMl0xKUMoPU8pW05IXVtDSDJdW0NIMl1jMltjSF1bY0hdW2NIXVtjSF1uMg==

> <s_epik_cmdline>
J2VwaWtfcHl0aG9uJywgJy1waCcsICc3LjAnLCAnLXRuJywgJzgnLCAnLW1hJywgJzIwMCcsICctbWV0YWxfYmluZGluZycsICctaW1hZScsICc8aW5maWxlLm1hZT4nLCAnLW9tYWUnLCAnPG91dGZpbGUubWFlPic=

> <r_epik_Ionization_Penalty>
0.0449488

> <r_epik_Ionization_Penalty_Charging>
0

> <r_epik_Ionization_Penalty_Neutral>
0.0449488

> <r_epik_State_Penalty>
0.0380669

> <r_epik_Charging_Adjusted_Penalty>
0.0380669

> <i_epik_Tot_Q>
0

> <i_epik_Tot_abs_Q>
0

> <r_epik_Metal_State_Penalty>
0.0441384

> <b_epik_Metal_Only>
0

> <s_lp_Force_Field>
OPLS_2005

> <r_lp_Energy>
20.2695

> <b_lp_Chiralities_Consistent>
1

> <s_lp_Variant>
AV-unprocessed.smi:1434-2

> <Gold.Version>
5.8.1

> <Gold.Id.Protein>
6NUR|6NUR_protein|mol2

> <Gold.PLP.Fitness>
47.7619

> <Gold.PLP.PLP>
-44.1389

> <Gold.PLP.part.hbond>
-1.0000

> <Gold.PLP.part.metal>
0.0000

> <Gold.PLP.part.buried>
-0.8299

> <Gold.PLP.part.nonpolar>
-42.1526

> <Gold.PLP.part.repulsive>
0.3211

> <Gold.PLP.ligand.clash>
0.0000

> <Gold.PLP.ligand.torsion>
0.6101

> <Gold.PLP.Chemscore.Hbond>
0.5580

> <Gold.PLP.Chemscore.CHOScore>
1.0000

> <Gold.PLP.Chemscore.Metal>
0.0000

> <Gold.Chemscore.Hbonds>
donor molecule, donor type, donor heavy atom, donor atom, acceptor molecule, acceptor atom, score
      L1  H     5    26       P1  7948  0.39
      L1  C    20    42       P1  8028  0.93
      L1  C    20    42       P1  8029  0.06

> <Gold.PLP.Chemscore.Internal.Correction>
0.1693

> <Gold.Rescore>
     Score         DG    S(hbond)    S(metal)    S(lipo)     H(rot)  DE(clash)    DE(int)     intcor
     14.25     -16.41       0.74        0.00     116.90       2.03       0.30       1.86       ----

> <Gold.Chemscore.Fitness>
14.2541

> <Gold.Chemscore.DG>
-16.4141

> <Gold.Chemscore.ZeroCoef>
-5.4800

> <Gold.Chemscore.Hbond>
0.7377

> <Gold.Chemscore.Metal>
0.0000

> <Gold.Chemscore.Lipo>
116.9009

> <Gold.Chemscore.Internal_Hbond>
0.0000

> <Gold.Chemscore.DEClash>
0.3035

> <Gold.Chemscore.DEInternal>
1.8565

> <Gold.Chemscore.Rot>
2.0340

> <Gold.Chemscore.Internal.Correction>
   9.000000E+99

> <Gold.Chemscore.Hbonds>
donor molecule, donor type, donor heavy atom, donor atom, acceptor molecule, acceptor atom, score
      L1  H     5    26       P1  7948  0.38

> <Gold.Chemscore.Hbond.Weighted>
-2.4638

> <Gold.Chemscore.Metal.Weighted>
-0.0000

> <Gold.Chemscore.Lipo.Weighted>
-13.6774

> <Gold.Chemscore.Internal_Hbond.Weighted>
0.0000

> <Gold.Chemscore.DEClash.Weighted>
0.3035

> <Gold.Chemscore.DEInternal.Weighted>
1.8565

> <Gold.Chemscore.Rot.Weighted>
5.2071

> <Gold.Chemscore.Internal.Correction.Weighted>
   9.000000E+99

> <Gold.Protein.RotatedTorsions>
[ 6907 6896 6895 6894 ] final  136.14 input  -60.11 | X-H torsion
[ 7974 7965 7964 7962 ] final   97.31 input  175.53 | X-H torsion
[ 8008 7997 7996 7995 ] final -135.58 input   59.86 | X-H torsion
[ 10167 10162 10161 10158 ] final -119.76 input  -65.29 | X-H torsion
[ 10718 10713 10712 10709 ] final -170.74 input   66.30 | X-H torsion
[ 10763 10752 10751 10750 ] final  167.62 input  -60.55 | X-H torsion
[ 11005 11000 10999 10996 ] final   12.92 input  -57.11 | X-H torsion

> <Gold.Protein.ActiveResidues>
 VAL166  LYS551  ARG553  GLY616  TRP617  ASP618  TYR619  PRO620  LYS621  CYS622 
 ASP623  PHE694  ASN695  SER759  ASP760  ASP761  ALA762  ILE779  LEU786  VAL792 
 PHE793  MET794  SER795  GLU796  ALA797  LYS798  CYS799  TRP800  GLU811  SER814 

> <Gold.Protein.RotatedAtoms>
  152.2926  133.5576  159.5566 H   0  0  0  0  0  0  0  0  0  0  0  0  # atno 6907 bound_to 6896
  150.7242  134.0407  159.3773 H   0  0  0  0  0  0  0  0  0  0  0  0  # atno 6908 bound_to 6896
  151.8311  135.0621  160.0488 H   0  0  0  0  0  0  0  0  0  0  0  0  # atno 6909 bound_to 6896
  145.4272  139.2314  143.3164 H   0  0  0  0  0  0  0  0  0  0  0  0  # atno 7974 bound_to 7965
  155.3810  140.0494  157.3043 H   0  0  0  0  0  0  0  0  0  0  0  0  # atno 8008 bound_to 7997
  154.5082  140.2182  155.9170 H   0  0  0  0  0  0  0  0  0  0  0  0  # atno 8009 bound_to 7997
  156.1551  140.3128  155.8718 H   0  0  0  0  0  0  0  0  0  0  0  0  # atno 8010 bound_to 7997
  140.0432  143.5133  152.2120 H   0  0  0  0  0  0  0  0  0  0  0  0  # atno 10167 bound_to 10162
  156.7306  130.9305  151.3104 H   0  0  0  0  0  0  0  0  0  0  0  0  # atno 10718 bound_to 10713
  154.3565  135.2753  155.2343 H   0  0  0  0  0  0  0  0  0  0  0  0  # atno 10763 bound_to 10752
  154.4550  135.5921  153.6221 H   0  0  0  0  0  0  0  0  0  0  0  0  # atno 10764 bound_to 10752
  152.9846  135.6051  154.3781 H   0  0  0  0  0  0  0  0  0  0  0  0  # atno 10765 bound_to 10752
  140.4866  134.0882  155.7762 H   0  0  0  0  0  0  0  0  0  0  0  0  # atno 11005 bound_to 11000
  146.2626  140.5004  142.8847 LP  0  0  0  0  0  0  0  0  0  0  0  0  # atno 17320 bound_to 7965
  144.8206  140.6544  143.6355 LP  0  0  0  0  0  0  0  0  0  0  0  0  # atno 17321 bound_to 7965
  139.6000  144.7579  151.3193 LP  0  0  0  0  0  0  0  0  0  0  0  0  # atno 17342 bound_to 10162
  140.7251  143.7027  150.7832 LP  0  0  0  0  0  0  0  0  0  0  0  0  # atno 17343 bound_to 10162
  157.6860  130.9186  150.0388 LP  0  0  0  0  0  0  0  0  0  0  0  0  # atno 17370 bound_to 10713
  156.1532  130.3642  149.9408 LP  0  0  0  0  0  0  0  0  0  0  0  0  # atno 17371 bound_to 10713
  141.1505  133.8977  157.2110 LP  0  0  0  0  0  0  0  0  0  0  0  0  # atno 17394 bound_to 11000
  139.9794  135.0103  156.9713 LP  0  0  0  0  0  0  0  0  0  0  0  0  # atno 17395 bound_to 11000

$$$$
