AV-unprocessed.smi:1434|AV-procd|sdf|5855|dock6
  -GOLD-   22720 5523D 1   1.00000     0.00000
 Structure written by MMmdl.
 44 45  0  0  0  0  0  0  0  0  3 V2000
  150.8583  132.5686  155.8318 C   0  0  0  0  0  0  0  0  0  0  0  0
  150.6387  134.2586  156.5163 S   0  0  0  0  0  0  0  0  0  0  0  0
  149.8313  134.0955  157.7360 O   0  0  0  0  0  0  0  0  0  0  0  0
  151.9969  134.8027  156.6764 O   0  0  0  0  0  0  0  0  0  0  0  0
  149.8153  134.9632  155.3094 N   0  5  0  0  0  0  0  0  0  0  0  0
  149.4134  136.3581  155.4211 C   0  0  2  0  0  0  0  0  0  0  0  0
  148.0154  136.5900  154.7876 C   0  0  0  0  0  0  0  0  0  0  0  0
  147.6424  138.0899  154.6432 C   0  0  0  0  0  0  0  0  0  0  0  0
  148.7530  138.9139  153.9535 C   0  0  0  0  0  0  0  0  0  0  0  0
  150.0080  138.6829  154.7039 N   0  0  0  0  0  0  0  0  0  0  0  0
  150.7285  139.6359  155.3533 C   0  0  0  0  0  0  0  0  0  0  0  0
  151.8240  139.4212  155.8741 O   0  0  0  0  0  0  0  0  0  0  0  0
  150.1330  140.8373  155.4334 N   0  0  0  0  0  0  0  0  0  0  0  0
  150.6948  141.9930  156.1187 C   0  0  0  0  0  0  0  0  0  0  0  0
  150.8130  141.7277  157.6254 C   0  0  0  0  0  0  0  0  0  0  0  0
  151.2116  142.9722  158.3950 C   0  0  0  0  0  0  0  0  0  0  0  0
  152.1504  142.9346  159.4489 C   0  0  0  0  0  0  0  0  0  0  0  0
  152.4843  144.1313  160.1170 C   0  0  0  0  0  0  0  0  0  0  0  0
  151.8744  145.3384  159.7174 C   0  0  0  0  0  0  0  0  0  0  0  0
  150.9449  145.3187  158.6576 C   0  0  0  0  0  0  0  0  0  0  0  0
  150.6511  144.1519  158.0424 N   0  3  0  0  0  0  0  0  0  0  0  0
  150.4342  137.2643  154.6785 C   0  0  0  0  0  0  0  0  0  0  0  0
  151.4078  131.9587  156.5478 H   0  0  0  0  0  0  0  0  0  0  0  0
  151.4177  132.6253  154.8982 H   0  0  0  0  0  0  0  0  0  0  0  0
  149.8823  132.1215  155.6461 H   0  0  0  0  0  0  0  0  0  0  0  0
  149.3792  136.6824  156.4622 H   0  0  0  0  0  0  0  0  0  0  0  0
  147.9911  136.1350  153.7962 H   0  0  0  0  0  0  0  0  0  0  0  0
  147.2472  136.0834  155.3720 H   0  0  0  0  0  0  0  0  0  0  0  0
  146.7148  138.1800  154.0774 H   0  0  0  0  0  0  0  0  0  0  0  0
  147.4350  138.5171  155.6264 H   0  0  0  0  0  0  0  0  0  0  0  0
  148.8874  138.5717  152.9264 H   0  0  0  0  0  0  0  0  0  0  0  0
  148.4505  139.9581  153.8780 H   0  0  0  0  0  0  0  0  0  0  0  0
  149.2262  140.9468  155.0030 H   0  0  0  0  0  0  0  0  0  0  0  0
  151.6792  142.2200  155.7058 H   0  0  0  0  0  0  0  0  0  0  0  0
  150.0589  142.8601  155.9343 H   0  0  0  0  0  0  0  0  0  0  0  0
  149.8645  141.3575  158.0171 H   0  0  0  0  0  0  0  0  0  0  0  0
  151.5497  140.9443  157.8093 H   0  0  0  0  0  0  0  0  0  0  0  0
  152.6125  142.0028  159.7413 H   0  0  0  0  0  0  0  0  0  0  0  0
  153.2008  144.1232  160.9254 H   0  0  0  0  0  0  0  0  0  0  0  0
  152.1171  146.2658  160.2155 H   0  0  0  0  0  0  0  0  0  0  0  0
  150.4323  146.1937  158.2854 H   0  0  0  0  0  0  0  0  0  0  0  0
  151.4252  137.1213  155.1121 H   0  0  0  0  0  0  0  0  0  0  0  0
  150.5256  136.9515  153.6368 H   0  0  0  0  0  0  0  0  0  0  0  0
  149.9771  144.1619  157.2764 H   0  0  0  0  0  0  0  0  0  0  0  0
  1  2  1  0  0  0  0
  1 23  1  0  0  0  0
  1 24  1  0  0  0  0
  1 25  1  0  0  0  0
  2  3  2  0  0  0  0
  2  4  2  0  0  0  0
  2  5  1  0  0  0  0
  5  6  1  0  0  0  0
  6 22  1  0  0  0  0
  6  7  1  0  0  0  0
  6 26  1  0  0  0  0
  7  8  1  0  0  0  0
  7 27  1  0  0  0  0
  7 28  1  0  0  0  0
  8  9  1  0  0  0  0
  8 29  1  0  0  0  0
  8 30  1  0  0  0  0
  9 10  1  0  0  0  0
  9 31  1  0  0  0  0
  9 32  1  0  0  0  0
 10 11  1  0  0  0  0
 10 22  1  0  0  0  0
 11 12  2  0  0  0  0
 11 13  1  0  0  0  0
 13 14  1  0  0  0  0
 13 33  1  0  0  0  0
 14 15  1  0  0  0  0
 14 34  1  0  0  0  0
 14 35  1  0  0  0  0
 15 16  1  0  0  0  0
 15 36  1  0  0  0  0
 15 37  1  0  0  0  0
 16 21  1  0  0  0  0
 16 17  2  0  0  0  0
 17 18  1  0  0  0  0
 17 38  1  0  0  0  0
 18 19  2  0  0  0  0
 18 39  1  0  0  0  0
 19 20  1  0  0  0  0
 19 40  1  0  0  0  0
 20 21  2  0  0  0  0
 20 41  1  0  0  0  0
 21 44  1  0  0  0  0
 22 42  1  0  0  0  0
 22 43  1  0  0  0  0
M  CHG  1   5  -1
M  CHG  1  21   1
M  END
> <s_m_source_file>
AV-unprocessed.smi

> <i_m_source_file_index>
1434

> <i_lp_mmshare_version>
43012

> <i_f3d_flags>
0

> <s_epik_input>
W0NIM11TKD1PKSg9TylbTkhdW0NAQEhdMVtDSDJdW0NIMl1bQ0gyXU4oW0NIMl0xKUMoPU8pW05IXVtDSDJdW0NIMl1jMltjSF1bY0hdW2NIXVtjSF1uMg==

> <s_epik_cmdline>
J2VwaWtfcHl0aG9uJywgJy1waCcsICc3LjAnLCAnLXRuJywgJzgnLCAnLW1hJywgJzIwMCcsICctbWV0YWxfYmluZGluZycsICctaW1hZScsICc8aW5maWxlLm1hZT4nLCAnLW9tYWUnLCAnPG91dGZpbGUubWFlPic=

> <r_epik_Ionization_Penalty>
8.07847

> <r_epik_Ionization_Penalty_Charging>
8.0784

> <r_epik_Ionization_Penalty_Neutral>
6.25603e-05

> <r_epik_State_Penalty>
8.17261

> <r_epik_Charging_Adjusted_Penalty>
16.251

> <i_epik_Tot_Q>
0

> <i_epik_Tot_abs_Q>
2

> <r_epik_Metal_State_Penalty>
4.14042

> <b_epik_Metal_Only>
1

> <s_lp_Force_Field>
OPLS_2005

> <r_lp_Energy>
29.5402

> <b_lp_Chiralities_Consistent>
1

> <s_lp_Variant>
AV-unprocessed.smi:1434-7

> <Gold.Version>
5.8.1

> <Gold.Id.Protein>
6NUR|6NUR_protein|mol2

> <Gold.PLP.Fitness>
48.6516

> <Gold.PLP.PLP>
-38.4900

> <Gold.PLP.part.hbond>
-3.0000

> <Gold.PLP.part.metal>
0.0000

> <Gold.PLP.part.buried>
-3.9086

> <Gold.PLP.part.nonpolar>
-31.1611

> <Gold.PLP.part.repulsive>
0.2891

> <Gold.PLP.ligand.clash>
0.0000

> <Gold.PLP.ligand.torsion>
1.2788

> <Gold.PLP.Chemscore.Hbond>
3.8940

> <Gold.PLP.Chemscore.CHOScore>
0.0000

> <Gold.PLP.Chemscore.Metal>
0.0000

> <Gold.Chemscore.Hbonds>
donor molecule, donor type, donor heavy atom, donor atom, acceptor molecule, acceptor atom, score
      L1  H    21    44       P1  8028  2.00
      P1  H  6896  6907       L1     3  0.93
      P1  H 10752 10763       L1     4  0.94

> <Gold.PLP.Chemscore.Internal.Correction>
1.0373

> <Gold.Rescore>
     Score         DG    S(hbond)    S(metal)    S(lipo)     H(rot)  DE(clash)    DE(int)     intcor
     18.91     -20.89       2.60        0.00      96.12       1.77       0.11       1.88       ----

> <Gold.Chemscore.Fitness>
18.9063

> <Gold.Chemscore.DG>
-20.8907

> <Gold.Chemscore.ZeroCoef>
-5.4800

> <Gold.Chemscore.Hbond>
2.6006

> <Gold.Chemscore.Metal>
0.0000

> <Gold.Chemscore.Lipo>
96.1190

> <Gold.Chemscore.Internal_Hbond>
0.0000

> <Gold.Chemscore.DEClash>
0.1071

> <Gold.Chemscore.DEInternal>
1.8773

> <Gold.Chemscore.Rot>
1.7661

> <Gold.Chemscore.Internal.Correction>
   9.000000E+99

> <Gold.Chemscore.Hbonds>
donor molecule, donor type, donor heavy atom, donor atom, acceptor molecule, acceptor atom, score
      L1  H    21    44       P1  8028  0.63
      P1  H  6896  6907       L1     3  0.76
      P1  H 10752 10763       L1     4  0.85

> <Gold.Chemscore.Hbond.Weighted>
-8.6859

> <Gold.Chemscore.Metal.Weighted>
-0.0000

> <Gold.Chemscore.Lipo.Weighted>
-11.2459

> <Gold.Chemscore.Internal_Hbond.Weighted>
0.0000

> <Gold.Chemscore.DEClash.Weighted>
0.1071

> <Gold.Chemscore.DEInternal.Weighted>
1.8773

> <Gold.Chemscore.Rot.Weighted>
4.5211

> <Gold.Chemscore.Internal.Correction.Weighted>
   9.000000E+99

> <Gold.Protein.RotatedTorsions>
[ 6907 6896 6895 6894 ] final -125.17 input  -60.11 | X-H torsion
[ 7974 7965 7964 7962 ] final -179.89 input  175.53 | X-H torsion
[ 8008 7997 7996 7995 ] final   73.13 input   59.86 | X-H torsion
[ 10167 10162 10161 10158 ] final -154.35 input  -65.29 | X-H torsion
[ 10718 10713 10712 10709 ] final  168.72 input   66.30 | X-H torsion
[ 10763 10752 10751 10750 ] final  100.43 input  -60.55 | X-H torsion
[ 11005 11000 10999 10996 ] final  -29.72 input  -57.11 | X-H torsion

> <Gold.Protein.ActiveResidues>
 VAL166  LYS551  ARG553  GLY616  TRP617  ASP618  TYR619  PRO620  LYS621  CYS622 
 ASP623  PHE694  ASN695  SER759  ASP760  ASP761  ALA762  ILE779  LEU786  VAL792 
 PHE793  MET794  SER795  GLU796  ALA797  LYS798  CYS799  TRP800  GLU811  SER814 

> <Gold.Protein.RotatedAtoms>
  150.8841  133.7332  159.2923 H   0  0  0  0  0  0  0  0  0  0  0  0  # atno 6907 bound_to 6896
  151.4904  135.1056  159.9811 H   0  0  0  0  0  0  0  0  0  0  0  0  # atno 6908 bound_to 6896
  152.4778  133.8135  159.7071 H   0  0  0  0  0  0  0  0  0  0  0  0  # atno 6909 bound_to 6896
  144.7140  140.0650  143.6431 H   0  0  0  0  0  0  0  0  0  0  0  0  # atno 7974 bound_to 7965
  155.7791  140.3482  155.5288 H   0  0  0  0  0  0  0  0  0  0  0  0  # atno 8008 bound_to 7997
  155.8746  140.0992  157.1548 H   0  0  0  0  0  0  0  0  0  0  0  0  # atno 8009 bound_to 7997
  154.4020  140.1334  156.4108 H   0  0  0  0  0  0  0  0  0  0  0  0  # atno 8010 bound_to 7997
  139.7021  143.9247  152.2433 H   0  0  0  0  0  0  0  0  0  0  0  0  # atno 10167 bound_to 10162
  157.0330  131.0265  151.2738 H   0  0  0  0  0  0  0  0  0  0  0  0  # atno 10718 bound_to 10713
  153.3138  135.4079  155.1359 H   0  0  0  0  0  0  0  0  0  0  0  0  # atno 10763 bound_to 10752
  154.8583  135.3571  154.5687 H   0  0  0  0  0  0  0  0  0  0  0  0  # atno 10764 bound_to 10752
  153.6117  135.7067  153.5403 H   0  0  0  0  0  0  0  0  0  0  0  0  # atno 10765 bound_to 10752
  140.9321  133.7331  156.0952 H   0  0  0  0  0  0  0  0  0  0  0  0  # atno 11005 bound_to 11000
  145.9832  139.2957  143.1029 LP  0  0  0  0  0  0  0  0  0  0  0  0  # atno 17320 bound_to 7965
  145.8987  140.9257  143.0514 LP  0  0  0  0  0  0  0  0  0  0  0  0  # atno 17321 bound_to 7965
  139.9092  144.6866  150.8581 LP  0  0  0  0  0  0  0  0  0  0  0  0  # atno 17342 bound_to 10162
  140.7712  143.3456  151.2118 LP  0  0  0  0  0  0  0  0  0  0  0  0  # atno 17343 bound_to 10162
  157.5163  130.7970  149.7760 LP  0  0  0  0  0  0  0  0  0  0  0  0  # atno 17370 bound_to 10713
  156.0063  130.3854  150.2419 LP  0  0  0  0  0  0  0  0  0  0  0  0  # atno 17371 bound_to 10713
  140.7848  134.3684  157.5479 LP  0  0  0  0  0  0  0  0  0  0  0  0  # atno 17394 bound_to 11000
  139.8799  134.9104  156.3013 LP  0  0  0  0  0  0  0  0  0  0  0  0  # atno 17395 bound_to 11000

$$$$
