AV-unprocessed.smi:3085|AV-procd|sdf|11750|dock9
  -GOLD-   2272017143D 1   1.00000     0.00000
 Structure written by MMmdl.
 28 29  0  0  0  0  0  0  0  0  2 V2000
  150.3345  144.0226  158.9017 C   0  0  0  0  0  0  0  0  0  0  0  0
  151.5177  143.5477  158.0514 C   0  0  0  0  0  0  0  0  0  0  0  0
  151.1432  142.4483  157.1127 C   0  0  0  0  0  0  0  0  0  0  0  0
  151.7149  141.2495  157.0705 N   0  0  0  0  0  0  0  0  0  0  0  0
  151.0103  140.6783  156.0470 C   0  0  0  0  0  0  0  0  0  0  0  0
  151.3086  139.2983  155.5474 C   0  0  2  0  0  0  0  0  0  0  0  0
  150.3840  138.8869  154.3860 C   0  0  0  0  0  0  0  0  0  0  0  0
  150.6609  137.4912  153.9949 N   0  3  0  0  0  0  0  0  0  0  0  0
  150.5540  136.5753  155.1480 C   0  0  0  0  0  0  0  0  0  0  0  0
  151.4600  137.0583  156.2950 C   0  0  0  0  0  0  0  0  0  0  0  0
  151.1286  138.3996  156.6407 O   0  0  0  0  0  0  0  0  0  0  0  0
  150.0938  141.4549  155.4678 N   0  0  0  0  0  0  0  0  0  0  0  0
  150.1941  142.5933  156.1859 N   0  0  0  0  0  0  0  0  0  0  0  0
  149.6268  143.4104  156.0088 H   0  0  0  0  0  0  0  0  0  0  0  0
  150.6367  144.8245  159.5754 H   0  0  0  0  0  0  0  0  0  0  0  0
  149.9356  143.2094  159.5090 H   0  0  0  0  0  0  0  0  0  0  0  0
  149.5262  144.4012  158.2751 H   0  0  0  0  0  0  0  0  0  0  0  0
  151.9157  144.3813  157.4718 H   0  0  0  0  0  0  0  0  0  0  0  0
  152.3264  143.2050  158.6984 H   0  0  0  0  0  0  0  0  0  0  0  0
  152.3513  139.2654  155.2255 H   0  0  0  0  0  0  0  0  0  0  0  0
  149.3374  138.9727  154.6822 H   0  0  0  0  0  0  0  0  0  0  0  0
  150.5307  139.5401  153.5256 H   0  0  0  0  0  0  0  0  0  0  0  0
  150.0098  137.2071  153.2766 H   0  0  0  0  0  0  0  0  0  0  0  0
  149.5154  136.5354  155.4795 H   0  0  0  0  0  0  0  0  0  0  0  0
  150.8315  135.5679  154.8369 H   0  0  0  0  0  0  0  0  0  0  0  0
  151.3279  136.4235  157.1715 H   0  0  0  0  0  0  0  0  0  0  0  0
  152.5120  136.9943  156.0122 H   0  0  0  0  0  0  0  0  0  0  0  0
  151.6004  137.4395  153.6272 H   0  0  0  0  0  0  0  0  0  0  0  0
  1  2  1  0  0  0  0
  1 15  1  0  0  0  0
  1 16  1  0  0  0  0
  1 17  1  0  0  0  0
  2  3  1  0  0  0  0
  2 18  1  0  0  0  0
  2 19  1  0  0  0  0
  3 13  1  0  0  0  0
  3  4  2  0  0  0  0
  4  5  1  0  0  0  0
  5  6  1  0  0  0  0
  5 12  2  0  0  0  0
  6 11  1  0  0  0  0
  6  7  1  0  0  0  0
  6 20  1  0  0  0  0
  7  8  1  0  0  0  0
  7 21  1  0  0  0  0
  7 22  1  0  0  0  0
  8  9  1  0  0  0  0
  8 23  1  0  0  0  0
  8 28  1  0  0  0  0
  9 10  1  0  0  0  0
  9 24  1  0  0  0  0
  9 25  1  0  0  0  0
 10 11  1  0  0  0  0
 10 26  1  0  0  0  0
 10 27  1  0  0  0  0
 12 13  1  0  0  0  0
 13 14  1  0  0  0  0
M  CHG  1   8   1
M  END
> <s_m_source_file>
AV-unprocessed.smi

> <i_m_source_file_index>
3085

> <i_lp_mmshare_version>
43012

> <i_f3d_flags>
0

> <s_epik_input>
W0NIM11bQ0gyXWMxbmMobltuSF0xKVtDQEBIXTJbQ0gyXVtOSF1bQ0gyXVtDSDJdTzI=

> <s_epik_cmdline>
J2VwaWtfcHl0aG9uJywgJy1waCcsICc3LjAnLCAnLXRuJywgJzgnLCAnLW1hJywgJzIwMCcsICctbWV0YWxfYmluZGluZycsICctaW1hZScsICc8aW5maWxlLm1hZT4nLCAnLW9tYWUnLCAnPG91dGZpbGUubWFlPic=

> <r_lp_tautomer_probability>
0.948284

> <r_epik_Ionization_Penalty>
0.107151

> <r_epik_Ionization_Penalty_Charging>
0.100865

> <r_epik_Ionization_Penalty_Neutral>
0.00628602

> <r_epik_State_Penalty>
0.429695

> <r_epik_Charging_Adjusted_Penalty>
0.530559

> <i_epik_Tot_Q>
1

> <i_epik_Tot_abs_Q>
1

> <r_epik_Metal_State_Penalty>
0.651827

> <b_epik_Metal_Only>
0

> <s_lp_Force_Field>
OPLS_2005

> <r_lp_Energy>
10.1089

> <b_lp_Chiralities_Consistent>
1

> <s_lp_Variant>
AV-unprocessed.smi:3085-1

> <Gold.Version>
5.8.1

> <Gold.Id.Protein>
6NUR|6NUR_protein|mol2

> <Gold.PLP.Fitness>
30.9979

> <Gold.PLP.PLP>
-22.0191

> <Gold.PLP.part.hbond>
-3.2933

> <Gold.PLP.part.metal>
0.0000

> <Gold.PLP.part.buried>
-3.5807

> <Gold.PLP.part.nonpolar>
-16.5430

> <Gold.PLP.part.repulsive>
0.3160

> <Gold.PLP.ligand.clash>
0.0000

> <Gold.PLP.ligand.torsion>
0.0200

> <Gold.PLP.Chemscore.Hbond>
3.0000

> <Gold.PLP.Chemscore.CHOScore>
0.0000

> <Gold.PLP.Chemscore.Metal>
0.0000

> <Gold.Chemscore.Hbonds>
donor molecule, donor type, donor heavy atom, donor atom, acceptor molecule, acceptor atom, score
      L1  H     8    23       P1  7948  2.00
      L1  H    13    14       P1  8028  1.00

> <Gold.PLP.Chemscore.Internal.Correction>
0.0188

> <Gold.Rescore>
     Score         DG    S(hbond)    S(metal)    S(lipo)     H(rot)  DE(clash)    DE(int)     intcor
     13.13     -13.29       1.80        0.00      43.79       1.30       0.14       0.02       ----

> <Gold.Chemscore.Fitness>
13.1326

> <Gold.Chemscore.DG>
-13.2907

> <Gold.Chemscore.ZeroCoef>
-5.4800

> <Gold.Chemscore.Hbond>
1.8020

> <Gold.Chemscore.Metal>
0.0000

> <Gold.Chemscore.Lipo>
43.7862

> <Gold.Chemscore.Internal_Hbond>
0.0000

> <Gold.Chemscore.DEClash>
0.1403

> <Gold.Chemscore.DEInternal>
0.0178

> <Gold.Chemscore.Rot>
1.3011

> <Gold.Chemscore.Internal.Correction>
   9.000000E+99

> <Gold.Chemscore.Hbonds>
donor molecule, donor type, donor heavy atom, donor atom, acceptor molecule, acceptor atom, score
      L1  H     8    23       P1  7948  0.25
      L1  H    13    14       P1  8028  0.94

> <Gold.Chemscore.Hbond.Weighted>
-6.0185

> <Gold.Chemscore.Metal.Weighted>
-0.0000

> <Gold.Chemscore.Lipo.Weighted>
-5.1230

> <Gold.Chemscore.Internal_Hbond.Weighted>
0.0000

> <Gold.Chemscore.DEClash.Weighted>
0.1403

> <Gold.Chemscore.DEInternal.Weighted>
0.0178

> <Gold.Chemscore.Rot.Weighted>
3.3308

> <Gold.Chemscore.Internal.Correction.Weighted>
   9.000000E+99

> <Gold.Protein.RotatedTorsions>
[ 6907 6896 6895 6894 ] final  -71.95 input  -60.11 | X-H torsion
[ 7974 7965 7964 7962 ] final   82.97 input  175.53 | X-H torsion
[ 8008 7997 7996 7995 ] final   33.86 input   59.86 | X-H torsion
[ 10167 10162 10161 10158 ] final -140.21 input  -65.29 | X-H torsion
[ 10718 10713 10712 10709 ] final -114.62 input   66.30 | X-H torsion
[ 10763 10752 10751 10750 ] final  -12.47 input  -60.55 | X-H torsion
[ 11005 11000 10999 10996 ] final  153.02 input  -57.11 | X-H torsion

> <Gold.Protein.ActiveResidues>
 VAL166  LYS551  ARG553  GLY616  TRP617  ASP618  TYR619  PRO620  LYS621  CYS622 
 ASP623  PHE694  ASN695  SER759  ASP760  ASP761  ALA762  ILE779  LEU786  VAL792 
 PHE793  MET794  SER795  GLU796  ALA797  LYS798  CYS799  TRP800  GLU811  SER814 

> <Gold.Protein.RotatedAtoms>
  150.7190  134.5234  159.5664 H   0  0  0  0  0  0  0  0  0  0  0  0  # atno 6907 bound_to 6896
  152.2783  134.7853  160.0410 H   0  0  0  0  0  0  0  0  0  0  0  0  # atno 6908 bound_to 6896
  151.8509  133.3404  159.3709 H   0  0  0  0  0  0  0  0  0  0  0  0  # atno 6909 bound_to 6896
  145.6180  139.2380  143.2154 H   0  0  0  0  0  0  0  0  0  0  0  0  # atno 7974 bound_to 7965
  155.1455  140.3270  155.4442 H   0  0  0  0  0  0  0  0  0  0  0  0  # atno 8008 bound_to 7997
  156.2591  140.1986  156.6518 H   0  0  0  0  0  0  0  0  0  0  0  0  # atno 8009 bound_to 7997
  154.6511  140.0558  156.9943 H   0  0  0  0  0  0  0  0  0  0  0  0  # atno 8010 bound_to 7997
  139.8304  143.7455  152.2666 H   0  0  0  0  0  0  0  0  0  0  0  0  # atno 10167 bound_to 10162
  156.0842  130.6037  150.8799 H   0  0  0  0  0  0  0  0  0  0  0  0  # atno 10718 bound_to 10713
  153.4990  135.7017  153.5842 H   0  0  0  0  0  0  0  0  0  0  0  0  # atno 10763 bound_to 10752
  153.3982  135.3879  155.1970 H   0  0  0  0  0  0  0  0  0  0  0  0  # atno 10764 bound_to 10752
  154.8712  135.3875  154.4458 H   0  0  0  0  0  0  0  0  0  0  0  0  # atno 10765 bound_to 10752
  140.1360  134.8770  157.2268 H   0  0  0  0  0  0  0  0  0  0  0  0  # atno 11005 bound_to 11000
  146.1453  140.7001  142.9348 LP  0  0  0  0  0  0  0  0  0  0  0  0  # atno 17320 bound_to 7965
  144.7242  140.4473  143.6985 LP  0  0  0  0  0  0  0  0  0  0  0  0  # atno 17321 bound_to 7965
  139.7661  144.7491  151.0293 LP  0  0  0  0  0  0  0  0  0  0  0  0  # atno 17342 bound_to 10162
  140.7807  143.4697  151.0163 LP  0  0  0  0  0  0  0  0  0  0  0  0  # atno 17343 bound_to 10162
  157.5970  131.0942  150.9024 LP  0  0  0  0  0  0  0  0  0  0  0  0  # atno 17370 bound_to 10713
  156.9188  130.5307  149.5279 LP  0  0  0  0  0  0  0  0  0  0  0  0  # atno 17371 bound_to 10713
  140.2781  134.3381  155.7351 LP  0  0  0  0  0  0  0  0  0  0  0  0  # atno 17394 bound_to 11000
  141.2178  133.7462  156.9323 LP  0  0  0  0  0  0  0  0  0  0  0  0  # atno 17395 bound_to 11000

$$$$
