AV-unprocessed.smi:3314|AV-procd|sdf|12736|dock4
  -GOLD-   2272019 83D 1   1.00000     0.00000
 Structure written by MMmdl.
 37 38  0  0  0  0  0  0  0  0  1 V2000
  152.0098  145.7572  159.8099 C   0  0  0  0  0  0  0  0  0  0  0  0
  152.0305  144.3367  159.2855 C   0  0  0  0  0  0  0  0  0  0  0  0
  152.8666  143.3629  159.8646 C   0  0  0  0  0  0  0  0  0  0  0  0
  152.8410  142.0606  159.3276 C   0  0  0  0  0  0  0  0  0  0  0  0
  153.7113  140.9627  159.9022 C   0  0  0  0  0  0  0  0  0  0  0  0
  152.0557  141.7078  158.2876 N   0  0  0  0  0  0  0  0  0  0  0  0
  151.2466  142.6376  157.7221 C   0  0  0  0  0  0  0  0  0  0  0  0
  150.3860  142.3706  156.6251 N   0  0  0  0  0  0  0  0  0  0  0  0
  150.4012  141.3170  155.7872 C   0  0  0  0  0  0  0  0  0  0  0  0
  151.2014  140.3827  155.8551 O   0  0  0  0  0  0  0  0  0  0  0  0
  149.3314  141.3457  154.6891 C   0  0  1  0  0  0  0  0  0  0  0  0
  148.6667  139.9725  154.4421 C   0  0  0  0  0  0  0  0  0  0  0  0
  147.6169  140.0588  153.4353 N   0  0  0  0  0  0  0  0  0  0  0  0
  146.9957  138.7652  153.1953 C   0  0  0  0  0  0  0  0  0  0  0  0
  146.6382  141.0604  153.8374 C   0  0  0  0  0  0  0  0  0  0  0  0
  147.2964  142.4270  154.0948 C   0  0  0  0  0  0  0  0  0  0  0  0
  148.3299  142.2893  155.0661 O   0  0  0  0  0  0  0  0  0  0  0  0
  151.2096  143.9661  158.2016 C   0  0  0  0  0  0  0  0  0  0  0  0
  152.6809  145.8767  160.6610 H   0  0  0  0  0  0  0  0  0  0  0  0
  151.0029  146.0278  160.1288 H   0  0  0  0  0  0  0  0  0  0  0  0
  152.3216  146.4516  159.0293 H   0  0  0  0  0  0  0  0  0  0  0  0
  153.5097  143.6069  160.6977 H   0  0  0  0  0  0  0  0  0  0  0  0
  154.3553  141.3426  160.6958 H   0  0  0  0  0  0  0  0  0  0  0  0
  154.3458  140.5346  159.1255 H   0  0  0  0  0  0  0  0  0  0  0  0
  153.0914  140.1674  160.3171 H   0  0  0  0  0  0  0  0  0  0  0  0
  149.6760  143.0665  156.4497 H   0  0  0  0  0  0  0  0  0  0  0  0
  149.8073  141.6845  153.7667 H   0  0  0  0  0  0  0  0  0  0  0  0
  149.4218  139.2530  154.1224 H   0  0  0  0  0  0  0  0  0  0  0  0
  148.2470  139.5916  155.3752 H   0  0  0  0  0  0  0  0  0  0  0  0
  146.2361  138.8406  152.4167 H   0  0  0  0  0  0  0  0  0  0  0  0
  146.5202  138.3816  154.0991 H   0  0  0  0  0  0  0  0  0  0  0  0
  147.7369  138.0364  152.8659 H   0  0  0  0  0  0  0  0  0  0  0  0
  145.8752  141.1641  153.0650 H   0  0  0  0  0  0  0  0  0  0  0  0
  146.1238  140.7330  154.7422 H   0  0  0  0  0  0  0  0  0  0  0  0
  147.7099  142.8360  153.1718 H   0  0  0  0  0  0  0  0  0  0  0  0
  146.5579  143.1411  154.4596 H   0  0  0  0  0  0  0  0  0  0  0  0
  150.5605  144.6976  157.7421 H   0  0  0  0  0  0  0  0  0  0  0  0
  1  2  1  0  0  0  0
  1 19  1  0  0  0  0
  1 20  1  0  0  0  0
  1 21  1  0  0  0  0
  2 18  1  0  0  0  0
  2  3  2  0  0  0  0
  3  4  1  0  0  0  0
  3 22  1  0  0  0  0
  4  5  1  0  0  0  0
  4  6  2  0  0  0  0
  5 23  1  0  0  0  0
  5 24  1  0  0  0  0
  5 25  1  0  0  0  0
  6  7  1  0  0  0  0
  7  8  1  0  0  0  0
  7 18  2  0  0  0  0
  8  9  1  0  0  0  0
  8 26  1  0  0  0  0
  9 10  2  0  0  0  0
  9 11  1  0  0  0  0
 11 17  1  0  0  0  0
 11 12  1  0  0  0  0
 11 27  1  0  0  0  0
 12 13  1  0  0  0  0
 12 28  1  0  0  0  0
 12 29  1  0  0  0  0
 13 14  1  0  0  0  0
 13 15  1  0  0  0  0
 14 30  1  0  0  0  0
 14 31  1  0  0  0  0
 14 32  1  0  0  0  0
 15 16  1  0  0  0  0
 15 33  1  0  0  0  0
 15 34  1  0  0  0  0
 16 17  1  0  0  0  0
 16 35  1  0  0  0  0
 16 36  1  0  0  0  0
 18 37  1  0  0  0  0
M  END
> <s_m_source_file>
AV-unprocessed.smi

> <i_m_source_file_index>
3314

> <i_lp_mmshare_version>
43012

> <i_f3d_flags>
0

> <s_epik_input>
W0NIM11jMVtjSF1jKFtDSDNdKW5jKFtjSF0xKVtOSF1DKD1PKVtDQEBIXTJbQ0gyXU4oW0NIM10pW0NIMl1bQ0gyXU8y

> <s_epik_cmdline>
J2VwaWtfcHl0aG9uJywgJy1waCcsICc3LjAnLCAnLXRuJywgJzgnLCAnLW1hJywgJzIwMCcsICctbWV0YWxfYmluZGluZycsICctaW1hZScsICc8aW5maWxlLm1hZT4nLCAnLW9tYWUnLCAnPG91dGZpbGUubWFlPic=

> <r_epik_Ionization_Penalty>
0.55509

> <r_epik_Ionization_Penalty_Charging>
0

> <r_epik_Ionization_Penalty_Neutral>
0.55509

> <r_epik_State_Penalty>
0.632277

> <r_epik_Charging_Adjusted_Penalty>
0.632277

> <i_epik_Tot_Q>
0

> <i_epik_Tot_abs_Q>
0

> <r_epik_Metal_State_Penalty>
0.606221

> <b_epik_Metal_Only>
0

> <s_lp_Force_Field>
OPLS_2005

> <r_lp_Energy>
21.1919

> <b_lp_Chiralities_Consistent>
1

> <s_lp_Variant>
AV-unprocessed.smi:3314-6

> <Gold.Version>
5.8.1

> <Gold.Id.Protein>
6NUR|6NUR_protein|mol2

> <Gold.PLP.Fitness>
41.4874

> <Gold.PLP.PLP>
-39.3284

> <Gold.PLP.part.hbond>
-1.4102

> <Gold.PLP.part.metal>
0.0000

> <Gold.PLP.part.buried>
-5.7840

> <Gold.PLP.part.nonpolar>
-37.2400

> <Gold.PLP.part.repulsive>
4.7232

> <Gold.PLP.ligand.clash>
0.0000

> <Gold.PLP.ligand.torsion>
0.5266

> <Gold.PLP.Chemscore.Hbond>
1.0701

> <Gold.PLP.Chemscore.CHOScore>
0.0000

> <Gold.PLP.Chemscore.Metal>
0.0000

> <Gold.Chemscore.Hbonds>
donor molecule, donor type, donor heavy atom, donor atom, acceptor molecule, acceptor atom, score
      L1  H     8    26       P1  8028  1.00

> <Gold.PLP.Chemscore.Internal.Correction>
0.0020

> <Gold.Rescore>
     Score         DG    S(hbond)    S(metal)    S(lipo)     H(rot)  DE(clash)    DE(int)     intcor
     14.83     -17.91       0.94        0.00     101.22       1.00       1.58       1.51       ----

> <Gold.Chemscore.Fitness>
14.8277

> <Gold.Chemscore.DG>
-17.9143

> <Gold.Chemscore.ZeroCoef>
-5.4800

> <Gold.Chemscore.Hbond>
0.9435

> <Gold.Chemscore.Metal>
0.0000

> <Gold.Chemscore.Lipo>
101.2217

> <Gold.Chemscore.Internal_Hbond>
0.0000

> <Gold.Chemscore.DEClash>
1.5759

> <Gold.Chemscore.DEInternal>
1.5107

> <Gold.Chemscore.Rot>
1.0000

> <Gold.Chemscore.Internal.Correction>
   9.000000E+99

> <Gold.Chemscore.Hbonds>
donor molecule, donor type, donor heavy atom, donor atom, acceptor molecule, acceptor atom, score
      L1  H     8    26       P1  8028  0.96

> <Gold.Chemscore.Hbond.Weighted>
-3.1514

> <Gold.Chemscore.Metal.Weighted>
-0.0000

> <Gold.Chemscore.Lipo.Weighted>
-11.8429

> <Gold.Chemscore.Internal_Hbond.Weighted>
0.0000

> <Gold.Chemscore.DEClash.Weighted>
1.5759

> <Gold.Chemscore.DEInternal.Weighted>
1.5107

> <Gold.Chemscore.Rot.Weighted>
2.5600

> <Gold.Chemscore.Internal.Correction.Weighted>
   9.000000E+99

> <Gold.Protein.RotatedTorsions>
[ 6907 6896 6895 6894 ] final -173.11 input  -60.11 | X-H torsion
[ 7974 7965 7964 7962 ] final  126.61 input  175.53 | X-H torsion
[ 8008 7997 7996 7995 ] final  -37.32 input   59.86 | X-H torsion
[ 10167 10162 10161 10158 ] final   98.15 input  -65.29 | X-H torsion
[ 10718 10713 10712 10709 ] final -128.32 input   66.30 | X-H torsion
[ 10763 10752 10751 10750 ] final   13.33 input  -60.55 | X-H torsion
[ 11005 11000 10999 10996 ] final  140.20 input  -57.11 | X-H torsion

> <Gold.Protein.ActiveResidues>
 VAL166  LYS551  ARG553  GLY616  TRP617  ASP618  TYR619  PRO620  LYS621  CYS622 
 ASP623  PHE694  ASN695  SER759  ASP760  ASP761  ALA762  ILE779  LEU786  VAL792 
 PHE793  MET794  SER795  GLU796  ALA797  LYS798  CYS799  TRP800  GLU811  SER814 

> <Gold.Protein.RotatedAtoms>
  151.5509  133.3417  159.2952 H   0  0  0  0  0  0  0  0  0  0  0  0  # atno 6907 bound_to 6896
  150.8479  134.7797  159.6996 H   0  0  0  0  0  0  0  0  0  0  0  0  # atno 6908 bound_to 6896
  152.4532  134.5355  159.9875 H   0  0  0  0  0  0  0  0  0  0  0  0  # atno 6909 bound_to 6896
  145.0598  139.3815  143.5012 H   0  0  0  0  0  0  0  0  0  0  0  0  # atno 7974 bound_to 7965
  154.4056  140.1607  156.2518 H   0  0  0  0  0  0  0  0  0  0  0  0  # atno 8008 bound_to 7997
  155.9112  140.3427  155.6078 H   0  0  0  0  0  0  0  0  0  0  0  0  # atno 8009 bound_to 7997
  155.7333  140.0783  157.2270 H   0  0  0  0  0  0  0  0  0  0  0  0  # atno 8010 bound_to 7997
  139.7735  144.6914  151.0123 H   0  0  0  0  0  0  0  0  0  0  0  0  # atno 10167 bound_to 10162
  156.1940  130.6814  151.0459 H   0  0  0  0  0  0  0  0  0  0  0  0  # atno 10718 bound_to 10713
  153.1732  135.6816  153.8579 H   0  0  0  0  0  0  0  0  0  0  0  0  # atno 10763 bound_to 10752
  153.7935  135.3165  155.3382 H   0  0  0  0  0  0  0  0  0  0  0  0  # atno 10764 bound_to 10752
  154.8012  135.4777  154.0373 H   0  0  0  0  0  0  0  0  0  0  0  0  # atno 10765 bound_to 10752
  140.0310  134.9352  157.0662 H   0  0  0  0  0  0  0  0  0  0  0  0  # atno 11005 bound_to 11000
  146.3523  140.0290  142.8652 LP  0  0  0  0  0  0  0  0  0  0  0  0  # atno 17320 bound_to 7965
  145.1423  140.9578  143.4481 LP  0  0  0  0  0  0  0  0  0  0  0  0  # atno 17321 bound_to 7965
  140.7815  143.4562  151.0342 LP  0  0  0  0  0  0  0  0  0  0  0  0  # atno 17342 bound_to 10162
  139.8245  143.7774  152.3178 LP  0  0  0  0  0  0  0  0  0  0  0  0  # atno 17343 bound_to 10162
  157.6946  131.0798  150.7007 LP  0  0  0  0  0  0  0  0  0  0  0  0  # atno 17370 bound_to 10713
  156.7063  130.4638  149.5559 LP  0  0  0  0  0  0  0  0  0  0  0  0  # atno 17371 bound_to 10713
  140.4226  134.1865  155.7165 LP  0  0  0  0  0  0  0  0  0  0  0  0  # atno 17394 bound_to 11000
  141.1831  133.8372  157.1187 LP  0  0  0  0  0  0  0  0  0  0  0  0  # atno 17395 bound_to 11000

$$$$
