AV-unprocessed.smi:1527|AV-procd|sdf|6147|dock10
  -GOLD-   22720 6293D 1   1.00000     0.00000
 Structure written by MMmdl.
 30 30  0  0  0  0  0  0  0  0  2 V2000
  151.0759  145.5034  160.2381 C   0  0  0  0  0  0  0  0  0  0  0  0
  152.2066  144.7171  159.5588 C   0  0  0  0  0  0  0  0  0  0  0  0
  151.9301  143.2059  159.4459 C   0  0  2  0  0  0  0  0  0  0  0  0
  153.1540  142.3755  159.8651 C   0  0  0  0  0  0  0  0  0  0  0  0
  151.5367  142.8650  158.0807 N   0  0  0  0  0  0  0  0  0  0  0  0
  151.4880  141.6253  157.5695 C   0  0  0  0  0  0  0  0  0  0  0  0
  151.7755  140.6177  158.2177 O   0  0  0  0  0  0  0  0  0  0  0  0
  151.0296  141.5263  156.1059 C   0  0  0  0  0  0  0  0  0  0  0  0
  151.2261  140.1989  155.5049 N   0  0  0  0  0  0  0  0  0  0  0  0
  152.5920  139.6951  155.6189 N   0  5  0  0  0  0  0  0  0  0  0  0
  152.8993  138.4862  155.0783 C   0  0  0  0  0  0  0  0  0  0  0  0
  154.0298  138.0059  155.1190 O   0  0  0  0  0  0  0  0  0  0  0  0
  151.8360  137.7357  154.4311 C   0  0  0  0  0  0  0  0  0  0  0  0
  150.5777  138.2138  154.3640 C   0  0  0  0  0  0  0  0  0  0  0  0
  150.2042  139.5066  154.9248 C   0  0  0  0  0  0  0  0  0  0  0  0
  149.0543  139.9445  154.8769 O   0  0  0  0  0  0  0  0  0  0  0  0
  151.3410  146.5563  160.3336 H   0  0  0  0  0  0  0  0  0  0  0  0
  150.8767  145.1193  161.2388 H   0  0  0  0  0  0  0  0  0  0  0  0
  150.1487  145.4487  159.6670 H   0  0  0  0  0  0  0  0  0  0  0  0
  152.3912  145.1348  158.5682 H   0  0  0  0  0  0  0  0  0  0  0  0
  153.1246  144.8705  160.1272 H   0  0  0  0  0  0  0  0  0  0  0  0
  151.1079  142.9666  160.1230 H   0  0  0  0  0  0  0  0  0  0  0  0
  153.4516  142.6059  160.8882 H   0  0  0  0  0  0  0  0  0  0  0  0
  154.0087  142.5729  159.2172 H   0  0  0  0  0  0  0  0  0  0  0  0
  152.9418  141.3068  159.8196 H   0  0  0  0  0  0  0  0  0  0  0  0
  151.2769  143.6318  157.4776 H   0  0  0  0  0  0  0  0  0  0  0  0
  149.9773  141.8129  156.0640 H   0  0  0  0  0  0  0  0  0  0  0  0
  151.5595  142.2730  155.5121 H   0  0  0  0  0  0  0  0  0  0  0  0
  152.0593  136.7724  153.9969 H   0  0  0  0  0  0  0  0  0  0  0  0
  149.8188  137.6214  153.8753 H   0  0  0  0  0  0  0  0  0  0  0  0
  1  2  1  0  0  0  0
  1 17  1  0  0  0  0
  1 18  1  0  0  0  0
  1 19  1  0  0  0  0
  2  3  1  0  0  0  0
  2 20  1  0  0  0  0
  2 21  1  0  0  0  0
  3  4  1  0  0  0  0
  3  5  1  0  0  0  0
  3 22  1  0  0  0  0
  4 23  1  0  0  0  0
  4 24  1  0  0  0  0
  4 25  1  0  0  0  0
  5  6  1  0  0  0  0
  5 26  1  0  0  0  0
  6  7  2  0  0  0  0
  6  8  1  0  0  0  0
  8 27  1  0  0  0  0
  8 28  1  0  0  0  0
  8  9  1  0  0  0  0
  9 10  1  0  0  0  0
  9 15  1  0  0  0  0
 10 11  1  0  0  0  0
 11 12  2  0  0  0  0
 11 13  1  0  0  0  0
 13 29  1  0  0  0  0
 13 14  2  0  0  0  0
 14 30  1  0  0  0  0
 14 15  1  0  0  0  0
 15 16  2  0  0  0  0
M  CHG  1  10  -1
M  END
> <s_m_source_file>
AV-unprocessed.smi

> <i_m_source_file_index>
1527

> <i_lp_mmshare_version>
43012

> <i_f3d_flags>
0

> <s_epik_input>
W0NIM11bQ0gyXVtDQEhdKFtDSDNdKVtOSF1DKD1PKVtDSDJdbjFbbkhdYyg9TylbY0hdW2NIXWMxPU8=

> <s_epik_cmdline>
J2VwaWtfcHl0aG9uJywgJy1waCcsICc3LjAnLCAnLXRuJywgJzgnLCAnLW1hJywgJzIwMCcsICctbWV0YWxfYmluZGluZycsICctaW1hZScsICc8aW5maWxlLm1hZT4nLCAnLW9tYWUnLCAnPG91dGZpbGUubWFlPic=

> <r_lp_tautomer_probability>
1

> <r_epik_Ionization_Penalty>
0.0984334

> <r_epik_Ionization_Penalty_Charging>
0.0984334

> <r_epik_Ionization_Penalty_Neutral>
1.93017e-08

> <r_epik_State_Penalty>
0.0346952

> <r_epik_Charging_Adjusted_Penalty>
0.133129

> <i_epik_Tot_Q>
-1

> <i_epik_Tot_abs_Q>
1

> <r_epik_Metal_State_Penalty>
0.0346952

> <b_epik_Metal_Only>
0

> <s_lp_Force_Field>
OPLS_2005

> <r_lp_Energy>
18.7632

> <b_lp_Chiralities_Consistent>
1

> <s_lp_Variant>
AV-unprocessed.smi:1527-1

> <Gold.Version>
5.8.1

> <Gold.Id.Protein>
6NUR|6NUR_protein|mol2

> <Gold.PLP.Fitness>
41.3621

> <Gold.PLP.PLP>
-37.5609

> <Gold.PLP.part.hbond>
-2.7820

> <Gold.PLP.part.metal>
0.0000

> <Gold.PLP.part.buried>
-4.0840

> <Gold.PLP.part.nonpolar>
-32.3390

> <Gold.PLP.part.repulsive>
0.1146

> <Gold.PLP.ligand.clash>
0.0000

> <Gold.PLP.ligand.torsion>
0.9861

> <Gold.PLP.Chemscore.Hbond>
1.9200

> <Gold.PLP.Chemscore.CHOScore>
0.0000

> <Gold.PLP.Chemscore.Metal>
0.0000

> <Gold.Chemscore.Hbonds>
donor molecule, donor type, donor heavy atom, donor atom, acceptor molecule, acceptor atom, score
      P1  H  7997  8009       L1    10  1.79

> <Gold.PLP.Chemscore.Internal.Correction>
0.0133

> <Gold.Rescore>
     Score         DG    S(hbond)    S(metal)    S(lipo)     H(rot)  DE(clash)    DE(int)     intcor
      8.30     -12.28       1.17        0.00      67.12       1.94       0.26       3.72       ----

> <Gold.Chemscore.Fitness>
8.2984

> <Gold.Chemscore.DG>
-12.2779

> <Gold.Chemscore.ZeroCoef>
-5.4800

> <Gold.Chemscore.Hbond>
1.1749

> <Gold.Chemscore.Metal>
0.0000

> <Gold.Chemscore.Lipo>
67.1182

> <Gold.Chemscore.Internal_Hbond>
0.0000

> <Gold.Chemscore.DEClash>
0.2564

> <Gold.Chemscore.DEInternal>
3.7231

> <Gold.Chemscore.Rot>
1.9449

> <Gold.Chemscore.Internal.Correction>
   9.000000E+99

> <Gold.Chemscore.Hbonds>
donor molecule, donor type, donor heavy atom, donor atom, acceptor molecule, acceptor atom, score
      P1  H  7997  8009       L1    10  0.19

> <Gold.Chemscore.Hbond.Weighted>
-3.9242

> <Gold.Chemscore.Metal.Weighted>
-0.0000

> <Gold.Chemscore.Lipo.Weighted>
-7.8528

> <Gold.Chemscore.Internal_Hbond.Weighted>
0.0000

> <Gold.Chemscore.DEClash.Weighted>
0.2564

> <Gold.Chemscore.DEInternal.Weighted>
3.7231

> <Gold.Chemscore.Rot.Weighted>
4.9791

> <Gold.Chemscore.Internal.Correction.Weighted>
   9.000000E+99

> <Gold.Protein.RotatedTorsions>
[ 6907 6896 6895 6894 ] final  160.30 input  -60.11 | X-H torsion
[ 7974 7965 7964 7962 ] final  -23.05 input  175.53 | X-H torsion
[ 8008 7997 7996 7995 ] final -173.31 input   59.86 | X-H torsion
[ 10167 10162 10161 10158 ] final -126.10 input  -65.29 | X-H torsion
[ 10718 10713 10712 10709 ] final   61.19 input   66.30 | X-H torsion
[ 10763 10752 10751 10750 ] final -127.82 input  -60.55 | X-H torsion
[ 11005 11000 10999 10996 ] final  -61.92 input  -57.11 | X-H torsion

> <Gold.Protein.ActiveResidues>
 VAL166  LYS551  ARG553  GLY616  TRP617  ASP618  TYR619  PRO620  LYS621  CYS622 
 ASP623  PHE694  ASN695  SER759  ASP760  ASP761  ALA762  ILE779  LEU786  VAL792 
 PHE793  MET794  SER795  GLU796  ALA797  LYS798  CYS799  TRP800  GLU811  SER814 

> <Gold.Protein.RotatedAtoms>
  151.9728  133.3731  159.4077 H   0  0  0  0  0  0  0  0  0  0  0  0  # atno 6907 bound_to 6896
  150.6946  134.4122  159.5176 H   0  0  0  0  0  0  0  0  0  0  0  0  # atno 6908 bound_to 6896
  152.1829  134.8739  160.0575 H   0  0  0  0  0  0  0  0  0  0  0  0  # atno 6909 bound_to 6896
  146.1640  140.4562  142.8560 H   0  0  0  0  0  0  0  0  0  0  0  0  # atno 7974 bound_to 7965
  155.9558  140.1135  157.0938 H   0  0  0  0  0  0  0  0  0  0  0  0  # atno 8008 bound_to 7997
  154.4120  140.1191  156.5179 H   0  0  0  0  0  0  0  0  0  0  0  0  # atno 8009 bound_to 7997
  155.6784  140.3473  155.4848 H   0  0  0  0  0  0  0  0  0  0  0  0  # atno 8010 bound_to 7997
  139.9750  143.5804  152.2399 H   0  0  0  0  0  0  0  0  0  0  0  0  # atno 10167 bound_to 10162
  157.5809  130.8981  149.9429 H   0  0  0  0  0  0  0  0  0  0  0  0  # atno 10718 bound_to 10713
  154.8754  135.3949  154.3656 H   0  0  0  0  0  0  0  0  0  0  0  0  # atno 10763 bound_to 10752
  153.4422  135.7027  153.6167 H   0  0  0  0  0  0  0  0  0  0  0  0  # atno 10764 bound_to 10752
  153.4742  135.3783  155.2377 H   0  0  0  0  0  0  0  0  0  0  0  0  # atno 10765 bound_to 10752
  141.1341  133.6635  156.5448 H   0  0  0  0  0  0  0  0  0  0  0  0  # atno 11005 bound_to 11000
  144.8066  140.6310  143.6443 LP  0  0  0  0  0  0  0  0  0  0  0  0  # atno 17320 bound_to 7965
  145.4516  139.1523  143.3915 LP  0  0  0  0  0  0  0  0  0  0  0  0  # atno 17321 bound_to 7965
  139.6452  144.7657  151.2258 LP  0  0  0  0  0  0  0  0  0  0  0  0  # atno 17342 bound_to 10162
  140.7509  143.6251  150.8476 LP  0  0  0  0  0  0  0  0  0  0  0  0  # atno 17343 bound_to 10162
  156.0855  130.3668  150.0496 LP  0  0  0  0  0  0  0  0  0  0  0  0  # atno 17370 bound_to 10713
  156.8635  130.9500  151.3616 LP  0  0  0  0  0  0  0  0  0  0  0  0  # atno 17371 bound_to 10713
  140.4111  134.7272  157.4836 LP  0  0  0  0  0  0  0  0  0  0  0  0  # atno 17394 bound_to 11000
  140.0427  134.6244  155.8960 LP  0  0  0  0  0  0  0  0  0  0  0  0  # atno 17395 bound_to 11000

$$$$
