AV-unprocessed.smi:2753|AV-procd|sdf|10614|dock2
  -GOLD-   2272015 63D 1   1.00000     0.00000
 Structure written by MMmdl.
 27 28  0  0  0  0  0  0  0  0  3 V2000
  154.7133  138.3433  162.0487 F   0  0  0  0  0  0  0  0  0  0  0  0
  155.1833  139.5624  161.7849 C   0  0  0  0  0  0  0  0  0  0  0  0
  155.3637  140.2126  162.9343 F   0  0  0  0  0  0  0  0  0  0  0  0
  156.3579  139.4512  161.1643 F   0  0  0  0  0  0  0  0  0  0  0  0
  154.2035  140.3171  160.9083 C   0  0  0  0  0  0  0  0  0  0  0  0
  153.8647  139.7920  159.6263 C   0  0  0  0  0  0  0  0  0  0  0  0
  152.9973  140.6679  159.1071 N   0  5  0  0  0  0  0  0  0  0  0  0
  152.7888  141.6763  159.9797 C   0  0  0  0  0  0  0  0  0  0  0  0
  151.8745  142.8611  159.7456 C   0  0  1  0  0  0  0  0  0  0  0  0
  152.5990  144.2032  159.9545 C   0  0  0  0  0  0  0  0  0  0  0  0
  151.6422  145.3750  159.6861 C   0  0  0  0  0  0  0  0  0  0  0  0
  150.9918  145.2468  158.2981 C   0  0  0  0  0  0  0  0  0  0  0  0
  150.2959  143.9483  158.1633 N   0  3  0  0  0  0  0  0  0  0  0  0
  151.1915  142.7893  158.3675 C   0  0  0  0  0  0  0  0  0  0  0  0
  153.5275  141.4686  161.0859 N   0  0  0  0  0  0  0  0  0  0  0  0
  154.1672  138.9055  159.0830 H   0  0  0  0  0  0  0  0  0  0  0  0
  151.0899  142.7950  160.5014 H   0  0  0  0  0  0  0  0  0  0  0  0
  152.9944  144.2659  160.9691 H   0  0  0  0  0  0  0  0  0  0  0  0
  153.4545  144.2708  159.2809 H   0  0  0  0  0  0  0  0  0  0  0  0
  150.8674  145.3984  160.4535 H   0  0  0  0  0  0  0  0  0  0  0  0
  152.1808  146.3201  159.7612 H   0  0  0  0  0  0  0  0  0  0  0  0
  150.2747  146.0528  158.1404 H   0  0  0  0  0  0  0  0  0  0  0  0
  151.7468  145.3327  157.5154 H   0  0  0  0  0  0  0  0  0  0  0  0
  149.5582  143.9059  158.8520 H   0  0  0  0  0  0  0  0  0  0  0  0
  151.9379  142.7722  157.5720 H   0  0  0  0  0  0  0  0  0  0  0  0
  150.6095  141.8715  158.2790 H   0  0  0  0  0  0  0  0  0  0  0  0
  149.8876  143.8865  157.2418 H   0  0  0  0  0  0  0  0  0  0  0  0
  1  2  1  0  0  0  0
  2  3  1  0  0  0  0
  2  4  1  0  0  0  0
  2  5  1  0  0  0  0
  5 15  1  0  0  0  0
  5  6  2  0  0  0  0
  6  7  1  0  0  0  0
  6 16  1  0  0  0  0
  7  8  1  0  0  0  0
  8  9  1  0  0  0  0
  8 15  2  0  0  0  0
  9 14  1  0  0  0  0
  9 10  1  0  0  0  0
  9 17  1  0  0  0  0
 10 11  1  0  0  0  0
 10 18  1  0  0  0  0
 10 19  1  0  0  0  0
 11 12  1  0  0  0  0
 11 20  1  0  0  0  0
 11 21  1  0  0  0  0
 12 13  1  0  0  0  0
 12 22  1  0  0  0  0
 12 23  1  0  0  0  0
 13 14  1  0  0  0  0
 13 24  1  0  0  0  0
 13 27  1  0  0  0  0
 14 25  1  0  0  0  0
 14 26  1  0  0  0  0
M  CHG  1   7  -1
M  CHG  1  13   1
M  END
> <s_m_source_file>
AV-unprocessed.smi

> <i_m_source_file_index>
2753

> <i_lp_mmshare_version>
43012

> <i_f3d_flags>
0

> <s_epik_input>
RkMoRikoRiljMVtjSF1bbkhdYyhuMSlbQ0BASF0yW0NIMl1bQ0gyXVtDSDJdW05IXVtDSDJdMg==

> <s_epik_cmdline>
J2VwaWtfcHl0aG9uJywgJy1waCcsICc3LjAnLCAnLXRuJywgJzgnLCAnLW1hJywgJzIwMCcsICctbWV0YWxfYmluZGluZycsICctaW1hZScsICc8aW5maWxlLm1hZT4nLCAnLW9tYWUnLCAnPG91dGZpbGUubWFlPic=

> <r_lp_tautomer_probability>
0.5

> <r_epik_Ionization_Penalty>
6.42345

> <r_epik_Ionization_Penalty_Charging>
5.19935

> <r_epik_Ionization_Penalty_Neutral>
1.22411

> <r_epik_State_Penalty>
5.30226

> <r_epik_Charging_Adjusted_Penalty>
10.5016

> <i_epik_Tot_Q>
0

> <i_epik_Tot_abs_Q>
2

> <r_epik_Metal_State_Penalty>
1.35744

> <b_epik_Metal_Only>
1

> <s_lp_Force_Field>
OPLS_2005

> <r_lp_Energy>
18.3827

> <b_lp_Chiralities_Consistent>
1

> <s_lp_Variant>
AV-unprocessed.smi:2753-6

> <Gold.Version>
5.8.1

> <Gold.Id.Protein>
6NUR|6NUR_protein|mol2

> <Gold.PLP.Fitness>
35.9471

> <Gold.PLP.PLP>
-29.9916

> <Gold.PLP.part.hbond>
-1.3383

> <Gold.PLP.part.metal>
0.0000

> <Gold.PLP.part.buried>
-4.1459

> <Gold.PLP.part.nonpolar>
-24.8302

> <Gold.PLP.part.repulsive>
0.0476

> <Gold.PLP.ligand.clash>
0.0000

> <Gold.PLP.ligand.torsion>
0.0430

> <Gold.PLP.Chemscore.Hbond>
2.0000

> <Gold.PLP.Chemscore.CHOScore>
0.0000

> <Gold.PLP.Chemscore.Metal>
0.0000

> <Gold.Chemscore.Hbonds>
donor molecule, donor type, donor heavy atom, donor atom, acceptor molecule, acceptor atom, score
      L1  H    13    27       P1  8028  1.97

> <Gold.PLP.Chemscore.Internal.Correction>
0.0416

> <Gold.Rescore>
     Score         DG    S(hbond)    S(metal)    S(lipo)     H(rot)  DE(clash)    DE(int)     intcor
     14.51     -14.62       0.84        0.00      75.95       1.00       0.08       0.03       ----

> <Gold.Chemscore.Fitness>
14.5051

> <Gold.Chemscore.DG>
-14.6172

> <Gold.Chemscore.ZeroCoef>
-5.4800

> <Gold.Chemscore.Hbond>
0.8415

> <Gold.Chemscore.Metal>
0.0000

> <Gold.Chemscore.Lipo>
75.9531

> <Gold.Chemscore.Internal_Hbond>
0.0000

> <Gold.Chemscore.DEClash>
0.0799

> <Gold.Chemscore.DEInternal>
0.0321

> <Gold.Chemscore.Rot>
1.0000

> <Gold.Chemscore.Internal.Correction>
   9.000000E+99

> <Gold.Chemscore.Hbonds>
donor molecule, donor type, donor heavy atom, donor atom, acceptor molecule, acceptor atom, score
      L1  H    13    27       P1  8028  0.72

> <Gold.Chemscore.Hbond.Weighted>
-2.8107

> <Gold.Chemscore.Metal.Weighted>
-0.0000

> <Gold.Chemscore.Lipo.Weighted>
-8.8865

> <Gold.Chemscore.Internal_Hbond.Weighted>
0.0000

> <Gold.Chemscore.DEClash.Weighted>
0.0799

> <Gold.Chemscore.DEInternal.Weighted>
0.0321

> <Gold.Chemscore.Rot.Weighted>
2.5600

> <Gold.Chemscore.Internal.Correction.Weighted>
   9.000000E+99

> <Gold.Protein.RotatedTorsions>
[ 6907 6896 6895 6894 ] final -112.80 input  -60.11 | X-H torsion
[ 7974 7965 7964 7962 ] final  144.78 input  175.53 | X-H torsion
[ 8008 7997 7996 7995 ] final   58.05 input   59.86 | X-H torsion
[ 10167 10162 10161 10158 ] final   -7.10 input  -65.29 | X-H torsion
[ 10718 10713 10712 10709 ] final -150.01 input   66.30 | X-H torsion
[ 10763 10752 10751 10750 ] final -145.79 input  -60.55 | X-H torsion
[ 11005 11000 10999 10996 ] final  175.95 input  -57.11 | X-H torsion

> <Gold.Protein.ActiveResidues>
 VAL166  LYS551  ARG553  GLY616  TRP617  ASP618  TYR619  PRO620  LYS621  CYS622 
 ASP623  PHE694  ASN695  SER759  ASP760  ASP761  ALA762  ILE779  LEU786  VAL792 
 PHE793  MET794  SER795  GLU796  ALA797  LYS798  CYS799  TRP800  GLU811  SER814 

> <Gold.Protein.RotatedAtoms>
  150.7784  133.9036  159.3348 H   0  0  0  0  0  0  0  0  0  0  0  0  # atno 6907 bound_to 6896
  151.6905  135.0945  160.0242 H   0  0  0  0  0  0  0  0  0  0  0  0  # atno 6908 bound_to 6896
  152.3827  133.6531  159.6210 H   0  0  0  0  0  0  0  0  0  0  0  0  # atno 6909 bound_to 6896
  144.8807  139.5704  143.5844 H   0  0  0  0  0  0  0  0  0  0  0  0  # atno 7974 bound_to 7965
  155.5437  140.3485  155.4452 H   0  0  0  0  0  0  0  0  0  0  0  0  # atno 8008 bound_to 7997
  156.0633  140.1345  156.9942 H   0  0  0  0  0  0  0  0  0  0  0  0  # atno 8009 bound_to 7997
  154.4490  140.0981  156.6534 H   0  0  0  0  0  0  0  0  0  0  0  0  # atno 8010 bound_to 7997
  140.7018  143.6118  150.8696 H   0  0  0  0  0  0  0  0  0  0  0  0  # atno 10167 bound_to 10162
  156.4405  130.8120  151.2349 H   0  0  0  0  0  0  0  0  0  0  0  0  # atno 10718 bound_to 10713
  154.8367  135.3403  154.6560 H   0  0  0  0  0  0  0  0  0  0  0  0  # atno 10763 bound_to 10752
  153.7174  135.6960  153.5026 H   0  0  0  0  0  0  0  0  0  0  0  0  # atno 10764 bound_to 10752
  153.2406  135.4386  155.0647 H   0  0  0  0  0  0  0  0  0  0  0  0  # atno 10765 bound_to 10752
  140.3678  134.7056  157.4373 H   0  0  0  0  0  0  0  0  0  0  0  0  # atno 11005 bound_to 11000
  146.2992  139.7374  142.9104 LP  0  0  0  0  0  0  0  0  0  0  0  0  # atno 17320 bound_to 7965
  145.3960  141.0379  143.3097 LP  0  0  0  0  0  0  0  0  0  0  0  0  # atno 17321 bound_to 7965
  139.9841  143.5919  152.2933 LP  0  0  0  0  0  0  0  0  0  0  0  0  # atno 17342 bound_to 10162
  139.6550  144.7662  151.2073 LP  0  0  0  0  0  0  0  0  0  0  0  0  # atno 17343 bound_to 10162
  157.7506  131.0169  150.3566 LP  0  0  0  0  0  0  0  0  0  0  0  0  # atno 17370 bound_to 10713
  156.3922  130.3900  149.7021 LP  0  0  0  0  0  0  0  0  0  0  0  0  # atno 17371 bound_to 10713
  140.0575  134.6042  155.8787 LP  0  0  0  0  0  0  0  0  0  0  0  0  # atno 17394 bound_to 11000
  141.1964  133.6591  156.5690 LP  0  0  0  0  0  0  0  0  0  0  0  0  # atno 17395 bound_to 11000

$$$$
