AV-unprocessed.smi:720|AV-procd|sdf|3499|dock5
  -GOLD-   22720 0493D 1   1.00000     0.00000
 Structure written by MMmdl.
 46 48  0  0  0  0  0  0  0  0  1 V2000
  151.4743  143.0520  157.5783 C   0  0  0  0  0  0  0  0  0  0  0  0
  150.7974  141.8139  157.9474 N   0  0  0  0  0  0  0  0  0  0  0  0
  151.7769  140.7359  157.9052 C   0  0  0  0  0  0  0  0  0  0  0  0
  149.7006  141.4927  157.0321 C   0  0  0  0  0  0  0  0  0  0  0  0
  150.1688  141.1059  155.6126 C   0  0  0  0  0  0  0  0  0  0  0  0
  149.0795  140.7660  154.7137 N   0  0  0  0  0  0  0  0  0  0  0  0
  148.0339  141.5629  154.2914 C   0  0  0  0  0  0  0  0  0  0  0  0
  147.2664  140.8197  153.4405 C   0  0  0  0  0  0  0  0  0  0  0  0
  147.9464  139.5658  153.4005 C   0  0  0  0  0  0  0  0  0  0  0  0
  147.5571  138.4271  152.6510 N   0  0  0  0  0  0  0  0  0  0  0  0
  146.3190  137.9378  152.4481 C   0  0  0  0  0  0  0  0  0  0  0  0
  145.2835  138.4512  152.8669 O   0  0  0  0  0  0  0  0  0  0  0  0
  146.2903  136.7979  151.7347 N   0  0  0  0  0  0  0  0  0  0  0  0
  145.1183  136.0109  151.3393 C   0  0  2  0  0  0  0  0  0  0  0  0
  144.3723  135.4654  152.5771 C   0  0  0  0  0  0  0  0  0  0  0  0
  144.3800  133.9427  152.3479 C   0  0  2  0  0  0  0  0  0  0  0  0
  145.8063  133.3960  152.5500 C   0  0  0  0  0  0  0  0  0  0  0  0
  146.5426  133.8888  151.2900 C   0  0  0  0  0  0  0  0  0  0  0  0
  145.4550  134.7093  150.5645 C   0  0  1  0  0  0  0  0  0  0  0  0
  144.2192  133.8580  150.8363 C   0  0  0  0  0  0  0  0  0  0  0  0
  149.0388  139.5418  154.1438 N   0  0  0  0  0  0  0  0  0  0  0  0
  150.8215  143.9132  157.7056 H   0  0  0  0  0  0  0  0  0  0  0  0
  151.8161  143.0269  156.5426 H   0  0  0  0  0  0  0  0  0  0  0  0
  152.3416  143.2190  158.2182 H   0  0  0  0  0  0  0  0  0  0  0  0
  151.3252  139.7918  158.2118 H   0  0  0  0  0  0  0  0  0  0  0  0
  152.6028  140.9397  158.5880 H   0  0  0  0  0  0  0  0  0  0  0  0
  152.1861  140.6093  156.9016 H   0  0  0  0  0  0  0  0  0  0  0  0
  149.0444  140.7328  157.4591 H   0  0  0  0  0  0  0  0  0  0  0  0
  149.0903  142.3907  156.9250 H   0  0  0  0  0  0  0  0  0  0  0  0
  150.6930  141.9528  155.1689 H   0  0  0  0  0  0  0  0  0  0  0  0
  150.8897  140.2873  155.6521 H   0  0  0  0  0  0  0  0  0  0  0  0
  147.9212  142.5818  154.6313 H   0  0  0  0  0  0  0  0  0  0  0  0
  146.3678  141.1385  152.9345 H   0  0  0  0  0  0  0  0  0  0  0  0
  148.3164  137.8881  152.2610 H   0  0  0  0  0  0  0  0  0  0  0  0
  147.1833  136.4326  151.4363 H   0  0  0  0  0  0  0  0  0  0  0  0
  144.4348  136.6317  150.7568 H   0  0  0  0  0  0  0  0  0  0  0  0
  144.8447  135.7362  153.5226 H   0  0  0  0  0  0  0  0  0  0  0  0
  143.3503  135.8456  152.6012 H   0  0  0  0  0  0  0  0  0  0  0  0
  143.6218  133.4111  152.9235 H   0  0  0  0  0  0  0  0  0  0  0  0
  146.2625  133.7660  153.4689 H   0  0  0  0  0  0  0  0  0  0  0  0
  145.8057  132.3062  152.5912 H   0  0  0  0  0  0  0  0  0  0  0  0
  147.4406  134.4608  151.5228 H   0  0  0  0  0  0  0  0  0  0  0  0
  146.8505  133.0411  150.6764 H   0  0  0  0  0  0  0  0  0  0  0  0
  145.6677  134.8712  149.5074 H   0  0  0  0  0  0  0  0  0  0  0  0
  144.2981  132.8408  150.4479 H   0  0  0  0  0  0  0  0  0  0  0  0
  143.2942  134.3089  150.4724 H   0  0  0  0  0  0  0  0  0  0  0  0
  1  2  1  0  0  0  0
  1 22  1  0  0  0  0
  1 23  1  0  0  0  0
  1 24  1  0  0  0  0
  2  3  1  0  0  0  0
  2  4  1  0  0  0  0
  3 25  1  0  0  0  0
  3 26  1  0  0  0  0
  3 27  1  0  0  0  0
  4  5  1  0  0  0  0
  4 28  1  0  0  0  0
  4 29  1  0  0  0  0
  5  6  1  0  0  0  0
  5 30  1  0  0  0  0
  5 31  1  0  0  0  0
  6 21  1  0  0  0  0
  6  7  1  0  0  0  0
  7  8  2  0  0  0  0
  7 32  1  0  0  0  0
  8  9  1  0  0  0  0
  8 33  1  0  0  0  0
  9 10  1  0  0  0  0
  9 21  2  0  0  0  0
 10 11  1  0  0  0  0
 10 34  1  0  0  0  0
 11 12  2  0  0  0  0
 11 13  1  0  0  0  0
 13 14  1  0  0  0  0
 13 35  1  0  0  0  0
 14 19  1  0  0  0  0
 14 15  1  0  0  0  0
 14 36  1  0  0  0  0
 15 16  1  0  0  0  0
 15 37  1  0  0  0  0
 15 38  1  0  0  0  0
 16 20  1  0  0  0  0
 16 17  1  0  0  0  0
 16 39  1  0  0  0  0
 17 18  1  0  0  0  0
 17 40  1  0  0  0  0
 17 41  1  0  0  0  0
 18 19  1  0  0  0  0
 18 42  1  0  0  0  0
 18 43  1  0  0  0  0
 19 20  1  0  0  0  0
 19 44  1  0  0  0  0
 20 45  1  0  0  0  0
 20 46  1  0  0  0  0
M  END
> <s_m_source_file>
AV-unprocessed.smi

> <i_m_source_file_index>
720

> <i_lp_mmshare_version>
43012

> <i_f3d_flags>
0

> <s_epik_input>
W0NIM11OKFtDSDNdKVtDSDJdW0NIMl1uMVtjSF1bY0hdYyhuMSlbTkhdQyg9TylbTkhdW0NASF0oW0NIMl1bQ0BIXTIzKVtDQEhdKFtDSDJdMylbQ0gyXVtDSDJdMg==

> <s_epik_cmdline>
J2VwaWtfcHl0aG9uJywgJy1waCcsICc3LjAnLCAnLXRuJywgJzgnLCAnLW1hJywgJzIwMCcsICctbWV0YWxfYmluZGluZycsICctaW1hZScsICc8aW5maWxlLm1hZT4nLCAnLW9tYWUnLCAnPG91dGZpbGUubWFlPic=

> <r_lp_tautomer_probability>
1

> <r_epik_Ionization_Penalty>
1.83819

> <r_epik_Ionization_Penalty_Charging>
0

> <r_epik_Ionization_Penalty_Neutral>
1.83819

> <r_epik_State_Penalty>
1.95467

> <r_epik_Charging_Adjusted_Penalty>
1.95467

> <i_epik_Tot_Q>
0

> <i_epik_Tot_abs_Q>
0

> <r_epik_Metal_State_Penalty>
1.95467

> <b_epik_Metal_Only>
0

> <s_lp_Force_Field>
OPLS_2005

> <r_lp_Energy>
64.6773

> <b_lp_Chiralities_Consistent>
1

> <s_lp_Variant>
AV-unprocessed.smi:720-5

> <Gold.Version>
5.8.1

> <Gold.Id.Protein>
6NUR|6NUR_protein|mol2

> <Gold.PLP.Fitness>
43.0810

> <Gold.PLP.PLP>
-34.7512

> <Gold.PLP.part.hbond>
-3.0000

> <Gold.PLP.part.metal>
0.0000

> <Gold.PLP.part.buried>
-4.1595

> <Gold.PLP.part.nonpolar>
-32.9112

> <Gold.PLP.part.repulsive>
4.8544

> <Gold.PLP.ligand.clash>
0.0000

> <Gold.PLP.ligand.torsion>
0.3528

> <Gold.PLP.Chemscore.Hbond>
2.0000

> <Gold.PLP.Chemscore.CHOScore>
0.9965

> <Gold.PLP.Chemscore.Metal>
0.0000

> <Gold.Chemscore.Hbonds>
donor molecule, donor type, donor heavy atom, donor atom, acceptor molecule, acceptor atom, score
      L1  H    10    34       P1  7948  0.96
      L1  H    13    35       P1  7948  0.94
      L1  C     7    32       P1  8028  1.00

> <Gold.PLP.Chemscore.Internal.Correction>
0.0459

> <Gold.Rescore>
     Score         DG    S(hbond)    S(metal)    S(lipo)     H(rot)  DE(clash)    DE(int)     intcor
     14.98     -16.93       1.93        0.00      76.21       1.53       1.42       0.53       ----

> <Gold.Chemscore.Fitness>
14.9775

> <Gold.Chemscore.DG>
-16.9309

> <Gold.Chemscore.ZeroCoef>
-5.4800

> <Gold.Chemscore.Hbond>
1.9325

> <Gold.Chemscore.Metal>
0.0000

> <Gold.Chemscore.Lipo>
76.2072

> <Gold.Chemscore.Internal_Hbond>
0.0000

> <Gold.Chemscore.DEClash>
1.4200

> <Gold.Chemscore.DEInternal>
0.5334

> <Gold.Chemscore.Rot>
1.5312

> <Gold.Chemscore.Internal.Correction>
   9.000000E+99

> <Gold.Chemscore.Hbonds>
donor molecule, donor type, donor heavy atom, donor atom, acceptor molecule, acceptor atom, score
      L1  H    10    34       P1  7948  0.92
      L1  H    13    35       P1  7948  0.91

> <Gold.Chemscore.Hbond.Weighted>
-6.4545

> <Gold.Chemscore.Metal.Weighted>
-0.0000

> <Gold.Chemscore.Lipo.Weighted>
-8.9162

> <Gold.Chemscore.Internal_Hbond.Weighted>
0.0000

> <Gold.Chemscore.DEClash.Weighted>
1.4200

> <Gold.Chemscore.DEInternal.Weighted>
0.5334

> <Gold.Chemscore.Rot.Weighted>
3.9199

> <Gold.Chemscore.Internal.Correction.Weighted>
   9.000000E+99

> <Gold.Protein.RotatedTorsions>
[ 6907 6896 6895 6894 ] final  -59.51 input  -60.11 | X-H torsion
[ 7974 7965 7964 7962 ] final   55.23 input  175.53 | X-H torsion
[ 8008 7997 7996 7995 ] final  116.26 input   59.86 | X-H torsion
[ 10167 10162 10161 10158 ] final   57.99 input  -65.29 | X-H torsion
[ 10718 10713 10712 10709 ] final    4.30 input   66.30 | X-H torsion
[ 10763 10752 10751 10750 ] final -155.25 input  -60.55 | X-H torsion
[ 11005 11000 10999 10996 ] final -149.92 input  -57.11 | X-H torsion

> <Gold.Protein.ActiveResidues>
 VAL166  LYS551  ARG553  GLY616  TRP617  ASP618  TYR619  PRO620  LYS621  CYS622 
 ASP623  PHE694  ASN695  SER759  ASP760  ASP761  ALA762  ILE779  LEU786  VAL792 
 PHE793  MET794  SER795  GLU796  ALA797  LYS798  CYS799  TRP800  GLU811  SER814 

> <Gold.Protein.RotatedAtoms>
  150.7925  134.6959  159.6522 H   0  0  0  0  0  0  0  0  0  0  0  0  # atno 6907 bound_to 6896
  152.4032  134.6247  160.0070 H   0  0  0  0  0  0  0  0  0  0  0  0  # atno 6908 bound_to 6896
  151.6512  133.3284  159.3188 H   0  0  0  0  0  0  0  0  0  0  0  0  # atno 6909 bound_to 6896
  145.9525  139.3985  143.0297 H   0  0  0  0  0  0  0  0  0  0  0  0  # atno 7974 bound_to 7965
  156.2429  140.2921  156.0496 H   0  0  0  0  0  0  0  0  0  0  0  0  # atno 8008 bound_to 7997
  155.1896  140.0406  157.2915 H   0  0  0  0  0  0  0  0  0  0  0  0  # atno 8009 bound_to 7997
  154.6204  140.2474  155.7564 H   0  0  0  0  0  0  0  0  0  0  0  0  # atno 8010 bound_to 7997
  140.1920  144.4076  150.6567 H   0  0  0  0  0  0  0  0  0  0  0  0  # atno 10167 bound_to 10162
  156.8905  130.5686  149.5650 H   0  0  0  0  0  0  0  0  0  0  0  0  # atno 10718 bound_to 10713
  154.7800  135.3172  154.8009 H   0  0  0  0  0  0  0  0  0  0  0  0  # atno 10763 bound_to 10752
  153.8723  135.6843  153.4777 H   0  0  0  0  0  0  0  0  0  0  0  0  # atno 10764 bound_to 10752
  153.1434  135.4729  154.9468 H   0  0  0  0  0  0  0  0  0  0  0  0  # atno 10765 bound_to 10752
  140.7457  134.3464  157.5137 H   0  0  0  0  0  0  0  0  0  0  0  0  # atno 11005 bound_to 11000
  145.8151  140.9707  143.0928 LP  0  0  0  0  0  0  0  0  0  0  0  0  # atno 17320 bound_to 7965
  144.6798  139.9970  143.7484 LP  0  0  0  0  0  0  0  0  0  0  0  0  # atno 17321 bound_to 7965
  140.6449  143.2211  151.6207 LP  0  0  0  0  0  0  0  0  0  0  0  0  # atno 17342 bound_to 10162
  139.5252  144.3081  152.1016 LP  0  0  0  0  0  0  0  0  0  0  0  0  # atno 17343 bound_to 10162
  156.0631  130.5680  150.9234 LP  0  0  0  0  0  0  0  0  0  0  0  0  # atno 17370 bound_to 10713
  157.6086  131.0937  150.8835 LP  0  0  0  0  0  0  0  0  0  0  0  0  # atno 17371 bound_to 10713
  139.8797  134.9110  156.3026 LP  0  0  0  0  0  0  0  0  0  0  0  0  # atno 17394 bound_to 11000
  140.9796  133.7275  156.0653 LP  0  0  0  0  0  0  0  0  0  0  0  0  # atno 17395 bound_to 11000

$$$$
