AV-unprocessed.smi:1752|AV-procd|sdf|7061|dock10
  -GOLD-   22720 8283D 1   1.00000     0.00000
 Structure written by MMmdl.
 43 44  0  0  0  0  0  0  0  0  2 V2000
  152.5595  139.1667  159.7947 C   0  0  0  0  0  0  0  0  0  0  0  0
  152.0994  140.5326  159.2591 C   0  0  1  0  0  0  0  0  0  0  0  0
  153.2063  141.6091  159.3043 C   0  0  0  0  0  0  0  0  0  0  0  0
  152.6762  142.9534  159.4439 N   0  0  0  0  0  0  0  0  0  0  0  0
  152.8941  144.0459  158.6313 C   0  0  0  0  0  0  0  0  0  0  0  0
  152.1885  145.0901  159.1571 C   0  0  0  0  0  0  0  0  0  0  0  0
  151.5655  144.5314  160.3081 C   0  0  0  0  0  0  0  0  0  0  0  0
  151.8608  143.2529  160.4784 N   0  0  0  0  0  0  0  0  0  0  0  0
  151.6124  140.3681  157.8924 N   0  0  0  0  0  0  0  0  0  0  0  0
  152.2321  139.6797  156.9175 C   0  0  0  0  0  0  0  0  0  0  0  0
  153.3186  139.1254  157.0895 O   0  0  0  0  0  0  0  0  0  0  0  0
  151.5937  139.7003  155.7204 N   0  0  0  0  0  0  0  0  0  0  0  0
  150.4339  140.5688  155.4174 C   0  0  0  0  0  0  0  0  0  0  0  0
  149.4213  139.9495  154.4248 C   0  0  0  0  0  0  0  0  0  0  0  0
  148.8225  138.5932  154.8576 C   0  0  0  0  0  0  0  0  0  0  0  0
  149.7965  137.6311  155.4406 N   0  3  1  0  0  0  0  0  0  0  0  0
  149.1622  136.3323  155.7568 C   0  0  0  0  0  0  0  0  0  0  0  0
  151.0669  137.4676  154.6837 C   0  0  0  0  0  0  0  0  0  0  0  0
  151.9559  138.7342  154.6692 C   0  0  0  0  0  0  0  0  0  0  0  0
  152.8468  139.2245  160.8449 H   0  0  0  0  0  0  0  0  0  0  0  0
  153.4170  138.7903  159.2359 H   0  0  0  0  0  0  0  0  0  0  0  0
  151.7619  138.4269  159.7198 H   0  0  0  0  0  0  0  0  0  0  0  0
  151.2677  140.8624  159.8845 H   0  0  0  0  0  0  0  0  0  0  0  0
  153.8924  141.4115  160.1300 H   0  0  0  0  0  0  0  0  0  0  0  0
  153.8042  141.5804  158.3924 H   0  0  0  0  0  0  0  0  0  0  0  0
  153.5239  143.9883  157.7555 H   0  0  0  0  0  0  0  0  0  0  0  0
  152.1269  146.0992  158.7777 H   0  0  0  0  0  0  0  0  0  0  0  0
  150.9120  145.0142  161.0200 H   0  0  0  0  0  0  0  0  0  0  0  0
  150.7377  140.8196  157.6676 H   0  0  0  0  0  0  0  0  0  0  0  0
  149.8805  140.8102  156.3265 H   0  0  0  0  0  0  0  0  0  0  0  0
  150.8048  141.5142  155.0199 H   0  0  0  0  0  0  0  0  0  0  0  0
  148.6009  140.6540  154.2840 H   0  0  0  0  0  0  0  0  0  0  0  0
  149.8613  139.8563  153.4323 H   0  0  0  0  0  0  0  0  0  0  0  0
  148.0496  138.7740  155.6054 H   0  0  0  0  0  0  0  0  0  0  0  0
  148.3233  138.1351  154.0026 H   0  0  0  0  0  0  0  0  0  0  0  0
  148.8564  135.8154  154.8464 H   0  0  0  0  0  0  0  0  0  0  0  0
  148.2804  136.4755  156.3821 H   0  0  0  0  0  0  0  0  0  0  0  0
  149.8507  135.6866  156.3027 H   0  0  0  0  0  0  0  0  0  0  0  0
  151.6398  136.6701  155.1594 H   0  0  0  0  0  0  0  0  0  0  0  0
  150.8604  137.1304  153.6670 H   0  0  0  0  0  0  0  0  0  0  0  0
  151.9063  139.2234  153.6967 H   0  0  0  0  0  0  0  0  0  0  0  0
  153.0048  138.4414  154.7446 H   0  0  0  0  0  0  0  0  0  0  0  0
  150.0694  138.0244  156.3301 H   0  0  0  0  0  0  0  0  0  0  0  0
  1  2  1  0  0  0  0
  1 20  1  0  0  0  0
  1 21  1  0  0  0  0
  1 22  1  0  0  0  0
  2  3  1  0  0  0  0
  2  9  1  0  0  0  0
  2 23  1  0  0  0  0
  3  4  1  0  0  0  0
  3 24  1  0  0  0  0
  3 25  1  0  0  0  0
  4  8  1  0  0  0  0
  4  5  1  0  0  0  0
  5  6  2  0  0  0  0
  5 26  1  0  0  0  0
  6  7  1  0  0  0  0
  6 27  1  0  0  0  0
  7  8  2  0  0  0  0
  7 28  1  0  0  0  0
  9 10  1  0  0  0  0
  9 29  1  0  0  0  0
 10 11  2  0  0  0  0
 10 12  1  0  0  0  0
 12 19  1  0  0  0  0
 12 13  1  0  0  0  0
 13 14  1  0  0  0  0
 13 30  1  0  0  0  0
 13 31  1  0  0  0  0
 14 15  1  0  0  0  0
 14 32  1  0  0  0  0
 14 33  1  0  0  0  0
 15 16  1  0  0  0  0
 15 34  1  0  0  0  0
 15 35  1  0  0  0  0
 16 17  1  0  0  0  0
 16 18  1  0  0  0  0
 16 43  1  0  0  0  0
 17 36  1  0  0  0  0
 17 37  1  0  0  0  0
 17 38  1  0  0  0  0
 18 19  1  0  0  0  0
 18 39  1  0  0  0  0
 18 40  1  0  0  0  0
 19 41  1  0  0  0  0
 19 42  1  0  0  0  0
M  CHG  1  16   1
M  END
> <s_m_source_file>
AV-unprocessed.smi

> <i_m_source_file_index>
1752

> <i_lp_mmshare_version>
43012

> <i_f3d_flags>
0

> <s_epik_input>
bjFbY0hdW2NIXVtjSF1uMVtDSDJdW0NAQEhdKFtDSDNdKVtOSF1DKD1PKU4yW0NIMl1bQ0gyXVtDSDJdTihbQ0gzXSlbQ0gyXVtDSDJdMg==

> <s_epik_cmdline>
J2VwaWtfcHl0aG9uJywgJy1waCcsICc3LjAnLCAnLXRuJywgJzgnLCAnLW1hJywgJzIwMCcsICctbWV0YWxfYmluZGluZycsICctaW1hZScsICc8aW5maWxlLm1hZT4nLCAnLW9tYWUnLCAnPG91dGZpbGUubWFlPic=

> <r_lp_tautomer_probability>
1

> <r_epik_Ionization_Penalty>
0.00208423

> <r_epik_Ionization_Penalty_Charging>
0.00203643

> <r_epik_Ionization_Penalty_Neutral>
4.77939e-05

> <r_epik_State_Penalty>
0.00139278

> <r_epik_Charging_Adjusted_Penalty>
0.00342922

> <i_epik_Tot_Q>
1

> <i_epik_Tot_abs_Q>
1

> <r_epik_Metal_State_Penalty>
-0

> <b_epik_Metal_Only>
0

> <s_lp_Force_Field>
OPLS_2005

> <r_lp_Energy>
45.7643

> <b_lp_Chiralities_Consistent>
1

> <s_lp_Variant>
AV-unprocessed.smi:1752-4

> <Gold.Version>
5.8.1

> <Gold.Id.Protein>
6NUR|6NUR_protein|mol2

> <Gold.PLP.Fitness>
43.0498

> <Gold.PLP.PLP>
-41.6804

> <Gold.PLP.part.hbond>
-0.6720

> <Gold.PLP.part.metal>
0.0000

> <Gold.PLP.part.buried>
-4.0084

> <Gold.PLP.part.nonpolar>
-37.3282

> <Gold.PLP.part.repulsive>
0.1509

> <Gold.PLP.ligand.clash>
0.0489

> <Gold.PLP.ligand.torsion>
0.6341

> <Gold.PLP.Chemscore.Hbond>
0.8723

> <Gold.PLP.Chemscore.CHOScore>
0.0000

> <Gold.PLP.Chemscore.Metal>
0.0000

> <Gold.Chemscore.Hbonds>
donor molecule, donor type, donor heavy atom, donor atom, acceptor molecule, acceptor atom, score
      P1  H  7997  8009       L1    11  0.91

> <Gold.PLP.Chemscore.Internal.Correction>
0.0695

> <Gold.Rescore>
     Score         DG    S(hbond)    S(metal)    S(lipo)     H(rot)  DE(clash)    DE(int)     intcor
     14.52     -16.34       0.84        0.00      99.60       1.41       0.07       1.75       ----

> <Gold.Chemscore.Fitness>
14.5220

> <Gold.Chemscore.DG>
-16.3377

> <Gold.Chemscore.ZeroCoef>
-5.4800

> <Gold.Chemscore.Hbond>
0.8444

> <Gold.Chemscore.Metal>
0.0000

> <Gold.Chemscore.Lipo>
99.6023

> <Gold.Chemscore.Internal_Hbond>
0.0000

> <Gold.Chemscore.DEClash>
0.0658

> <Gold.Chemscore.DEInternal>
1.7499

> <Gold.Chemscore.Rot>
1.4125

> <Gold.Chemscore.Internal.Correction>
   9.000000E+99

> <Gold.Chemscore.Hbonds>
donor molecule, donor type, donor heavy atom, donor atom, acceptor molecule, acceptor atom, score
      P1  H  7997  8009       L1    11  0.83

> <Gold.Chemscore.Hbond.Weighted>
-2.8201

> <Gold.Chemscore.Metal.Weighted>
-0.0000

> <Gold.Chemscore.Lipo.Weighted>
-11.6535

> <Gold.Chemscore.Internal_Hbond.Weighted>
0.0000

> <Gold.Chemscore.DEClash.Weighted>
0.0658

> <Gold.Chemscore.DEInternal.Weighted>
1.7499

> <Gold.Chemscore.Rot.Weighted>
3.6160

> <Gold.Chemscore.Internal.Correction.Weighted>
   9.000000E+99

> <Gold.Protein.RotatedTorsions>
[ 6907 6896 6895 6894 ] final -107.77 input  -60.11 | X-H torsion
[ 7974 7965 7964 7962 ] final -129.54 input  175.53 | X-H torsion
[ 8008 7997 7996 7995 ] final  152.04 input   59.86 | X-H torsion
[ 10167 10162 10161 10158 ] final -115.78 input  -65.29 | X-H torsion
[ 10718 10713 10712 10709 ] final   12.05 input   66.30 | X-H torsion
[ 10763 10752 10751 10750 ] final  -56.88 input  -60.55 | X-H torsion
[ 11005 11000 10999 10996 ] final  -63.24 input  -57.11 | X-H torsion

> <Gold.Protein.ActiveResidues>
 VAL166  LYS551  ARG553  GLY616  TRP617  ASP618  TYR619  PRO620  LYS621  CYS622 
 ASP623  PHE694  ASN695  SER759  ASP760  ASP761  ALA762  ILE779  LEU786  VAL792 
 PHE793  MET794  SER795  GLU796  ALA797  LYS798  CYS799  TRP800  GLU811  SER814 

> <Gold.Protein.RotatedAtoms>
  150.7463  133.9776  159.3565 H   0  0  0  0  0  0  0  0  0  0  0  0  # atno 6907 bound_to 6896
  151.7715  135.0783  160.0370 H   0  0  0  0  0  0  0  0  0  0  0  0  # atno 6908 bound_to 6896
  152.3336  133.5949  159.5863 H   0  0  0  0  0  0  0  0  0  0  0  0  # atno 6909 bound_to 6896
  144.9562  140.7398  143.4757 H   0  0  0  0  0  0  0  0  0  0  0  0  # atno 7974 bound_to 7965
  156.2647  140.2031  156.6270 H   0  0  0  0  0  0  0  0  0  0  0  0  # atno 8008 bound_to 7997
  154.6712  140.0550  157.0192 H   0  0  0  0  0  0  0  0  0  0  0  0  # atno 8009 bound_to 7997
  155.1134  140.3217  155.4518 H   0  0  0  0  0  0  0  0  0  0  0  0  # atno 8010 bound_to 7997
  140.0864  143.4740  152.1896 H   0  0  0  0  0  0  0  0  0  0  0  0  # atno 10167 bound_to 10162
  157.0045  130.6093  149.5700 H   0  0  0  0  0  0  0  0  0  0  0  0  # atno 10718 bound_to 10713
  154.2136  135.6390  153.5123 H   0  0  0  0  0  0  0  0  0  0  0  0  # atno 10763 bound_to 10752
  152.9984  135.5480  154.6188 H   0  0  0  0  0  0  0  0  0  0  0  0  # atno 10764 bound_to 10752
  154.5631  135.2910  155.0873 H   0  0  0  0  0  0  0  0  0  0  0  0  # atno 10765 bound_to 10752
  141.1386  133.6649  156.5650 H   0  0  0  0  0  0  0  0  0  0  0  0  # atno 11005 bound_to 11000
  145.2769  139.1933  143.4812 LP  0  0  0  0  0  0  0  0  0  0  0  0  # atno 17320 bound_to 7965
  146.3338  140.2724  142.8606 LP  0  0  0  0  0  0  0  0  0  0  0  0  # atno 17321 bound_to 7965
  139.5750  144.7482  151.3790 LP  0  0  0  0  0  0  0  0  0  0  0  0  # atno 17342 bound_to 10162
  140.7051  143.7533  150.7469 LP  0  0  0  0  0  0  0  0  0  0  0  0  # atno 17343 bound_to 10162
  156.0158  130.5252  150.8131 LP  0  0  0  0  0  0  0  0  0  0  0  0  # atno 17370 bound_to 10713
  157.5365  131.0939  150.9884 LP  0  0  0  0  0  0  0  0  0  0  0  0  # atno 17371 bound_to 10713
  140.3958  134.7400  157.4749 LP  0  0  0  0  0  0  0  0  0  0  0  0  # atno 17394 bound_to 11000
  140.0532  134.6100  155.8836 LP  0  0  0  0  0  0  0  0  0  0  0  0  # atno 17395 bound_to 11000

$$$$
