AV-unprocessed.smi:2724|AV-procd|sdf|10512|dock1
  -GOLD-   2272014553D 1   1.00000     0.00000
 Structure written by MMmdl.
 26 27  0  0  0  0  0  0  0  0  2 V2000
  151.1775  144.1638  160.8734 O   0  0  0  0  0  0  0  0  0  0  0  0
  152.4758  143.6489  161.0969 C   0  0  1  0  0  0  0  0  0  0  0  0
  152.5068  142.5764  162.1857 C   0  0  0  0  0  0  0  0  0  0  0  0
  153.8288  141.8562  161.9310 C   0  0  0  0  0  0  0  0  0  0  0  0
  153.9456  141.7992  160.4048 C   0  0  0  0  0  0  0  0  0  0  0  0
  153.1646  143.0167  159.8629 C   0  0  1  0  0  0  0  0  0  0  0  0
  152.2317  142.6449  158.7113 C   0  0  0  0  0  0  0  0  0  0  0  0
  151.9887  141.2875  158.4004 C   0  0  0  0  0  0  0  0  0  0  0  0
  151.1250  140.9614  157.3341 C   0  0  0  0  0  0  0  0  0  0  0  0
  150.5200  141.9999  156.5980 C   0  0  0  0  0  0  0  0  0  0  0  0
  150.7719  143.2867  156.9218 N   0  3  0  0  0  0  0  0  0  0  0  0
  151.5909  143.6396  157.9363 C   0  0  0  0  0  0  0  0  0  0  0  0
  150.9329  143.9862  159.9778 H   0  0  0  0  0  0  0  0  0  0  0  0
  153.0955  144.4780  161.4421 H   0  0  0  0  0  0  0  0  0  0  0  0
  152.4439  142.9955  163.1906 H   0  0  0  0  0  0  0  0  0  0  0  0
  151.6769  141.8796  162.0611 H   0  0  0  0  0  0  0  0  0  0  0  0
  154.6511  142.4439  162.3416 H   0  0  0  0  0  0  0  0  0  0  0  0
  153.8640  140.8685  162.3914 H   0  0  0  0  0  0  0  0  0  0  0  0
  154.9837  141.7936  160.0713 H   0  0  0  0  0  0  0  0  0  0  0  0
  153.4994  140.8658  160.0594 H   0  0  0  0  0  0  0  0  0  0  0  0
  153.8826  143.7451  159.4825 H   0  0  0  0  0  0  0  0  0  0  0  0
  152.4571  140.4990  158.9716 H   0  0  0  0  0  0  0  0  0  0  0  0
  150.9299  139.9286  157.0843 H   0  0  0  0  0  0  0  0  0  0  0  0
  149.8480  141.8416  155.7671 H   0  0  0  0  0  0  0  0  0  0  0  0
  151.7113  144.7014  158.0939 H   0  0  0  0  0  0  0  0  0  0  0  0
  150.3249  144.0245  156.3767 H   0  0  0  0  0  0  0  0  0  0  0  0
  1  2  1  0  0  0  0
  1 13  1  0  0  0  0
  2  6  1  0  0  0  0
  2  3  1  0  0  0  0
  2 14  1  0  0  0  0
  3  4  1  0  0  0  0
  3 15  1  0  0  0  0
  3 16  1  0  0  0  0
  4  5  1  0  0  0  0
  4 17  1  0  0  0  0
  4 18  1  0  0  0  0
  5  6  1  0  0  0  0
  5 19  1  0  0  0  0
  5 20  1  0  0  0  0
  6  7  1  0  0  0  0
  6 21  1  0  0  0  0
  7 12  1  0  0  0  0
  7  8  2  0  0  0  0
  8  9  1  0  0  0  0
  8 22  1  0  0  0  0
  9 10  2  0  0  0  0
  9 23  1  0  0  0  0
 10 11  1  0  0  0  0
 10 24  1  0  0  0  0
 11 12  2  0  0  0  0
 11 26  1  0  0  0  0
 12 25  1  0  0  0  0
M  CHG  1  11   1
M  END
> <s_m_source_file>
AV-unprocessed.smi

> <i_m_source_file_index>
2724

> <i_lp_mmshare_version>
43012

> <i_f3d_flags>
0

> <s_epik_input>
W09IXVtDQEBIXTFbQ0gyXVtDSDJdW0NIMl1bQ0BIXTFjMltjSF1bY0hdW2NIXW5bY0hdMg==

> <s_epik_cmdline>
J2VwaWtfcHl0aG9uJywgJy1waCcsICc3LjAnLCAnLXRuJywgJzgnLCAnLW1hJywgJzIwMCcsICctbWV0YWxfYmluZGluZycsICctaW1hZScsICc8aW5maWxlLm1hZT4nLCAnLW9tYWUnLCAnPG91dGZpbGUubWFlPic=

> <r_epik_Ionization_Penalty>
2.09455

> <r_epik_Ionization_Penalty_Charging>
2.09455

> <r_epik_Ionization_Penalty_Neutral>
5.26757e-08

> <r_epik_State_Penalty>
2.23025

> <r_epik_Charging_Adjusted_Penalty>
4.3248

> <i_epik_Tot_Q>
1

> <i_epik_Tot_abs_Q>
1

> <r_epik_Metal_State_Penalty>
6.30911

> <b_epik_Metal_Only>
0

> <s_lp_Force_Field>
OPLS_2005

> <r_lp_Energy>
31.4786

> <b_lp_Chiralities_Consistent>
1

> <s_lp_Variant>
AV-unprocessed.smi:2724-6

> <Gold.Version>
5.8.1

> <Gold.Id.Protein>
6NUR|6NUR_protein|mol2

> <Gold.PLP.Fitness>
39.3940

> <Gold.PLP.PLP>
-33.7518

> <Gold.PLP.part.hbond>
-1.0000

> <Gold.PLP.part.metal>
0.0000

> <Gold.PLP.part.buried>
-3.8235

> <Gold.PLP.part.nonpolar>
-28.9443

> <Gold.PLP.part.repulsive>
0.0245

> <Gold.PLP.ligand.clash>
0.0000

> <Gold.PLP.ligand.torsion>
0.1795

> <Gold.PLP.Chemscore.Hbond>
2.0000

> <Gold.PLP.Chemscore.CHOScore>
0.0000

> <Gold.PLP.Chemscore.Metal>
0.0000

> <Gold.Chemscore.Hbonds>
donor molecule, donor type, donor heavy atom, donor atom, acceptor molecule, acceptor atom, score
      L1  H    11    26       P1  8028  2.00

> <Gold.PLP.Chemscore.Internal.Correction>
0.0012

> <Gold.Rescore>
     Score         DG    S(hbond)    S(metal)    S(lipo)     H(rot)  DE(clash)    DE(int)     intcor
     16.14     -16.54       1.00        0.00      95.48       1.35       0.00       0.40       ----

> <Gold.Chemscore.Fitness>
16.1383

> <Gold.Chemscore.DG>
-16.5354

> <Gold.Chemscore.ZeroCoef>
-5.4800

> <Gold.Chemscore.Hbond>
0.9996

> <Gold.Chemscore.Metal>
0.0000

> <Gold.Chemscore.Lipo>
95.4846

> <Gold.Chemscore.Internal_Hbond>
0.0000

> <Gold.Chemscore.DEClash>
0.0004

> <Gold.Chemscore.DEInternal>
0.3967

> <Gold.Chemscore.Rot>
1.3496

> <Gold.Chemscore.Internal.Correction>
   9.000000E+99

> <Gold.Chemscore.Hbonds>
donor molecule, donor type, donor heavy atom, donor atom, acceptor molecule, acceptor atom, score
      L1  H    11    26       P1  8028  0.95

> <Gold.Chemscore.Hbond.Weighted>
-3.3388

> <Gold.Chemscore.Metal.Weighted>
-0.0000

> <Gold.Chemscore.Lipo.Weighted>
-11.1717

> <Gold.Chemscore.Internal_Hbond.Weighted>
0.0000

> <Gold.Chemscore.DEClash.Weighted>
0.0004

> <Gold.Chemscore.DEInternal.Weighted>
0.3967

> <Gold.Chemscore.Rot.Weighted>
3.4550

> <Gold.Chemscore.Internal.Correction.Weighted>
   9.000000E+99

> <Gold.Protein.RotatedTorsions>
[ 6907 6896 6895 6894 ] final  -14.08 input  -60.11 | X-H torsion
[ 7974 7965 7964 7962 ] final -108.57 input  175.53 | X-H torsion
[ 8008 7997 7996 7995 ] final  165.24 input   59.86 | X-H torsion
[ 10167 10162 10161 10158 ] final   -5.81 input  -65.29 | X-H torsion
[ 10718 10713 10712 10709 ] final  -82.70 input   66.30 | X-H torsion
[ 10763 10752 10751 10750 ] final   21.10 input  -60.55 | X-H torsion
[ 11005 11000 10999 10996 ] final   84.43 input  -57.11 | X-H torsion

> <Gold.Protein.ActiveResidues>
 VAL166  LYS551  ARG553  GLY616  TRP617  ASP618  TYR619  PRO620  LYS621  CYS622 
 ASP623  PHE694  ASN695  SER759  ASP760  ASP761  ALA762  ILE779  LEU786  VAL792 
 PHE793  MET794  SER795  GLU796  ALA797  LYS798  CYS799  TRP800  GLU811  SER814 

> <Gold.Protein.RotatedAtoms>
  151.3449  135.0872  159.9383 H   0  0  0  0  0  0  0  0  0  0  0  0  # atno 6907 bound_to 6896
  152.5202  133.9410  159.7637 H   0  0  0  0  0  0  0  0  0  0  0  0  # atno 6908 bound_to 6896
  150.9774  133.6227  159.2757 H   0  0  0  0  0  0  0  0  0  0  0  0  # atno 6909 bound_to 6896
  145.1912  140.9015  143.3423 H   0  0  0  0  0  0  0  0  0  0  0  0  # atno 7974 bound_to 7965
  156.1816  140.1675  156.8263 H   0  0  0  0  0  0  0  0  0  0  0  0  # atno 8008 bound_to 7997
  154.5367  140.0745  156.8472 H   0  0  0  0  0  0  0  0  0  0  0  0  # atno 8009 bound_to 7997
  155.3297  140.3378  155.4242 H   0  0  0  0  0  0  0  0  0  0  0  0  # atno 8010 bound_to 7997
  140.6976  143.6266  150.8562 H   0  0  0  0  0  0  0  0  0  0  0  0  # atno 10167 bound_to 10162
  156.0029  130.4642  150.4145 H   0  0  0  0  0  0  0  0  0  0  0  0  # atno 10718 bound_to 10713
  153.1022  135.6675  153.9651 H   0  0  0  0  0  0  0  0  0  0  0  0  # atno 10763 bound_to 10752
  153.9218  135.3013  155.3449 H   0  0  0  0  0  0  0  0  0  0  0  0  # atno 10764 bound_to 10752
  154.7443  135.5065  153.9253 H   0  0  0  0  0  0  0  0  0  0  0  0  # atno 10765 bound_to 10752
  139.9000  134.8216  156.2445 H   0  0  0  0  0  0  0  0  0  0  0  0  # atno 11005 bound_to 11000
  145.0040  139.3572  143.6153 LP  0  0  0  0  0  0  0  0  0  0  0  0  # atno 17320 bound_to 7965
  146.3436  139.9274  142.8758 LP  0  0  0  0  0  0  0  0  0  0  0  0  # atno 17321 bound_to 7965
  139.9985  143.5769  152.2884 LP  0  0  0  0  0  0  0  0  0  0  0  0  # atno 17342 bound_to 10162
  139.6450  144.7657  151.2261 LP  0  0  0  0  0  0  0  0  0  0  0  0  # atno 17343 bound_to 10162
  157.2205  131.0481  151.2549 LP  0  0  0  0  0  0  0  0  0  0  0  0  # atno 17370 bound_to 10713
  157.3804  130.7228  149.6626 LP  0  0  0  0  0  0  0  0  0  0  0  0  # atno 17371 bound_to 10713
  141.0264  133.7013  156.1354 LP  0  0  0  0  0  0  0  0  0  0  0  0  # atno 17394 bound_to 11000
  140.7160  134.4410  157.5578 LP  0  0  0  0  0  0  0  0  0  0  0  0  # atno 17395 bound_to 11000

$$$$
