AV-unprocessed.smi:2309|AV-procd|sdf|9254|dock10
  -GOLD-   2272012473D 1   1.00000     0.00000
 Structure written by MMmdl.
 34 35  0  0  0  0  0  0  0  0  1 V2000
  145.3261  141.1665  155.6007 C   0  0  0  0  0  0  0  0  0  0  0  0
  146.8395  141.2826  155.6413 C   0  0  0  0  0  0  0  0  0  0  0  0
  147.3852  141.6429  156.8767 N   0  0  0  0  0  0  0  0  0  0  0  0
  148.6657  141.7689  157.0041 C   0  0  0  0  0  0  0  0  0  0  0  0
  149.5399  141.5502  155.9266 N   0  0  0  0  0  0  0  0  0  0  0  0
  150.9750  141.7340  156.2033 C   0  0  0  0  0  0  0  0  0  0  0  0
  151.4992  140.7477  157.2712 C   0  0  1  0  0  0  0  0  0  0  0  0
  152.4980  139.9373  156.6806 O   0  0  0  0  0  0  0  0  0  0  0  0
  152.0318  141.5013  158.4887 C   0  0  0  0  0  0  0  0  0  0  0  0
  151.8017  142.8922  158.6043 C   0  0  0  0  0  0  0  0  0  0  0  0
  152.2744  143.6090  159.7198 C   0  0  0  0  0  0  0  0  0  0  0  0
  151.9862  145.3055  159.8399 Cl  0  0  0  0  0  0  0  0  0  0  0  0
  152.9792  142.9407  160.7369 C   0  0  0  0  0  0  0  0  0  0  0  0
  153.2045  141.5558  160.6385 C   0  0  0  0  0  0  0  0  0  0  0  0
  152.7328  140.8322  159.5248 C   0  0  0  0  0  0  0  0  0  0  0  0
  153.0246  139.1287  159.4746 Cl  0  0  0  0  0  0  0  0  0  0  0  0
  149.0908  141.1969  154.6874 C   0  0  0  0  0  0  0  0  0  0  0  0
  149.8651  141.0119  153.7469 O   0  0  0  0  0  0  0  0  0  0  0  0
  147.6313  141.0575  154.5575 C   0  0  0  0  0  0  0  0  0  0  0  0
  147.0940  140.6659  153.1867 C   0  0  0  0  0  0  0  0  0  0  0  0
  145.0277  140.1558  155.3212 H   0  0  0  0  0  0  0  0  0  0  0  0
  144.9086  141.8669  154.8768 H   0  0  0  0  0  0  0  0  0  0  0  0
  144.8842  141.3878  156.5731 H   0  0  0  0  0  0  0  0  0  0  0  0
  149.1408  142.0541  157.9443 H   0  0  0  0  0  0  0  0  0  0  0  0
  151.5831  141.6758  155.2981 H   0  0  0  0  0  0  0  0  0  0  0  0
  151.1218  142.7561  156.5580 H   0  0  0  0  0  0  0  0  0  0  0  0
  150.7056  140.0701  157.5830 H   0  0  0  0  0  0  0  0  0  0  0  0
  152.1322  139.0809  156.5191 H   0  0  0  0  0  0  0  0  0  0  0  0
  151.2551  143.4188  157.8357 H   0  0  0  0  0  0  0  0  0  0  0  0
  153.3431  143.4869  161.5948 H   0  0  0  0  0  0  0  0  0  0  0  0
  153.7397  141.0450  161.4256 H   0  0  0  0  0  0  0  0  0  0  0  0
  147.3732  141.4159  152.4459 H   0  0  0  0  0  0  0  0  0  0  0  0
  146.0100  140.5683  153.1615 H   0  0  0  0  0  0  0  0  0  0  0  0
  147.5158  139.7095  152.8762 H   0  0  0  0  0  0  0  0  0  0  0  0
  1  2  1  0  0  0  0
  1 21  1  0  0  0  0
  1 22  1  0  0  0  0
  1 23  1  0  0  0  0
  2 19  2  0  0  0  0
  2  3  1  0  0  0  0
  3  4  2  0  0  0  0
  4  5  1  0  0  0  0
  4 24  1  0  0  0  0
  5  6  1  0  0  0  0
  5 17  1  0  0  0  0
  6  7  1  0  0  0  0
  6 25  1  0  0  0  0
  6 26  1  0  0  0  0
  7  8  1  0  0  0  0
  7  9  1  0  0  0  0
  7 27  1  0  0  0  0
  8 28  1  0  0  0  0
  9 15  1  0  0  0  0
  9 10  2  0  0  0  0
 10 11  1  0  0  0  0
 10 29  1  0  0  0  0
 11 12  1  0  0  0  0
 11 13  2  0  0  0  0
 13 14  1  0  0  0  0
 13 30  1  0  0  0  0
 14 15  2  0  0  0  0
 14 31  1  0  0  0  0
 15 16  1  0  0  0  0
 17 18  2  0  0  0  0
 17 19  1  0  0  0  0
 19 20  1  0  0  0  0
 20 32  1  0  0  0  0
 20 33  1  0  0  0  0
 20 34  1  0  0  0  0
M  END
> <s_m_source_file>
AV-unprocessed.smi

> <i_m_source_file_index>
2309

> <i_lp_mmshare_version>
43012

> <i_f3d_flags>
0

> <s_epik_input>
W0NIM11jMW5bY0hdbihjKD1PKWMxW0NIM10pW0NIMl1bQ0BIXShbT0hdKWMyW2NIXWMoQ2wpW2NIXVtjSF1jMkNs

> <s_epik_cmdline>
J2VwaWtfcHl0aG9uJywgJy1waCcsICc3LjAnLCAnLXRuJywgJzgnLCAnLW1hJywgJzIwMCcsICctbWV0YWxfYmluZGluZycsICctaW1hZScsICc8aW5maWxlLm1hZT4nLCAnLW9tYWUnLCAnPG91dGZpbGUubWFlPic=

> <r_lp_tautomer_probability>
1

> <r_epik_Ionization_Penalty>
5.09224e-05

> <r_epik_Ionization_Penalty_Charging>
7.56727e-08

> <r_epik_Ionization_Penalty_Neutral>
5.08468e-05

> <r_epik_State_Penalty>
-0

> <r_epik_Charging_Adjusted_Penalty>
7.56727e-08

> <i_epik_Tot_Q>
0

> <i_epik_Tot_abs_Q>
0

> <r_epik_Metal_State_Penalty>
-0

> <b_epik_Metal_Only>
0

> <s_lp_Force_Field>
OPLS_2005

> <r_lp_Energy>
18.7705

> <b_lp_Chiralities_Consistent>
1

> <s_lp_Variant>
AV-unprocessed.smi:2309-2

> <Gold.Version>
5.8.1

> <Gold.Id.Protein>
6NUR|6NUR_protein|mol2

> <Gold.PLP.Fitness>
46.1385

> <Gold.PLP.PLP>
-41.0864

> <Gold.PLP.part.hbond>
-2.6534

> <Gold.PLP.part.metal>
0.0000

> <Gold.PLP.part.buried>
-4.4294

> <Gold.PLP.part.nonpolar>
-36.2170

> <Gold.PLP.part.repulsive>
2.4686

> <Gold.PLP.ligand.clash>
0.0000

> <Gold.PLP.ligand.torsion>
0.9342

> <Gold.PLP.Chemscore.Hbond>
2.3039

> <Gold.PLP.Chemscore.CHOScore>
0.0000

> <Gold.PLP.Chemscore.Metal>
0.0000

> <Gold.Chemscore.Hbonds>
donor molecule, donor type, donor heavy atom, donor atom, acceptor molecule, acceptor atom, score
      P1  H  7989  7998       L1    18  0.35
      P1  H  7997  8010       L1     8  1.00
      P1  H  8011  8017       L1    18  0.91

> <Gold.PLP.Chemscore.Internal.Correction>
0.0088

> <Gold.Rescore>
     Score         DG    S(hbond)    S(metal)    S(lipo)     H(rot)  DE(clash)    DE(int)     intcor
     17.98     -20.81       2.20        0.00     110.23       1.93       1.32       1.51       ----

> <Gold.Chemscore.Fitness>
17.9804

> <Gold.Chemscore.DG>
-20.8065

> <Gold.Chemscore.ZeroCoef>
-5.4800

> <Gold.Chemscore.Hbond>
2.2039

> <Gold.Chemscore.Metal>
0.0000

> <Gold.Chemscore.Lipo>
110.2319

> <Gold.Chemscore.Internal_Hbond>
0.0000

> <Gold.Chemscore.DEClash>
1.3185

> <Gold.Chemscore.DEInternal>
1.5076

> <Gold.Chemscore.Rot>
1.9265

> <Gold.Chemscore.Internal.Correction>
   9.000000E+99

> <Gold.Chemscore.Hbonds>
donor molecule, donor type, donor heavy atom, donor atom, acceptor molecule, acceptor atom, score
      P1  H  7989  7998       L1    18  0.36
      P1  H  7997  8010       L1     8  0.91
      P1  H  8011  8017       L1    18  0.79

> <Gold.Chemscore.Hbond.Weighted>
-7.3611

> <Gold.Chemscore.Metal.Weighted>
-0.0000

> <Gold.Chemscore.Lipo.Weighted>
-12.8971

> <Gold.Chemscore.Internal_Hbond.Weighted>
0.0000

> <Gold.Chemscore.DEClash.Weighted>
1.3185

> <Gold.Chemscore.DEInternal.Weighted>
1.5076

> <Gold.Chemscore.Rot.Weighted>
4.9317

> <Gold.Chemscore.Internal.Correction.Weighted>
   9.000000E+99

> <Gold.Protein.RotatedTorsions>
[ 6907 6896 6895 6894 ] final -151.00 input  -60.11 | X-H torsion
[ 7974 7965 7964 7962 ] final -103.24 input  175.53 | X-H torsion
[ 8008 7997 7996 7995 ] final   80.30 input   59.86 | X-H torsion
[ 10167 10162 10161 10158 ] final -174.39 input  -65.29 | X-H torsion
[ 10718 10713 10712 10709 ] final  101.87 input   66.30 | X-H torsion
[ 10763 10752 10751 10750 ] final   57.86 input  -60.55 | X-H torsion
[ 11005 11000 10999 10996 ] final -100.42 input  -57.11 | X-H torsion

> <Gold.Protein.ActiveResidues>
 VAL166  LYS551  ARG553  GLY616  TRP617  ASP618  TYR619  PRO620  LYS621  CYS622 
 ASP623  PHE694  ASN695  SER759  ASP760  ASP761  ALA762  ILE779  LEU786  VAL792 
 PHE793  MET794  SER795  GLU796  ALA797  LYS798  CYS799  TRP800  GLU811  SER814 

> <Gold.Protein.RotatedAtoms>
  151.2066  133.4580  159.2597 H   0  0  0  0  0  0  0  0  0  0  0  0  # atno 6907 bound_to 6896
  151.1017  134.9976  159.8462 H   0  0  0  0  0  0  0  0  0  0  0  0  # atno 6908 bound_to 6896
  152.5444  134.1993  159.8758 H   0  0  0  0  0  0  0  0  0  0  0  0  # atno 6909 bound_to 6896
  145.2584  140.9261  143.3055 H   0  0  0  0  0  0  0  0  0  0  0  0  # atno 7974 bound_to 7965
  155.8816  140.3444  155.5891 H   0  0  0  0  0  0  0  0  0  0  0  0  # atno 8008 bound_to 7997
  155.7714  140.0846  157.2125 H   0  0  0  0  0  0  0  0  0  0  0  0  # atno 8009 bound_to 7997
  154.4025  140.1517  156.2933 H   0  0  0  0  0  0  0  0  0  0  0  0  # atno 8010 bound_to 7997
  139.5637  144.1808  152.1278 H   0  0  0  0  0  0  0  0  0  0  0  0  # atno 10167 bound_to 10162
  157.6818  131.0738  150.5318 H   0  0  0  0  0  0  0  0  0  0  0  0  # atno 10718 bound_to 10713
  152.9858  135.5627  154.5459 H   0  0  0  0  0  0  0  0  0  0  0  0  # atno 10763 bound_to 10752
  154.4905  135.2792  155.1502 H   0  0  0  0  0  0  0  0  0  0  0  0  # atno 10764 bound_to 10752
  154.2973  135.6314  153.5463 H   0  0  0  0  0  0  0  0  0  0  0  0  # atno 10765 bound_to 10752
  141.1271  133.8398  157.1101 H   0  0  0  0  0  0  0  0  0  0  0  0  # atno 11005 bound_to 11000
  144.9440  139.4156  143.6435 LP  0  0  0  0  0  0  0  0  0  0  0  0  # atno 17320 bound_to 7965
  146.3282  139.8415  142.8889 LP  0  0  0  0  0  0  0  0  0  0  0  0  # atno 17321 bound_to 7965
  140.1327  144.5274  150.6792 LP  0  0  0  0  0  0  0  0  0  0  0  0  # atno 17342 bound_to 10162
  140.6918  143.2380  151.5109 LP  0  0  0  0  0  0  0  0  0  0  0  0  # atno 17343 bound_to 10162
  156.5627  130.4260  149.6055 LP  0  0  0  0  0  0  0  0  0  0  0  0  # atno 17370 bound_to 10713
  156.2807  130.7069  151.1892 LP  0  0  0  0  0  0  0  0  0  0  0  0  # atno 17371 bound_to 10713
  140.0280  134.9914  157.0725 LP  0  0  0  0  0  0  0  0  0  0  0  0  # atno 17394 bound_to 11000
  140.4331  134.1760  155.7169 LP  0  0  0  0  0  0  0  0  0  0  0  0  # atno 17395 bound_to 11000

$$$$
