AV-unprocessed.smi:290|AV-procd|sdf|2217|dock10
  -GOLD-   2262022 53D 1   1.00000     0.00000
 Structure written by MMmdl.
 59 62  0  0  0  0  0  0  0  0  2 V2000
  149.4320  139.0252  153.8808 C   0  0  0  0  0  0  0  0  0  0  0  0
  150.2508  138.9415  155.1793 C   0  0  2  0  0  0  0  0  0  0  0  0
  150.9650  140.1494  155.3998 O   0  0  0  0  0  0  0  0  0  0  0  0
  151.9687  139.8672  156.3575 C   0  0  0  0  0  0  0  0  0  0  0  0
  152.5312  138.5369  155.8718 C   0  0  0  0  0  0  0  0  0  0  0  0
  151.3184  137.8187  155.2715 C   0  0  2  0  0  0  0  0  0  0  0  0
  151.6838  137.3332  153.9896 O   0  0  0  0  0  0  0  0  0  0  0  0
  150.8668  136.6151  156.1352 C   0  0  0  0  0  0  0  0  0  0  0  0
  149.6945  135.9317  155.6093 N   0  0  0  0  0  0  0  0  0  0  0  0
  148.4706  136.4945  155.3259 C   0  0  0  0  0  0  0  0  0  0  0  0
  147.5705  135.6688  154.8671 N   0  0  0  0  0  0  0  0  0  0  0  0
  148.2229  134.4420  154.8274 C   0  0  0  0  0  0  0  0  0  0  0  0
  147.8487  133.1235  154.4385 C   0  0  0  0  0  0  0  0  0  0  0  0
  146.6325  132.7606  153.9748 N   0  0  0  0  0  0  0  0  0  0  0  0
  146.5030  131.3375  153.6657 C   0  0  0  0  0  0  0  0  0  0  0  0
  145.5788  131.2401  152.4476 C   0  0  0  0  0  0  0  0  0  0  0  0
  145.8460  132.5795  151.7550 C   0  0  1  0  0  0  0  0  0  0  0  0
  144.9221  133.0008  150.6558 N   0  3  1  0  0  0  0  0  0  0  0  0
  145.0285  134.4559  150.3835 C   0  0  0  0  0  0  0  0  0  0  0  0
  144.9847  132.1830  149.4116 C   0  0  0  0  0  0  0  0  0  0  0  0
  144.0268  132.6813  148.3142 C   0  0  0  0  0  0  0  0  0  0  0  0
  142.7676  132.0565  148.4455 O   0  0  0  0  0  0  0  0  0  0  0  0
  146.0091  133.5670  152.9263 C   0  0  1  0  0  0  0  0  0  0  0  0
  144.7139  134.1939  153.4692 C   0  0  0  0  0  0  0  0  0  0  0  0
  148.7904  132.1510  154.5026 N   0  0  0  0  0  0  0  0  0  0  0  0
  150.0191  132.4371  154.9438 C   0  0  0  0  0  0  0  0  0  0  0  0
  150.5062  133.6100  155.3535 N   0  0  0  0  0  0  0  0  0  0  0  0
  149.5654  134.5943  155.2760 C   0  0  0  0  0  0  0  0  0  0  0  0
  146.8436  132.4954  151.3204 H   0  0  0  0  0  0  0  0  0  0  0  0
  146.6558  134.3879  152.6158 H   0  0  0  0  0  0  0  0  0  0  0  0
  148.8926  138.0963  153.6943 H   0  0  0  0  0  0  0  0  0  0  0  0
  150.0673  139.2276  153.0181 H   0  0  0  0  0  0  0  0  0  0  0  0
  148.6963  139.8273  153.9408 H   0  0  0  0  0  0  0  0  0  0  0  0
  149.5585  138.8499  156.0170 H   0  0  0  0  0  0  0  0  0  0  0  0
  152.7217  140.6545  156.3981 H   0  0  0  0  0  0  0  0  0  0  0  0
  151.5188  139.7659  157.3466 H   0  0  0  0  0  0  0  0  0  0  0  0
  153.2873  138.7351  155.1100 H   0  0  0  0  0  0  0  0  0  0  0  0
  153.0169  137.9778  156.6724 H   0  0  0  0  0  0  0  0  0  0  0  0
  151.7491  138.0671  153.3980 H   0  0  0  0  0  0  0  0  0  0  0  0
  151.6739  135.8869  156.2258 H   0  0  0  0  0  0  0  0  0  0  0  0
  150.6431  136.9471  157.1500 H   0  0  0  0  0  0  0  0  0  0  0  0
  148.2634  137.5439  155.4772 H   0  0  0  0  0  0  0  0  0  0  0  0
  147.4800  130.9127  153.4275 H   0  0  0  0  0  0  0  0  0  0  0  0
  146.1010  130.7891  154.5183 H   0  0  0  0  0  0  0  0  0  0  0  0
  145.8026  130.3794  151.8170 H   0  0  0  0  0  0  0  0  0  0  0  0
  144.5500  131.1494  152.7946 H   0  0  0  0  0  0  0  0  0  0  0  0
  146.0149  134.7060  149.9910 H   0  0  0  0  0  0  0  0  0  0  0  0
  144.8688  135.0341  151.2941 H   0  0  0  0  0  0  0  0  0  0  0  0
  144.2812  134.7931  149.6673 H   0  0  0  0  0  0  0  0  0  0  0  0
  146.0091  132.1734  149.0365 H   0  0  0  0  0  0  0  0  0  0  0  0
  144.7278  131.1460  149.6179 H   0  0  0  0  0  0  0  0  0  0  0  0
  143.9044  133.7633  148.3252 H   0  0  0  0  0  0  0  0  0  0  0  0
  144.4307  132.4253  147.3343 H   0  0  0  0  0  0  0  0  0  0  0  0
  142.1517  132.6870  148.7881 H   0  0  0  0  0  0  0  0  0  0  0  0
  144.2109  134.7935  152.7115 H   0  0  0  0  0  0  0  0  0  0  0  0
  144.9327  134.8563  154.3071 H   0  0  0  0  0  0  0  0  0  0  0  0
  144.0161  133.4384  153.8305 H   0  0  0  0  0  0  0  0  0  0  0  0
  150.7104  131.6074  154.9731 H   0  0  0  0  0  0  0  0  0  0  0  0
  143.9928  132.8629  151.0273 H   0  0  0  0  0  0  0  0  0  0  0  0
  1  2  1  0  0  0  0
  1 31  1  0  0  0  0
  1 32  1  0  0  0  0
  1 33  1  0  0  0  0
  2  6  1  0  0  0  0
  2  3  1  0  0  0  0
  2 34  1  0  0  0  0
  3  4  1  0  0  0  0
  4  5  1  0  0  0  0
  4 35  1  0  0  0  0
  4 36  1  0  0  0  0
  5  6  1  0  0  0  0
  5 37  1  0  0  0  0
  5 38  1  0  0  0  0
  6  7  1  0  0  0  0
  6  8  1  0  0  0  0
  7 39  1  0  0  0  0
  8  9  1  0  0  0  0
  8 40  1  0  0  0  0
  8 41  1  0  0  0  0
  9 28  1  0  0  0  0
  9 10  1  0  0  0  0
 10 11  2  0  0  0  0
 10 42  1  0  0  0  0
 11 12  1  0  0  0  0
 12 28  2  0  0  0  0
 12 13  1  0  0  0  0
 13 14  1  0  0  0  0
 13 25  2  0  0  0  0
 14 23  1  0  0  0  0
 14 15  1  0  0  0  0
 15 16  1  0  0  0  0
 15 43  1  0  0  0  0
 15 44  1  0  0  0  0
 16 17  1  0  0  0  0
 16 45  1  0  0  0  0
 16 46  1  0  0  0  0
 17 29  1  0  0  0  0
 17 18  1  0  0  0  0
 17 23  1  0  0  0  0
 18 19  1  0  0  0  0
 18 20  1  0  0  0  0
 18 59  1  0  0  0  0
 19 47  1  0  0  0  0
 19 48  1  0  0  0  0
 19 49  1  0  0  0  0
 20 21  1  0  0  0  0
 20 50  1  0  0  0  0
 20 51  1  0  0  0  0
 21 22  1  0  0  0  0
 21 52  1  0  0  0  0
 21 53  1  0  0  0  0
 22 54  1  0  0  0  0
 23 30  1  0  0  0  0
 23 24  1  0  0  0  0
 24 55  1  0  0  0  0
 24 56  1  0  0  0  0
 24 57  1  0  0  0  0
 25 26  1  0  0  0  0
 26 27  2  0  0  0  0
 26 58  1  0  0  0  0
 27 28  1  0  0  0  0
M  CHG  1  18   1
M  END
> <s_m_source_file>
AV-unprocessed.smi

> <i_m_source_file_index>
290

> <i_lp_mmshare_version>
43012

> <i_f3d_flags>
0

> <s_epik_input>
W0NIMl0xW0NIMl1PW0NAQEhdKFtDSDNdKVtDQEBdMShbT0hdKVtDSDJdbihbY0hdbjIpYyhjMjMpbltjSF1uYzNONFtDSDJdW0NIMl1bQ0BIXShbQ0BIXTRbQ0gzXSlOKFtDSDNdKVtDSDJdW0NIMl1bT0hd

> <s_epik_cmdline>
J2VwaWtfcHl0aG9uJywgJy1waCcsICc3LjAnLCAnLXRuJywgJzgnLCAnLW1hJywgJzIwMCcsICctbWV0YWxfYmluZGluZycsICctaW1hZScsICc8aW5maWxlLm1hZT4nLCAnLW9tYWUnLCAnPG91dGZpbGUubWFlPic=

> <r_lp_tautomer_probability>
1

> <r_epik_Ionization_Penalty>
0.0036983

> <r_epik_Ionization_Penalty_Charging>
0.0032725

> <r_epik_Ionization_Penalty_Neutral>
0.000425798

> <r_epik_State_Penalty>
-0

> <r_epik_Charging_Adjusted_Penalty>
0.0032725

> <i_epik_Tot_Q>
1

> <i_epik_Tot_abs_Q>
1

> <r_epik_Metal_State_Penalty>
-0

> <b_epik_Metal_Only>
0

> <s_lp_Force_Field>
OPLS_2005

> <r_lp_Energy>
65.9865

> <b_lp_Chiralities_Consistent>
1

> <s_lp_Variant>
AV-unprocessed.smi:290-3

> <Gold.Version>
5.8.1

> <Gold.Id.Protein>
6NUR|6NUR_protein|mol2

> <Gold.PLP.Fitness>
54.3227

> <Gold.PLP.PLP>
-43.1364

> <Gold.PLP.part.hbond>
-6.0000

> <Gold.PLP.part.metal>
0.0000

> <Gold.PLP.part.buried>
-2.5379

> <Gold.PLP.part.nonpolar>
-33.9644

> <Gold.PLP.part.repulsive>
0.3225

> <Gold.PLP.ligand.clash>
0.0000

> <Gold.PLP.ligand.torsion>
0.5976

> <Gold.PLP.Chemscore.Hbond>
4.0000

> <Gold.PLP.Chemscore.CHOScore>
0.0000

> <Gold.PLP.Chemscore.Metal>
0.0000

> <Gold.Chemscore.Hbonds>
donor molecule, donor type, donor heavy atom, donor atom, acceptor molecule, acceptor atom, score
      L1  H    22    54       P1 10186  0.59
      P1  H  7989  7998       L1     3  0.73
      P1  H 10752 10765       L1     7  0.84
      P1  H 10785 10796       L1    22  0.90

> <Gold.PLP.Chemscore.Internal.Correction>
0.3816

> <Gold.Rescore>
     Score         DG    S(hbond)    S(metal)    S(lipo)     H(rot)  DE(clash)    DE(int)     intcor
     14.62     -17.83       3.07        0.00      98.23       3.67       1.82       1.38       ----

> <Gold.Chemscore.Fitness>
14.6227

> <Gold.Chemscore.DG>
-17.8259

> <Gold.Chemscore.ZeroCoef>
-5.4800

> <Gold.Chemscore.Hbond>
3.0652

> <Gold.Chemscore.Metal>
0.0000

> <Gold.Chemscore.Lipo>
98.2263

> <Gold.Chemscore.Internal_Hbond>
0.0000

> <Gold.Chemscore.DEClash>
1.8232

> <Gold.Chemscore.DEInternal>
1.3800

> <Gold.Chemscore.Rot>
3.6658

> <Gold.Chemscore.Internal.Correction>
   9.000000E+99

> <Gold.Chemscore.Hbonds>
donor molecule, donor type, donor heavy atom, donor atom, acceptor molecule, acceptor atom, score
      L1  H    22    54       P1 10186  0.58
      P1  H  7989  7998       L1     3  0.43
      P1  H 10752 10765       L1     7  0.64
      P1  H 10785 10796       L1    22  0.42

> <Gold.Chemscore.Hbond.Weighted>
-10.2378

> <Gold.Chemscore.Metal.Weighted>
-0.0000

> <Gold.Chemscore.Lipo.Weighted>
-11.4925

> <Gold.Chemscore.Internal_Hbond.Weighted>
0.0000

> <Gold.Chemscore.DEClash.Weighted>
1.8232

> <Gold.Chemscore.DEInternal.Weighted>
1.3800

> <Gold.Chemscore.Rot.Weighted>
9.3844

> <Gold.Chemscore.Internal.Correction.Weighted>
   9.000000E+99

> <Gold.Protein.RotatedTorsions>
[ 6907 6896 6895 6894 ] final -141.45 input  -60.11 | X-H torsion
[ 7974 7965 7964 7962 ] final  133.46 input  175.53 | X-H torsion
[ 8008 7997 7996 7995 ] final   39.82 input   59.86 | X-H torsion
[ 10167 10162 10161 10158 ] final  -46.64 input  -65.29 | X-H torsion
[ 10718 10713 10712 10709 ] final   24.38 input   66.30 | X-H torsion
[ 10763 10752 10751 10750 ] final  154.25 input  -60.55 | X-H torsion
[ 11005 11000 10999 10996 ] final  -77.34 input  -57.11 | X-H torsion

> <Gold.Protein.ActiveResidues>
 VAL166  LYS551  ARG553  GLY616  TRP617  ASP618  TYR619  PRO620  LYS621  CYS622 
 ASP623  PHE694  ASN695  SER759  ASP760  ASP761  ALA762  ILE779  LEU786  VAL792 
 PHE793  MET794  SER795  GLU796  ALA797  LYS798  CYS799  TRP800  GLU811  SER814 

> <Gold.Protein.RotatedAtoms>
  151.0740  133.5443  159.2624 H   0  0  0  0  0  0  0  0  0  0  0  0  # atno 6907 bound_to 6896
  151.2372  135.0575  159.9020 H   0  0  0  0  0  0  0  0  0  0  0  0  # atno 6908 bound_to 6896
  152.5415  134.0520  159.8168 H   0  0  0  0  0  0  0  0  0  0  0  0  # atno 6909 bound_to 6896
  144.9863  139.4452  143.5361 H   0  0  0  0  0  0  0  0  0  0  0  0  # atno 7974 bound_to 7965
  155.2429  140.3347  155.4290 H   0  0  0  0  0  0  0  0  0  0  0  0  # atno 8008 bound_to 7997
  156.2248  140.1824  156.7434 H   0  0  0  0  0  0  0  0  0  0  0  0  # atno 8009 bound_to 7997
  154.5881  140.0642  156.9185 H   0  0  0  0  0  0  0  0  0  0  0  0  # atno 8010 bound_to 7997
  140.6809  143.2821  151.3811 H   0  0  0  0  0  0  0  0  0  0  0  0  # atno 10167 bound_to 10162
  157.1790  130.6794  149.6106 H   0  0  0  0  0  0  0  0  0  0  0  0  # atno 10718 bound_to 10713
  154.1494  135.2816  155.3139 H   0  0  0  0  0  0  0  0  0  0  0  0  # atno 10763 bound_to 10752
  154.6229  135.5461  153.7598 H   0  0  0  0  0  0  0  0  0  0  0  0  # atno 10764 bound_to 10752
  153.0226  135.6443  154.1638 H   0  0  0  0  0  0  0  0  0  0  0  0  # atno 10765 bound_to 10752
  141.1659  133.7018  156.7805 H   0  0  0  0  0  0  0  0  0  0  0  0  # atno 11005 bound_to 11000
  146.3421  139.9168  142.8772 LP  0  0  0  0  0  0  0  0  0  0  0  0  # atno 17320 bound_to 7965
  145.2348  140.9987  143.3969 LP  0  0  0  0  0  0  0  0  0  0  0  0  # atno 17321 bound_to 7965
  139.6131  144.1058  152.2318 LP  0  0  0  0  0  0  0  0  0  0  0  0  # atno 17342 bound_to 10162
  140.0478  144.5956  150.7360 LP  0  0  0  0  0  0  0  0  0  0  0  0  # atno 17343 bound_to 10162
  155.9727  130.4653  150.6248 LP  0  0  0  0  0  0  0  0  0  0  0  0  # atno 17370 bound_to 10713
  157.3970  131.0804  151.1342 LP  0  0  0  0  0  0  0  0  0  0  0  0  # atno 17371 bound_to 10713
  140.2398  134.8622  157.3562 LP  0  0  0  0  0  0  0  0  0  0  0  0  # atno 17394 bound_to 11000
  140.1807  134.4493  155.7774 LP  0  0  0  0  0  0  0  0  0  0  0  0  # atno 17395 bound_to 11000

$$$$
