AV-unprocessed.smi:3240|AV-procd|sdf|12384|dock10
  -GOLD-   2272018253D 1   1.00000     0.00000
 Structure written by MMmdl.
 43 44  0  0  0  0  0  0  0  0  1 V2000
  151.9638  145.5973  160.0626 C   0  0  0  0  0  0  0  0  0  0  0  0
  151.9108  144.4100  159.1449 C   0  0  0  0  0  0  0  0  0  0  0  0
  152.4846  143.1229  159.3484 C   0  0  0  0  0  0  0  0  0  0  0  0
  152.2574  142.2936  158.3431 N   0  0  0  0  0  0  0  0  0  0  0  0
  151.5384  143.0207  157.4615 N   0  0  0  0  0  0  0  0  0  0  0  0
  151.1035  142.4231  156.2109 C   0  0  0  0  0  0  0  0  0  0  0  0
  150.9969  140.8853  156.2823 C   0  0  1  0  0  0  0  0  0  0  0  0
  150.0425  140.4091  157.3975 C   0  0  0  0  0  0  0  0  0  0  0  0
  150.5984  140.3724  154.9677 N   0  0  0  0  0  0  0  0  0  0  0  0
  149.2118  140.6418  154.5745 C   0  0  0  0  0  0  0  0  0  0  0  0
  148.5723  139.4598  153.8112 C   0  0  0  0  0  0  0  0  0  0  0  0
  149.6174  138.8106  153.1095 O   0  0  0  0  0  0  0  0  0  0  0  0
  147.8624  138.4527  154.7521 C   0  0  0  0  0  0  0  0  0  0  0  0
  147.1039  137.3506  153.9900 C   0  0  0  0  0  0  0  0  0  0  0  0
  146.1107  137.9448  152.9821 C   0  0  0  0  0  0  0  0  0  0  0  0
  146.8214  138.8944  152.0086 C   0  0  0  0  0  0  0  0  0  0  0  0
  147.5744  140.0055  152.7620 C   0  0  0  0  0  0  0  0  0  0  0  0
  151.3106  144.2999  157.9225 C   0  0  0  0  0  0  0  0  0  0  0  0
  151.9636  145.2976  161.1106 H   0  0  0  0  0  0  0  0  0  0  0  0
  151.1098  146.2593  159.9185 H   0  0  0  0  0  0  0  0  0  0  0  0
  152.8631  146.1910  159.8976 H   0  0  0  0  0  0  0  0  0  0  0  0
  153.0561  142.7686  160.1937 H   0  0  0  0  0  0  0  0  0  0  0  0
  150.1429  142.8567  155.9260 H   0  0  0  0  0  0  0  0  0  0  0  0
  151.8157  142.7144  155.4376 H   0  0  0  0  0  0  0  0  0  0  0  0
  151.9918  140.5036  156.5147 H   0  0  0  0  0  0  0  0  0  0  0  0
  150.3361  140.8029  158.3705 H   0  0  0  0  0  0  0  0  0  0  0  0
  150.0383  139.3245  157.4979 H   0  0  0  0  0  0  0  0  0  0  0  0
  149.0190  140.7330  157.2061 H   0  0  0  0  0  0  0  0  0  0  0  0
  150.7724  139.3732  154.9268 H   0  0  0  0  0  0  0  0  0  0  0  0
  148.6212  140.8464  155.4684 H   0  0  0  0  0  0  0  0  0  0  0  0
  149.1542  141.5377  153.9567 H   0  0  0  0  0  0  0  0  0  0  0  0
  149.2784  138.0036  152.7528 H   0  0  0  0  0  0  0  0  0  0  0  0
  148.5780  137.9859  155.4297 H   0  0  0  0  0  0  0  0  0  0  0  0
  147.1547  138.9917  155.3835 H   0  0  0  0  0  0  0  0  0  0  0  0
  147.8138  136.7080  153.4678 H   0  0  0  0  0  0  0  0  0  0  0  0
  146.5745  136.7106  154.6961 H   0  0  0  0  0  0  0  0  0  0  0  0
  145.6183  137.1447  152.4286 H   0  0  0  0  0  0  0  0  0  0  0  0
  145.3256  138.4837  153.5140 H   0  0  0  0  0  0  0  0  0  0  0  0
  147.5181  138.3293  151.3884 H   0  0  0  0  0  0  0  0  0  0  0  0
  146.0948  139.3374  151.3273 H   0  0  0  0  0  0  0  0  0  0  0  0
  146.8417  140.6418  153.2604 H   0  0  0  0  0  0  0  0  0  0  0  0
  148.0906  140.6472  152.0466 H   0  0  0  0  0  0  0  0  0  0  0  0
  150.7482  145.0194  157.3462 H   0  0  0  0  0  0  0  0  0  0  0  0
  1  2  1  0  0  0  0
  1 19  1  0  0  0  0
  1 20  1  0  0  0  0
  1 21  1  0  0  0  0
  2 18  2  0  0  0  0
  2  3  1  0  0  0  0
  3  4  2  0  0  0  0
  3 22  1  0  0  0  0
  4  5  1  0  0  0  0
  5  6  1  0  0  0  0
  5 18  1  0  0  0  0
  6  7  1  0  0  0  0
  6 23  1  0  0  0  0
  6 24  1  0  0  0  0
  7  8  1  0  0  0  0
  7  9  1  0  0  0  0
  7 25  1  0  0  0  0
  8 26  1  0  0  0  0
  8 27  1  0  0  0  0
  8 28  1  0  0  0  0
  9 10  1  0  0  0  0
  9 29  1  0  0  0  0
 10 11  1  0  0  0  0
 10 30  1  0  0  0  0
 10 31  1  0  0  0  0
 11 17  1  0  0  0  0
 11 12  1  0  0  0  0
 11 13  1  0  0  0  0
 12 32  1  0  0  0  0
 13 14  1  0  0  0  0
 13 33  1  0  0  0  0
 13 34  1  0  0  0  0
 14 15  1  0  0  0  0
 14 35  1  0  0  0  0
 14 36  1  0  0  0  0
 15 16  1  0  0  0  0
 15 37  1  0  0  0  0
 15 38  1  0  0  0  0
 16 17  1  0  0  0  0
 16 39  1  0  0  0  0
 16 40  1  0  0  0  0
 17 41  1  0  0  0  0
 17 42  1  0  0  0  0
 18 43  1  0  0  0  0
M  END
> <s_m_source_file>
AV-unprocessed.smi

> <i_m_source_file_index>
3240

> <i_lp_mmshare_version>
43012

> <i_f3d_flags>
0

> <s_epik_input>
W0NIM11jMVtjSF1ubihbY0hdMSlbQ0gyXVtDQEhdKFtDSDNdKVtOSF1bQ0gyXUMyKFtPSF0pW0NIMl1bQ0gyXVtDSDJdW0NIMl1bQ0gyXTI=

> <s_epik_cmdline>
J2VwaWtfcHl0aG9uJywgJy1waCcsICc3LjAnLCAnLXRuJywgJzgnLCAnLW1hJywgJzIwMCcsICctbWV0YWxfYmluZGluZycsICctaW1hZScsICc8aW5maWxlLm1hZT4nLCAnLW9tYWUnLCAnPG91dGZpbGUubWFlPic=

> <r_lp_tautomer_probability>
1

> <r_epik_Ionization_Penalty>
2.35969

> <r_epik_Ionization_Penalty_Charging>
0

> <r_epik_Ionization_Penalty_Neutral>
2.35969

> <r_epik_State_Penalty>
2.51455

> <r_epik_Charging_Adjusted_Penalty>
2.51455

> <i_epik_Tot_Q>
0

> <i_epik_Tot_abs_Q>
0

> <r_epik_Metal_State_Penalty>
2.51446

> <b_epik_Metal_Only>
0

> <s_lp_Force_Field>
OPLS_2005

> <r_lp_Energy>
22.6589

> <b_lp_Chiralities_Consistent>
1

> <s_lp_Variant>
AV-unprocessed.smi:3240-4

> <Gold.Version>
5.8.1

> <Gold.Id.Protein>
6NUR|6NUR_protein|mol2

> <Gold.PLP.Fitness>
44.3869

> <Gold.PLP.PLP>
-37.8331

> <Gold.PLP.part.hbond>
-2.7904

> <Gold.PLP.part.metal>
0.0000

> <Gold.PLP.part.buried>
-0.1875

> <Gold.PLP.part.nonpolar>
-33.6894

> <Gold.PLP.part.repulsive>
0.0000

> <Gold.PLP.ligand.clash>
0.0000

> <Gold.PLP.ligand.torsion>
1.2425

> <Gold.PLP.Chemscore.Hbond>
1.9913

> <Gold.PLP.Chemscore.CHOScore>
1.0004

> <Gold.PLP.Chemscore.Metal>
0.0000

> <Gold.Chemscore.Hbonds>
donor molecule, donor type, donor heavy atom, donor atom, acceptor molecule, acceptor atom, score
      L1  H    12    32       P1  7948  1.00
      P1  H  7989  7998       L1     9  0.90
      L1  C    18    43       P1  8028  1.00

> <Gold.PLP.Chemscore.Internal.Correction>
0.0640

> <Gold.Rescore>
     Score         DG    S(hbond)    S(metal)    S(lipo)     H(rot)  DE(clash)    DE(int)     intcor
     13.75     -15.25       1.03        0.00      98.89       2.04       0.12       1.38       ----

> <Gold.Chemscore.Fitness>
13.7505

> <Gold.Chemscore.DG>
-15.2488

> <Gold.Chemscore.ZeroCoef>
-5.4800

> <Gold.Chemscore.Hbond>
1.0278

> <Gold.Chemscore.Metal>
0.0000

> <Gold.Chemscore.Lipo>
98.8928

> <Gold.Chemscore.Internal_Hbond>
0.0000

> <Gold.Chemscore.DEClash>
0.1213

> <Gold.Chemscore.DEInternal>
1.3770

> <Gold.Chemscore.Rot>
2.0447

> <Gold.Chemscore.Internal.Correction>
   9.000000E+99

> <Gold.Chemscore.Hbonds>
donor molecule, donor type, donor heavy atom, donor atom, acceptor molecule, acceptor atom, score
      L1  H    12    32       P1  7948  0.93
      P1  H  7989  7998       L1     9  0.08

> <Gold.Chemscore.Hbond.Weighted>
-3.4328

> <Gold.Chemscore.Metal.Weighted>
-0.0000

> <Gold.Chemscore.Lipo.Weighted>
-11.5705

> <Gold.Chemscore.Internal_Hbond.Weighted>
0.0000

> <Gold.Chemscore.DEClash.Weighted>
0.1213

> <Gold.Chemscore.DEInternal.Weighted>
1.3770

> <Gold.Chemscore.Rot.Weighted>
5.2344

> <Gold.Chemscore.Internal.Correction.Weighted>
   9.000000E+99

> <Gold.Protein.RotatedTorsions>
[ 6907 6896 6895 6894 ] final  178.86 input  -60.11 | X-H torsion
[ 7974 7965 7964 7962 ] final   59.92 input  175.53 | X-H torsion
[ 8008 7997 7996 7995 ] final   70.93 input   59.86 | X-H torsion
[ 10167 10162 10161 10158 ] final   55.03 input  -65.29 | X-H torsion
[ 10718 10713 10712 10709 ] final  -88.30 input   66.30 | X-H torsion
[ 10763 10752 10751 10750 ] final -146.77 input  -60.55 | X-H torsion
[ 11005 11000 10999 10996 ] final   33.46 input  -57.11 | X-H torsion

> <Gold.Protein.ActiveResidues>
 VAL166  LYS551  ARG553  GLY616  TRP617  ASP618  TYR619  PRO620  LYS621  CYS622 
 ASP623  PHE694  ASN695  SER759  ASP760  ASP761  ALA762  ILE779  LEU786  VAL792 
 PHE793  MET794  SER795  GLU796  ALA797  LYS798  CYS799  TRP800  GLU811  SER814 

> <Gold.Protein.RotatedAtoms>
  151.6811  133.3312  159.3219 H   0  0  0  0  0  0  0  0  0  0  0  0  # atno 6907 bound_to 6896
  150.7822  134.6780  159.6438 H   0  0  0  0  0  0  0  0  0  0  0  0  # atno 6908 bound_to 6896
  152.3883  134.6485  160.0169 H   0  0  0  0  0  0  0  0  0  0  0  0  # atno 6909 bound_to 6896
  145.9018  139.3587  143.0588 H   0  0  0  0  0  0  0  0  0  0  0  0  # atno 7974 bound_to 7965
  155.7462  140.3489  155.5128 H   0  0  0  0  0  0  0  0  0  0  0  0  # atno 8008 bound_to 7997
  155.9048  140.1040  157.1345 H   0  0  0  0  0  0  0  0  0  0  0  0  # atno 8009 bound_to 7997
  154.4048  140.1279  156.4468 H   0  0  0  0  0  0  0  0  0  0  0  0  # atno 8010 bound_to 7997
  140.2237  144.3761  150.6440 H   0  0  0  0  0  0  0  0  0  0  0  0  # atno 10167 bound_to 10162
  155.9984  130.4830  150.4998 H   0  0  0  0  0  0  0  0  0  0  0  0  # atno 10718 bound_to 10713
  154.8320  135.3378  154.6713 H   0  0  0  0  0  0  0  0  0  0  0  0  # atno 10763 bound_to 10752
  153.7332  135.6950  153.4989 H   0  0  0  0  0  0  0  0  0  0  0  0  # atno 10764 bound_to 10752
  153.2297  135.4420  155.0533 H   0  0  0  0  0  0  0  0  0  0  0  0  # atno 10765 bound_to 10752
  140.2629  134.3171  155.7852 H   0  0  0  0  0  0  0  0  0  0  0  0  # atno 11005 bound_to 11000
  145.8781  140.9379  143.0615 LP  0  0  0  0  0  0  0  0  0  0  0  0  # atno 17320 bound_to 7965
  144.6736  140.0744  143.7472 LP  0  0  0  0  0  0  0  0  0  0  0  0  # atno 17321 bound_to 7965
  140.6236  143.2179  151.6643 LP  0  0  0  0  0  0  0  0  0  0  0  0  # atno 17342 bound_to 10162
  139.5135  144.3442  152.0712 LP  0  0  0  0  0  0  0  0  0  0  0  0  # atno 17343 bound_to 10162
  157.2983  131.0640  151.2086 LP  0  0  0  0  0  0  0  0  0  0  0  0  # atno 17370 bound_to 10713
  157.3074  130.6873  149.6197 LP  0  0  0  0  0  0  0  0  0  0  0  0  # atno 17371 bound_to 10713
  141.2188  133.7420  156.9215 LP  0  0  0  0  0  0  0  0  0  0  0  0  # atno 17394 bound_to 11000
  140.1447  134.9270  157.2514 LP  0  0  0  0  0  0  0  0  0  0  0  0  # atno 17395 bound_to 11000

$$$$
