AV-unprocessed.smi:2593|AV-procd|sdf|10165|dock1
  -GOLD-   2272014183D 1   1.00000     0.00000
 Structure written by MMmdl.
 41 43  0  0  0  0  0  0  0  0  2 V2000
  148.1739  125.6577  149.6250 C   0  0  0  0  0  0  0  0  0  0  0  0
  147.5009  126.3735  150.6451 O   0  0  0  0  0  0  0  0  0  0  0  0
  148.1774  127.5649  151.0133 C   0  0  0  0  0  0  0  0  0  0  0  0
  147.6760  128.0391  152.3845 C   0  0  0  0  0  0  0  0  0  0  0  0
  148.5828  128.9995  152.9962 N   0  0  0  0  0  0  0  0  0  0  0  0
  148.3710  130.3197  153.2236 C   0  0  0  0  0  0  0  0  0  0  0  0
  146.8456  131.0990  152.7780 S   0  0  0  0  0  0  0  0  0  0  0  0
  147.4583  132.7448  152.3096 C   0  0  0  0  0  0  0  0  0  0  0  0
  146.3056  133.5975  151.8202 C   0  0  0  0  0  0  0  0  0  0  0  0
  145.0141  133.0651  151.6178 C   0  0  0  0  0  0  0  0  0  0  0  0
  143.9842  133.9128  151.1607 C   0  0  0  0  0  0  0  0  0  0  0  0
  144.2662  135.2728  150.9155 C   0  0  0  0  0  0  0  0  0  0  0  0
  145.5746  135.7530  151.1335 C   0  0  0  0  0  0  0  0  0  0  0  0
  145.9211  137.0838  150.9083 N   0  0  0  0  0  0  0  0  0  0  0  0
  146.5332  134.9080  151.5728 N   0  3  0  0  0  0  0  0  0  0  0  0
  149.3804  130.9684  153.8080 N   0  0  0  0  0  0  0  0  0  0  0  0
  150.3289  129.9791  153.9761 C   0  0  0  0  0  0  0  0  0  0  0  0
  151.6229  130.0333  154.5417 C   0  0  0  0  0  0  0  0  0  0  0  0
  152.4212  128.8726  154.6091 C   0  0  0  0  0  0  0  0  0  0  0  0
  151.9378  127.6443  154.1134 C   0  0  0  0  0  0  0  0  0  0  0  0
  150.6517  127.5694  153.5450 C   0  0  0  0  0  0  0  0  0  0  0  0
  149.8599  128.7316  153.4789 C   0  0  0  0  0  0  0  0  0  0  0  0
  147.6103  124.7582  149.3770 H   0  0  0  0  0  0  0  0  0  0  0  0
  149.1693  125.3524  149.9495 H   0  0  0  0  0  0  0  0  0  0  0  0
  148.2682  126.2570  148.7185 H   0  0  0  0  0  0  0  0  0  0  0  0
  149.2528  127.3863  151.0557 H   0  0  0  0  0  0  0  0  0  0  0  0
  148.0046  128.3390  150.2639 H   0  0  0  0  0  0  0  0  0  0  0  0
  146.6958  128.5051  152.2797 H   0  0  0  0  0  0  0  0  0  0  0  0
  147.5379  127.1920  153.0567 H   0  0  0  0  0  0  0  0  0  0  0  0
  147.9457  133.2177  153.1633 H   0  0  0  0  0  0  0  0  0  0  0  0
  148.1986  132.6500  151.5143 H   0  0  0  0  0  0  0  0  0  0  0  0
  144.8152  132.0210  151.8119 H   0  0  0  0  0  0  0  0  0  0  0  0
  142.9893  133.5243  150.9997 H   0  0  0  0  0  0  0  0  0  0  0  0
  143.4864  135.9331  150.5644 H   0  0  0  0  0  0  0  0  0  0  0  0
  145.2440  137.7569  150.5788 H   0  0  0  0  0  0  0  0  0  0  0  0
  146.8659  137.4147  151.0418 H   0  0  0  0  0  0  0  0  0  0  0  0
  152.0016  130.9693  154.9255 H   0  0  0  0  0  0  0  0  0  0  0  0
  153.4082  128.9243  155.0446 H   0  0  0  0  0  0  0  0  0  0  0  0
  152.5541  126.7591  154.1707 H   0  0  0  0  0  0  0  0  0  0  0  0
  150.2774  126.6291  153.1679 H   0  0  0  0  0  0  0  0  0  0  0  0
  147.4736  135.2728  151.7261 H   0  0  0  0  0  0  0  0  0  0  0  0
  1  2  1  0  0  0  0
  1 23  1  0  0  0  0
  1 24  1  0  0  0  0
  1 25  1  0  0  0  0
  2  3  1  0  0  0  0
  3  4  1  0  0  0  0
  3 26  1  0  0  0  0
  3 27  1  0  0  0  0
  4  5  1  0  0  0  0
  4 28  1  0  0  0  0
  4 29  1  0  0  0  0
  5 22  1  0  0  0  0
  5  6  1  0  0  0  0
  6  7  1  0  0  0  0
  6 16  2  0  0  0  0
  7  8  1  0  0  0  0
  8  9  1  0  0  0  0
  8 30  1  0  0  0  0
  8 31  1  0  0  0  0
  9 15  1  0  0  0  0
  9 10  2  0  0  0  0
 10 11  1  0  0  0  0
 10 32  1  0  0  0  0
 11 12  2  0  0  0  0
 11 33  1  0  0  0  0
 12 13  1  0  0  0  0
 12 34  1  0  0  0  0
 13 14  1  0  0  0  0
 13 15  2  0  0  0  0
 14 35  1  0  0  0  0
 14 36  1  0  0  0  0
 15 41  1  0  0  0  0
 16 17  1  0  0  0  0
 17 22  2  0  0  0  0
 17 18  1  0  0  0  0
 18 19  2  0  0  0  0
 18 37  1  0  0  0  0
 19 20  1  0  0  0  0
 19 38  1  0  0  0  0
 20 21  2  0  0  0  0
 20 39  1  0  0  0  0
 21 22  1  0  0  0  0
 21 40  1  0  0  0  0
M  CHG  1  15   1
M  END
> <s_m_source_file>
AV-unprocessed.smi

> <i_m_source_file_index>
2593

> <i_lp_mmshare_version>
43012

> <i_f3d_flags>
0

> <s_epik_input>
W2NIXTFbY0hdW2NIXVtjSF1jKGMxMiluKFtDSDJdW0NIMl1PW0NIM10pYyhuMilTW0NIMl1jM1tjSF1bY0hdW2NIXWMobjMpW05IMl0=

> <s_epik_cmdline>
J2VwaWtfcHl0aG9uJywgJy1waCcsICc3LjAnLCAnLXRuJywgJzgnLCAnLW1hJywgJzIwMCcsICctbWV0YWxfYmluZGluZycsICctaW1hZScsICc8aW5maWxlLm1hZT4nLCAnLW9tYWUnLCAnPG91dGZpbGUubWFlPic=

> <r_epik_Ionization_Penalty>
2.18774

> <r_epik_Ionization_Penalty_Charging>
2.15599

> <r_epik_Ionization_Penalty_Neutral>
0.0317477

> <r_epik_State_Penalty>
2.32894

> <r_epik_Charging_Adjusted_Penalty>
4.48493

> <i_epik_Tot_Q>
1

> <i_epik_Tot_abs_Q>
1

> <r_epik_Metal_State_Penalty>
2.33496

> <b_epik_Metal_Only>
0

> <s_lp_Force_Field>
OPLS_2005

> <r_lp_Energy>
14.8683

> <b_lp_Chiralities_Consistent>
1

> <s_lp_Variant>
AV-unprocessed.smi:2593-3

> <Gold.Version>
5.8.1

> <Gold.Id.Protein>
6NUR|6NUR_protein|mol2

> <Gold.PLP.Fitness>
50.7488

> <Gold.PLP.PLP>
-42.9010

> <Gold.PLP.part.hbond>
-2.0000

> <Gold.PLP.part.metal>
0.0000

> <Gold.PLP.part.buried>
-5.4306

> <Gold.PLP.part.nonpolar>
-36.5999

> <Gold.PLP.part.repulsive>
0.3502

> <Gold.PLP.ligand.clash>
0.0000

> <Gold.PLP.ligand.torsion>
0.6335

> <Gold.PLP.Chemscore.Hbond>
3.0000

> <Gold.PLP.Chemscore.CHOScore>
0.0000

> <Gold.PLP.Chemscore.Metal>
0.0000

> <Gold.Chemscore.Hbonds>
donor molecule, donor type, donor heavy atom, donor atom, acceptor molecule, acceptor atom, score
      L1  H    14    35       P1 10171  1.00
      L1  H    15    41       P1  7948  2.00

> <Gold.PLP.Chemscore.Internal.Correction>
0.1148

> <Gold.Rescore>
     Score         DG    S(hbond)    S(metal)    S(lipo)     H(rot)  DE(clash)    DE(int)     intcor
     16.14     -16.90       1.93        0.00      90.69       2.21       0.05       0.70       ----

> <Gold.Chemscore.Fitness>
16.1431

> <Gold.Chemscore.DG>
-16.8997

> <Gold.Chemscore.ZeroCoef>
-5.4800

> <Gold.Chemscore.Hbond>
1.9340

> <Gold.Chemscore.Metal>
0.0000

> <Gold.Chemscore.Lipo>
90.6912

> <Gold.Chemscore.Internal_Hbond>
0.0000

> <Gold.Chemscore.DEClash>
0.0524

> <Gold.Chemscore.DEInternal>
0.7043

> <Gold.Chemscore.Rot>
2.2073

> <Gold.Chemscore.Internal.Correction>
   9.000000E+99

> <Gold.Chemscore.Hbonds>
donor molecule, donor type, donor heavy atom, donor atom, acceptor molecule, acceptor atom, score
      L1  H    14    35       P1 10171  1.00
      L1  H    14    36       P1  7948  0.01
      L1  H    15    41       P1  7948  0.93

> <Gold.Chemscore.Hbond.Weighted>
-6.4597

> <Gold.Chemscore.Metal.Weighted>
-0.0000

> <Gold.Chemscore.Lipo.Weighted>
-10.6109

> <Gold.Chemscore.Internal_Hbond.Weighted>
0.0000

> <Gold.Chemscore.DEClash.Weighted>
0.0524

> <Gold.Chemscore.DEInternal.Weighted>
0.7043

> <Gold.Chemscore.Rot.Weighted>
5.6508

> <Gold.Chemscore.Internal.Correction.Weighted>
   9.000000E+99

> <Gold.Protein.RotatedTorsions>
[ 6907 6896 6895 6894 ] final -142.36 input  -60.11 | X-H torsion
[ 7974 7965 7964 7962 ] final   92.80 input  175.53 | X-H torsion
[ 8008 7997 7996 7995 ] final  141.64 input   59.86 | X-H torsion
[ 10167 10162 10161 10158 ] final -138.74 input  -65.29 | X-H torsion
[ 10718 10713 10712 10709 ] final   -6.78 input   66.30 | X-H torsion
[ 10763 10752 10751 10750 ] final  -59.15 input  -60.55 | X-H torsion
[ 11005 11000 10999 10996 ] final -170.44 input  -57.11 | X-H torsion

> <Gold.Protein.ActiveResidues>
 VAL166  LYS551  ARG553  GLY616  TRP617  ASP618  TYR619  PRO620  LYS621  CYS622 
 ASP623  PHE694  ASN695  SER759  ASP760  ASP761  ALA762  ILE779  LEU786  VAL792 
 PHE793  MET794  SER795  GLU796  ALA797  LYS798  CYS799  TRP800  GLU811  SER814 

> <Gold.Protein.RotatedAtoms>
  151.0860  133.5352  159.2617 H   0  0  0  0  0  0  0  0  0  0  0  0  # atno 6907 bound_to 6896
  151.2237  135.0528  159.8970 H   0  0  0  0  0  0  0  0  0  0  0  0  # atno 6908 bound_to 6896
  152.5429  134.0659  159.8226 H   0  0  0  0  0  0  0  0  0  0  0  0  # atno 6909 bound_to 6896
  145.4875  139.2277  143.2848 H   0  0  0  0  0  0  0  0  0  0  0  0  # atno 7974 bound_to 7965
  156.2962  140.2310  156.4598 H   0  0  0  0  0  0  0  0  0  0  0  0  # atno 8008 bound_to 7997
  154.8028  140.0447  157.1306 H   0  0  0  0  0  0  0  0  0  0  0  0  # atno 8009 bound_to 7997
  154.9513  140.3042  155.5077 H   0  0  0  0  0  0  0  0  0  0  0  0  # atno 8010 bound_to 7997
  139.8448  143.7275  152.2661 H   0  0  0  0  0  0  0  0  0  0  0  0  # atno 10167 bound_to 10162
  156.7269  130.5168  149.5855 H   0  0  0  0  0  0  0  0  0  0  0  0  # atno 10718 bound_to 10713
  154.2493  135.6329  153.5234 H   0  0  0  0  0  0  0  0  0  0  0  0  # atno 10763 bound_to 10752
  152.9915  135.5561  154.5825 H   0  0  0  0  0  0  0  0  0  0  0  0  # atno 10764 bound_to 10752
  154.5349  135.2891  155.1122 H   0  0  0  0  0  0  0  0  0  0  0  0  # atno 10765 bound_to 10752
  140.5194  134.5724  157.5043 H   0  0  0  0  0  0  0  0  0  0  0  0  # atno 11005 bound_to 11000
  146.2304  140.5666  142.8978 LP  0  0  0  0  0  0  0  0  0  0  0  0  # atno 17320 bound_to 7965
  144.7853  140.5924  143.6578 LP  0  0  0  0  0  0  0  0  0  0  0  0  # atno 17321 bound_to 7965
  139.7523  144.7530  151.0487 LP  0  0  0  0  0  0  0  0  0  0  0  0  # atno 17342 bound_to 10162
  140.7794  143.4845  150.9973 LP  0  0  0  0  0  0  0  0  0  0  0  0  # atno 17343 bound_to 10162
  156.1556  130.6339  151.0652 LP  0  0  0  0  0  0  0  0  0  0  0  0  # atno 17370 bound_to 10713
  157.6875  131.0820  150.7202 LP  0  0  0  0  0  0  0  0  0  0  0  0  # atno 17371 bound_to 10713
  139.9614  134.7446  156.0229 LP  0  0  0  0  0  0  0  0  0  0  0  0  # atno 17394 bound_to 11000
  141.1342  133.6579  156.3548 LP  0  0  0  0  0  0  0  0  0  0  0  0  # atno 17395 bound_to 11000

$$$$
