AV-unprocessed.smi:2053|AV-procd|sdf|8330|dock3
  -GOLD-   2272010593D 1   1.00000     0.00000
 Structure written by MMmdl.
 44 45  0  0  0  0  0  0  0  0  1 V2000
  151.9459  143.1386  159.8501 C   0  0  0  0  0  0  0  0  0  0  0  0
  150.8834  143.6238  159.0482 O   0  0  0  0  0  0  0  0  0  0  0  0
  151.0785  143.3577  157.6694 C   0  0  0  0  0  0  0  0  0  0  0  0
  151.1122  141.8423  157.4521 C   0  0  0  0  0  0  0  0  0  0  0  0
  150.7663  141.5672  156.0979 O   0  0  0  0  0  0  0  0  0  0  0  0
  150.6768  140.2505  155.6951 C   0  0  0  0  0  0  0  0  0  0  0  0
  151.0177  139.2401  156.6159 C   0  0  0  0  0  0  0  0  0  0  0  0
  150.9286  137.8952  156.2102 C   0  0  0  0  0  0  0  0  0  0  0  0
  150.5121  137.5984  154.8970 C   0  0  0  0  0  0  0  0  0  0  0  0
  150.4100  136.2316  154.5229 N   0  0  0  0  0  0  0  0  0  0  0  0
  150.3747  135.1434  155.3135 C   0  0  0  0  0  0  0  0  0  0  0  0
  150.3830  135.1770  156.5442 O   0  0  0  0  0  0  0  0  0  0  0  0
  150.3178  133.7923  154.5818 C   0  0  2  0  0  0  0  0  0  0  0  0
  149.0051  133.6094  153.7894 C   0  0  0  0  0  0  0  0  0  0  0  0
  148.6920  132.1187  153.8865 C   0  0  0  0  0  0  0  0  0  0  0  0
  149.2436  131.7160  155.2509 C   0  0  0  0  0  0  0  0  0  0  0  0
  150.3871  132.6028  155.4501 N   0  0  0  0  0  0  0  0  0  0  0  0
  151.5022  132.3945  156.7636 S   0  0  0  0  0  0  0  0  0  0  0  0
  152.5688  131.0038  156.2012 C   0  0  0  0  0  0  0  0  0  0  0  0
  152.3342  133.6056  156.8284 O   0  0  0  0  0  0  0  0  0  0  0  0
  150.7422  131.9601  157.9457 O   0  0  0  0  0  0  0  0  0  0  0  0
  150.1778  138.6839  154.0511 C   0  0  0  0  0  0  0  0  0  0  0  0
  150.2603  139.9758  154.4343 N   0  0  0  0  0  0  0  0  0  0  0  0
  151.7506  143.3713  160.8969 H   0  0  0  0  0  0  0  0  0  0  0  0
  152.8933  143.6029  159.5730 H   0  0  0  0  0  0  0  0  0  0  0  0
  152.0463  142.0562  159.7592 H   0  0  0  0  0  0  0  0  0  0  0  0
  150.2710  143.8007  157.0841 H   0  0  0  0  0  0  0  0  0  0  0  0
  152.0155  143.8028  157.3311 H   0  0  0  0  0  0  0  0  0  0  0  0
  152.1113  141.4630  157.6737 H   0  0  0  0  0  0  0  0  0  0  0  0
  150.4074  141.3577  158.1301 H   0  0  0  0  0  0  0  0  0  0  0  0
  151.3397  139.4921  157.6156 H   0  0  0  0  0  0  0  0  0  0  0  0
  151.1809  137.1037  156.9009 H   0  0  0  0  0  0  0  0  0  0  0  0
  150.3170  136.0594  153.5322 H   0  0  0  0  0  0  0  0  0  0  0  0
  151.1560  133.7280  153.8859 H   0  0  0  0  0  0  0  0  0  0  0  0
  148.1779  134.1719  154.2246 H   0  0  0  0  0  0  0  0  0  0  0  0
  149.1044  133.9323  152.7527 H   0  0  0  0  0  0  0  0  0  0  0  0
  147.6291  131.9009  153.7790 H   0  0  0  0  0  0  0  0  0  0  0  0
  149.2259  131.5804  153.1021 H   0  0  0  0  0  0  0  0  0  0  0  0
  148.5123  131.8931  156.0400 H   0  0  0  0  0  0  0  0  0  0  0  0
  149.5453  130.6688  155.2805 H   0  0  0  0  0  0  0  0  0  0  0  0
  153.3688  130.8505  156.9251 H   0  0  0  0  0  0  0  0  0  0  0  0
  153.0025  131.2448  155.2312 H   0  0  0  0  0  0  0  0  0  0  0  0
  151.9843  130.0888  156.1218 H   0  0  0  0  0  0  0  0  0  0  0  0
  149.8118  138.5361  153.0473 H   0  0  0  0  0  0  0  0  0  0  0  0
  1  2  1  0  0  0  0
  1 24  1  0  0  0  0
  1 25  1  0  0  0  0
  1 26  1  0  0  0  0
  2  3  1  0  0  0  0
  3  4  1  0  0  0  0
  3 27  1  0  0  0  0
  3 28  1  0  0  0  0
  4  5  1  0  0  0  0
  4 29  1  0  0  0  0
  4 30  1  0  0  0  0
  5  6  1  0  0  0  0
  6 23  1  0  0  0  0
  6  7  2  0  0  0  0
  7  8  1  0  0  0  0
  7 31  1  0  0  0  0
  8  9  2  0  0  0  0
  8 32  1  0  0  0  0
  9 10  1  0  0  0  0
  9 22  1  0  0  0  0
 10 11  1  0  0  0  0
 10 33  1  0  0  0  0
 11 12  2  0  0  0  0
 11 13  1  0  0  0  0
 13 17  1  0  0  0  0
 13 14  1  0  0  0  0
 13 34  1  0  0  0  0
 14 15  1  0  0  0  0
 14 35  1  0  0  0  0
 14 36  1  0  0  0  0
 15 16  1  0  0  0  0
 15 37  1  0  0  0  0
 15 38  1  0  0  0  0
 16 17  1  0  0  0  0
 16 39  1  0  0  0  0
 16 40  1  0  0  0  0
 17 18  1  0  0  0  0
 18 19  1  0  0  0  0
 18 20  2  0  0  0  0
 18 21  2  0  0  0  0
 19 41  1  0  0  0  0
 19 42  1  0  0  0  0
 19 43  1  0  0  0  0
 22 23  2  0  0  0  0
 22 44  1  0  0  0  0
M  END
> <s_m_source_file>
AV-unprocessed.smi

> <i_m_source_file_index>
2053

> <i_lp_mmshare_version>
43012

> <i_f3d_flags>
0

> <s_epik_input>
W0NIM11PW0NIMl1bQ0gyXU9jMVtjSF1bY0hdYyhbY0hdbjEpW05IXUMoPU8pW0NAQEhdMltDSDJdW0NIMl1bQ0gyXU4yUyg9TykoPU8pW0NIM10=

> <s_epik_cmdline>
J2VwaWtfcHl0aG9uJywgJy1waCcsICc3LjAnLCAnLXRuJywgJzgnLCAnLW1hJywgJzIwMCcsICctbWV0YWxfYmluZGluZycsICctaW1hZScsICc8aW5maWxlLm1hZT4nLCAnLW9tYWUnLCAnPG91dGZpbGUubWFlPic=

> <r_lp_tautomer_probability>
1

> <r_epik_Ionization_Penalty>
1.28704e-05

> <r_epik_Ionization_Penalty_Charging>
0

> <r_epik_Ionization_Penalty_Neutral>
1.28704e-05

> <r_epik_State_Penalty>
-0

> <r_epik_Charging_Adjusted_Penalty>
0

> <i_epik_Tot_Q>
0

> <i_epik_Tot_abs_Q>
0

> <r_epik_Metal_State_Penalty>
-0

> <b_epik_Metal_Only>
0

> <s_lp_Force_Field>
OPLS_2005

> <r_lp_Energy>
14.296

> <b_lp_Chiralities_Consistent>
1

> <s_lp_Variant>
AV-unprocessed.smi:2053-1

> <Gold.Version>
5.8.1

> <Gold.Id.Protein>
6NUR|6NUR_protein|mol2

> <Gold.PLP.Fitness>
47.4962

> <Gold.PLP.PLP>
-36.7263

> <Gold.PLP.part.hbond>
-3.9958

> <Gold.PLP.part.metal>
0.0000

> <Gold.PLP.part.buried>
-4.1474

> <Gold.PLP.part.nonpolar>
-29.4723

> <Gold.PLP.part.repulsive>
0.3150

> <Gold.PLP.ligand.clash>
0.5489

> <Gold.PLP.ligand.torsion>
1.3020

> <Gold.PLP.Chemscore.Hbond>
2.3388

> <Gold.PLP.Chemscore.CHOScore>
1.5850

> <Gold.PLP.Chemscore.Metal>
0.0000

> <Gold.Chemscore.Hbonds>
donor molecule, donor type, donor heavy atom, donor atom, acceptor molecule, acceptor atom, score
      L1  H    10    33       P1  7948  0.18
      P1  H  6896  6909       L1    21  1.00
      P1  H  7989  7998       L1    23  0.95
      L1  C    22    44       P1  7948  0.61
      L1  C    22    44       P1  7957  1.00

> <Gold.PLP.Chemscore.Internal.Correction>
2.1515

> <Gold.Rescore>
     Score         DG    S(hbond)    S(metal)    S(lipo)     H(rot)  DE(clash)    DE(int)     intcor
      8.44     -15.31       1.93        0.00      71.27       1.94       0.19       6.68       ----

> <Gold.Chemscore.Fitness>
8.4421

> <Gold.Chemscore.DG>
-15.3147

> <Gold.Chemscore.ZeroCoef>
-5.4800

> <Gold.Chemscore.Hbond>
1.9337

> <Gold.Chemscore.Metal>
0.0000

> <Gold.Chemscore.Lipo>
71.2750

> <Gold.Chemscore.Internal_Hbond>
0.0000

> <Gold.Chemscore.DEClash>
0.1922

> <Gold.Chemscore.DEInternal>
6.6805

> <Gold.Chemscore.Rot>
1.9386

> <Gold.Chemscore.Internal.Correction>
   9.000000E+99

> <Gold.Chemscore.Hbonds>
donor molecule, donor type, donor heavy atom, donor atom, acceptor molecule, acceptor atom, score
      P1  H  6896  6909       L1    21  0.29
      P1  H  7989  7998       L1    23  0.17

> <Gold.Chemscore.Hbond.Weighted>
-6.4584

> <Gold.Chemscore.Metal.Weighted>
-0.0000

> <Gold.Chemscore.Lipo.Weighted>
-8.3392

> <Gold.Chemscore.Internal_Hbond.Weighted>
0.0000

> <Gold.Chemscore.DEClash.Weighted>
0.1922

> <Gold.Chemscore.DEInternal.Weighted>
6.6805

> <Gold.Chemscore.Rot.Weighted>
4.9629

> <Gold.Chemscore.Internal.Correction.Weighted>
   9.000000E+99

> <Gold.Protein.RotatedTorsions>
[ 6907 6896 6895 6894 ] final  -26.88 input  -60.11 | X-H torsion
[ 7974 7965 7964 7962 ] final  138.21 input  175.53 | X-H torsion
[ 8008 7997 7996 7995 ] final  -38.15 input   59.86 | X-H torsion
[ 10167 10162 10161 10158 ] final  156.37 input  -65.29 | X-H torsion
[ 10718 10713 10712 10709 ] final   67.71 input   66.30 | X-H torsion
[ 10763 10752 10751 10750 ] final -118.84 input  -60.55 | X-H torsion
[ 11005 11000 10999 10996 ] final -154.79 input  -57.11 | X-H torsion

> <Gold.Protein.ActiveResidues>
 VAL166  LYS551  ARG553  GLY616  TRP617  ASP618  TYR619  PRO620  LYS621  CYS622 
 ASP623  PHE694  ASN695  SER759  ASP760  ASP761  ALA762  ILE779  LEU786  VAL792 
 PHE793  MET794  SER795  GLU796  ALA797  LYS798  CYS799  TRP800  GLU811  SER814 

> <Gold.Protein.RotatedAtoms>
  151.1548  135.0245  159.8683 H   0  0  0  0  0  0  0  0  0  0  0  0  # atno 6907 bound_to 6896
  152.5452  134.1347  159.8464 H   0  0  0  0  0  0  0  0  0  0  0  0  # atno 6908 bound_to 6896
  151.1436  133.4908  159.2629 H   0  0  0  0  0  0  0  0  0  0  0  0  # atno 6909 bound_to 6896
  144.9394  139.4949  143.5579 H   0  0  0  0  0  0  0  0  0  0  0  0  # atno 7974 bound_to 7965
  154.4041  140.1585  156.2653 H   0  0  0  0  0  0  0  0  0  0  0  0  # atno 8008 bound_to 7997
  155.9001  140.3433  155.5998 H   0  0  0  0  0  0  0  0  0  0  0  0  # atno 8009 bound_to 7997
  155.7458  140.0798  157.2215 H   0  0  0  0  0  0  0  0  0  0  0  0  # atno 8010 bound_to 7997
  139.4821  144.5015  151.8162 H   0  0  0  0  0  0  0  0  0  0  0  0  # atno 10167 bound_to 10162
  157.6246  130.9335  150.0279 H   0  0  0  0  0  0  0  0  0  0  0  0  # atno 10718 bound_to 10713
  154.8599  135.4259  154.2203 H   0  0  0  0  0  0  0  0  0  0  0  0  # atno 10763 bound_to 10752
  153.3209  135.6982  153.7037 H   0  0  0  0  0  0  0  0  0  0  0  0  # atno 10764 bound_to 10752
  153.6092  135.3522  155.2946 H   0  0  0  0  0  0  0  0  0  0  0  0  # atno 10765 bound_to 10752
  140.6935  134.4016  157.5217 H   0  0  0  0  0  0  0  0  0  0  0  0  # atno 11005 bound_to 11000
  146.3280  139.8402  142.8892 LP  0  0  0  0  0  0  0  0  0  0  0  0  # atno 17320 bound_to 7965
  145.3015  141.0195  143.3606 LP  0  0  0  0  0  0  0  0  0  0  0  0  # atno 17321 bound_to 7965
  140.4508  144.1857  150.5897 LP  0  0  0  0  0  0  0  0  0  0  0  0  # atno 17342 bound_to 10162
  140.4587  143.2457  151.9250 LP  0  0  0  0  0  0  0  0  0  0  0  0  # atno 17343 bound_to 10162
  156.1411  130.3642  149.9581 LP  0  0  0  0  0  0  0  0  0  0  0  0  # atno 17370 bound_to 10713
  156.7622  130.9155  151.3642 LP  0  0  0  0  0  0  0  0  0  0  0  0  # atno 17371 bound_to 10713
  139.8917  134.8774  156.2308 LP  0  0  0  0  0  0  0  0  0  0  0  0  # atno 17394 bound_to 11000
  141.0222  133.7035  156.1288 LP  0  0  0  0  0  0  0  0  0  0  0  0  # atno 17395 bound_to 11000

$$$$
