AV-unprocessed.smi:1812|AV-procd|sdf|7337|dock2
  -GOLD-   22720 8593D 1   1.00000     0.00000
 Structure written by MMmdl.
 34 36  0  0  0  0  0  0  0  0  1 V2000
  151.3946  141.5820  157.6293 O   0  0  0  0  0  0  0  0  0  0  0  0
  150.8017  142.4928  157.0504 C   0  0  0  0  0  0  0  0  0  0  0  0
  151.0131  143.7913  157.3083 N   0  0  0  0  0  0  0  0  0  0  0  0
  151.9596  144.3041  158.2925 C   0  0  0  0  0  0  0  0  0  0  0  0
  151.7358  143.6715  159.6753 C   0  0  1  0  0  0  0  0  0  0  0  0
  152.7025  142.5372  159.9973 C   0  0  0  0  0  0  0  0  0  0  0  0
  152.6370  142.4714  161.5112 C   0  0  0  0  0  0  0  0  0  0  0  0
  152.2320  143.8914  161.9204 C   0  0  0  0  0  0  0  0  0  0  0  0
  152.0135  144.6053  160.7079 O   0  0  0  0  0  0  0  0  0  0  0  0
  149.8707  142.3309  156.0937 N   0  0  0  0  0  0  0  0  0  0  0  0
  149.4007  141.1199  155.5197 C   0  0  0  0  0  0  0  0  0  0  0  0
  149.8827  139.9100  155.8355 N   0  0  0  0  0  0  0  0  0  0  0  0
  149.2531  138.8995  155.1225 N   0  0  0  0  0  0  0  0  0  0  0  0
  148.3171  139.3714  154.2904 C   0  0  0  0  0  0  0  0  0  0  0  0
  147.5079  138.4746  153.4133 C   0  0  0  0  0  0  0  0  0  0  0  0
  146.6806  139.0421  152.2828 C   0  0  0  0  0  0  0  0  0  0  0  0
  145.9970  138.4445  153.4858 C   0  0  0  0  0  0  0  0  0  0  0  0
  148.1230  141.1213  154.3162 S   0  0  0  0  0  0  0  0  0  0  0  0
  150.4798  144.4755  156.7923 H   0  0  0  0  0  0  0  0  0  0  0  0
  152.9805  144.1192  157.9545 H   0  0  0  0  0  0  0  0  0  0  0  0
  151.8453  145.3867  158.3509 H   0  0  0  0  0  0  0  0  0  0  0  0
  150.7086  143.3169  159.7810 H   0  0  0  0  0  0  0  0  0  0  0  0
  152.4297  141.5969  159.5175 H   0  0  0  0  0  0  0  0  0  0  0  0
  153.7134  142.8000  159.6821 H   0  0  0  0  0  0  0  0  0  0  0  0
  151.8729  141.7600  161.8269 H   0  0  0  0  0  0  0  0  0  0  0  0
  153.5859  142.1628  161.9508 H   0  0  0  0  0  0  0  0  0  0  0  0
  151.3157  143.8773  162.5116 H   0  0  0  0  0  0  0  0  0  0  0  0
  153.0066  144.3851  162.5077 H   0  0  0  0  0  0  0  0  0  0  0  0
  149.4614  143.1743  155.7200 H   0  0  0  0  0  0  0  0  0  0  0  0
  148.0276  137.5341  153.2421 H   0  0  0  0  0  0  0  0  0  0  0  0
  146.6477  140.1244  152.1738 H   0  0  0  0  0  0  0  0  0  0  0  0
  146.6462  138.4780  151.3530 H   0  0  0  0  0  0  0  0  0  0  0  0
  145.5089  137.4805  153.3588 H   0  0  0  0  0  0  0  0  0  0  0  0
  145.4987  139.1320  154.1658 H   0  0  0  0  0  0  0  0  0  0  0  0
  1  2  2  0  0  0  0
  2  3  1  0  0  0  0
  2 10  1  0  0  0  0
  3  4  1  0  0  0  0
  3 19  1  0  0  0  0
  4  5  1  0  0  0  0
  4 20  1  0  0  0  0
  4 21  1  0  0  0  0
  5  9  1  0  0  0  0
  5  6  1  0  0  0  0
  5 22  1  0  0  0  0
  6  7  1  0  0  0  0
  6 23  1  0  0  0  0
  6 24  1  0  0  0  0
  7  8  1  0  0  0  0
  7 25  1  0  0  0  0
  7 26  1  0  0  0  0
  8  9  1  0  0  0  0
  8 27  1  0  0  0  0
  8 28  1  0  0  0  0
 10 11  1  0  0  0  0
 10 29  1  0  0  0  0
 11 18  1  0  0  0  0
 11 12  2  0  0  0  0
 12 13  1  0  0  0  0
 13 14  2  0  0  0  0
 14 15  1  0  0  0  0
 14 18  1  0  0  0  0
 15 17  1  0  0  0  0
 15 16  1  0  0  0  0
 15 30  1  0  0  0  0
 16 17  1  0  0  0  0
 16 31  1  0  0  0  0
 16 32  1  0  0  0  0
 17 33  1  0  0  0  0
 17 34  1  0  0  0  0
M  END
> <s_m_source_file>
AV-unprocessed.smi

> <i_m_source_file_index>
1812

> <i_lp_mmshare_version>
43012

> <i_f3d_flags>
0

> <s_epik_input>
TzFbQ0gyXVtDSDJdW0NIMl1bQ0BIXTFbQ0gyXVtOSF1DKD1PKVtOSF1jMm5uYyhzMilbQ0hdM1tDSDJdW0NIMl0z

> <s_epik_cmdline>
J2VwaWtfcHl0aG9uJywgJy1waCcsICc3LjAnLCAnLXRuJywgJzgnLCAnLW1hJywgJzIwMCcsICctbWV0YWxfYmluZGluZycsICctaW1hZScsICc8aW5maWxlLm1hZT4nLCAnLW9tYWUnLCAnPG91dGZpbGUubWFlPic=

> <r_lp_tautomer_probability>
1

> <r_epik_Ionization_Penalty>
0.000281817

> <r_epik_Ionization_Penalty_Charging>
0

> <r_epik_Ionization_Penalty_Neutral>
0.000281817

> <r_epik_State_Penalty>
-0

> <r_epik_Charging_Adjusted_Penalty>
0

> <i_epik_Tot_Q>
0

> <i_epik_Tot_abs_Q>
0

> <r_epik_Metal_State_Penalty>
0.157535

> <b_epik_Metal_Only>
0

> <s_lp_Force_Field>
OPLS_2005

> <r_lp_Energy>
14.4176

> <b_lp_Chiralities_Consistent>
1

> <s_lp_Variant>
AV-unprocessed.smi:1812-2

> <Gold.Version>
5.8.1

> <Gold.Id.Protein>
6NUR|6NUR_protein|mol2

> <Gold.PLP.Fitness>
43.3867

> <Gold.PLP.PLP>
-38.7818

> <Gold.PLP.part.hbond>
-2.0000

> <Gold.PLP.part.metal>
0.0000

> <Gold.PLP.part.buried>
-0.8300

> <Gold.PLP.part.nonpolar>
-35.2100

> <Gold.PLP.part.repulsive>
0.4038

> <Gold.PLP.ligand.clash>
0.0000

> <Gold.PLP.ligand.torsion>
0.6883

> <Gold.PLP.Chemscore.Hbond>
1.9440

> <Gold.PLP.Chemscore.CHOScore>
0.0000

> <Gold.PLP.Chemscore.Metal>
0.0000

> <Gold.Chemscore.Hbonds>
donor molecule, donor type, donor heavy atom, donor atom, acceptor molecule, acceptor atom, score
      L1  H     3    19       P1  8028  0.91
      L1  H    10    29       P1  8028  1.00

> <Gold.PLP.Chemscore.Internal.Correction>
0.1496

> <Gold.Rescore>
     Score         DG    S(hbond)    S(metal)    S(lipo)     H(rot)  DE(clash)    DE(int)     intcor
     16.42     -18.90       1.89        0.00      92.93       1.47       0.51       1.96       ----

> <Gold.Chemscore.Fitness>
16.4182

> <Gold.Chemscore.DG>
-18.8967

> <Gold.Chemscore.ZeroCoef>
-5.4800

> <Gold.Chemscore.Hbond>
1.8903

> <Gold.Chemscore.Metal>
0.0000

> <Gold.Chemscore.Lipo>
92.9288

> <Gold.Chemscore.Internal_Hbond>
0.0000

> <Gold.Chemscore.DEClash>
0.5144

> <Gold.Chemscore.DEInternal>
1.9640

> <Gold.Chemscore.Rot>
1.4725

> <Gold.Chemscore.Internal.Correction>
   9.000000E+99

> <Gold.Chemscore.Hbonds>
donor molecule, donor type, donor heavy atom, donor atom, acceptor molecule, acceptor atom, score
      L1  H     3    19       P1  8028  0.82
      L1  H    10    29       P1  8028  0.99

> <Gold.Chemscore.Hbond.Weighted>
-6.3135

> <Gold.Chemscore.Metal.Weighted>
-0.0000

> <Gold.Chemscore.Lipo.Weighted>
-10.8727

> <Gold.Chemscore.Internal_Hbond.Weighted>
0.0000

> <Gold.Chemscore.DEClash.Weighted>
0.5144

> <Gold.Chemscore.DEInternal.Weighted>
1.9640

> <Gold.Chemscore.Rot.Weighted>
3.7695

> <Gold.Chemscore.Internal.Correction.Weighted>
   9.000000E+99

> <Gold.Protein.RotatedTorsions>
[ 6907 6896 6895 6894 ] final  148.47 input  -60.11 | X-H torsion
[ 7974 7965 7964 7962 ] final -170.93 input  175.53 | X-H torsion
[ 8008 7997 7996 7995 ] final -135.16 input   59.86 | X-H torsion
[ 10167 10162 10161 10158 ] final  -29.80 input  -65.29 | X-H torsion
[ 10718 10713 10712 10709 ] final  137.71 input   66.30 | X-H torsion
[ 10763 10752 10751 10750 ] final  -99.63 input  -60.55 | X-H torsion
[ 11005 11000 10999 10996 ] final  175.32 input  -57.11 | X-H torsion

> <Gold.Protein.ActiveResidues>
 VAL166  LYS551  ARG553  GLY616  TRP617  ASP618  TYR619  PRO620  LYS621  CYS622 
 ASP623  PHE694  ASN695  SER759  ASP760  ASP761  ALA762  ILE779  LEU786  VAL792 
 PHE793  MET794  SER795  GLU796  ALA797  LYS798  CYS799  TRP800  GLU811  SER814 

> <Gold.Protein.RotatedAtoms>
  152.1410  133.4464  159.4766 H   0  0  0  0  0  0  0  0  0  0  0  0  # atno 6907 bound_to 6896
  150.6886  134.2305  159.4442 H   0  0  0  0  0  0  0  0  0  0  0  0  # atno 6908 bound_to 6896
  152.0196  134.9830  160.0621 H   0  0  0  0  0  0  0  0  0  0  0  0  # atno 6909 bound_to 6896
  144.7163  140.1998  143.6339 H   0  0  0  0  0  0  0  0  0  0  0  0  # atno 7974 bound_to 7965
  155.3740  140.0490  157.3045 H   0  0  0  0  0  0  0  0  0  0  0  0  # atno 8008 bound_to 7997
  154.5116  140.2193  155.9109 H   0  0  0  0  0  0  0  0  0  0  0  0  # atno 8009 bound_to 7997
  156.1589  140.3120  155.8778 H   0  0  0  0  0  0  0  0  0  0  0  0  # atno 8010 bound_to 7997
  140.7256  143.3900  151.1447 H   0  0  0  0  0  0  0  0  0  0  0  0  # atno 10167 bound_to 10162
  157.4332  131.1050  151.0227 H   0  0  0  0  0  0  0  0  0  0  0  0  # atno 10718 bound_to 10713
  154.7514  135.4965  153.9295 H   0  0  0  0  0  0  0  0  0  0  0  0  # atno 10763 bound_to 10752
  153.1147  135.6717  153.9446 H   0  0  0  0  0  0  0  0  0  0  0  0  # atno 10764 bound_to 10752
  153.9196  135.3090  155.3427 H   0  0  0  0  0  0  0  0  0  0  0  0  # atno 10765 bound_to 10752
  140.3609  134.7114  157.4330 H   0  0  0  0  0  0  0  0  0  0  0  0  # atno 11005 bound_to 11000
  145.8690  139.2262  143.1672 LP  0  0  0  0  0  0  0  0  0  0  0  0  # atno 17320 bound_to 7965
  146.0102  140.8442  142.9974 LP  0  0  0  0  0  0  0  0  0  0  0  0  # atno 17321 bound_to 7965
  139.7503  143.8789  152.3075 LP  0  0  0  0  0  0  0  0  0  0  0  0  # atno 17342 bound_to 10162
  139.8640  144.7102  150.9066 LP  0  0  0  0  0  0  0  0  0  0  0  0  # atno 17343 bound_to 10162
  157.1116  130.6024  149.5483 LP  0  0  0  0  0  0  0  0  0  0  0  0  # atno 17370 bound_to 10713
  155.9921  130.4977  150.7325 LP  0  0  0  0  0  0  0  0  0  0  0  0  # atno 17371 bound_to 10713
  140.0627  134.5972  155.8730 LP  0  0  0  0  0  0  0  0  0  0  0  0  # atno 17394 bound_to 11000
  141.1984  133.6601  156.5792 LP  0  0  0  0  0  0  0  0  0  0  0  0  # atno 17395 bound_to 11000

$$$$
