AV-unprocessed.smi:3075|AV-procd|sdf|11724|dock8
  -GOLD-   2272017123D 1   1.00000     0.00000
 Structure written by MMmdl.
 29 30  0  0  0  0  0  0  0  0  1 V2000
  147.4165  138.3263  151.5378 N   0  0  0  0  0  0  0  0  0  0  0  0
  146.7439  138.7011  152.7661 C   0  0  0  0  0  0  0  0  0  0  0  0
  147.4566  139.8231  153.5067 C   0  0  0  0  0  0  0  0  0  0  0  0
  146.9444  141.1347  153.4141 C   0  0  0  0  0  0  0  0  0  0  0  0
  147.6089  142.1824  154.0764 C   0  0  0  0  0  0  0  0  0  0  0  0
  148.7698  141.8755  154.8084 C   0  0  0  0  0  0  0  0  0  0  0  0
  149.2715  140.6274  154.9082 N   0  0  0  0  0  0  0  0  0  0  0  0
  148.6335  139.6117  154.2755 C   0  0  0  0  0  0  0  0  0  0  0  0
  149.1687  138.3188  154.4269 N   0  0  0  0  0  0  0  0  0  0  0  0
  150.5488  138.2258  154.8929 C   0  0  0  0  0  0  0  0  0  0  0  0
  151.0314  136.7677  154.8090 C   0  0  0  0  0  0  0  0  0  0  0  0
  150.1515  135.9311  155.5552 O   0  0  0  0  0  0  0  0  0  0  0  0
  148.8190  135.9707  155.0521 C   0  0  0  0  0  0  0  0  0  0  0  0
  148.2760  137.4079  155.1324 C   0  0  0  0  0  0  0  0  0  0  0  0
  148.1398  139.0013  151.3341 H   0  0  0  0  0  0  0  0  0  0  0  0
  147.8906  137.4449  151.6732 H   0  0  0  0  0  0  0  0  0  0  0  0
  145.7093  138.9619  152.5446 H   0  0  0  0  0  0  0  0  0  0  0  0
  146.7050  137.8266  153.4163 H   0  0  0  0  0  0  0  0  0  0  0  0
  146.0527  141.3364  152.8386 H   0  0  0  0  0  0  0  0  0  0  0  0
  147.2395  143.1956  154.0223 H   0  0  0  0  0  0  0  0  0  0  0  0
  149.3094  142.6524  155.3296 H   0  0  0  0  0  0  0  0  0  0  0  0
  151.1886  138.8688  154.2874 H   0  0  0  0  0  0  0  0  0  0  0  0
  150.6169  138.5752  155.9243 H   0  0  0  0  0  0  0  0  0  0  0  0
  151.0778  136.4319  153.7718 H   0  0  0  0  0  0  0  0  0  0  0  0
  152.0379  136.6803  155.2184 H   0  0  0  0  0  0  0  0  0  0  0  0
  148.7964  135.6043  154.0243 H   0  0  0  0  0  0  0  0  0  0  0  0
  148.1954  135.2999  155.6434 H   0  0  0  0  0  0  0  0  0  0  0  0
  148.1980  137.7201  156.1748 H   0  0  0  0  0  0  0  0  0  0  0  0
  147.2716  137.4495  154.7121 H   0  0  0  0  0  0  0  0  0  0  0  0
  1  2  1  0  0  0  0
  1 15  1  0  0  0  0
  1 16  1  0  0  0  0
  2  3  1  0  0  0  0
  2 17  1  0  0  0  0
  2 18  1  0  0  0  0
  3  8  1  0  0  0  0
  3  4  2  0  0  0  0
  4  5  1  0  0  0  0
  4 19  1  0  0  0  0
  5  6  2  0  0  0  0
  5 20  1  0  0  0  0
  6  7  1  0  0  0  0
  6 21  1  0  0  0  0
  7  8  2  0  0  0  0
  8  9  1  0  0  0  0
  9 14  1  0  0  0  0
  9 10  1  0  0  0  0
 10 11  1  0  0  0  0
 10 22  1  0  0  0  0
 10 23  1  0  0  0  0
 11 12  1  0  0  0  0
 11 24  1  0  0  0  0
 11 25  1  0  0  0  0
 12 13  1  0  0  0  0
 13 14  1  0  0  0  0
 13 26  1  0  0  0  0
 13 27  1  0  0  0  0
 14 28  1  0  0  0  0
 14 29  1  0  0  0  0
M  END
> <s_m_source_file>
AV-unprocessed.smi

> <i_m_source_file_index>
3075

> <i_lp_mmshare_version>
43012

> <i_f3d_flags>
0

> <s_epik_input>
W05IMl1bQ0gyXWMxW2NIXVtjSF1bY0hdbmMxTjJbQ0gyXVtDSDJdT1tDSDJdW0NIMl0y

> <s_epik_cmdline>
J2VwaWtfcHl0aG9uJywgJy1waCcsICc3LjAnLCAnLXRuJywgJzgnLCAnLW1hJywgJzIwMCcsICctbWV0YWxfYmluZGluZycsICctaW1hZScsICc8aW5maWxlLm1hZT4nLCAnLW9tYWUnLCAnPG91dGZpbGUubWFlPic=

> <r_lp_tautomer_probability>
1

> <r_epik_Ionization_Penalty>
1.38161

> <r_epik_Ionization_Penalty_Charging>
0

> <r_epik_Ionization_Penalty_Neutral>
1.38161

> <r_epik_State_Penalty>
1.45585

> <r_epik_Charging_Adjusted_Penalty>
1.45585

> <i_epik_Tot_Q>
0

> <i_epik_Tot_abs_Q>
0

> <r_epik_Metal_State_Penalty>
1.45048

> <b_epik_Metal_Only>
0

> <s_lp_Force_Field>
OPLS_2005

> <r_lp_Energy>
18.9945

> <b_lp_Chiralities_Consistent>
1

> <s_lp_Variant>
AV-unprocessed.smi:3075-2

> <Gold.Version>
5.8.1

> <Gold.Id.Protein>
6NUR|6NUR_protein|mol2

> <Gold.PLP.Fitness>
30.2774

> <Gold.PLP.PLP>
-22.0816

> <Gold.PLP.part.hbond>
-3.0000

> <Gold.PLP.part.metal>
0.0000

> <Gold.PLP.part.buried>
0.2486

> <Gold.PLP.part.nonpolar>
-19.4838

> <Gold.PLP.part.repulsive>
0.4175

> <Gold.PLP.ligand.clash>
0.0000

> <Gold.PLP.ligand.torsion>
0.4906

> <Gold.PLP.Chemscore.Hbond>
2.0000

> <Gold.PLP.Chemscore.CHOScore>
1.0000

> <Gold.PLP.Chemscore.Metal>
0.0000

> <Gold.Chemscore.Hbonds>
donor molecule, donor type, donor heavy atom, donor atom, acceptor molecule, acceptor atom, score
      L1  H     1    15       P1  7957  1.00
      L1  H     1    16       P1  7948  1.00
      L1  C     6    21       P1  8028  1.00

> <Gold.PLP.Chemscore.Internal.Correction>
0.1771

> <Gold.Rescore>
     Score         DG    S(hbond)    S(metal)    S(lipo)     H(rot)  DE(clash)    DE(int)     intcor
     13.52     -14.69       1.81        0.00      55.14       1.29       0.58       0.58       ----

> <Gold.Chemscore.Fitness>
13.5229

> <Gold.Chemscore.DG>
-14.6853

> <Gold.Chemscore.ZeroCoef>
-5.4800

> <Gold.Chemscore.Hbond>
1.8114

> <Gold.Chemscore.Metal>
0.0000

> <Gold.Chemscore.Lipo>
55.1392

> <Gold.Chemscore.Internal_Hbond>
0.0000

> <Gold.Chemscore.DEClash>
0.5788

> <Gold.Chemscore.DEInternal>
0.5836

> <Gold.Chemscore.Rot>
1.2875

> <Gold.Chemscore.Internal.Correction>
   9.000000E+99

> <Gold.Chemscore.Hbonds>
donor molecule, donor type, donor heavy atom, donor atom, acceptor molecule, acceptor atom, score
      L1  H     1    15       P1  7957  0.55
      L1  H     1    16       P1  7948  0.98

> <Gold.Chemscore.Hbond.Weighted>
-6.0501

> <Gold.Chemscore.Metal.Weighted>
-0.0000

> <Gold.Chemscore.Lipo.Weighted>
-6.4513

> <Gold.Chemscore.Internal_Hbond.Weighted>
0.0000

> <Gold.Chemscore.DEClash.Weighted>
0.5788

> <Gold.Chemscore.DEInternal.Weighted>
0.5836

> <Gold.Chemscore.Rot.Weighted>
3.2961

> <Gold.Chemscore.Internal.Correction.Weighted>
   9.000000E+99

> <Gold.Protein.RotatedTorsions>
[ 6907 6896 6895 6894 ] final -163.50 input  -60.11 | X-H torsion
[ 7974 7965 7964 7962 ] final -104.47 input  175.53 | X-H torsion
[ 8008 7997 7996 7995 ] final   51.33 input   59.86 | X-H torsion
[ 10167 10162 10161 10158 ] final  -40.49 input  -65.29 | X-H torsion
[ 10718 10713 10712 10709 ] final  -60.11 input   66.30 | X-H torsion
[ 10763 10752 10751 10750 ] final  120.45 input  -60.55 | X-H torsion
[ 11005 11000 10999 10996 ] final  -16.87 input  -57.11 | X-H torsion

> <Gold.Protein.ActiveResidues>
 VAL166  LYS551  ARG553  GLY616  TRP617  ASP618  TYR619  PRO620  LYS621  CYS622 
 ASP623  PHE694  ASN695  SER759  ASP760  ASP761  ALA762  ILE779  LEU786  VAL792 
 PHE793  MET794  SER795  GLU796  ALA797  LYS798  CYS799  TRP800  GLU811  SER814 

> <Gold.Protein.RotatedAtoms>
  151.3970  133.3770  159.2727 H   0  0  0  0  0  0  0  0  0  0  0  0  # atno 6907 bound_to 6896
  150.9462  134.8868  159.7654 H   0  0  0  0  0  0  0  0  0  0  0  0  # atno 6908 bound_to 6896
  152.5092  134.3923  159.9440 H   0  0  0  0  0  0  0  0  0  0  0  0  # atno 6909 bound_to 6896
  145.2428  140.9211  143.3140 H   0  0  0  0  0  0  0  0  0  0  0  0  # atno 7974 bound_to 7965
  155.4335  140.3451  155.4282 H   0  0  0  0  0  0  0  0  0  0  0  0  # atno 8008 bound_to 7997
  156.1322  140.1517  156.9079 H   0  0  0  0  0  0  0  0  0  0  0  0  # atno 8009 bound_to 7997
  154.4903  140.0843  156.7560 H   0  0  0  0  0  0  0  0  0  0  0  0  # atno 8010 bound_to 7997
  140.7032  143.3150  151.2932 H   0  0  0  0  0  0  0  0  0  0  0  0  # atno 10167 bound_to 10162
  156.1014  130.4186  150.0808 H   0  0  0  0  0  0  0  0  0  0  0  0  # atno 10718 bound_to 10713
  153.5987  135.3452  155.2937 H   0  0  0  0  0  0  0  0  0  0  0  0  # atno 10763 bound_to 10752
  154.8640  135.4222  154.2436 H   0  0  0  0  0  0  0  0  0  0  0  0  # atno 10764 bound_to 10752
  153.3260  135.7041  153.7060 H   0  0  0  0  0  0  0  0  0  0  0  0  # atno 10765 bound_to 10752
  140.8111  133.8140  155.9564 H   0  0  0  0  0  0  0  0  0  0  0  0  # atno 11005 bound_to 11000
  144.9574  139.4017  143.6373 LP  0  0  0  0  0  0  0  0  0  0  0  0  # atno 17320 bound_to 7965
  146.3324  139.8610  142.8856 LP  0  0  0  0  0  0  0  0  0  0  0  0  # atno 17321 bound_to 7965
  139.6586  144.0231  152.2677 LP  0  0  0  0  0  0  0  0  0  0  0  0  # atno 17342 bound_to 10162
  139.9790  144.6441  150.7918 LP  0  0  0  0  0  0  0  0  0  0  0  0  # atno 17343 bound_to 10162
  156.8795  130.9551  151.3601 LP  0  0  0  0  0  0  0  0  0  0  0  0  # atno 17370 bound_to 10713
  157.6184  130.8636  149.9067 LP  0  0  0  0  0  0  0  0  0  0  0  0  # atno 17371 bound_to 10713
  140.9197  134.2157  157.4934 LP  0  0  0  0  0  0  0  0  0  0  0  0  # atno 17394 bound_to 11000
  139.8714  134.9787  156.5006 LP  0  0  0  0  0  0  0  0  0  0  0  0  # atno 17395 bound_to 11000

$$$$
