AV-unprocessed.smi:414|AV-procd|sdf|2517|dock1
  -GOLD-   2262022463D 1   1.00000     0.00000
 Structure written by MMmdl.
 37 38  0  0  0  0  0  0  0  0  2 V2000
  151.0248  141.8547  157.5929 C   0  0  0  0  0  0  0  0  0  0  0  0
  150.9945  141.1482  156.2301 C   0  0  2  0  0  0  0  0  0  0  0  0
  149.5512  140.8425  155.7860 C   0  0  0  0  0  0  0  0  0  0  0  0
  149.5151  140.1304  154.4221 C   0  0  0  0  0  0  0  0  0  0  0  0
  150.3711  138.8467  154.4106 C   0  0  2  0  0  0  0  0  0  0  0  0
  149.7706  137.7998  155.2351 N   0  0  0  0  0  0  0  0  0  0  0  0
  150.2353  136.5484  155.3687 C   0  0  0  0  0  0  0  0  0  0  0  0
  151.2331  136.1304  154.7796 O   0  0  0  0  0  0  0  0  0  0  0  0
  149.4248  135.6208  156.2833 C   0  0  0  0  0  0  0  0  0  0  0  0
  149.4786  134.2147  155.8528 N   0  0  0  0  0  0  0  0  0  0  0  0
  149.0811  133.9150  154.5379 C   0  0  0  0  0  0  0  0  0  0  0  0
  149.1032  132.6568  154.0584 C   0  0  0  0  0  0  0  0  0  0  0  0
  149.5532  131.5889  154.9429 C   0  0  0  0  0  0  0  0  0  0  0  0
  149.5734  130.4330  154.5246 O   0  0  0  0  0  0  0  0  0  0  0  0
  149.9340  131.9311  156.2085 N   0  5  0  0  0  0  0  0  0  0  0  0
  149.9099  133.2159  156.6812 C   0  0  0  0  0  0  0  0  0  0  0  0
  150.2615  133.5035  157.8260 O   0  0  0  0  0  0  0  0  0  0  0  0
  151.8071  139.1410  154.8853 C   0  0  0  0  0  0  0  0  0  0  0  0
  151.8367  139.8584  156.2467 C   0  0  0  0  0  0  0  0  0  0  0  0
  150.5876  141.2304  158.3729 H   0  0  0  0  0  0  0  0  0  0  0  0
  150.4658  142.7903  157.5631 H   0  0  0  0  0  0  0  0  0  0  0  0
  152.0471  142.0911  157.8900 H   0  0  0  0  0  0  0  0  0  0  0  0
  151.4347  141.8273  155.4985 H   0  0  0  0  0  0  0  0  0  0  0  0
  149.0573  140.2223  156.5353 H   0  0  0  0  0  0  0  0  0  0  0  0
  148.9760  141.7672  155.7276 H   0  0  0  0  0  0  0  0  0  0  0  0
  148.4844  139.9043  154.1463 H   0  0  0  0  0  0  0  0  0  0  0  0
  149.8880  140.8124  153.6570 H   0  0  0  0  0  0  0  0  0  0  0  0
  150.4315  138.4785  153.3848 H   0  0  0  0  0  0  0  0  0  0  0  0
  148.9423  138.0512  155.7552 H   0  0  0  0  0  0  0  0  0  0  0  0
  149.7714  135.7122  157.3147 H   0  0  0  0  0  0  0  0  0  0  0  0
  148.3936  135.9759  156.2966 H   0  0  0  0  0  0  0  0  0  0  0  0
  148.7677  134.7632  153.9470 H   0  0  0  0  0  0  0  0  0  0  0  0
  148.7990  132.4440  153.0441 H   0  0  0  0  0  0  0  0  0  0  0  0
  152.3839  138.2166  154.9374 H   0  0  0  0  0  0  0  0  0  0  0  0
  152.3057  139.7668  154.1441 H   0  0  0  0  0  0  0  0  0  0  0  0
  152.8688  140.0914  156.5108 H   0  0  0  0  0  0  0  0  0  0  0  0
  151.4677  139.1867  157.0228 H   0  0  0  0  0  0  0  0  0  0  0  0
  1  2  1  0  0  0  0
  1 20  1  0  0  0  0
  1 21  1  0  0  0  0
  1 22  1  0  0  0  0
  2 19  1  0  0  0  0
  2  3  1  0  0  0  0
  2 23  1  0  0  0  0
  3  4  1  0  0  0  0
  3 24  1  0  0  0  0
  3 25  1  0  0  0  0
  4  5  1  0  0  0  0
  4 26  1  0  0  0  0
  4 27  1  0  0  0  0
  5  6  1  0  0  0  0
  5 18  1  0  0  0  0
  5 28  1  0  0  0  0
  6  7  1  0  0  0  0
  6 29  1  0  0  0  0
  7  8  2  0  0  0  0
  7  9  1  0  0  0  0
  9 10  1  0  0  0  0
  9 30  1  0  0  0  0
  9 31  1  0  0  0  0
 10 16  1  0  0  0  0
 10 11  1  0  0  0  0
 11 12  2  0  0  0  0
 11 32  1  0  0  0  0
 12 13  1  0  0  0  0
 12 33  1  0  0  0  0
 13 14  2  0  0  0  0
 13 15  1  0  0  0  0
 15 16  1  0  0  0  0
 16 17  2  0  0  0  0
 18 19  1  0  0  0  0
 18 34  1  0  0  0  0
 18 35  1  0  0  0  0
 19 36  1  0  0  0  0
 19 37  1  0  0  0  0
M  CHG  1  15  -1
M  END
> <s_m_source_file>
AV-unprocessed.smi

> <i_m_source_file_index>
414

> <i_lp_mmshare_version>
43012

> <i_f3d_flags>
0

> <s_epik_input>
W0NIM11bQ0BASF0xW0NIMl1bQ0gyXVtDQEhdKFtDSDJdW0NIMl0xKVtOSF1DKD1PKVtDSDJdbjJbY0hdW2NIXWMoPU8pW25IXWMyPU8=

> <s_epik_cmdline>
J2VwaWtfcHl0aG9uJywgJy1waCcsICc3LjAnLCAnLXRuJywgJzgnLCAnLW1hJywgJzIwMCcsICctbWV0YWxfYmluZGluZycsICctaW1hZScsICc8aW5maWxlLm1hZT4nLCAnLW9tYWUnLCAnPG91dGZpbGUubWFlPic=

> <r_lp_tautomer_probability>
0.999537

> <r_epik_Ionization_Penalty>
3.11551

> <r_epik_Ionization_Penalty_Charging>
2.90498e-08

> <r_epik_Ionization_Penalty_Neutral>
3.11551

> <r_epik_State_Penalty>
3.11459

> <r_epik_Charging_Adjusted_Penalty>
3.11459

> <i_epik_Tot_Q>
-1

> <i_epik_Tot_abs_Q>
1

> <r_epik_Metal_State_Penalty>
0.463083

> <b_epik_Metal_Only>
1

> <s_lp_Force_Field>
OPLS_2005

> <r_lp_Energy>
16.6581

> <b_lp_Chiralities_Consistent>
1

> <s_lp_Variant>
AV-unprocessed.smi:414-4

> <Gold.Version>
5.8.1

> <Gold.Id.Protein>
6NUR|6NUR_protein|mol2

> <Gold.PLP.Fitness>
41.9232

> <Gold.PLP.PLP>
-33.7005

> <Gold.PLP.part.hbond>
-2.0000

> <Gold.PLP.part.metal>
0.0000

> <Gold.PLP.part.buried>
-3.6794

> <Gold.PLP.part.nonpolar>
-29.3331

> <Gold.PLP.part.repulsive>
0.2652

> <Gold.PLP.ligand.clash>
0.0000

> <Gold.PLP.ligand.torsion>
0.3953

> <Gold.PLP.Chemscore.Hbond>
2.0000

> <Gold.PLP.Chemscore.CHOScore>
1.0000

> <Gold.PLP.Chemscore.Metal>
0.0000

> <Gold.Chemscore.Hbonds>
donor molecule, donor type, donor heavy atom, donor atom, acceptor molecule, acceptor atom, score
      P1  H  6896  6908       L1    17  1.00
      P1  H 10752 10764       L1     8  1.00
      L1  C    11    32       P1  7948  1.00

> <Gold.PLP.Chemscore.Internal.Correction>
0.0134

> <Gold.Rescore>
     Score         DG    S(hbond)    S(metal)    S(lipo)     H(rot)  DE(clash)    DE(int)     intcor
     14.96     -15.36       1.99        0.00      63.88       1.65       0.01       0.39       ----

> <Gold.Chemscore.Fitness>
14.9594

> <Gold.Chemscore.DG>
-15.3639

> <Gold.Chemscore.ZeroCoef>
-5.4800

> <Gold.Chemscore.Hbond>
1.9900

> <Gold.Chemscore.Metal>
0.0000

> <Gold.Chemscore.Lipo>
63.8778

> <Gold.Chemscore.Internal_Hbond>
0.0000

> <Gold.Chemscore.DEClash>
0.0126

> <Gold.Chemscore.DEInternal>
0.3919

> <Gold.Chemscore.Rot>
1.6549

> <Gold.Chemscore.Internal.Correction>
   9.000000E+99

> <Gold.Chemscore.Hbonds>
donor molecule, donor type, donor heavy atom, donor atom, acceptor molecule, acceptor atom, score
      P1  H  6896  6908       L1    17  0.92
      P1  H 10752 10764       L1     8  1.00

> <Gold.Chemscore.Hbond.Weighted>
-6.6467

> <Gold.Chemscore.Metal.Weighted>
-0.0000

> <Gold.Chemscore.Lipo.Weighted>
-7.4737

> <Gold.Chemscore.Internal_Hbond.Weighted>
0.0000

> <Gold.Chemscore.DEClash.Weighted>
0.0126

> <Gold.Chemscore.DEInternal.Weighted>
0.3919

> <Gold.Chemscore.Rot.Weighted>
4.2364

> <Gold.Chemscore.Internal.Correction.Weighted>
   9.000000E+99

> <Gold.Protein.RotatedTorsions>
[ 6907 6896 6895 6894 ] final  102.09 input  -60.11 | X-H torsion
[ 7974 7965 7964 7962 ] final -107.39 input  175.53 | X-H torsion
[ 8008 7997 7996 7995 ] final -166.59 input   59.86 | X-H torsion
[ 10167 10162 10161 10158 ] final  136.76 input  -65.29 | X-H torsion
[ 10718 10713 10712 10709 ] final  -77.02 input   66.30 | X-H torsion
[ 10763 10752 10751 10750 ] final  -69.21 input  -60.55 | X-H torsion
[ 11005 11000 10999 10996 ] final   48.86 input  -57.11 | X-H torsion

> <Gold.Protein.ActiveResidues>
 VAL166  LYS551  ARG553  GLY616  TRP617  ASP618  TYR619  PRO620  LYS621  CYS622 
 ASP623  PHE694  ASN695  SER759  ASP760  ASP761  ALA762  ILE779  LEU786  VAL792 
 PHE793  MET794  SER795  GLU796  ALA797  LYS798  CYS799  TRP800  GLU811  SER814 

> <Gold.Protein.RotatedAtoms>
  152.5333  134.0028  159.7902 H   0  0  0  0  0  0  0  0  0  0  0  0  # atno 6907 bound_to 6896
  151.0244  133.5839  159.2675 H   0  0  0  0  0  0  0  0  0  0  0  0  # atno 6908 bound_to 6896
  151.2867  135.0737  159.9242 H   0  0  0  0  0  0  0  0  0  0  0  0  # atno 6909 bound_to 6896
  145.2059  140.9076  143.3342 H   0  0  0  0  0  0  0  0  0  0  0  0  # atno 7974 bound_to 7965
  155.8659  140.0985  157.1582 H   0  0  0  0  0  0  0  0  0  0  0  0  # atno 8008 bound_to 7997
  154.3993  140.1356  156.4081 H   0  0  0  0  0  0  0  0  0  0  0  0  # atno 8009 bound_to 7997
  155.7804  140.3458  155.5297 H   0  0  0  0  0  0  0  0  0  0  0  0  # atno 8010 bound_to 7997
  139.5168  144.6447  151.5472 H   0  0  0  0  0  0  0  0  0  0  0  0  # atno 10167 bound_to 10162
  156.0157  130.4480  150.3282 H   0  0  0  0  0  0  0  0  0  0  0  0  # atno 10718 bound_to 10713
  154.4002  135.6033  153.5893 H   0  0  0  0  0  0  0  0  0  0  0  0  # atno 10763 bound_to 10752
  152.9788  135.5904  154.4193 H   0  0  0  0  0  0  0  0  0  0  0  0  # atno 10764 bound_to 10752
  154.3991  135.2842  155.2086 H   0  0  0  0  0  0  0  0  0  0  0  0  # atno 10765 bound_to 10752
  140.1154  134.4900  155.8642 H   0  0  0  0  0  0  0  0  0  0  0  0  # atno 11005 bound_to 11000
  144.9902  139.3697  143.6218 LP  0  0  0  0  0  0  0  0  0  0  0  0  # atno 17320 bound_to 7965
  146.3408  139.9082  142.8784 LP  0  0  0  0  0  0  0  0  0  0  0  0  # atno 17321 bound_to 7965
  140.6227  143.9227  150.6539 LP  0  0  0  0  0  0  0  0  0  0  0  0  # atno 17342 bound_to 10162
  140.2506  143.3596  152.1409 LP  0  0  0  0  0  0  0  0  0  0  0  0  # atno 17343 bound_to 10162
  157.1381  131.0289  151.2940 LP  0  0  0  0  0  0  0  0  0  0  0  0  # atno 17370 bound_to 10713
  157.4495  130.7590  149.7139 LP  0  0  0  0  0  0  0  0  0  0  0  0  # atno 17371 bound_to 10713
  141.2140  133.6741  156.6785 LP  0  0  0  0  0  0  0  0  0  0  0  0  # atno 17394 bound_to 11000
  140.3036  134.8144  157.4118 LP  0  0  0  0  0  0  0  0  0  0  0  0  # atno 17395 bound_to 11000

$$$$
