AV-unprocessed.smi:3123|AV-procd|sdf|11901|dock6
  -GOLD-   2272017283D 1   1.00000     0.00000
 Structure written by MMmdl.
 29 30  0  0  0  0  0  0  0  0  1 V2000
  148.9750  138.8657  153.2294 N   0  0  0  0  0  0  0  0  0  0  0  0
  149.0750  140.0269  154.0899 C   0  0  0  0  0  0  0  0  0  0  0  0
  150.2782  139.9591  155.0065 C   0  0  0  0  0  0  0  0  0  0  0  0
  151.2726  138.9790  154.8151 C   0  0  0  0  0  0  0  0  0  0  0  0
  152.3674  138.9550  155.7008 C   0  0  0  0  0  0  0  0  0  0  0  0
  152.5118  139.8230  156.7246 N   0  0  0  0  0  0  0  0  0  0  0  0
  151.5535  140.7633  156.9088 C   0  0  0  0  0  0  0  0  0  0  0  0
  151.7026  141.6692  157.9687 N   0  0  0  0  0  0  0  0  0  0  0  0
  152.7952  141.3320  158.8727 C   0  0  0  0  0  0  0  0  0  0  0  0
  152.8080  142.3019  160.0674 C   0  0  0  0  0  0  0  0  0  0  0  0
  152.8882  143.6439  159.5946 O   0  0  0  0  0  0  0  0  0  0  0  0
  151.7777  143.9879  158.7705 C   0  0  0  0  0  0  0  0  0  0  0  0
  151.7416  143.0626  157.5421 C   0  0  0  0  0  0  0  0  0  0  0  0
  150.4191  140.8661  156.0763 C   0  0  0  0  0  0  0  0  0  0  0  0
  149.4084  139.0628  152.3388 H   0  0  0  0  0  0  0  0  0  0  0  0
  149.4880  138.0983  153.6393 H   0  0  0  0  0  0  0  0  0  0  0  0
  149.1459  140.9217  153.4707 H   0  0  0  0  0  0  0  0  0  0  0  0
  148.1612  140.1177  154.6779 H   0  0  0  0  0  0  0  0  0  0  0  0
  151.2005  138.2626  154.0100 H   0  0  0  0  0  0  0  0  0  0  0  0
  153.1490  138.2189  155.5837 H   0  0  0  0  0  0  0  0  0  0  0  0
  152.6808  140.3060  159.2245 H   0  0  0  0  0  0  0  0  0  0  0  0
  153.7461  141.3878  158.3408 H   0  0  0  0  0  0  0  0  0  0  0  0
  151.9150  142.1746  160.6811 H   0  0  0  0  0  0  0  0  0  0  0  0
  153.6666  142.0990  160.7075 H   0  0  0  0  0  0  0  0  0  0  0  0
  150.8505  143.9135  159.3412 H   0  0  0  0  0  0  0  0  0  0  0  0
  151.8763  145.0269  158.4561 H   0  0  0  0  0  0  0  0  0  0  0  0
  152.6232  143.2363  156.9235 H   0  0  0  0  0  0  0  0  0  0  0  0
  150.8673  143.2862  156.9296 H   0  0  0  0  0  0  0  0  0  0  0  0
  149.6725  141.6267  156.2540 H   0  0  0  0  0  0  0  0  0  0  0  0
  1  2  1  0  0  0  0
  1 15  1  0  0  0  0
  1 16  1  0  0  0  0
  2  3  1  0  0  0  0
  2 17  1  0  0  0  0
  2 18  1  0  0  0  0
  3 14  1  0  0  0  0
  3  4  2  0  0  0  0
  4  5  1  0  0  0  0
  4 19  1  0  0  0  0
  5  6  2  0  0  0  0
  5 20  1  0  0  0  0
  6  7  1  0  0  0  0
  7  8  1  0  0  0  0
  7 14  2  0  0  0  0
  8 13  1  0  0  0  0
  8  9  1  0  0  0  0
  9 10  1  0  0  0  0
  9 21  1  0  0  0  0
  9 22  1  0  0  0  0
 10 11  1  0  0  0  0
 10 23  1  0  0  0  0
 10 24  1  0  0  0  0
 11 12  1  0  0  0  0
 12 13  1  0  0  0  0
 12 25  1  0  0  0  0
 12 26  1  0  0  0  0
 13 27  1  0  0  0  0
 13 28  1  0  0  0  0
 14 29  1  0  0  0  0
M  END
> <s_m_source_file>
AV-unprocessed.smi

> <i_m_source_file_index>
3123

> <i_lp_mmshare_version>
43012

> <i_f3d_flags>
0

> <s_epik_input>
W05IMl1bQ0gyXWMxW2NIXVtjSF1uYyhbY0hdMSlOMltDSDJdW0NIMl1PW0NIMl1bQ0gyXTI=

> <s_epik_cmdline>
J2VwaWtfcHl0aG9uJywgJy1waCcsICc3LjAnLCAnLXRuJywgJzgnLCAnLW1hJywgJzIwMCcsICctbWV0YWxfYmluZGluZycsICctaW1hZScsICc8aW5maWxlLm1hZT4nLCAnLW9tYWUnLCAnPG91dGZpbGUubWFlPic=

> <r_lp_tautomer_probability>
1

> <r_epik_Ionization_Penalty>
1.26929

> <r_epik_Ionization_Penalty_Charging>
0

> <r_epik_Ionization_Penalty_Neutral>
1.26929

> <r_epik_State_Penalty>
2.46732

> <r_epik_Charging_Adjusted_Penalty>
2.46732

> <i_epik_Tot_Q>
0

> <i_epik_Tot_abs_Q>
0

> <r_epik_Metal_State_Penalty>
2.44539

> <b_epik_Metal_Only>
0

> <s_lp_Force_Field>
OPLS_2005

> <r_lp_Energy>
17.6888

> <b_lp_Chiralities_Consistent>
1

> <s_lp_Variant>
AV-unprocessed.smi:3123-2

> <Gold.Version>
5.8.1

> <Gold.Id.Protein>
6NUR|6NUR_protein|mol2

> <Gold.PLP.Fitness>
36.6920

> <Gold.PLP.PLP>
-30.9790

> <Gold.PLP.part.hbond>
-2.8738

> <Gold.PLP.part.metal>
0.0000

> <Gold.PLP.part.buried>
-2.4345

> <Gold.PLP.part.nonpolar>
-24.4917

> <Gold.PLP.part.repulsive>
0.0129

> <Gold.PLP.ligand.clash>
0.0000

> <Gold.PLP.ligand.torsion>
0.1952

> <Gold.PLP.Chemscore.Hbond>
2.0000

> <Gold.PLP.Chemscore.CHOScore>
0.0000

> <Gold.PLP.Chemscore.Metal>
0.0000

> <Gold.Chemscore.Hbonds>
donor molecule, donor type, donor heavy atom, donor atom, acceptor molecule, acceptor atom, score
      L1  H     1    15       P1  7957  0.98
      P1  H  7997  8009       L1     6  0.85

> <Gold.PLP.Chemscore.Internal.Correction>
0.1035

> <Gold.Rescore>
     Score         DG    S(hbond)    S(metal)    S(lipo)     H(rot)  DE(clash)    DE(int)     intcor
     15.54     -17.78       1.85        0.00      80.46       1.29       2.04       0.20       ----

> <Gold.Chemscore.Fitness>
15.5433

> <Gold.Chemscore.DG>
-17.7774

> <Gold.Chemscore.ZeroCoef>
-5.4800

> <Gold.Chemscore.Hbond>
1.8500

> <Gold.Chemscore.Metal>
0.0000

> <Gold.Chemscore.Lipo>
80.4646

> <Gold.Chemscore.Internal_Hbond>
0.0000

> <Gold.Chemscore.DEClash>
2.0380

> <Gold.Chemscore.DEInternal>
0.1961

> <Gold.Chemscore.Rot>
1.2875

> <Gold.Chemscore.Internal.Correction>
   9.000000E+99

> <Gold.Chemscore.Hbonds>
donor molecule, donor type, donor heavy atom, donor atom, acceptor molecule, acceptor atom, score
      L1  H     1    15       P1  7957  0.81
      P1  H  7997  8009       L1     6  0.15

> <Gold.Chemscore.Hbond.Weighted>
-6.1791

> <Gold.Chemscore.Metal.Weighted>
-0.0000

> <Gold.Chemscore.Lipo.Weighted>
-9.4144

> <Gold.Chemscore.Internal_Hbond.Weighted>
0.0000

> <Gold.Chemscore.DEClash.Weighted>
2.0380

> <Gold.Chemscore.DEInternal.Weighted>
0.1961

> <Gold.Chemscore.Rot.Weighted>
3.2961

> <Gold.Chemscore.Internal.Correction.Weighted>
   9.000000E+99

> <Gold.Protein.RotatedTorsions>
[ 6907 6896 6895 6894 ] final  110.85 input  -60.11 | X-H torsion
[ 7974 7965 7964 7962 ] final  -37.83 input  175.53 | X-H torsion
[ 8008 7997 7996 7995 ] final -174.51 input   59.86 | X-H torsion
[ 10167 10162 10161 10158 ] final   97.86 input  -65.29 | X-H torsion
[ 10718 10713 10712 10709 ] final   32.55 input   66.30 | X-H torsion
[ 10763 10752 10751 10750 ] final   80.10 input  -60.55 | X-H torsion
[ 11005 11000 10999 10996 ] final  -77.19 input  -57.11 | X-H torsion

> <Gold.Protein.ActiveResidues>
 VAL166  LYS551  ARG553  GLY616  TRP617  ASP618  TYR619  PRO620  LYS621  CYS622 
 ASP623  PHE694  ASN695  SER759  ASP760  ASP761  ALA762  ILE779  LEU786  VAL792 
 PHE793  MET794  SER795  GLU796  ALA797  LYS798  CYS799  TRP800  GLU811  SER814 

> <Gold.Protein.RotatedAtoms>
  152.4999  133.8742  159.7313 H   0  0  0  0  0  0  0  0  0  0  0  0  # atno 6907 bound_to 6896
  150.9220  133.6859  159.2836 H   0  0  0  0  0  0  0  0  0  0  0  0  # atno 6908 bound_to 6896
  151.4233  135.1005  159.9673 H   0  0  0  0  0  0  0  0  0  0  0  0  # atno 6909 bound_to 6896
  146.0540  140.6441  142.9028 H   0  0  0  0  0  0  0  0  0  0  0  0  # atno 7974 bound_to 7965
  155.9710  140.1163  157.0812 H   0  0  0  0  0  0  0  0  0  0  0  0  # atno 8008 bound_to 7997
  154.4156  140.1163  156.5374 H   0  0  0  0  0  0  0  0  0  0  0  0  # atno 8009 bound_to 7997
  155.6597  140.3473  155.4780 H   0  0  0  0  0  0  0  0  0  0  0  0  # atno 8010 bound_to 7997
  139.7762  144.6905  151.0086 H   0  0  0  0  0  0  0  0  0  0  0  0  # atno 10167 bound_to 10162
  157.2867  130.7282  149.6587 H   0  0  0  0  0  0  0  0  0  0  0  0  # atno 10718 bound_to 10713
  153.1006  135.4815  154.8860 H   0  0  0  0  0  0  0  0  0  0  0  0  # atno 10763 bound_to 10752
  154.7375  135.3074  154.8789 H   0  0  0  0  0  0  0  0  0  0  0  0  # atno 10764 bound_to 10752
  153.9407  135.6834  153.4798 H   0  0  0  0  0  0  0  0  0  0  0  0  # atno 10765 bound_to 10752
  141.1659  133.7013  156.7783 H   0  0  0  0  0  0  0  0  0  0  0  0  # atno 11005 bound_to 11000
  144.7138  140.4136  143.7060 LP  0  0  0  0  0  0  0  0  0  0  0  0  # atno 17320 bound_to 7965
  145.6675  139.1593  143.2773 LP  0  0  0  0  0  0  0  0  0  0  0  0  # atno 17321 bound_to 7965
  140.7816  143.4534  151.0381 LP  0  0  0  0  0  0  0  0  0  0  0  0  # atno 17342 bound_to 10162
  139.8216  143.7813  152.3177 LP  0  0  0  0  0  0  0  0  0  0  0  0  # atno 17343 bound_to 10162
  155.9666  130.4321  150.4950 LP  0  0  0  0  0  0  0  0  0  0  0  0  # atno 17370 bound_to 10713
  157.2905  131.0625  151.2137 LP  0  0  0  0  0  0  0  0  0  0  0  0  # atno 17371 bound_to 10713
  140.2413  134.8611  157.3576 LP  0  0  0  0  0  0  0  0  0  0  0  0  # atno 17394 bound_to 11000
  140.1793  134.4510  155.7782 LP  0  0  0  0  0  0  0  0  0  0  0  0  # atno 17395 bound_to 11000

$$$$
