AV-unprocessed.smi:2286|AV-procd|sdf|9204|dock4
  -GOLD-   2272012423D 1   1.00000     0.00000
 Structure written by MMmdl.
 46 47  0  0  0  0  0  0  0  0  1 V2000
  151.3141  145.2907  158.8861 C   0  0  0  0  0  0  0  0  0  0  0  0
  151.7986  143.8579  158.8102 C   0  0  0  0  0  0  0  0  0  0  0  0
  152.8070  143.3885  159.6735 C   0  0  0  0  0  0  0  0  0  0  0  0
  153.2128  142.0449  159.5530 C   0  0  0  0  0  0  0  0  0  0  0  0
  154.2888  141.4741  160.4522 C   0  0  0  0  0  0  0  0  0  0  0  0
  152.6780  141.1912  158.6538 N   0  0  0  0  0  0  0  0  0  0  0  0
  151.7064  141.6324  157.8169 C   0  0  0  0  0  0  0  0  0  0  0  0
  151.0774  140.8162  156.8397 N   0  0  0  0  0  0  0  0  0  0  0  0
  151.6355  139.8752  156.0578 C   0  0  0  0  0  0  0  0  0  0  0  0
  152.8307  139.5787  156.0396 O   0  0  0  0  0  0  0  0  0  0  0  0
  150.7155  139.2819  155.2826 N   0  0  0  0  0  0  0  0  0  0  0  0
  150.9879  138.2213  154.3156 C   0  0  0  0  0  0  0  0  0  0  0  0
  151.0930  136.8325  154.9571 C   0  0  0  0  0  0  0  0  0  0  0  0
  151.8793  136.6191  155.8815 O   0  0  0  0  0  0  0  0  0  0  0  0
  150.3020  135.8853  154.4303 N   0  0  0  0  0  0  0  0  0  0  0  0
  150.2475  134.4913  154.8605 C   0  0  0  0  0  0  0  0  0  0  0  0
  149.3196  133.6732  153.9374 C   0  0  0  0  0  0  0  0  0  0  0  0
  149.1764  132.2216  154.4228 C   0  0  0  0  0  0  0  0  0  0  0  0
  148.6935  132.1645  155.8805 C   0  0  0  0  0  0  0  0  0  0  0  0
  149.6223  132.9690  156.8028 C   0  0  0  0  0  0  0  0  0  0  0  0
  149.7631  134.4224  156.3216 C   0  0  0  0  0  0  0  0  0  0  0  0
  151.2442  142.9668  157.8694 C   0  0  0  0  0  0  0  0  0  0  0  0
  151.7614  145.8166  159.7304 H   0  0  0  0  0  0  0  0  0  0  0  0
  150.2307  145.3185  159.0040 H   0  0  0  0  0  0  0  0  0  0  0  0
  151.5751  145.8259  157.9728 H   0  0  0  0  0  0  0  0  0  0  0  0
  153.2571  144.0397  160.4087 H   0  0  0  0  0  0  0  0  0  0  0  0
  154.8378  142.2668  160.9613 H   0  0  0  0  0  0  0  0  0  0  0  0
  155.0020  140.8868  159.8727 H   0  0  0  0  0  0  0  0  0  0  0  0
  153.8428  140.8265  161.2073 H   0  0  0  0  0  0  0  0  0  0  0  0
  150.0828  140.9522  156.7369 H   0  0  0  0  0  0  0  0  0  0  0  0
  149.7583  139.5937  155.3549 H   0  0  0  0  0  0  0  0  0  0  0  0
  150.2224  138.2143  153.5374 H   0  0  0  0  0  0  0  0  0  0  0  0
  151.9330  138.4460  153.8213 H   0  0  0  0  0  0  0  0  0  0  0  0
  149.6903  136.1503  153.6718 H   0  0  0  0  0  0  0  0  0  0  0  0
  151.2528  134.0676  154.8166 H   0  0  0  0  0  0  0  0  0  0  0  0
  148.3338  134.1389  153.8987 H   0  0  0  0  0  0  0  0  0  0  0  0
  149.7024  133.6777  152.9161 H   0  0  0  0  0  0  0  0  0  0  0  0
  148.4804  131.6823  153.7797 H   0  0  0  0  0  0  0  0  0  0  0  0
  150.1365  131.7116  154.3356 H   0  0  0  0  0  0  0  0  0  0  0  0
  147.6794  132.5608  155.9458 H   0  0  0  0  0  0  0  0  0  0  0  0
  148.6429  131.1281  156.2153 H   0  0  0  0  0  0  0  0  0  0  0  0
  149.2387  132.9513  157.8231 H   0  0  0  0  0  0  0  0  0  0  0  0
  150.6051  132.4970  156.8335 H   0  0  0  0  0  0  0  0  0  0  0  0
  150.4572  134.9575  156.9709 H   0  0  0  0  0  0  0  0  0  0  0  0
  148.8002  134.9268  156.4167 H   0  0  0  0  0  0  0  0  0  0  0  0
  150.4690  143.3059  157.1970 H   0  0  0  0  0  0  0  0  0  0  0  0
  1  2  1  0  0  0  0
  1 23  1  0  0  0  0
  1 24  1  0  0  0  0
  1 25  1  0  0  0  0
  2 22  1  0  0  0  0
  2  3  2  0  0  0  0
  3  4  1  0  0  0  0
  3 26  1  0  0  0  0
  4  5  1  0  0  0  0
  4  6  2  0  0  0  0
  5 27  1  0  0  0  0
  5 28  1  0  0  0  0
  5 29  1  0  0  0  0
  6  7  1  0  0  0  0
  7  8  1  0  0  0  0
  7 22  2  0  0  0  0
  8  9  1  0  0  0  0
  8 30  1  0  0  0  0
  9 10  2  0  0  0  0
  9 11  1  0  0  0  0
 11 12  1  0  0  0  0
 11 31  1  0  0  0  0
 12 13  1  0  0  0  0
 12 32  1  0  0  0  0
 12 33  1  0  0  0  0
 13 14  2  0  0  0  0
 13 15  1  0  0  0  0
 15 16  1  0  0  0  0
 15 34  1  0  0  0  0
 16 21  1  0  0  0  0
 16 17  1  0  0  0  0
 16 35  1  0  0  0  0
 17 18  1  0  0  0  0
 17 36  1  0  0  0  0
 17 37  1  0  0  0  0
 18 19  1  0  0  0  0
 18 38  1  0  0  0  0
 18 39  1  0  0  0  0
 19 20  1  0  0  0  0
 19 40  1  0  0  0  0
 19 41  1  0  0  0  0
 20 21  1  0  0  0  0
 20 42  1  0  0  0  0
 20 43  1  0  0  0  0
 21 44  1  0  0  0  0
 21 45  1  0  0  0  0
 22 46  1  0  0  0  0
M  END
> <s_m_source_file>
AV-unprocessed.smi

> <i_m_source_file_index>
2286

> <i_lp_mmshare_version>
43012

> <i_f3d_flags>
0

> <s_epik_input>
W0NIM11jMVtjSF1jKFtDSDNdKW5jKFtjSF0xKVtOSF1DKD1PKVtOSF1bQ0gyXUMoPU8pW05IXVtDSF0yW0NIMl1bQ0gyXVtDSDJdW0NIMl1bQ0gyXTI=

> <s_epik_cmdline>
J2VwaWtfcHl0aG9uJywgJy1waCcsICc3LjAnLCAnLXRuJywgJzgnLCAnLW1hJywgJzIwMCcsICctbWV0YWxfYmluZGluZycsICctaW1hZScsICc8aW5maWxlLm1hZT4nLCAnLW9tYWUnLCAnPG91dGZpbGUubWFlPic=

> <r_lp_tautomer_probability>
1

> <r_epik_Ionization_Penalty>
0.000219548

> <r_epik_Ionization_Penalty_Charging>
0

> <r_epik_Ionization_Penalty_Neutral>
0.000219548

> <r_epik_State_Penalty>
-0

> <r_epik_Charging_Adjusted_Penalty>
0

> <i_epik_Tot_Q>
0

> <i_epik_Tot_abs_Q>
0

> <r_epik_Metal_State_Penalty>
-0

> <b_epik_Metal_Only>
0

> <s_lp_Force_Field>
OPLS_2005

> <r_lp_Energy>
6.54337

> <b_lp_Chiralities_Consistent>
1

> <s_lp_Variant>
AV-unprocessed.smi:2286-1

> <Gold.Version>
5.8.1

> <Gold.Id.Protein>
6NUR|6NUR_protein|mol2

> <Gold.PLP.Fitness>
52.8423

> <Gold.PLP.PLP>
-44.8251

> <Gold.PLP.part.hbond>
-4.0000

> <Gold.PLP.part.metal>
0.0000

> <Gold.PLP.part.buried>
-4.1810

> <Gold.PLP.part.nonpolar>
-36.4556

> <Gold.PLP.part.repulsive>
0.2654

> <Gold.PLP.ligand.clash>
0.0000

> <Gold.PLP.ligand.torsion>
0.4950

> <Gold.PLP.Chemscore.Hbond>
3.0000

> <Gold.PLP.Chemscore.CHOScore>
0.0000

> <Gold.PLP.Chemscore.Metal>
0.0000

> <Gold.Chemscore.Hbonds>
donor molecule, donor type, donor heavy atom, donor atom, acceptor molecule, acceptor atom, score
      L1  H    15    34       P1  7948  1.00
      P1  H  7997  8010       L1    10  1.00
      P1  H 10752 10763       L1    14  1.00

> <Gold.PLP.Chemscore.Internal.Correction>
0.0072

> <Gold.Rescore>
     Score         DG    S(hbond)    S(metal)    S(lipo)     H(rot)  DE(clash)    DE(int)     intcor
     20.86     -22.06       2.61        0.00      99.73       1.48       0.02       1.18       ----

> <Gold.Chemscore.Fitness>
20.8646

> <Gold.Chemscore.DG>
-22.0611

> <Gold.Chemscore.ZeroCoef>
-5.4800

> <Gold.Chemscore.Hbond>
2.6090

> <Gold.Chemscore.Metal>
0.0000

> <Gold.Chemscore.Lipo>
99.7292

> <Gold.Chemscore.Internal_Hbond>
0.0000

> <Gold.Chemscore.DEClash>
0.0183

> <Gold.Chemscore.DEInternal>
1.1782

> <Gold.Chemscore.Rot>
1.4849

> <Gold.Chemscore.Internal.Correction>
   9.000000E+99

> <Gold.Chemscore.Hbonds>
donor molecule, donor type, donor heavy atom, donor atom, acceptor molecule, acceptor atom, score
      L1  H    15    34       P1  7948  0.34
      P1  H  7997  8010       L1    10  0.95
      P1  H 10752 10763       L1    14  0.43

> <Gold.Chemscore.Hbond.Weighted>
-8.7140

> <Gold.Chemscore.Metal.Weighted>
-0.0000

> <Gold.Chemscore.Lipo.Weighted>
-11.6683

> <Gold.Chemscore.Internal_Hbond.Weighted>
0.0000

> <Gold.Chemscore.DEClash.Weighted>
0.0183

> <Gold.Chemscore.DEInternal.Weighted>
1.1782

> <Gold.Chemscore.Rot.Weighted>
3.8012

> <Gold.Chemscore.Internal.Correction.Weighted>
   9.000000E+99

> <Gold.Protein.RotatedTorsions>
[ 6907 6896 6895 6894 ] final -165.39 input  -60.11 | X-H torsion
[ 7974 7965 7964 7962 ] final  -36.94 input  175.53 | X-H torsion
[ 8008 7997 7996 7995 ] final   62.24 input   59.86 | X-H torsion
[ 10167 10162 10161 10158 ] final   23.02 input  -65.29 | X-H torsion
[ 10718 10713 10712 10709 ] final  -66.09 input   66.30 | X-H torsion
[ 10763 10752 10751 10750 ] final   94.85 input  -60.55 | X-H torsion
[ 11005 11000 10999 10996 ] final  -69.45 input  -57.11 | X-H torsion

> <Gold.Protein.ActiveResidues>
 VAL166  LYS551  ARG553  GLY616  TRP617  ASP618  TYR619  PRO620  LYS621  CYS622 
 ASP623  PHE694  ASN695  SER759  ASP760  ASP761  ALA762  ILE779  LEU786  VAL792 
 PHE793  MET794  SER795  GLU796  ALA797  LYS798  CYS799  TRP800  GLU811  SER814 

> <Gold.Protein.RotatedAtoms>
  151.4269  133.3682  159.2763 H   0  0  0  0  0  0  0  0  0  0  0  0  # atno 6907 bound_to 6896
  150.9253  134.8671  159.7526 H   0  0  0  0  0  0  0  0  0  0  0  0  # atno 6908 bound_to 6896
  152.5002  134.4209  159.9532 H   0  0  0  0  0  0  0  0  0  0  0  0  # atno 6909 bound_to 6896
  146.0618  140.6338  142.8993 H   0  0  0  0  0  0  0  0  0  0  0  0  # atno 7974 bound_to 7965
  155.6111  140.3495  155.4623 H   0  0  0  0  0  0  0  0  0  0  0  0  # atno 8008 bound_to 7997
  156.0153  140.1242  157.0437 H   0  0  0  0  0  0  0  0  0  0  0  0  # atno 8009 bound_to 7997
  154.4295  140.1073  156.5873 H   0  0  0  0  0  0  0  0  0  0  0  0  # atno 8010 bound_to 7997
  140.5302  143.9854  150.6461 H   0  0  0  0  0  0  0  0  0  0  0  0  # atno 10167 bound_to 10162
  156.0632  130.4257  150.1658 H   0  0  0  0  0  0  0  0  0  0  0  0  # atno 10718 bound_to 10713
  153.2464  135.4275  155.0751 H   0  0  0  0  0  0  0  0  0  0  0  0  # atno 10763 bound_to 10752
  154.8363  135.3415  154.6576 H   0  0  0  0  0  0  0  0  0  0  0  0  # atno 10764 bound_to 10752
  153.6998  135.7029  153.5123 H   0  0  0  0  0  0  0  0  0  0  0  0  # atno 10765 bound_to 10752
  141.1554  133.6764  156.6600 H   0  0  0  0  0  0  0  0  0  0  0  0  # atno 11005 bound_to 11000
  144.7179  140.4274  143.7030 LP  0  0  0  0  0  0  0  0  0  0  0  0  # atno 17320 bound_to 7965
  145.6547  139.1571  143.2842 LP  0  0  0  0  0  0  0  0  0  0  0  0  # atno 17321 bound_to 7965
  140.3227  143.3127  152.0767 LP  0  0  0  0  0  0  0  0  0  0  0  0  # atno 17342 bound_to 10162
  139.4951  144.6563  151.6566 LP  0  0  0  0  0  0  0  0  0  0  0  0  # atno 17343 bound_to 10162
  156.9723  130.9838  151.3456 LP  0  0  0  0  0  0  0  0  0  0  0  0  # atno 17370 bound_to 10713
  157.5656  130.8275  149.8323 LP  0  0  0  0  0  0  0  0  0  0  0  0  # atno 17371 bound_to 10713
  140.3254  134.7973  157.4285 LP  0  0  0  0  0  0  0  0  0  0  0  0  # atno 17394 bound_to 11000
  140.1061  134.5407  155.8308 LP  0  0  0  0  0  0  0  0  0  0  0  0  # atno 17395 bound_to 11000

$$$$
