AV-unprocessed.smi:3243|AV-procd|sdf|12397|dock6
  -GOLD-   2272018273D 1   1.00000     0.00000
 Structure written by MMmdl.
 37 38  0  0  0  0  0  0  0  0  1 V2000
  154.0504  141.2846  160.3512 C   0  0  0  0  0  0  0  0  0  0  0  0
  153.6033  142.7176  160.6736 C   0  0  0  0  0  0  0  0  0  0  0  0
  153.0514  142.8704  162.0982 C   0  0  0  0  0  0  0  0  0  0  0  0
  152.6624  143.2590  159.6435 C   0  0  0  0  0  0  0  0  0  0  0  0
  152.3085  142.5949  158.5386 N   0  0  0  0  0  0  0  0  0  0  0  0
  151.4207  143.3163  157.7347 C   0  0  0  0  0  0  0  0  0  0  0  0
  150.9160  142.7198  156.4559 C   0  0  0  0  0  0  0  0  0  0  0  0
  150.0128  141.5029  156.6991 C   0  0  0  0  0  0  0  0  0  0  0  0
  148.8372  141.5558  155.8405 N   0  0  0  0  0  0  0  0  0  0  0  0
  148.8505  141.3260  154.5199 C   0  0  0  0  0  0  0  0  0  0  0  0
  149.8761  141.0404  153.9002 O   0  0  0  0  0  0  0  0  0  0  0  0
  147.5105  141.4482  153.8704 C   0  0  1  0  0  0  0  0  0  0  0  0
  146.3583  140.6873  154.4941 C   0  0  0  0  0  0  0  0  0  0  0  0
  146.4225  142.1895  154.6249 C   0  0  2  0  0  0  0  0  0  0  0  0
  145.4455  143.0761  153.8833 C   0  0  0  0  0  0  0  0  0  0  0  0
  151.1018  144.5473  158.2511 C   0  0  0  0  0  0  0  0  0  0  0  0
  151.9077  144.8446  159.7664 S   0  0  0  0  0  0  0  0  0  0  0  0
  154.5126  141.2304  159.3652 H   0  0  0  0  0  0  0  0  0  0  0  0
  153.2066  140.5940  160.3619 H   0  0  0  0  0  0  0  0  0  0  0  0
  154.7804  140.9278  161.0781 H   0  0  0  0  0  0  0  0  0  0  0  0
  154.5000  143.3368  160.6246 H   0  0  0  0  0  0  0  0  0  0  0  0
  152.8209  143.9128  162.3199 H   0  0  0  0  0  0  0  0  0  0  0  0
  153.7748  142.5280  162.8385 H   0  0  0  0  0  0  0  0  0  0  0  0
  152.1377  142.2907  162.2337 H   0  0  0  0  0  0  0  0  0  0  0  0
  150.3663  143.4721  155.8886 H   0  0  0  0  0  0  0  0  0  0  0  0
  151.7582  142.4278  155.8271 H   0  0  0  0  0  0  0  0  0  0  0  0
  150.5622  140.5809  156.5018 H   0  0  0  0  0  0  0  0  0  0  0  0
  149.6978  141.4743  157.7435 H   0  0  0  0  0  0  0  0  0  0  0  0
  147.9567  141.7857  156.2780 H   0  0  0  0  0  0  0  0  0  0  0  0
  147.5049  141.5357  152.7849 H   0  0  0  0  0  0  0  0  0  0  0  0
  145.6263  140.2592  153.8124 H   0  0  0  0  0  0  0  0  0  0  0  0
  146.5466  140.0998  155.3910 H   0  0  0  0  0  0  0  0  0  0  0  0
  146.6749  142.5666  155.6149 H   0  0  0  0  0  0  0  0  0  0  0  0
  145.2168  142.6641  152.8999 H   0  0  0  0  0  0  0  0  0  0  0  0
  145.8686  144.0721  153.7532 H   0  0  0  0  0  0  0  0  0  0  0  0
  144.5171  143.1633  154.4480 H   0  0  0  0  0  0  0  0  0  0  0  0
  150.4426  145.2942  157.8339 H   0  0  0  0  0  0  0  0  0  0  0  0
  1  2  1  0  0  0  0
  1 18  1  0  0  0  0
  1 19  1  0  0  0  0
  1 20  1  0  0  0  0
  2  3  1  0  0  0  0
  2  4  1  0  0  0  0
  2 21  1  0  0  0  0
  3 22  1  0  0  0  0
  3 23  1  0  0  0  0
  3 24  1  0  0  0  0
  4 17  1  0  0  0  0
  4  5  2  0  0  0  0
  5  6  1  0  0  0  0
  6  7  1  0  0  0  0
  6 16  2  0  0  0  0
  7  8  1  0  0  0  0
  7 25  1  0  0  0  0
  7 26  1  0  0  0  0
  8  9  1  0  0  0  0
  8 27  1  0  0  0  0
  8 28  1  0  0  0  0
  9 10  1  0  0  0  0
  9 29  1  0  0  0  0
 10 11  2  0  0  0  0
 10 12  1  0  0  0  0
 12 14  1  0  0  0  0
 12 13  1  0  0  0  0
 12 30  1  0  0  0  0
 13 14  1  0  0  0  0
 13 31  1  0  0  0  0
 13 32  1  0  0  0  0
 14 15  1  0  0  0  0
 14 33  1  0  0  0  0
 15 34  1  0  0  0  0
 15 35  1  0  0  0  0
 15 36  1  0  0  0  0
 16 17  1  0  0  0  0
 16 37  1  0  0  0  0
M  END
> <s_m_source_file>
AV-unprocessed.smi

> <i_m_source_file_index>
3243

> <i_lp_mmshare_version>
43012

> <i_f3d_flags>
0

> <s_epik_input>
W0NIM11bQ0hdKFtDSDNdKWMxbmMoW2NIXXMxKVtDSDJdW0NIMl1bTkhdQyg9TylbQ0BASF0yW0NIMl1bQ0BIXTJbQ0gzXQ==

> <s_epik_cmdline>
J2VwaWtfcHl0aG9uJywgJy1waCcsICc3LjAnLCAnLXRuJywgJzgnLCAnLW1hJywgJzIwMCcsICctbWV0YWxfYmluZGluZycsICctaW1hZScsICc8aW5maWxlLm1hZT4nLCAnLW9tYWUnLCAnPG91dGZpbGUubWFlPic=

> <r_epik_Ionization_Penalty>
0.00084212

> <r_epik_Ionization_Penalty_Charging>
0

> <r_epik_Ionization_Penalty_Neutral>
0.00084212

> <r_epik_State_Penalty>
0.000542609

> <r_epik_Charging_Adjusted_Penalty>
0.000542609

> <i_epik_Tot_Q>
0

> <i_epik_Tot_abs_Q>
0

> <r_epik_Metal_State_Penalty>
-0

> <b_epik_Metal_Only>
0

> <s_lp_Force_Field>
OPLS_2005

> <r_lp_Energy>
-2.05964

> <b_lp_Chiralities_Consistent>
1

> <s_lp_Variant>
AV-unprocessed.smi:3243-4

> <Gold.Version>
5.8.1

> <Gold.Id.Protein>
6NUR|6NUR_protein|mol2

> <Gold.PLP.Fitness>
49.0542

> <Gold.PLP.PLP>
-46.5566

> <Gold.PLP.part.hbond>
-3.0000

> <Gold.PLP.part.metal>
0.0000

> <Gold.PLP.part.buried>
-2.7851

> <Gold.PLP.part.nonpolar>
-41.4254

> <Gold.PLP.part.repulsive>
1.1750

> <Gold.PLP.ligand.clash>
0.0000

> <Gold.PLP.ligand.torsion>
0.8853

> <Gold.PLP.Chemscore.Hbond>
1.1276

> <Gold.PLP.Chemscore.CHOScore>
0.2449

> <Gold.PLP.Chemscore.Metal>
0.0000

> <Gold.Chemscore.Hbonds>
donor molecule, donor type, donor heavy atom, donor atom, acceptor molecule, acceptor atom, score
      P1  H  7989  7998       L1    11  0.40
      P1  H  8011  8017       L1    11  0.74
      L1  C    16    37       P1  8028  0.25
      L1  C    16    37       P1  8029  0.35

> <Gold.PLP.Chemscore.Internal.Correction>
0.1508

> <Gold.Rescore>
     Score         DG    S(hbond)    S(metal)    S(lipo)     H(rot)  DE(clash)    DE(int)     intcor
     17.72     -18.50       0.92        0.00     117.48       1.49       0.00       0.77       ----

> <Gold.Chemscore.Fitness>
17.7248

> <Gold.Chemscore.DG>
-18.4986

> <Gold.Chemscore.ZeroCoef>
-5.4800

> <Gold.Chemscore.Hbond>
0.9221

> <Gold.Chemscore.Metal>
0.0000

> <Gold.Chemscore.Lipo>
117.4833

> <Gold.Chemscore.Internal_Hbond>
0.0000

> <Gold.Chemscore.DEClash>
0.0047

> <Gold.Chemscore.DEInternal>
0.7690

> <Gold.Chemscore.Rot>
1.4870

> <Gold.Chemscore.Internal.Correction>
   9.000000E+99

> <Gold.Chemscore.Hbonds>
donor molecule, donor type, donor heavy atom, donor atom, acceptor molecule, acceptor atom, score
      P1  H  7989  7998       L1    11  0.40
      P1  H  8011  8017       L1    11  0.25

> <Gold.Chemscore.Hbond.Weighted>
-3.0797

> <Gold.Chemscore.Metal.Weighted>
-0.0000

> <Gold.Chemscore.Lipo.Weighted>
-13.7456

> <Gold.Chemscore.Internal_Hbond.Weighted>
0.0000

> <Gold.Chemscore.DEClash.Weighted>
0.0047

> <Gold.Chemscore.DEInternal.Weighted>
0.7690

> <Gold.Chemscore.Rot.Weighted>
3.8067

> <Gold.Chemscore.Internal.Correction.Weighted>
   9.000000E+99

> <Gold.Protein.RotatedTorsions>
[ 6907 6896 6895 6894 ] final  104.96 input  -60.11 | X-H torsion
[ 7974 7965 7964 7962 ] final  145.70 input  175.53 | X-H torsion
[ 8008 7997 7996 7995 ] final   85.39 input   59.86 | X-H torsion
[ 10167 10162 10161 10158 ] final -175.91 input  -65.29 | X-H torsion
[ 10718 10713 10712 10709 ] final  179.79 input   66.30 | X-H torsion
[ 10763 10752 10751 10750 ] final   35.15 input  -60.55 | X-H torsion
[ 11005 11000 10999 10996 ] final   10.65 input  -57.11 | X-H torsion

> <Gold.Protein.ActiveResidues>
 VAL166  LYS551  ARG553  GLY616  TRP617  ASP618  TYR619  PRO620  LYS621  CYS622 
 ASP623  PHE694  ASN695  SER759  ASP760  ASP761  ALA762  ILE779  LEU786  VAL792 
 PHE793  MET794  SER795  GLU796  ALA797  LYS798  CYS799  TRP800  GLU811  SER814 

> <Gold.Protein.RotatedAtoms>
  152.5247  133.9599  159.7711 H   0  0  0  0  0  0  0  0  0  0  0  0  # atno 6907 bound_to 6896
  150.9892  133.6158  159.2718 H   0  0  0  0  0  0  0  0  0  0  0  0  # atno 6908 bound_to 6896
  151.3308  135.0847  159.9391 H   0  0  0  0  0  0  0  0  0  0  0  0  # atno 6909 bound_to 6896
  144.8731  139.5815  143.5877 H   0  0  0  0  0  0  0  0  0  0  0  0  # atno 7974 bound_to 7965
  155.9494  140.3402  155.6395 H   0  0  0  0  0  0  0  0  0  0  0  0  # atno 8008 bound_to 7997
  155.6939  140.0752  157.2455 H   0  0  0  0  0  0  0  0  0  0  0  0  # atno 8009 bound_to 7997
  154.4119  140.1652  156.2104 H   0  0  0  0  0  0  0  0  0  0  0  0  # atno 8010 bound_to 7997
  139.5556  144.1997  152.1154 H   0  0  0  0  0  0  0  0  0  0  0  0  # atno 10167 bound_to 10162
  156.8706  130.9782  151.3073 H   0  0  0  0  0  0  0  0  0  0  0  0  # atno 10718 bound_to 10713
  153.0132  135.6341  154.1782 H   0  0  0  0  0  0  0  0  0  0  0  0  # atno 10763 bound_to 10752
  154.1523  135.2828  155.3133 H   0  0  0  0  0  0  0  0  0  0  0  0  # atno 10764 bound_to 10752
  154.6044  135.5577  153.7469 H   0  0  0  0  0  0  0  0  0  0  0  0  # atno 10765 bound_to 10752
  140.5120  134.0642  155.7821 H   0  0  0  0  0  0  0  0  0  0  0  0  # atno 11005 bound_to 11000
  146.2944  139.7234  142.9137 LP  0  0  0  0  0  0  0  0  0  0  0  0  # atno 17320 bound_to 7965
  145.4093  141.0394  143.3026 LP  0  0  0  0  0  0  0  0  0  0  0  0  # atno 17321 bound_to 7965
  140.1500  144.5123  150.6693 LP  0  0  0  0  0  0  0  0  0  0  0  0  # atno 17342 bound_to 10162
  140.6828  143.2335  151.5338 LP  0  0  0  0  0  0  0  0  0  0  0  0  # atno 17343 bound_to 10162
  157.6198  130.8646  149.9089 LP  0  0  0  0  0  0  0  0  0  0  0  0  # atno 17370 bound_to 10713
  156.0728  130.3683  150.0739 LP  0  0  0  0  0  0  0  0  0  0  0  0  # atno 17371 bound_to 10713
  141.1380  133.9188  157.2390 LP  0  0  0  0  0  0  0  0  0  0  0  0  # atno 17394 bound_to 11000
  139.9653  135.0143  156.9371 LP  0  0  0  0  0  0  0  0  0  0  0  0  # atno 17395 bound_to 11000

$$$$
