AV-unprocessed.smi:1855|AV-procd|sdf|7531|dock10
  -GOLD-   22720 9243D 1   1.00000     0.00000
 Structure written by MMmdl.
 43 45  0  0  0  0  0  0  0  0  1 V2000
  155.5045  139.0956  159.6397 C   0  0  0  0  0  0  0  0  0  0  0  0
  154.4551  139.9167  159.1507 O   0  0  0  0  0  0  0  0  0  0  0  0
  153.9164  140.8660  159.9951 C   0  0  0  0  0  0  0  0  0  0  0  0
  154.4148  141.1387  161.2941 C   0  0  0  0  0  0  0  0  0  0  0  0
  153.8104  142.1228  162.0979 C   0  0  0  0  0  0  0  0  0  0  0  0
  152.7045  142.8432  161.6150 C   0  0  0  0  0  0  0  0  0  0  0  0
  152.2015  142.5802  160.3280 C   0  0  0  0  0  0  0  0  0  0  0  0
  152.8035  141.5909  159.5111 C   0  0  0  0  0  0  0  0  0  0  0  0
  152.3688  141.2790  158.2415 O   0  0  0  0  0  0  0  0  0  0  0  0
  151.0142  141.5295  157.8962 C   0  0  0  0  0  0  0  0  0  0  0  0
  150.9604  142.0146  156.4405 C   0  0  0  0  0  0  0  0  0  0  0  0
  150.3628  141.0225  155.5566 N   0  0  0  0  0  0  0  0  0  0  0  0
  150.8367  139.7936  155.2292 C   0  0  0  0  0  0  0  0  0  0  0  0
  152.1251  139.2565  155.7815 C   0  0  0  0  0  0  0  0  0  0  0  0
  151.8598  138.0177  156.5063 N   0  0  0  0  0  0  0  0  0  0  0  0
  151.5217  136.8497  155.9413 C   0  0  0  0  0  0  0  0  0  0  0  0
  151.3996  136.6703  154.7308 O   0  0  0  0  0  0  0  0  0  0  0  0
  150.0870  139.0904  154.3796 N   0  0  0  0  0  0  0  0  0  0  0  0
  149.0282  139.9414  154.1314 C   0  0  0  0  0  0  0  0  0  0  0  0
  147.8936  139.7778  153.3049 C   0  0  0  0  0  0  0  0  0  0  0  0
  146.9333  140.8053  153.1991 C   0  0  0  0  0  0  0  0  0  0  0  0
  147.0925  142.0075  153.9181 C   0  0  0  0  0  0  0  0  0  0  0  0
  148.2126  142.1881  154.7518 C   0  0  0  0  0  0  0  0  0  0  0  0
  149.1697  141.1605  154.8525 C   0  0  0  0  0  0  0  0  0  0  0  0
  155.8085  138.4004  158.8573 H   0  0  0  0  0  0  0  0  0  0  0  0
  155.1823  138.5048  160.4980 H   0  0  0  0  0  0  0  0  0  0  0  0
  156.3790  139.6871  159.9137 H   0  0  0  0  0  0  0  0  0  0  0  0
  155.2622  140.6060  161.6979 H   0  0  0  0  0  0  0  0  0  0  0  0
  154.1969  142.3253  163.0859 H   0  0  0  0  0  0  0  0  0  0  0  0
  152.2411  143.5994  162.2315 H   0  0  0  0  0  0  0  0  0  0  0  0
  151.3526  143.1535  159.9881 H   0  0  0  0  0  0  0  0  0  0  0  0
  150.4192  140.6214  158.0041 H   0  0  0  0  0  0  0  0  0  0  0  0
  150.5927  142.2917  158.5529 H   0  0  0  0  0  0  0  0  0  0  0  0
  150.4062  142.9500  156.3718 H   0  0  0  0  0  0  0  0  0  0  0  0
  151.9676  142.2320  156.0836 H   0  0  0  0  0  0  0  0  0  0  0  0
  152.8372  139.0907  154.9711 H   0  0  0  0  0  0  0  0  0  0  0  0
  152.5770  139.9862  156.4533 H   0  0  0  0  0  0  0  0  0  0  0  0
  151.9311  138.0542  157.5126 H   0  0  0  0  0  0  0  0  0  0  0  0
  151.3684  136.0741  156.7074 H   0  0  0  0  0  0  0  0  0  0  0  0
  147.7643  138.8613  152.7484 H   0  0  0  0  0  0  0  0  0  0  0  0
  146.0717  140.6710  152.5619 H   0  0  0  0  0  0  0  0  0  0  0  0
  146.3554  142.7919  153.8284 H   0  0  0  0  0  0  0  0  0  0  0  0
  148.3398  143.1100  155.2995 H   0  0  0  0  0  0  0  0  0  0  0  0
  1  2  1  0  0  0  0
  1 25  1  0  0  0  0
  1 26  1  0  0  0  0
  1 27  1  0  0  0  0
  2  3  1  0  0  0  0
  3  8  1  0  0  0  0
  3  4  2  0  0  0  0
  4  5  1  0  0  0  0
  4 28  1  0  0  0  0
  5  6  2  0  0  0  0
  5 29  1  0  0  0  0
  6  7  1  0  0  0  0
  6 30  1  0  0  0  0
  7  8  2  0  0  0  0
  7 31  1  0  0  0  0
  8  9  1  0  0  0  0
  9 10  1  0  0  0  0
 10 11  1  0  0  0  0
 10 32  1  0  0  0  0
 10 33  1  0  0  0  0
 11 12  1  0  0  0  0
 11 34  1  0  0  0  0
 11 35  1  0  0  0  0
 12 24  1  0  0  0  0
 12 13  1  0  0  0  0
 13 14  1  0  0  0  0
 13 18  2  0  0  0  0
 14 15  1  0  0  0  0
 14 36  1  0  0  0  0
 14 37  1  0  0  0  0
 15 16  1  0  0  0  0
 15 38  1  0  0  0  0
 16 17  2  0  0  0  0
 16 39  1  0  0  0  0
 18 19  1  0  0  0  0
 19 24  2  0  0  0  0
 19 20  1  0  0  0  0
 20 21  2  0  0  0  0
 20 40  1  0  0  0  0
 21 22  1  0  0  0  0
 21 41  1  0  0  0  0
 22 23  2  0  0  0  0
 22 42  1  0  0  0  0
 23 24  1  0  0  0  0
 23 43  1  0  0  0  0
M  END
> <s_m_source_file>
AV-unprocessed.smi

> <i_m_source_file_index>
1855

> <i_lp_mmshare_version>
43012

> <i_f3d_flags>
0

> <s_epik_input>
W0NIM11PYzFbY0hdW2NIXVtjSF1bY0hdYzFPW0NIMl1bQ0gyXW4oYyhuMilbQ0gyXVtOSF1bQ0hdPU8pYyhjMjMpW2NIXVtjSF1bY0hdW2NIXTM=

> <s_epik_cmdline>
J2VwaWtfcHl0aG9uJywgJy1waCcsICc3LjAnLCAnLXRuJywgJzgnLCAnLW1hJywgJzIwMCcsICctbWV0YWxfYmluZGluZycsICctaW1hZScsICc8aW5maWxlLm1hZT4nLCAnLW9tYWUnLCAnPG91dGZpbGUubWFlPic=

> <r_lp_tautomer_probability>
1

> <r_epik_Ionization_Penalty>
0.0587233

> <r_epik_Ionization_Penalty_Charging>
0

> <r_epik_Ionization_Penalty_Neutral>
0.0587233

> <r_epik_State_Penalty>
0.0508012

> <r_epik_Charging_Adjusted_Penalty>
0.0508012

> <i_epik_Tot_Q>
0

> <i_epik_Tot_abs_Q>
0

> <r_epik_Metal_State_Penalty>
0.0461886

> <b_epik_Metal_Only>
0

> <s_lp_Force_Field>
OPLS_2005

> <r_lp_Energy>
14.9723

> <b_lp_Chiralities_Consistent>
1

> <s_lp_Variant>
AV-unprocessed.smi:1855-1

> <Gold.Version>
5.8.1

> <Gold.Id.Protein>
6NUR|6NUR_protein|mol2

> <Gold.PLP.Fitness>
52.2344

> <Gold.PLP.PLP>
-48.3709

> <Gold.PLP.part.hbond>
-2.0000

> <Gold.PLP.part.metal>
0.0000

> <Gold.PLP.part.buried>
2.0853

> <Gold.PLP.part.nonpolar>
-48.4902

> <Gold.PLP.part.repulsive>
0.4014

> <Gold.PLP.ligand.clash>
0.0000

> <Gold.PLP.ligand.torsion>
1.0675

> <Gold.PLP.Chemscore.Hbond>
1.9750

> <Gold.PLP.Chemscore.CHOScore>
0.0000

> <Gold.PLP.Chemscore.Metal>
0.0000

> <Gold.Chemscore.Hbonds>
donor molecule, donor type, donor heavy atom, donor atom, acceptor molecule, acceptor atom, score
      P1  H  7997  8010       L1     2  1.00
      P1  H 10752 10764       L1    17  1.00

> <Gold.PLP.Chemscore.Internal.Correction>
0.0735

> <Gold.Rescore>
     Score         DG    S(hbond)    S(metal)    S(lipo)     H(rot)  DE(clash)    DE(int)     intcor
     14.91     -17.85       1.40        0.00     125.69       2.74       1.44       1.50       ----

> <Gold.Chemscore.Fitness>
14.9060

> <Gold.Chemscore.DG>
-17.8538

> <Gold.Chemscore.ZeroCoef>
-5.4800

> <Gold.Chemscore.Hbond>
1.4005

> <Gold.Chemscore.Metal>
0.0000

> <Gold.Chemscore.Lipo>
125.6934

> <Gold.Chemscore.Internal_Hbond>
0.0000

> <Gold.Chemscore.DEClash>
1.4444

> <Gold.Chemscore.DEInternal>
1.5033

> <Gold.Chemscore.Rot>
2.7383

> <Gold.Chemscore.Internal.Correction>
   9.000000E+99

> <Gold.Chemscore.Hbonds>
donor molecule, donor type, donor heavy atom, donor atom, acceptor molecule, acceptor atom, score
      P1  H  7997  8010       L1     2  0.25
      P1  H 10752 10764       L1    17  0.26

> <Gold.Chemscore.Hbond.Weighted>
-4.6778

> <Gold.Chemscore.Metal.Weighted>
-0.0000

> <Gold.Chemscore.Lipo.Weighted>
-14.7061

> <Gold.Chemscore.Internal_Hbond.Weighted>
0.0000

> <Gold.Chemscore.DEClash.Weighted>
1.4444

> <Gold.Chemscore.DEInternal.Weighted>
1.5033

> <Gold.Chemscore.Rot.Weighted>
7.0102

> <Gold.Chemscore.Internal.Correction.Weighted>
   9.000000E+99

> <Gold.Protein.RotatedTorsions>
[ 6907 6896 6895 6894 ] final -151.65 input  -60.11 | X-H torsion
[ 7974 7965 7964 7962 ] final -118.08 input  175.53 | X-H torsion
[ 8008 7997 7996 7995 ] final    8.89 input   59.86 | X-H torsion
[ 10167 10162 10161 10158 ] final -170.50 input  -65.29 | X-H torsion
[ 10718 10713 10712 10709 ] final  128.71 input   66.30 | X-H torsion
[ 10763 10752 10751 10750 ] final  -71.06 input  -60.55 | X-H torsion
[ 11005 11000 10999 10996 ] final   13.54 input  -57.11 | X-H torsion

> <Gold.Protein.ActiveResidues>
 VAL166  LYS551  ARG553  GLY616  TRP617  ASP618  TYR619  PRO620  LYS621  CYS622 
 ASP623  PHE694  ASN695  SER759  ASP760  ASP761  ALA762  ILE779  LEU786  VAL792 
 PHE793  MET794  SER795  GLU796  ALA797  LYS798  CYS799  TRP800  GLU811  SER814 

> <Gold.Protein.RotatedAtoms>
  151.2162  133.4528  159.2599 H   0  0  0  0  0  0  0  0  0  0  0  0  # atno 6907 bound_to 6896
  151.0929  134.9927  159.8421 H   0  0  0  0  0  0  0  0  0  0  0  0  # atno 6908 bound_to 6896
  152.5436  134.2094  159.8797 H   0  0  0  0  0  0  0  0  0  0  0  0  # atno 6909 bound_to 6896
  145.0779  140.8405  143.4057 H   0  0  0  0  0  0  0  0  0  0  0  0  # atno 7974 bound_to 7965
  154.7728  140.2805  155.6124 H   0  0  0  0  0  0  0  0  0  0  0  0  # atno 8008 bound_to 7997
  156.2936  140.2638  156.2462 H   0  0  0  0  0  0  0  0  0  0  0  0  # atno 8009 bound_to 7997
  154.9879  140.0374  157.2296 H   0  0  0  0  0  0  0  0  0  0  0  0  # atno 8010 bound_to 7997
  139.5858  144.1321  152.1574 H   0  0  0  0  0  0  0  0  0  0  0  0  # atno 10167 bound_to 10162
  157.5220  131.1098  150.9139 H   0  0  0  0  0  0  0  0  0  0  0  0  # atno 10718 bound_to 10713
  154.4264  135.5974  153.6041 H   0  0  0  0  0  0  0  0  0  0  0  0  # atno 10763 bound_to 10752
  152.9796  135.5964  154.3892 H   0  0  0  0  0  0  0  0  0  0  0  0  # atno 10764 bound_to 10752
  154.3724  135.2841  155.2237 H   0  0  0  0  0  0  0  0  0  0  0  0  # atno 10765 bound_to 10752
  140.4796  134.0949  155.7748 H   0  0  0  0  0  0  0  0  0  0  0  0  # atno 11005 bound_to 11000
  145.1214  139.2691  143.5586 LP  0  0  0  0  0  0  0  0  0  0  0  0  # atno 17320 bound_to 7965
  146.3530  140.0839  142.8616 LP  0  0  0  0  0  0  0  0  0  0  0  0  # atno 17321 bound_to 7965
  140.0884  144.5641  150.7072 LP  0  0  0  0  0  0  0  0  0  0  0  0  # atno 17342 bound_to 10162
  140.7130  143.2521  151.4522 LP  0  0  0  0  0  0  0  0  0  0  0  0  # atno 17343 bound_to 10162
  156.9747  130.5504  149.5292 LP  0  0  0  0  0  0  0  0  0  0  0  0  # atno 17370 bound_to 10713
  156.0360  130.5447  150.8654 LP  0  0  0  0  0  0  0  0  0  0  0  0  # atno 17371 bound_to 10713
  141.1538  133.8921  157.2031 LP  0  0  0  0  0  0  0  0  0  0  0  0  # atno 17394 bound_to 11000
  139.9835  135.0090  156.9806 LP  0  0  0  0  0  0  0  0  0  0  0  0  # atno 17395 bound_to 11000

$$$$
