AV-unprocessed.smi:61|AV-procd|sdf|598|dock6
  -GOLD-   2262016493D 1   1.00000     0.00000
 Structure written by MMmdl.
 28 29  0  0  0  0  0  0  0  0  1 V2000
  152.8086  138.6309  155.0891 N   0  0  0  0  0  0  0  0  0  0  0  0
  152.0341  139.6184  155.6472 C   0  0  0  0  0  0  0  0  0  0  0  0
  150.9850  140.0290  154.9340 N   0  0  0  0  0  0  0  0  0  0  0  0
  150.2252  141.0000  155.4841 C   0  0  0  0  0  0  0  0  0  0  0  0
  150.5233  141.5518  156.7464 C   0  0  0  0  0  0  0  0  0  0  0  0
  151.6614  141.0421  157.4154 C   0  0  0  0  0  0  0  0  0  0  0  0
  152.0284  141.5375  158.6843 N   0  0  0  0  0  0  0  0  0  0  0  0
  152.9828  140.7448  159.4528 C   0  0  0  0  0  0  0  0  0  0  0  0
  153.9055  141.7447  160.1590 C   0  0  0  0  0  0  0  0  0  0  0  0
  153.0788  143.0255  160.2174 C   0  0  0  0  0  0  0  0  0  0  0  0
  152.2790  142.9599  158.9114 C   0  0  2  0  0  0  0  0  0  0  0  0
  151.0085  143.8392  158.8747 C   0  0  0  0  0  0  0  0  0  0  0  0
  150.9776  144.6739  157.7349 O   0  0  0  0  0  0  0  0  0  0  0  0
  152.4113  140.0666  156.8459 N   0  0  0  0  0  0  0  0  0  0  0  0
  153.6172  138.2783  155.5800 H   0  0  0  0  0  0  0  0  0  0  0  0
  152.5464  138.2131  154.2084 H   0  0  0  0  0  0  0  0  0  0  0  0
  149.3744  141.3410  154.9128 H   0  0  0  0  0  0  0  0  0  0  0  0
  149.9089  142.3327  157.1698 H   0  0  0  0  0  0  0  0  0  0  0  0
  152.4307  140.1525  160.1833 H   0  0  0  0  0  0  0  0  0  0  0  0
  153.5590  140.0598  158.8293 H   0  0  0  0  0  0  0  0  0  0  0  0
  154.2302  141.4007  161.1413 H   0  0  0  0  0  0  0  0  0  0  0  0
  154.7959  141.9139  159.5516 H   0  0  0  0  0  0  0  0  0  0  0  0
  152.4224  142.9897  161.0875 H   0  0  0  0  0  0  0  0  0  0  0  0
  153.6911  143.9243  160.2936 H   0  0  0  0  0  0  0  0  0  0  0  0
  152.9407  143.2959  158.1115 H   0  0  0  0  0  0  0  0  0  0  0  0
  150.1255  143.2003  158.8459 H   0  0  0  0  0  0  0  0  0  0  0  0
  150.9153  144.4558  159.7677 H   0  0  0  0  0  0  0  0  0  0  0  0
  150.1737  144.5112  157.2656 H   0  0  0  0  0  0  0  0  0  0  0  0
  1  2  1  0  0  0  0
  1 15  1  0  0  0  0
  1 16  1  0  0  0  0
  2 14  1  0  0  0  0
  2  3  2  0  0  0  0
  3  4  1  0  0  0  0
  4  5  2  0  0  0  0
  4 17  1  0  0  0  0
  5  6  1  0  0  0  0
  5 18  1  0  0  0  0
  6  7  1  0  0  0  0
  6 14  2  0  0  0  0
  7 11  1  0  0  0  0
  7  8  1  0  0  0  0
  8  9  1  0  0  0  0
  8 19  1  0  0  0  0
  8 20  1  0  0  0  0
  9 10  1  0  0  0  0
  9 21  1  0  0  0  0
  9 22  1  0  0  0  0
 10 11  1  0  0  0  0
 10 23  1  0  0  0  0
 10 24  1  0  0  0  0
 11 12  1  0  0  0  0
 11 25  1  0  0  0  0
 12 13  1  0  0  0  0
 12 26  1  0  0  0  0
 12 27  1  0  0  0  0
 13 28  1  0  0  0  0
M  END
> <s_m_source_file>
AV-unprocessed.smi

> <i_m_source_file_index>
61

> <i_lp_mmshare_version>
43012

> <i_f3d_flags>
0

> <s_epik_input>
W05IMl1jMW5bY0hdW2NIXWMobjEpTjJbQ0gyXVtDSDJdW0NIMl1bQ0BIXTJbQ0gyXVtPSF0=

> <s_epik_cmdline>
J2VwaWtfcHl0aG9uJywgJy1waCcsICc3LjAnLCAnLXRuJywgJzgnLCAnLW1hJywgJzIwMCcsICctbWV0YWxfYmluZGluZycsICctaW1hZScsICc8aW5maWxlLm1hZT4nLCAnLW9tYWUnLCAnPG91dGZpbGUubWFlPic=

> <r_lp_tautomer_probability>
1

> <r_epik_Ionization_Penalty>
0.76024

> <r_epik_Ionization_Penalty_Charging>
0

> <r_epik_Ionization_Penalty_Neutral>
0.76024

> <r_epik_State_Penalty>
0.587668

> <r_epik_Charging_Adjusted_Penalty>
0.587668

> <i_epik_Tot_Q>
0

> <i_epik_Tot_abs_Q>
0

> <r_epik_Metal_State_Penalty>
0.307814

> <b_epik_Metal_Only>
0

> <s_lp_Force_Field>
OPLS_2005

> <r_lp_Energy>
26.7573

> <b_lp_Chiralities_Consistent>
1

> <s_lp_Variant>
AV-unprocessed.smi:61-4

> <Gold.Version>
5.8.1

> <Gold.Id.Protein>
6NUR|6NUR_protein|mol2

> <Gold.PLP.Fitness>
37.8472

> <Gold.PLP.PLP>
-30.3373

> <Gold.PLP.part.hbond>
-3.0921

> <Gold.PLP.part.metal>
0.0000

> <Gold.PLP.part.buried>
-3.5132

> <Gold.PLP.part.nonpolar>
-23.4942

> <Gold.PLP.part.repulsive>
0.2881

> <Gold.PLP.ligand.clash>
0.0000

> <Gold.PLP.ligand.torsion>
0.9175

> <Gold.PLP.Chemscore.Hbond>
3.0000

> <Gold.PLP.Chemscore.CHOScore>
0.0000

> <Gold.PLP.Chemscore.Metal>
0.0000

> <Gold.Chemscore.Hbonds>
donor molecule, donor type, donor heavy atom, donor atom, acceptor molecule, acceptor atom, score
      L1  H    13    28       P1  8028  0.99
      P1  H  7989  7998       L1     3  1.00
      P1  H  7997  8010       L1    14  0.90

> <Gold.PLP.Chemscore.Internal.Correction>
0.3450

> <Gold.Rescore>
     Score         DG    S(hbond)    S(metal)    S(lipo)     H(rot)  DE(clash)    DE(int)     intcor
     12.90     -14.46       1.82        0.00      67.54       1.96       0.52       1.04       ----

> <Gold.Chemscore.Fitness>
12.9034

> <Gold.Chemscore.DG>
-14.4619

> <Gold.Chemscore.ZeroCoef>
-5.4800

> <Gold.Chemscore.Hbond>
1.8225

> <Gold.Chemscore.Metal>
0.0000

> <Gold.Chemscore.Lipo>
67.5409

> <Gold.Chemscore.Internal_Hbond>
0.0000

> <Gold.Chemscore.DEClash>
0.5159

> <Gold.Chemscore.DEInternal>
1.0426

> <Gold.Chemscore.Rot>
1.9561

> <Gold.Chemscore.Internal.Correction>
   9.000000E+99

> <Gold.Chemscore.Hbonds>
donor molecule, donor type, donor heavy atom, donor atom, acceptor molecule, acceptor atom, score
      L1  H    13    28       P1  8028  0.45
      P1  H  7989  7998       L1     3  0.18
      P1  H  7997  8010       L1    14  0.17

> <Gold.Chemscore.Hbond.Weighted>
-6.0873

> <Gold.Chemscore.Metal.Weighted>
-0.0000

> <Gold.Chemscore.Lipo.Weighted>
-7.9023

> <Gold.Chemscore.Internal_Hbond.Weighted>
0.0000

> <Gold.Chemscore.DEClash.Weighted>
0.5159

> <Gold.Chemscore.DEInternal.Weighted>
1.0426

> <Gold.Chemscore.Rot.Weighted>
5.0077

> <Gold.Chemscore.Internal.Correction.Weighted>
   9.000000E+99

> <Gold.Protein.RotatedTorsions>
[ 6907 6896 6895 6894 ] final   42.40 input  -60.11 | X-H torsion
[ 7974 7965 7964 7962 ] final  -76.39 input  175.53 | X-H torsion
[ 8008 7997 7996 7995 ] final   67.07 input   59.86 | X-H torsion
[ 10167 10162 10161 10158 ] final -148.70 input  -65.29 | X-H torsion
[ 10718 10713 10712 10709 ] final  177.69 input   66.30 | X-H torsion
[ 10763 10752 10751 10750 ] final  118.89 input  -60.55 | X-H torsion
[ 11005 11000 10999 10996 ] final   20.09 input  -57.11 | X-H torsion

> <Gold.Protein.ActiveResidues>
 VAL166  LYS551  ARG553  GLY616  TRP617  ASP618  TYR619  PRO620  LYS621  CYS622 
 ASP623  PHE694  ASN695  SER759  ASP760  ASP761  ALA762  ILE779  LEU786  VAL792 
 PHE793  MET794  SER795  GLU796  ALA797  LYS798  CYS799  TRP800  GLU811  SER814 

> <Gold.Protein.RotatedAtoms>
  152.2074  134.8532  160.0500 H   0  0  0  0  0  0  0  0  0  0  0  0  # atno 6907 bound_to 6896
  151.9363  133.3620  159.3957 H   0  0  0  0  0  0  0  0  0  0  0  0  # atno 6908 bound_to 6896
  150.6968  134.4410  159.5336 H   0  0  0  0  0  0  0  0  0  0  0  0  # atno 6909 bound_to 6896
  145.6135  140.9381  143.1177 H   0  0  0  0  0  0  0  0  0  0  0  0  # atno 7974 bound_to 7965
  155.6872  140.3496  155.4879 H   0  0  0  0  0  0  0  0  0  0  0  0  # atno 8008 bound_to 7997
  155.9555  140.1127  157.0962 H   0  0  0  0  0  0  0  0  0  0  0  0  # atno 8009 bound_to 7997
  154.4131  140.1186  156.5096 H   0  0  0  0  0  0  0  0  0  0  0  0  # atno 8010 bound_to 7997
  139.7508  143.8521  152.2586 H   0  0  0  0  0  0  0  0  0  0  0  0  # atno 10167 bound_to 10162
  156.9016  130.9880  151.3035 H   0  0  0  0  0  0  0  0  0  0  0  0  # atno 10718 bound_to 10713
  153.5746  135.3495  155.2851 H   0  0  0  0  0  0  0  0  0  0  0  0  # atno 10763 bound_to 10752
  154.8677  135.4167  154.2687 H   0  0  0  0  0  0  0  0  0  0  0  0  # atno 10764 bound_to 10752
  153.3461  135.7052  153.6897 H   0  0  0  0  0  0  0  0  0  0  0  0  # atno 10765 bound_to 10752
  140.4065  134.1663  155.7665 H   0  0  0  0  0  0  0  0  0  0  0  0  # atno 11005 bound_to 11000
  144.7260  139.7874  143.7365 LP  0  0  0  0  0  0  0  0  0  0  0  0  # atno 17320 bound_to 7965
  146.1486  139.4563  143.0063 LP  0  0  0  0  0  0  0  0  0  0  0  0  # atno 17321 bound_to 7965
  139.8499  144.7169  150.9227 LP  0  0  0  0  0  0  0  0  0  0  0  0  # atno 17342 bound_to 10162
  140.7797  143.3909  151.1312 LP  0  0  0  0  0  0  0  0  0  0  0  0  # atno 17343 bound_to 10162
  157.6023  130.8521  149.8821 LP  0  0  0  0  0  0  0  0  0  0  0  0  # atno 17370 bound_to 10713
  156.0579  130.3705  150.1048 LP  0  0  0  0  0  0  0  0  0  0  0  0  # atno 17371 bound_to 10713
  141.1837  133.8358  157.1165 LP  0  0  0  0  0  0  0  0  0  0  0  0  # atno 17394 bound_to 11000
  140.0298  134.9906  157.0759 LP  0  0  0  0  0  0  0  0  0  0  0  0  # atno 17395 bound_to 11000

$$$$
