AV-unprocessed.smi:1554|AV-procd|sdf|6251|dock7
  -GOLD-   22720 6433D 1   1.00000     0.00000
 Structure written by MMmdl.
 48 50  0  0  0  0  0  0  0  0  2 V2000
  152.3843  144.3814  159.5672 C   0  0  0  0  0  0  0  0  0  0  0  0
  152.1717  143.1658  158.6823 C   0  0  0  0  0  0  0  0  0  0  0  0
  151.3287  143.2764  157.5535 C   0  0  0  0  0  0  0  0  0  0  0  0
  151.1029  142.1691  156.7067 C   0  0  0  0  0  0  0  0  0  0  0  0
  150.3286  142.0524  155.5650 N   0  0  0  0  0  0  0  0  0  0  0  0
  150.5242  140.7786  155.2371 C   0  0  0  0  0  0  0  0  0  0  0  0
  151.3331  140.0541  156.0345 N   0  0  0  0  0  0  0  0  0  0  0  0
  151.6908  138.6545  155.8893 C   0  0  0  0  0  0  0  0  0  0  0  0
  151.0221  138.0063  154.6620 C   0  0  1  0  0  0  0  0  0  0  0  0
  151.9338  137.1123  154.0520 O   0  0  0  0  0  0  0  0  0  0  0  0
  149.7431  137.2339  155.0403 C   0  0  0  0  0  0  0  0  0  0  0  0
  148.6216  137.4958  154.1017 N   0  3  2  0  0  0  0  0  0  0  0  0
  148.4468  138.9306  153.7655 C   0  0  0  0  0  0  0  0  0  0  0  0
  147.3023  139.1071  152.7544 C   0  0  0  0  0  0  0  0  0  0  0  0
  146.1068  138.5467  153.2830 O   0  0  0  0  0  0  0  0  0  0  0  0
  146.2271  137.1501  153.5305 C   0  0  2  0  0  0  0  0  0  0  0  0
  144.8673  136.6308  154.0109 C   0  0  0  0  0  0  0  0  0  0  0  0
  147.3402  136.9168  154.5708 C   0  0  0  0  0  0  0  0  0  0  0  0
  151.7474  140.9381  157.0244 C   0  0  0  0  0  0  0  0  0  0  0  0
  152.5902  140.8157  158.1433 C   0  0  0  0  0  0  0  0  0  0  0  0
  152.8063  141.9323  158.9775 C   0  0  0  0  0  0  0  0  0  0  0  0
  153.7194  141.7907  160.1826 C   0  0  0  0  0  0  0  0  0  0  0  0
  151.8509  145.2517  159.1837 H   0  0  0  0  0  0  0  0  0  0  0  0
  153.4428  144.6361  159.6209 H   0  0  0  0  0  0  0  0  0  0  0  0
  152.0233  144.1852  160.5772 H   0  0  0  0  0  0  0  0  0  0  0  0
  150.8465  144.2162  157.3277 H   0  0  0  0  0  0  0  0  0  0  0  0
  150.0481  140.3452  154.3695 H   0  0  0  0  0  0  0  0  0  0  0  0
  152.7769  138.5728  155.8255 H   0  0  0  0  0  0  0  0  0  0  0  0
  151.3912  138.1348  156.8004 H   0  0  0  0  0  0  0  0  0  0  0  0
  150.7870  138.7914  153.9444 H   0  0  0  0  0  0  0  0  0  0  0  0
  151.6297  136.9180  153.1783 H   0  0  0  0  0  0  0  0  0  0  0  0
  149.9728  136.1670  155.0520 H   0  0  0  0  0  0  0  0  0  0  0  0
  149.4276  137.4873  156.0536 H   0  0  0  0  0  0  0  0  0  0  0  0
  148.2311  139.4966  154.6731 H   0  0  0  0  0  0  0  0  0  0  0  0
  149.3622  139.3433  153.3433 H   0  0  0  0  0  0  0  0  0  0  0  0
  147.1373  140.1664  152.5570 H   0  0  0  0  0  0  0  0  0  0  0  0
  147.5488  138.6393  151.7997 H   0  0  0  0  0  0  0  0  0  0  0  0
  146.4827  136.6416  152.5988 H   0  0  0  0  0  0  0  0  0  0  0  0
  144.9035  135.5595  154.2098 H   0  0  0  0  0  0  0  0  0  0  0  0
  144.0971  136.8024  153.2585 H   0  0  0  0  0  0  0  0  0  0  0  0
  144.5535  137.1313  154.9273 H   0  0  0  0  0  0  0  0  0  0  0  0
  147.4616  135.8463  154.7419 H   0  0  0  0  0  0  0  0  0  0  0  0
  147.0664  137.3662  155.5271 H   0  0  0  0  0  0  0  0  0  0  0  0
  153.0662  139.8702  158.3570 H   0  0  0  0  0  0  0  0  0  0  0  0
  154.1461  140.7890  160.2431 H   0  0  0  0  0  0  0  0  0  0  0  0
  153.1673  141.9764  161.1040 H   0  0  0  0  0  0  0  0  0  0  0  0
  154.5446  142.5008  160.1236 H   0  0  0  0  0  0  0  0  0  0  0  0
  148.8515  137.0151  153.2429 H   0  0  0  0  0  0  0  0  0  0  0  0
  1  2  1  0  0  0  0
  1 23  1  0  0  0  0
  1 24  1  0  0  0  0
  1 25  1  0  0  0  0
  2 21  1  0  0  0  0
  2  3  2  0  0  0  0
  3  4  1  0  0  0  0
  3 26  1  0  0  0  0
  4 19  2  0  0  0  0
  4  5  1  0  0  0  0
  5  6  2  0  0  0  0
  6  7  1  0  0  0  0
  6 27  1  0  0  0  0
  7  8  1  0  0  0  0
  7 19  1  0  0  0  0
  8  9  1  0  0  0  0
  8 28  1  0  0  0  0
  8 29  1  0  0  0  0
  9 10  1  0  0  0  0
  9 11  1  0  0  0  0
  9 30  1  0  0  0  0
 10 31  1  0  0  0  0
 11 12  1  0  0  0  0
 11 32  1  0  0  0  0
 11 33  1  0  0  0  0
 12 18  1  0  0  0  0
 12 13  1  0  0  0  0
 12 48  1  0  0  0  0
 13 14  1  0  0  0  0
 13 34  1  0  0  0  0
 13 35  1  0  0  0  0
 14 15  1  0  0  0  0
 14 36  1  0  0  0  0
 14 37  1  0  0  0  0
 15 16  1  0  0  0  0
 16 17  1  0  0  0  0
 16 18  1  0  0  0  0
 16 38  1  0  0  0  0
 17 39  1  0  0  0  0
 17 40  1  0  0  0  0
 17 41  1  0  0  0  0
 18 42  1  0  0  0  0
 18 43  1  0  0  0  0
 19 20  1  0  0  0  0
 20 21  2  0  0  0  0
 20 44  1  0  0  0  0
 21 22  1  0  0  0  0
 22 45  1  0  0  0  0
 22 46  1  0  0  0  0
 22 47  1  0  0  0  0
M  CHG  1  12   1
M  END
> <s_m_source_file>
AV-unprocessed.smi

> <i_m_source_file_index>
1554

> <i_lp_mmshare_version>
43012

> <i_f3d_flags>
0

> <s_epik_input>
W0NIM11jKFtjSF0xKWMoW0NIM10pW2NIXWMoYzEyKW4oW2NIXW4yKVtDSDJdW0NASF0oW09IXSlbQ0gyXU4zW0NIMl1bQ0gyXU9bQ0BASF0oW0NIM10pW0NIMl0z

> <s_epik_cmdline>
J2VwaWtfcHl0aG9uJywgJy1waCcsICc3LjAnLCAnLXRuJywgJzgnLCAnLW1hJywgJzIwMCcsICctbWV0YWxfYmluZGluZycsICctaW1hZScsICc8aW5maWxlLm1hZT4nLCAnLW9tYWUnLCAnPG91dGZpbGUubWFlPic=

> <r_epik_Ionization_Penalty>
0.695251

> <r_epik_Ionization_Penalty_Charging>
0.608065

> <r_epik_Ionization_Penalty_Neutral>
0.0871863

> <r_epik_State_Penalty>
0.731955

> <r_epik_Charging_Adjusted_Penalty>
1.34002

> <i_epik_Tot_Q>
1

> <i_epik_Tot_abs_Q>
1

> <r_epik_Metal_State_Penalty>
0.652186

> <b_epik_Metal_Only>
0

> <s_lp_Force_Field>
OPLS_2005

> <r_lp_Energy>
20.6032

> <b_lp_Chiralities_Consistent>
1

> <s_lp_Variant>
AV-unprocessed.smi:1554-12

> <Gold.Version>
5.8.1

> <Gold.Id.Protein>
6NUR|6NUR_protein|mol2

> <Gold.PLP.Fitness>
50.1133

> <Gold.PLP.PLP>
-40.5251

> <Gold.PLP.part.hbond>
-3.0000

> <Gold.PLP.part.metal>
0.0000

> <Gold.PLP.part.buried>
-3.9221

> <Gold.PLP.part.nonpolar>
-34.2881

> <Gold.PLP.part.repulsive>
1.3053

> <Gold.PLP.ligand.clash>
0.0000

> <Gold.PLP.ligand.torsion>
1.2212

> <Gold.PLP.Chemscore.Hbond>
4.0000

> <Gold.PLP.Chemscore.CHOScore>
0.0000

> <Gold.PLP.Chemscore.Metal>
0.0000

> <Gold.Chemscore.Hbonds>
donor molecule, donor type, donor heavy atom, donor atom, acceptor molecule, acceptor atom, score
      L1  H    10    31       P1  7949  1.00
      L1  H    12    48       P1  7948  2.00
      P1  H 10752 10765       L1    10  0.90

> <Gold.PLP.Chemscore.Internal.Correction>
0.0307

> <Gold.Rescore>
     Score         DG    S(hbond)    S(metal)    S(lipo)     H(rot)  DE(clash)    DE(int)     intcor
     20.10     -21.48       2.57        0.00     108.41       2.05       0.06       1.32       ----

> <Gold.Chemscore.Fitness>
20.1040

> <Gold.Chemscore.DG>
-21.4823

> <Gold.Chemscore.ZeroCoef>
-5.4800

> <Gold.Chemscore.Hbond>
2.5683

> <Gold.Chemscore.Metal>
0.0000

> <Gold.Chemscore.Lipo>
108.4082

> <Gold.Chemscore.Internal_Hbond>
0.0000

> <Gold.Chemscore.DEClash>
0.0592

> <Gold.Chemscore.DEInternal>
1.3191

> <Gold.Chemscore.Rot>
2.0546

> <Gold.Chemscore.Internal.Correction>
   9.000000E+99

> <Gold.Chemscore.Hbonds>
donor molecule, donor type, donor heavy atom, donor atom, acceptor molecule, acceptor atom, score
      L1  H    10    31       P1  7949  0.94
      L1  H    12    48       P1  7948  0.97
      P1  H 10752 10765       L1    10  0.17

> <Gold.Chemscore.Hbond.Weighted>
-8.5783

> <Gold.Chemscore.Metal.Weighted>
-0.0000

> <Gold.Chemscore.Lipo.Weighted>
-12.6838

> <Gold.Chemscore.Internal_Hbond.Weighted>
0.0000

> <Gold.Chemscore.DEClash.Weighted>
0.0592

> <Gold.Chemscore.DEInternal.Weighted>
1.3191

> <Gold.Chemscore.Rot.Weighted>
5.2597

> <Gold.Chemscore.Internal.Correction.Weighted>
   9.000000E+99

> <Gold.Protein.RotatedTorsions>
[ 6907 6896 6895 6894 ] final   39.26 input  -60.11 | X-H torsion
[ 7974 7965 7964 7962 ] final  -47.18 input  175.53 | X-H torsion
[ 8008 7997 7996 7995 ] final   49.79 input   59.86 | X-H torsion
[ 10167 10162 10161 10158 ] final  109.11 input  -65.29 | X-H torsion
[ 10718 10713 10712 10709 ] final -106.13 input   66.30 | X-H torsion
[ 10763 10752 10751 10750 ] final  161.72 input  -60.55 | X-H torsion
[ 11005 11000 10999 10996 ] final   58.10 input  -57.11 | X-H torsion

> <Gold.Protein.ActiveResidues>
 VAL166  LYS551  ARG553  GLY616  TRP617  ASP618  TYR619  PRO620  LYS621  CYS622 
 ASP623  PHE694  ASN695  SER759  ASP760  ASP761  ALA762  ILE779  LEU786  VAL792 
 PHE793  MET794  SER795  GLU796  ALA797  LYS798  CYS799  TRP800  GLU811  SER814 

> <Gold.Protein.RotatedAtoms>
  152.1673  134.8863  160.0536 H   0  0  0  0  0  0  0  0  0  0  0  0  # atno 6907 bound_to 6896
  151.9837  133.3761  159.4125 H   0  0  0  0  0  0  0  0  0  0  0  0  # atno 6908 bound_to 6896
  150.6896  134.3934  159.5130 H   0  0  0  0  0  0  0  0  0  0  0  0  # atno 6909 bound_to 6896
  145.9643  140.7448  142.9442 H   0  0  0  0  0  0  0  0  0  0  0  0  # atno 7974 bound_to 7965
  155.4081  140.3441  155.4261 H   0  0  0  0  0  0  0  0  0  0  0  0  # atno 8008 bound_to 7997
  156.1465  140.1558  156.8871 H   0  0  0  0  0  0  0  0  0  0  0  0  # atno 8009 bound_to 7997
  154.5015  140.0813  156.7788 H   0  0  0  0  0  0  0  0  0  0  0  0  # atno 8010 bound_to 7997
  139.6792  144.7119  151.1546 H   0  0  0  0  0  0  0  0  0  0  0  0  # atno 10167 bound_to 10162
  156.0376  130.5597  150.7637 H   0  0  0  0  0  0  0  0  0  0  0  0  # atno 10718 bound_to 10713
  154.2673  135.2766  155.2753 H   0  0  0  0  0  0  0  0  0  0  0  0  # atno 10763 bound_to 10752
  154.5332  135.5724  153.6780 H   0  0  0  0  0  0  0  0  0  0  0  0  # atno 10764 bound_to 10752
  152.9951  135.6233  154.2826 H   0  0  0  0  0  0  0  0  0  0  0  0  # atno 10765 bound_to 10752
  140.0402  134.5884  155.9391 H   0  0  0  0  0  0  0  0  0  0  0  0  # atno 11005 bound_to 11000
  144.6822  140.2643  143.7315 LP  0  0  0  0  0  0  0  0  0  0  0  0  # atno 17320 bound_to 7965
  145.7996  139.1959  143.2056 LP  0  0  0  0  0  0  0  0  0  0  0  0  # atno 17321 bound_to 7965
  140.7646  143.5725  150.8981 LP  0  0  0  0  0  0  0  0  0  0  0  0  # atno 17342 bound_to 10162
  139.9396  143.6398  152.3057 LP  0  0  0  0  0  0  0  0  0  0  0  0  # atno 17343 bound_to 10162
  157.5149  131.0928  151.0151 LP  0  0  0  0  0  0  0  0  0  0  0  0  # atno 17370 bound_to 10713
  157.0497  130.5782  149.5368 LP  0  0  0  0  0  0  0  0  0  0  0  0  # atno 17371 bound_to 10713
  141.1879  133.6561  156.5302 LP  0  0  0  0  0  0  0  0  0  0  0  0  # atno 17394 bound_to 11000
  140.4081  134.7297  157.4819 LP  0  0  0  0  0  0  0  0  0  0  0  0  # atno 17395 bound_to 11000

$$$$
