AV-unprocessed.smi:1648|AV-procd|sdf|6627|dock8
  -GOLD-   22720 7323D 1   1.00000     0.00000
 Structure written by MMmdl.
 42 42  0  0  0  0  0  0  0  0  2 V2000
  150.1397  138.3298  154.6136 C   0  0  0  0  0  0  0  0  0  0  0  0
  150.7674  136.9377  154.5217 C   0  0  0  0  0  0  0  0  0  0  0  0
  151.9809  136.8337  154.3602 O   0  0  0  0  0  0  0  0  0  0  0  0
  149.9803  135.8521  154.6164 N   0  0  0  0  0  0  0  0  0  0  0  0
  150.3928  134.4477  154.5524 C   0  0  2  0  0  0  0  0  0  0  0  0
  149.1424  133.6210  154.2022 C   0  0  0  0  0  0  0  0  0  0  0  0
  148.8204  132.6544  154.8949 O   0  0  0  0  0  0  0  0  0  0  0  0
  148.4403  134.0250  153.1315 N   0  0  0  0  0  0  0  0  0  0  0  0
  147.1982  133.4217  152.6500 C   0  0  2  0  0  0  0  0  0  0  0  0
  147.3715  131.8977  152.6082 C   0  0  0  0  0  0  0  0  0  0  0  0
  146.8115  133.9800  151.2619 C   0  0  0  0  0  0  0  0  0  0  0  0
  145.4820  133.5457  150.8162 N   0  0  0  0  0  0  0  0  0  0  0  0
  145.0693  132.2627  150.5616 C   0  0  0  0  0  0  0  0  0  0  0  0
  143.7518  132.3419  150.1905 C   0  0  0  0  0  0  0  0  0  0  0  0
  143.4186  133.6693  150.2230 N   0  3  0  0  0  0  0  0  0  0  0  0
  144.4749  134.4005  150.5925 C   0  0  0  0  0  0  0  0  0  0  0  0
  150.9441  134.0187  155.9438 C   0  0  0  0  0  0  0  0  0  0  0  0
  152.0315  134.9862  156.4508 C   0  0  0  0  0  0  0  0  0  0  0  0
  151.5052  132.5813  155.9490 C   0  0  0  0  0  0  0  0  0  0  0  0
  149.5026  138.5166  153.7488 H   0  0  0  0  0  0  0  0  0  0  0  0
  150.9127  139.0988  154.6343 H   0  0  0  0  0  0  0  0  0  0  0  0
  149.5398  138.4354  155.5169 H   0  0  0  0  0  0  0  0  0  0  0  0
  148.9863  136.0144  154.6900 H   0  0  0  0  0  0  0  0  0  0  0  0
  151.1706  134.3014  153.8007 H   0  0  0  0  0  0  0  0  0  0  0  0
  148.7862  134.8217  152.6163 H   0  0  0  0  0  0  0  0  0  0  0  0
  146.3907  133.6330  153.3535 H   0  0  0  0  0  0  0  0  0  0  0  0
  146.4527  131.4071  152.2857 H   0  0  0  0  0  0  0  0  0  0  0  0
  147.6247  131.5039  153.5932 H   0  0  0  0  0  0  0  0  0  0  0  0
  148.1640  131.6053  151.9184 H   0  0  0  0  0  0  0  0  0  0  0  0
  146.8435  135.0710  151.2594 H   0  0  0  0  0  0  0  0  0  0  0  0
  147.5239  133.6424  150.5084 H   0  0  0  0  0  0  0  0  0  0  0  0
  145.7236  131.4102  150.6718 H   0  0  0  0  0  0  0  0  0  0  0  0
  143.0449  131.5733  149.9137 H   0  0  0  0  0  0  0  0  0  0  0  0
  144.5019  135.4699  150.7004 H   0  0  0  0  0  0  0  0  0  0  0  0
  150.1288  134.0500  156.6690 H   0  0  0  0  0  0  0  0  0  0  0  0
  152.8724  135.0328  155.7581 H   0  0  0  0  0  0  0  0  0  0  0  0
  152.4185  134.6689  157.4197 H   0  0  0  0  0  0  0  0  0  0  0  0
  151.6499  135.9991  156.5791 H   0  0  0  0  0  0  0  0  0  0  0  0
  152.3018  132.4659  155.2131 H   0  0  0  0  0  0  0  0  0  0  0  0
  150.7382  131.8383  155.7296 H   0  0  0  0  0  0  0  0  0  0  0  0
  151.9187  132.3263  156.9252 H   0  0  0  0  0  0  0  0  0  0  0  0
  142.5057  134.0457  149.9992 H   0  0  0  0  0  0  0  0  0  0  0  0
  1  2  1  0  0  0  0
  1 20  1  0  0  0  0
  1 21  1  0  0  0  0
  1 22  1  0  0  0  0
  2  3  2  0  0  0  0
  2  4  1  0  0  0  0
  4  5  1  0  0  0  0
  4 23  1  0  0  0  0
  5  6  1  0  0  0  0
  5 17  1  0  0  0  0
  5 24  1  0  0  0  0
  6  7  2  0  0  0  0
  6  8  1  0  0  0  0
  8  9  1  0  0  0  0
  8 25  1  0  0  0  0
  9 10  1  0  0  0  0
  9 11  1  0  0  0  0
  9 26  1  0  0  0  0
 10 27  1  0  0  0  0
 10 28  1  0  0  0  0
 10 29  1  0  0  0  0
 11 12  1  0  0  0  0
 11 30  1  0  0  0  0
 11 31  1  0  0  0  0
 12 16  1  0  0  0  0
 12 13  1  0  0  0  0
 13 14  2  0  0  0  0
 13 32  1  0  0  0  0
 14 15  1  0  0  0  0
 14 33  1  0  0  0  0
 15 16  2  0  0  0  0
 15 42  1  0  0  0  0
 16 34  1  0  0  0  0
 17 18  1  0  0  0  0
 17 19  1  0  0  0  0
 17 35  1  0  0  0  0
 18 36  1  0  0  0  0
 18 37  1  0  0  0  0
 18 38  1  0  0  0  0
 19 39  1  0  0  0  0
 19 40  1  0  0  0  0
 19 41  1  0  0  0  0
M  CHG  1  15   1
M  END
> <s_m_source_file>
AV-unprocessed.smi

> <i_m_source_file_index>
1648

> <i_lp_mmshare_version>
43012

> <i_f3d_flags>
0

> <s_epik_input>
W0NIM11DKD1PKVtOSF1bQ0BASF0oW0NIXShbQ0gzXSlbQ0gzXSlDKD1PKVtOSF1bQ0BIXShbQ0gzXSlbQ0gyXW4xW2NIXVtjSF1uW2NIXTE=

> <s_epik_cmdline>
J2VwaWtfcHl0aG9uJywgJy1waCcsICc3LjAnLCAnLXRuJywgJzgnLCAnLW1hJywgJzIwMCcsICctbWV0YWxfYmluZGluZycsICctaW1hZScsICc8aW5maWxlLm1hZT4nLCAnLW9tYWUnLCAnPG91dGZpbGUubWFlPic=

> <r_lp_tautomer_probability>
1

> <r_epik_Ionization_Penalty>
0.251562

> <r_epik_Ionization_Penalty_Charging>
0

> <r_epik_Ionization_Penalty_Neutral>
0.251562

> <r_epik_State_Penalty>
0.242926

> <r_epik_Charging_Adjusted_Penalty>
0.242926

> <i_epik_Tot_Q>
1

> <i_epik_Tot_abs_Q>
1

> <r_epik_Metal_State_Penalty>
0.53388

> <b_epik_Metal_Only>
0

> <s_lp_Force_Field>
OPLS_2005

> <r_lp_Energy>
9.98337

> <b_lp_Chiralities_Consistent>
1

> <s_lp_Variant>
AV-unprocessed.smi:1648-1

> <Gold.Version>
5.8.1

> <Gold.Id.Protein>
6NUR|6NUR_protein|mol2

> <Gold.PLP.Fitness>
44.9825

> <Gold.PLP.PLP>
-34.2322

> <Gold.PLP.part.hbond>
-4.0000

> <Gold.PLP.part.metal>
0.0000

> <Gold.PLP.part.buried>
-3.7940

> <Gold.PLP.part.nonpolar>
-26.0025

> <Gold.PLP.part.repulsive>
0.2515

> <Gold.PLP.ligand.clash>
0.0000

> <Gold.PLP.ligand.torsion>
0.6552

> <Gold.PLP.Chemscore.Hbond>
4.0000

> <Gold.PLP.Chemscore.CHOScore>
0.0000

> <Gold.PLP.Chemscore.Metal>
0.0000

> <Gold.Chemscore.Hbonds>
donor molecule, donor type, donor heavy atom, donor atom, acceptor molecule, acceptor atom, score
      L1  H     8    25       P1  7948  0.65
      L1  H    15    42       P1 10186  2.00
      P1  H 10752 10763       L1     3  0.98

> <Gold.PLP.Chemscore.Internal.Correction>
0.0607

> <Gold.Rescore>
     Score         DG    S(hbond)    S(metal)    S(lipo)     H(rot)  DE(clash)    DE(int)     intcor
      9.98     -13.92       2.33        0.00      62.87       2.61       0.33       3.60       ----

> <Gold.Chemscore.Fitness>
9.9828

> <Gold.Chemscore.DG>
-13.9185

> <Gold.Chemscore.ZeroCoef>
-5.4800

> <Gold.Chemscore.Hbond>
2.3274

> <Gold.Chemscore.Metal>
0.0000

> <Gold.Chemscore.Lipo>
62.8683

> <Gold.Chemscore.Internal_Hbond>
0.0000

> <Gold.Chemscore.DEClash>
0.3347

> <Gold.Chemscore.DEInternal>
3.6010

> <Gold.Chemscore.Rot>
2.6135

> <Gold.Chemscore.Internal.Correction>
   9.000000E+99

> <Gold.Chemscore.Hbonds>
donor molecule, donor type, donor heavy atom, donor atom, acceptor molecule, acceptor atom, score
      L1  H     8    25       P1  7948  0.05
      L1  H    15    42       P1 10186  0.98
      P1  H 10752 10763       L1     3  0.89

> <Gold.Chemscore.Hbond.Weighted>
-7.7736

> <Gold.Chemscore.Metal.Weighted>
-0.0000

> <Gold.Chemscore.Lipo.Weighted>
-7.3556

> <Gold.Chemscore.Internal_Hbond.Weighted>
0.0000

> <Gold.Chemscore.DEClash.Weighted>
0.3347

> <Gold.Chemscore.DEInternal.Weighted>
3.6010

> <Gold.Chemscore.Rot.Weighted>
6.6906

> <Gold.Chemscore.Internal.Correction.Weighted>
   9.000000E+99

> <Gold.Protein.RotatedTorsions>
[ 6907 6896 6895 6894 ] final  102.92 input  -60.11 | X-H torsion
[ 7974 7965 7964 7962 ] final -174.43 input  175.53 | X-H torsion
[ 8008 7997 7996 7995 ] final   60.88 input   59.86 | X-H torsion
[ 10167 10162 10161 10158 ] final    6.62 input  -65.29 | X-H torsion
[ 10718 10713 10712 10709 ] final  -19.56 input   66.30 | X-H torsion
[ 10763 10752 10751 10750 ] final   55.56 input  -60.55 | X-H torsion
[ 11005 11000 10999 10996 ] final -147.52 input  -57.11 | X-H torsion

> <Gold.Protein.ActiveResidues>
 VAL166  LYS551  ARG553  GLY616  TRP617  ASP618  TYR619  PRO620  LYS621  CYS622 
 ASP623  PHE694  ASN695  SER759  ASP760  ASP761  ALA762  ILE779  LEU786  VAL792 
 PHE793  MET794  SER795  GLU796  ALA797  LYS798  CYS799  TRP800  GLU811  SER814 

> <Gold.Protein.RotatedAtoms>
  152.5310  133.9903  159.7847 H   0  0  0  0  0  0  0  0  0  0  0  0  # atno 6907 bound_to 6896
  151.0141  133.5930  159.2686 H   0  0  0  0  0  0  0  0  0  0  0  0  # atno 6908 bound_to 6896
  151.2994  135.0771  159.9286 H   0  0  0  0  0  0  0  0  0  0  0  0  # atno 6909 bound_to 6896
  144.7132  140.1473  143.6387 H   0  0  0  0  0  0  0  0  0  0  0  0  # atno 7974 bound_to 7965
  155.5895  140.3492  155.4562 H   0  0  0  0  0  0  0  0  0  0  0  0  # atno 8008 bound_to 7997
  156.0312  140.1275  157.0281 H   0  0  0  0  0  0  0  0  0  0  0  0  # atno 8009 bound_to 7997
  154.4353  140.1043  156.6088 H   0  0  0  0  0  0  0  0  0  0  0  0  # atno 8010 bound_to 7997
  140.6418  143.7757  150.7439 H   0  0  0  0  0  0  0  0  0  0  0  0  # atno 10167 bound_to 10162
  156.5440  130.4685  149.6484 H   0  0  0  0  0  0  0  0  0  0  0  0  # atno 10718 bound_to 10713
  152.9819  135.5706  154.5087 H   0  0  0  0  0  0  0  0  0  0  0  0  # atno 10763 bound_to 10752
  154.4594  135.2781  155.1725 H   0  0  0  0  0  0  0  0  0  0  0  0  # atno 10764 bound_to 10752
  154.3319  135.6247  153.5609 H   0  0  0  0  0  0  0  0  0  0  0  0  # atno 10765 bound_to 10752
  140.7708  134.3191  157.5075 H   0  0  0  0  0  0  0  0  0  0  0  0  # atno 11005 bound_to 11000
  145.9148  139.2509  143.1416 LP  0  0  0  0  0  0  0  0  0  0  0  0  # atno 17320 bound_to 7965
  145.9680  140.8783  143.0177 LP  0  0  0  0  0  0  0  0  0  0  0  0  # atno 17321 bound_to 7965
  140.1390  143.4458  152.2206 LP  0  0  0  0  0  0  0  0  0  0  0  0  # atno 17342 bound_to 10162
  139.5627  144.7416  151.4110 LP  0  0  0  0  0  0  0  0  0  0  0  0  # atno 17343 bound_to 10162
  156.2945  130.7142  151.2000 LP  0  0  0  0  0  0  0  0  0  0  0  0  # atno 17370 bound_to 10713
  157.7400  131.0522  150.5195 LP  0  0  0  0  0  0  0  0  0  0  0  0  # atno 17371 bound_to 10713
  139.8756  134.9260  156.3388 LP  0  0  0  0  0  0  0  0  0  0  0  0  # atno 17394 bound_to 11000
  140.9575  133.7410  156.0356 LP  0  0  0  0  0  0  0  0  0  0  0  0  # atno 17395 bound_to 11000

$$$$
