AV-unprocessed.smi:893|AV-procd|sdf|4069|dock3
  -GOLD-   22720 1553D 1   1.00000     0.00000
 Structure written by MMmdl.
 26 27  0  0  0  0  0  0  0  0  2 V2000
  149.0691  138.7296  157.3420 C   0  0  0  0  0  0  0  0  0  0  0  0
  149.9012  139.8055  158.0580 C   0  0  0  0  0  0  0  0  0  0  0  0
  150.5256  140.8597  157.1110 C   0  0  2  0  0  0  0  0  0  0  0  0
  151.2650  141.9519  157.8644 C   0  0  0  0  0  0  0  0  0  0  0  0
  152.3479  141.8201  158.7840 C   0  0  0  0  0  0  0  0  0  0  0  0
  152.7661  142.9792  159.2656 N   0  0  0  0  0  0  0  0  0  0  0  0
  151.9676  143.8921  158.6780 N   0  0  0  0  0  0  0  0  0  0  0  0
  152.1417  145.2954  158.9853 C   0  0  0  0  0  0  0  0  0  0  0  0
  151.0569  143.3039  157.8282 C   0  0  0  0  0  0  0  0  0  0  0  0
  149.5229  141.3944  156.2111 N   0  0  0  0  0  0  0  0  0  0  0  0
  149.8212  141.1390  154.9385 C   0  0  0  0  0  0  0  0  0  0  0  0
  149.1013  141.5186  154.0178 O   0  0  0  0  0  0  0  0  0  0  0  0
  150.9698  140.4389  154.8623 N   0  5  0  0  0  0  0  0  0  0  0  0
  151.4724  140.2067  156.0948 C   0  0  0  0  0  0  0  0  0  0  0  0
  152.4839  139.5927  156.4343 O   0  0  0  0  0  0  0  0  0  0  0  0
  148.6537  138.0235  158.0611 H   0  0  0  0  0  0  0  0  0  0  0  0
  149.6749  138.1616  156.6358 H   0  0  0  0  0  0  0  0  0  0  0  0
  148.2357  139.1681  156.7929 H   0  0  0  0  0  0  0  0  0  0  0  0
  149.2692  140.3032  158.7952 H   0  0  0  0  0  0  0  0  0  0  0  0
  150.6886  139.3107  158.6293 H   0  0  0  0  0  0  0  0  0  0  0  0
  152.8414  140.9178  159.1144 H   0  0  0  0  0  0  0  0  0  0  0  0
  151.4081  145.8912  158.4415 H   0  0  0  0  0  0  0  0  0  0  0  0
  153.1433  145.6149  158.6965 H   0  0  0  0  0  0  0  0  0  0  0  0
  152.0073  145.4582  160.0551 H   0  0  0  0  0  0  0  0  0  0  0  0
  150.3370  143.8875  157.2732 H   0  0  0  0  0  0  0  0  0  0  0  0
  148.7088  141.9026  156.5232 H   0  0  0  0  0  0  0  0  0  0  0  0
  1  2  1  0  0  0  0
  1 16  1  0  0  0  0
  1 17  1  0  0  0  0
  1 18  1  0  0  0  0
  2  3  1  0  0  0  0
  2 19  1  0  0  0  0
  2 20  1  0  0  0  0
  3 14  1  0  0  0  0
  3  4  1  0  0  0  0
  3 10  1  0  0  0  0
  4  9  2  0  0  0  0
  4  5  1  0  0  0  0
  5  6  2  0  0  0  0
  5 21  1  0  0  0  0
  6  7  1  0  0  0  0
  7  8  1  0  0  0  0
  7  9  1  0  0  0  0
  8 22  1  0  0  0  0
  8 23  1  0  0  0  0
  8 24  1  0  0  0  0
  9 25  1  0  0  0  0
 10 11  1  0  0  0  0
 10 26  1  0  0  0  0
 11 12  2  0  0  0  0
 11 13  1  0  0  0  0
 13 14  1  0  0  0  0
 14 15  2  0  0  0  0
M  CHG  1  13  -1
M  END
> <s_m_source_file>
AV-unprocessed.smi

> <i_m_source_file_index>
893

> <i_lp_mmshare_version>
43012

> <i_f3d_flags>
0

> <s_epik_input>
Tz1DMVtOSF1DKD1PKVtOSF1bQ0BAXTEoW0NIMl1bQ0gzXSljMltjSF1ubihbQ0gzXSlbY0hdMg==

> <s_epik_cmdline>
J2VwaWtfcHl0aG9uJywgJy1waCcsICc3LjAnLCAnLXRuJywgJzgnLCAnLW1hJywgJzIwMCcsICctbWV0YWxfYmluZGluZycsICctaW1hZScsICc8aW5maWxlLm1hZT4nLCAnLW9tYWUnLCAnPG91dGZpbGUubWFlPic=

> <r_lp_tautomer_probability>
1

> <r_epik_Ionization_Penalty>
1.92579

> <r_epik_Ionization_Penalty_Charging>
1.92573

> <r_epik_Ionization_Penalty_Neutral>
5.85665e-05

> <r_epik_State_Penalty>
2.04887

> <r_epik_Charging_Adjusted_Penalty>
3.97461

> <i_epik_Tot_Q>
-1

> <i_epik_Tot_abs_Q>
1

> <r_epik_Metal_State_Penalty>
0.530533

> <b_epik_Metal_Only>
0

> <s_lp_Force_Field>
OPLS_2005

> <r_lp_Energy>
5.94643

> <b_lp_Chiralities_Consistent>
1

> <s_lp_Variant>
AV-unprocessed.smi:893-4

> <Gold.Version>
5.8.1

> <Gold.Id.Protein>
6NUR|6NUR_protein|mol2

> <Gold.PLP.Fitness>
40.3073

> <Gold.PLP.PLP>
-29.3033

> <Gold.PLP.part.hbond>
-3.7067

> <Gold.PLP.part.metal>
0.0000

> <Gold.PLP.part.buried>
-3.9688

> <Gold.PLP.part.nonpolar>
-21.9377

> <Gold.PLP.part.repulsive>
0.3162

> <Gold.PLP.ligand.clash>
0.0000

> <Gold.PLP.ligand.torsion>
0.0926

> <Gold.PLP.Chemscore.Hbond>
2.6880

> <Gold.PLP.Chemscore.CHOScore>
1.0000

> <Gold.PLP.Chemscore.Metal>
0.0000

> <Gold.Chemscore.Hbonds>
donor molecule, donor type, donor heavy atom, donor atom, acceptor molecule, acceptor atom, score
      P1  H  7989  7998       L1    13  1.00
      P1  H  7997  8010       L1    15  1.00
      P1  H  8011  8017       L1    12  0.67
      L1  C     9    25       P1  8028  1.00

> <Gold.PLP.Chemscore.Internal.Correction>
0.1253

> <Gold.Rescore>
     Score         DG    S(hbond)    S(metal)    S(lipo)     H(rot)  DE(clash)    DE(int)     intcor
     15.10     -15.23       2.29        0.00      45.97       1.28       0.05       0.08       ----

> <Gold.Chemscore.Fitness>
15.0984

> <Gold.Chemscore.DG>
-15.2274

> <Gold.Chemscore.ZeroCoef>
-5.4800

> <Gold.Chemscore.Hbond>
2.2896

> <Gold.Chemscore.Metal>
0.0000

> <Gold.Chemscore.Lipo>
45.9685

> <Gold.Chemscore.Internal_Hbond>
0.0000

> <Gold.Chemscore.DEClash>
0.0456

> <Gold.Chemscore.DEInternal>
0.0833

> <Gold.Chemscore.Rot>
1.2805

> <Gold.Chemscore.Internal.Correction>
   9.000000E+99

> <Gold.Chemscore.Hbonds>
donor molecule, donor type, donor heavy atom, donor atom, acceptor molecule, acceptor atom, score
      P1  H  7989  7998       L1    13  0.48
      P1  H  7997  8010       L1    15  1.00
      P1  H  8011  8017       L1    12  0.63

> <Gold.Chemscore.Hbond.Weighted>
-7.6472

> <Gold.Chemscore.Metal.Weighted>
-0.0000

> <Gold.Chemscore.Lipo.Weighted>
-5.3783

> <Gold.Chemscore.Internal_Hbond.Weighted>
0.0000

> <Gold.Chemscore.DEClash.Weighted>
0.0456

> <Gold.Chemscore.DEInternal.Weighted>
0.0833

> <Gold.Chemscore.Rot.Weighted>
3.2782

> <Gold.Chemscore.Internal.Correction.Weighted>
   9.000000E+99

> <Gold.Protein.RotatedTorsions>
[ 6907 6896 6895 6894 ] final -171.54 input  -60.11 | X-H torsion
[ 7974 7965 7964 7962 ] final   66.65 input  175.53 | X-H torsion
[ 8008 7997 7996 7995 ] final   71.61 input   59.86 | X-H torsion
[ 10167 10162 10161 10158 ] final -167.46 input  -65.29 | X-H torsion
[ 10718 10713 10712 10709 ] final -111.64 input   66.30 | X-H torsion
[ 10763 10752 10751 10750 ] final -158.02 input  -60.55 | X-H torsion
[ 11005 11000 10999 10996 ] final   -9.86 input  -57.11 | X-H torsion

> <Gold.Protein.ActiveResidues>
 VAL166  LYS551  ARG553  GLY616  TRP617  ASP618  TYR619  PRO620  LYS621  CYS622 
 ASP623  PHE694  ASN695  SER759  ASP760  ASP761  ALA762  ILE779  LEU786  VAL792 
 PHE793  MET794  SER795  GLU796  ALA797  LYS798  CYS799  TRP800  GLU811  SER814 

> <Gold.Protein.RotatedAtoms>
  151.5255  133.3458  159.2908 H   0  0  0  0  0  0  0  0  0  0  0  0  # atno 6907 bound_to 6896
  150.8626  134.7984  159.7105 H   0  0  0  0  0  0  0  0  0  0  0  0  # atno 6908 bound_to 6896
  152.4641  134.5126  159.9810 H   0  0  0  0  0  0  0  0  0  0  0  0  # atno 6909 bound_to 6896
  145.8240  139.3101  143.1026 H   0  0  0  0  0  0  0  0  0  0  0  0  # atno 7974 bound_to 7965
  155.7565  140.3487  155.5176 H   0  0  0  0  0  0  0  0  0  0  0  0  # atno 8008 bound_to 7997
  155.8955  140.1025  157.1409 H   0  0  0  0  0  0  0  0  0  0  0  0  # atno 8009 bound_to 7997
  154.4038  140.1296  156.4357 H   0  0  0  0  0  0  0  0  0  0  0  0  # atno 8010 bound_to 7997
  139.6048  144.0936  152.1781 H   0  0  0  0  0  0  0  0  0  0  0  0  # atno 10167 bound_to 10162
  156.0659  130.5878  150.8401 H   0  0  0  0  0  0  0  0  0  0  0  0  # atno 10718 bound_to 10713
  154.7590  135.3112  154.8414 H   0  0  0  0  0  0  0  0  0  0  0  0  # atno 10763 bound_to 10752
  153.9180  135.6798  153.4753 H   0  0  0  0  0  0  0  0  0  0  0  0  # atno 10764 bound_to 10752
  153.1189  135.4831  154.9093 H   0  0  0  0  0  0  0  0  0  0  0  0  # atno 10765 bound_to 10752
  140.7387  133.8688  155.8950 H   0  0  0  0  0  0  0  0  0  0  0  0  # atno 11005 bound_to 11000
  145.9643  140.8811  143.0195 LP  0  0  0  0  0  0  0  0  0  0  0  0  # atno 17320 bound_to 7965
  144.6745  140.1857  143.7401 LP  0  0  0  0  0  0  0  0  0  0  0  0  # atno 17321 bound_to 7965
  140.0541  144.5909  150.7313 LP  0  0  0  0  0  0  0  0  0  0  0  0  # atno 17342 bound_to 10162
  140.7276  143.2653  151.4064 LP  0  0  0  0  0  0  0  0  0  0  0  0  # atno 17343 bound_to 10162
  157.5700  131.0946  150.9432 LP  0  0  0  0  0  0  0  0  0  0  0  0  # atno 17370 bound_to 10713
  156.9650  130.5469  149.5287 LP  0  0  0  0  0  0  0  0  0  0  0  0  # atno 17371 bound_to 10713
  140.9856  134.1347  157.4455 LP  0  0  0  0  0  0  0  0  0  0  0  0  # atno 17394 bound_to 11000
  139.8811  135.0024  156.6127 LP  0  0  0  0  0  0  0  0  0  0  0  0  # atno 17395 bound_to 11000

$$$$
