AV-unprocessed.smi:123|AV-procd|sdf|1144|dock6
  -GOLD-   2262018273D 1   1.00000     0.00000
 Structure written by MMmdl.
 43 45  0  0  0  0  0  0  0  0  1 V2000
  149.3072  136.6565  156.5135 C   0  0  0  0  0  0  0  0  0  0  0  0
  149.4711  138.0748  157.0773 C   0  0  1  0  0  0  0  0  0  0  0  0
  150.8470  138.2725  157.5135 N   0  0  0  0  0  0  0  0  0  0  0  0
  151.4101  137.8136  158.6438 C   0  0  0  0  0  0  0  0  0  0  0  0
  150.8150  137.0949  159.4454 O   0  0  0  0  0  0  0  0  0  0  0  0
  152.8646  138.2281  158.9375 C   0  0  0  0  0  0  0  0  0  0  0  0
  153.0091  139.5875  159.5106 N   0  0  0  0  0  0  0  0  0  0  0  0
  153.6904  139.7405  160.7436 C   0  0  0  0  0  0  0  0  0  0  0  0
  154.1358  138.7673  161.3528 O   0  0  0  0  0  0  0  0  0  0  0  0
  153.8339  141.1125  161.2174 C   0  0  0  0  0  0  0  0  0  0  0  0
  154.4461  141.3504  162.3899 F   0  0  0  0  0  0  0  0  0  0  0  0
  153.3682  142.1510  160.4932 C   0  0  0  0  0  0  0  0  0  0  0  0
  152.7324  141.9893  159.2745 N   0  0  0  0  0  0  0  0  0  0  0  0
  152.2418  143.1671  158.4563 C   0  0  2  0  0  0  0  0  0  0  0  0
  152.5879  144.4975  159.1576 C   0  0  0  0  0  0  0  0  0  0  0  0
  151.2439  145.1926  159.2563 C   0  0  0  0  0  0  0  0  0  0  0  0
  150.2785  144.0178  159.2912 C   0  0  0  0  0  0  0  0  0  0  0  0
  150.8476  143.1222  158.3459 O   0  0  0  0  0  0  0  0  0  0  0  0
  152.5157  140.6887  158.7704 C   0  0  0  0  0  0  0  0  0  0  0  0
  151.9287  140.5205  157.6992 O   0  0  0  0  0  0  0  0  0  0  0  0
  149.1022  139.1286  156.0827 C   0  0  0  0  0  0  0  0  0  0  0  0
  148.7031  139.0878  154.7753 C   0  0  0  0  0  0  0  0  0  0  0  0
  148.5022  140.4375  154.3736 C   0  0  0  0  0  0  0  0  0  0  0  0
  148.8013  141.2040  155.4635 C   0  0  0  0  0  0  0  0  0  0  0  0
  149.1723  140.4223  156.5135 O   0  0  0  0  0  0  0  0  0  0  0  0
  148.2783  136.4774  156.2005 H   0  0  0  0  0  0  0  0  0  0  0  0
  149.5592  135.9036  157.2611 H   0  0  0  0  0  0  0  0  0  0  0  0
  149.9513  136.4953  155.6482 H   0  0  0  0  0  0  0  0  0  0  0  0
  148.8043  138.1782  157.9352 H   0  0  0  0  0  0  0  0  0  0  0  0
  151.4196  138.8513  156.9165 H   0  0  0  0  0  0  0  0  0  0  0  0
  153.3013  137.4855  159.6072 H   0  0  0  0  0  0  0  0  0  0  0  0
  153.4402  138.1203  158.0171 H   0  0  0  0  0  0  0  0  0  0  0  0
  153.5085  143.1402  160.9014 H   0  0  0  0  0  0  0  0  0  0  0  0
  152.6966  143.0466  157.4715 H   0  0  0  0  0  0  0  0  0  0  0  0
  152.9921  144.3092  160.1530 H   0  0  0  0  0  0  0  0  0  0  0  0
  153.3196  145.0641  158.5812 H   0  0  0  0  0  0  0  0  0  0  0  0
  151.1610  145.8400  160.1298 H   0  0  0  0  0  0  0  0  0  0  0  0
  151.0667  145.7949  158.3643 H   0  0  0  0  0  0  0  0  0  0  0  0
  150.2572  143.5611  160.2817 H   0  0  0  0  0  0  0  0  0  0  0  0
  149.2613  144.2977  159.0174 H   0  0  0  0  0  0  0  0  0  0  0  0
  148.5682  138.1953  154.1823 H   0  0  0  0  0  0  0  0  0  0  0  0
  148.1811  140.8015  153.4088 H   0  0  0  0  0  0  0  0  0  0  0  0
  148.8018  142.2668  155.6564 H   0  0  0  0  0  0  0  0  0  0  0  0
  1  2  1  0  0  0  0
  1 26  1  0  0  0  0
  1 27  1  0  0  0  0
  1 28  1  0  0  0  0
  2  3  1  0  0  0  0
  2 21  1  0  0  0  0
  2 29  1  0  0  0  0
  3  4  1  0  0  0  0
  3 30  1  0  0  0  0
  4  5  2  0  0  0  0
  4  6  1  0  0  0  0
  6  7  1  0  0  0  0
  6 31  1  0  0  0  0
  6 32  1  0  0  0  0
  7 19  1  0  0  0  0
  7  8  1  0  0  0  0
  8  9  2  0  0  0  0
  8 10  1  0  0  0  0
 10 11  1  0  0  0  0
 10 12  2  0  0  0  0
 12 13  1  0  0  0  0
 12 33  1  0  0  0  0
 13 14  1  0  0  0  0
 13 19  1  0  0  0  0
 14 18  1  0  0  0  0
 14 15  1  0  0  0  0
 14 34  1  0  0  0  0
 15 16  1  0  0  0  0
 15 35  1  0  0  0  0
 15 36  1  0  0  0  0
 16 17  1  0  0  0  0
 16 37  1  0  0  0  0
 16 38  1  0  0  0  0
 17 18  1  0  0  0  0
 17 39  1  0  0  0  0
 17 40  1  0  0  0  0
 19 20  2  0  0  0  0
 21 25  1  0  0  0  0
 21 22  2  0  0  0  0
 22 23  1  0  0  0  0
 22 41  1  0  0  0  0
 23 24  2  0  0  0  0
 23 42  1  0  0  0  0
 24 25  1  0  0  0  0
 24 43  1  0  0  0  0
M  END
> <s_m_source_file>
AV-unprocessed.smi

> <i_m_source_file_index>
123

> <i_lp_mmshare_version>
43012

> <i_f3d_flags>
0

> <s_epik_input>
bzFbY0hdW2NIXVtjSF1jMVtDQEhdKFtDSDNdKVtOSF1DKD1PKVtDSDJdbjJjKD1PKWMoRilbY0hdbihjMj1PKVtDQEBIXTNbQ0gyXVtDSDJdW0NIMl1PMw==

> <s_epik_cmdline>
J2VwaWtfcHl0aG9uJywgJy1waCcsICc3LjAnLCAnLXRuJywgJzgnLCAnLW1hJywgJzIwMCcsICctbWV0YWxfYmluZGluZycsICctaW1hZScsICc8aW5maWxlLm1hZT4nLCAnLW9tYWUnLCAnPG91dGZpbGUubWFlPic=

> <r_lp_tautomer_probability>
1

> <r_epik_Ionization_Penalty>
2.31906e-08

> <r_epik_Ionization_Penalty_Charging>
3.85846e-09

> <r_epik_Ionization_Penalty_Neutral>
1.93321e-08

> <r_epik_State_Penalty>
-0

> <r_epik_Charging_Adjusted_Penalty>
3.85846e-09

> <i_epik_Tot_Q>
0

> <i_epik_Tot_abs_Q>
0

> <r_epik_Metal_State_Penalty>
-0

> <b_epik_Metal_Only>
0

> <s_epik_Chemistry_Notes>
This compound contains an acetal/aminal-like group ( X-CH(R)-Y where X, Y are N, S, or O) that may be acid/base labile, releasing an aldehyde.

> <s_lp_Force_Field>
OPLS_2005

> <r_lp_Energy>
20.7844

> <b_lp_Chiralities_Consistent>
1

> <s_lp_Variant>
AV-unprocessed.smi:123-2

> <Gold.Version>
5.8.1

> <Gold.Id.Protein>
6NUR|6NUR_protein|mol2

> <Gold.PLP.Fitness>
46.2818

> <Gold.PLP.PLP>
-41.4988

> <Gold.PLP.part.hbond>
-1.0000

> <Gold.PLP.part.metal>
0.0000

> <Gold.PLP.part.buried>
-4.0067

> <Gold.PLP.part.nonpolar>
-37.6084

> <Gold.PLP.part.repulsive>
0.1487

> <Gold.PLP.ligand.clash>
0.0000

> <Gold.PLP.ligand.torsion>
0.5881

> <Gold.PLP.Chemscore.Hbond>
0.9750

> <Gold.PLP.Chemscore.CHOScore>
1.0000

> <Gold.PLP.Chemscore.Metal>
0.0000

> <Gold.Chemscore.Hbonds>
donor molecule, donor type, donor heavy atom, donor atom, acceptor molecule, acceptor atom, score
      P1  H  6896  6908       L1     5  0.91
      L1  C    24    43       P1  8028  1.00

> <Gold.PLP.Chemscore.Internal.Correction>
0.0342

> <Gold.Rescore>
     Score         DG    S(hbond)    S(metal)    S(lipo)     H(rot)  DE(clash)    DE(int)     intcor
      7.95     -12.66       0.98        0.00      82.42       2.23       0.03       4.68       ----

> <Gold.Chemscore.Fitness>
7.9548

> <Gold.Chemscore.DG>
-12.6620

> <Gold.Chemscore.ZeroCoef>
-5.4800

> <Gold.Chemscore.Hbond>
0.9761

> <Gold.Chemscore.Metal>
0.0000

> <Gold.Chemscore.Lipo>
82.4153

> <Gold.Chemscore.Internal_Hbond>
0.0000

> <Gold.Chemscore.DEClash>
0.0250

> <Gold.Chemscore.DEInternal>
4.6822

> <Gold.Chemscore.Rot>
2.2347

> <Gold.Chemscore.Internal.Correction>
   9.000000E+99

> <Gold.Chemscore.Hbonds>
donor molecule, donor type, donor heavy atom, donor atom, acceptor molecule, acceptor atom, score
      P1  H  6896  6908       L1     5  0.87

> <Gold.Chemscore.Hbond.Weighted>
-3.2602

> <Gold.Chemscore.Metal.Weighted>
-0.0000

> <Gold.Chemscore.Lipo.Weighted>
-9.6426

> <Gold.Chemscore.Internal_Hbond.Weighted>
0.0000

> <Gold.Chemscore.DEClash.Weighted>
0.0250

> <Gold.Chemscore.DEInternal.Weighted>
4.6822

> <Gold.Chemscore.Rot.Weighted>
5.7208

> <Gold.Chemscore.Internal.Correction.Weighted>
   9.000000E+99

> <Gold.Protein.RotatedTorsions>
[ 6907 6896 6895 6894 ] final -146.39 input  -60.11 | X-H torsion
[ 7974 7965 7964 7962 ] final  -64.98 input  175.53 | X-H torsion
[ 8008 7997 7996 7995 ] final -139.08 input   59.86 | X-H torsion
[ 10167 10162 10161 10158 ] final   65.42 input  -65.29 | X-H torsion
[ 10718 10713 10712 10709 ] final   -4.86 input   66.30 | X-H torsion
[ 10763 10752 10751 10750 ] final  157.22 input  -60.55 | X-H torsion
[ 11005 11000 10999 10996 ] final -135.67 input  -57.11 | X-H torsion

> <Gold.Protein.ActiveResidues>
 VAL166  LYS551  ARG553  GLY616  TRP617  ASP618  TYR619  PRO620  LYS621  CYS622 
 ASP623  PHE694  ASN695  SER759  ASP760  ASP761  ALA762  ILE779  LEU786  VAL792 
 PHE793  MET794  SER795  GLU796  ALA797  LYS798  CYS799  TRP800  GLU811  SER814 

> <Gold.Protein.RotatedAtoms>
  151.1410  133.4971  159.2596 H   0  0  0  0  0  0  0  0  0  0  0  0  # atno 6907 bound_to 6896
  151.1655  135.0293  159.8739 H   0  0  0  0  0  0  0  0  0  0  0  0  # atno 6908 bound_to 6896
  152.5462  134.1279  159.8480 H   0  0  0  0  0  0  0  0  0  0  0  0  # atno 6909 bound_to 6896
  145.7599  140.8866  143.0435 H   0  0  0  0  0  0  0  0  0  0  0  0  # atno 7974 bound_to 7965
  155.4389  140.0530  157.3012 H   0  0  0  0  0  0  0  0  0  0  0  0  # atno 8008 bound_to 7997
  154.4827  140.2088  155.9684 H   0  0  0  0  0  0  0  0  0  0  0  0  # atno 8009 bound_to 7997
  156.1229  140.3185  155.8239 H   0  0  0  0  0  0  0  0  0  0  0  0  # atno 8010 bound_to 7997
  140.1114  144.4814  150.6975 H   0  0  0  0  0  0  0  0  0  0  0  0  # atno 10167 bound_to 10162
  156.7551  130.5252  149.5796 H   0  0  0  0  0  0  0  0  0  0  0  0  # atno 10718 bound_to 10713
  154.1967  135.2792  155.3004 H   0  0  0  0  0  0  0  0  0  0  0  0  # atno 10763 bound_to 10752
  154.5886  135.5567  153.7259 H   0  0  0  0  0  0  0  0  0  0  0  0  # atno 10764 bound_to 10752
  153.0098  135.6362  154.2106 H   0  0  0  0  0  0  0  0  0  0  0  0  # atno 10765 bound_to 10752
  140.8876  134.1852  157.4549 H   0  0  0  0  0  0  0  0  0  0  0  0  # atno 11005 bound_to 11000
  144.6832  139.9709  143.7482 LP  0  0  0  0  0  0  0  0  0  0  0  0  # atno 17320 bound_to 7965
  146.0274  139.3304  143.0776 LP  0  0  0  0  0  0  0  0  0  0  0  0  # atno 17321 bound_to 7965
  140.6923  143.2383  151.5096 LP  0  0  0  0  0  0  0  0  0  0  0  0  # atno 17342 bound_to 10162
  139.5617  144.2140  152.1701 LP  0  0  0  0  0  0  0  0  0  0  0  0  # atno 17343 bound_to 10162
  156.1376  130.6222  151.0421 LP  0  0  0  0  0  0  0  0  0  0  0  0  # atno 17370 bound_to 10713
  157.6760  131.0850  150.7494 LP  0  0  0  0  0  0  0  0  0  0  0  0  # atno 17371 bound_to 10713
  139.8726  134.9845  156.5240 LP  0  0  0  0  0  0  0  0  0  0  0  0  # atno 17394 bound_to 11000
  140.8386  133.8223  155.9052 LP  0  0  0  0  0  0  0  0  0  0  0  0  # atno 17395 bound_to 11000

$$$$
