AV-unprocessed.smi:148|AV-procd|sdf|1233|dock9
  -GOLD-   2262018443D 1   1.00000     0.00000
 Structure written by MMmdl.
 63 67  0  0  0  0  0  0  0  0  1 V2000
  144.1807  134.1459  159.9375 O   0  0  0  0  0  0  0  0  0  0  0  0
  145.3344  133.3408  159.8134 C   0  0  0  0  0  0  0  0  0  0  0  0
  146.5976  134.2018  159.5682 C   0  0  1  0  0  0  0  0  0  0  0  0
  146.5451  134.9338  158.2015 C   0  0  0  0  0  0  0  0  0  0  0  0
  146.5030  134.0271  157.0672 N   0  0  0  0  0  0  0  0  0  0  0  0
  145.5513  133.0629  156.8206 C   0  0  0  0  0  0  0  0  0  0  0  0
  145.7362  132.3628  155.7341 N   0  0  0  0  0  0  0  0  0  0  0  0
  146.9060  132.8830  155.1954 C   0  0  0  0  0  0  0  0  0  0  0  0
  147.6786  132.5855  154.0426 C   0  0  0  0  0  0  0  0  0  0  0  0
  147.3261  131.6056  153.1781 N   0  0  0  0  0  0  0  0  0  0  0  0
  147.5345  130.2999  153.8044 C   0  0  0  0  0  0  0  0  0  0  0  0
  147.3611  129.1588  152.7952 C   0  0  0  0  0  0  0  0  0  0  0  0
  145.9861  129.2501  152.1283 C   0  0  0  0  0  0  0  0  0  0  0  0
  145.8167  130.6236  151.4666 C   0  0  0  0  0  0  0  0  0  0  0  0
  146.0447  131.7868  152.4687 C   0  0  2  0  0  0  0  0  0  0  0  0
  145.9199  133.1971  151.8084 C   0  0  1  0  0  0  0  0  0  0  0  0
  145.6283  134.3709  152.7643 C   0  0  0  0  0  0  0  0  0  0  0  0
  146.2449  135.6214  152.1160 C   0  0  0  0  0  0  0  0  0  0  0  0
  146.8445  135.1631  150.7829 C   0  0  0  0  0  0  0  0  0  0  0  0
  147.1252  133.6746  150.9850 C   0  0  2  0  0  0  0  0  0  0  0  0
  147.2331  132.9976  149.7501 O   0  0  0  0  0  0  0  0  0  0  0  0
  148.7955  133.3266  153.8147 N   0  0  0  0  0  0  0  0  0  0  0  0
  149.1428  134.2893  154.6744 C   0  0  0  0  0  0  0  0  0  0  0  0
  148.5267  134.6698  155.7963 N   0  0  0  0  0  0  0  0  0  0  0  0
  147.4016  133.9312  156.0191 C   0  0  0  0  0  0  0  0  0  0  0  0
  146.8848  135.1460  160.7708 C   0  0  1  0  0  0  0  0  0  0  0  0
  146.9747  134.4999  162.1416 C   0  0  0  0  0  0  0  0  0  0  0  0
  147.5879  135.6272  162.9664 C   0  0  0  0  0  0  0  0  0  0  0  0
  148.4543  136.3269  162.0773 O   0  0  0  0  0  0  0  0  0  0  0  0
  148.1910  135.9456  160.7290 C   0  0  0  0  0  0  0  0  0  0  0  0
  143.9322  134.1768  160.8490 H   0  0  0  0  0  0  0  0  0  0  0  0
  145.4170  132.7670  160.7358 H   0  0  0  0  0  0  0  0  0  0  0  0
  145.1901  132.6222  159.0062 H   0  0  0  0  0  0  0  0  0  0  0  0
  147.4399  133.5102  159.5118 H   0  0  0  0  0  0  0  0  0  0  0  0
  145.6750  135.5867  158.1439 H   0  0  0  0  0  0  0  0  0  0  0  0
  147.4185  135.5694  158.0654 H   0  0  0  0  0  0  0  0  0  0  0  0
  144.7099  132.8946  157.4770 H   0  0  0  0  0  0  0  0  0  0  0  0
  148.5351  130.2498  154.2373 H   0  0  0  0  0  0  0  0  0  0  0  0
  146.8265  130.1751  154.6255 H   0  0  0  0  0  0  0  0  0  0  0  0
  148.1447  129.2131  152.0384 H   0  0  0  0  0  0  0  0  0  0  0  0
  147.4739  128.1965  153.2949 H   0  0  0  0  0  0  0  0  0  0  0  0
  145.8736  128.4588  151.3865 H   0  0  0  0  0  0  0  0  0  0  0  0
  145.2026  129.0976  152.8717 H   0  0  0  0  0  0  0  0  0  0  0  0
  146.5122  130.6945  150.6310 H   0  0  0  0  0  0  0  0  0  0  0  0
  144.8157  130.6720  151.0410 H   0  0  0  0  0  0  0  0  0  0  0  0
  145.2571  131.7110  153.2199 H   0  0  0  0  0  0  0  0  0  0  0  0
  145.0875  133.1714  151.1034 H   0  0  0  0  0  0  0  0  0  0  0  0
  144.5554  134.4917  152.9156 H   0  0  0  0  0  0  0  0  0  0  0  0
  146.0694  134.2173  153.7482 H   0  0  0  0  0  0  0  0  0  0  0  0
  145.5099  136.4139  151.9727 H   0  0  0  0  0  0  0  0  0  0  0  0
  147.0308  136.0176  152.7601 H   0  0  0  0  0  0  0  0  0  0  0  0
  146.1066  135.3007  149.9908 H   0  0  0  0  0  0  0  0  0  0  0  0
  147.7362  135.7269  150.5064 H   0  0  0  0  0  0  0  0  0  0  0  0
  148.0568  133.5708  151.5391 H   0  0  0  0  0  0  0  0  0  0  0  0
  147.7610  132.2241  149.8769 H   0  0  0  0  0  0  0  0  0  0  0  0
  150.0435  134.8321  154.4287 H   0  0  0  0  0  0  0  0  0  0  0  0
  146.0691  135.8682  160.8327 H   0  0  0  0  0  0  0  0  0  0  0  0
  146.0088  134.1710  162.5257 H   0  0  0  0  0  0  0  0  0  0  0  0
  147.6534  133.6483  162.1457 H   0  0  0  0  0  0  0  0  0  0  0  0
  146.8126  136.3140  163.3084 H   0  0  0  0  0  0  0  0  0  0  0  0
  148.1255  135.2607  163.8412 H   0  0  0  0  0  0  0  0  0  0  0  0
  149.0285  135.3401  160.3855 H   0  0  0  0  0  0  0  0  0  0  0  0
  148.1210  136.8200  160.0815 H   0  0  0  0  0  0  0  0  0  0  0  0
  1  2  1  0  0  0  0
  1 31  1  0  0  0  0
  2  3  1  0  0  0  0
  2 32  1  0  0  0  0
  2 33  1  0  0  0  0
  3  4  1  0  0  0  0
  3 26  1  0  0  0  0
  3 34  1  0  0  0  0
  4  5  1  0  0  0  0
  4 35  1  0  0  0  0
  4 36  1  0  0  0  0
  5 25  1  0  0  0  0
  5  6  1  0  0  0  0
  6  7  2  0  0  0  0
  6 37  1  0  0  0  0
  7  8  1  0  0  0  0
  8 25  2  0  0  0  0
  8  9  1  0  0  0  0
  9 10  1  0  0  0  0
  9 22  2  0  0  0  0
 10 15  1  0  0  0  0
 10 11  1  0  0  0  0
 11 12  1  0  0  0  0
 11 38  1  0  0  0  0
 11 39  1  0  0  0  0
 12 13  1  0  0  0  0
 12 40  1  0  0  0  0
 12 41  1  0  0  0  0
 13 14  1  0  0  0  0
 13 42  1  0  0  0  0
 13 43  1  0  0  0  0
 14 15  1  0  0  0  0
 14 44  1  0  0  0  0
 14 45  1  0  0  0  0
 15 16  1  0  0  0  0
 15 46  1  0  0  0  0
 16 20  1  0  0  0  0
 16 17  1  0  0  0  0
 16 47  1  0  0  0  0
 17 18  1  0  0  0  0
 17 48  1  0  0  0  0
 17 49  1  0  0  0  0
 18 19  1  0  0  0  0
 18 50  1  0  0  0  0
 18 51  1  0  0  0  0
 19 20  1  0  0  0  0
 19 52  1  0  0  0  0
 19 53  1  0  0  0  0
 20 21  1  0  0  0  0
 20 54  1  0  0  0  0
 21 55  1  0  0  0  0
 22 23  1  0  0  0  0
 23 24  2  0  0  0  0
 23 56  1  0  0  0  0
 24 25  1  0  0  0  0
 26 30  1  0  0  0  0
 26 27  1  0  0  0  0
 26 57  1  0  0  0  0
 27 28  1  0  0  0  0
 27 58  1  0  0  0  0
 27 59  1  0  0  0  0
 28 29  1  0  0  0  0
 28 60  1  0  0  0  0
 28 61  1  0  0  0  0
 29 30  1  0  0  0  0
 30 62  1  0  0  0  0
 30 63  1  0  0  0  0
M  END
> <s_m_source_file>
AV-unprocessed.smi

> <i_m_source_file_index>
148

> <i_lp_mmshare_version>
43012

> <i_f3d_flags>
0

> <s_epik_input>
W0NIMl0xT1tDSDJdW0NIMl1bQ0BIXTFbQ0BIXShbQ0gyXVtPSF0pW0NIMl1uKFtjSF1uMiljKGMyMyluW2NIXW5jM040W0NIMl1bQ0gyXVtDSDJdW0NIMl1bQ0BIXTRbQ0BASF01W0NIMl1bQ0gyXVtDSDJdW0NASF01W09IXQ==

> <s_epik_cmdline>
J2VwaWtfcHl0aG9uJywgJy1waCcsICc3LjAnLCAnLXRuJywgJzgnLCAnLW1hJywgJzIwMCcsICctbWV0YWxfYmluZGluZycsICctaW1hZScsICc8aW5maWxlLm1hZT4nLCAnLW9tYWUnLCAnPG91dGZpbGUubWFlPic=

> <r_lp_tautomer_probability>
1

> <r_epik_Ionization_Penalty>
0.00556303

> <r_epik_Ionization_Penalty_Charging>
0

> <r_epik_Ionization_Penalty_Neutral>
0.00556303

> <r_epik_State_Penalty>
0.00401767

> <r_epik_Charging_Adjusted_Penalty>
0.00401767

> <i_epik_Tot_Q>
0

> <i_epik_Tot_abs_Q>
0

> <r_epik_Metal_State_Penalty>
-0

> <b_epik_Metal_Only>
0

> <s_lp_Force_Field>
OPLS_2005

> <r_lp_Energy>
68.5512

> <b_lp_Chiralities_Consistent>
1

> <s_lp_Variant>
AV-unprocessed.smi:148-32

> <Gold.Version>
5.8.1

> <Gold.Id.Protein>
6NUR|6NUR_protein|mol2

> <Gold.PLP.Fitness>
47.8070

> <Gold.PLP.PLP>
-39.8595

> <Gold.PLP.part.hbond>
-2.0000

> <Gold.PLP.part.metal>
0.0000

> <Gold.PLP.part.buried>
-5.8231

> <Gold.PLP.part.nonpolar>
-31.8741

> <Gold.PLP.part.repulsive>
0.4499

> <Gold.PLP.ligand.clash>
0.0000

> <Gold.PLP.ligand.torsion>
0.4548

> <Gold.PLP.Chemscore.Hbond>
2.0000

> <Gold.PLP.Chemscore.CHOScore>
0.8027

> <Gold.PLP.Chemscore.Metal>
0.0000

> <Gold.Chemscore.Hbonds>
donor molecule, donor type, donor heavy atom, donor atom, acceptor molecule, acceptor atom, score
      L1  H    21    55       P1 10747  1.00
      P1  H  6931  6943       L1    29  1.00

> <Gold.PLP.Chemscore.Internal.Correction>
0.4489

> <Gold.Rescore>
     Score         DG    S(hbond)    S(metal)    S(lipo)     H(rot)  DE(clash)    DE(int)     intcor
     13.70     -14.72       1.96        0.00      95.75       3.32       0.02       1.00       ----

> <Gold.Chemscore.Fitness>
13.7042

> <Gold.Chemscore.DG>
-14.7208

> <Gold.Chemscore.ZeroCoef>
-5.4800

> <Gold.Chemscore.Hbond>
1.9575

> <Gold.Chemscore.Metal>
0.0000

> <Gold.Chemscore.Lipo>
95.7494

> <Gold.Chemscore.Internal_Hbond>
0.0000

> <Gold.Chemscore.DEClash>
0.0211

> <Gold.Chemscore.DEInternal>
0.9955

> <Gold.Chemscore.Rot>
3.3203

> <Gold.Chemscore.Internal.Correction>
   9.000000E+99

> <Gold.Chemscore.Hbonds>
donor molecule, donor type, donor heavy atom, donor atom, acceptor molecule, acceptor atom, score
      L1  H    21    55       P1 10747  1.00
      P1  H  6931  6943       L1    29  0.43

> <Gold.Chemscore.Hbond.Weighted>
-6.5381

> <Gold.Chemscore.Metal.Weighted>
-0.0000

> <Gold.Chemscore.Lipo.Weighted>
-11.2027

> <Gold.Chemscore.Internal_Hbond.Weighted>
0.0000

> <Gold.Chemscore.DEClash.Weighted>
0.0211

> <Gold.Chemscore.DEInternal.Weighted>
0.9955

> <Gold.Chemscore.Rot.Weighted>
8.5000

> <Gold.Chemscore.Internal.Correction.Weighted>
   9.000000E+99

> <Gold.Protein.RotatedTorsions>
[ 6907 6896 6895 6894 ] final  -40.26 input  -60.11 | X-H torsion
[ 7974 7965 7964 7962 ] final   22.96 input  175.53 | X-H torsion
[ 8008 7997 7996 7995 ] final  127.71 input   59.86 | X-H torsion
[ 10167 10162 10161 10158 ] final   18.46 input  -65.29 | X-H torsion
[ 10718 10713 10712 10709 ] final   23.03 input   66.30 | X-H torsion
[ 10763 10752 10751 10750 ] final   47.49 input  -60.55 | X-H torsion
[ 11005 11000 10999 10996 ] final   51.20 input  -57.11 | X-H torsion

> <Gold.Protein.ActiveResidues>
 VAL166  LYS551  ARG553  GLY616  TRP617  ASP618  TYR619  PRO620  LYS621  CYS622 
 ASP623  PHE694  ASN695  SER759  ASP760  ASP761  ALA762  ILE779  LEU786  VAL792 
 PHE793  MET794  SER795  GLU796  ALA797  LYS798  CYS799  TRP800  GLU811  SER814 

> <Gold.Protein.RotatedAtoms>
  150.9805  134.9161  159.7841 H   0  0  0  0  0  0  0  0  0  0  0  0  # atno 6907 bound_to 6896
  152.5220  134.3416  159.9229 H   0  0  0  0  0  0  0  0  0  0  0  0  # atno 6908 bound_to 6896
  151.3424  133.3916  159.2707 H   0  0  0  0  0  0  0  0  0  0  0  0  # atno 6909 bound_to 6896
  146.2006  139.7812  142.8764 H   0  0  0  0  0  0  0  0  0  0  0  0  # atno 7974 bound_to 7965
  156.2897  140.2662  156.2318 H   0  0  0  0  0  0  0  0  0  0  0  0  # atno 8008 bound_to 7997
  155.0065  140.0387  157.2400 H   0  0  0  0  0  0  0  0  0  0  0  0  # atno 8009 bound_to 7997
  154.7556  140.2751  155.6261 H   0  0  0  0  0  0  0  0  0  0  0  0  # atno 8010 bound_to 7997
  140.5651  143.9265  150.6671 H   0  0  0  0  0  0  0  0  0  0  0  0  # atno 10167 bound_to 10162
  157.1605  130.6715  149.6042 H   0  0  0  0  0  0  0  0  0  0  0  0  # atno 10718 bound_to 10713
  152.9799  135.5975  154.3770 H   0  0  0  0  0  0  0  0  0  0  0  0  # atno 10763 bound_to 10752
  154.3439  135.2767  155.2410 H   0  0  0  0  0  0  0  0  0  0  0  0  # atno 10764 bound_to 10752
  154.4479  135.5997  153.6227 H   0  0  0  0  0  0  0  0  0  0  0  0  # atno 10765 bound_to 10752
  140.0952  134.5155  155.8814 H   0  0  0  0  0  0  0  0  0  0  0  0  # atno 11005 bound_to 11000
  145.3497  141.0305  143.3345 LP  0  0  0  0  0  0  0  0  0  0  0  0  # atno 17320 bound_to 7965
  144.8675  139.5087  143.6783 LP  0  0  0  0  0  0  0  0  0  0  0  0  # atno 17321 bound_to 7965
  140.2726  143.3445  152.1224 LP  0  0  0  0  0  0  0  0  0  0  0  0  # atno 17342 bound_to 10162
  139.5089  144.6858  151.5891 LP  0  0  0  0  0  0  0  0  0  0  0  0  # atno 17343 bound_to 10162
  155.9754  130.4713  150.6461 LP  0  0  0  0  0  0  0  0  0  0  0  0  # atno 17370 bound_to 10713
  157.4137  131.0827  151.1197 LP  0  0  0  0  0  0  0  0  0  0  0  0  # atno 17371 bound_to 10713
  141.2090  133.6679  156.6408 LP  0  0  0  0  0  0  0  0  0  0  0  0  # atno 17394 bound_to 11000
  140.3296  134.7940  157.4316 LP  0  0  0  0  0  0  0  0  0  0  0  0  # atno 17395 bound_to 11000

$$$$
