AV-unprocessed.smi:3208|AV-procd|sdf|12265|dock10
  -GOLD-   2272018103D 1   1.00000     0.00000
 Structure written by MMmdl.
 29 29  0  0  0  0  0  0  0  0  2 V2000
  147.0066  142.0063  154.2833 C   0  0  0  0  0  0  0  0  0  0  0  0
  148.2701  141.5712  154.1653 C   0  0  0  0  0  0  0  0  0  0  0  0
  148.8215  140.3424  154.8536 C   0  0  0  0  0  0  0  0  0  0  0  0
  150.2387  140.3117  154.7452 O   0  0  0  0  0  0  0  0  0  0  0  0
  150.9186  139.6636  155.8186 C   0  0  1  0  0  0  0  0  0  0  0  0
  152.2491  139.1336  155.2670 C   0  0  0  0  0  0  0  0  0  0  0  0
  151.1708  140.6478  156.9817 C   0  0  0  0  0  0  0  0  0  0  0  0
  150.4345  141.6226  157.1309 O   0  0  0  0  0  0  0  0  0  0  0  0
  152.3157  140.4022  157.7236 N   0  0  0  0  0  0  0  0  0  0  0  0
  152.6027  141.1533  158.7513 C   0  0  0  0  0  0  0  0  0  0  0  0
  151.8307  142.2749  159.1103 N   0  0  0  0  0  0  0  0  0  0  0  0
  152.1235  143.0691  160.1982 C   0  0  0  0  0  0  0  0  0  0  0  0
  153.1773  142.8225  160.9786 C   0  0  0  0  0  0  0  0  0  0  0  0
  154.0305  141.6931  160.6683 C   0  0  0  0  0  0  0  0  0  0  0  0
  153.7827  140.8488  159.5794 C   0  0  0  0  0  0  0  0  0  0  0  0
  154.5455  139.8825  159.3481 O   0  5  0  0  0  0  0  0  0  0  0  0
  146.2883  141.4845  154.8988 H   0  0  0  0  0  0  0  0  0  0  0  0
  146.6745  142.8932  153.7639 H   0  0  0  0  0  0  0  0  0  0  0  0
  148.9616  142.1187  153.5417 H   0  0  0  0  0  0  0  0  0  0  0  0
  148.5080  140.3412  155.8982 H   0  0  0  0  0  0  0  0  0  0  0  0
  148.3900  139.4602  154.3792 H   0  0  0  0  0  0  0  0  0  0  0  0
  150.3265  138.8096  156.1515 H   0  0  0  0  0  0  0  0  0  0  0  0
  152.8129  138.6025  156.0347 H   0  0  0  0  0  0  0  0  0  0  0  0
  152.8756  139.9427  154.8896 H   0  0  0  0  0  0  0  0  0  0  0  0
  152.0774  138.4377  154.4456 H   0  0  0  0  0  0  0  0  0  0  0  0
  151.4393  143.8892  160.3581 H   0  0  0  0  0  0  0  0  0  0  0  0
  153.3924  143.4548  161.8273 H   0  0  0  0  0  0  0  0  0  0  0  0
  154.8835  141.5071  161.3050 H   0  0  0  0  0  0  0  0  0  0  0  0
  151.0207  142.5404  158.5712 H   0  0  0  0  0  0  0  0  0  0  0  0
  1  2  2  0  0  0  0
  1 17  1  0  0  0  0
  1 18  1  0  0  0  0
  2  3  1  0  0  0  0
  2 19  1  0  0  0  0
  3  4  1  0  0  0  0
  3 20  1  0  0  0  0
  3 21  1  0  0  0  0
  4  5  1  0  0  0  0
  5  6  1  0  0  0  0
  5  7  1  0  0  0  0
  5 22  1  0  0  0  0
  6 23  1  0  0  0  0
  6 24  1  0  0  0  0
  6 25  1  0  0  0  0
  7  8  2  0  0  0  0
  7  9  1  0  0  0  0
  9 10  2  0  0  0  0
 10 15  1  0  0  0  0
 10 11  1  0  0  0  0
 11 29  1  0  0  0  0
 11 12  1  0  0  0  0
 12 26  1  0  0  0  0
 12 13  2  0  0  0  0
 13 27  1  0  0  0  0
 13 14  1  0  0  0  0
 14 15  2  0  0  0  0
 14 28  1  0  0  0  0
 15 16  1  0  0  0  0
M  CHG  1  16  -1
M  END
> <s_m_source_file>
AV-unprocessed.smi

> <i_m_source_file_index>
3208

> <i_lp_mmshare_version>
43012

> <i_f3d_flags>
0

> <s_epik_input>
W0NIMl09W0NIXVtDSDJdT1tDQEhdKFtDSDNdKUMoPU8pW05IXWMxbltjSF1bY0hdW2NIXWMxW09IXQ==

> <s_epik_cmdline>
J2VwaWtfcHl0aG9uJywgJy1waCcsICc3LjAnLCAnLXRuJywgJzgnLCAnLW1hJywgJzIwMCcsICctbWV0YWxfYmluZGluZycsICctaW1hZScsICc8aW5maWxlLm1hZT4nLCAnLW9tYWUnLCAnPG91dGZpbGUubWFlPic=

> <r_epik_Ionization_Penalty>
0.613767

> <r_epik_Ionization_Penalty_Charging>
0.613767

> <r_epik_Ionization_Penalty_Neutral>
1.14324e-13

> <r_epik_State_Penalty>
1.22258

> <r_epik_Charging_Adjusted_Penalty>
1.83635

> <i_epik_Tot_Q>
-1

> <i_epik_Tot_abs_Q>
1

> <r_epik_Metal_State_Penalty>
1.18528

> <b_epik_Metal_Only>
0

> <s_lp_Force_Field>
OPLS_2005

> <r_lp_Energy>
40.4661

> <b_lp_Chiralities_Consistent>
1

> <s_lp_Variant>
AV-unprocessed.smi:3208-6

> <Gold.Version>
5.8.1

> <Gold.Id.Protein>
6NUR|6NUR_protein|mol2

> <Gold.PLP.Fitness>
41.9245

> <Gold.PLP.PLP>
-35.4592

> <Gold.PLP.part.hbond>
-2.5750

> <Gold.PLP.part.metal>
0.0000

> <Gold.PLP.part.buried>
-3.1027

> <Gold.PLP.part.nonpolar>
-29.3681

> <Gold.PLP.part.repulsive>
0.2537

> <Gold.PLP.ligand.clash>
0.0000

> <Gold.PLP.ligand.torsion>
1.2805

> <Gold.PLP.Chemscore.Hbond>
2.9920

> <Gold.PLP.Chemscore.CHOScore>
0.0000

> <Gold.PLP.Chemscore.Metal>
0.0000

> <Gold.Chemscore.Hbonds>
donor molecule, donor type, donor heavy atom, donor atom, acceptor molecule, acceptor atom, score
      P1  H  7989  7998       L1     4  1.00
      P1  H  7997  8009       L1    16  1.72

> <Gold.PLP.Chemscore.Internal.Correction>
0.0502

> <Gold.Rescore>
     Score         DG    S(hbond)    S(metal)    S(lipo)     H(rot)  DE(clash)    DE(int)     intcor
     13.69     -15.12       1.38        0.00      79.29       1.65       0.02       1.42       ----

> <Gold.Chemscore.Fitness>
13.6857

> <Gold.Chemscore.DG>
-15.1235

> <Gold.Chemscore.ZeroCoef>
-5.4800

> <Gold.Chemscore.Hbond>
1.3768

> <Gold.Chemscore.Metal>
0.0000

> <Gold.Chemscore.Lipo>
79.2945

> <Gold.Chemscore.Internal_Hbond>
0.0000

> <Gold.Chemscore.DEClash>
0.0163

> <Gold.Chemscore.DEInternal>
1.4215

> <Gold.Chemscore.Rot>
1.6533

> <Gold.Chemscore.Internal.Correction>
   9.000000E+99

> <Gold.Chemscore.Hbonds>
donor molecule, donor type, donor heavy atom, donor atom, acceptor molecule, acceptor atom, score
      P1  H  7989  7998       L1     4  0.53
      P1  H  7997  8009       L1    16  0.45

> <Gold.Chemscore.Hbond.Weighted>
-4.5985

> <Gold.Chemscore.Metal.Weighted>
-0.0000

> <Gold.Chemscore.Lipo.Weighted>
-9.2775

> <Gold.Chemscore.Internal_Hbond.Weighted>
0.0000

> <Gold.Chemscore.DEClash.Weighted>
0.0163

> <Gold.Chemscore.DEInternal.Weighted>
1.4215

> <Gold.Chemscore.Rot.Weighted>
4.2324

> <Gold.Chemscore.Internal.Correction.Weighted>
   9.000000E+99

> <Gold.Protein.RotatedTorsions>
[ 6907 6896 6895 6894 ] final  -19.47 input  -60.11 | X-H torsion
[ 7974 7965 7964 7962 ] final  -62.69 input  175.53 | X-H torsion
[ 8008 7997 7996 7995 ] final  123.04 input   59.86 | X-H torsion
[ 10167 10162 10161 10158 ] final -178.31 input  -65.29 | X-H torsion
[ 10718 10713 10712 10709 ] final  -14.19 input   66.30 | X-H torsion
[ 10763 10752 10751 10750 ] final -154.71 input  -60.55 | X-H torsion
[ 11005 11000 10999 10996 ] final   19.88 input  -57.11 | X-H torsion

> <Gold.Protein.ActiveResidues>
 VAL166  LYS551  ARG553  GLY616  TRP617  ASP618  TYR619  PRO620  LYS621  CYS622 
 ASP623  PHE694  ASN695  SER759  ASP760  ASP761  ALA762  ILE779  LEU786  VAL792 
 PHE793  MET794  SER795  GLU796  ALA797  LYS798  CYS799  TRP800  GLU811  SER814 

> <Gold.Protein.RotatedAtoms>
  151.2626  135.0659  159.9103 H   0  0  0  0  0  0  0  0  0  0  0  0  # atno 6907 bound_to 6896
  152.5363  134.0215  159.7994 H   0  0  0  0  0  0  0  0  0  0  0  0  # atno 6908 bound_to 6896
  151.0440  133.5631  159.2679 H   0  0  0  0  0  0  0  0  0  0  0  0  # atno 6909 bound_to 6896
  145.7882  140.8724  143.0294 H   0  0  0  0  0  0  0  0  0  0  0  0  # atno 7974 bound_to 7965
  156.2751  140.2772  156.1564 H   0  0  0  0  0  0  0  0  0  0  0  0  # atno 8008 bound_to 7997
  155.0799  140.0387  157.2653 H   0  0  0  0  0  0  0  0  0  0  0  0  # atno 8009 bound_to 7997
  154.6972  140.2641  155.6760 H   0  0  0  0  0  0  0  0  0  0  0  0  # atno 8010 bound_to 7997
  139.5438  144.2290  152.0948 H   0  0  0  0  0  0  0  0  0  0  0  0  # atno 10167 bound_to 10162
  156.6195  130.4871  149.6170 H   0  0  0  0  0  0  0  0  0  0  0  0  # atno 10718 bound_to 10713
  154.7839  135.3184  154.7929 H   0  0  0  0  0  0  0  0  0  0  0  0  # atno 10763 bound_to 10752
  153.8633  135.6851  153.4785 H   0  0  0  0  0  0  0  0  0  0  0  0  # atno 10764 bound_to 10752
  153.1484  135.4709  154.9539 H   0  0  0  0  0  0  0  0  0  0  0  0  # atno 10765 bound_to 10752
  140.4088  134.1640  155.7666 H   0  0  0  0  0  0  0  0  0  0  0  0  # atno 11005 bound_to 11000
  144.6786  140.0086  143.7484 LP  0  0  0  0  0  0  0  0  0  0  0  0  # atno 17320 bound_to 7965
  146.0004  139.3086  143.0931 LP  0  0  0  0  0  0  0  0  0  0  0  0  # atno 17321 bound_to 7965
  140.1773  144.4878  150.6547 LP  0  0  0  0  0  0  0  0  0  0  0  0  # atno 17342 bound_to 10162
  140.6679  143.2274  151.5698 LP  0  0  0  0  0  0  0  0  0  0  0  0  # atno 17343 bound_to 10162
  156.2323  130.6802  151.1475 LP  0  0  0  0  0  0  0  0  0  0  0  0  # atno 17370 bound_to 10713
  157.7231  131.0668  150.6049 LP  0  0  0  0  0  0  0  0  0  0  0  0  # atno 17371 bound_to 10713
  141.1829  133.8375  157.1193 LP  0  0  0  0  0  0  0  0  0  0  0  0  # atno 17394 bound_to 11000
  140.0283  134.9913  157.0729 LP  0  0  0  0  0  0  0  0  0  0  0  0  # atno 17395 bound_to 11000

$$$$
