AV-unprocessed.smi:79|AV-procd|sdf|783|dock2
  -GOLD-   2262017143D 1   1.00000     0.00000
 Structure written by MMmdl.
 56 59  0  0  0  0  0  0  0  0  2 V2000
  142.2483  139.9508  157.0965 C   0  0  0  0  0  0  0  0  0  0  0  0
  143.1410  140.3090  155.8990 C   0  0  2  0  0  0  0  0  0  0  0  0
  142.3496  140.2699  154.7306 O   0  0  0  0  0  0  0  0  0  0  0  0
  144.3257  139.3388  155.7162 C   0  0  0  0  0  0  0  0  0  0  0  0
  145.3807  139.8801  154.8217 N   0  3  1  0  0  0  0  0  0  0  0  0
  146.0366  141.0866  155.3879 C   0  0  0  0  0  0  0  0  0  0  0  0
  147.0425  141.6903  154.3934 C   0  0  0  0  0  0  0  0  0  0  0  0
  148.0012  140.6792  153.9538 N   0  0  0  0  0  0  0  0  0  0  0  0
  149.1407  140.6042  154.6904 C   0  0  0  0  0  0  0  0  0  0  0  0
  150.2145  139.9167  154.2177 N   0  0  0  0  0  0  0  0  0  0  0  0
  151.3343  139.8305  154.9416 C   0  0  0  0  0  0  0  0  0  0  0  0
  151.5916  140.3478  156.1439 N   0  0  0  0  0  0  0  0  0  0  0  0
  150.5206  141.0424  156.6232 C   0  0  0  0  0  0  0  0  0  0  0  0
  149.2693  141.2183  155.9679 C   0  0  0  0  0  0  0  0  0  0  0  0
  148.4279  141.9932  156.7570 N   0  0  0  0  0  0  0  0  0  0  0  0
  149.1383  142.2548  157.8202 C   0  0  0  0  0  0  0  0  0  0  0  0
  150.4047  141.7143  157.8281 N   0  0  0  0  0  0  0  0  0  0  0  0
  151.4039  141.8487  158.8772 C   0  0  0  0  0  0  0  0  0  0  0  0
  151.8424  143.3021  159.1372 C   0  0  0  0  0  0  0  0  0  0  0  0
  152.2257  143.9479  157.7902 C   0  0  0  0  0  0  0  0  0  0  0  0
  151.0989  144.4023  157.0674 O   0  0  0  0  0  0  0  0  0  0  0  0
  150.8960  144.1127  160.0343 C   0  0  0  0  0  0  0  0  0  0  0  0
  151.9645  144.4761  160.9362 O   0  0  0  0  0  0  0  0  0  0  0  0
  152.8311  143.5161  160.2925 C   0  0  0  0  0  0  0  0  0  0  0  0
  147.4166  139.4477  153.4125 C   0  0  2  0  0  0  0  0  0  0  0  0
  146.8187  139.6784  152.0140 C   0  0  0  0  0  0  0  0  0  0  0  0
  146.3738  138.8585  154.3903 C   0  0  0  0  0  0  0  0  0  0  0  0
  142.8029  140.0063  158.0336 H   0  0  0  0  0  0  0  0  0  0  0  0
  141.8464  138.9408  157.0070 H   0  0  0  0  0  0  0  0  0  0  0  0
  141.4057  140.6387  157.1766 H   0  0  0  0  0  0  0  0  0  0  0  0
  143.4953  141.3339  156.0046 H   0  0  0  0  0  0  0  0  0  0  0  0
  142.8642  140.5821  154.0016 H   0  0  0  0  0  0  0  0  0  0  0  0
  144.7531  139.1305  156.6985 H   0  0  0  0  0  0  0  0  0  0  0  0
  143.9816  138.3796  155.3254 H   0  0  0  0  0  0  0  0  0  0  0  0
  145.2855  141.8368  155.6375 H   0  0  0  0  0  0  0  0  0  0  0  0
  146.5424  140.8202  156.3176 H   0  0  0  0  0  0  0  0  0  0  0  0
  146.5183  142.0815  153.5213 H   0  0  0  0  0  0  0  0  0  0  0  0
  147.5379  142.5448  154.8538 H   0  0  0  0  0  0  0  0  0  0  0  0
  152.1393  139.2664  154.4941 H   0  0  0  0  0  0  0  0  0  0  0  0
  148.7539  142.8555  158.6315 H   0  0  0  0  0  0  0  0  0  0  0  0
  151.0109  141.3974  159.7893 H   0  0  0  0  0  0  0  0  0  0  0  0
  152.2609  141.2363  158.5937 H   0  0  0  0  0  0  0  0  0  0  0  0
  152.8794  144.8074  157.9370 H   0  0  0  0  0  0  0  0  0  0  0  0
  152.7677  143.2408  157.1613 H   0  0  0  0  0  0  0  0  0  0  0  0
  151.2318  145.3103  156.8424 H   0  0  0  0  0  0  0  0  0  0  0  0
  150.4433  144.9779  159.5490 H   0  0  0  0  0  0  0  0  0  0  0  0
  150.1347  143.5117  160.5339 H   0  0  0  0  0  0  0  0  0  0  0  0
  152.9845  142.6366  160.9185 H   0  0  0  0  0  0  0  0  0  0  0  0
  153.7857  143.9482  159.9903 H   0  0  0  0  0  0  0  0  0  0  0  0
  148.2087  138.7096  153.2780 H   0  0  0  0  0  0  0  0  0  0  0  0
  146.4600  138.7418  151.5862 H   0  0  0  0  0  0  0  0  0  0  0  0
  147.5678  140.0821  151.3323 H   0  0  0  0  0  0  0  0  0  0  0  0
  145.9786  140.3726  152.0343 H   0  0  0  0  0  0  0  0  0  0  0  0
  146.8763  138.4652  155.2749 H   0  0  0  0  0  0  0  0  0  0  0  0
  145.8779  138.0106  153.9198 H   0  0  0  0  0  0  0  0  0  0  0  0
  144.9080  140.1930  153.9859 H   0  0  0  0  0  0  0  0  0  0  0  0
  1  2  1  0  0  0  0
  1 28  1  0  0  0  0
  1 29  1  0  0  0  0
  1 30  1  0  0  0  0
  2  3  1  0  0  0  0
  2  4  1  0  0  0  0
  2 31  1  0  0  0  0
  3 32  1  0  0  0  0
  4  5  1  0  0  0  0
  4 33  1  0  0  0  0
  4 34  1  0  0  0  0
  5 27  1  0  0  0  0
  5  6  1  0  0  0  0
  5 56  1  0  0  0  0
  6  7  1  0  0  0  0
  6 35  1  0  0  0  0
  6 36  1  0  0  0  0
  7  8  1  0  0  0  0
  7 37  1  0  0  0  0
  7 38  1  0  0  0  0
  8  9  1  0  0  0  0
  8 25  1  0  0  0  0
  9 14  1  0  0  0  0
  9 10  2  0  0  0  0
 10 11  1  0  0  0  0
 11 12  2  0  0  0  0
 11 39  1  0  0  0  0
 12 13  1  0  0  0  0
 13 17  1  0  0  0  0
 13 14  2  0  0  0  0
 14 15  1  0  0  0  0
 15 16  2  0  0  0  0
 16 17  1  0  0  0  0
 16 40  1  0  0  0  0
 17 18  1  0  0  0  0
 18 19  1  0  0  0  0
 18 41  1  0  0  0  0
 18 42  1  0  0  0  0
 19 24  1  0  0  0  0
 19 20  1  0  0  0  0
 19 22  1  0  0  0  0
 20 21  1  0  0  0  0
 20 43  1  0  0  0  0
 20 44  1  0  0  0  0
 21 45  1  0  0  0  0
 22 23  1  0  0  0  0
 22 46  1  0  0  0  0
 22 47  1  0  0  0  0
 23 24  1  0  0  0  0
 24 48  1  0  0  0  0
 24 49  1  0  0  0  0
 25 26  1  0  0  0  0
 25 27  1  0  0  0  0
 25 50  1  0  0  0  0
 26 51  1  0  0  0  0
 26 52  1  0  0  0  0
 26 53  1  0  0  0  0
 27 54  1  0  0  0  0
 27 55  1  0  0  0  0
M  CHG  1   5   1
M  END
> <s_m_source_file>
AV-unprocessed.smi

> <i_m_source_file_index>
79

> <i_lp_mmshare_version>
43012

> <i_f3d_flags>
0

> <s_epik_input>
W0NIM11bQ0BIXShbT0hdKVtDSDJdTjFbQ0gyXVtDSDJdTihbQ0BASF0oW0NIM10pW0NIMl0xKWMobltjSF1uMiljKGMyMyluW2NIXW4zW0NIMl1DNChbQ0gyXVtPSF0pW0NIMl1PW0NIMl00

> <s_epik_cmdline>
J2VwaWtfcHl0aG9uJywgJy1waCcsICc3LjAnLCAnLXRuJywgJzgnLCAnLW1hJywgJzIwMCcsICctbWV0YWxfYmluZGluZycsICctaW1hZScsICc8aW5maWxlLm1hZT4nLCAnLW9tYWUnLCAnPG91dGZpbGUubWFlPic=

> <r_lp_tautomer_probability>
1

> <r_epik_Ionization_Penalty>
0.00515943

> <r_epik_Ionization_Penalty_Charging>
0.00509693

> <r_epik_Ionization_Penalty_Neutral>
6.25007e-05

> <r_epik_State_Penalty>
-0

> <r_epik_Charging_Adjusted_Penalty>
0.00509693

> <i_epik_Tot_Q>
1

> <i_epik_Tot_abs_Q>
1

> <r_epik_Metal_State_Penalty>
-0

> <b_epik_Metal_Only>
0

> <s_lp_Force_Field>
OPLS_2005

> <r_lp_Energy>
51.2807

> <b_lp_Chiralities_Consistent>
1

> <s_lp_Variant>
AV-unprocessed.smi:79-7

> <Gold.Version>
5.8.1

> <Gold.Id.Protein>
6NUR|6NUR_protein|mol2

> <Gold.PLP.Fitness>
47.8309

> <Gold.PLP.PLP>
-39.7565

> <Gold.PLP.part.hbond>
-4.0000

> <Gold.PLP.part.metal>
0.0000

> <Gold.PLP.part.buried>
-2.6571

> <Gold.PLP.part.nonpolar>
-34.5640

> <Gold.PLP.part.repulsive>
1.5932

> <Gold.PLP.ligand.clash>
0.0000

> <Gold.PLP.ligand.torsion>
0.9267

> <Gold.PLP.Chemscore.Hbond>
3.0000

> <Gold.PLP.Chemscore.CHOScore>
0.0000

> <Gold.PLP.Chemscore.Metal>
0.0000

> <Gold.Chemscore.Hbonds>
donor molecule, donor type, donor heavy atom, donor atom, acceptor molecule, acceptor atom, score
      L1  H     3    32       P1 10175  1.00
      L1  H     5    56       P1 10175  2.00

> <Gold.PLP.Chemscore.Internal.Correction>
0.9278

> <Gold.Rescore>
     Score         DG    S(hbond)    S(metal)    S(lipo)     H(rot)  DE(clash)    DE(int)     intcor
      8.44     -12.64       1.99        0.00      85.77       3.72       1.37       2.83       ----

> <Gold.Chemscore.Fitness>
8.4428

> <Gold.Chemscore.DG>
-12.6420

> <Gold.Chemscore.ZeroCoef>
-5.4800

> <Gold.Chemscore.Hbond>
1.9930

> <Gold.Chemscore.Metal>
0.0000

> <Gold.Chemscore.Lipo>
85.7718

> <Gold.Chemscore.Internal_Hbond>
0.0000

> <Gold.Chemscore.DEClash>
1.3671

> <Gold.Chemscore.DEInternal>
2.8322

> <Gold.Chemscore.Rot>
3.7226

> <Gold.Chemscore.Internal.Correction>
   9.000000E+99

> <Gold.Chemscore.Hbonds>
donor molecule, donor type, donor heavy atom, donor atom, acceptor molecule, acceptor atom, score
      L1  H     3    32       P1 10175  0.81
      L1  H     5    56       P1 10175  0.99

> <Gold.Chemscore.Hbond.Weighted>
-6.6565

> <Gold.Chemscore.Metal.Weighted>
-0.0000

> <Gold.Chemscore.Lipo.Weighted>
-10.0353

> <Gold.Chemscore.Internal_Hbond.Weighted>
0.0000

> <Gold.Chemscore.DEClash.Weighted>
1.3671

> <Gold.Chemscore.DEInternal.Weighted>
2.8322

> <Gold.Chemscore.Rot.Weighted>
9.5298

> <Gold.Chemscore.Internal.Correction.Weighted>
   9.000000E+99

> <Gold.Protein.RotatedTorsions>
[ 6907 6896 6895 6894 ] final  -58.39 input  -60.11 | X-H torsion
[ 7974 7965 7964 7962 ] final  -14.39 input  175.53 | X-H torsion
[ 8008 7997 7996 7995 ] final  108.92 input   59.86 | X-H torsion
[ 10167 10162 10161 10158 ] final -165.39 input  -65.29 | X-H torsion
[ 10718 10713 10712 10709 ] final   -6.53 input   66.30 | X-H torsion
[ 10763 10752 10751 10750 ] final   -8.95 input  -60.55 | X-H torsion
[ 11005 11000 10999 10996 ] final  -69.37 input  -57.11 | X-H torsion

> <Gold.Protein.ActiveResidues>
 VAL166  LYS551  ARG553  GLY616  TRP617  ASP618  TYR619  PRO620  LYS621  CYS622 
 ASP623  PHE694  ASN695  SER759  ASP760  ASP761  ALA762  ILE779  LEU786  VAL792 
 PHE793  MET794  SER795  GLU796  ALA797  LYS798  CYS799  TRP800  GLU811  SER814 

> <Gold.Protein.RotatedAtoms>
  150.8011  134.7105  159.6600 H   0  0  0  0  0  0  0  0  0  0  0  0  # atno 6907 bound_to 6896
  152.4128  134.6092  160.0031 H   0  0  0  0  0  0  0  0  0  0  0  0  # atno 6908 bound_to 6896
  151.6330  133.3294  159.3149 H   0  0  0  0  0  0  0  0  0  0  0  0  # atno 6909 bound_to 6896
  146.2076  140.3342  142.8402 H   0  0  0  0  0  0  0  0  0  0  0  0  # atno 7974 bound_to 7965
  156.1940  140.3067  155.9389 H   0  0  0  0  0  0  0  0  0  0  0  0  # atno 8008 bound_to 7997
  155.3109  140.0451  157.3052 H   0  0  0  0  0  0  0  0  0  0  0  0  # atno 8009 bound_to 7997
  154.5486  140.2284  155.8531 H   0  0  0  0  0  0  0  0  0  0  0  0  # atno 8010 bound_to 7997
  139.6185  144.0671  152.1911 H   0  0  0  0  0  0  0  0  0  0  0  0  # atno 10167 bound_to 10162
  156.7305  130.5178  149.5846 H   0  0  0  0  0  0  0  0  0  0  0  0  # atno 10718 bound_to 10713
  153.4478  135.7014  153.6128 H   0  0  0  0  0  0  0  0  0  0  0  0  # atno 10763 bound_to 10752
  153.4475  135.3766  155.2265 H   0  0  0  0  0  0  0  0  0  0  0  0  # atno 10764 bound_to 10752
  154.8728  135.3989  154.3886 H   0  0  0  0  0  0  0  0  0  0  0  0  # atno 10765 bound_to 10752
  141.1552  133.6763  156.6590 H   0  0  0  0  0  0  0  0  0  0  0  0  # atno 11005 bound_to 11000
  144.8831  140.7426  143.5974 LP  0  0  0  0  0  0  0  0  0  0  0  0  # atno 17320 bound_to 7965
  145.3262  139.1773  143.4561 LP  0  0  0  0  0  0  0  0  0  0  0  0  # atno 17321 bound_to 7965
  140.0307  144.6083  150.7490 LP  0  0  0  0  0  0  0  0  0  0  0  0  # atno 17342 bound_to 10162
  140.7367  143.2756  151.3752 LP  0  0  0  0  0  0  0  0  0  0  0  0  # atno 17343 bound_to 10162
  156.1532  130.6324  151.0623 LP  0  0  0  0  0  0  0  0  0  0  0  0  # atno 17370 bound_to 10713
  157.6861  131.0824  150.7239 LP  0  0  0  0  0  0  0  0  0  0  0  0  # atno 17371 bound_to 10713
  140.3262  134.7967  157.4291 LP  0  0  0  0  0  0  0  0  0  0  0  0  # atno 17394 bound_to 11000
  140.1055  134.5415  155.8313 LP  0  0  0  0  0  0  0  0  0  0  0  0  # atno 17395 bound_to 11000

$$$$
