AV-unprocessed.smi:814|AV-procd|sdf|3823|dock3
  -GOLD-   22720 1263D 1   1.00000     0.00000
 Structure written by MMmdl.
 36 37  0  0  0  0  0  0  0  0  1 V2000
  151.1531  138.5114  154.9623 C   0  0  0  0  0  0  0  0  0  0  0  0
  150.1330  139.4633  155.3581 N   0  0  0  0  0  0  0  0  0  0  0  0
  149.6132  140.4776  154.5646 C   0  0  0  0  0  0  0  0  0  0  0  0
  148.6861  141.1415  155.3311 C   0  0  0  0  0  0  0  0  0  0  0  0
  148.6219  140.5531  156.5894 N   0  0  0  0  0  0  0  0  0  0  0  0
  149.4999  139.5555  156.5436 C   0  0  0  0  0  0  0  0  0  0  0  0
  149.7854  138.6484  157.7005 C   0  0  0  0  0  0  0  0  0  0  0  0
  151.1906  138.8694  158.2829 C   0  0  0  0  0  0  0  0  0  0  0  0
  151.4567  140.2824  158.5253 N   0  0  0  0  0  0  0  0  0  0  0  0
  152.6652  140.8057  158.7838 C   0  0  0  0  0  0  0  0  0  0  0  0
  153.6943  140.1314  158.8362 O   0  0  0  0  0  0  0  0  0  0  0  0
  152.7196  142.3206  159.0230 C   0  0  2  0  0  0  0  0  0  0  0  0
  152.3212  142.6752  160.4745 C   0  0  0  0  0  0  0  0  0  0  0  0
  152.1193  144.1683  160.6643 C   0  0  0  0  0  0  0  0  0  0  0  0
  151.9633  145.0289  159.6437 C   0  0  0  0  0  0  0  0  0  0  0  0
  151.9657  144.6057  158.1853 C   0  0  0  0  0  0  0  0  0  0  0  0
  151.8289  143.0804  158.0192 C   0  0  0  0  0  0  0  0  0  0  0  0
  151.5572  138.7782  153.9853 H   0  0  0  0  0  0  0  0  0  0  0  0
  150.7215  137.5118  154.9050 H   0  0  0  0  0  0  0  0  0  0  0  0
  151.9648  138.5125  155.6898 H   0  0  0  0  0  0  0  0  0  0  0  0
  149.9393  140.6415  153.5481 H   0  0  0  0  0  0  0  0  0  0  0  0
  148.0675  141.9898  155.0775 H   0  0  0  0  0  0  0  0  0  0  0  0
  149.0311  138.8274  158.4678 H   0  0  0  0  0  0  0  0  0  0  0  0
  149.6616  137.6102  157.3915 H   0  0  0  0  0  0  0  0  0  0  0  0
  151.2867  138.3407  159.2315 H   0  0  0  0  0  0  0  0  0  0  0  0
  151.9497  138.4530  157.6182 H   0  0  0  0  0  0  0  0  0  0  0  0
  150.6639  140.9075  158.5037 H   0  0  0  0  0  0  0  0  0  0  0  0
  153.7478  142.6528  158.8668 H   0  0  0  0  0  0  0  0  0  0  0  0
  151.3985  142.1726  160.7687 H   0  0  0  0  0  0  0  0  0  0  0  0
  153.0982  142.3394  161.1622 H   0  0  0  0  0  0  0  0  0  0  0  0
  152.0912  144.5311  161.6813 H   0  0  0  0  0  0  0  0  0  0  0  0
  151.8376  146.0826  159.8449 H   0  0  0  0  0  0  0  0  0  0  0  0
  151.1526  145.1102  157.6626 H   0  0  0  0  0  0  0  0  0  0  0  0
  152.8964  144.9523  157.7352 H   0  0  0  0  0  0  0  0  0  0  0  0
  152.0760  142.8011  156.9938 H   0  0  0  0  0  0  0  0  0  0  0  0
  150.7859  142.7976  158.1710 H   0  0  0  0  0  0  0  0  0  0  0  0
  1  2  1  0  0  0  0
  1 18  1  0  0  0  0
  1 19  1  0  0  0  0
  1 20  1  0  0  0  0
  2  6  1  0  0  0  0
  2  3  1  0  0  0  0
  3  4  2  0  0  0  0
  3 21  1  0  0  0  0
  4  5  1  0  0  0  0
  4 22  1  0  0  0  0
  5  6  2  0  0  0  0
  6  7  1  0  0  0  0
  7  8  1  0  0  0  0
  7 23  1  0  0  0  0
  7 24  1  0  0  0  0
  8  9  1  0  0  0  0
  8 25  1  0  0  0  0
  8 26  1  0  0  0  0
  9 10  1  0  0  0  0
  9 27  1  0  0  0  0
 10 11  2  0  0  0  0
 10 12  1  0  0  0  0
 12 17  1  0  0  0  0
 12 13  1  0  0  0  0
 12 28  1  0  0  0  0
 13 14  1  0  0  0  0
 13 29  1  0  0  0  0
 13 30  1  0  0  0  0
 14 15  2  0  0  0  0
 14 31  1  0  0  0  0
 15 16  1  0  0  0  0
 15 32  1  0  0  0  0
 16 17  1  0  0  0  0
 16 33  1  0  0  0  0
 16 34  1  0  0  0  0
 17 35  1  0  0  0  0
 17 36  1  0  0  0  0
M  END
> <s_m_source_file>
AV-unprocessed.smi

> <i_m_source_file_index>
814

> <i_lp_mmshare_version>
43012

> <i_f3d_flags>
0

> <s_epik_input>
W0NIM11uMVtjSF1bY0hdbmMxW0NIMl1bQ0gyXVtOSF1DKD1PKVtDQEBIXTJbQ0gyXVtDSF09W0NIXVtDSDJdW0NIMl0y

> <s_epik_cmdline>
J2VwaWtfcHl0aG9uJywgJy1waCcsICc3LjAnLCAnLXRuJywgJzgnLCAnLW1hJywgJzIwMCcsICctbWV0YWxfYmluZGluZycsICctaW1hZScsICc8aW5maWxlLm1hZT4nLCAnLW9tYWUnLCAnPG91dGZpbGUubWFlPic=

> <r_lp_tautomer_probability>
1

> <r_epik_Ionization_Penalty>
1.21249

> <r_epik_Ionization_Penalty_Charging>
1.21249

> <r_epik_Ionization_Penalty_Neutral>
1.60917e-08

> <r_epik_State_Penalty>
1.27906

> <r_epik_Charging_Adjusted_Penalty>
2.49154

> <i_epik_Tot_Q>
0

> <i_epik_Tot_abs_Q>
0

> <r_epik_Metal_State_Penalty>
0.409603

> <b_epik_Metal_Only>
0

> <s_lp_Force_Field>
OPLS_2005

> <r_lp_Energy>
6.39824

> <b_lp_Chiralities_Consistent>
1

> <s_lp_Variant>
AV-unprocessed.smi:814-3

> <Gold.Version>
5.8.1

> <Gold.Id.Protein>
6NUR|6NUR_protein|mol2

> <Gold.PLP.Fitness>
43.6881

> <Gold.PLP.PLP>
-36.6881

> <Gold.PLP.part.hbond>
-1.0000

> <Gold.PLP.part.metal>
0.0000

> <Gold.PLP.part.buried>
-2.6589

> <Gold.PLP.part.nonpolar>
-32.8811

> <Gold.PLP.part.repulsive>
0.1934

> <Gold.PLP.ligand.clash>
0.0000

> <Gold.PLP.ligand.torsion>
0.7222

> <Gold.PLP.Chemscore.Hbond>
1.0000

> <Gold.PLP.Chemscore.CHOScore>
1.8068

> <Gold.PLP.Chemscore.Metal>
0.0000

> <Gold.Chemscore.Hbonds>
donor molecule, donor type, donor heavy atom, donor atom, acceptor molecule, acceptor atom, score
      P1  H  7997  8010       L1    11  0.98
      L1  C     3    21       P1  7957  1.00
      L1  C     4    22       P1  8028  0.09

> <Gold.PLP.Chemscore.Internal.Correction>
0.0240

> <Gold.Rescore>
     Score         DG    S(hbond)    S(metal)    S(lipo)     H(rot)  DE(clash)    DE(int)     intcor
     15.74     -16.22       0.97        0.00      98.61       1.58       0.10       0.38       ----

> <Gold.Chemscore.Fitness>
15.7373

> <Gold.Chemscore.DG>
-16.2225

> <Gold.Chemscore.ZeroCoef>
-5.4800

> <Gold.Chemscore.Hbond>
0.9736

> <Gold.Chemscore.Metal>
0.0000

> <Gold.Chemscore.Lipo>
98.6139

> <Gold.Chemscore.Internal_Hbond>
0.0000

> <Gold.Chemscore.DEClash>
0.1019

> <Gold.Chemscore.DEInternal>
0.3833

> <Gold.Chemscore.Rot>
1.5809

> <Gold.Chemscore.Internal.Correction>
   9.000000E+99

> <Gold.Chemscore.Hbonds>
donor molecule, donor type, donor heavy atom, donor atom, acceptor molecule, acceptor atom, score
      P1  H  7997  8010       L1    11  0.85

> <Gold.Chemscore.Hbond.Weighted>
-3.2519

> <Gold.Chemscore.Metal.Weighted>
-0.0000

> <Gold.Chemscore.Lipo.Weighted>
-11.5378

> <Gold.Chemscore.Internal_Hbond.Weighted>
0.0000

> <Gold.Chemscore.DEClash.Weighted>
0.1019

> <Gold.Chemscore.DEInternal.Weighted>
0.3833

> <Gold.Chemscore.Rot.Weighted>
4.0472

> <Gold.Chemscore.Internal.Correction.Weighted>
   9.000000E+99

> <Gold.Protein.RotatedTorsions>
[ 6907 6896 6895 6894 ] final   -0.72 input  -60.11 | X-H torsion
[ 7974 7965 7964 7962 ] final  -24.42 input  175.53 | X-H torsion
[ 8008 7997 7996 7995 ] final   23.01 input   59.86 | X-H torsion
[ 10167 10162 10161 10158 ] final  151.65 input  -65.29 | X-H torsion
[ 10718 10713 10712 10709 ] final   76.63 input   66.30 | X-H torsion
[ 10763 10752 10751 10750 ] final -168.49 input  -60.55 | X-H torsion
[ 11005 11000 10999 10996 ] final  -71.93 input  -57.11 | X-H torsion

> <Gold.Protein.ActiveResidues>
 VAL166  LYS551  ARG553  GLY616  TRP617  ASP618  TYR619  PRO620  LYS621  CYS622 
 ASP623  PHE694  ASN695  SER759  ASP760  ASP761  ALA762  ILE779  LEU786  VAL792 
 PHE793  MET794  SER795  GLU796  ALA797  LYS798  CYS799  TRP800  GLU811  SER814 

> <Gold.Protein.RotatedAtoms>
  151.5576  135.1066  159.9964 H   0  0  0  0  0  0  0  0  0  0  0  0  # atno 6907 bound_to 6896
  152.4462  133.7536  159.6718 H   0  0  0  0  0  0  0  0  0  0  0  0  # atno 6908 bound_to 6896
  150.8378  133.7918  159.3097 H   0  0  0  0  0  0  0  0  0  0  0  0  # atno 6909 bound_to 6896
  146.1556  140.4749  142.8593 H   0  0  0  0  0  0  0  0  0  0  0  0  # atno 7974 bound_to 7965
  154.9744  140.3094  155.4973 H   0  0  0  0  0  0  0  0  0  0  0  0  # atno 8008 bound_to 7997
  156.2961  140.2278  156.4779 H   0  0  0  0  0  0  0  0  0  0  0  0  # atno 8009 bound_to 7997
  154.7846  140.0443  157.1142 H   0  0  0  0  0  0  0  0  0  0  0  0  # atno 8010 bound_to 7997
  139.4839  144.5423  151.7543 H   0  0  0  0  0  0  0  0  0  0  0  0  # atno 10167 bound_to 10162
  157.6680  130.9783  150.1524 H   0  0  0  0  0  0  0  0  0  0  0  0  # atno 10718 bound_to 10713
  154.6623  135.2926  154.9851 H   0  0  0  0  0  0  0  0  0  0  0  0  # atno 10763 bound_to 10752
  154.0906  135.6591  153.4856 H   0  0  0  0  0  0  0  0  0  0  0  0  # atno 10764 bound_to 10752
  153.0437  135.5219  154.7579 H   0  0  0  0  0  0  0  0  0  0  0  0  # atno 10765 bound_to 10752
  141.1600  133.6832  156.6981 H   0  0  0  0  0  0  0  0  0  0  0  0  # atno 11005 bound_to 11000
  144.7959  140.6121  143.6510 LP  0  0  0  0  0  0  0  0  0  0  0  0  # atno 17320 bound_to 7965
  145.4717  139.1503  143.3810 LP  0  0  0  0  0  0  0  0  0  0  0  0  # atno 17321 bound_to 7965
  140.4965  144.1233  150.5961 LP  0  0  0  0  0  0  0  0  0  0  0  0  # atno 17342 bound_to 10162
  140.4112  143.2656  151.9831 LP  0  0  0  0  0  0  0  0  0  0  0  0  # atno 17343 bound_to 10162
  156.2320  130.3683  149.8434 LP  0  0  0  0  0  0  0  0  0  0  0  0  # atno 17370 bound_to 10713
  156.6258  130.8645  151.3485 LP  0  0  0  0  0  0  0  0  0  0  0  0  # atno 17371 bound_to 10713
  140.2980  134.8187  157.4073 LP  0  0  0  0  0  0  0  0  0  0  0  0  # atno 17394 bound_to 11000
  140.1287  134.5123  155.8123 LP  0  0  0  0  0  0  0  0  0  0  0  0  # atno 17395 bound_to 11000

$$$$
