AV-unprocessed.smi:1433|AV-procd|sdf|5838|dock6
  -GOLD-   22720 5503D 1   1.00000     0.00000
 Structure written by MMmdl.
 44 45  0  0  0  0  0  0  0  0  1 V2000
  154.4124  141.3239  160.5682 C   0  0  0  0  0  0  0  0  0  0  0  0
  153.4764  141.7609  159.4366 C   0  0  1  0  0  0  0  0  0  0  0  0
  152.1815  140.9274  159.3997 C   0  0  0  0  0  0  0  0  0  0  0  0
  151.2390  141.3784  158.3700 N   0  0  0  0  0  0  0  0  0  0  0  0
  149.9833  140.5917  158.3593 C   0  0  1  0  0  0  0  0  0  0  0  0
  148.9316  141.1585  157.3718 C   0  0  0  0  0  0  0  0  0  0  0  0
  150.2033  139.0807  158.0517 C   0  0  0  0  0  0  0  0  0  0  0  0
  149.0748  138.2335  158.4280 N   0  0  0  0  0  0  0  0  0  0  0  0
  149.1682  137.0740  159.0973 C   0  0  0  0  0  0  0  0  0  0  0  0
  150.2363  136.5904  159.4727 O   0  0  0  0  0  0  0  0  0  0  0  0
  147.8558  136.3463  159.3895 C   0  0  0  0  0  0  0  0  0  0  0  0
  147.6964  136.1094  160.8128 N   0  0  0  0  0  0  0  0  0  0  0  0
  147.6066  134.9028  161.4754 C   0  0  0  0  0  0  0  0  0  0  0  0
  147.4625  135.1786  162.8050 C   0  0  0  0  0  0  0  0  0  0  0  0
  147.4720  136.6007  162.8579 C   0  0  0  0  0  0  0  0  0  0  0  0
  147.6126  137.1552  161.6643 N   0  0  0  0  0  0  0  0  0  0  0  0
  150.9995  142.8115  158.5743 C   0  0  0  0  0  0  0  0  0  0  0  0
  152.2975  143.6406  158.6147 C   0  0  1  0  0  0  0  0  0  0  0  0
  152.0309  145.1199  158.9130 C   0  0  0  0  0  0  0  0  0  0  0  0
  153.1457  143.1292  159.6346 O   0  0  0  0  0  0  0  0  0  0  0  0
  154.7067  140.2806  160.4525 H   0  0  0  0  0  0  0  0  0  0  0  0
  153.9326  141.4306  161.5414 H   0  0  0  0  0  0  0  0  0  0  0  0
  155.3209  141.9264  160.5768 H   0  0  0  0  0  0  0  0  0  0  0  0
  154.0045  141.6576  158.4871 H   0  0  0  0  0  0  0  0  0  0  0  0
  152.4791  139.8963  159.2210 H   0  0  0  0  0  0  0  0  0  0  0  0
  151.6995  140.9551  160.3782 H   0  0  0  0  0  0  0  0  0  0  0  0
  149.5453  140.6550  159.3566 H   0  0  0  0  0  0  0  0  0  0  0  0
  148.0282  140.5513  157.3315 H   0  0  0  0  0  0  0  0  0  0  0  0
  149.3326  141.2163  156.3596 H   0  0  0  0  0  0  0  0  0  0  0  0
  148.5893  142.1520  157.6575 H   0  0  0  0  0  0  0  0  0  0  0  0
  150.3904  138.9425  156.9863 H   0  0  0  0  0  0  0  0  0  0  0  0
  151.0733  138.6814  158.5718 H   0  0  0  0  0  0  0  0  0  0  0  0
  148.1558  138.5509  158.1549 H   0  0  0  0  0  0  0  0  0  0  0  0
  147.0181  136.9499  159.0383 H   0  0  0  0  0  0  0  0  0  0  0  0
  147.8117  135.3963  158.8536 H   0  0  0  0  0  0  0  0  0  0  0  0
  147.6511  133.9599  160.9502 H   0  0  0  0  0  0  0  0  0  0  0  0
  147.3634  134.4726  163.6160 H   0  0  0  0  0  0  0  0  0  0  0  0
  147.3816  137.2418  163.7221 H   0  0  0  0  0  0  0  0  0  0  0  0
  150.3891  143.2152  157.7685 H   0  0  0  0  0  0  0  0  0  0  0  0
  150.4424  142.9626  159.5003 H   0  0  0  0  0  0  0  0  0  0  0  0
  152.8099  143.5646  157.6541 H   0  0  0  0  0  0  0  0  0  0  0  0
  151.3901  145.5658  158.1518 H   0  0  0  0  0  0  0  0  0  0  0  0
  152.9625  145.6857  158.9361 H   0  0  0  0  0  0  0  0  0  0  0  0
  151.5412  145.2453  159.8791 H   0  0  0  0  0  0  0  0  0  0  0  0
  1  2  1  0  0  0  0
  1 21  1  0  0  0  0
  1 22  1  0  0  0  0
  1 23  1  0  0  0  0
  2 20  1  0  0  0  0
  2  3  1  0  0  0  0
  2 24  1  0  0  0  0
  3  4  1  0  0  0  0
  3 25  1  0  0  0  0
  3 26  1  0  0  0  0
  4  5  1  0  0  0  0
  4 17  1  0  0  0  0
  5  6  1  0  0  0  0
  5  7  1  0  0  0  0
  5 27  1  0  0  0  0
  6 28  1  0  0  0  0
  6 29  1  0  0  0  0
  6 30  1  0  0  0  0
  7  8  1  0  0  0  0
  7 31  1  0  0  0  0
  7 32  1  0  0  0  0
  8  9  1  0  0  0  0
  8 33  1  0  0  0  0
  9 10  2  0  0  0  0
  9 11  1  0  0  0  0
 11 12  1  0  0  0  0
 11 34  1  0  0  0  0
 11 35  1  0  0  0  0
 12 16  1  0  0  0  0
 12 13  1  0  0  0  0
 13 14  2  0  0  0  0
 13 36  1  0  0  0  0
 14 15  1  0  0  0  0
 14 37  1  0  0  0  0
 15 16  2  0  0  0  0
 15 38  1  0  0  0  0
 17 18  1  0  0  0  0
 17 39  1  0  0  0  0
 17 40  1  0  0  0  0
 18 19  1  0  0  0  0
 18 20  1  0  0  0  0
 18 41  1  0  0  0  0
 19 42  1  0  0  0  0
 19 43  1  0  0  0  0
 19 44  1  0  0  0  0
M  END
> <s_m_source_file>
AV-unprocessed.smi

> <i_m_source_file_index>
1433

> <i_lp_mmshare_version>
43012

> <i_f3d_flags>
0

> <s_epik_input>
W0NIM11bQ0BASF0xW0NIMl1OKFtDSDJdW0NASF0oTzEpW0NIM10pW0NASF0oW0NIM10pW0NIMl1bTkhdQyg9TylbQ0gyXW4yW2NIXVtjSF1bY0hdbjI=

> <s_epik_cmdline>
J2VwaWtfcHl0aG9uJywgJy1waCcsICc3LjAnLCAnLXRuJywgJzgnLCAnLW1hJywgJzIwMCcsICctbWV0YWxfYmluZGluZycsICctaW1hZScsICc8aW5maWxlLm1hZT4nLCAnLW9tYWUnLCAnPG91dGZpbGUubWFlPic=

> <r_lp_tautomer_probability>
1

> <r_epik_Ionization_Penalty>
0.196927

> <r_epik_Ionization_Penalty_Charging>
0

> <r_epik_Ionization_Penalty_Neutral>
0.196927

> <r_epik_State_Penalty>
0.186684

> <r_epik_Charging_Adjusted_Penalty>
0.186684

> <i_epik_Tot_Q>
0

> <i_epik_Tot_abs_Q>
0

> <r_epik_Metal_State_Penalty>
0.186682

> <b_epik_Metal_Only>
0

> <s_lp_Force_Field>
OPLS_2005

> <r_lp_Energy>
27.7845

> <b_lp_Chiralities_Consistent>
1

> <s_lp_Variant>
AV-unprocessed.smi:1433-4

> <Gold.Version>
5.8.1

> <Gold.Id.Protein>
6NUR|6NUR_protein|mol2

> <Gold.PLP.Fitness>
52.4781

> <Gold.PLP.PLP>
-44.5562

> <Gold.PLP.part.hbond>
-3.0000

> <Gold.PLP.part.metal>
0.0000

> <Gold.PLP.part.buried>
-6.3301

> <Gold.PLP.part.nonpolar>
-34.8941

> <Gold.PLP.part.repulsive>
0.1601

> <Gold.PLP.ligand.clash>
0.0000

> <Gold.PLP.ligand.torsion>
0.2360

> <Gold.PLP.Chemscore.Hbond>
2.7760

> <Gold.PLP.Chemscore.CHOScore>
0.0000

> <Gold.PLP.Chemscore.Metal>
0.0000

> <Gold.Chemscore.Hbonds>
donor molecule, donor type, donor heavy atom, donor atom, acceptor molecule, acceptor atom, score
      P1  H  6896  6907       L1    10  1.00
      P1  H  6931  6943       L1    16  1.00
      P1  H  6934  6947       L1    16  0.74

> <Gold.PLP.Chemscore.Internal.Correction>
0.0660

> <Gold.Rescore>
     Score         DG    S(hbond)    S(metal)    S(lipo)     H(rot)  DE(clash)    DE(int)     intcor
     19.76     -20.02       2.10        0.00     103.87       1.80       0.01       0.24       ----

> <Gold.Chemscore.Fitness>
19.7592

> <Gold.Chemscore.DG>
-20.0152

> <Gold.Chemscore.ZeroCoef>
-5.4800

> <Gold.Chemscore.Hbond>
2.0958

> <Gold.Chemscore.Metal>
0.0000

> <Gold.Chemscore.Lipo>
103.8733

> <Gold.Chemscore.Internal_Hbond>
0.0000

> <Gold.Chemscore.DEClash>
0.0149

> <Gold.Chemscore.DEInternal>
0.2412

> <Gold.Chemscore.Rot>
1.8038

> <Gold.Chemscore.Internal.Correction>
   9.000000E+99

> <Gold.Chemscore.Hbonds>
donor molecule, donor type, donor heavy atom, donor atom, acceptor molecule, acceptor atom, score
      P1  H  6896  6907       L1    10  0.99
      P1  H  6931  6943       L1    16  0.32
      P1  H  6934  6947       L1    16  0.68

> <Gold.Chemscore.Hbond.Weighted>
-6.9998

> <Gold.Chemscore.Metal.Weighted>
-0.0000

> <Gold.Chemscore.Lipo.Weighted>
-12.1532

> <Gold.Chemscore.Internal_Hbond.Weighted>
0.0000

> <Gold.Chemscore.DEClash.Weighted>
0.0149

> <Gold.Chemscore.DEInternal.Weighted>
0.2412

> <Gold.Chemscore.Rot.Weighted>
4.6178

> <Gold.Chemscore.Internal.Correction.Weighted>
   9.000000E+99

> <Gold.Protein.RotatedTorsions>
[ 6907 6896 6895 6894 ] final  -49.79 input  -60.11 | X-H torsion
[ 7974 7965 7964 7962 ] final  119.88 input  175.53 | X-H torsion
[ 8008 7997 7996 7995 ] final  143.84 input   59.86 | X-H torsion
[ 10167 10162 10161 10158 ] final -173.10 input  -65.29 | X-H torsion
[ 10718 10713 10712 10709 ] final  -71.36 input   66.30 | X-H torsion
[ 10763 10752 10751 10750 ] final -114.04 input  -60.55 | X-H torsion
[ 11005 11000 10999 10996 ] final  106.19 input  -57.11 | X-H torsion

> <Gold.Protein.ActiveResidues>
 VAL166  LYS551  ARG553  GLY616  TRP617  ASP618  TYR619  PRO620  LYS621  CYS622 
 ASP623  PHE694  ASN695  SER759  ASP760  ASP761  ALA762  ILE779  LEU786  VAL792 
 PHE793  MET794  SER795  GLU796  ALA797  LYS798  CYS799  TRP800  GLU811  SER814 

> <Gold.Protein.RotatedAtoms>
  150.8771  134.8155  159.7197 H   0  0  0  0  0  0  0  0  0  0  0  0  # atno 6907 bound_to 6896
  152.4753  134.4855  159.9689 H   0  0  0  0  0  0  0  0  0  0  0  0  # atno 6908 bound_to 6896
  151.4935  133.3481  159.2893 H   0  0  0  0  0  0  0  0  0  0  0  0  # atno 6909 bound_to 6896
  145.1378  139.3286  143.4631 H   0  0  0  0  0  0  0  0  0  0  0  0  # atno 7974 bound_to 7965
  156.2921  140.2251  156.4957 H   0  0  0  0  0  0  0  0  0  0  0  0  # atno 8008 bound_to 7997
  154.7733  140.0465  157.1090 H   0  0  0  0  0  0  0  0  0  0  0  0  # atno 8009 bound_to 7997
  154.9847  140.3083  155.4934 H   0  0  0  0  0  0  0  0  0  0  0  0  # atno 8010 bound_to 7997
  139.5707  144.1648  152.1380 H   0  0  0  0  0  0  0  0  0  0  0  0  # atno 10167 bound_to 10162
  156.0366  130.4350  150.2432 H   0  0  0  0  0  0  0  0  0  0  0  0  # atno 10718 bound_to 10713
  154.8423  135.4432  154.1443 H   0  0  0  0  0  0  0  0  0  0  0  0  # atno 10763 bound_to 10752
  153.2620  135.6937  153.7575 H   0  0  0  0  0  0  0  0  0  0  0  0  # atno 10764 bound_to 10752
  153.6847  135.3397  155.3162 H   0  0  0  0  0  0  0  0  0  0  0  0  # atno 10765 bound_to 10752
  139.8811  134.9361  156.5629 H   0  0  0  0  0  0  0  0  0  0  0  0  # atno 11005 bound_to 11000
  146.3508  140.1403  142.8594 LP  0  0  0  0  0  0  0  0  0  0  0  0  # atno 17320 bound_to 7965
  145.0565  140.9056  143.4964 LP  0  0  0  0  0  0  0  0  0  0  0  0  # atno 17321 bound_to 7965
  140.1180  144.5398  150.6881 LP  0  0  0  0  0  0  0  0  0  0  0  0  # atno 17342 bound_to 10162
  140.6991  143.2423  151.4915 LP  0  0  0  0  0  0  0  0  0  0  0  0  # atno 17343 bound_to 10162
  157.0530  131.0068  151.3247 LP  0  0  0  0  0  0  0  0  0  0  0  0  # atno 17370 bound_to 10713
  157.5126  130.7948  149.7722 LP  0  0  0  0  0  0  0  0  0  0  0  0  # atno 17371 bound_to 10713
  140.8156  133.8395  155.8849 LP  0  0  0  0  0  0  0  0  0  0  0  0  # atno 17394 bound_to 11000
  140.9466  134.1832  157.4759 LP  0  0  0  0  0  0  0  0  0  0  0  0  # atno 17395 bound_to 11000

$$$$
