AV-unprocessed.smi:1255|AV-procd|sdf|5281|dock1
  -GOLD-   22720 4403D 1   1.00000     0.00000
 Structure written by MMmdl.
 40 41  0  0  0  0  0  0  0  0  1 V2000
  146.7806  139.6937  151.2719 C   0  0  0  0  0  0  0  0  0  0  0  0
  146.6355  138.6826  152.4218 C   0  0  2  0  0  0  0  0  0  0  0  0
  145.2099  138.4234  152.6193 N   0  0  0  0  0  0  0  0  0  0  0  0
  144.6370  137.2113  152.5886 C   0  0  0  0  0  0  0  0  0  0  0  0
  143.3270  137.2629  152.8315 N   0  0  0  0  0  0  0  0  0  0  0  0
  145.2372  136.1616  152.3657 O   0  0  0  0  0  0  0  0  0  0  0  0
  147.2529  139.3058  153.6852 C   0  0  0  0  0  0  0  0  0  0  0  0
  146.5464  139.5303  154.6688 O   0  0  0  0  0  0  0  0  0  0  0  0
  148.5710  139.5680  153.6162 N   0  0  0  0  0  0  0  0  0  0  0  0
  149.4156  140.1391  154.6062 C   0  0  0  0  0  0  0  0  0  0  0  0
  150.7432  139.7235  154.8591 C   0  0  0  0  0  0  0  0  0  0  0  0
  151.4731  140.3566  155.8832 C   0  0  0  0  0  0  0  0  0  0  0  0
  150.8597  141.3834  156.6390 C   0  0  0  0  0  0  0  0  0  0  0  0
  151.5750  142.0317  157.6695 N   0  0  0  0  0  0  0  0  0  0  0  0
  152.0174  141.1799  158.7709 C   0  0  0  0  0  0  0  0  0  0  0  0
  153.0385  141.9256  159.6474 C   0  0  0  0  0  0  0  0  0  0  0  0
  152.4863  143.1616  160.0892 O   0  0  0  0  0  0  0  0  0  0  0  0
  152.1674  144.0189  158.9984 C   0  0  0  0  0  0  0  0  0  0  0  0
  151.1110  143.3481  158.1048 C   0  0  0  0  0  0  0  0  0  0  0  0
  149.5837  141.7734  156.3986 N   0  0  0  0  0  0  0  0  0  0  0  0
  148.8872  141.1631  155.4172 C   0  0  0  0  0  0  0  0  0  0  0  0
  147.8289  139.9228  151.0756 H   0  0  0  0  0  0  0  0  0  0  0  0
  146.2693  140.6331  151.4881 H   0  0  0  0  0  0  0  0  0  0  0  0
  146.3588  139.2952  150.3484 H   0  0  0  0  0  0  0  0  0  0  0  0
  147.1511  137.7557  152.1619 H   0  0  0  0  0  0  0  0  0  0  0  0
  144.6267  139.2230  152.8181 H   0  0  0  0  0  0  0  0  0  0  0  0
  142.7756  136.4174  152.8315 H   0  0  0  0  0  0  0  0  0  0  0  0
  142.8896  138.1555  153.0098 H   0  0  0  0  0  0  0  0  0  0  0  0
  149.0375  139.2581  152.7759 H   0  0  0  0  0  0  0  0  0  0  0  0
  151.2128  138.9290  154.3005 H   0  0  0  0  0  0  0  0  0  0  0  0
  152.4933  140.0550  156.0672 H   0  0  0  0  0  0  0  0  0  0  0  0
  151.1487  140.8991  159.3681 H   0  0  0  0  0  0  0  0  0  0  0  0
  152.4670  140.2550  158.4127 H   0  0  0  0  0  0  0  0  0  0  0  0
  153.2968  141.3219  160.5175 H   0  0  0  0  0  0  0  0  0  0  0  0
  153.9644  142.1042  159.0982 H   0  0  0  0  0  0  0  0  0  0  0  0
  151.7849  144.9627  159.3873 H   0  0  0  0  0  0  0  0  0  0  0  0
  153.0684  144.2511  158.4281 H   0  0  0  0  0  0  0  0  0  0  0  0
  150.9130  143.9841  157.2410 H   0  0  0  0  0  0  0  0  0  0  0  0
  150.1739  143.2383  158.6525 H   0  0  0  0  0  0  0  0  0  0  0  0
  147.8740  141.5094  155.2730 H   0  0  0  0  0  0  0  0  0  0  0  0
  1  2  1  0  0  0  0
  1 22  1  0  0  0  0
  1 23  1  0  0  0  0
  1 24  1  0  0  0  0
  2  3  1  0  0  0  0
  2  7  1  0  0  0  0
  2 25  1  0  0  0  0
  3  4  1  0  0  0  0
  3 26  1  0  0  0  0
  4  5  1  0  0  0  0
  4  6  2  0  0  0  0
  5 27  1  0  0  0  0
  5 28  1  0  0  0  0
  7  8  2  0  0  0  0
  7  9  1  0  0  0  0
  9 10  1  0  0  0  0
  9 29  1  0  0  0  0
 10 21  1  0  0  0  0
 10 11  2  0  0  0  0
 11 12  1  0  0  0  0
 11 30  1  0  0  0  0
 12 13  2  0  0  0  0
 12 31  1  0  0  0  0
 13 14  1  0  0  0  0
 13 20  1  0  0  0  0
 14 19  1  0  0  0  0
 14 15  1  0  0  0  0
 15 16  1  0  0  0  0
 15 32  1  0  0  0  0
 15 33  1  0  0  0  0
 16 17  1  0  0  0  0
 16 34  1  0  0  0  0
 16 35  1  0  0  0  0
 17 18  1  0  0  0  0
 18 19  1  0  0  0  0
 18 36  1  0  0  0  0
 18 37  1  0  0  0  0
 19 38  1  0  0  0  0
 19 39  1  0  0  0  0
 20 21  2  0  0  0  0
 21 40  1  0  0  0  0
M  END
> <s_m_source_file>
AV-unprocessed.smi

> <i_m_source_file_index>
1255

> <i_lp_mmshare_version>
43012

> <i_f3d_flags>
0

> <s_epik_input>
W05IMl1DKD1PKVtOSF1bQ0BASF0oW0NIM10pQyg9TylbTkhdYzFbY0hdW2NIXWMobltjSF0xKU4yW0NIMl1bQ0gyXU9bQ0gyXVtDSDJdMg==

> <s_epik_cmdline>
J2VwaWtfcHl0aG9uJywgJy1waCcsICc3LjAnLCAnLXRuJywgJzgnLCAnLW1hJywgJzIwMCcsICctbWV0YWxfYmluZGluZycsICctaW1hZScsICc8aW5maWxlLm1hZT4nLCAnLW9tYWUnLCAnPG91dGZpbGUubWFlPic=

> <r_lp_tautomer_probability>
1

> <r_epik_Ionization_Penalty>
0.00069351

> <r_epik_Ionization_Penalty_Charging>
0

> <r_epik_Ionization_Penalty_Neutral>
0.00069351

> <r_epik_State_Penalty>
0.000408291

> <r_epik_Charging_Adjusted_Penalty>
0.000408291

> <i_epik_Tot_Q>
0

> <i_epik_Tot_abs_Q>
0

> <r_epik_Metal_State_Penalty>
-0

> <b_epik_Metal_Only>
0

> <s_lp_Force_Field>
OPLS_2005

> <r_lp_Energy>
17.9712

> <b_lp_Chiralities_Consistent>
1

> <s_lp_Variant>
AV-unprocessed.smi:1255-1

> <Gold.Version>
5.8.1

> <Gold.Id.Protein>
6NUR|6NUR_protein|mol2

> <Gold.PLP.Fitness>
42.1596

> <Gold.PLP.PLP>
-37.4369

> <Gold.PLP.part.hbond>
-3.4019

> <Gold.PLP.part.metal>
0.0000

> <Gold.PLP.part.buried>
-0.9299

> <Gold.PLP.part.nonpolar>
-34.2013

> <Gold.PLP.part.repulsive>
0.8945

> <Gold.PLP.ligand.clash>
0.0000

> <Gold.PLP.ligand.torsion>
0.6012

> <Gold.PLP.Chemscore.Hbond>
1.8518

> <Gold.PLP.Chemscore.CHOScore>
0.0000

> <Gold.PLP.Chemscore.Metal>
0.0000

> <Gold.Chemscore.Hbonds>
donor molecule, donor type, donor heavy atom, donor atom, acceptor molecule, acceptor atom, score
      L1  H     3    26       P1 10175  1.00
      L1  H     9    29       P1  7957  0.75

> <Gold.PLP.Chemscore.Internal.Correction>
0.3696

> <Gold.Rescore>
     Score         DG    S(hbond)    S(metal)    S(lipo)     H(rot)  DE(clash)    DE(int)     intcor
     14.23     -16.91       1.82        0.00      87.52       1.91       0.98       1.70       ----

> <Gold.Chemscore.Fitness>
14.2272

> <Gold.Chemscore.DG>
-16.9061

> <Gold.Chemscore.ZeroCoef>
-5.4800

> <Gold.Chemscore.Hbond>
1.8166

> <Gold.Chemscore.Metal>
0.0000

> <Gold.Chemscore.Lipo>
87.5194

> <Gold.Chemscore.Internal_Hbond>
0.0000

> <Gold.Chemscore.DEClash>
0.9804

> <Gold.Chemscore.DEInternal>
1.6985

> <Gold.Chemscore.Rot>
1.9067

> <Gold.Chemscore.Internal.Correction>
   9.000000E+99

> <Gold.Chemscore.Hbonds>
donor molecule, donor type, donor heavy atom, donor atom, acceptor molecule, acceptor atom, score
      L1  H     3    26       P1 10175  0.97
      L1  H     5    28       P1 10175  0.03
      L1  H     9    29       P1  7957  0.74

> <Gold.Chemscore.Hbond.Weighted>
-6.0675

> <Gold.Chemscore.Metal.Weighted>
-0.0000

> <Gold.Chemscore.Lipo.Weighted>
-10.2398

> <Gold.Chemscore.Internal_Hbond.Weighted>
0.0000

> <Gold.Chemscore.DEClash.Weighted>
0.9804

> <Gold.Chemscore.DEInternal.Weighted>
1.6985

> <Gold.Chemscore.Rot.Weighted>
4.8811

> <Gold.Chemscore.Internal.Correction.Weighted>
   9.000000E+99

> <Gold.Protein.RotatedTorsions>
[ 6907 6896 6895 6894 ] final  110.18 input  -60.11 | X-H torsion
[ 7974 7965 7964 7962 ] final -104.44 input  175.53 | X-H torsion
[ 8008 7997 7996 7995 ] final  -39.65 input   59.86 | X-H torsion
[ 10167 10162 10161 10158 ] final   59.22 input  -65.29 | X-H torsion
[ 10718 10713 10712 10709 ] final -116.24 input   66.30 | X-H torsion
[ 10763 10752 10751 10750 ] final -165.81 input  -60.55 | X-H torsion
[ 11005 11000 10999 10996 ] final   98.21 input  -57.11 | X-H torsion

> <Gold.Protein.ActiveResidues>
 VAL166  LYS551  ARG553  GLY616  TRP617  ASP618  TYR619  PRO620  LYS621  CYS622 
 ASP623  PHE694  ASN695  SER759  ASP760  ASP761  ALA762  ILE779  LEU786  VAL792 
 PHE793  MET794  SER795  GLU796  ALA797  LYS798  CYS799  TRP800  GLU811  SER814 

> <Gold.Protein.RotatedAtoms>
  152.5032  133.8837  159.7358 H   0  0  0  0  0  0  0  0  0  0  0  0  # atno 6907 bound_to 6896
  150.9293  133.6777  159.2821 H   0  0  0  0  0  0  0  0  0  0  0  0  # atno 6908 bound_to 6896
  151.4127  135.0992  159.9642 H   0  0  0  0  0  0  0  0  0  0  0  0  # atno 6909 bound_to 6896
  145.2431  140.9212  143.3138 H   0  0  0  0  0  0  0  0  0  0  0  0  # atno 7974 bound_to 7965
  154.4020  140.1546  156.2898 H   0  0  0  0  0  0  0  0  0  0  0  0  # atno 8008 bound_to 7997
  155.8795  140.3444  155.5856 H   0  0  0  0  0  0  0  0  0  0  0  0  # atno 8009 bound_to 7997
  155.7683  140.0827  157.2111 H   0  0  0  0  0  0  0  0  0  0  0  0  # atno 8010 bound_to 7997
  140.1788  144.4203  150.6625 H   0  0  0  0  0  0  0  0  0  0  0  0  # atno 10167 bound_to 10162
  156.0950  130.6124  150.9010 H   0  0  0  0  0  0  0  0  0  0  0  0  # atno 10718 bound_to 10713
  154.6895  135.2968  154.9499 H   0  0  0  0  0  0  0  0  0  0  0  0  # atno 10763 bound_to 10752
  154.0467  135.6650  153.4800 H   0  0  0  0  0  0  0  0  0  0  0  0  # atno 10764 bound_to 10752
  153.0602  135.5120  154.7980 H   0  0  0  0  0  0  0  0  0  0  0  0  # atno 10765 bound_to 10752
  139.8773  134.9038  156.4423 H   0  0  0  0  0  0  0  0  0  0  0  0  # atno 11005 bound_to 11000
  144.9571  139.4020  143.6374 LP  0  0  0  0  0  0  0  0  0  0  0  0  # atno 17320 bound_to 7965
  146.3323  139.8606  142.8857 LP  0  0  0  0  0  0  0  0  0  0  0  0  # atno 17321 bound_to 7965
  140.6533  143.2231  151.6026 LP  0  0  0  0  0  0  0  0  0  0  0  0  # atno 17342 bound_to 10162
  139.5305  144.2930  152.1137 LP  0  0  0  0  0  0  0  0  0  0  0  0  # atno 17343 bound_to 10162
  157.6109  131.0936  150.8797 LP  0  0  0  0  0  0  0  0  0  0  0  0  # atno 17370 bound_to 10713
  156.8937  130.5222  149.5285 LP  0  0  0  0  0  0  0  0  0  0  0  0  # atno 17371 bound_to 10713
  140.8991  133.7793  155.9659 LP  0  0  0  0  0  0  0  0  0  0  0  0  # atno 17394 bound_to 11000
  140.8671  134.2771  157.5208 LP  0  0  0  0  0  0  0  0  0  0  0  0  # atno 17395 bound_to 11000

$$$$
