AV-unprocessed.smi:72|AV-procd|sdf|733|dock2
  -GOLD-   2262017 63D 1   1.00000     0.00000
 Structure written by MMmdl.
 28 29  0  0  0  0  0  0  0  0  2 V2000
  147.9300  135.2238  159.9066 N   0  0  0  0  0  0  0  0  0  0  0  0
  148.6320  135.8803  159.0906 C   0  0  0  0  0  0  0  0  0  0  0  0
  148.5372  137.3229  159.0517 N   0  0  0  0  0  0  0  0  0  0  0  0
  149.2483  137.9532  158.1680 C   0  0  0  0  0  0  0  0  0  0  0  0
  150.1031  137.2474  157.2189 N   0  0  0  0  0  0  0  0  0  0  0  0
  150.9498  137.9709  156.1811 C   0  0  2  0  0  0  0  0  0  0  0  0
  150.6939  139.3443  156.2111 O   0  0  0  0  0  0  0  0  0  0  0  0
  149.7154  139.6709  155.2319 C   0  0  1  0  0  0  0  0  0  0  0  0
  149.7816  141.1703  154.9057 C   0  0  0  0  0  0  0  0  0  0  0  0
  149.2061  141.4171  153.6403 O   0  0  0  0  0  0  0  0  0  0  0  0
  150.1218  138.7703  154.0647 C   0  0  2  0  0  0  0  0  0  0  0  0
  149.0067  138.4995  153.2393 O   0  0  0  0  0  0  0  0  0  0  0  0
  150.6076  137.4959  154.7510 C   0  0  1  0  0  0  0  0  0  0  0  0
  151.7452  136.9875  154.0848 O   0  0  0  0  0  0  0  0  0  0  0  0
  150.2209  135.8343  157.3247 C   0  0  0  0  0  0  0  0  0  0  0  0
  150.9992  135.2590  156.5633 O   0  0  0  0  0  0  0  0  0  0  0  0
  149.4764  135.1798  158.2586 N   0  5  0  0  0  0  0  0  0  0  0  0
  151.9811  137.7851  156.4870 H   0  0  0  0  0  0  0  0  0  0  0  0
  148.7217  139.3894  155.5861 H   0  0  0  0  0  0  0  0  0  0  0  0
  150.9228  139.2369  153.4882 H   0  0  0  0  0  0  0  0  0  0  0  0
  149.8228  136.7380  154.7840 H   0  0  0  0  0  0  0  0  0  0  0  0
  147.3410  135.8129  160.4768 H   0  0  0  0  0  0  0  0  0  0  0  0
  149.2458  139.0402  158.0895 H   0  0  0  0  0  0  0  0  0  0  0  0
  149.2858  141.7659  155.6728 H   0  0  0  0  0  0  0  0  0  0  0  0
  150.8204  141.4983  154.8615 H   0  0  0  0  0  0  0  0  0  0  0  0
  148.4395  140.8726  153.5476 H   0  0  0  0  0  0  0  0  0  0  0  0
  149.2761  137.8919  152.5675 H   0  0  0  0  0  0  0  0  0  0  0  0
  151.5404  136.9195  153.1639 H   0  0  0  0  0  0  0  0  0  0  0  0
  1  2  2  0  0  0  0
  1 22  1  0  0  0  0
  2 17  1  0  0  0  0
  2  3  1  0  0  0  0
  3  4  2  0  0  0  0
  4  5  1  0  0  0  0
  4 23  1  0  0  0  0
  5  6  1  0  0  0  0
  5 15  1  0  0  0  0
  6 18  1  0  0  0  0
  6 13  1  0  0  0  0
  6  7  1  0  0  0  0
  7  8  1  0  0  0  0
  8 19  1  0  0  0  0
  8  9  1  0  0  0  0
  8 11  1  0  0  0  0
  9 10  1  0  0  0  0
  9 24  1  0  0  0  0
  9 25  1  0  0  0  0
 10 26  1  0  0  0  0
 11 20  1  0  0  0  0
 11 12  1  0  0  0  0
 11 13  1  0  0  0  0
 12 27  1  0  0  0  0
 13 21  1  0  0  0  0
 13 14  1  0  0  0  0
 14 28  1  0  0  0  0
 15 16  2  0  0  0  0
 15 17  1  0  0  0  0
M  CHG  1  17  -1
M  END
> <s_m_source_file>
AV-unprocessed.smi

> <i_m_source_file_index>
72

> <i_lp_mmshare_version>
43012

> <i_f3d_flags>
0

> <s_epik_input>
W05IMl1jMW5bY0hdbihjKD1PKW4xKVtDQEBIXTJPW0NASF0oW0NIMl1bT0hdKVtDQEBIXShbT0hdKVtDQEhdMltPSF0=

> <s_epik_cmdline>
J2VwaWtfcHl0aG9uJywgJy1waCcsICc3LjAnLCAnLXRuJywgJzgnLCAnLW1hJywgJzIwMCcsICctbWV0YWxfYmluZGluZycsICctaW1hZScsICc8aW5maWxlLm1hZT4nLCAnLW9tYWUnLCAnPG91dGZpbGUubWFlPic=

> <r_lp_tautomer_probability>
7.17554e-07

> <r_epik_Ionization_Penalty>
12.8705

> <r_epik_Ionization_Penalty_Charging>
5.64144

> <r_epik_Ionization_Penalty_Neutral>
7.22905

> <r_epik_State_Penalty>
3.30104

> <r_epik_Charging_Adjusted_Penalty>
8.94249

> <i_epik_Tot_Q>
-1

> <i_epik_Tot_abs_Q>
1

> <r_epik_Metal_State_Penalty>
0.529074

> <b_epik_Metal_Only>
1

> <s_epik_Chemistry_Notes>
This compound contains an acetal/aminal-like group ( X-CH(R)-Y where X, Y are N, S, or O) that may be acid/base labile, releasing an aldehyde.

> <s_lp_Force_Field>
OPLS_2005

> <r_lp_Energy>
30.1413

> <b_lp_Chiralities_Consistent>
1

> <s_lp_Variant>
AV-unprocessed.smi:72-71

> <Gold.Version>
5.8.1

> <Gold.Id.Protein>
6NUR|6NUR_protein|mol2

> <Gold.PLP.Fitness>
41.7461

> <Gold.PLP.PLP>
-24.3397

> <Gold.PLP.part.hbond>
-9.6491

> <Gold.PLP.part.metal>
0.0000

> <Gold.PLP.part.buried>
-3.0481

> <Gold.PLP.part.nonpolar>
-11.5528

> <Gold.PLP.part.repulsive>
0.0000

> <Gold.PLP.ligand.clash>
0.0000

> <Gold.PLP.ligand.torsion>
0.1821

> <Gold.PLP.Chemscore.Hbond>
5.9120

> <Gold.PLP.Chemscore.CHOScore>
0.0000

> <Gold.PLP.Chemscore.Metal>
0.0000

> <Gold.Chemscore.Hbonds>
donor molecule, donor type, donor heavy atom, donor atom, acceptor molecule, acceptor atom, score
      L1  H    12    27       P1  7948  0.91
      L1  H    14    28       P1  7949  1.00
      P1  H  6896  6908       L1    17  2.00
      P1  H  8011  8017       L1    10  0.85
      P1  H 10752 10763       L1    14  1.00

> <Gold.PLP.Chemscore.Internal.Correction>
0.0347

> <Gold.Rescore>
     Score         DG    S(hbond)    S(metal)    S(lipo)     H(rot)  DE(clash)    DE(int)     intcor
     10.82     -12.03       4.08        0.00      27.91       4.04       0.85       0.36       ----

> <Gold.Chemscore.Fitness>
10.8215

> <Gold.Chemscore.DG>
-12.0344

> <Gold.Chemscore.ZeroCoef>
-5.4800

> <Gold.Chemscore.Hbond>
4.0813

> <Gold.Chemscore.Metal>
0.0000

> <Gold.Chemscore.Lipo>
27.9142

> <Gold.Chemscore.Internal_Hbond>
0.0000

> <Gold.Chemscore.DEClash>
0.8531

> <Gold.Chemscore.DEInternal>
0.3597

> <Gold.Chemscore.Rot>
4.0403

> <Gold.Chemscore.Internal.Correction>
   9.000000E+99

> <Gold.Chemscore.Hbonds>
donor molecule, donor type, donor heavy atom, donor atom, acceptor molecule, acceptor atom, score
      L1  H    12    27       P1  7948  0.81
      L1  H    14    28       P1  7949  0.90
      P1  H  6896  6908       L1    17  0.23
      P1  H  8011  8017       L1    10  0.82
      P1  H 10752 10763       L1    14  0.39

> <Gold.Chemscore.Hbond.Weighted>
-13.6315

> <Gold.Chemscore.Metal.Weighted>
-0.0000

> <Gold.Chemscore.Lipo.Weighted>
-3.2660

> <Gold.Chemscore.Internal_Hbond.Weighted>
0.0000

> <Gold.Chemscore.DEClash.Weighted>
0.8531

> <Gold.Chemscore.DEInternal.Weighted>
0.3597

> <Gold.Chemscore.Rot.Weighted>
10.3431

> <Gold.Chemscore.Internal.Correction.Weighted>
   9.000000E+99

> <Gold.Protein.RotatedTorsions>
[ 6907 6896 6895 6894 ] final  157.68 input  -60.11 | X-H torsion
[ 7974 7965 7964 7962 ] final   93.66 input  175.53 | X-H torsion
[ 8008 7997 7996 7995 ] final  -65.91 input   59.86 | X-H torsion
[ 10167 10162 10161 10158 ] final   16.92 input  -65.29 | X-H torsion
[ 10718 10713 10712 10709 ] final -113.57 input   66.30 | X-H torsion
[ 10763 10752 10751 10750 ] final   46.13 input  -60.55 | X-H torsion
[ 11005 11000 10999 10996 ] final -175.63 input  -57.11 | X-H torsion

> <Gold.Protein.ActiveResidues>
 VAL166  LYS551  ARG553  GLY616  TRP617  ASP618  TYR619  PRO620  LYS621  CYS622 
 ASP623  PHE694  ASN695  SER759  ASP760  ASP761  ALA762  ILE779  LEU786  VAL792 
 PHE793  MET794  SER795  GLU796  ALA797  LYS798  CYS799  TRP800  GLU811  SER814 

> <Gold.Protein.RotatedAtoms>
  152.0116  133.3863  159.4221 H   0  0  0  0  0  0  0  0  0  0  0  0  # atno 6907 bound_to 6896
  150.6899  134.3724  159.5007 H   0  0  0  0  0  0  0  0  0  0  0  0  # atno 6908 bound_to 6896
  152.1486  134.9006  160.0600 H   0  0  0  0  0  0  0  0  0  0  0  0  # atno 6909 bound_to 6896
  145.4759  139.2280  143.2909 H   0  0  0  0  0  0  0  0  0  0  0  0  # atno 7974 bound_to 7965
  154.4701  140.0923  156.7122 H   0  0  0  0  0  0  0  0  0  0  0  0  # atno 8008 bound_to 7997
  155.4748  140.3465  155.4312 H   0  0  0  0  0  0  0  0  0  0  0  0  # atno 8009 bound_to 7997
  156.1024  140.1426  156.9438 H   0  0  0  0  0  0  0  0  0  0  0  0  # atno 8010 bound_to 7997
  140.5763  143.9067  150.6752 H   0  0  0  0  0  0  0  0  0  0  0  0  # atno 10167 bound_to 10162
  156.0775  130.5980  150.8659 H   0  0  0  0  0  0  0  0  0  0  0  0  # atno 10718 bound_to 10713
  152.9815  135.6018  154.3550 H   0  0  0  0  0  0  0  0  0  0  0  0  # atno 10763 bound_to 10752
  154.3236  135.2769  155.2509 H   0  0  0  0  0  0  0  0  0  0  0  0  # atno 10764 bound_to 10752
  154.4664  135.5953  153.6347 H   0  0  0  0  0  0  0  0  0  0  0  0  # atno 10765 bound_to 10752
  140.4612  134.6253  157.4843 H   0  0  0  0  0  0  0  0  0  0  0  0  # atno 11005 bound_to 11000
  146.2369  140.5542  142.8951 LP  0  0  0  0  0  0  0  0  0  0  0  0  # atno 17320 bound_to 7965
  144.7917  140.6045  143.6537 LP  0  0  0  0  0  0  0  0  0  0  0  0  # atno 17321 bound_to 7965
  140.2554  143.3562  152.1369 LP  0  0  0  0  0  0  0  0  0  0  0  0  # atno 17342 bound_to 10162
  139.5144  144.6948  151.5661 LP  0  0  0  0  0  0  0  0  0  0  0  0  # atno 17343 bound_to 10162
  157.5877  131.0945  150.9170 LP  0  0  0  0  0  0  0  0  0  0  0  0  # atno 17370 bound_to 10713
  156.9353  130.5364  149.5279 LP  0  0  0  0  0  0  0  0  0  0  0  0  # atno 17371 bound_to 10713
  139.9944  134.6934  155.9634 LP  0  0  0  0  0  0  0  0  0  0  0  0  # atno 17394 bound_to 11000
  141.1620  133.6538  156.4352 LP  0  0  0  0  0  0  0  0  0  0  0  0  # atno 17395 bound_to 11000

$$$$
