AV-unprocessed.smi:136|AV-procd|sdf|1171|dock4
  -GOLD-   2262018313D 1   1.00000     0.00000
 Structure written by MMmdl.
 54 58  0  0  0  0  0  0  0  0  1 V2000
  148.2791  137.9796  159.5535 O   0  0  0  0  0  0  0  0  0  0  0  0
  149.0561  137.2496  158.9348 C   0  0  0  0  0  0  0  0  0  0  0  0
  150.4010  137.8143  158.4300 C   0  0  0  0  0  0  0  0  0  0  0  0
  150.3081  139.2124  157.9537 N   0  0  0  0  0  0  0  0  0  0  0  0
  149.2747  139.5510  157.0449 C   0  0  0  0  0  0  0  0  0  0  0  0
  148.4558  138.7117  156.6675 O   0  0  0  0  0  0  0  0  0  0  0  0
  149.2627  140.9377  156.5929 C   0  0  0  0  0  0  0  0  0  0  0  0
  148.3166  141.3482  155.7313 F   0  0  0  0  0  0  0  0  0  0  0  0
  150.1894  141.8178  157.0245 C   0  0  0  0  0  0  0  0  0  0  0  0
  151.1953  141.4721  157.9092 N   0  0  0  0  0  0  0  0  0  0  0  0
  152.2324  142.4702  158.3778 C   0  0  2  0  0  0  0  0  0  0  0  0
  152.2201  142.5807  159.9135 C   0  0  0  0  0  0  0  0  0  0  0  0
  152.1489  144.0775  160.1380 C   0  0  0  0  0  0  0  0  0  0  0  0
  151.3857  144.5434  158.9072 C   0  0  0  0  0  0  0  0  0  0  0  0
  151.9346  143.7403  157.8704 O   0  0  0  0  0  0  0  0  0  0  0  0
  151.2767  140.1471  158.3897 C   0  0  0  0  0  0  0  0  0  0  0  0
  152.1744  139.8164  159.1679 O   0  0  0  0  0  0  0  0  0  0  0  0
  148.7634  135.9563  158.6726 N   0  0  0  0  0  0  0  0  0  0  0  0
  149.5381  135.1588  157.8942 N   0  0  0  0  0  0  0  0  0  0  0  0
  148.9649  134.0237  157.7334 C   0  0  0  0  0  0  0  0  0  0  0  0
  149.5289  132.9016  156.9508 C   0  0  0  0  0  0  0  0  0  0  0  0
  148.6832  131.8457  156.5408 C   0  0  0  0  0  0  0  0  0  0  0  0
  149.2187  130.7811  155.7896 C   0  0  0  0  0  0  0  0  0  0  0  0
  150.5870  130.7700  155.4521 C   0  0  0  0  0  0  0  0  0  0  0  0
  151.2363  129.4643  154.5300 Cl  0  0  0  0  0  0  0  0  0  0  0  0
  151.4262  131.8242  155.8658 C   0  0  0  0  0  0  0  0  0  0  0  0
  150.9022  132.8946  156.6167 C   0  0  0  0  0  0  0  0  0  0  0  0
  147.6494  133.9095  158.4270 C   0  0  0  0  0  0  0  0  0  0  0  0
  147.5423  135.2720  159.1155 C   0  0  1  0  0  0  0  0  0  0  0  0
  147.4337  135.1676  160.6087 C   0  0  0  0  0  0  0  0  0  0  0  0
  147.3806  136.0945  161.6125 C   0  0  0  0  0  0  0  0  0  0  0  0
  147.2711  135.3642  162.8280 C   0  0  0  0  0  0  0  0  0  0  0  0
  147.2585  134.0448  162.4753 C   0  0  0  0  0  0  0  0  0  0  0  0
  147.3515  133.9074  161.1254 O   0  0  0  0  0  0  0  0  0  0  0  0
  151.1408  137.7361  159.2285 H   0  0  0  0  0  0  0  0  0  0  0  0
  150.7822  137.1573  157.6469 H   0  0  0  0  0  0  0  0  0  0  0  0
  150.1265  142.8275  156.6491 H   0  0  0  0  0  0  0  0  0  0  0  0
  153.1829  142.1328  157.9607 H   0  0  0  0  0  0  0  0  0  0  0  0
  151.3321  142.0933  160.3196 H   0  0  0  0  0  0  0  0  0  0  0  0
  153.1078  142.1198  160.3475 H   0  0  0  0  0  0  0  0  0  0  0  0
  151.6572  144.3471  161.0730 H   0  0  0  0  0  0  0  0  0  0  0  0
  153.1521  144.5059  160.1405 H   0  0  0  0  0  0  0  0  0  0  0  0
  150.3189  144.3431  159.0146 H   0  0  0  0  0  0  0  0  0  0  0  0
  151.5185  145.6061  158.7044 H   0  0  0  0  0  0  0  0  0  0  0  0
  147.6314  131.8367  156.7880 H   0  0  0  0  0  0  0  0  0  0  0  0
  148.5769  129.9730  155.4708 H   0  0  0  0  0  0  0  0  0  0  0  0
  152.4748  131.8138  155.6063 H   0  0  0  0  0  0  0  0  0  0  0  0
  151.5663  133.6898  156.9209 H   0  0  0  0  0  0  0  0  0  0  0  0
  146.8379  133.7562  157.7148 H   0  0  0  0  0  0  0  0  0  0  0  0
  147.6515  133.0837  159.1400 H   0  0  0  0  0  0  0  0  0  0  0  0
  146.6775  135.8106  158.7240 H   0  0  0  0  0  0  0  0  0  0  0  0
  147.4206  137.1663  161.4867 H   0  0  0  0  0  0  0  0  0  0  0  0
  147.2089  135.7544  163.8332 H   0  0  0  0  0  0  0  0  0  0  0  0
  147.1913  133.1202  163.0291 H   0  0  0  0  0  0  0  0  0  0  0  0
  1  2  2  0  0  0  0
  2  3  1  0  0  0  0
  2 18  1  0  0  0  0
  3  4  1  0  0  0  0
  3 35  1  0  0  0  0
  3 36  1  0  0  0  0
  4 16  1  0  0  0  0
  4  5  1  0  0  0  0
  5  6  2  0  0  0  0
  5  7  1  0  0  0  0
  7  8  1  0  0  0  0
  7  9  2  0  0  0  0
  9 10  1  0  0  0  0
  9 37  1  0  0  0  0
 10 11  1  0  0  0  0
 10 16  1  0  0  0  0
 11 15  1  0  0  0  0
 11 12  1  0  0  0  0
 11 38  1  0  0  0  0
 12 13  1  0  0  0  0
 12 39  1  0  0  0  0
 12 40  1  0  0  0  0
 13 14  1  0  0  0  0
 13 41  1  0  0  0  0
 13 42  1  0  0  0  0
 14 15  1  0  0  0  0
 14 43  1  0  0  0  0
 14 44  1  0  0  0  0
 16 17  2  0  0  0  0
 18 29  1  0  0  0  0
 18 19  1  0  0  0  0
 19 20  2  0  0  0  0
 20 21  1  0  0  0  0
 20 28  1  0  0  0  0
 21 27  1  0  0  0  0
 21 22  2  0  0  0  0
 22 23  1  0  0  0  0
 22 45  1  0  0  0  0
 23 24  2  0  0  0  0
 23 46  1  0  0  0  0
 24 25  1  0  0  0  0
 24 26  1  0  0  0  0
 26 27  2  0  0  0  0
 26 47  1  0  0  0  0
 27 48  1  0  0  0  0
 28 29  1  0  0  0  0
 28 49  1  0  0  0  0
 28 50  1  0  0  0  0
 29 30  1  0  0  0  0
 29 51  1  0  0  0  0
 30 34  1  0  0  0  0
 30 31  2  0  0  0  0
 31 32  1  0  0  0  0
 31 52  1  0  0  0  0
 32 33  2  0  0  0  0
 32 53  1  0  0  0  0
 33 34  1  0  0  0  0
 33 54  1  0  0  0  0
M  END
> <s_m_source_file>
AV-unprocessed.smi

> <i_m_source_file_index>
136

> <i_lp_mmshare_version>
43012

> <i_f3d_flags>
0

> <s_epik_input>
bzFbY0hdW2NIXVtjSF1jMVtDQEBIXTJbQ0gyXUMoYzNbY0hdW2NIXWMoQ2wpW2NIXVtjSF0zKT1OTjJDKD1PKVtDSDJdbjRjKD1PKWMoRilbY0hdbihjND1PKVtDQEBIXTVbQ0gyXVtDSDJdW0NIMl1PNQ==

> <s_epik_cmdline>
J2VwaWtfcHl0aG9uJywgJy1waCcsICc3LjAnLCAnLXRuJywgJzgnLCAnLW1hJywgJzIwMCcsICctbWV0YWxfYmluZGluZycsICctaW1hZScsICc8aW5maWxlLm1hZT4nLCAnLW9tYWUnLCAnPG91dGZpbGUubWFlPic=

> <r_lp_tautomer_probability>
1

> <r_epik_Ionization_Penalty>
2.55467e-08

> <r_epik_Ionization_Penalty_Charging>
4.85705e-09

> <r_epik_Ionization_Penalty_Neutral>
2.06897e-08

> <r_epik_State_Penalty>
-0

> <r_epik_Charging_Adjusted_Penalty>
4.85705e-09

> <i_epik_Tot_Q>
0

> <i_epik_Tot_abs_Q>
0

> <r_epik_Metal_State_Penalty>
-0

> <b_epik_Metal_Only>
0

> <s_epik_Chemistry_Notes>
This compound has an imine and may undergo hydrolysis. This compound contains an acetal/aminal-like group ( X-CH(R)-Y where X, Y are N, S, or O) that may be acid/base labile, releasing an aldehyde.

> <s_lp_Force_Field>
OPLS_2005

> <r_lp_Energy>
40.8333

> <b_lp_Chiralities_Consistent>
1

> <s_lp_Variant>
AV-unprocessed.smi:136-1

> <Gold.Version>
5.8.1

> <Gold.Id.Protein>
6NUR|6NUR_protein|mol2

> <Gold.PLP.Fitness>
58.2461

> <Gold.PLP.PLP>
-54.1435

> <Gold.PLP.part.hbond>
-3.0000

> <Gold.PLP.part.metal>
0.0000

> <Gold.PLP.part.buried>
-6.6033

> <Gold.PLP.part.nonpolar>
-46.5715

> <Gold.PLP.part.repulsive>
0.0644

> <Gold.PLP.ligand.clash>
0.0000

> <Gold.PLP.ligand.torsion>
0.6222

> <Gold.PLP.Chemscore.Hbond>
0.7520

> <Gold.PLP.Chemscore.CHOScore>
1.0000

> <Gold.PLP.Chemscore.Metal>
0.0000

> <Gold.Chemscore.Hbonds>
donor molecule, donor type, donor heavy atom, donor atom, acceptor molecule, acceptor atom, score
      P1  H  6896  6907       L1    19  0.39
      P1  H  6934  6947       L1     1  0.29
      L1  C     9    37       P1  8028  1.00

> <Gold.PLP.Chemscore.Internal.Correction>
0.0911

> <Gold.Rescore>
     Score         DG    S(hbond)    S(metal)    S(lipo)     H(rot)  DE(clash)    DE(int)     intcor
     11.65     -15.81       0.36        0.00     117.40       1.81       0.06       4.10       ----

> <Gold.Chemscore.Fitness>
11.6499

> <Gold.Chemscore.DG>
-15.8091

> <Gold.Chemscore.ZeroCoef>
-5.4800

> <Gold.Chemscore.Hbond>
0.3640

> <Gold.Chemscore.Metal>
0.0000

> <Gold.Chemscore.Lipo>
117.3987

> <Gold.Chemscore.Internal_Hbond>
0.0000

> <Gold.Chemscore.DEClash>
0.0553

> <Gold.Chemscore.DEInternal>
4.1038

> <Gold.Chemscore.Rot>
1.8056

> <Gold.Chemscore.Internal.Correction>
   9.000000E+99

> <Gold.Chemscore.Hbonds>
donor molecule, donor type, donor heavy atom, donor atom, acceptor molecule, acceptor atom, score
      P1  H  6931  6943       L1     1  0.01
      P1  H  6934  6947       L1     1  0.28

> <Gold.Chemscore.Hbond.Weighted>
-1.2158

> <Gold.Chemscore.Metal.Weighted>
-0.0000

> <Gold.Chemscore.Lipo.Weighted>
-13.7356

> <Gold.Chemscore.Internal_Hbond.Weighted>
0.0000

> <Gold.Chemscore.DEClash.Weighted>
0.0553

> <Gold.Chemscore.DEInternal.Weighted>
4.1038

> <Gold.Chemscore.Rot.Weighted>
4.6223

> <Gold.Chemscore.Internal.Correction.Weighted>
   9.000000E+99

> <Gold.Protein.RotatedTorsions>
[ 6907 6896 6895 6894 ] final  -67.23 input  -60.11 | X-H torsion
[ 7974 7965 7964 7962 ] final   78.60 input  175.53 | X-H torsion
[ 8008 7997 7996 7995 ] final -105.35 input   59.86 | X-H torsion
[ 10167 10162 10161 10158 ] final  -84.73 input  -65.29 | X-H torsion
[ 10718 10713 10712 10709 ] final   -8.26 input   66.30 | X-H torsion
[ 10763 10752 10751 10750 ] final   92.81 input  -60.55 | X-H torsion
[ 11005 11000 10999 10996 ] final -133.63 input  -57.11 | X-H torsion

> <Gold.Protein.ActiveResidues>
 VAL166  LYS551  ARG553  GLY616  TRP617  ASP618  TYR619  PRO620  LYS621  CYS622 
 ASP623  PHE694  ASN695  SER759  ASP760  ASP761  ALA762  ILE779  LEU786  VAL792 
 PHE793  MET794  SER795  GLU796  ALA797  LYS798  CYS799  TRP800  GLU811  SER814 

> <Gold.Protein.RotatedAtoms>
  150.7421  134.5910  159.5987 H   0  0  0  0  0  0  0  0  0  0  0  0  # atno 6907 bound_to 6896
  152.3298  134.7271  160.0301 H   0  0  0  0  0  0  0  0  0  0  0  0  # atno 6908 bound_to 6896
  151.7758  133.3309  159.3494 H   0  0  0  0  0  0  0  0  0  0  0  0  # atno 6909 bound_to 6896
  145.6750  139.2507  143.1846 H   0  0  0  0  0  0  0  0  0  0  0  0  # atno 7974 bound_to 7965
  154.8986  140.0413  157.1880 H   0  0  0  0  0  0  0  0  0  0  0  0  # atno 8008 bound_to 7997
  154.8467  140.2923  155.5603 H   0  0  0  0  0  0  0  0  0  0  0  0  # atno 8009 bound_to 7997
  156.2994  140.2472  156.3418 H   0  0  0  0  0  0  0  0  0  0  0  0  # atno 8010 bound_to 7997
  140.4105  143.2624  151.9024 H   0  0  0  0  0  0  0  0  0  0  0  0  # atno 10167 bound_to 10162
  156.7052  130.5105  149.5906 H   0  0  0  0  0  0  0  0  0  0  0  0  # atno 10718 bound_to 10713
  153.2233  135.4348  155.0513 H   0  0  0  0  0  0  0  0  0  0  0  0  # atno 10763 bound_to 10752
  154.8261  135.3361  154.6895 H   0  0  0  0  0  0  0  0  0  0  0  0  # atno 10764 bound_to 10752
  153.7326  135.7010  153.5042 H   0  0  0  0  0  0  0  0  0  0  0  0  # atno 10765 bound_to 10752
  140.9064  134.1625  157.4423 H   0  0  0  0  0  0  0  0  0  0  0  0  # atno 11005 bound_to 11000
  146.1013  140.7540  142.9548 LP  0  0  0  0  0  0  0  0  0  0  0  0  # atno 17320 bound_to 7965
  144.7044  140.3791  143.7130 LP  0  0  0  0  0  0  0  0  0  0  0  0  # atno 17321 bound_to 7965
  139.4782  144.5542  151.8340 LP  0  0  0  0  0  0  0  0  0  0  0  0  # atno 17342 bound_to 10162
  140.4643  144.1678  150.5910 LP  0  0  0  0  0  0  0  0  0  0  0  0  # atno 17343 bound_to 10162
  156.1700  130.6430  151.0825 LP  0  0  0  0  0  0  0  0  0  0  0  0  # atno 17370 bound_to 10713
  157.6957  131.0794  150.6975 LP  0  0  0  0  0  0  0  0  0  0  0  0  # atno 17371 bound_to 10713
  139.8750  134.9918  156.5567 LP  0  0  0  0  0  0  0  0  0  0  0  0  # atno 17394 bound_to 11000
  140.8166  133.8387  155.8858 LP  0  0  0  0  0  0  0  0  0  0  0  0  # atno 17395 bound_to 11000

$$$$
