AV-unprocessed.smi:3249|AV-procd|sdf|12422|dock4
  -GOLD-   2272018303D 1   1.00000     0.00000
 Structure written by MMmdl.
 44 45  0  0  0  0  0  0  0  0  2 V2000
  151.9246  136.7826  154.7327 C   0  0  0  0  0  0  0  0  0  0  0  0
  151.2797  138.1377  154.6864 C   0  0  0  0  0  0  0  0  0  0  0  0
  151.8334  139.3840  155.0941 C   0  0  0  0  0  0  0  0  0  0  0  0
  150.9980  140.3956  154.9268 N   0  0  0  0  0  0  0  0  0  0  0  0
  149.8855  139.8367  154.4001 N   0  0  0  0  0  0  0  0  0  0  0  0
  148.7182  140.6579  154.0958 C   0  0  1  0  0  0  0  0  0  0  0  0
  147.6472  139.7869  153.4130 C   0  0  0  0  0  0  0  0  0  0  0  0
  148.1905  141.4063  155.3515 C   0  0  2  0  0  0  0  0  0  0  0  0
  146.9851  142.3113  155.0303 C   0  0  0  0  0  0  0  0  0  0  0  0
  149.2794  142.2114  155.9544 N   0  3  0  0  0  0  0  0  0  0  0  0
  149.4139  142.0980  157.4222 C   0  0  0  0  0  0  0  0  0  0  0  0
  150.7667  142.6434  157.9043 C   0  0  1  0  0  0  0  0  0  0  0  0
  150.8578  144.1809  157.8057 C   0  0  0  0  0  0  0  0  0  0  0  0
  152.1821  144.6823  158.3928 C   0  0  0  0  0  0  0  0  0  0  0  0
  152.3598  144.1321  159.8117 C   0  0  0  0  0  0  0  0  0  0  0  0
  152.1908  142.6046  159.8165 C   0  0  0  0  0  0  0  0  0  0  0  0
  150.9236  142.2554  159.2670 O   0  0  0  0  0  0  0  0  0  0  0  0
  150.0268  138.4719  154.2566 C   0  0  0  0  0  0  0  0  0  0  0  0
  153.0085  136.8524  154.8262 H   0  0  0  0  0  0  0  0  0  0  0  0
  151.7174  136.2058  153.8310 H   0  0  0  0  0  0  0  0  0  0  0  0
  151.5662  136.1969  155.5794 H   0  0  0  0  0  0  0  0  0  0  0  0
  152.8119  139.5819  155.5067 H   0  0  0  0  0  0  0  0  0  0  0  0
  149.0432  141.4060  153.3709 H   0  0  0  0  0  0  0  0  0  0  0  0
  146.8326  140.3870  153.0091 H   0  0  0  0  0  0  0  0  0  0  0  0
  147.2187  139.0641  154.1081 H   0  0  0  0  0  0  0  0  0  0  0  0
  148.0724  139.2290  152.5778 H   0  0  0  0  0  0  0  0  0  0  0  0
  147.8740  140.6611  156.0832 H   0  0  0  0  0  0  0  0  0  0  0  0
  146.1369  141.7363  154.6607 H   0  0  0  0  0  0  0  0  0  0  0  0
  147.2384  143.0554  154.2744 H   0  0  0  0  0  0  0  0  0  0  0  0
  146.6332  142.8443  155.9130 H   0  0  0  0  0  0  0  0  0  0  0  0
  150.1478  141.8847  155.5543 H   0  0  0  0  0  0  0  0  0  0  0  0
  148.5987  142.6176  157.9254 H   0  0  0  0  0  0  0  0  0  0  0  0
  149.3354  141.0442  157.6932 H   0  0  0  0  0  0  0  0  0  0  0  0
  151.5640  142.1836  157.3171 H   0  0  0  0  0  0  0  0  0  0  0  0
  150.7697  144.5047  156.7683 H   0  0  0  0  0  0  0  0  0  0  0  0
  150.0262  144.6349  158.3465 H   0  0  0  0  0  0  0  0  0  0  0  0
  153.0109  144.3538  157.7644 H   0  0  0  0  0  0  0  0  0  0  0  0
  152.2073  145.7724  158.4015 H   0  0  0  0  0  0  0  0  0  0  0  0
  153.3398  144.4062  160.2034 H   0  0  0  0  0  0  0  0  0  0  0  0
  151.6202  144.5820  160.4755 H   0  0  0  0  0  0  0  0  0  0  0  0
  152.9902  142.1220  159.2517 H   0  0  0  0  0  0  0  0  0  0  0  0
  152.2487  142.2245  160.8368 H   0  0  0  0  0  0  0  0  0  0  0  0
  149.2318  137.8552  153.8635 H   0  0  0  0  0  0  0  0  0  0  0  0
  149.1537  143.1804  155.6994 H   0  0  0  0  0  0  0  0  0  0  0  0
  1  2  1  0  0  0  0
  1 19  1  0  0  0  0
  1 20  1  0  0  0  0
  1 21  1  0  0  0  0
  2 18  2  0  0  0  0
  2  3  1  0  0  0  0
  3  4  2  0  0  0  0
  3 22  1  0  0  0  0
  4  5  1  0  0  0  0
  5  6  1  0  0  0  0
  5 18  1  0  0  0  0
  6  7  1  0  0  0  0
  6  8  1  0  0  0  0
  6 23  1  0  0  0  0
  7 24  1  0  0  0  0
  7 25  1  0  0  0  0
  7 26  1  0  0  0  0
  8  9  1  0  0  0  0
  8 10  1  0  0  0  0
  8 27  1  0  0  0  0
  9 28  1  0  0  0  0
  9 29  1  0  0  0  0
  9 30  1  0  0  0  0
 10 11  1  0  0  0  0
 10 31  1  0  0  0  0
 10 44  1  0  0  0  0
 11 12  1  0  0  0  0
 11 32  1  0  0  0  0
 11 33  1  0  0  0  0
 12 17  1  0  0  0  0
 12 13  1  0  0  0  0
 12 34  1  0  0  0  0
 13 14  1  0  0  0  0
 13 35  1  0  0  0  0
 13 36  1  0  0  0  0
 14 15  1  0  0  0  0
 14 37  1  0  0  0  0
 14 38  1  0  0  0  0
 15 16  1  0  0  0  0
 15 39  1  0  0  0  0
 15 40  1  0  0  0  0
 16 17  1  0  0  0  0
 16 41  1  0  0  0  0
 16 42  1  0  0  0  0
 18 43  1  0  0  0  0
M  CHG  1  10   1
M  END
> <s_m_source_file>
AV-unprocessed.smi

> <i_m_source_file_index>
3249

> <i_lp_mmshare_version>
43012

> <i_f3d_flags>
0

> <s_epik_input>
W0NIM11jMVtjSF1ubihbY0hdMSlbQ0BIXShbQ0gzXSlbQ0BIXShbQ0gzXSlbTkhdW0NIMl1bQ0BASF0yW0NIMl1bQ0gyXVtDSDJdW0NIMl1PMg==

> <s_epik_cmdline>
J2VwaWtfcHl0aG9uJywgJy1waCcsICc3LjAnLCAnLXRuJywgJzgnLCAnLW1hJywgJzIwMCcsICctbWV0YWxfYmluZGluZycsICctaW1hZScsICc8aW5maWxlLm1hZT4nLCAnLW9tYWUnLCAnPG91dGZpbGUubWFlPic=

> <r_lp_tautomer_probability>
1

> <r_epik_Ionization_Penalty>
0.00659207

> <r_epik_Ionization_Penalty_Charging>
0.00656881

> <r_epik_Ionization_Penalty_Neutral>
2.32662e-05

> <r_epik_State_Penalty>
0.0048654

> <r_epik_Charging_Adjusted_Penalty>
0.0114342

> <i_epik_Tot_Q>
1

> <i_epik_Tot_abs_Q>
1

> <r_epik_Metal_State_Penalty>
-0

> <b_epik_Metal_Only>
0

> <s_lp_Force_Field>
OPLS_2005

> <r_lp_Energy>
17.782

> <b_lp_Chiralities_Consistent>
1

> <s_lp_Variant>
AV-unprocessed.smi:3249-6

> <Gold.Version>
5.8.1

> <Gold.Id.Protein>
6NUR|6NUR_protein|mol2

> <Gold.PLP.Fitness>
48.4925

> <Gold.PLP.PLP>
-38.4430

> <Gold.PLP.part.hbond>
-2.4219

> <Gold.PLP.part.metal>
0.0000

> <Gold.PLP.part.buried>
3.5517

> <Gold.PLP.part.nonpolar>
-39.3455

> <Gold.PLP.part.repulsive>
0.1658

> <Gold.PLP.ligand.clash>
0.0000

> <Gold.PLP.ligand.torsion>
0.7853

> <Gold.PLP.Chemscore.Hbond>
3.0000

> <Gold.PLP.Chemscore.CHOScore>
0.8287

> <Gold.PLP.Chemscore.Metal>
0.0000

> <Gold.Chemscore.Hbonds>
donor molecule, donor type, donor heavy atom, donor atom, acceptor molecule, acceptor atom, score
      L1  H    10    44       P1  8028  2.00
      P1  H  7989  7998       L1     4  0.60
      L1  C    18    43       P1  7948  0.90

> <Gold.PLP.Chemscore.Internal.Correction>
0.1341

> <Gold.Rescore>
     Score         DG    S(hbond)    S(metal)    S(lipo)     H(rot)  DE(clash)    DE(int)     intcor
     18.92     -21.19       1.90        0.00     113.62       1.53       1.21       1.06       ----

> <Gold.Chemscore.Fitness>
18.9194

> <Gold.Chemscore.DG>
-21.1934

> <Gold.Chemscore.ZeroCoef>
-5.4800

> <Gold.Chemscore.Hbond>
1.8998

> <Gold.Chemscore.Metal>
0.0000

> <Gold.Chemscore.Lipo>
113.6194

> <Gold.Chemscore.Internal_Hbond>
0.0000

> <Gold.Chemscore.DEClash>
1.2109

> <Gold.Chemscore.DEInternal>
1.0631

> <Gold.Chemscore.Rot>
1.5333

> <Gold.Chemscore.Internal.Correction>
   9.000000E+99

> <Gold.Chemscore.Hbonds>
donor molecule, donor type, donor heavy atom, donor atom, acceptor molecule, acceptor atom, score
      L1  H    10    44       P1  8028  0.96
      P1  H  7989  7998       L1     4  0.01

> <Gold.Chemscore.Hbond.Weighted>
-6.3452

> <Gold.Chemscore.Metal.Weighted>
-0.0000

> <Gold.Chemscore.Lipo.Weighted>
-13.2935

> <Gold.Chemscore.Internal_Hbond.Weighted>
0.0000

> <Gold.Chemscore.DEClash.Weighted>
1.2109

> <Gold.Chemscore.DEInternal.Weighted>
1.0631

> <Gold.Chemscore.Rot.Weighted>
3.9252

> <Gold.Chemscore.Internal.Correction.Weighted>
   9.000000E+99

> <Gold.Protein.RotatedTorsions>
[ 6907 6896 6895 6894 ] final  -54.32 input  -60.11 | X-H torsion
[ 7974 7965 7964 7962 ] final   83.09 input  175.53 | X-H torsion
[ 8008 7997 7996 7995 ] final   80.80 input   59.86 | X-H torsion
[ 10167 10162 10161 10158 ] final   11.40 input  -65.29 | X-H torsion
[ 10718 10713 10712 10709 ] final  -12.60 input   66.30 | X-H torsion
[ 10763 10752 10751 10750 ] final  -48.96 input  -60.55 | X-H torsion
[ 11005 11000 10999 10996 ] final  -31.02 input  -57.11 | X-H torsion

> <Gold.Protein.ActiveResidues>
 VAL166  LYS551  ARG553  GLY616  TRP617  ASP618  TYR619  PRO620  LYS621  CYS622 
 ASP623  PHE694  ASN695  SER759  ASP760  ASP761  ALA762  ILE779  LEU786  VAL792 
 PHE793  MET794  SER795  GLU796  ALA797  LYS798  CYS799  TRP800  GLU811  SER814 

> <Gold.Protein.RotatedAtoms>
  150.8348  134.7617  159.6883 H   0  0  0  0  0  0  0  0  0  0  0  0  # atno 6907 bound_to 6896
  152.4447  134.5516  159.9878 H   0  0  0  0  0  0  0  0  0  0  0  0  # atno 6908 bound_to 6896
  151.5669  133.3357  159.3018 H   0  0  0  0  0  0  0  0  0  0  0  0  # atno 6909 bound_to 6896
  145.6165  139.2378  143.2162 H   0  0  0  0  0  0  0  0  0  0  0  0  # atno 7974 bound_to 7965
  155.8885  140.3440  155.5939 H   0  0  0  0  0  0  0  0  0  0  0  0  # atno 8008 bound_to 7997
  155.7638  140.0836  157.2161 H   0  0  0  0  0  0  0  0  0  0  0  0  # atno 8009 bound_to 7997
  154.4031  140.1531  156.2850 H   0  0  0  0  0  0  0  0  0  0  0  0  # atno 8010 bound_to 7997
  140.6134  143.8360  150.7091 H   0  0  0  0  0  0  0  0  0  0  0  0  # atno 10167 bound_to 10162
  156.6423  130.4931  149.6090 H   0  0  0  0  0  0  0  0  0  0  0  0  # atno 10718 bound_to 10713
  154.0863  135.6584  153.4845 H   0  0  0  0  0  0  0  0  0  0  0  0  # atno 10763 bound_to 10752
  153.0338  135.5192  154.7425 H   0  0  0  0  0  0  0  0  0  0  0  0  # atno 10764 bound_to 10752
  154.6535  135.3004  154.9926 H   0  0  0  0  0  0  0  0  0  0  0  0  # atno 10765 bound_to 10752
  140.9433  133.7265  156.1108 H   0  0  0  0  0  0  0  0  0  0  0  0  # atno 11005 bound_to 11000
  146.1464  140.6987  142.9343 LP  0  0  0  0  0  0  0  0  0  0  0  0  # atno 17320 bound_to 7965
  144.7248  140.4491  143.6981 LP  0  0  0  0  0  0  0  0  0  0  0  0  # atno 17321 bound_to 7965
  140.1933  143.4018  152.1847 LP  0  0  0  0  0  0  0  0  0  0  0  0  # atno 17342 bound_to 10162
  139.5379  144.7228  151.4831 LP  0  0  0  0  0  0  0  0  0  0  0  0  # atno 17343 bound_to 10162
  156.2149  130.6701  151.1308 LP  0  0  0  0  0  0  0  0  0  0  0  0  # atno 17370 bound_to 10713
  157.7167  131.0705  150.6299 LP  0  0  0  0  0  0  0  0  0  0  0  0  # atno 17371 bound_to 10713
  140.7704  134.3839  157.5508 LP  0  0  0  0  0  0  0  0  0  0  0  0  # atno 17394 bound_to 11000
  139.8826  134.9018  156.2819 LP  0  0  0  0  0  0  0  0  0  0  0  0  # atno 17395 bound_to 11000

$$$$
