AV-unprocessed.smi:3249|AV-procd|sdf|12422|dock10
  -GOLD-   2272018303D 1   1.00000     0.00000
 Structure written by MMmdl.
 44 45  0  0  0  0  0  0  0  0  2 V2000
  150.5629  136.1225  156.0206 C   0  0  0  0  0  0  0  0  0  0  0  0
  150.5746  137.5345  155.5102 C   0  0  0  0  0  0  0  0  0  0  0  0
  151.0390  138.0048  154.2495 C   0  0  0  0  0  0  0  0  0  0  0  0
  150.9141  139.3143  154.1129 N   0  0  0  0  0  0  0  0  0  0  0  0
  150.3596  139.7278  155.2744 N   0  0  0  0  0  0  0  0  0  0  0  0
  150.0883  141.1435  155.5018 C   0  0  1  0  0  0  0  0  0  0  0  0
  149.1214  141.6567  154.4186 C   0  0  0  0  0  0  0  0  0  0  0  0
  149.5884  141.4147  156.9481 C   0  0  2  0  0  0  0  0  0  0  0  0
  148.0611  141.2560  157.0791 C   0  0  0  0  0  0  0  0  0  0  0  0
  149.9927  142.7754  157.3754 N   0  3  0  0  0  0  0  0  0  0  0  0
  151.4399  143.0639  157.2879 C   0  0  0  0  0  0  0  0  0  0  0  0
  151.9953  143.5551  158.6333 C   0  0  1  0  0  0  0  0  0  0  0  0
  151.1790  144.7245  159.2229 C   0  0  0  0  0  0  0  0  0  0  0  0
  151.7091  145.1086  160.6091 C   0  0  0  0  0  0  0  0  0  0  0  0
  151.7636  143.8663  161.5042 C   0  0  0  0  0  0  0  0  0  0  0  0
  152.5423  142.7399  160.8065 C   0  0  0  0  0  0  0  0  0  0  0  0
  151.9539  142.4561  159.5404 O   0  0  0  0  0  0  0  0  0  0  0  0
  150.1562  138.6726  156.1394 C   0  0  0  0  0  0  0  0  0  0  0  0
  150.6628  135.3983  155.2120 H   0  0  0  0  0  0  0  0  0  0  0  0
  149.6359  135.8907  156.5455 H   0  0  0  0  0  0  0  0  0  0  0  0
  151.3816  135.9413  156.7171 H   0  0  0  0  0  0  0  0  0  0  0  0
  151.4630  137.4362  153.4348 H   0  0  0  0  0  0  0  0  0  0  0  0
  151.0361  141.6682  155.3702 H   0  0  0  0  0  0  0  0  0  0  0  0
  149.0269  142.7418  154.4395 H   0  0  0  0  0  0  0  0  0  0  0  0
  148.1247  141.2309  154.5398 H   0  0  0  0  0  0  0  0  0  0  0  0
  149.4748  141.3899  153.4218 H   0  0  0  0  0  0  0  0  0  0  0  0
  150.0662  140.6939  157.6136 H   0  0  0  0  0  0  0  0  0  0  0  0
  147.7406  140.2404  156.8499 H   0  0  0  0  0  0  0  0  0  0  0  0
  147.5330  141.9323  156.4061 H   0  0  0  0  0  0  0  0  0  0  0  0
  147.7184  141.4645  158.0921 H   0  0  0  0  0  0  0  0  0  0  0  0
  149.5257  143.4305  156.7641 H   0  0  0  0  0  0  0  0  0  0  0  0
  151.9890  142.1837  156.9539 H   0  0  0  0  0  0  0  0  0  0  0  0
  151.5902  143.8381  156.5341 H   0  0  0  0  0  0  0  0  0  0  0  0
  153.0360  143.8565  158.4986 H   0  0  0  0  0  0  0  0  0  0  0  0
  151.2172  145.5908  158.5620 H   0  0  0  0  0  0  0  0  0  0  0  0
  150.1293  144.4382  159.3025 H   0  0  0  0  0  0  0  0  0  0  0  0
  152.7072  145.5384  160.5151 H   0  0  0  0  0  0  0  0  0  0  0  0
  151.0782  145.8752  161.0600 H   0  0  0  0  0  0  0  0  0  0  0  0
  152.2257  144.1099  162.4613 H   0  0  0  0  0  0  0  0  0  0  0  0
  150.7504  143.5266  161.7232 H   0  0  0  0  0  0  0  0  0  0  0  0
  153.5916  143.0117  160.6799 H   0  0  0  0  0  0  0  0  0  0  0  0
  152.5197  141.8359  161.4156 H   0  0  0  0  0  0  0  0  0  0  0  0
  149.7336  138.8159  157.1232 H   0  0  0  0  0  0  0  0  0  0  0  0
  149.6720  142.9339  158.3198 H   0  0  0  0  0  0  0  0  0  0  0  0
  1  2  1  0  0  0  0
  1 19  1  0  0  0  0
  1 20  1  0  0  0  0
  1 21  1  0  0  0  0
  2 18  2  0  0  0  0
  2  3  1  0  0  0  0
  3  4  2  0  0  0  0
  3 22  1  0  0  0  0
  4  5  1  0  0  0  0
  5  6  1  0  0  0  0
  5 18  1  0  0  0  0
  6  7  1  0  0  0  0
  6  8  1  0  0  0  0
  6 23  1  0  0  0  0
  7 24  1  0  0  0  0
  7 25  1  0  0  0  0
  7 26  1  0  0  0  0
  8  9  1  0  0  0  0
  8 10  1  0  0  0  0
  8 27  1  0  0  0  0
  9 28  1  0  0  0  0
  9 29  1  0  0  0  0
  9 30  1  0  0  0  0
 10 11  1  0  0  0  0
 10 31  1  0  0  0  0
 10 44  1  0  0  0  0
 11 12  1  0  0  0  0
 11 32  1  0  0  0  0
 11 33  1  0  0  0  0
 12 17  1  0  0  0  0
 12 13  1  0  0  0  0
 12 34  1  0  0  0  0
 13 14  1  0  0  0  0
 13 35  1  0  0  0  0
 13 36  1  0  0  0  0
 14 15  1  0  0  0  0
 14 37  1  0  0  0  0
 14 38  1  0  0  0  0
 15 16  1  0  0  0  0
 15 39  1  0  0  0  0
 15 40  1  0  0  0  0
 16 17  1  0  0  0  0
 16 41  1  0  0  0  0
 16 42  1  0  0  0  0
 18 43  1  0  0  0  0
M  CHG  1  10   1
M  END
> <s_m_source_file>
AV-unprocessed.smi

> <i_m_source_file_index>
3249

> <i_lp_mmshare_version>
43012

> <i_f3d_flags>
0

> <s_epik_input>
W0NIM11jMVtjSF1ubihbY0hdMSlbQ0BIXShbQ0gzXSlbQ0BIXShbQ0gzXSlbTkhdW0NIMl1bQ0BASF0yW0NIMl1bQ0gyXVtDSDJdW0NIMl1PMg==

> <s_epik_cmdline>
J2VwaWtfcHl0aG9uJywgJy1waCcsICc3LjAnLCAnLXRuJywgJzgnLCAnLW1hJywgJzIwMCcsICctbWV0YWxfYmluZGluZycsICctaW1hZScsICc8aW5maWxlLm1hZT4nLCAnLW9tYWUnLCAnPG91dGZpbGUubWFlPic=

> <r_lp_tautomer_probability>
1

> <r_epik_Ionization_Penalty>
0.00659207

> <r_epik_Ionization_Penalty_Charging>
0.00656881

> <r_epik_Ionization_Penalty_Neutral>
2.32662e-05

> <r_epik_State_Penalty>
0.0048654

> <r_epik_Charging_Adjusted_Penalty>
0.0114342

> <i_epik_Tot_Q>
1

> <i_epik_Tot_abs_Q>
1

> <r_epik_Metal_State_Penalty>
-0

> <b_epik_Metal_Only>
0

> <s_lp_Force_Field>
OPLS_2005

> <r_lp_Energy>
17.782

> <b_lp_Chiralities_Consistent>
1

> <s_lp_Variant>
AV-unprocessed.smi:3249-6

> <Gold.Version>
5.8.1

> <Gold.Id.Protein>
6NUR|6NUR_protein|mol2

> <Gold.PLP.Fitness>
50.7152

> <Gold.PLP.PLP>
-40.7042

> <Gold.PLP.part.hbond>
-2.0000

> <Gold.PLP.part.metal>
0.0000

> <Gold.PLP.part.buried>
-4.9215

> <Gold.PLP.part.nonpolar>
-34.3650

> <Gold.PLP.part.repulsive>
0.2045

> <Gold.PLP.ligand.clash>
0.0000

> <Gold.PLP.ligand.torsion>
1.0400

> <Gold.PLP.Chemscore.Hbond>
3.0000

> <Gold.PLP.Chemscore.CHOScore>
1.0000

> <Gold.PLP.Chemscore.Metal>
0.0000

> <Gold.Chemscore.Hbonds>
donor molecule, donor type, donor heavy atom, donor atom, acceptor molecule, acceptor atom, score
      L1  H    10    31       P1  8028  2.00
      P1  H  7989  7998       L1     4  1.00
      L1  C     3    22       P1  7949  1.00

> <Gold.PLP.Chemscore.Internal.Correction>
0.0911

> <Gold.Rescore>
     Score         DG    S(hbond)    S(metal)    S(lipo)     H(rot)  DE(clash)    DE(int)     intcor
     19.20     -20.95       1.71        0.00     116.89       1.53       0.37       1.39       ----

> <Gold.Chemscore.Fitness>
19.2008

> <Gold.Chemscore.DG>
-20.9543

> <Gold.Chemscore.ZeroCoef>
-5.4800

> <Gold.Chemscore.Hbond>
1.7136

> <Gold.Chemscore.Metal>
0.0000

> <Gold.Chemscore.Lipo>
116.8892

> <Gold.Chemscore.Internal_Hbond>
0.0000

> <Gold.Chemscore.DEClash>
0.3682

> <Gold.Chemscore.DEInternal>
1.3853

> <Gold.Chemscore.Rot>
1.5333

> <Gold.Chemscore.Internal.Correction>
   9.000000E+99

> <Gold.Chemscore.Hbonds>
donor molecule, donor type, donor heavy atom, donor atom, acceptor molecule, acceptor atom, score
      L1  H    10    31       P1  8028  0.99
      P1  H  7989  7998       L1     4  0.35

> <Gold.Chemscore.Hbond.Weighted>
-5.7235

> <Gold.Chemscore.Metal.Weighted>
-0.0000

> <Gold.Chemscore.Lipo.Weighted>
-13.6760

> <Gold.Chemscore.Internal_Hbond.Weighted>
0.0000

> <Gold.Chemscore.DEClash.Weighted>
0.3682

> <Gold.Chemscore.DEInternal.Weighted>
1.3853

> <Gold.Chemscore.Rot.Weighted>
3.9252

> <Gold.Chemscore.Internal.Correction.Weighted>
   9.000000E+99

> <Gold.Protein.RotatedTorsions>
[ 6907 6896 6895 6894 ] final  -71.76 input  -60.11 | X-H torsion
[ 7974 7965 7964 7962 ] final   67.92 input  175.53 | X-H torsion
[ 8008 7997 7996 7995 ] final  151.25 input   59.86 | X-H torsion
[ 10167 10162 10161 10158 ] final  -87.42 input  -65.29 | X-H torsion
[ 10718 10713 10712 10709 ] final   80.54 input   66.30 | X-H torsion
[ 10763 10752 10751 10750 ] final  -45.58 input  -60.55 | X-H torsion
[ 11005 11000 10999 10996 ] final   90.57 input  -57.11 | X-H torsion

> <Gold.Protein.ActiveResidues>
 VAL166  LYS551  ARG553  GLY616  TRP617  ASP618  TYR619  PRO620  LYS621  CYS622 
 ASP623  PHE694  ASN695  SER759  ASP760  ASP761  ALA762  ILE779  LEU786  VAL792 
 PHE793  MET794  SER795  GLU796  ALA797  LYS798  CYS799  TRP800  GLU811  SER814 

> <Gold.Protein.RotatedAtoms>
  150.7198  134.5261  159.5677 H   0  0  0  0  0  0  0  0  0  0  0  0  # atno 6907 bound_to 6896
  152.2805  134.7831  160.0406 H   0  0  0  0  0  0  0  0  0  0  0  0  # atno 6908 bound_to 6896
  151.8479  133.3399  159.3700 H   0  0  0  0  0  0  0  0  0  0  0  0  # atno 6909 bound_to 6896
  145.8088  139.3021  143.1111 H   0  0  0  0  0  0  0  0  0  0  0  0  # atno 7974 bound_to 7965
  156.2681  140.2053  156.6147 H   0  0  0  0  0  0  0  0  0  0  0  0  # atno 8008 bound_to 7997
  154.6804  140.0540  157.0284 H   0  0  0  0  0  0  0  0  0  0  0  0  # atno 8009 bound_to 7997
  155.1009  140.3206  155.4550 H   0  0  0  0  0  0  0  0  0  0  0  0  # atno 8010 bound_to 7997
  140.3846  143.2732  151.9341 H   0  0  0  0  0  0  0  0  0  0  0  0  # atno 10167 bound_to 10162
  157.6809  130.9964  150.2094 H   0  0  0  0  0  0  0  0  0  0  0  0  # atno 10718 bound_to 10713
  154.0309  135.6657  153.4780 H   0  0  0  0  0  0  0  0  0  0  0  0  # atno 10763 bound_to 10752
  153.0541  135.5067  154.7933 H   0  0  0  0  0  0  0  0  0  0  0  0  # atno 10764 bound_to 10752
  154.6879  135.3056  154.9487 H   0  0  0  0  0  0  0  0  0  0  0  0  # atno 10765 bound_to 10752
  139.8854  134.8621  156.3303 H   0  0  0  0  0  0  0  0  0  0  0  0  # atno 11005 bound_to 11000
  145.9799  140.8691  143.0119 LP  0  0  0  0  0  0  0  0  0  0  0  0  # atno 17320 bound_to 7965
  144.6760  140.2066  143.7381 LP  0  0  0  0  0  0  0  0  0  0  0  0  # atno 17321 bound_to 7965
  139.4793  144.5786  151.7970 LP  0  0  0  0  0  0  0  0  0  0  0  0  # atno 17342 bound_to 10162
  140.4902  144.1321  150.5949 LP  0  0  0  0  0  0  0  0  0  0  0  0  # atno 17343 bound_to 10162
  156.2768  130.3728  149.7975 LP  0  0  0  0  0  0  0  0  0  0  0  0  # atno 17370 bound_to 10713
  156.5676  130.8410  151.3347 LP  0  0  0  0  0  0  0  0  0  0  0  0  # atno 17371 bound_to 10713
  140.9727  133.7317  156.0558 LP  0  0  0  0  0  0  0  0  0  0  0  0  # atno 17394 bound_to 11000
  140.7850  134.3682  157.5478 LP  0  0  0  0  0  0  0  0  0  0  0  0  # atno 17395 bound_to 11000

$$$$
