AV-unprocessed.smi:2703|AV-procd|sdf|10440|dock5
  -GOLD-   2272014483D 1   1.00000     0.00000
 Structure written by MMmdl.
 43 45  0  0  0  0  0  0  0  0  4 V2000
  152.2714  143.8936  160.6653 C   0  0  0  0  0  0  0  0  0  0  0  0
  152.0133  142.9513  159.5018 C   0  0  0  0  0  0  0  0  0  0  0  0
  151.1528  143.3786  158.4657 C   0  0  0  0  0  0  0  0  0  0  0  0
  150.9348  142.4935  157.4166 C   0  0  0  0  0  0  0  0  0  0  0  0
  150.1501  142.6137  156.2679 N   0  3  0  0  0  0  0  0  0  0  0  0
  150.2512  141.4757  155.5274 C   0  0  0  0  0  0  0  0  0  0  0  0
  151.0910  140.6307  156.1847 N   0  0  0  0  0  0  0  0  0  0  0  0
  151.5335  139.2779  155.8168 C   0  0  0  0  0  0  0  0  0  0  0  0
  150.7165  138.1721  156.5134 C   0  0  2  0  0  0  0  0  0  0  0  0
  151.1028  138.0690  157.8707 O   0  0  0  0  0  0  0  0  0  0  0  0
  150.8992  136.8083  155.8277 C   0  0  0  0  0  0  0  0  0  0  0  0
  149.9923  135.4840  156.6791 S   0  0  0  0  0  0  0  0  0  0  0  0
  149.8252  134.1161  155.5569 C   0  0  0  0  0  0  0  0  0  0  0  0
  149.3065  134.2736  154.2525 C   0  0  0  0  0  0  0  0  0  0  0  0
  149.1963  133.1586  153.4075 C   0  0  0  0  0  0  0  0  0  0  0  0
  149.6074  131.9049  153.8832 C   0  0  0  0  0  0  0  0  0  0  0  0
  150.1179  131.7939  155.1907 C   0  0  0  0  0  0  0  0  0  0  0  0
  150.2246  132.8816  156.0146 N   0  3  0  0  0  0  0  0  0  0  0  0
  150.6967  132.7270  157.2023 O   0  5  0  0  0  0  0  0  0  0  0  0
  151.5411  141.2227  157.3712 C   0  0  0  0  0  0  0  0  0  0  0  0
  152.3915  140.7864  158.3849 C   0  0  0  0  0  0  0  0  0  0  0  0
  152.6237  141.6710  159.4624 C   0  0  0  0  0  0  0  0  0  0  0  0
  153.5443  141.2202  160.5838 C   0  0  0  0  0  0  0  0  0  0  0  0
  151.7426  144.8387  160.5387 H   0  0  0  0  0  0  0  0  0  0  0  0
  153.3353  144.1166  160.7496 H   0  0  0  0  0  0  0  0  0  0  0  0
  151.9353  143.4466  161.6010 H   0  0  0  0  0  0  0  0  0  0  0  0
  150.6834  144.3512  158.4901 H   0  0  0  0  0  0  0  0  0  0  0  0
  149.7542  141.2786  154.5885 H   0  0  0  0  0  0  0  0  0  0  0  0
  151.4238  139.1915  154.7351 H   0  0  0  0  0  0  0  0  0  0  0  0
  152.5991  139.1759  156.0229 H   0  0  0  0  0  0  0  0  0  0  0  0
  149.6608  138.4453  156.4867 H   0  0  0  0  0  0  0  0  0  0  0  0
  151.1254  138.9361  158.2452 H   0  0  0  0  0  0  0  0  0  0  0  0
  150.5326  136.8626  154.8022 H   0  0  0  0  0  0  0  0  0  0  0  0
  151.9570  136.5469  155.7796 H   0  0  0  0  0  0  0  0  0  0  0  0
  148.9893  135.2380  153.8879 H   0  0  0  0  0  0  0  0  0  0  0  0
  148.8005  133.2640  152.4079 H   0  0  0  0  0  0  0  0  0  0  0  0
  149.5326  131.0311  153.2529 H   0  0  0  0  0  0  0  0  0  0  0  0
  150.4528  130.8630  155.6252 H   0  0  0  0  0  0  0  0  0  0  0  0
  152.8543  139.8114  158.3591 H   0  0  0  0  0  0  0  0  0  0  0  0
  153.9257  140.2141  160.4070 H   0  0  0  0  0  0  0  0  0  0  0  0
  153.0129  141.2119  161.5357 H   0  0  0  0  0  0  0  0  0  0  0  0
  154.4000  141.8902  160.6695 H   0  0  0  0  0  0  0  0  0  0  0  0
  149.5845  143.4113  156.0070 H   0  0  0  0  0  0  0  0  0  0  0  0
  1  2  1  0  0  0  0
  1 24  1  0  0  0  0
  1 25  1  0  0  0  0
  1 26  1  0  0  0  0
  2 22  1  0  0  0  0
  2  3  2  0  0  0  0
  3  4  1  0  0  0  0
  3 27  1  0  0  0  0
  4 20  2  0  0  0  0
  4  5  1  0  0  0  0
  5  6  2  0  0  0  0
  5 43  1  0  0  0  0
  6  7  1  0  0  0  0
  6 28  1  0  0  0  0
  7  8  1  0  0  0  0
  7 20  1  0  0  0  0
  8  9  1  0  0  0  0
  8 29  1  0  0  0  0
  8 30  1  0  0  0  0
  9 10  1  0  0  0  0
  9 11  1  0  0  0  0
  9 31  1  0  0  0  0
 10 32  1  0  0  0  0
 11 12  1  0  0  0  0
 11 33  1  0  0  0  0
 11 34  1  0  0  0  0
 12 13  1  0  0  0  0
 13 18  1  0  0  0  0
 13 14  2  0  0  0  0
 14 15  1  0  0  0  0
 14 35  1  0  0  0  0
 15 16  2  0  0  0  0
 15 36  1  0  0  0  0
 16 17  1  0  0  0  0
 16 37  1  0  0  0  0
 17 18  2  0  0  0  0
 17 38  1  0  0  0  0
 18 19  1  0  0  0  0
 20 21  1  0  0  0  0
 21 22  2  0  0  0  0
 21 39  1  0  0  0  0
 22 23  1  0  0  0  0
 23 40  1  0  0  0  0
 23 41  1  0  0  0  0
 23 42  1  0  0  0  0
M  CHG  1   5   1
M  CHG  1  18   1
M  CHG  1  19  -1
M  END
> <s_m_source_file>
AV-unprocessed.smi

> <i_m_source_file_index>
2703

> <i_lp_mmshare_version>
43012

> <i_f3d_flags>
0

> <s_epik_input>
W0NIM11jKFtjSF0xKWMoW0NIM10pW2NIXWMoYzEyKW4oW2NIXW4yKVtDSDJdW0NASF0oW09IXSlbQ0gyXVNjM1tjSF1bY0hdW2NIXVtjSF1bbitdM1tPLV0=

> <s_epik_cmdline>
J2VwaWtfcHl0aG9uJywgJy1waCcsICc3LjAnLCAnLXRuJywgJzgnLCAnLW1hJywgJzIwMCcsICctbWV0YWxfYmluZGluZycsICctaW1hZScsICc8aW5maWxlLm1hZT4nLCAnLW9tYWUnLCAnPG91dGZpbGUubWFlPic=

> <r_epik_Ionization_Penalty>
1.07182

> <r_epik_Ionization_Penalty_Charging>
1.07181

> <r_epik_Ionization_Penalty_Neutral>
2.88913e-06

> <r_epik_State_Penalty>
1.12646

> <r_epik_Charging_Adjusted_Penalty>
2.19828

> <i_epik_Tot_Q>
1

> <i_epik_Tot_abs_Q>
3

> <r_epik_Metal_State_Penalty>
5.12345

> <b_epik_Metal_Only>
0

> <s_lp_Force_Field>
OPLS_2005

> <r_lp_Energy>
22.2033

> <b_lp_Chiralities_Consistent>
1

> <s_lp_Variant>
AV-unprocessed.smi:2703-3

> <Gold.Version>
5.8.1

> <Gold.Id.Protein>
6NUR|6NUR_protein|mol2

> <Gold.PLP.Fitness>
55.1747

> <Gold.PLP.PLP>
-47.3427

> <Gold.PLP.part.hbond>
-2.0000

> <Gold.PLP.part.metal>
0.0000

> <Gold.PLP.part.buried>
-5.7443

> <Gold.PLP.part.nonpolar>
-39.4639

> <Gold.PLP.part.repulsive>
0.0991

> <Gold.PLP.ligand.clash>
0.0000

> <Gold.PLP.ligand.torsion>
0.5942

> <Gold.PLP.Chemscore.Hbond>
3.0000

> <Gold.PLP.Chemscore.CHOScore>
0.0000

> <Gold.PLP.Chemscore.Metal>
0.0000

> <Gold.Chemscore.Hbonds>
donor molecule, donor type, donor heavy atom, donor atom, acceptor molecule, acceptor atom, score
      L1  H     5    43       P1  8028  1.95
      P1  H  6896  6907       L1    19  0.65

> <Gold.PLP.Chemscore.Internal.Correction>
0.0205

> <Gold.Rescore>
     Score         DG    S(hbond)    S(metal)    S(lipo)     H(rot)  DE(clash)    DE(int)     intcor
     19.63     -20.46       2.00        0.00     121.98       2.33       0.05       0.78       ----

> <Gold.Chemscore.Fitness>
19.6265

> <Gold.Chemscore.DG>
-20.4572

> <Gold.Chemscore.ZeroCoef>
-5.4800

> <Gold.Chemscore.Hbond>
1.9950

> <Gold.Chemscore.Metal>
0.0000

> <Gold.Chemscore.Lipo>
121.9832

> <Gold.Chemscore.Internal_Hbond>
0.0000

> <Gold.Chemscore.DEClash>
0.0459

> <Gold.Chemscore.DEInternal>
0.7848

> <Gold.Chemscore.Rot>
2.3274

> <Gold.Chemscore.Internal.Correction>
   9.000000E+99

> <Gold.Chemscore.Hbonds>
donor molecule, donor type, donor heavy atom, donor atom, acceptor molecule, acceptor atom, score
      L1  H     5    43       P1  8028  0.92
      P1  H  6896  6907       L1    19  0.64

> <Gold.Chemscore.Hbond.Weighted>
-6.6634

> <Gold.Chemscore.Metal.Weighted>
-0.0000

> <Gold.Chemscore.Lipo.Weighted>
-14.2720

> <Gold.Chemscore.Internal_Hbond.Weighted>
0.0000

> <Gold.Chemscore.DEClash.Weighted>
0.0459

> <Gold.Chemscore.DEInternal.Weighted>
0.7848

> <Gold.Chemscore.Rot.Weighted>
5.9583

> <Gold.Chemscore.Internal.Correction.Weighted>
   9.000000E+99

> <Gold.Protein.RotatedTorsions>
[ 6907 6896 6895 6894 ] final -151.03 input  -60.11 | X-H torsion
[ 7974 7965 7964 7962 ] final  -45.50 input  175.53 | X-H torsion
[ 8008 7997 7996 7995 ] final   98.82 input   59.86 | X-H torsion
[ 10167 10162 10161 10158 ] final -153.61 input  -65.29 | X-H torsion
[ 10718 10713 10712 10709 ] final  -26.85 input   66.30 | X-H torsion
[ 10763 10752 10751 10750 ] final  -42.97 input  -60.55 | X-H torsion
[ 11005 11000 10999 10996 ] final -144.62 input  -57.11 | X-H torsion

> <Gold.Protein.ActiveResidues>
 VAL166  LYS551  ARG553  GLY616  TRP617  ASP618  TYR619  PRO620  LYS621  CYS622 
 ASP623  PHE694  ASN695  SER759  ASP760  ASP761  ALA762  ILE779  LEU786  VAL792 
 PHE793  MET794  SER795  GLU796  ALA797  LYS798  CYS799  TRP800  GLU811  SER814 

> <Gold.Protein.RotatedAtoms>
  151.2072  133.4577  159.2597 H   0  0  0  0  0  0  0  0  0  0  0  0  # atno 6907 bound_to 6896
  151.1012  134.9973  159.8459 H   0  0  0  0  0  0  0  0  0  0  0  0  # atno 6908 bound_to 6896
  152.5443  134.1998  159.8760 H   0  0  0  0  0  0  0  0  0  0  0  0  # atno 6909 bound_to 6896
  145.9814  140.7279  142.9361 H   0  0  0  0  0  0  0  0  0  0  0  0  # atno 7974 bound_to 7965
  156.1042  140.3238  155.7984 H   0  0  0  0  0  0  0  0  0  0  0  0  # atno 8008 bound_to 7997
  155.4784  140.0552  157.2987 H   0  0  0  0  0  0  0  0  0  0  0  0  # atno 8009 bound_to 7997
  154.4717  140.2014  155.9993 H   0  0  0  0  0  0  0  0  0  0  0  0  # atno 8010 bound_to 7997
  139.7083  143.9151  152.2457 H   0  0  0  0  0  0  0  0  0  0  0  0  # atno 10167 bound_to 10162
  156.4458  130.4473  149.7022 H   0  0  0  0  0  0  0  0  0  0  0  0  # atno 10718 bound_to 10713
  153.9879  135.6709  153.4753 H   0  0  0  0  0  0  0  0  0  0  0  0  # atno 10763 bound_to 10752
  153.0718  135.4970  154.8318 H   0  0  0  0  0  0  0  0  0  0  0  0  # atno 10764 bound_to 10752
  154.7126  135.3100  154.9135 H   0  0  0  0  0  0  0  0  0  0  0  0  # atno 10765 bound_to 10752
  140.8006  134.2862  157.4980 H   0  0  0  0  0  0  0  0  0  0  0  0  # atno 11005 bound_to 11000
  144.6862  140.2915  143.7277 LP  0  0  0  0  0  0  0  0  0  0  0  0  # atno 17320 bound_to 7965
  145.7764  139.1875  143.2183 LP  0  0  0  0  0  0  0  0  0  0  0  0  # atno 17321 bound_to 7965
  139.9013  144.6910  150.8663 LP  0  0  0  0  0  0  0  0  0  0  0  0  # atno 17342 bound_to 10162
  140.7727  143.3512  151.2011 LP  0  0  0  0  0  0  0  0  0  0  0  0  # atno 17343 bound_to 10162
  156.3869  130.7607  151.2605 LP  0  0  0  0  0  0  0  0  0  0  0  0  # atno 17370 bound_to 10713
  157.7505  131.0279  150.4027 LP  0  0  0  0  0  0  0  0  0  0  0  0  # atno 17371 bound_to 10713
  139.8722  134.9427  156.3832 LP  0  0  0  0  0  0  0  0  0  0  0  0  # atno 17394 bound_to 11000
  140.9299  133.7586  156.0011 LP  0  0  0  0  0  0  0  0  0  0  0  0  # atno 17395 bound_to 11000

$$$$
