AV-unprocessed.smi:2641|AV-procd|sdf|10272|dock6
  -GOLD-   2272014283D 1   1.00000     0.00000
 Structure written by MMmdl.
 39 40  0  0  0  0  0  0  0  0  2 V2000
  151.9274  145.4757  159.4558 C   0  0  0  0  0  0  0  0  0  0  0  0
  152.2565  144.0069  159.6226 C   0  0  0  0  0  0  0  0  0  0  0  0
  152.7896  143.5179  160.8340 C   0  0  0  0  0  0  0  0  0  0  0  0
  153.0733  142.1422  160.9343 C   0  0  0  0  0  0  0  0  0  0  0  0
  152.8136  141.3111  159.8249 C   0  0  0  0  0  0  0  0  0  0  0  0
  153.0940  139.8200  159.8852 C   0  0  0  0  0  0  0  0  0  0  0  0
  152.9668  139.1904  158.4968 C   0  0  0  0  0  0  0  0  0  0  0  0
  153.9861  138.9465  157.8525 O   0  0  0  0  0  0  0  0  0  0  0  0
  151.7089  138.9433  158.0849 N   0  0  0  0  0  0  0  0  0  0  0  0
  151.1715  138.3441  156.8516 C   0  0  0  0  0  0  0  0  0  0  0  0
  151.3721  136.8162  157.0280 C   0  0  0  0  0  0  0  0  0  0  0  0
  152.0297  136.2071  156.1541 O   0  0  0  0  0  0  0  0  0  0  0  0
  150.8265  136.2626  158.0089 O   0  5  0  0  0  0  0  0  0  0  0  0
  149.6601  138.7103  156.7942 C   0  0  0  0  0  0  0  0  0  0  0  0
  148.9503  138.1966  155.5255 C   0  0  0  0  0  0  0  0  0  0  0  0
  149.6489  138.6982  154.2540 C   0  0  0  0  0  0  0  0  0  0  0  0
  151.1394  138.3305  154.2590 C   0  0  0  0  0  0  0  0  0  0  0  0
  151.8365  138.8516  155.5312 C   0  0  0  0  0  0  0  0  0  0  0  0
  152.2831  141.9015  158.6581 C   0  0  0  0  0  0  0  0  0  0  0  0
  152.0076  143.2195  158.5528 N   0  0  0  0  0  0  0  0  0  0  0  0
  152.0715  146.0218  160.3885 H   0  0  0  0  0  0  0  0  0  0  0  0
  150.8889  145.6008  159.1473 H   0  0  0  0  0  0  0  0  0  0  0  0
  152.5688  145.9234  158.6964 H   0  0  0  0  0  0  0  0  0  0  0  0
  152.9775  144.1781  161.6683 H   0  0  0  0  0  0  0  0  0  0  0  0
  153.4822  141.7339  161.8470 H   0  0  0  0  0  0  0  0  0  0  0  0
  154.1012  139.6461  160.2656 H   0  0  0  0  0  0  0  0  0  0  0  0
  152.4071  139.3471  160.5890 H   0  0  0  0  0  0  0  0  0  0  0  0
  150.9908  139.1932  158.7490 H   0  0  0  0  0  0  0  0  0  0  0  0
  149.1336  138.3449  157.6772 H   0  0  0  0  0  0  0  0  0  0  0  0
  149.5577  139.7960  156.8303 H   0  0  0  0  0  0  0  0  0  0  0  0
  148.9237  137.1064  155.5240 H   0  0  0  0  0  0  0  0  0  0  0  0
  147.9106  138.5248  155.5275 H   0  0  0  0  0  0  0  0  0  0  0  0
  149.1643  138.2795  153.3718 H   0  0  0  0  0  0  0  0  0  0  0  0
  149.5413  139.7814  154.1825 H   0  0  0  0  0  0  0  0  0  0  0  0
  151.2523  137.2487  154.1807 H   0  0  0  0  0  0  0  0  0  0  0  0
  151.6239  138.7501  153.3770 H   0  0  0  0  0  0  0  0  0  0  0  0
  151.7936  139.9408  155.4994 H   0  0  0  0  0  0  0  0  0  0  0  0
  152.8952  138.5911  155.4939 H   0  0  0  0  0  0  0  0  0  0  0  0
  152.0724  141.3002  157.7857 H   0  0  0  0  0  0  0  0  0  0  0  0
  1  2  1  0  0  0  0
  1 21  1  0  0  0  0
  1 22  1  0  0  0  0
  1 23  1  0  0  0  0
  2 20  1  0  0  0  0
  2  3  2  0  0  0  0
  3  4  1  0  0  0  0
  3 24  1  0  0  0  0
  4  5  2  0  0  0  0
  4 25  1  0  0  0  0
  5  6  1  0  0  0  0
  5 19  1  0  0  0  0
  6  7  1  0  0  0  0
  6 26  1  0  0  0  0
  6 27  1  0  0  0  0
  7  8  2  0  0  0  0
  7  9  1  0  0  0  0
  9 10  1  0  0  0  0
  9 28  1  0  0  0  0
 10 18  1  0  0  0  0
 10 11  1  0  0  0  0
 10 14  1  0  0  0  0
 11 12  2  0  0  0  0
 11 13  1  0  0  0  0
 14 15  1  0  0  0  0
 14 29  1  0  0  0  0
 14 30  1  0  0  0  0
 15 16  1  0  0  0  0
 15 31  1  0  0  0  0
 15 32  1  0  0  0  0
 16 17  1  0  0  0  0
 16 33  1  0  0  0  0
 16 34  1  0  0  0  0
 17 18  1  0  0  0  0
 17 35  1  0  0  0  0
 17 36  1  0  0  0  0
 18 37  1  0  0  0  0
 18 38  1  0  0  0  0
 19 20  2  0  0  0  0
 19 39  1  0  0  0  0
M  CHG  1  13  -1
M  END
> <s_m_source_file>
AV-unprocessed.smi

> <i_m_source_file_index>
2641

> <i_lp_mmshare_version>
43012

> <i_f3d_flags>
0

> <s_epik_input>
W0NIM11jMVtjSF1bY0hdYyhbY0hdbjEpW0NIMl1DKD1PKVtOSF1DMihDKD1PKVtPSF0pW0NIMl1bQ0gyXVtDSDJdW0NIMl1bQ0gyXTI=

> <s_epik_cmdline>
J2VwaWtfcHl0aG9uJywgJy1waCcsICc3LjAnLCAnLXRuJywgJzgnLCAnLW1hJywgJzIwMCcsICctbWV0YWxfYmluZGluZycsICctaW1hZScsICc8aW5maWxlLm1hZT4nLCAnLW9tYWUnLCAnPG91dGZpbGUubWFlPic=

> <r_epik_Ionization_Penalty>
0.0190831

> <r_epik_Ionization_Penalty_Charging>
0.000391215

> <r_epik_Ionization_Penalty_Neutral>
0.0186919

> <r_epik_State_Penalty>
0.0148876

> <r_epik_Charging_Adjusted_Penalty>
0.0152789

> <i_epik_Tot_Q>
-1

> <i_epik_Tot_abs_Q>
1

> <r_epik_Metal_State_Penalty>
0.0144298

> <b_epik_Metal_Only>
0

> <s_lp_Force_Field>
OPLS_2005

> <r_lp_Energy>
4.43457

> <b_lp_Chiralities_Consistent>
1

> <s_lp_Variant>
AV-unprocessed.smi:2641-1

> <Gold.Version>
5.8.1

> <Gold.Id.Protein>
6NUR|6NUR_protein|mol2

> <Gold.PLP.Fitness>
48.2655

> <Gold.PLP.PLP>
-36.4456

> <Gold.PLP.part.hbond>
-3.0000

> <Gold.PLP.part.metal>
0.0000

> <Gold.PLP.part.buried>
-6.0897

> <Gold.PLP.part.nonpolar>
-28.5991

> <Gold.PLP.part.repulsive>
0.0938

> <Gold.PLP.ligand.clash>
0.0000

> <Gold.PLP.ligand.torsion>
0.7141

> <Gold.PLP.Chemscore.Hbond>
4.4000

> <Gold.PLP.Chemscore.CHOScore>
0.0000

> <Gold.PLP.Chemscore.Metal>
0.0000

> <Gold.Chemscore.Hbonds>
donor molecule, donor type, donor heavy atom, donor atom, acceptor molecule, acceptor atom, score
      P1  H  6896  6907       L1    13  0.85
      P1  H  7997  8009       L1     8  0.96
      P1  H 10752 10765       L1    12  2.00

> <Gold.PLP.Chemscore.Internal.Correction>
0.0480

> <Gold.Rescore>
     Score         DG    S(hbond)    S(metal)    S(lipo)     H(rot)  DE(clash)    DE(int)     intcor
     20.05     -21.76       2.73        0.00     101.55       1.85       0.00       1.72       ----

> <Gold.Chemscore.Fitness>
20.0457

> <Gold.Chemscore.DG>
-21.7623

> <Gold.Chemscore.ZeroCoef>
-5.4800

> <Gold.Chemscore.Hbond>
2.7336

> <Gold.Chemscore.Metal>
0.0000

> <Gold.Chemscore.Lipo>
101.5503

> <Gold.Chemscore.Internal_Hbond>
0.0000

> <Gold.Chemscore.DEClash>
0.0004

> <Gold.Chemscore.DEInternal>
1.7162

> <Gold.Chemscore.Rot>
1.8474

> <Gold.Chemscore.Internal.Correction>
   9.000000E+99

> <Gold.Chemscore.Hbonds>
donor molecule, donor type, donor heavy atom, donor atom, acceptor molecule, acceptor atom, score
      P1  H  6896  6907       L1    13  0.43
      P1  H  7997  8009       L1     8  0.83
      P1  H 10752 10765       L1    12  1.00

> <Gold.Chemscore.Hbond.Weighted>
-9.1303

> <Gold.Chemscore.Metal.Weighted>
-0.0000

> <Gold.Chemscore.Lipo.Weighted>
-11.8814

> <Gold.Chemscore.Internal_Hbond.Weighted>
0.0000

> <Gold.Chemscore.DEClash.Weighted>
0.0004

> <Gold.Chemscore.DEInternal.Weighted>
1.7162

> <Gold.Chemscore.Rot.Weighted>
4.7294

> <Gold.Chemscore.Internal.Correction.Weighted>
   9.000000E+99

> <Gold.Protein.RotatedTorsions>
[ 6907 6896 6895 6894 ] final  -46.38 input  -60.11 | X-H torsion
[ 7974 7965 7964 7962 ] final  179.75 input  175.53 | X-H torsion
[ 8008 7997 7996 7995 ] final  165.53 input   59.86 | X-H torsion
[ 10167 10162 10161 10158 ] final  -73.82 input  -65.29 | X-H torsion
[ 10718 10713 10712 10709 ] final -106.99 input   66.30 | X-H torsion
[ 10763 10752 10751 10750 ] final -153.59 input  -60.55 | X-H torsion
[ 11005 11000 10999 10996 ] final   21.11 input  -57.11 | X-H torsion

> <Gold.Protein.ActiveResidues>
 VAL166  LYS551  ARG553  GLY616  TRP617  ASP618  TYR619  PRO620  LYS621  CYS622 
 ASP623  PHE694  ASN695  SER759  ASP760  ASP761  ALA762  ILE779  LEU786  VAL792 
 PHE793  MET794  SER795  GLU796  ALA797  LYS798  CYS799  TRP800  GLU811  SER814 

> <Gold.Protein.RotatedAtoms>
  150.9119  134.8536  159.7430 H   0  0  0  0  0  0  0  0  0  0  0  0  # atno 6907 bound_to 6896
  152.4948  134.4346  159.9533 H   0  0  0  0  0  0  0  0  0  0  0  0  # atno 6908 bound_to 6896
  151.4388  133.3610  159.2814 H   0  0  0  0  0  0  0  0  0  0  0  0  # atno 6909 bound_to 6896
  144.7143  140.0595  143.6433 H   0  0  0  0  0  0  0  0  0  0  0  0  # atno 7974 bound_to 7965
  156.1793  140.1667  156.8305 H   0  0  0  0  0  0  0  0  0  0  0  0  # atno 8008 bound_to 7997
  154.5342  140.0750  156.8431 H   0  0  0  0  0  0  0  0  0  0  0  0  # atno 8009 bound_to 7997
  155.3346  140.3381  155.4241 H   0  0  0  0  0  0  0  0  0  0  0  0  # atno 8010 bound_to 7997
  140.5079  143.2350  151.7643 H   0  0  0  0  0  0  0  0  0  0  0  0  # atno 10167 bound_to 10162
  156.0416  130.5640  150.7759 H   0  0  0  0  0  0  0  0  0  0  0  0  # atno 10718 bound_to 10713
  154.7917  135.3209  154.7761 H   0  0  0  0  0  0  0  0  0  0  0  0  # atno 10763 bound_to 10752
  153.8449  135.6867  153.4803 H   0  0  0  0  0  0  0  0  0  0  0  0  # atno 10764 bound_to 10752
  153.1590  135.4668  154.9686 H   0  0  0  0  0  0  0  0  0  0  0  0  # atno 10765 bound_to 10752
  140.3952  134.1777  155.7663 H   0  0  0  0  0  0  0  0  0  0  0  0  # atno 11005 bound_to 11000
  145.9876  139.2989  143.1004 LP  0  0  0  0  0  0  0  0  0  0  0  0  # atno 17320 bound_to 7965
  145.8940  140.9285  143.0537 LP  0  0  0  0  0  0  0  0  0  0  0  0  # atno 17321 bound_to 7965
  139.4888  144.4432  151.9740 LP  0  0  0  0  0  0  0  0  0  0  0  0  # atno 17342 bound_to 10162
  140.3523  144.3074  150.5947 LP  0  0  0  0  0  0  0  0  0  0  0  0  # atno 17343 bound_to 10162
  157.5240  131.0933  151.0042 LP  0  0  0  0  0  0  0  0  0  0  0  0  # atno 17370 bound_to 10713
  157.0365  130.5732  149.5350 LP  0  0  0  0  0  0  0  0  0  0  0  0  # atno 17371 bound_to 10713
  141.1877  133.8276  157.1023 LP  0  0  0  0  0  0  0  0  0  0  0  0  # atno 17394 bound_to 11000
  140.0377  134.9870  157.0902 LP  0  0  0  0  0  0  0  0  0  0  0  0  # atno 17395 bound_to 11000

$$$$
