AV-unprocessed.smi:2149|AV-procd|sdf|8753|dock1
  -GOLD-   2272011533D 1   1.00000     0.00000
 Structure written by MMmdl.
 42 43  0  0  0  0  0  0  0  0  1 V2000
  151.6629  138.2928  156.8580 C   0  0  0  0  0  0  0  0  0  0  0  0
  151.7772  138.6649  155.0593 S   0  0  0  0  0  0  0  0  0  0  0  0
  152.8121  139.6957  154.8840 O   0  0  0  0  0  0  0  0  0  0  0  0
  151.8632  137.4026  154.3095 O   0  0  0  0  0  0  0  0  0  0  0  0
  150.2407  139.3882  154.7045 N   0  0  0  0  0  0  0  0  0  0  0  0
  149.9348  140.6853  155.3417 C   0  0  0  0  0  0  0  0  0  0  0  0
  148.7627  141.3940  154.6442 C   0  0  0  0  0  0  0  0  0  0  0  0
  147.5299  140.4885  154.5770 C   0  0  0  0  0  0  0  0  0  0  0  0
  147.8999  139.1823  153.8569 C   0  0  2  0  0  0  0  0  0  0  0  0
  146.6871  138.2476  153.7533 C   0  0  0  0  0  0  0  0  0  0  0  0
  145.6588  138.4904  154.3857 O   0  0  0  0  0  0  0  0  0  0  0  0
  146.8230  137.1802  152.9511 N   0  0  0  0  0  0  0  0  0  0  0  0
  145.7984  136.1703  152.7138 C   0  0  0  0  0  0  0  0  0  0  0  0
  145.4348  136.0710  151.2230 C   0  0  0  0  0  0  0  0  0  0  0  0
  145.2895  134.6325  150.7627 C   0  0  0  0  0  0  0  0  0  0  0  0
  144.1276  134.2082  150.0829 C   0  0  0  0  0  0  0  0  0  0  0  0
  144.0381  132.8603  149.6842 C   0  0  0  0  0  0  0  0  0  0  0  0
  145.1074  131.9930  149.9803 C   0  0  0  0  0  0  0  0  0  0  0  0
  146.2236  132.5145  150.6647 C   0  0  0  0  0  0  0  0  0  0  0  0
  146.3191  133.8049  151.0515 N   0  0  0  0  0  0  0  0  0  0  0  0
  149.0750  138.4883  154.5783 C   0  0  0  0  0  0  0  0  0  0  0  0
  152.6235  137.9153  157.2075 H   0  0  0  0  0  0  0  0  0  0  0  0
  150.8989  137.5380  157.0375 H   0  0  0  0  0  0  0  0  0  0  0  0
  151.4138  139.2031  157.4027 H   0  0  0  0  0  0  0  0  0  0  0  0
  149.7010  140.5155  156.3936 H   0  0  0  0  0  0  0  0  0  0  0  0
  150.8130  141.3286  155.3155 H   0  0  0  0  0  0  0  0  0  0  0  0
  148.5187  142.3154  155.1733 H   0  0  0  0  0  0  0  0  0  0  0  0
  149.0594  141.6867  153.6360 H   0  0  0  0  0  0  0  0  0  0  0  0
  147.1699  140.2822  155.5864 H   0  0  0  0  0  0  0  0  0  0  0  0
  146.7220  141.0003  154.0523 H   0  0  0  0  0  0  0  0  0  0  0  0
  148.2260  139.4317  152.8450 H   0  0  0  0  0  0  0  0  0  0  0  0
  147.7024  137.0589  152.4699 H   0  0  0  0  0  0  0  0  0  0  0  0
  146.1282  135.2024  153.0955 H   0  0  0  0  0  0  0  0  0  0  0  0
  144.9158  136.4471  153.2911 H   0  0  0  0  0  0  0  0  0  0  0  0
  144.5025  136.6040  151.0306 H   0  0  0  0  0  0  0  0  0  0  0  0
  146.1973  136.5597  150.6146 H   0  0  0  0  0  0  0  0  0  0  0  0
  143.3225  134.8968  149.8724 H   0  0  0  0  0  0  0  0  0  0  0  0
  143.1647  132.4983  149.1620 H   0  0  0  0  0  0  0  0  0  0  0  0
  145.0731  130.9533  149.6905 H   0  0  0  0  0  0  0  0  0  0  0  0
  147.0615  131.8781  150.9086 H   0  0  0  0  0  0  0  0  0  0  0  0
  149.3599  137.5963  154.0203 H   0  0  0  0  0  0  0  0  0  0  0  0
  148.7819  138.1556  155.5755 H   0  0  0  0  0  0  0  0  0  0  0  0
  1  2  1  0  0  0  0
  1 22  1  0  0  0  0
  1 23  1  0  0  0  0
  1 24  1  0  0  0  0
  2  3  2  0  0  0  0
  2  4  2  0  0  0  0
  2  5  1  0  0  0  0
  5 21  1  0  0  0  0
  5  6  1  0  0  0  0
  6  7  1  0  0  0  0
  6 25  1  0  0  0  0
  6 26  1  0  0  0  0
  7  8  1  0  0  0  0
  7 27  1  0  0  0  0
  7 28  1  0  0  0  0
  8  9  1  0  0  0  0
  8 29  1  0  0  0  0
  8 30  1  0  0  0  0
  9 10  1  0  0  0  0
  9 21  1  0  0  0  0
  9 31  1  0  0  0  0
 10 11  2  0  0  0  0
 10 12  1  0  0  0  0
 12 13  1  0  0  0  0
 12 32  1  0  0  0  0
 13 14  1  0  0  0  0
 13 33  1  0  0  0  0
 13 34  1  0  0  0  0
 14 15  1  0  0  0  0
 14 35  1  0  0  0  0
 14 36  1  0  0  0  0
 15 20  1  0  0  0  0
 15 16  2  0  0  0  0
 16 17  1  0  0  0  0
 16 37  1  0  0  0  0
 17 18  2  0  0  0  0
 17 38  1  0  0  0  0
 18 19  1  0  0  0  0
 18 39  1  0  0  0  0
 19 20  2  0  0  0  0
 19 40  1  0  0  0  0
 21 41  1  0  0  0  0
 21 42  1  0  0  0  0
M  END
> <s_m_source_file>
AV-unprocessed.smi

> <i_m_source_file_index>
2149

> <i_lp_mmshare_version>
43012

> <i_f3d_flags>
0

> <s_epik_input>
W0NIM11TKD1PKSg9TylOMVtDSDJdW0NIMl1bQ0gyXVtDQEhdKFtDSDJdMSlDKD1PKVtOSF1bQ0gyXVtDSDJdYzJbY0hdW2NIXVtjSF1bY0hdbjI=

> <s_epik_cmdline>
J2VwaWtfcHl0aG9uJywgJy1waCcsICc3LjAnLCAnLXRuJywgJzgnLCAnLW1hJywgJzIwMCcsICctbWV0YWxfYmluZGluZycsICctaW1hZScsICc8aW5maWxlLm1hZT4nLCAnLW9tYWUnLCAnPG91dGZpbGUubWFlPic=

> <r_epik_Ionization_Penalty>
0.0273806

> <r_epik_Ionization_Penalty_Charging>
0

> <r_epik_Ionization_Penalty_Neutral>
0.0273806

> <r_epik_State_Penalty>
0.0224071

> <r_epik_Charging_Adjusted_Penalty>
0.0224071

> <i_epik_Tot_Q>
0

> <i_epik_Tot_abs_Q>
0

> <r_epik_Metal_State_Penalty>
0.0214134

> <b_epik_Metal_Only>
0

> <s_lp_Force_Field>
OPLS_2005

> <r_lp_Energy>
5.16122

> <b_lp_Chiralities_Consistent>
1

> <s_lp_Variant>
AV-unprocessed.smi:2149-2

> <Gold.Version>
5.8.1

> <Gold.Id.Protein>
6NUR|6NUR_protein|mol2

> <Gold.PLP.Fitness>
49.1008

> <Gold.PLP.PLP>
-37.3550

> <Gold.PLP.part.hbond>
-4.2958

> <Gold.PLP.part.metal>
0.0000

> <Gold.PLP.part.buried>
-4.7521

> <Gold.PLP.part.nonpolar>
-30.4431

> <Gold.PLP.part.repulsive>
0.6465

> <Gold.PLP.ligand.clash>
0.0000

> <Gold.PLP.ligand.torsion>
0.9309

> <Gold.PLP.Chemscore.Hbond>
3.2708

> <Gold.PLP.Chemscore.CHOScore>
1.0000

> <Gold.PLP.Chemscore.Metal>
0.0000

> <Gold.Chemscore.Hbonds>
donor molecule, donor type, donor heavy atom, donor atom, acceptor molecule, acceptor atom, score
      L1  H    12    32       P1  7948  1.00
      P1  H  7989  7998       L1     3  0.27
      P1  H  7997  8010       L1     3  1.00
      P1  H 10752 10763       L1     4  0.95
      L1  C    19    40       P1 10747  1.00

> <Gold.PLP.Chemscore.Internal.Correction>
0.7952

> <Gold.Rescore>
     Score         DG    S(hbond)    S(metal)    S(lipo)     H(rot)  DE(clash)    DE(int)     intcor
     19.84     -20.80       2.89        0.00      88.80       1.84       0.04       0.92       ----

> <Gold.Chemscore.Fitness>
19.8433

> <Gold.Chemscore.DG>
-20.8013

> <Gold.Chemscore.ZeroCoef>
-5.4800

> <Gold.Chemscore.Hbond>
2.8883

> <Gold.Chemscore.Metal>
0.0000

> <Gold.Chemscore.Lipo>
88.8000

> <Gold.Chemscore.Internal_Hbond>
0.0000

> <Gold.Chemscore.DEClash>
0.0355

> <Gold.Chemscore.DEInternal>
0.9225

> <Gold.Chemscore.Rot>
1.8419

> <Gold.Chemscore.Internal.Correction>
   9.000000E+99

> <Gold.Chemscore.Hbonds>
donor molecule, donor type, donor heavy atom, donor atom, acceptor molecule, acceptor atom, score
      L1  H    12    32       P1  7948  0.98
      P1  H  7989  7998       L1     3  0.03
      P1  H  7997  8010       L1     3  0.97
      P1  H 10752 10763       L1     4  0.85

> <Gold.Chemscore.Hbond.Weighted>
-9.6470

> <Gold.Chemscore.Metal.Weighted>
-0.0000

> <Gold.Chemscore.Lipo.Weighted>
-10.3896

> <Gold.Chemscore.Internal_Hbond.Weighted>
0.0000

> <Gold.Chemscore.DEClash.Weighted>
0.0355

> <Gold.Chemscore.DEInternal.Weighted>
0.9225

> <Gold.Chemscore.Rot.Weighted>
4.7153

> <Gold.Chemscore.Internal.Correction.Weighted>
   9.000000E+99

> <Gold.Protein.RotatedTorsions>
[ 6907 6896 6895 6894 ] final   -9.92 input  -60.11 | X-H torsion
[ 7974 7965 7964 7962 ] final   18.35 input  175.53 | X-H torsion
[ 8008 7997 7996 7995 ] final  100.87 input   59.86 | X-H torsion
[ 10167 10162 10161 10158 ] final   68.17 input  -65.29 | X-H torsion
[ 10718 10713 10712 10709 ] final -110.40 input   66.30 | X-H torsion
[ 10763 10752 10751 10750 ] final   41.22 input  -60.55 | X-H torsion
[ 11005 11000 10999 10996 ] final  133.33 input  -57.11 | X-H torsion

> <Gold.Protein.ActiveResidues>
 VAL166  LYS551  ARG553  GLY616  TRP617  ASP618  TYR619  PRO620  LYS621  CYS622 
 ASP623  PHE694  ASN695  SER759  ASP760  ASP761  ALA762  ILE779  LEU786  VAL792 
 PHE793  MET794  SER795  GLU796  ALA797  LYS798  CYS799  TRP800  GLU811  SER814 

> <Gold.Protein.RotatedAtoms>
  151.4101  135.0983  159.9582 H   0  0  0  0  0  0  0  0  0  0  0  0  # atno 6907 bound_to 6896
  152.5023  133.8806  159.7354 H   0  0  0  0  0  0  0  0  0  0  0  0  # atno 6908 bound_to 6896
  150.9299  133.6723  159.2841 H   0  0  0  0  0  0  0  0  0  0  0  0  # atno 6909 bound_to 6896
  146.2188  139.8470  142.8630 H   0  0  0  0  0  0  0  0  0  0  0  0  # atno 7974 bound_to 7965
  156.1245  140.3206  155.8257 H   0  0  0  0  0  0  0  0  0  0  0  0  # atno 8008 bound_to 7997
  155.4444  140.0528  157.3024 H   0  0  0  0  0  0  0  0  0  0  0  0  # atno 8009 bound_to 7997
  154.4852  140.2070  155.9685 H   0  0  0  0  0  0  0  0  0  0  0  0  # atno 8010 bound_to 7997
  140.0816  144.5066  150.7158 H   0  0  0  0  0  0  0  0  0  0  0  0  # atno 10167 bound_to 10162
  156.0588  130.5813  150.8231 H   0  0  0  0  0  0  0  0  0  0  0  0  # atno 10718 bound_to 10713
  152.9914  135.6168  154.2752 H   0  0  0  0  0  0  0  0  0  0  0  0  # atno 10763 bound_to 10752
  154.2483  135.2786  155.2828 H   0  0  0  0  0  0  0  0  0  0  0  0  # atno 10764 bound_to 10752
  154.5310  135.5788  153.6816 H   0  0  0  0  0  0  0  0  0  0  0  0  # atno 10765 bound_to 10752
  139.9845  134.9537  156.9710 H   0  0  0  0  0  0  0  0  0  0  0  0  # atno 11005 bound_to 11000
  145.2840  141.0147  143.3701 LP  0  0  0  0  0  0  0  0  0  0  0  0  # atno 17320 bound_to 7965
  144.9128  139.4508  143.6579 LP  0  0  0  0  0  0  0  0  0  0  0  0  # atno 17321 bound_to 7965
  140.7075  143.2479  151.4683 LP  0  0  0  0  0  0  0  0  0  0  0  0  # atno 17342 bound_to 10162
  139.5776  144.1782  152.1925 LP  0  0  0  0  0  0  0  0  0  0  0  0  # atno 17343 bound_to 10162
  157.5581  131.0945  150.9599 LP  0  0  0  0  0  0  0  0  0  0  0  0  # atno 17370 bound_to 10713
  156.9843  130.5539  149.5298 LP  0  0  0  0  0  0  0  0  0  0  0  0  # atno 17371 bound_to 10713
  140.5030  134.1078  155.7254 LP  0  0  0  0  0  0  0  0  0  0  0  0  # atno 17394 bound_to 11000
  141.1512  133.8965  157.2092 LP  0  0  0  0  0  0  0  0  0  0  0  0  # atno 17395 bound_to 11000

$$$$
