AV-unprocessed.smi:3124|AV-procd|sdf|11905|dock4
  -GOLD-   2272017293D 1   1.00000     0.00000
 Structure written by MMmdl.
 24 24  0  0  0  0  0  0  0  0  2 V2000
  151.9376  141.5880  158.7050 C   0  0  0  0  0  0  0  0  0  0  0  0
  151.7860  140.6823  157.5181 C   0  0  0  0  0  0  0  0  0  0  0  0
  150.7252  140.6489  156.5663 C   0  0  0  0  0  0  0  0  0  0  0  0
  151.0727  139.6455  155.7028 C   0  0  0  0  0  0  0  0  0  0  0  0
  150.4121  139.0941  154.4764 C   0  0  0  0  0  0  0  0  0  0  0  0
  148.9352  139.4972  154.2946 C   0  0  1  0  0  0  0  0  0  0  0  0
  148.7736  141.0194  154.1822 C   0  0  0  0  0  0  0  0  0  0  0  0
  148.3503  138.8378  153.1118 N   0  3  0  0  0  0  0  0  0  0  0  0
  152.2776  139.1579  156.1555 N   0  0  0  0  0  0  0  0  0  0  0  0
  152.7186  139.7771  157.2656 N   0  0  0  0  0  0  0  0  0  0  0  0
  152.8039  138.4111  155.7239 H   0  0  0  0  0  0  0  0  0  0  0  0
  151.3247  142.4831  158.5972 H   0  0  0  0  0  0  0  0  0  0  0  0
  152.9718  141.9101  158.8303 H   0  0  0  0  0  0  0  0  0  0  0  0
  151.6315  141.0841  159.6220 H   0  0  0  0  0  0  0  0  0  0  0  0
  149.8448  141.2731  156.5284 H   0  0  0  0  0  0  0  0  0  0  0  0
  150.9791  139.4270  153.6063 H   0  0  0  0  0  0  0  0  0  0  0  0
  150.4924  138.0060  154.4826 H   0  0  0  0  0  0  0  0  0  0  0  0
  148.3700  139.1659  155.1666 H   0  0  0  0  0  0  0  0  0  0  0  0
  149.1613  141.5217  155.0692 H   0  0  0  0  0  0  0  0  0  0  0  0
  147.7241  141.2981  154.0814 H   0  0  0  0  0  0  0  0  0  0  0  0
  149.3080  141.4141  153.3172 H   0  0  0  0  0  0  0  0  0  0  0  0
  148.6876  137.8877  153.0521 H   0  0  0  0  0  0  0  0  0  0  0  0
  148.6155  139.3421  152.2777 H   0  0  0  0  0  0  0  0  0  0  0  0
  147.3434  138.8314  153.1949 H   0  0  0  0  0  0  0  0  0  0  0  0
  1  2  1  0  0  0  0
  1 12  1  0  0  0  0
  1 13  1  0  0  0  0
  1 14  1  0  0  0  0
  2 10  2  0  0  0  0
  2  3  1  0  0  0  0
  3  4  2  0  0  0  0
  3 15  1  0  0  0  0
  4  5  1  0  0  0  0
  4  9  1  0  0  0  0
  5  6  1  0  0  0  0
  5 16  1  0  0  0  0
  5 17  1  0  0  0  0
  6  7  1  0  0  0  0
  6  8  1  0  0  0  0
  6 18  1  0  0  0  0
  7 19  1  0  0  0  0
  7 20  1  0  0  0  0
  7 21  1  0  0  0  0
  8 22  1  0  0  0  0
  8 23  1  0  0  0  0
  8 24  1  0  0  0  0
  9 11  1  0  0  0  0
  9 10  1  0  0  0  0
M  CHG  1   8   1
M  END
> <s_m_source_file>
AV-unprocessed.smi

> <i_m_source_file_index>
3124

> <i_lp_mmshare_version>
43012

> <i_f3d_flags>
0

> <s_epik_input>
W0NIM11jMVtjSF1jKFtuSF1uMSlbQ0gyXVtDQEhdKFtDSDNdKVtOSDJd

> <s_epik_cmdline>
J2VwaWtfcHl0aG9uJywgJy1waCcsICc3LjAnLCAnLXRuJywgJzgnLCAnLW1hJywgJzIwMCcsICctbWV0YWxfYmluZGluZycsICctaW1hZScsICc8aW5maWxlLm1hZT4nLCAnLW9tYWUnLCAnPG91dGZpbGUubWFlPic=

> <r_lp_tautomer_probability>
0.5

> <r_epik_Ionization_Penalty>
0.00227197

> <r_epik_Ionization_Penalty_Charging>
0.00223142

> <r_epik_Ionization_Penalty_Neutral>
4.05538e-05

> <r_epik_State_Penalty>
0.446108

> <r_epik_Charging_Adjusted_Penalty>
0.448339

> <i_epik_Tot_Q>
1

> <i_epik_Tot_abs_Q>
1

> <r_epik_Metal_State_Penalty>
0.444886

> <b_epik_Metal_Only>
0

> <s_lp_Force_Field>
OPLS_2005

> <r_lp_Energy>
4.61405

> <b_lp_Chiralities_Consistent>
1

> <s_lp_Variant>
AV-unprocessed.smi:3124-4

> <Gold.Version>
5.8.1

> <Gold.Id.Protein>
6NUR|6NUR_protein|mol2

> <Gold.PLP.Fitness>
31.7133

> <Gold.PLP.PLP>
-20.0771

> <Gold.PLP.part.hbond>
-3.0000

> <Gold.PLP.part.metal>
0.0000

> <Gold.PLP.part.buried>
-1.5948

> <Gold.PLP.part.nonpolar>
-15.4662

> <Gold.PLP.part.repulsive>
0.2454

> <Gold.PLP.ligand.clash>
0.0000

> <Gold.PLP.ligand.torsion>
0.1835

> <Gold.PLP.Chemscore.Hbond>
4.0000

> <Gold.PLP.Chemscore.CHOScore>
0.0000

> <Gold.PLP.Chemscore.Metal>
0.0000

> <Gold.Chemscore.Hbonds>
donor molecule, donor type, donor heavy atom, donor atom, acceptor molecule, acceptor atom, score
      L1  H     8    22       P1  7948  1.84
      L1  H     8    23       P1  7957  1.00
      P1  H  7997  8008       L1    10  1.00

> <Gold.PLP.Chemscore.Internal.Correction>
0.0033

> <Gold.Rescore>
     Score         DG    S(hbond)    S(metal)    S(lipo)     H(rot)  DE(clash)    DE(int)     intcor
     17.14     -17.38       2.82        0.00      49.49       1.30       0.00       0.24       ----

> <Gold.Chemscore.Fitness>
17.1366

> <Gold.Chemscore.DG>
-17.3801

> <Gold.Chemscore.ZeroCoef>
-5.4800

> <Gold.Chemscore.Hbond>
2.8248

> <Gold.Chemscore.Metal>
0.0000

> <Gold.Chemscore.Lipo>
49.4867

> <Gold.Chemscore.Internal_Hbond>
0.0000

> <Gold.Chemscore.DEClash>
0.0029

> <Gold.Chemscore.DEInternal>
0.2406

> <Gold.Chemscore.Rot>
1.2987

> <Gold.Chemscore.Internal.Correction>
   9.000000E+99

> <Gold.Chemscore.Hbonds>
donor molecule, donor type, donor heavy atom, donor atom, acceptor molecule, acceptor atom, score
      L1  H     8    22       P1  7948  0.83
      L1  H     8    23       P1  7957  0.99
      P1  H  7997  8008       L1    10  0.34

> <Gold.Chemscore.Hbond.Weighted>
-9.4348

> <Gold.Chemscore.Metal.Weighted>
-0.0000

> <Gold.Chemscore.Lipo.Weighted>
-5.7899

> <Gold.Chemscore.Internal_Hbond.Weighted>
0.0000

> <Gold.Chemscore.DEClash.Weighted>
0.0029

> <Gold.Chemscore.DEInternal.Weighted>
0.2406

> <Gold.Chemscore.Rot.Weighted>
3.3246

> <Gold.Chemscore.Internal.Correction.Weighted>
   9.000000E+99

> <Gold.Protein.RotatedTorsions>
[ 6907 6896 6895 6894 ] final   13.27 input  -60.11 | X-H torsion
[ 7974 7965 7964 7962 ] final -120.72 input  175.53 | X-H torsion
[ 8008 7997 7996 7995 ] final  -76.33 input   59.86 | X-H torsion
[ 10167 10162 10161 10158 ] final  -75.33 input  -65.29 | X-H torsion
[ 10718 10713 10712 10709 ] final  154.62 input   66.30 | X-H torsion
[ 10763 10752 10751 10750 ] final    3.26 input  -60.55 | X-H torsion
[ 11005 11000 10999 10996 ] final  167.32 input  -57.11 | X-H torsion

> <Gold.Protein.ActiveResidues>
 VAL166  LYS551  ARG553  GLY616  TRP617  ASP618  TYR619  PRO620  LYS621  CYS622 
 ASP623  PHE694  ASN695  SER759  ASP760  ASP761  ALA762  ILE779  LEU786  VAL792 
 PHE793  MET794  SER795  GLU796  ALA797  LYS798  CYS799  TRP800  GLU811  SER814 

> <Gold.Protein.RotatedAtoms>
  151.7837  135.0755  160.0377 H   0  0  0  0  0  0  0  0  0  0  0  0  # atno 6907 bound_to 6896
  152.3205  133.5844  159.5750 H   0  0  0  0  0  0  0  0  0  0  0  0  # atno 6908 bound_to 6896
  150.7367  133.9934  159.3656 H   0  0  0  0  0  0  0  0  0  0  0  0  # atno 6909 bound_to 6896
  145.0482  140.8198  143.4225 H   0  0  0  0  0  0  0  0  0  0  0  0  # atno 7974 bound_to 7965
  154.5496  140.0729  156.8645 H   0  0  0  0  0  0  0  0  0  0  0  0  # atno 8008 bound_to 7997
  155.3020  140.3385  155.4229 H   0  0  0  0  0  0  0  0  0  0  0  0  # atno 8009 bound_to 7997
  156.1949  140.1700  156.8004 H   0  0  0  0  0  0  0  0  0  0  0  0  # atno 8010 bound_to 7997
  140.4951  143.2372  151.7843 H   0  0  0  0  0  0  0  0  0  0  0  0  # atno 10167 bound_to 10162
  157.2292  131.0735  151.1864 H   0  0  0  0  0  0  0  0  0  0  0  0  # atno 10718 bound_to 10713
  153.2855  135.6944  153.7343 H   0  0  0  0  0  0  0  0  0  0  0  0  # atno 10763 bound_to 10752
  153.6314  135.3409  155.3043 H   0  0  0  0  0  0  0  0  0  0  0  0  # atno 10764 bound_to 10752
  154.8508  135.4410  154.1922 H   0  0  0  0  0  0  0  0  0  0  0  0  # atno 10765 bound_to 10752
  140.2756  134.7792  157.3713 H   0  0  0  0  0  0  0  0  0  0  0  0  # atno 11005 bound_to 11000
  145.1561  139.2486  143.5416 LP  0  0  0  0  0  0  0  0  0  0  0  0  # atno 17320 bound_to 7965
  146.3515  140.1276  142.8598 LP  0  0  0  0  0  0  0  0  0  0  0  0  # atno 17321 bound_to 7965
  139.4859  144.4597  151.9556 LP  0  0  0  0  0  0  0  0  0  0  0  0  # atno 17342 bound_to 10162
  140.3684  144.2886  150.5923 LP  0  0  0  0  0  0  0  0  0  0  0  0  # atno 17343 bound_to 10162
  157.3496  130.7075  149.6432 LP  0  0  0  0  0  0  0  0  0  0  0  0  # atno 17370 bound_to 10713
  155.9676  130.4256  150.4663 LP  0  0  0  0  0  0  0  0  0  0  0  0  # atno 17371 bound_to 10713
  140.1332  134.5068  155.8089 LP  0  0  0  0  0  0  0  0  0  0  0  0  # atno 17394 bound_to 11000
  141.2171  133.6797  156.7077 LP  0  0  0  0  0  0  0  0  0  0  0  0  # atno 17395 bound_to 11000

$$$$
