AV-unprocessed.smi:595|AV-procd|sdf|3018|dock2
  -GOLD-   2262023523D 1   1.00000     0.00000
 Structure written by MMmdl.
 39 40  0  0  0  0  0  0  0  0  1 V2000
  150.2933  135.9906  158.6173 O   0  0  0  0  0  0  0  0  0  0  0  0
  149.1334  135.9363  158.2001 C   0  0  0  0  0  0  0  0  0  0  0  0
  147.9780  136.4135  159.0932 C   0  0  0  0  0  0  0  0  0  0  0  0
  147.6976  135.4898  160.2048 N   0  0  0  0  0  0  0  0  0  0  0  0
  147.6509  134.1170  159.8917 C   0  0  0  0  0  0  0  0  0  0  0  0
  147.4207  133.1618  160.8128 C   0  0  0  0  0  0  0  0  0  0  0  0
  147.3272  131.6917  160.4349 C   0  0  0  0  0  0  0  0  0  0  0  0
  146.9548  130.9505  161.4786 F   0  0  0  0  0  0  0  0  0  0  0  0
  146.4471  131.5027  159.4510 F   0  0  0  0  0  0  0  0  0  0  0  0
  148.5148  131.2550  160.0179 F   0  0  0  0  0  0  0  0  0  0  0  0
  147.1797  133.6179  162.1677 C   0  0  0  0  0  0  0  0  0  0  0  0
  147.2147  134.9273  162.4831 C   0  0  0  0  0  0  0  0  0  0  0  0
  147.4956  135.9521  161.4749 C   0  0  0  0  0  0  0  0  0  0  0  0
  147.5470  137.1495  161.7559 O   0  0  0  0  0  0  0  0  0  0  0  0
  148.7569  135.4820  156.9824 N   0  0  0  0  0  0  0  0  0  0  0  0
  149.4839  134.9905  155.9509 C   0  0  0  0  0  0  0  0  0  0  0  0
  150.7075  134.8984  156.0367 O   0  0  0  0  0  0  0  0  0  0  0  0
  148.8104  134.6128  154.8479 N   0  0  0  0  0  0  0  0  0  0  0  0
  149.3149  133.7114  153.8163 C   0  0  0  0  0  0  0  0  0  0  0  0
  148.1991  133.3649  152.8144 C   0  0  0  0  0  0  0  0  0  0  0  0
  147.8057  131.9181  153.1109 C   0  0  0  0  0  0  0  0  0  0  0  0
  149.1016  131.2739  153.5931 C   0  0  0  0  0  0  0  0  0  0  0  0
  149.7876  132.3687  154.4123 C   0  0  0  0  0  0  0  0  0  0  0  0
  148.2103  137.4173  159.4520 H   0  0  0  0  0  0  0  0  0  0  0  0
  147.0768  136.5322  158.4889 H   0  0  0  0  0  0  0  0  0  0  0  0
  147.8203  133.8907  158.8486 H   0  0  0  0  0  0  0  0  0  0  0  0
  146.9716  132.8973  162.9450 H   0  0  0  0  0  0  0  0  0  0  0  0
  147.0320  135.2306  163.5035 H   0  0  0  0  0  0  0  0  0  0  0  0
  147.7626  135.5140  156.8105 H   0  0  0  0  0  0  0  0  0  0  0  0
  147.8769  134.9773  154.7172 H   0  0  0  0  0  0  0  0  0  0  0  0
  150.1320  134.1971  153.2798 H   0  0  0  0  0  0  0  0  0  0  0  0
  147.3451  134.0422  152.8641 H   0  0  0  0  0  0  0  0  0  0  0  0
  148.5966  133.4255  151.8004 H   0  0  0  0  0  0  0  0  0  0  0  0
  147.0634  131.8941  153.9097 H   0  0  0  0  0  0  0  0  0  0  0  0
  147.3812  131.4113  152.2439 H   0  0  0  0  0  0  0  0  0  0  0  0
  148.9309  130.3636  154.1682 H   0  0  0  0  0  0  0  0  0  0  0  0
  149.7223  131.0142  152.7346 H   0  0  0  0  0  0  0  0  0  0  0  0
  150.8734  132.2701  154.3917 H   0  0  0  0  0  0  0  0  0  0  0  0
  149.4769  132.2782  155.4543 H   0  0  0  0  0  0  0  0  0  0  0  0
  1  2  2  0  0  0  0
  2  3  1  0  0  0  0
  2 15  1  0  0  0  0
  3  4  1  0  0  0  0
  3 24  1  0  0  0  0
  3 25  1  0  0  0  0
  4 13  1  0  0  0  0
  4  5  1  0  0  0  0
  5  6  2  0  0  0  0
  5 26  1  0  0  0  0
  6  7  1  0  0  0  0
  6 11  1  0  0  0  0
  7  8  1  0  0  0  0
  7  9  1  0  0  0  0
  7 10  1  0  0  0  0
 11 12  2  0  0  0  0
 11 27  1  0  0  0  0
 12 13  1  0  0  0  0
 12 28  1  0  0  0  0
 13 14  2  0  0  0  0
 15 16  1  0  0  0  0
 15 29  1  0  0  0  0
 16 17  2  0  0  0  0
 16 18  1  0  0  0  0
 18 19  1  0  0  0  0
 18 30  1  0  0  0  0
 19 23  1  0  0  0  0
 19 20  1  0  0  0  0
 19 31  1  0  0  0  0
 20 21  1  0  0  0  0
 20 32  1  0  0  0  0
 20 33  1  0  0  0  0
 21 22  1  0  0  0  0
 21 34  1  0  0  0  0
 21 35  1  0  0  0  0
 22 23  1  0  0  0  0
 22 36  1  0  0  0  0
 22 37  1  0  0  0  0
 23 38  1  0  0  0  0
 23 39  1  0  0  0  0
M  END
> <s_m_source_file>
AV-unprocessed.smi

> <i_m_source_file_index>
595

> <i_lp_mmshare_version>
43012

> <i_f3d_flags>
0

> <s_epik_input>
W0NIMl0xW0NIMl1bQ0gyXVtDSDJdW0NIXTFbTkhdQyg9TylbTkhdQyg9TylbQ0gyXW4yW2NIXWMoQyhGKShGKUYpW2NIXVtjSF1jMj1P

> <s_epik_cmdline>
J2VwaWtfcHl0aG9uJywgJy1waCcsICc3LjAnLCAnLXRuJywgJzgnLCAnLW1hJywgJzIwMCcsICctbWV0YWxfYmluZGluZycsICctaW1hZScsICc8aW5maWxlLm1hZT4nLCAnLW9tYWUnLCAnPG91dGZpbGUubWFlPic=

> <r_lp_tautomer_probability>
1

> <r_epik_Ionization_Penalty>
3.29047e-05

> <r_epik_Ionization_Penalty_Charging>
1.42456e-08

> <r_epik_Ionization_Penalty_Neutral>
3.28905e-05

> <r_epik_State_Penalty>
-0

> <r_epik_Charging_Adjusted_Penalty>
1.42456e-08

> <i_epik_Tot_Q>
0

> <i_epik_Tot_abs_Q>
0

> <r_epik_Metal_State_Penalty>
-0

> <b_epik_Metal_Only>
0

> <s_lp_Force_Field>
OPLS_2005

> <r_lp_Energy>
34.7393

> <b_lp_Chiralities_Consistent>
1

> <s_lp_Variant>
AV-unprocessed.smi:595-1

> <Gold.Version>
5.8.1

> <Gold.Id.Protein>
6NUR|6NUR_protein|mol2

> <Gold.PLP.Fitness>
45.6049

> <Gold.PLP.PLP>
-38.5155

> <Gold.PLP.part.hbond>
-3.0000

> <Gold.PLP.part.metal>
0.0000

> <Gold.PLP.part.buried>
-3.0400

> <Gold.PLP.part.nonpolar>
-31.8296

> <Gold.PLP.part.repulsive>
0.0655

> <Gold.PLP.ligand.clash>
0.0000

> <Gold.PLP.ligand.torsion>
0.5329

> <Gold.PLP.Chemscore.Hbond>
2.6720

> <Gold.PLP.Chemscore.CHOScore>
0.0000

> <Gold.PLP.Chemscore.Metal>
0.0000

> <Gold.Chemscore.Hbonds>
donor molecule, donor type, donor heavy atom, donor atom, acceptor molecule, acceptor atom, score
      P1  H  6896  6908       L1     1  0.96
      P1  H  6931  6943       L1    14  0.99
      P1  H  6934  6947       L1    14  0.67

> <Gold.PLP.Chemscore.Internal.Correction>
0.1392

> <Gold.Rescore>
     Score         DG    S(hbond)    S(metal)    S(lipo)     H(rot)  DE(clash)    DE(int)     intcor
     15.61     -17.48       2.67        0.00      63.08       1.68       0.01       1.86       ----

> <Gold.Chemscore.Fitness>
15.6084

> <Gold.Chemscore.DG>
-17.4788

> <Gold.Chemscore.ZeroCoef>
-5.4800

> <Gold.Chemscore.Hbond>
2.6667

> <Gold.Chemscore.Metal>
0.0000

> <Gold.Chemscore.Lipo>
63.0785

> <Gold.Chemscore.Internal_Hbond>
0.0000

> <Gold.Chemscore.DEClash>
0.0106

> <Gold.Chemscore.DEInternal>
1.8597

> <Gold.Chemscore.Rot>
1.6750

> <Gold.Chemscore.Internal.Correction>
   9.000000E+99

> <Gold.Chemscore.Hbonds>
donor molecule, donor type, donor heavy atom, donor atom, acceptor molecule, acceptor atom, score
      P1  H  6896  6908       L1     1  0.87
      P1  H  6931  6943       L1    14  0.93
      P1  H  6934  6947       L1    14  0.66

> <Gold.Chemscore.Hbond.Weighted>
-8.9067

> <Gold.Chemscore.Metal.Weighted>
-0.0000

> <Gold.Chemscore.Lipo.Weighted>
-7.3802

> <Gold.Chemscore.Internal_Hbond.Weighted>
0.0000

> <Gold.Chemscore.DEClash.Weighted>
0.0106

> <Gold.Chemscore.DEInternal.Weighted>
1.8597

> <Gold.Chemscore.Rot.Weighted>
4.2881

> <Gold.Chemscore.Internal.Correction.Weighted>
   9.000000E+99

> <Gold.Protein.RotatedTorsions>
[ 6907 6896 6895 6894 ] final -178.31 input  -60.11 | X-H torsion
[ 7974 7965 7964 7962 ] final -161.81 input  175.53 | X-H torsion
[ 8008 7997 7996 7995 ] final  -36.72 input   59.86 | X-H torsion
[ 10167 10162 10161 10158 ] final  -35.75 input  -65.29 | X-H torsion
[ 10718 10713 10712 10709 ] final  116.58 input   66.30 | X-H torsion
[ 10763 10752 10751 10750 ] final -150.44 input  -60.55 | X-H torsion
[ 11005 11000 10999 10996 ] final -100.27 input  -57.11 | X-H torsion

> <Gold.Protein.ActiveResidues>
 VAL166  LYS551  ARG553  GLY616  TRP617  ASP618  TYR619  PRO620  LYS621  CYS622 
 ASP623  PHE694  ASN695  SER759  ASP760  ASP761  ALA762  ILE779  LEU786  VAL792 
 PHE793  MET794  SER795  GLU796  ALA797  LYS798  CYS799  TRP800  GLU811  SER814 

> <Gold.Protein.RotatedAtoms>
  151.6352  133.3329  159.3117 H   0  0  0  0  0  0  0  0  0  0  0  0  # atno 6907 bound_to 6896
  150.8036  134.7150  159.6635 H   0  0  0  0  0  0  0  0  0  0  0  0  # atno 6908 bound_to 6896
  152.4130  134.6095  160.0073 H   0  0  0  0  0  0  0  0  0  0  0  0  # atno 6909 bound_to 6896
  144.7378  140.3344  143.6147 H   0  0  0  0  0  0  0  0  0  0  0  0  # atno 7974 bound_to 7965
  154.4067  140.1623  156.2420 H   0  0  0  0  0  0  0  0  0  0  0  0  # atno 8008 bound_to 7997
  155.9193  140.3422  155.6137 H   0  0  0  0  0  0  0  0  0  0  0  0  # atno 8009 bound_to 7997
  155.7241  140.0772  157.2308 H   0  0  0  0  0  0  0  0  0  0  0  0  # atno 8010 bound_to 7997
  140.7158  143.3456  151.2264 H   0  0  0  0  0  0  0  0  0  0  0  0  # atno 10167 bound_to 10162
  157.6151  131.1027  150.7492 H   0  0  0  0  0  0  0  0  0  0  0  0  # atno 10718 bound_to 10713
  154.8119  135.3284  154.7283 H   0  0  0  0  0  0  0  0  0  0  0  0  # atno 10763 bound_to 10752
  153.7930  135.6909  153.4872 H   0  0  0  0  0  0  0  0  0  0  0  0  # atno 10764 bound_to 10752
  153.1904  135.4553  155.0088 H   0  0  0  0  0  0  0  0  0  0  0  0  # atno 10765 bound_to 10752
  141.1277  133.8386  157.1081 H   0  0  0  0  0  0  0  0  0  0  0  0  # atno 11005 bound_to 11000
  145.7439  139.1772  143.2360 LP  0  0  0  0  0  0  0  0  0  0  0  0  # atno 17320 bound_to 7965
  146.1113  140.7424  142.9502 LP  0  0  0  0  0  0  0  0  0  0  0  0  # atno 17321 bound_to 7965
  139.6974  143.9589  152.2889 LP  0  0  0  0  0  0  0  0  0  0  0  0  # atno 17342 bound_to 10162
  139.9271  144.6764  150.8401 LP  0  0  0  0  0  0  0  0  0  0  0  0  # atno 17343 bound_to 10162
  156.7861  130.4875  149.5392 LP  0  0  0  0  0  0  0  0  0  0  0  0  # atno 17370 bound_to 10713
  156.1270  130.6151  151.0278 LP  0  0  0  0  0  0  0  0  0  0  0  0  # atno 17371 bound_to 10713
  140.0292  134.9909  157.0746 LP  0  0  0  0  0  0  0  0  0  0  0  0  # atno 17394 bound_to 11000
  140.4313  134.1777  155.7168 LP  0  0  0  0  0  0  0  0  0  0  0  0  # atno 17395 bound_to 11000

$$$$
