AV-unprocessed.smi:2647|AV-procd|sdf|10283|dock2
  -GOLD-   2272014293D 1   1.00000     0.00000
 Structure written by MMmdl.
 32 33  0  0  0  0  0  0  0  0  1 V2000
  144.6903  137.3807  152.5837 O   0  0  0  0  0  0  0  0  0  0  0  0
  145.8347  137.0572  152.2645 C   0  0  0  0  0  0  0  0  0  0  0  0
  146.8937  137.8701  152.3868 N   0  0  0  0  0  0  0  0  0  0  0  0
  146.8488  139.2306  152.9130 C   0  0  0  0  0  0  0  0  0  0  0  0
  147.7314  139.4054  154.1613 C   0  0  0  0  0  0  0  0  0  0  0  0
  148.8566  140.4421  153.9806 C   0  0  0  0  0  0  0  0  0  0  0  0
  149.4696  140.7916  155.2656 N   0  0  0  0  0  0  0  0  0  0  0  0
  148.8297  141.4327  156.2537 C   0  0  0  0  0  0  0  0  0  0  0  0
  147.6647  141.8286  156.2308 O   0  0  0  0  0  0  0  0  0  0  0  0
  149.7370  141.6180  157.4625 C   0  0  0  0  0  0  0  0  0  0  0  0
  151.0463  140.9587  157.0169 C   0  0  0  0  0  0  0  0  0  0  0  0
  150.7270  140.4766  155.6080 C   0  0  0  0  0  0  0  0  0  0  0  0
  151.5437  139.8754  154.9108 O   0  0  0  0  0  0  0  0  0  0  0  0
  146.1939  135.8644  151.7582 N   0  0  0  0  0  0  0  0  0  0  0  0
  145.3675  134.7478  151.4642 C   0  0  0  0  0  0  0  0  0  0  0  0
  144.0635  134.6832  151.7758 N   0  0  0  0  0  0  0  0  0  0  0  0
  143.4913  133.4838  151.3717 N   0  0  0  0  0  0  0  0  0  0  0  0
  144.3851  132.6918  150.7726 C   0  0  0  0  0  0  0  0  0  0  0  0
  146.0134  133.3342  150.6428 S   0  0  0  0  0  0  0  0  0  0  0  0
  147.7973  137.5234  152.1001 H   0  0  0  0  0  0  0  0  0  0  0  0
  147.1794  139.9109  152.1278 H   0  0  0  0  0  0  0  0  0  0  0  0
  145.8176  139.5049  153.1420 H   0  0  0  0  0  0  0  0  0  0  0  0
  147.0966  139.7065  154.9952 H   0  0  0  0  0  0  0  0  0  0  0  0
  148.1603  138.4428  154.4433 H   0  0  0  0  0  0  0  0  0  0  0  0
  149.6200  140.0586  153.3016 H   0  0  0  0  0  0  0  0  0  0  0  0
  148.4613  141.3386  153.4997 H   0  0  0  0  0  0  0  0  0  0  0  0
  149.8693  142.6778  157.6828 H   0  0  0  0  0  0  0  0  0  0  0  0
  149.3121  141.1263  158.3382 H   0  0  0  0  0  0  0  0  0  0  0  0
  151.8740  141.6685  157.0002 H   0  0  0  0  0  0  0  0  0  0  0  0
  151.3159  140.1175  157.6565 H   0  0  0  0  0  0  0  0  0  0  0  0
  147.1744  135.7424  151.5528 H   0  0  0  0  0  0  0  0  0  0  0  0
  144.0837  131.7225  150.4042 H   0  0  0  0  0  0  0  0  0  0  0  0
  1  2  2  0  0  0  0
  2  3  1  0  0  0  0
  2 14  1  0  0  0  0
  3  4  1  0  0  0  0
  3 20  1  0  0  0  0
  4  5  1  0  0  0  0
  4 21  1  0  0  0  0
  4 22  1  0  0  0  0
  5  6  1  0  0  0  0
  5 23  1  0  0  0  0
  5 24  1  0  0  0  0
  6  7  1  0  0  0  0
  6 25  1  0  0  0  0
  6 26  1  0  0  0  0
  7 12  1  0  0  0  0
  7  8  1  0  0  0  0
  8  9  2  0  0  0  0
  8 10  1  0  0  0  0
 10 11  1  0  0  0  0
 10 27  1  0  0  0  0
 10 28  1  0  0  0  0
 11 12  1  0  0  0  0
 11 29  1  0  0  0  0
 11 30  1  0  0  0  0
 12 13  2  0  0  0  0
 14 15  1  0  0  0  0
 14 31  1  0  0  0  0
 15 19  1  0  0  0  0
 15 16  2  0  0  0  0
 16 17  1  0  0  0  0
 17 18  2  0  0  0  0
 18 19  1  0  0  0  0
 18 32  1  0  0  0  0
M  END
> <s_m_source_file>
AV-unprocessed.smi

> <i_m_source_file_index>
2647

> <i_lp_mmshare_version>
43012

> <i_f3d_flags>
0

> <s_epik_input>
czFbY0hdbm5jMVtOSF1DKD1PKVtOSF1bQ0gyXVtDSDJdW0NIMl1OMkMoPU8pW0NIMl1bQ0gyXUMyPU8=

> <s_epik_cmdline>
J2VwaWtfcHl0aG9uJywgJy1waCcsICc3LjAnLCAnLXRuJywgJzgnLCAnLW1hJywgJzIwMCcsICctbWV0YWxfYmluZGluZycsICctaW1hZScsICc8aW5maWxlLm1hZT4nLCAnLW9tYWUnLCAnPG91dGZpbGUubWFlPic=

> <r_lp_tautomer_probability>
1

> <r_epik_Ionization_Penalty>
0.00175263

> <r_epik_Ionization_Penalty_Charging>
0

> <r_epik_Ionization_Penalty_Neutral>
0.00175263

> <r_epik_State_Penalty>
-0

> <r_epik_Charging_Adjusted_Penalty>
0

> <i_epik_Tot_Q>
0

> <i_epik_Tot_abs_Q>
0

> <r_epik_Metal_State_Penalty>
0.330668

> <b_epik_Metal_Only>
0

> <s_lp_Force_Field>
OPLS_2005

> <r_lp_Energy>
10.1998

> <b_lp_Chiralities_Consistent>
1

> <s_lp_Variant>
AV-unprocessed.smi:2647-1

> <Gold.Version>
5.8.1

> <Gold.Id.Protein>
6NUR|6NUR_protein|mol2

> <Gold.PLP.Fitness>
37.1181

> <Gold.PLP.PLP>
-29.0048

> <Gold.PLP.part.hbond>
-3.0000

> <Gold.PLP.part.metal>
0.0000

> <Gold.PLP.part.buried>
-4.4410

> <Gold.PLP.part.nonpolar>
-22.9993

> <Gold.PLP.part.repulsive>
0.8640

> <Gold.PLP.ligand.clash>
0.0000

> <Gold.PLP.ligand.torsion>
0.4704

> <Gold.PLP.Chemscore.Hbond>
3.0000

> <Gold.PLP.Chemscore.CHOScore>
0.0000

> <Gold.PLP.Chemscore.Metal>
0.0000

> <Gold.Chemscore.Hbonds>
donor molecule, donor type, donor heavy atom, donor atom, acceptor molecule, acceptor atom, score
      L1  H     3    20       P1  7948  1.00
      L1  H    14    31       P1  7948  1.00
      P1  H  7989  7998       L1    13  1.00

> <Gold.PLP.Chemscore.Internal.Correction>
0.0542

> <Gold.Rescore>
     Score         DG    S(hbond)    S(metal)    S(lipo)     H(rot)  DE(clash)    DE(int)     intcor
     12.50     -14.23       2.94        0.00      42.66       2.36       0.01       1.73       ----

> <Gold.Chemscore.Fitness>
12.4960

> <Gold.Chemscore.DG>
-14.2315

> <Gold.Chemscore.ZeroCoef>
-5.4800

> <Gold.Chemscore.Hbond>
2.9371

> <Gold.Chemscore.Metal>
0.0000

> <Gold.Chemscore.Lipo>
42.6559

> <Gold.Chemscore.Internal_Hbond>
0.0000

> <Gold.Chemscore.DEClash>
0.0077

> <Gold.Chemscore.DEInternal>
1.7277

> <Gold.Chemscore.Rot>
2.3629

> <Gold.Chemscore.Internal.Correction>
   9.000000E+99

> <Gold.Chemscore.Hbonds>
donor molecule, donor type, donor heavy atom, donor atom, acceptor molecule, acceptor atom, score
      L1  H     3    20       P1  7948  0.97
      L1  H    14    31       P1  7948  0.95
      P1  H  7989  7998       L1    13  0.39

> <Gold.Chemscore.Hbond.Weighted>
-9.8097

> <Gold.Chemscore.Metal.Weighted>
-0.0000

> <Gold.Chemscore.Lipo.Weighted>
-4.9907

> <Gold.Chemscore.Internal_Hbond.Weighted>
0.0000

> <Gold.Chemscore.DEClash.Weighted>
0.0077

> <Gold.Chemscore.DEInternal.Weighted>
1.7277

> <Gold.Chemscore.Rot.Weighted>
6.0490

> <Gold.Chemscore.Internal.Correction.Weighted>
   9.000000E+99

> <Gold.Protein.RotatedTorsions>
[ 6907 6896 6895 6894 ] final   37.87 input  -60.11 | X-H torsion
[ 7974 7965 7964 7962 ] final   41.75 input  175.53 | X-H torsion
[ 8008 7997 7996 7995 ] final   15.21 input   59.86 | X-H torsion
[ 10167 10162 10161 10158 ] final  161.46 input  -65.29 | X-H torsion
[ 10718 10713 10712 10709 ] final   84.89 input   66.30 | X-H torsion
[ 10763 10752 10751 10750 ] final   77.53 input  -60.55 | X-H torsion
[ 11005 11000 10999 10996 ] final  135.79 input  -57.11 | X-H torsion

> <Gold.Protein.ActiveResidues>
 VAL166  LYS551  ARG553  GLY616  TRP617  ASP618  TYR619  PRO620  LYS621  CYS622 
 ASP623  PHE694  ASN695  SER759  ASP760  ASP761  ALA762  ILE779  LEU786  VAL792 
 PHE793  MET794  SER795  GLU796  ALA797  LYS798  CYS799  TRP800  GLU811  SER814 

> <Gold.Protein.RotatedAtoms>
  152.1489  134.9004  160.0549 H   0  0  0  0  0  0  0  0  0  0  0  0  # atno 6907 bound_to 6896
  152.0043  133.3832  159.4202 H   0  0  0  0  0  0  0  0  0  0  0  0  # atno 6908 bound_to 6896
  150.6873  134.3721  159.5040 H   0  0  0  0  0  0  0  0  0  0  0  0  # atno 6909 bound_to 6896
  146.0798  139.5379  142.9544 H   0  0  0  0  0  0  0  0  0  0  0  0  # atno 7974 bound_to 7965
  154.8595  140.2942  155.5548 H   0  0  0  0  0  0  0  0  0  0  0  0  # atno 8008 bound_to 7997
  156.3019  140.2481  156.3499 H   0  0  0  0  0  0  0  0  0  0  0  0  # atno 8009 bound_to 7997
  154.8934  140.0394  157.1841 H   0  0  0  0  0  0  0  0  0  0  0  0  # atno 8010 bound_to 7997
  139.4849  144.4534  151.8800 H   0  0  0  0  0  0  0  0  0  0  0  0  # atno 10167 bound_to 10162
  157.6906  131.0152  150.2740 H   0  0  0  0  0  0  0  0  0  0  0  0  # atno 10718 bound_to 10713
  153.0806  135.4911  154.8494 H   0  0  0  0  0  0  0  0  0  0  0  0  # atno 10763 bound_to 10752
  154.7145  135.3026  154.9147 H   0  0  0  0  0  0  0  0  0  0  0  0  # atno 10764 bound_to 10752
  153.9831  135.6787  153.4804 H   0  0  0  0  0  0  0  0  0  0  0  0  # atno 10765 bound_to 10752
  140.0003  134.9481  157.0056 H   0  0  0  0  0  0  0  0  0  0  0  0  # atno 11005 bound_to 11000
  145.6240  141.0317  143.1899 LP  0  0  0  0  0  0  0  0  0  0  0  0  # atno 17320 bound_to 7965
  144.7285  139.7799  143.7356 LP  0  0  0  0  0  0  0  0  0  0  0  0  # atno 17321 bound_to 7965
  140.3992  144.2515  150.5894 LP  0  0  0  0  0  0  0  0  0  0  0  0  # atno 17342 bound_to 10162
  140.5073  143.2300  151.8588 LP  0  0  0  0  0  0  0  0  0  0  0  0  # atno 17343 bound_to 10162
  156.3298  130.3798  149.7501 LP  0  0  0  0  0  0  0  0  0  0  0  0  # atno 17370 bound_to 10713
  156.5045  130.8144  151.3145 LP  0  0  0  0  0  0  0  0  0  0  0  0  # atno 17371 bound_to 10713
  140.4741  134.1357  155.7207 LP  0  0  0  0  0  0  0  0  0  0  0  0  # atno 17394 bound_to 11000
  141.1636  133.8745  157.1777 LP  0  0  0  0  0  0  0  0  0  0  0  0  # atno 17395 bound_to 11000

$$$$
