AV-unprocessed.smi:420|AV-procd|sdf|2533|dock5
  -GOLD-   2262022493D 1   1.00000     0.00000
 Structure written by MMmdl.
 36 38  0  0  0  0  0  0  0  0  1 V2000
  152.1719  138.6742  154.6350 C   0  0  0  0  0  0  0  0  0  0  0  0
  151.3020  139.6542  155.2742 N   0  0  0  0  0  0  0  0  0  0  0  0
  151.5332  140.3206  156.4294 C   0  0  0  0  0  0  0  0  0  0  0  0
  152.5302  140.2113  157.1431 O   0  0  0  0  0  0  0  0  0  0  0  0
  150.4774  141.1367  156.6614 N   0  0  0  0  0  0  0  0  0  0  0  0
  150.3116  142.0409  157.7985 C   0  0  0  0  0  0  0  0  0  0  0  0
  151.5067  143.0036  157.9460 C   0  0  1  0  0  0  0  0  0  0  0  0
  151.0967  144.2967  157.5460 O   0  0  0  0  0  0  0  0  0  0  0  0
  152.0349  143.0005  159.3726 C   0  0  0  0  0  0  0  0  0  0  0  0
  152.7938  141.9135  159.8613 C   0  0  0  0  0  0  0  0  0  0  0  0
  153.2857  141.9273  161.1811 C   0  0  0  0  0  0  0  0  0  0  0  0
  153.0262  143.0291  162.0186 C   0  0  0  0  0  0  0  0  0  0  0  0
  153.5012  143.0433  163.2864 F   0  0  0  0  0  0  0  0  0  0  0  0
  152.2742  144.1172  161.5356 C   0  0  0  0  0  0  0  0  0  0  0  0
  151.7807  144.1031  160.2164 C   0  0  0  0  0  0  0  0  0  0  0  0
  149.5490  140.9941  155.6198 C   0  0  0  0  0  0  0  0  0  0  0  0
  148.3109  141.6188  155.3871 C   0  0  0  0  0  0  0  0  0  0  0  0
  147.6083  141.2462  154.2170 C   0  0  0  0  0  0  0  0  0  0  0  0
  148.1430  140.2820  153.3233 C   0  0  0  0  0  0  0  0  0  0  0  0
  149.3932  139.6714  153.5795 C   0  0  0  0  0  0  0  0  0  0  0  0
  150.0688  140.0597  154.7488 C   0  0  0  0  0  0  0  0  0  0  0  0
  153.0753  138.4855  155.2164 H   0  0  0  0  0  0  0  0  0  0  0  0
  152.4739  139.0267  153.6484 H   0  0  0  0  0  0  0  0  0  0  0  0
  151.6459  137.7272  154.5133 H   0  0  0  0  0  0  0  0  0  0  0  0
  149.3695  142.5871  157.7384 H   0  0  0  0  0  0  0  0  0  0  0  0
  150.2339  141.4223  158.6945 H   0  0  0  0  0  0  0  0  0  0  0  0
  152.3172  142.6963  157.2836 H   0  0  0  0  0  0  0  0  0  0  0  0
  150.2917  144.2168  157.0576 H   0  0  0  0  0  0  0  0  0  0  0  0
  153.0040  141.0660  159.2253 H   0  0  0  0  0  0  0  0  0  0  0  0
  153.8637  141.0931  161.5502 H   0  0  0  0  0  0  0  0  0  0  0  0
  152.0766  144.9639  162.1765 H   0  0  0  0  0  0  0  0  0  0  0  0
  151.2081  144.9445  159.8541 H   0  0  0  0  0  0  0  0  0  0  0  0
  147.9094  142.3551  156.0672 H   0  0  0  0  0  0  0  0  0  0  0  0
  146.6533  141.7020  154.0010 H   0  0  0  0  0  0  0  0  0  0  0  0
  147.5897  140.0124  152.4358 H   0  0  0  0  0  0  0  0  0  0  0  0
  149.8087  138.9388  152.9036 H   0  0  0  0  0  0  0  0  0  0  0  0
  1  2  1  0  0  0  0
  1 22  1  0  0  0  0
  1 23  1  0  0  0  0
  1 24  1  0  0  0  0
  2 21  1  0  0  0  0
  2  3  1  0  0  0  0
  3  4  2  0  0  0  0
  3  5  1  0  0  0  0
  5  6  1  0  0  0  0
  5 16  1  0  0  0  0
  6  7  1  0  0  0  0
  6 25  1  0  0  0  0
  6 26  1  0  0  0  0
  7  8  1  0  0  0  0
  7  9  1  0  0  0  0
  7 27  1  0  0  0  0
  8 28  1  0  0  0  0
  9 15  1  0  0  0  0
  9 10  2  0  0  0  0
 10 11  1  0  0  0  0
 10 29  1  0  0  0  0
 11 12  2  0  0  0  0
 11 30  1  0  0  0  0
 12 13  1  0  0  0  0
 12 14  1  0  0  0  0
 14 15  2  0  0  0  0
 14 31  1  0  0  0  0
 15 32  1  0  0  0  0
 16 21  2  0  0  0  0
 16 17  1  0  0  0  0
 17 18  2  0  0  0  0
 17 33  1  0  0  0  0
 18 19  1  0  0  0  0
 18 34  1  0  0  0  0
 19 20  2  0  0  0  0
 19 35  1  0  0  0  0
 20 21  1  0  0  0  0
 20 36  1  0  0  0  0
M  END
> <s_m_source_file>
AV-unprocessed.smi

> <i_m_source_file_index>
420

> <i_lp_mmshare_version>
43012

> <i_f3d_flags>
0

> <s_epik_input>
W2NIXTFbY0hdW2NIXVtjSF1jKGMxMiluKFtDSDNdKWMoPU8pbjJbQ0gyXVtDQEhdKFtPSF0pYzNbY0hdW2NIXWMoRilbY0hdW2NIXTM=

> <s_epik_cmdline>
J2VwaWtfcHl0aG9uJywgJy1waCcsICc3LjAnLCAnLXRuJywgJzgnLCAnLW1hJywgJzIwMCcsICctbWV0YWxfYmluZGluZycsICctaW1hZScsICc8aW5maWxlLm1hZT4nLCAnLW9tYWUnLCAnPG91dGZpbGUubWFlPic=

> <r_lp_tautomer_probability>
1

> <r_epik_Ionization_Penalty>
1.79795e-06

> <r_epik_Ionization_Penalty_Charging>
2.57375e-09

> <r_epik_Ionization_Penalty_Neutral>
1.79538e-06

> <r_epik_State_Penalty>
-0

> <r_epik_Charging_Adjusted_Penalty>
2.57375e-09

> <i_epik_Tot_Q>
0

> <i_epik_Tot_abs_Q>
0

> <r_epik_Metal_State_Penalty>
-0

> <b_epik_Metal_Only>
0

> <s_lp_Force_Field>
OPLS_2005

> <r_lp_Energy>
43.03

> <b_lp_Chiralities_Consistent>
1

> <s_lp_Variant>
AV-unprocessed.smi:420-2

> <Gold.Version>
5.8.1

> <Gold.Id.Protein>
6NUR|6NUR_protein|mol2

> <Gold.PLP.Fitness>
56.3373

> <Gold.PLP.PLP>
-52.4617

> <Gold.PLP.part.hbond>
-2.0000

> <Gold.PLP.part.metal>
0.0000

> <Gold.PLP.part.buried>
4.9624

> <Gold.PLP.part.nonpolar>
-53.6055

> <Gold.PLP.part.repulsive>
0.0000

> <Gold.PLP.ligand.clash>
0.0000

> <Gold.PLP.ligand.torsion>
1.0728

> <Gold.PLP.Chemscore.Hbond>
2.0000

> <Gold.PLP.Chemscore.CHOScore>
0.0000

> <Gold.PLP.Chemscore.Metal>
0.0000

> <Gold.Chemscore.Hbonds>
donor molecule, donor type, donor heavy atom, donor atom, acceptor molecule, acceptor atom, score
      L1  H     8    28       P1  8028  1.00
      P1  H  7997  8009       L1     4  1.00

> <Gold.PLP.Chemscore.Internal.Correction>
0.0212

> <Gold.Rescore>
     Score         DG    S(hbond)    S(metal)    S(lipo)     H(rot)  DE(clash)    DE(int)     intcor
     18.72     -23.24       1.93        0.00     137.13       1.85       3.55       0.98       ----

> <Gold.Chemscore.Fitness>
18.7159

> <Gold.Chemscore.DG>
-23.2400

> <Gold.Chemscore.ZeroCoef>
-5.4800

> <Gold.Chemscore.Hbond>
1.9291

> <Gold.Chemscore.Metal>
0.0000

> <Gold.Chemscore.Lipo>
137.1264

> <Gold.Chemscore.Internal_Hbond>
0.0000

> <Gold.Chemscore.DEClash>
3.5455

> <Gold.Chemscore.DEInternal>
0.9786

> <Gold.Chemscore.Rot>
1.8465

> <Gold.Chemscore.Internal.Correction>
   9.000000E+99

> <Gold.Chemscore.Hbonds>
donor molecule, donor type, donor heavy atom, donor atom, acceptor molecule, acceptor atom, score
      L1  H     8    28       P1  8028  0.84
      P1  H  7997  8009       L1     4  0.96

> <Gold.Chemscore.Hbond.Weighted>
-6.4432

> <Gold.Chemscore.Metal.Weighted>
-0.0000

> <Gold.Chemscore.Lipo.Weighted>
-16.0438

> <Gold.Chemscore.Internal_Hbond.Weighted>
0.0000

> <Gold.Chemscore.DEClash.Weighted>
3.5455

> <Gold.Chemscore.DEInternal.Weighted>
0.9786

> <Gold.Chemscore.Rot.Weighted>
4.7270

> <Gold.Chemscore.Internal.Correction.Weighted>
   9.000000E+99

> <Gold.Protein.RotatedTorsions>
[ 6907 6896 6895 6894 ] final  101.16 input  -60.11 | X-H torsion
[ 7974 7965 7964 7962 ] final  -86.68 input  175.53 | X-H torsion
[ 8008 7997 7996 7995 ] final  178.41 input   59.86 | X-H torsion
[ 10167 10162 10161 10158 ] final  -82.85 input  -65.29 | X-H torsion
[ 10718 10713 10712 10709 ] final -109.61 input   66.30 | X-H torsion
[ 10763 10752 10751 10750 ] final   66.02 input  -60.55 | X-H torsion
[ 11005 11000 10999 10996 ] final  -52.08 input  -57.11 | X-H torsion

> <Gold.Protein.ActiveResidues>
 VAL166  LYS551  ARG553  GLY616  TRP617  ASP618  TYR619  PRO620  LYS621  CYS622 
 ASP623  PHE694  ASN695  SER759  ASP760  ASP761  ALA762  ILE779  LEU786  VAL792 
 PHE793  MET794  SER795  GLU796  ALA797  LYS798  CYS799  TRP800  GLU811  SER814 

> <Gold.Protein.RotatedAtoms>
  152.5356  134.0168  159.7963 H   0  0  0  0  0  0  0  0  0  0  0  0  # atno 6907 bound_to 6896
  151.0361  133.5740  159.2663 H   0  0  0  0  0  0  0  0  0  0  0  0  # atno 6908 bound_to 6896
  151.2727  135.0696  159.9193 H   0  0  0  0  0  0  0  0  0  0  0  0  # atno 6909 bound_to 6896
  145.4767  140.9558  143.1887 H   0  0  0  0  0  0  0  0  0  0  0  0  # atno 7974 bound_to 7965
  156.0549  140.1334  157.0007 H   0  0  0  0  0  0  0  0  0  0  0  0  # atno 8008 bound_to 7997
  154.4453  140.1003  156.6502 H   0  0  0  0  0  0  0  0  0  0  0  0  # atno 8009 bound_to 7997
  155.5466  140.3462  155.4461 H   0  0  0  0  0  0  0  0  0  0  0  0  # atno 8010 bound_to 7997
  140.4282  143.2558  151.8797 H   0  0  0  0  0  0  0  0  0  0  0  0  # atno 10167 bound_to 10162
  156.0546  130.5772  150.8123 H   0  0  0  0  0  0  0  0  0  0  0  0  # atno 10718 bound_to 10713
  153.0121  135.5336  154.6758 H   0  0  0  0  0  0  0  0  0  0  0  0  # atno 10763 bound_to 10752
  154.5931  135.2861  155.0617 H   0  0  0  0  0  0  0  0  0  0  0  0  # atno 10764 bound_to 10752
  154.1702  135.6533  153.5060 H   0  0  0  0  0  0  0  0  0  0  0  0  # atno 10765 bound_to 10752
  141.0906  133.6633  156.3972 H   0  0  0  0  0  0  0  0  0  0  0  0  # atno 11005 bound_to 11000
  144.7913  139.6322  143.7112 LP  0  0  0  0  0  0  0  0  0  0  0  0  # atno 17320 bound_to 7965
  146.2365  139.5916  142.9520 LP  0  0  0  0  0  0  0  0  0  0  0  0  # atno 17321 bound_to 7965
  139.4784  144.5364  151.8592 LP  0  0  0  0  0  0  0  0  0  0  0  0  # atno 17342 bound_to 10162
  140.4458  144.1924  150.5894 LP  0  0  0  0  0  0  0  0  0  0  0  0  # atno 17343 bound_to 10162
  157.5504  131.0943  150.9703 LP  0  0  0  0  0  0  0  0  0  0  0  0  # atno 17370 bound_to 10713
  156.9964  130.5583  149.5307 LP  0  0  0  0  0  0  0  0  0  0  0  0  # atno 17371 bound_to 10713
  140.5262  134.6257  157.5335 LP  0  0  0  0  0  0  0  0  0  0  0  0  # atno 17394 bound_to 11000
  139.9731  134.7260  156.0003 LP  0  0  0  0  0  0  0  0  0  0  0  0  # atno 17395 bound_to 11000

$$$$
