AV-unprocessed.smi:3045|AV-procd|sdf|11609|dock1
  -GOLD-   2272016593D 1   1.00000     0.00000
 Structure written by MMmdl.
 35 36  0  0  0  0  0  0  0  0  1 V2000
  145.9032  143.0927  154.6039 C   0  0  0  0  0  0  0  0  0  0  0  0
  146.5920  141.8281  154.8224 N   0  0  0  0  0  0  0  0  0  0  0  0
  147.6171  141.3640  153.9039 C   0  0  0  0  0  0  0  0  0  0  0  0
  148.2088  140.0922  154.5507 C   0  0  1  0  0  0  0  0  0  0  0  0
  149.6515  140.3025  155.0363 C   0  0  0  0  0  0  0  0  0  0  0  0
  150.5856  139.7295  154.4739 O   0  0  0  0  0  0  0  0  0  0  0  0
  149.8171  141.1221  156.0857 N   0  0  0  0  0  0  0  0  0  0  0  0
  151.0989  141.4414  156.7021 C   0  0  0  0  0  0  0  0  0  0  0  0
  151.0061  141.4295  158.2365 C   0  0  0  0  0  0  0  0  0  0  0  0
  151.4214  142.7549  158.8430 C   0  0  0  0  0  0  0  0  0  0  0  0
  152.4352  142.8158  159.8212 C   0  0  0  0  0  0  0  0  0  0  0  0
  152.7890  144.0704  160.3536 C   0  0  0  0  0  0  0  0  0  0  0  0
  152.1123  145.2136  159.8831 C   0  0  0  0  0  0  0  0  0  0  0  0
  151.1411  145.1672  158.9458 N   0  0  0  0  0  0  0  0  0  0  0  0
  150.8074  143.9600  158.4408 C   0  0  0  0  0  0  0  0  0  0  0  0
  147.2602  139.7559  155.7197 C   0  0  0  0  0  0  0  0  0  0  0  0
  146.3443  140.9649  155.8109 C   0  0  0  0  0  0  0  0  0  0  0  0
  145.5020  141.0997  156.6971 O   0  0  0  0  0  0  0  0  0  0  0  0
  144.8540  142.9182  154.3636 H   0  0  0  0  0  0  0  0  0  0  0  0
  146.3521  143.6479  153.7799 H   0  0  0  0  0  0  0  0  0  0  0  0
  145.9529  143.7165  155.4970 H   0  0  0  0  0  0  0  0  0  0  0  0
  147.1602  141.1322  152.9409 H   0  0  0  0  0  0  0  0  0  0  0  0
  148.3612  142.1449  153.7359 H   0  0  0  0  0  0  0  0  0  0  0  0
  148.1941  139.2779  153.8240 H   0  0  0  0  0  0  0  0  0  0  0  0
  148.9970  141.5527  156.4877 H   0  0  0  0  0  0  0  0  0  0  0  0
  151.8633  140.7422  156.3582 H   0  0  0  0  0  0  0  0  0  0  0  0
  151.4034  142.4295  156.3557 H   0  0  0  0  0  0  0  0  0  0  0  0
  149.9866  141.1986  158.5483 H   0  0  0  0  0  0  0  0  0  0  0  0
  151.6390  140.6429  158.6498 H   0  0  0  0  0  0  0  0  0  0  0  0
  152.9343  141.9185  160.1567 H   0  0  0  0  0  0  0  0  0  0  0  0
  153.5605  144.1549  161.1045 H   0  0  0  0  0  0  0  0  0  0  0  0
  152.3584  146.1915  160.2694 H   0  0  0  0  0  0  0  0  0  0  0  0
  150.0285  143.9573  157.6923 H   0  0  0  0  0  0  0  0  0  0  0  0
  146.6678  138.8669  155.5021 H   0  0  0  0  0  0  0  0  0  0  0  0
  147.7726  139.5940  156.6696 H   0  0  0  0  0  0  0  0  0  0  0  0
  1  2  1  0  0  0  0
  1 19  1  0  0  0  0
  1 20  1  0  0  0  0
  1 21  1  0  0  0  0
  2 17  1  0  0  0  0
  2  3  1  0  0  0  0
  3  4  1  0  0  0  0
  3 22  1  0  0  0  0
  3 23  1  0  0  0  0
  4  5  1  0  0  0  0
  4 16  1  0  0  0  0
  4 24  1  0  0  0  0
  5  6  2  0  0  0  0
  5  7  1  0  0  0  0
  7  8  1  0  0  0  0
  7 25  1  0  0  0  0
  8  9  1  0  0  0  0
  8 26  1  0  0  0  0
  8 27  1  0  0  0  0
  9 10  1  0  0  0  0
  9 28  1  0  0  0  0
  9 29  1  0  0  0  0
 10 15  1  0  0  0  0
 10 11  2  0  0  0  0
 11 12  1  0  0  0  0
 11 30  1  0  0  0  0
 12 13  2  0  0  0  0
 12 31  1  0  0  0  0
 13 14  1  0  0  0  0
 13 32  1  0  0  0  0
 14 15  2  0  0  0  0
 15 33  1  0  0  0  0
 16 17  1  0  0  0  0
 16 34  1  0  0  0  0
 16 35  1  0  0  0  0
 17 18  2  0  0  0  0
M  END
> <s_m_source_file>
AV-unprocessed.smi

> <i_m_source_file_index>
3045

> <i_lp_mmshare_version>
43012

> <i_f3d_flags>
0

> <s_epik_input>
W0NIM11OMVtDSDJdW0NASF0oW0NIMl1DMT1PKUMoPU8pW05IXVtDSDJdW0NIMl1jMltjSF1bY0hdW2NIXW5bY0hdMg==

> <s_epik_cmdline>
J2VwaWtfcHl0aG9uJywgJy1waCcsICc3LjAnLCAnLXRuJywgJzgnLCAnLW1hJywgJzIwMCcsICctbWV0YWxfYmluZGluZycsICctaW1hZScsICc8aW5maWxlLm1hZT4nLCAnLW9tYWUnLCAnPG91dGZpbGUubWFlPic=

> <r_epik_Ionization_Penalty>
0.0130932

> <r_epik_Ionization_Penalty_Charging>
0

> <r_epik_Ionization_Penalty_Neutral>
0.0130932

> <r_epik_State_Penalty>
0.0101714

> <r_epik_Charging_Adjusted_Penalty>
0.0101714

> <i_epik_Tot_Q>
0

> <i_epik_Tot_abs_Q>
0

> <r_epik_Metal_State_Penalty>
0.00995082

> <b_epik_Metal_Only>
0

> <s_lp_Force_Field>
OPLS_2005

> <r_lp_Energy>
9.14953

> <b_lp_Chiralities_Consistent>
1

> <s_lp_Variant>
AV-unprocessed.smi:3045-1

> <Gold.Version>
5.8.1

> <Gold.Id.Protein>
6NUR|6NUR_protein|mol2

> <Gold.PLP.Fitness>
41.4357

> <Gold.PLP.PLP>
-36.7964

> <Gold.PLP.part.hbond>
-1.0000

> <Gold.PLP.part.metal>
0.0000

> <Gold.PLP.part.buried>
-5.8447

> <Gold.PLP.part.nonpolar>
-30.1904

> <Gold.PLP.part.repulsive>
0.4161

> <Gold.PLP.ligand.clash>
0.0000

> <Gold.PLP.ligand.torsion>
0.7013

> <Gold.PLP.Chemscore.Hbond>
1.0000

> <Gold.PLP.Chemscore.CHOScore>
1.0000

> <Gold.PLP.Chemscore.Metal>
0.0000

> <Gold.Chemscore.Hbonds>
donor molecule, donor type, donor heavy atom, donor atom, acceptor molecule, acceptor atom, score
      P1  H  7989  7998       L1     6  1.00
      L1  C    15    33       P1  8028  1.00

> <Gold.PLP.Chemscore.Internal.Correction>
0.0418

> <Gold.Rescore>
     Score         DG    S(hbond)    S(metal)    S(lipo)     H(rot)  DE(clash)    DE(int)     intcor
     13.57     -14.10       0.76        0.00      87.45       1.62       0.01       0.51       ----

> <Gold.Chemscore.Fitness>
13.5750

> <Gold.Chemscore.DG>
-14.0968

> <Gold.Chemscore.ZeroCoef>
-5.4800

> <Gold.Chemscore.Hbond>
0.7590

> <Gold.Chemscore.Metal>
0.0000

> <Gold.Chemscore.Lipo>
87.4481

> <Gold.Chemscore.Internal_Hbond>
0.0000

> <Gold.Chemscore.DEClash>
0.0108

> <Gold.Chemscore.DEInternal>
0.5110

> <Gold.Chemscore.Rot>
1.6210

> <Gold.Chemscore.Internal.Correction>
   9.000000E+99

> <Gold.Chemscore.Hbonds>
donor molecule, donor type, donor heavy atom, donor atom, acceptor molecule, acceptor atom, score
      P1  H  7989  7998       L1     6  0.85

> <Gold.Chemscore.Hbond.Weighted>
-2.5351

> <Gold.Chemscore.Metal.Weighted>
-0.0000

> <Gold.Chemscore.Lipo.Weighted>
-10.2314

> <Gold.Chemscore.Internal_Hbond.Weighted>
0.0000

> <Gold.Chemscore.DEClash.Weighted>
0.0108

> <Gold.Chemscore.DEInternal.Weighted>
0.5110

> <Gold.Chemscore.Rot.Weighted>
4.1498

> <Gold.Chemscore.Internal.Correction.Weighted>
   9.000000E+99

> <Gold.Protein.RotatedTorsions>
[ 6907 6896 6895 6894 ] final   45.70 input  -60.11 | X-H torsion
[ 7974 7965 7964 7962 ] final  143.01 input  175.53 | X-H torsion
[ 8008 7997 7996 7995 ] final  100.43 input   59.86 | X-H torsion
[ 10167 10162 10161 10158 ] final  102.53 input  -65.29 | X-H torsion
[ 10718 10713 10712 10709 ] final   56.87 input   66.30 | X-H torsion
[ 10763 10752 10751 10750 ] final  165.93 input  -60.55 | X-H torsion
[ 11005 11000 10999 10996 ] final   22.08 input  -57.11 | X-H torsion

> <Gold.Protein.ActiveResidues>
 VAL166  LYS551  ARG553  GLY616  TRP617  ASP618  TYR619  PRO620  LYS621  CYS622 
 ASP623  PHE694  ASN695  SER759  ASP760  ASP761  ALA762  ILE779  LEU786  VAL792 
 PHE793  MET794  SER795  GLU796  ALA797  LYS798  CYS799  TRP800  GLU811  SER814 

> <Gold.Protein.RotatedAtoms>
  152.2476  134.8165  160.0450 H   0  0  0  0  0  0  0  0  0  0  0  0  # atno 6907 bound_to 6896
  151.8857  133.3500  159.3789 H   0  0  0  0  0  0  0  0  0  0  0  0  # atno 6908 bound_to 6896
  150.7073  134.4901  159.5556 H   0  0  0  0  0  0  0  0  0  0  0  0  # atno 6909 bound_to 6896
  144.8957  139.5494  143.5777 H   0  0  0  0  0  0  0  0  0  0  0  0  # atno 7974 bound_to 7965
  156.1202  140.3213  155.8197 H   0  0  0  0  0  0  0  0  0  0  0  0  # atno 8008 bound_to 7997
  155.4518  140.0533  157.3017 H   0  0  0  0  0  0  0  0  0  0  0  0  # atno 8009 bound_to 7997
  154.4822  140.2058  155.9751 H   0  0  0  0  0  0  0  0  0  0  0  0  # atno 8010 bound_to 7997
  139.7342  144.7028  151.0675 H   0  0  0  0  0  0  0  0  0  0  0  0  # atno 10167 bound_to 10162
  157.5467  130.8736  149.8902 H   0  0  0  0  0  0  0  0  0  0  0  0  # atno 10718 bound_to 10713
  154.3314  135.2754  155.2470 H   0  0  0  0  0  0  0  0  0  0  0  0  # atno 10763 bound_to 10752
  154.4780  135.5866  153.6372 H   0  0  0  0  0  0  0  0  0  0  0  0  # atno 10764 bound_to 10752
  152.9866  135.6104  154.3507 H   0  0  0  0  0  0  0  0  0  0  0  0  # atno 10765 bound_to 10752
  140.3845  134.1885  155.7663 H   0  0  0  0  0  0  0  0  0  0  0  0  # atno 11005 bound_to 11000
  146.3080  139.7646  142.9041 LP  0  0  0  0  0  0  0  0  0  0  0  0  # atno 17320 bound_to 7965
  145.3704  141.0341  143.3234 LP  0  0  0  0  0  0  0  0  0  0  0  0  # atno 17321 bound_to 7965
  140.7776  143.5005  150.9778 LP  0  0  0  0  0  0  0  0  0  0  0  0  # atno 17342 bound_to 10162
  139.8693  143.7213  152.3167 LP  0  0  0  0  0  0  0  0  0  0  0  0  # atno 17343 bound_to 10162
  156.0542  130.3711  150.1130 LP  0  0  0  0  0  0  0  0  0  0  0  0  # atno 17370 bound_to 10713
  156.9306  130.9712  151.3533 LP  0  0  0  0  0  0  0  0  0  0  0  0  # atno 17371 bound_to 10713
  141.1912  133.8200  157.0889 LP  0  0  0  0  0  0  0  0  0  0  0  0  # atno 17394 bound_to 11000
  140.0453  134.9833  157.1037 LP  0  0  0  0  0  0  0  0  0  0  0  0  # atno 17395 bound_to 11000

$$$$
