AV-unprocessed.smi:54|AV-procd|sdf|542|dock3
  -GOLD-   2262016433D 1   1.00000     0.00000
 Structure written by MMmdl.
 44 46  0  0  0  0  0  0  0  0  1 V2000
  145.9513  131.7136  150.6086 C   0  0  0  0  0  0  0  0  0  0  0  0
  144.6651  132.3972  151.0998 C   0  0  0  0  0  0  0  0  0  0  0  0
  143.7543  132.7842  149.9234 C   0  0  0  0  0  0  0  0  0  0  0  0
  145.0023  133.6253  151.9529 C   0  0  0  0  0  0  0  0  0  0  0  0
  145.6174  134.5895  151.4953 O   0  0  0  0  0  0  0  0  0  0  0  0
  144.5577  133.5649  153.3342 N   0  0  0  0  0  0  0  0  0  0  0  0
  144.7425  134.4977  154.2969 C   0  0  0  0  0  0  0  0  0  0  0  0
  145.6574  135.4531  154.2122 N   0  0  0  0  0  0  0  0  0  0  0  0
  145.6997  136.2973  155.2864 C   0  0  0  0  0  0  0  0  0  0  0  0
  144.8916  136.2494  156.4025 C   0  0  0  0  0  0  0  0  0  0  0  0
  145.2272  137.2745  157.2793 N   0  0  0  0  0  0  0  0  0  0  0  0
  146.2045  137.8972  156.6808 C   0  0  0  0  0  0  0  0  0  0  0  0
  146.5641  137.3552  155.4679 N   0  0  0  0  0  0  0  0  0  0  0  0
  147.6128  137.7978  154.4932 C   0  0  1  0  0  0  0  0  0  0  0  0
  147.4107  139.1519  154.2201 O   0  0  0  0  0  0  0  0  0  0  0  0
  148.2474  139.9340  155.0652 C   0  0  2  0  0  0  0  0  0  0  0  0
  148.3756  141.3765  154.5460 C   0  0  0  0  0  0  0  0  0  0  0  0
  149.3265  142.0809  155.3154 O   0  0  0  0  0  0  0  0  0  0  0  0
  149.5402  139.1095  155.0707 C   0  0  2  0  0  0  0  0  0  0  0  0
  150.2970  139.3646  153.8980 O   0  0  0  0  0  0  0  0  0  0  0  0
  149.0112  137.6763  155.1309 C   0  0  2  0  0  0  0  0  0  0  0  0
  149.8532  136.7506  154.4691 O   0  0  0  0  0  0  0  0  0  0  0  0
  143.8862  135.2308  156.5030 C   0  0  0  0  0  0  0  0  0  0  0  0
  143.0822  135.0406  157.4130 O   0  0  0  0  0  0  0  0  0  0  0  0
  143.8806  134.3822  155.3878 N   0  0  0  0  0  0  0  0  0  0  0  0
  147.4520  137.1806  153.6082 H   0  0  0  0  0  0  0  0  0  0  0  0
  147.8379  139.9366  156.0777 H   0  0  0  0  0  0  0  0  0  0  0  0
  150.1642  139.3426  155.9341 H   0  0  0  0  0  0  0  0  0  0  0  0
  148.9113  137.3750  156.1751 H   0  0  0  0  0  0  0  0  0  0  0  0
  146.5980  131.4391  151.4431 H   0  0  0  0  0  0  0  0  0  0  0  0
  146.5229  132.3628  149.9438 H   0  0  0  0  0  0  0  0  0  0  0  0
  145.7213  130.8000  150.0600 H   0  0  0  0  0  0  0  0  0  0  0  0
  144.1225  131.6866  151.7252 H   0  0  0  0  0  0  0  0  0  0  0  0
  142.8463  133.2794  150.2698 H   0  0  0  0  0  0  0  0  0  0  0  0
  143.4500  131.9013  149.3609 H   0  0  0  0  0  0  0  0  0  0  0  0
  144.2582  133.4587  149.2297 H   0  0  0  0  0  0  0  0  0  0  0  0
  144.0882  132.7153  153.6102 H   0  0  0  0  0  0  0  0  0  0  0  0
  146.6839  138.7638  157.1127 H   0  0  0  0  0  0  0  0  0  0  0  0
  148.7270  141.3738  153.5139 H   0  0  0  0  0  0  0  0  0  0  0  0
  147.4170  141.8959  154.5635 H   0  0  0  0  0  0  0  0  0  0  0  0
  149.1201  143.0022  155.2739 H   0  0  0  0  0  0  0  0  0  0  0  0
  149.6998  139.4267  153.1677 H   0  0  0  0  0  0  0  0  0  0  0  0
  149.4131  136.4519  153.6870 H   0  0  0  0  0  0  0  0  0  0  0  0
  143.2005  133.6363  155.3931 H   0  0  0  0  0  0  0  0  0  0  0  0
  1  2  1  0  0  0  0
  1 30  1  0  0  0  0
  1 31  1  0  0  0  0
  1 32  1  0  0  0  0
  2  3  1  0  0  0  0
  2  4  1  0  0  0  0
  2 33  1  0  0  0  0
  3 34  1  0  0  0  0
  3 35  1  0  0  0  0
  3 36  1  0  0  0  0
  4  5  2  0  0  0  0
  4  6  1  0  0  0  0
  6 37  1  0  0  0  0
  6  7  1  0  0  0  0
  7 25  1  0  0  0  0
  7  8  2  0  0  0  0
  8  9  1  0  0  0  0
  9 13  1  0  0  0  0
  9 10  2  0  0  0  0
 10 11  1  0  0  0  0
 10 23  1  0  0  0  0
 11 12  2  0  0  0  0
 12 13  1  0  0  0  0
 12 38  1  0  0  0  0
 13 14  1  0  0  0  0
 14 26  1  0  0  0  0
 14 21  1  0  0  0  0
 14 15  1  0  0  0  0
 15 16  1  0  0  0  0
 16 27  1  0  0  0  0
 16 17  1  0  0  0  0
 16 19  1  0  0  0  0
 17 18  1  0  0  0  0
 17 39  1  0  0  0  0
 17 40  1  0  0  0  0
 18 41  1  0  0  0  0
 19 28  1  0  0  0  0
 19 20  1  0  0  0  0
 19 21  1  0  0  0  0
 20 42  1  0  0  0  0
 21 29  1  0  0  0  0
 21 22  1  0  0  0  0
 22 43  1  0  0  0  0
 23 24  2  0  0  0  0
 23 25  1  0  0  0  0
 25 44  1  0  0  0  0
M  END
> <s_m_source_file>
AV-unprocessed.smi

> <i_m_source_file_index>
54

> <i_lp_mmshare_version>
43012

> <i_f3d_flags>
0

> <s_epik_input>
W0NIM11bQ0hdKFtDSDNdKUMoPU8pW05IXWMobjEpW25IXWMoPU8pYyhjMTIpbltjSF1uMltDQEBIXTNPW0NASF0oW0NIMl1bT0hdKVtDQEBIXShbT0hdKVtDQEhdM1tPSF0=

> <s_epik_cmdline>
J2VwaWtfcHl0aG9uJywgJy1waCcsICc3LjAnLCAnLXRuJywgJzgnLCAnLW1hJywgJzIwMCcsICctbWV0YWxfYmluZGluZycsICctaW1hZScsICc8aW5maWxlLm1hZT4nLCAnLW9tYWUnLCAnPG91dGZpbGUubWFlPic=

> <r_lp_tautomer_probability>
0.85571

> <r_epik_Ionization_Penalty>
0.0316551

> <r_epik_Ionization_Penalty_Charging>
0.0316043

> <r_epik_Ionization_Penalty_Neutral>
5.07097e-05

> <r_epik_State_Penalty>
3.15494e-07

> <r_epik_Charging_Adjusted_Penalty>
0.0316047

> <i_epik_Tot_Q>
0

> <i_epik_Tot_abs_Q>
0

> <r_epik_Metal_State_Penalty>
0.421206

> <b_epik_Metal_Only>
0

> <s_epik_Chemistry_Notes>
This compound contains an acetal/aminal-like group ( X-CH(R)-Y where X, Y are N, S, or O) that may be acid/base labile, releasing an aldehyde.

> <s_lp_Force_Field>
OPLS_2005

> <r_lp_Energy>
43.5631

> <b_lp_Chiralities_Consistent>
1

> <s_lp_Variant>
AV-unprocessed.smi:54-14

> <Gold.Version>
5.8.1

> <Gold.Id.Protein>
6NUR|6NUR_protein|mol2

> <Gold.PLP.Fitness>
43.9015

> <Gold.PLP.PLP>
-26.3170

> <Gold.PLP.part.hbond>
-6.9747

> <Gold.PLP.part.metal>
0.0000

> <Gold.PLP.part.buried>
-5.4130

> <Gold.PLP.part.nonpolar>
-15.1176

> <Gold.PLP.part.repulsive>
0.3941

> <Gold.PLP.ligand.clash>
0.0000

> <Gold.PLP.ligand.torsion>
0.1483

> <Gold.PLP.Chemscore.Hbond>
5.9352

> <Gold.PLP.Chemscore.CHOScore>
0.0000

> <Gold.PLP.Chemscore.Metal>
0.0000

> <Gold.Chemscore.Hbonds>
donor molecule, donor type, donor heavy atom, donor atom, acceptor molecule, acceptor atom, score
      L1  H     6    37       P1 10957  0.91
      L1  H    18    41       P1  8028  1.00
      L1  H    20    42       P1  7957  0.69
      L1  H    22    43       P1  7948  1.00
      L1  H    25    44       P1 10957  0.99
      P1  H  7989  7998       L1    20  0.98
      P1  H 11000 11005       L1    24  0.31

> <Gold.PLP.Chemscore.Internal.Correction>
0.0758

> <Gold.Rescore>
     Score         DG    S(hbond)    S(metal)    S(lipo)     H(rot)  DE(clash)    DE(int)     intcor
     15.63     -17.43       5.02        0.00      47.38       4.05       0.17       1.62       ----

> <Gold.Chemscore.Fitness>
15.6315

> <Gold.Chemscore.DG>
-17.4276

> <Gold.Chemscore.ZeroCoef>
-5.4800

> <Gold.Chemscore.Hbond>
5.0210

> <Gold.Chemscore.Metal>
0.0000

> <Gold.Chemscore.Lipo>
47.3823

> <Gold.Chemscore.Internal_Hbond>
0.0000

> <Gold.Chemscore.DEClash>
0.1736

> <Gold.Chemscore.DEInternal>
1.6225

> <Gold.Chemscore.Rot>
4.0493

> <Gold.Chemscore.Internal.Correction>
   9.000000E+99

> <Gold.Chemscore.Hbonds>
donor molecule, donor type, donor heavy atom, donor atom, acceptor molecule, acceptor atom, score
      L1  H     6    37       P1 10957  0.50
      L1  H    18    41       P1  8028  1.00
      L1  H    20    42       P1  7957  0.67
      L1  H    22    43       P1  7948  0.82
      L1  H    25    44       P1 10957  0.87
      P1  H  7989  7998       L1    20  0.27
      P1  H 11000 11005       L1    24  0.31

> <Gold.Chemscore.Hbond.Weighted>
-16.7701

> <Gold.Chemscore.Metal.Weighted>
-0.0000

> <Gold.Chemscore.Lipo.Weighted>
-5.5437

> <Gold.Chemscore.Internal_Hbond.Weighted>
0.0000

> <Gold.Chemscore.DEClash.Weighted>
0.1736

> <Gold.Chemscore.DEInternal.Weighted>
1.6225

> <Gold.Chemscore.Rot.Weighted>
10.3662

> <Gold.Chemscore.Internal.Correction.Weighted>
   9.000000E+99

> <Gold.Protein.RotatedTorsions>
[ 6907 6896 6895 6894 ] final  -70.70 input  -60.11 | X-H torsion
[ 7974 7965 7964 7962 ] final  -31.83 input  175.53 | X-H torsion
[ 8008 7997 7996 7995 ] final -158.95 input   59.86 | X-H torsion
[ 10167 10162 10161 10158 ] final -122.46 input  -65.29 | X-H torsion
[ 10718 10713 10712 10709 ] final  158.14 input   66.30 | X-H torsion
[ 10763 10752 10751 10750 ] final -117.62 input  -60.55 | X-H torsion
[ 11005 11000 10999 10996 ] final -112.30 input  -57.11 | X-H torsion

> <Gold.Protein.ActiveResidues>
 VAL166  LYS551  ARG553  GLY616  TRP617  ASP618  TYR619  PRO620  LYS621  CYS622 
 ASP623  PHE694  ASN695  SER759  ASP760  ASP761  ALA762  ILE779  LEU786  VAL792 
 PHE793  MET794  SER795  GLU796  ALA797  LYS798  CYS799  TRP800  GLU811  SER814 

> <Gold.Protein.RotatedAtoms>
  150.7246  134.5415  159.5749 H   0  0  0  0  0  0  0  0  0  0  0  0  # atno 6907 bound_to 6896
  152.2925  134.7702  160.0384 H   0  0  0  0  0  0  0  0  0  0  0  0  # atno 6908 bound_to 6896
  151.8311  133.3373  159.3650 H   0  0  0  0  0  0  0  0  0  0  0  0  # atno 6909 bound_to 6896
  146.1037  140.5716  142.8809 H   0  0  0  0  0  0  0  0  0  0  0  0  # atno 7974 bound_to 7965
  155.7552  140.0832  157.2182 H   0  0  0  0  0  0  0  0  0  0  0  0  # atno 8008 bound_to 7997
  154.4008  140.1553  156.2826 H   0  0  0  0  0  0  0  0  0  0  0  0  # atno 8009 bound_to 7997
  155.8892  140.3416  155.5946 H   0  0  0  0  0  0  0  0  0  0  0  0  # atno 8010 bound_to 7997
  140.0140  143.5412  152.2250 H   0  0  0  0  0  0  0  0  0  0  0  0  # atno 10167 bound_to 10162
  157.1820  131.0634  151.2126 H   0  0  0  0  0  0  0  0  0  0  0  0  # atno 10718 bound_to 10713
  154.8561  135.4303  154.2009 H   0  0  0  0  0  0  0  0  0  0  0  0  # atno 10763 bound_to 10752
  153.3056  135.6972  153.7168 H   0  0  0  0  0  0  0  0  0  0  0  0  # atno 10764 bound_to 10752
  153.6281  135.3490  155.3007 H   0  0  0  0  0  0  0  0  0  0  0  0  # atno 10765 bound_to 10752
  141.0683  133.9421  157.2535 H   0  0  0  0  0  0  0  0  0  0  0  0  # atno 11005 bound_to 11000
  144.7453  140.5052  143.6840 LP  0  0  0  0  0  0  0  0  0  0  0  0  # atno 17320 bound_to 7965
  145.5803  139.1488  143.3239 LP  0  0  0  0  0  0  0  0  0  0  0  0  # atno 17321 bound_to 7965
  139.6185  144.7624  151.2792 LP  0  0  0  0  0  0  0  0  0  0  0  0  # atno 17342 bound_to 10162
  140.7370  143.6692  150.8097 LP  0  0  0  0  0  0  0  0  0  0  0  0  # atno 17343 bound_to 10162
  157.3943  130.7299  149.6720 LP  0  0  0  0  0  0  0  0  0  0  0  0  # atno 17370 bound_to 10713
  155.9723  130.4138  150.4099 LP  0  0  0  0  0  0  0  0  0  0  0  0  # atno 17371 bound_to 10713
  139.9498  135.0177  156.8961 LP  0  0  0  0  0  0  0  0  0  0  0  0  # atno 17394 bound_to 11000
  140.5726  134.0428  155.7436 LP  0  0  0  0  0  0  0  0  0  0  0  0  # atno 17395 bound_to 11000

$$$$
