AV-unprocessed.smi:3198|AV-procd|sdf|12229|dock2
  -GOLD-   2272018 63D 1   1.00000     0.00000
 Structure written by MMmdl.
 37 38  0  0  0  0  0  0  0  0  1 V2000
  153.4095  141.6531  160.5444 C   0  0  0  0  0  0  0  0  0  0  0  0
  152.6065  142.7657  159.9040 C   0  0  0  0  0  0  0  0  0  0  0  0
  152.5394  144.0445  160.4941 C   0  0  0  0  0  0  0  0  0  0  0  0
  151.7761  145.0366  159.8505 C   0  0  0  0  0  0  0  0  0  0  0  0
  151.1118  144.7126  158.6515 C   0  0  0  0  0  0  0  0  0  0  0  0
  151.2340  143.4041  158.1380 C   0  0  0  0  0  0  0  0  0  0  0  0
  150.5690  143.0877  156.9442 N   0  0  0  0  0  0  0  0  0  0  0  0
  150.3380  141.7056  156.5401 C   0  0  0  0  0  0  0  0  0  0  0  0
  148.8762  141.2756  156.7284 C   0  0  0  0  0  0  0  0  0  0  0  0
  148.6343  140.1065  155.9630 O   0  0  0  0  0  0  0  0  0  0  0  0
  148.7966  140.3198  154.5709 C   0  0  0  0  0  0  0  0  0  0  0  0
  149.9322  139.4250  154.0598 C   0  0  2  0  0  0  0  0  0  0  0  0
  149.9321  138.0229  154.6655 C   0  0  0  0  0  0  0  0  0  0  0  0
  151.3829  137.5838  154.5428 C   0  0  0  0  0  0  0  0  0  0  0  0
  152.1462  138.8872  154.2889 C   0  0  0  0  0  0  0  0  0  0  0  0
  151.1923  139.9229  154.4801 O   0  0  0  0  0  0  0  0  0  0  0  0
  151.9718  142.4497  158.7542 N   0  0  0  0  0  0  0  0  0  0  0  0
  153.9730  142.0160  161.4045 H   0  0  0  0  0  0  0  0  0  0  0  0
  154.1166  141.2337  159.8282 H   0  0  0  0  0  0  0  0  0  0  0  0
  152.7472  140.8553  160.8818 H   0  0  0  0  0  0  0  0  0  0  0  0
  153.0589  144.2627  161.4156 H   0  0  0  0  0  0  0  0  0  0  0  0
  151.7008  146.0293  160.2691 H   0  0  0  0  0  0  0  0  0  0  0  0
  150.5195  145.4573  158.1401 H   0  0  0  0  0  0  0  0  0  0  0  0
  150.0837  143.8179  156.4434 H   0  0  0  0  0  0  0  0  0  0  0  0
  150.6222  141.5972  155.4933 H   0  0  0  0  0  0  0  0  0  0  0  0
  150.9985  141.0450  157.1030 H   0  0  0  0  0  0  0  0  0  0  0  0
  148.6983  141.0582  157.7825 H   0  0  0  0  0  0  0  0  0  0  0  0
  148.1915  142.0757  156.4430 H   0  0  0  0  0  0  0  0  0  0  0  0
  147.8707  140.1107  154.0329 H   0  0  0  0  0  0  0  0  0  0  0  0
  149.0497  141.3671  154.3978 H   0  0  0  0  0  0  0  0  0  0  0  0
  149.9091  139.3577  152.9704 H   0  0  0  0  0  0  0  0  0  0  0  0
  149.6536  138.0683  155.7194 H   0  0  0  0  0  0  0  0  0  0  0  0
  149.2392  137.3467  154.1639 H   0  0  0  0  0  0  0  0  0  0  0  0
  151.7195  137.0855  155.4526 H   0  0  0  0  0  0  0  0  0  0  0  0
  151.5202  136.8926  153.7105 H   0  0  0  0  0  0  0  0  0  0  0  0
  152.9977  139.0118  154.9582 H   0  0  0  0  0  0  0  0  0  0  0  0
  152.5124  138.9220  153.2617 H   0  0  0  0  0  0  0  0  0  0  0  0
  1  2  1  0  0  0  0
  1 18  1  0  0  0  0
  1 19  1  0  0  0  0
  1 20  1  0  0  0  0
  2 17  1  0  0  0  0
  2  3  2  0  0  0  0
  3  4  1  0  0  0  0
  3 21  1  0  0  0  0
  4  5  2  0  0  0  0
  4 22  1  0  0  0  0
  5  6  1  0  0  0  0
  5 23  1  0  0  0  0
  6  7  1  0  0  0  0
  6 17  2  0  0  0  0
  7  8  1  0  0  0  0
  7 24  1  0  0  0  0
  8  9  1  0  0  0  0
  8 25  1  0  0  0  0
  8 26  1  0  0  0  0
  9 10  1  0  0  0  0
  9 27  1  0  0  0  0
  9 28  1  0  0  0  0
 10 11  1  0  0  0  0
 11 12  1  0  0  0  0
 11 29  1  0  0  0  0
 11 30  1  0  0  0  0
 12 16  1  0  0  0  0
 12 13  1  0  0  0  0
 12 31  1  0  0  0  0
 13 14  1  0  0  0  0
 13 32  1  0  0  0  0
 13 33  1  0  0  0  0
 14 15  1  0  0  0  0
 14 34  1  0  0  0  0
 14 35  1  0  0  0  0
 15 16  1  0  0  0  0
 15 36  1  0  0  0  0
 15 37  1  0  0  0  0
M  END
> <s_m_source_file>
AV-unprocessed.smi

> <i_m_source_file_index>
3198

> <i_lp_mmshare_version>
43012

> <i_f3d_flags>
0

> <s_epik_input>
W0NIM11jMVtjSF1bY0hdW2NIXWMobjEpW05IXVtDSDJdW0NIMl1PW0NIMl1bQ0BASF0yW0NIMl1bQ0gyXVtDSDJdTzI=

> <s_epik_cmdline>
J2VwaWtfcHl0aG9uJywgJy1waCcsICc3LjAnLCAnLXRuJywgJzgnLCAnLW1hJywgJzIwMCcsICctbWV0YWxfYmluZGluZycsICctaW1hZScsICc8aW5maWxlLm1hZT4nLCAnLW9tYWUnLCAnPG91dGZpbGUubWFlPic=

> <r_lp_tautomer_probability>
1

> <r_epik_Ionization_Penalty>
1.29225

> <r_epik_Ionization_Penalty_Charging>
0

> <r_epik_Ionization_Penalty_Neutral>
1.29225

> <r_epik_State_Penalty>
1.3654

> <r_epik_Charging_Adjusted_Penalty>
1.3654

> <i_epik_Tot_Q>
0

> <i_epik_Tot_abs_Q>
0

> <r_epik_Metal_State_Penalty>
0.00531989

> <b_epik_Metal_Only>
0

> <s_lp_Force_Field>
OPLS_2005

> <r_lp_Energy>
18.1736

> <b_lp_Chiralities_Consistent>
1

> <s_lp_Variant>
AV-unprocessed.smi:3198-3

> <Gold.Version>
5.8.1

> <Gold.Id.Protein>
6NUR|6NUR_protein|mol2

> <Gold.PLP.Fitness>
46.0776

> <Gold.PLP.PLP>
-41.4287

> <Gold.PLP.part.hbond>
-2.0000

> <Gold.PLP.part.metal>
0.0000

> <Gold.PLP.part.buried>
-5.6133

> <Gold.PLP.part.nonpolar>
-34.5621

> <Gold.PLP.part.repulsive>
0.1498

> <Gold.PLP.ligand.clash>
0.0000

> <Gold.PLP.ligand.torsion>
0.7381

> <Gold.PLP.Chemscore.Hbond>
1.9920

> <Gold.PLP.Chemscore.CHOScore>
0.0000

> <Gold.PLP.Chemscore.Metal>
0.0000

> <Gold.Chemscore.Hbonds>
donor molecule, donor type, donor heavy atom, donor atom, acceptor molecule, acceptor atom, score
      L1  H     7    24       P1  8028  1.00
      P1  H  7989  7998       L1    16  0.75

> <Gold.PLP.Chemscore.Internal.Correction>
0.1491

> <Gold.Rescore>
     Score         DG    S(hbond)    S(metal)    S(lipo)     H(rot)  DE(clash)    DE(int)     intcor
     18.86     -20.02       1.91        0.00     105.48       1.63       0.11       1.04       ----

> <Gold.Chemscore.Fitness>
18.8639

> <Gold.Chemscore.DG>
-20.0227

> <Gold.Chemscore.ZeroCoef>
-5.4800

> <Gold.Chemscore.Hbond>
1.9092

> <Gold.Chemscore.Metal>
0.0000

> <Gold.Chemscore.Lipo>
105.4843

> <Gold.Chemscore.Internal_Hbond>
0.0000

> <Gold.Chemscore.DEClash>
0.1145

> <Gold.Chemscore.DEInternal>
1.0442

> <Gold.Chemscore.Rot>
1.6311

> <Gold.Chemscore.Internal.Correction>
   9.000000E+99

> <Gold.Chemscore.Hbonds>
donor molecule, donor type, donor heavy atom, donor atom, acceptor molecule, acceptor atom, score
      L1  H     7    24       P1  8028  1.00
      P1  H  7989  7998       L1    16  0.12

> <Gold.Chemscore.Hbond.Weighted>
-6.3767

> <Gold.Chemscore.Metal.Weighted>
-0.0000

> <Gold.Chemscore.Lipo.Weighted>
-12.3417

> <Gold.Chemscore.Internal_Hbond.Weighted>
0.0000

> <Gold.Chemscore.DEClash.Weighted>
0.1145

> <Gold.Chemscore.DEInternal.Weighted>
1.0442

> <Gold.Chemscore.Rot.Weighted>
4.1757

> <Gold.Chemscore.Internal.Correction.Weighted>
   9.000000E+99

> <Gold.Protein.RotatedTorsions>
[ 6907 6896 6895 6894 ] final -119.49 input  -60.11 | X-H torsion
[ 7974 7965 7964 7962 ] final -159.62 input  175.53 | X-H torsion
[ 8008 7997 7996 7995 ] final  165.79 input   59.86 | X-H torsion
[ 10167 10162 10161 10158 ] final -114.62 input  -65.29 | X-H torsion
[ 10718 10713 10712 10709 ] final -149.51 input   66.30 | X-H torsion
[ 10763 10752 10751 10750 ] final   13.80 input  -60.55 | X-H torsion
[ 11005 11000 10999 10996 ] final  -95.22 input  -57.11 | X-H torsion

> <Gold.Protein.ActiveResidues>
 VAL166  LYS551  ARG553  GLY616  TRP617  ASP618  TYR619  PRO620  LYS621  CYS622 
 ASP623  PHE694  ASN695  SER759  ASP760  ASP761  ALA762  ILE779  LEU786  VAL792 
 PHE793  MET794  SER795  GLU796  ALA797  LYS798  CYS799  TRP800  GLU811  SER814 

> <Gold.Protein.RotatedAtoms>
  150.8310  133.8092  159.3098 H   0  0  0  0  0  0  0  0  0  0  0  0  # atno 6907 bound_to 6896
  151.5822  135.1056  160.0029 H   0  0  0  0  0  0  0  0  0  0  0  0  # atno 6908 bound_to 6896
  152.4389  133.7370  159.6676 H   0  0  0  0  0  0  0  0  0  0  0  0  # atno 6909 bound_to 6896
  144.7458  140.3659  143.6086 H   0  0  0  0  0  0  0  0  0  0  0  0  # atno 7974 bound_to 7965
  156.1771  140.1660  156.8342 H   0  0  0  0  0  0  0  0  0  0  0  0  # atno 8008 bound_to 7997
  154.5319  140.0755  156.8394 H   0  0  0  0  0  0  0  0  0  0  0  0  # atno 8009 bound_to 7997
  155.3389  140.3383  155.4241 H   0  0  0  0  0  0  0  0  0  0  0  0  # atno 8010 bound_to 7997
  140.0990  143.4630  152.1824 H   0  0  0  0  0  0  0  0  0  0  0  0  # atno 10167 bound_to 10162
  156.4341  130.8090  151.2318 H   0  0  0  0  0  0  0  0  0  0  0  0  # atno 10718 bound_to 10713
  153.1685  135.6808  153.8641 H   0  0  0  0  0  0  0  0  0  0  0  0  # atno 10763 bound_to 10752
  153.8012  135.3155  155.3391 H   0  0  0  0  0  0  0  0  0  0  0  0  # atno 10764 bound_to 10752
  154.7982  135.4794  154.0303 H   0  0  0  0  0  0  0  0  0  0  0  0  # atno 10765 bound_to 10752
  141.1448  133.8011  157.0406 H   0  0  0  0  0  0  0  0  0  0  0  0  # atno 11005 bound_to 11000
  145.7128  139.1689  143.2529 LP  0  0  0  0  0  0  0  0  0  0  0  0  # atno 17320 bound_to 7965
  146.1334  140.7155  142.9401 LP  0  0  0  0  0  0  0  0  0  0  0  0  # atno 17321 bound_to 7965
  139.5682  144.7447  151.3964 LP  0  0  0  0  0  0  0  0  0  0  0  0  # atno 17342 bound_to 10162
  140.6988  143.7683  150.7369 LP  0  0  0  0  0  0  0  0  0  0  0  0  # atno 17343 bound_to 10162
  157.7507  131.0189  150.3644 LP  0  0  0  0  0  0  0  0  0  0  0  0  # atno 17370 bound_to 10713
  156.3988  130.3912  149.6975 LP  0  0  0  0  0  0  0  0  0  0  0  0  # atno 17371 bound_to 10713
  140.0695  134.9710  157.1443 LP  0  0  0  0  0  0  0  0  0  0  0  0  # atno 17394 bound_to 11000
  140.3731  134.2368  155.7176 LP  0  0  0  0  0  0  0  0  0  0  0  0  # atno 17395 bound_to 11000

$$$$
