AV-unprocessed.smi:1429|AV-procd|sdf|5819|dock4
  -GOLD-   22720 5473D 1   1.00000     0.00000
 Structure written by MMmdl.
 30 31  0  0  0  0  0  0  0  0  1 V2000
  154.1999  134.0321  165.1436 C   0  0  0  0  0  0  0  0  0  0  0  0
  154.4188  135.1660  164.2012 C   0  0  0  0  0  0  0  0  0  0  0  0
  154.8069  134.9912  162.9319 N   0  0  0  0  0  0  0  0  0  0  0  0
  154.9445  136.1943  162.2537 N   0  0  0  0  0  0  0  0  0  0  0  0
  154.6555  137.2444  163.0348 C   0  0  0  0  0  0  0  0  0  0  0  0
  154.7109  138.5936  162.5961 N   0  0  0  0  0  0  0  0  0  0  0  0
  154.4743  139.0800  161.3651 C   0  0  0  0  0  0  0  0  0  0  0  0
  154.1763  138.4062  160.3788 O   0  0  0  0  0  0  0  0  0  0  0  0
  154.5971  140.4150  161.3397 N   0  0  0  0  0  0  0  0  0  0  0  0
  154.3785  141.2632  160.1718 C   0  0  0  0  0  0  0  0  0  0  0  0
  153.0916  142.0983  160.3075 C   0  0  1  0  0  0  0  0  0  0  0  0
  152.9904  142.8647  161.6104 C   0  0  0  0  0  0  0  0  0  0  0  0
  151.9206  143.9040  161.2861 C   0  0  0  0  0  0  0  0  0  0  0  0
  152.0304  144.1571  159.8881 O   0  0  0  0  0  0  0  0  0  0  0  0
  152.9411  143.2361  159.2961 C   0  0  0  0  0  0  0  0  0  0  0  0
  154.1883  136.8434  164.6785 S   0  0  0  0  0  0  0  0  0  0  0  0
  154.2980  133.0766  164.6273 H   0  0  0  0  0  0  0  0  0  0  0  0
  153.2009  134.0941  165.5752 H   0  0  0  0  0  0  0  0  0  0  0  0
  154.9335  134.0715  165.9489 H   0  0  0  0  0  0  0  0  0  0  0  0
  154.9460  139.2698  163.3074 H   0  0  0  0  0  0  0  0  0  0  0  0
  154.8476  140.8844  162.1978 H   0  0  0  0  0  0  0  0  0  0  0  0
  155.2358  141.9308  160.0840 H   0  0  0  0  0  0  0  0  0  0  0  0
  154.3605  140.6702  159.2556 H   0  0  0  0  0  0  0  0  0  0  0  0
  152.2241  141.4406  160.2273 H   0  0  0  0  0  0  0  0  0  0  0  0
  152.7250  142.2348  162.4598 H   0  0  0  0  0  0  0  0  0  0  0  0
  153.9357  143.3607  161.8356 H   0  0  0  0  0  0  0  0  0  0  0  0
  150.9266  143.5026  161.4872 H   0  0  0  0  0  0  0  0  0  0  0  0
  152.0404  144.8186  161.8676 H   0  0  0  0  0  0  0  0  0  0  0  0
  153.8937  143.7457  159.1434 H   0  0  0  0  0  0  0  0  0  0  0  0
  152.5828  142.8913  158.3258 H   0  0  0  0  0  0  0  0  0  0  0  0
  1  2  1  0  0  0  0
  1 17  1  0  0  0  0
  1 18  1  0  0  0  0
  1 19  1  0  0  0  0
  2 16  1  0  0  0  0
  2  3  2  0  0  0  0
  3  4  1  0  0  0  0
  4  5  2  0  0  0  0
  5  6  1  0  0  0  0
  5 16  1  0  0  0  0
  6  7  1  0  0  0  0
  6 20  1  0  0  0  0
  7  8  2  0  0  0  0
  7  9  1  0  0  0  0
  9 10  1  0  0  0  0
  9 21  1  0  0  0  0
 10 11  1  0  0  0  0
 10 22  1  0  0  0  0
 10 23  1  0  0  0  0
 11 15  1  0  0  0  0
 11 12  1  0  0  0  0
 11 24  1  0  0  0  0
 12 13  1  0  0  0  0
 12 25  1  0  0  0  0
 12 26  1  0  0  0  0
 13 14  1  0  0  0  0
 13 27  1  0  0  0  0
 13 28  1  0  0  0  0
 14 15  1  0  0  0  0
 15 29  1  0  0  0  0
 15 30  1  0  0  0  0
M  END
> <s_m_source_file>
AV-unprocessed.smi

> <i_m_source_file_index>
1429

> <i_lp_mmshare_version>
43012

> <i_f3d_flags>
0

> <s_epik_input>
W0NIM11jMW5uYyhzMSlbTkhdQyg9TylbTkhdW0NIMl1bQ0BASF0yW0NIMl1bQ0gyXU9bQ0gyXTI=

> <s_epik_cmdline>
J2VwaWtfcHl0aG9uJywgJy1waCcsICc3LjAnLCAnLXRuJywgJzgnLCAnLW1hJywgJzIwMCcsICctbWV0YWxfYmluZGluZycsICctaW1hZScsICc8aW5maWxlLm1hZT4nLCAnLW9tYWUnLCAnPG91dGZpbGUubWFlPic=

> <r_lp_tautomer_probability>
1

> <r_epik_Ionization_Penalty>
0.000468089

> <r_epik_Ionization_Penalty_Charging>
0

> <r_epik_Ionization_Penalty_Neutral>
0.000468089

> <r_epik_State_Penalty>
-0

> <r_epik_Charging_Adjusted_Penalty>
0

> <i_epik_Tot_Q>
0

> <i_epik_Tot_abs_Q>
0

> <r_epik_Metal_State_Penalty>
0.211262

> <b_epik_Metal_Only>
0

> <s_lp_Force_Field>
OPLS_2005

> <r_lp_Energy>
17.5985

> <b_lp_Chiralities_Consistent>
1

> <s_lp_Variant>
AV-unprocessed.smi:1429-2

> <Gold.Version>
5.8.1

> <Gold.Id.Protein>
6NUR|6NUR_protein|mol2

> <Gold.PLP.Fitness>
35.4554

> <Gold.PLP.PLP>
-36.0981

> <Gold.PLP.part.hbond>
0.0000

> <Gold.PLP.part.metal>
0.0000

> <Gold.PLP.part.buried>
-5.4379

> <Gold.PLP.part.nonpolar>
-31.0913

> <Gold.PLP.part.repulsive>
0.0371

> <Gold.PLP.ligand.clash>
0.0000

> <Gold.PLP.ligand.torsion>
0.3243

> <Gold.PLP.Chemscore.Hbond>
0.0000

> <Gold.PLP.Chemscore.CHOScore>
0.0000

> <Gold.PLP.Chemscore.Metal>
0.0000

> <Gold.PLP.Chemscore.Internal.Correction>
0.0060

> <Gold.Rescore>
     Score         DG    S(hbond)    S(metal)    S(lipo)     H(rot)  DE(clash)    DE(int)     intcor
     10.81     -12.20       0.00        0.00      86.11       1.31       0.03       1.36       ----

> <Gold.Chemscore.Fitness>
10.8074

> <Gold.Chemscore.DG>
-12.1953

> <Gold.Chemscore.ZeroCoef>
-5.4800

> <Gold.Chemscore.Hbond>
0.0000

> <Gold.Chemscore.Metal>
0.0000

> <Gold.Chemscore.Lipo>
86.1136

> <Gold.Chemscore.Internal_Hbond>
0.0000

> <Gold.Chemscore.DEClash>
0.0310

> <Gold.Chemscore.DEInternal>
1.3569

> <Gold.Chemscore.Rot>
1.3125

> <Gold.Chemscore.Internal.Correction>
   9.000000E+99

> <Gold.Chemscore.Hbond.Weighted>
-0.0000

> <Gold.Chemscore.Metal.Weighted>
-0.0000

> <Gold.Chemscore.Lipo.Weighted>
-10.0753

> <Gold.Chemscore.Internal_Hbond.Weighted>
0.0000

> <Gold.Chemscore.DEClash.Weighted>
0.0310

> <Gold.Chemscore.DEInternal.Weighted>
1.3569

> <Gold.Chemscore.Rot.Weighted>
3.3600

> <Gold.Chemscore.Internal.Correction.Weighted>
   9.000000E+99

> <Gold.Protein.RotatedTorsions>
[ 6907 6896 6895 6894 ] final -159.75 input  -60.11 | X-H torsion
[ 7974 7965 7964 7962 ] final -167.06 input  175.53 | X-H torsion
[ 8008 7997 7996 7995 ] final  -80.22 input   59.86 | X-H torsion
[ 10167 10162 10161 10158 ] final   58.41 input  -65.29 | X-H torsion
[ 10718 10713 10712 10709 ] final  109.53 input   66.30 | X-H torsion
[ 10763 10752 10751 10750 ] final -160.38 input  -60.55 | X-H torsion
[ 11005 11000 10999 10996 ] final -177.54 input  -57.11 | X-H torsion

> <Gold.Protein.ActiveResidues>
 VAL166  LYS551  ARG553  GLY616  TRP617  ASP618  TYR619  PRO620  LYS621  CYS622 
 ASP623  PHE694  ASN695  SER759  ASP760  ASP761  ALA762  ILE779  LEU786  VAL792 
 PHE793  MET794  SER795  GLU796  ALA797  LYS798  CYS799  TRP800  GLU811  SER814 

> <Gold.Protein.RotatedAtoms>
  151.3383  133.3972  159.2668 H   0  0  0  0  0  0  0  0  0  0  0  0  # atno 6907 bound_to 6896
  150.9898  134.9236  159.7903 H   0  0  0  0  0  0  0  0  0  0  0  0  # atno 6908 bound_to 6896
  152.5244  134.3348  159.9248 H   0  0  0  0  0  0  0  0  0  0  0  0  # atno 6909 bound_to 6896
  144.7231  140.2574  143.6270 H   0  0  0  0  0  0  0  0  0  0  0  0  # atno 7974 bound_to 7965
  154.5861  140.0666  156.9173 H   0  0  0  0  0  0  0  0  0  0  0  0  # atno 8008 bound_to 7997
  155.2377  140.3342  155.4277 H   0  0  0  0  0  0  0  0  0  0  0  0  # atno 8009 bound_to 7997
  156.2224  140.1804  156.7430 H   0  0  0  0  0  0  0  0  0  0  0  0  # atno 8010 bound_to 7997
  140.1875  144.4119  150.6586 H   0  0  0  0  0  0  0  0  0  0  0  0  # atno 10167 bound_to 10162
  157.6537  131.0915  150.6467 H   0  0  0  0  0  0  0  0  0  0  0  0  # atno 10718 bound_to 10713
  154.7395  135.3065  154.8753 H   0  0  0  0  0  0  0  0  0  0  0  0  # atno 10763 bound_to 10752
  153.9571  135.6757  153.4749 H   0  0  0  0  0  0  0  0  0  0  0  0  # atno 10764 bound_to 10752
  153.0995  135.4919  154.8765 H   0  0  0  0  0  0  0  0  0  0  0  0  # atno 10765 bound_to 10752
  140.4398  134.6442  157.4752 H   0  0  0  0  0  0  0  0  0  0  0  0  # atno 11005 bound_to 11000
  145.8169  139.2027  143.1960 LP  0  0  0  0  0  0  0  0  0  0  0  0  # atno 17320 bound_to 7965
  146.0548  140.8032  142.9764 LP  0  0  0  0  0  0  0  0  0  0  0  0  # atno 17321 bound_to 7965
  140.6478  143.2217  151.6146 LP  0  0  0  0  0  0  0  0  0  0  0  0  # atno 17342 bound_to 10162
  139.5270  144.3030  152.1057 LP  0  0  0  0  0  0  0  0  0  0  0  0  # atno 17343 bound_to 10162
  156.6776  130.4557  149.5638 LP  0  0  0  0  0  0  0  0  0  0  0  0  # atno 17370 bound_to 10713
  156.1953  130.6585  151.1107 LP  0  0  0  0  0  0  0  0  0  0  0  0  # atno 17371 bound_to 10713
  140.0078  134.6737  155.9428 LP  0  0  0  0  0  0  0  0  0  0  0  0  # atno 17394 bound_to 11000
  141.1710  133.6537  156.4653 LP  0  0  0  0  0  0  0  0  0  0  0  0  # atno 17395 bound_to 11000

$$$$
