AV-unprocessed.smi:243|AV-procd|sdf|1859|dock10
  -GOLD-   2262020493D 1   1.00000     0.00000
 Structure written by MMmdl.
 58 61  0  0  0  0  0  0  0  0  2 V2000
  151.6472  145.4398  159.2214 C   0  0  0  0  0  0  0  0  0  0  0  0
  151.7996  144.8361  157.8178 C   0  0  0  0  0  0  0  0  0  0  0  0
  150.8485  143.7230  157.5725 N   0  3  1  0  0  0  0  0  0  0  0  0
  151.2827  142.8517  156.4508 C   0  0  0  0  0  0  0  0  0  0  0  0
  150.2122  141.8016  156.1173 C   0  0  0  0  0  0  0  0  0  0  0  0
  149.8579  140.9666  157.3630 C   0  0  2  0  0  0  0  0  0  0  0  0
  148.9301  139.8586  157.0827 N   0  0  0  0  0  0  0  0  0  0  0  0
  147.5270  140.1130  156.7468 C   0  0  0  0  0  0  0  0  0  0  0  0
  149.2032  138.6755  157.6975 C   0  0  0  0  0  0  0  0  0  0  0  0
  150.4601  138.1609  157.6152 N   0  0  0  0  0  0  0  0  0  0  0  0
  150.7549  136.9921  158.1909 C   0  0  0  0  0  0  0  0  0  0  0  0
  149.9574  136.1827  158.8886 N   0  0  0  0  0  0  0  0  0  0  0  0
  148.6967  136.6927  158.9841 C   0  0  0  0  0  0  0  0  0  0  0  0
  148.2365  137.9182  158.4220 C   0  0  0  0  0  0  0  0  0  0  0  0
  146.8944  138.1011  158.7366 N   0  0  0  0  0  0  0  0  0  0  0  0
  146.5781  137.0430  159.4311 C   0  0  0  0  0  0  0  0  0  0  0  0
  147.6039  136.1496  159.6368 N   0  0  0  0  0  0  0  0  0  0  0  0
  147.5381  134.9012  160.3811 C   0  0  0  0  0  0  0  0  0  0  0  0
  146.8217  135.0378  161.7452 C   0  0  1  0  0  0  0  0  0  0  0  0
  147.4752  136.0340  162.5126 O   0  0  0  0  0  0  0  0  0  0  0  0
  145.3423  135.3999  161.6406 C   0  0  0  0  0  0  0  0  0  0  0  0
  144.7343  134.7013  162.8486 C   0  0  0  0  0  0  0  0  0  0  0  0
  145.4386  133.4720  162.8769 O   0  0  0  0  0  0  0  0  0  0  0  0
  146.8031  133.7280  162.5586 C   0  0  0  0  0  0  0  0  0  0  0  0
  149.4412  141.8837  158.5445 C   0  0  2  0  0  0  0  0  0  0  0  0
  148.0620  142.5557  158.4044 C   0  0  0  0  0  0  0  0  0  0  0  0
  150.5475  142.9302  158.7954 C   0  0  0  0  0  0  0  0  0  0  0  0
  152.2937  146.3104  159.3350 H   0  0  0  0  0  0  0  0  0  0  0  0
  151.9180  144.7335  160.0055 H   0  0  0  0  0  0  0  0  0  0  0  0
  150.6220  145.7657  159.4004 H   0  0  0  0  0  0  0  0  0  0  0  0
  151.6152  145.6326  157.0957 H   0  0  0  0  0  0  0  0  0  0  0  0
  152.8237  144.4997  157.6499 H   0  0  0  0  0  0  0  0  0  0  0  0
  151.4737  143.4569  155.5637 H   0  0  0  0  0  0  0  0  0  0  0  0
  152.2235  142.3633  156.7098 H   0  0  0  0  0  0  0  0  0  0  0  0
  149.3294  142.3065  155.7245 H   0  0  0  0  0  0  0  0  0  0  0  0
  150.5778  141.1501  155.3226 H   0  0  0  0  0  0  0  0  0  0  0  0
  150.8019  140.5115  157.6547 H   0  0  0  0  0  0  0  0  0  0  0  0
  147.0388  139.1996  156.4042 H   0  0  0  0  0  0  0  0  0  0  0  0
  147.4426  140.8311  155.9321 H   0  0  0  0  0  0  0  0  0  0  0  0
  146.9654  140.4954  157.5972 H   0  0  0  0  0  0  0  0  0  0  0  0
  151.7754  136.6576  158.0753 H   0  0  0  0  0  0  0  0  0  0  0  0
  145.5829  136.8889  159.8215 H   0  0  0  0  0  0  0  0  0  0  0  0
  147.0288  134.1632  159.7602 H   0  0  0  0  0  0  0  0  0  0  0  0
  148.5538  134.5299  160.5244 H   0  0  0  0  0  0  0  0  0  0  0  0
  148.1336  135.6175  163.0473 H   0  0  0  0  0  0  0  0  0  0  0  0
  145.1497  136.4737  161.6207 H   0  0  0  0  0  0  0  0  0  0  0  0
  144.9106  134.9681  160.7368 H   0  0  0  0  0  0  0  0  0  0  0  0
  144.9264  135.2602  163.7660 H   0  0  0  0  0  0  0  0  0  0  0  0
  143.6591  134.5482  162.7530 H   0  0  0  0  0  0  0  0  0  0  0  0
  147.2031  132.8832  161.9967 H   0  0  0  0  0  0  0  0  0  0  0  0
  147.3821  133.8090  163.4801 H   0  0  0  0  0  0  0  0  0  0  0  0
  149.3909  141.2675  159.4435 H   0  0  0  0  0  0  0  0  0  0  0  0
  147.9690  143.1160  157.4745 H   0  0  0  0  0  0  0  0  0  0  0  0
  147.8832  143.2511  159.2249 H   0  0  0  0  0  0  0  0  0  0  0  0
  147.2589  141.8213  158.4429 H   0  0  0  0  0  0  0  0  0  0  0  0
  151.4586  142.4292  159.1272 H   0  0  0  0  0  0  0  0  0  0  0  0
  150.2450  143.5846  159.6122 H   0  0  0  0  0  0  0  0  0  0  0  0
  149.9817  144.1491  157.2772 H   0  0  0  0  0  0  0  0  0  0  0  0
  1  2  1  0  0  0  0
  1 28  1  0  0  0  0
  1 29  1  0  0  0  0
  1 30  1  0  0  0  0
  2  3  1  0  0  0  0
  2 31  1  0  0  0  0
  2 32  1  0  0  0  0
  3 27  1  0  0  0  0
  3  4  1  0  0  0  0
  3 58  1  0  0  0  0
  4  5  1  0  0  0  0
  4 33  1  0  0  0  0
  4 34  1  0  0  0  0
  5  6  1  0  0  0  0
  5 35  1  0  0  0  0
  5 36  1  0  0  0  0
  6  7  1  0  0  0  0
  6 25  1  0  0  0  0
  6 37  1  0  0  0  0
  7  8  1  0  0  0  0
  7  9  1  0  0  0  0
  8 38  1  0  0  0  0
  8 39  1  0  0  0  0
  8 40  1  0  0  0  0
  9 14  1  0  0  0  0
  9 10  2  0  0  0  0
 10 11  1  0  0  0  0
 11 12  2  0  0  0  0
 11 41  1  0  0  0  0
 12 13  1  0  0  0  0
 13 17  1  0  0  0  0
 13 14  2  0  0  0  0
 14 15  1  0  0  0  0
 15 16  2  0  0  0  0
 16 17  1  0  0  0  0
 16 42  1  0  0  0  0
 17 18  1  0  0  0  0
 18 19  1  0  0  0  0
 18 43  1  0  0  0  0
 18 44  1  0  0  0  0
 19 24  1  0  0  0  0
 19 20  1  0  0  0  0
 19 21  1  0  0  0  0
 20 45  1  0  0  0  0
 21 22  1  0  0  0  0
 21 46  1  0  0  0  0
 21 47  1  0  0  0  0
 22 23  1  0  0  0  0
 22 48  1  0  0  0  0
 22 49  1  0  0  0  0
 23 24  1  0  0  0  0
 24 50  1  0  0  0  0
 24 51  1  0  0  0  0
 25 26  1  0  0  0  0
 25 27  1  0  0  0  0
 25 52  1  0  0  0  0
 26 53  1  0  0  0  0
 26 54  1  0  0  0  0
 26 55  1  0  0  0  0
 27 56  1  0  0  0  0
 27 57  1  0  0  0  0
M  CHG  1   3   1
M  END
> <s_m_source_file>
AV-unprocessed.smi

> <i_m_source_file_index>
243

> <i_lp_mmshare_version>
43012

> <i_f3d_flags>
0

> <s_epik_input>
W0NIM11bQ0gyXU4xW0NIMl1bQ0gyXVtDQEhdKFtDQEBIXShbQ0gzXSlbQ0gyXTEpTihbQ0gzXSljKG5bY0hdbjIpYyhjMjMpbltjSF1uM1tDSDJdW0NAQF00KFtPSF0pW0NIMl1bQ0gyXU9bQ0gyXTQ=

> <s_epik_cmdline>
J2VwaWtfcHl0aG9uJywgJy1waCcsICc3LjAnLCAnLXRuJywgJzgnLCAnLW1hJywgJzIwMCcsICctbWV0YWxfYmluZGluZycsICctaW1hZScsICc8aW5maWxlLm1hZT4nLCAnLW9tYWUnLCAnPG91dGZpbGUubWFlPic=

> <r_lp_tautomer_probability>
1

> <r_epik_Ionization_Penalty>
0.00253099

> <r_epik_Ionization_Penalty_Charging>
0.00137877

> <r_epik_Ionization_Penalty_Neutral>
0.00115221

> <r_epik_State_Penalty>
-0

> <r_epik_Charging_Adjusted_Penalty>
0.00137877

> <i_epik_Tot_Q>
1

> <i_epik_Tot_abs_Q>
1

> <r_epik_Metal_State_Penalty>
-0

> <b_epik_Metal_Only>
0

> <s_lp_Force_Field>
OPLS_2005

> <r_lp_Energy>
49.5807

> <b_lp_Chiralities_Consistent>
1

> <s_lp_Variant>
AV-unprocessed.smi:243-12

> <Gold.Version>
5.8.1

> <Gold.Id.Protein>
6NUR|6NUR_protein|mol2

> <Gold.PLP.Fitness>
45.9127

> <Gold.PLP.PLP>
-38.6463

> <Gold.PLP.part.hbond>
-3.4613

> <Gold.PLP.part.metal>
0.0000

> <Gold.PLP.part.buried>
-9.0318

> <Gold.PLP.part.nonpolar>
-26.2012

> <Gold.PLP.part.repulsive>
0.0669

> <Gold.PLP.ligand.clash>
0.0000

> <Gold.PLP.ligand.torsion>
1.3325

> <Gold.PLP.Chemscore.Hbond>
3.0003

> <Gold.PLP.Chemscore.CHOScore>
0.0000

> <Gold.PLP.Chemscore.Metal>
0.0000

> <Gold.Chemscore.Hbonds>
donor molecule, donor type, donor heavy atom, donor atom, acceptor molecule, acceptor atom, score
      L1  H     3    58       P1  8028  1.79
      P1  H  6896  6908       L1    12  0.98
      P1  H  6934  6947       L1    15  0.01

> <Gold.PLP.Chemscore.Internal.Correction>
0.9304

> <Gold.Rescore>
     Score         DG    S(hbond)    S(metal)    S(lipo)     H(rot)  DE(clash)    DE(int)     intcor
     11.87     -16.21       1.73        0.00      91.30       2.24       0.80       3.54       ----

> <Gold.Chemscore.Fitness>
11.8737

> <Gold.Chemscore.DG>
-16.2071

> <Gold.Chemscore.ZeroCoef>
-5.4800

> <Gold.Chemscore.Hbond>
1.7286

> <Gold.Chemscore.Metal>
0.0000

> <Gold.Chemscore.Lipo>
91.3039

> <Gold.Chemscore.Internal_Hbond>
0.0000

> <Gold.Chemscore.DEClash>
0.7958

> <Gold.Chemscore.DEInternal>
3.5375

> <Gold.Chemscore.Rot>
2.2379

> <Gold.Chemscore.Internal.Correction>
   9.000000E+99

> <Gold.Chemscore.Hbonds>
donor molecule, donor type, donor heavy atom, donor atom, acceptor molecule, acceptor atom, score
      L1  H     3    58       P1  8028  0.55
      P1  H  6896  6908       L1    12  0.88

> <Gold.Chemscore.Hbond.Weighted>
-5.7736

> <Gold.Chemscore.Metal.Weighted>
-0.0000

> <Gold.Chemscore.Lipo.Weighted>
-10.6826

> <Gold.Chemscore.Internal_Hbond.Weighted>
0.0000

> <Gold.Chemscore.DEClash.Weighted>
0.7958

> <Gold.Chemscore.DEInternal.Weighted>
3.5375

> <Gold.Chemscore.Rot.Weighted>
5.7291

> <Gold.Chemscore.Internal.Correction.Weighted>
   9.000000E+99

> <Gold.Protein.RotatedTorsions>
[ 6907 6896 6895 6894 ] final  171.28 input  -60.11 | X-H torsion
[ 7974 7965 7964 7962 ] final  175.68 input  175.53 | X-H torsion
[ 8008 7997 7996 7995 ] final  108.79 input   59.86 | X-H torsion
[ 10167 10162 10161 10158 ] final    4.16 input  -65.29 | X-H torsion
[ 10718 10713 10712 10709 ] final  -66.63 input   66.30 | X-H torsion
[ 10763 10752 10751 10750 ] final  126.61 input  -60.55 | X-H torsion
[ 11005 11000 10999 10996 ] final  115.04 input  -57.11 | X-H torsion

> <Gold.Protein.ActiveResidues>
 VAL166  LYS551  ARG553  GLY616  TRP617  ASP618  TYR619  PRO620  LYS621  CYS622 
 ASP623  PHE694  ASN695  SER759  ASP760  ASP761  ALA762  ILE779  LEU786  VAL792 
 PHE793  MET794  SER795  GLU796  ALA797  LYS798  CYS799  TRP800  GLU811  SER814 

> <Gold.Protein.RotatedAtoms>
  151.8028  133.3372  159.3531 H   0  0  0  0  0  0  0  0  0  0  0  0  # atno 6907 bound_to 6896
  150.7353  134.5738  159.5913 H   0  0  0  0  0  0  0  0  0  0  0  0  # atno 6908 bound_to 6896
  152.3131  134.7474  160.0383 H   0  0  0  0  0  0  0  0  0  0  0  0  # atno 6909 bound_to 6896
  144.7197  139.9983  143.6440 H   0  0  0  0  0  0  0  0  0  0  0  0  # atno 7974 bound_to 7965
  156.1930  140.3070  155.9371 H   0  0  0  0  0  0  0  0  0  0  0  0  # atno 8008 bound_to 7997
  155.3129  140.0452  157.3053 H   0  0  0  0  0  0  0  0  0  0  0  0  # atno 8009 bound_to 7997
  154.5475  140.2281  155.8548 H   0  0  0  0  0  0  0  0  0  0  0  0  # atno 8010 bound_to 7997
  140.6549  143.7452  150.7637 H   0  0  0  0  0  0  0  0  0  0  0  0  # atno 10167 bound_to 10162
  156.0602  130.4265  150.1737 H   0  0  0  0  0  0  0  0  0  0  0  0  # atno 10718 bound_to 10713
  153.6960  135.3291  155.3213 H   0  0  0  0  0  0  0  0  0  0  0  0  # atno 10763 bound_to 10752
  154.8426  135.4443  154.1459 H   0  0  0  0  0  0  0  0  0  0  0  0  # atno 10764 bound_to 10752
  153.2514  135.6981  153.7753 H   0  0  0  0  0  0  0  0  0  0  0  0  # atno 10765 bound_to 10752
  139.8998  134.9578  156.6985 H   0  0  0  0  0  0  0  0  0  0  0  0  # atno 11005 bound_to 11000
  146.0356  139.3374  143.0729 LP  0  0  0  0  0  0  0  0  0  0  0  0  # atno 17320 bound_to 7965
  145.8399  140.9586  143.0805 LP  0  0  0  0  0  0  0  0  0  0  0  0  # atno 17321 bound_to 7965
  140.1110  143.4699  152.2370 LP  0  0  0  0  0  0  0  0  0  0  0  0  # atno 17342 bound_to 10162
  139.5770  144.7492  151.3739 LP  0  0  0  0  0  0  0  0  0  0  0  0  # atno 17343 bound_to 10162
  156.9806  130.9863  151.3438 LP  0  0  0  0  0  0  0  0  0  0  0  0  # atno 17370 bound_to 10713
  157.5604  130.8242  149.8258 LP  0  0  0  0  0  0  0  0  0  0  0  0  # atno 17371 bound_to 10713
  140.7169  133.9174  155.8121 LP  0  0  0  0  0  0  0  0  0  0  0  0  # atno 17394 bound_to 11000
  141.0257  134.0826  157.4071 LP  0  0  0  0  0  0  0  0  0  0  0  0  # atno 17395 bound_to 11000

$$$$
