AV-unprocessed.smi:2453|AV-procd|sdf|9693|dock5
  -GOLD-   2272013333D 1   1.00000     0.00000
 Structure written by MMmdl.
 41 42  0  0  0  0  0  0  0  0  2 V2000
  153.3975  140.4495  160.6917 C   0  0  0  0  0  0  0  0  0  0  0  0
  152.7531  141.8229  160.6181 C   0  0  0  0  0  0  0  0  0  0  0  0
  152.9930  142.7584  161.6482 C   0  0  0  0  0  0  0  0  0  0  0  0
  152.4316  143.9842  161.5957 N   0  3  0  0  0  0  0  0  0  0  0  0
  151.6358  144.3785  160.5804 C   0  0  0  0  0  0  0  0  0  0  0  0
  151.3577  143.4929  159.5204 C   0  0  0  0  0  0  0  0  0  0  0  0
  151.9093  142.1855  159.5365 C   0  0  0  0  0  0  0  0  0  0  0  0
  151.6891  141.2332  158.5001 N   0  0  0  0  0  0  0  0  0  0  0  0
  150.9648  141.3618  157.3747 C   0  0  0  0  0  0  0  0  0  0  0  0
  150.3483  142.3713  157.0354 O   0  0  0  0  0  0  0  0  0  0  0  0
  150.9795  140.2284  156.6587 N   0  0  0  0  0  0  0  0  0  0  0  0
  150.3036  140.0235  155.3760 C   0  0  2  0  0  0  0  0  0  0  0  0
  148.8349  140.4975  155.4418 C   0  0  0  0  0  0  0  0  0  0  0  0
  147.9694  139.5873  156.3287 C   0  0  0  0  0  0  0  0  0  0  0  0
  148.0575  138.1246  155.8707 C   0  0  0  0  0  0  0  0  0  0  0  0
  149.5153  137.6400  155.8228 C   0  0  0  0  0  0  0  0  0  0  0  0
  150.3897  138.5408  154.9238 C   0  0  2  0  0  0  0  0  0  0  0  0
  151.8333  138.0005  154.8368 C   0  0  0  0  0  0  0  0  0  0  0  0
  151.8418  136.6412  154.4551 O   0  0  0  0  0  0  0  0  0  0  0  0
  153.9950  140.3402  161.5973 H   0  0  0  0  0  0  0  0  0  0  0  0
  154.0528  140.2901  159.8347 H   0  0  0  0  0  0  0  0  0  0  0  0
  152.6353  139.6696  160.6949 H   0  0  0  0  0  0  0  0  0  0  0  0
  153.6162  142.5652  162.5094 H   0  0  0  0  0  0  0  0  0  0  0  0
  151.2522  145.3866  160.6415 H   0  0  0  0  0  0  0  0  0  0  0  0
  150.7357  143.8418  158.7109 H   0  0  0  0  0  0  0  0  0  0  0  0
  152.0738  140.3159  158.6714 H   0  0  0  0  0  0  0  0  0  0  0  0
  151.5024  139.4443  157.0199 H   0  0  0  0  0  0  0  0  0  0  0  0
  150.8148  140.6309  154.6269 H   0  0  0  0  0  0  0  0  0  0  0  0
  148.7786  141.5273  155.7967 H   0  0  0  0  0  0  0  0  0  0  0  0
  148.4199  140.5064  154.4331 H   0  0  0  0  0  0  0  0  0  0  0  0
  148.2913  139.6675  157.3677 H   0  0  0  0  0  0  0  0  0  0  0  0
  146.9321  139.9223  156.3023 H   0  0  0  0  0  0  0  0  0  0  0  0
  147.4764  137.4901  156.5402 H   0  0  0  0  0  0  0  0  0  0  0  0
  147.6073  138.0244  154.8822 H   0  0  0  0  0  0  0  0  0  0  0  0
  149.9241  137.6124  156.8336 H   0  0  0  0  0  0  0  0  0  0  0  0
  149.5400  136.6133  155.4562 H   0  0  0  0  0  0  0  0  0  0  0  0
  149.9684  138.4852  153.9184 H   0  0  0  0  0  0  0  0  0  0  0  0
  152.4355  138.5779  154.1350 H   0  0  0  0  0  0  0  0  0  0  0  0
  152.3223  138.0776  155.8083 H   0  0  0  0  0  0  0  0  0  0  0  0
  151.3199  136.5444  153.6732 H   0  0  0  0  0  0  0  0  0  0  0  0
  152.6213  144.6422  162.3525 H   0  0  0  0  0  0  0  0  0  0  0  0
  1  2  1  0  0  0  0
  1 20  1  0  0  0  0
  1 21  1  0  0  0  0
  1 22  1  0  0  0  0
  2  7  1  0  0  0  0
  2  3  2  0  0  0  0
  3  4  1  0  0  0  0
  3 23  1  0  0  0  0
  4  5  2  0  0  0  0
  4 41  1  0  0  0  0
  5  6  1  0  0  0  0
  5 24  1  0  0  0  0
  6  7  2  0  0  0  0
  6 25  1  0  0  0  0
  7  8  1  0  0  0  0
  8  9  1  0  0  0  0
  8 26  1  0  0  0  0
  9 10  2  0  0  0  0
  9 11  1  0  0  0  0
 11 12  1  0  0  0  0
 11 27  1  0  0  0  0
 12 17  1  0  0  0  0
 12 13  1  0  0  0  0
 12 28  1  0  0  0  0
 13 14  1  0  0  0  0
 13 29  1  0  0  0  0
 13 30  1  0  0  0  0
 14 15  1  0  0  0  0
 14 31  1  0  0  0  0
 14 32  1  0  0  0  0
 15 16  1  0  0  0  0
 15 33  1  0  0  0  0
 15 34  1  0  0  0  0
 16 17  1  0  0  0  0
 16 35  1  0  0  0  0
 16 36  1  0  0  0  0
 17 18  1  0  0  0  0
 17 37  1  0  0  0  0
 18 19  1  0  0  0  0
 18 38  1  0  0  0  0
 18 39  1  0  0  0  0
 19 40  1  0  0  0  0
M  CHG  1   4   1
M  END
> <s_m_source_file>
AV-unprocessed.smi

> <i_m_source_file_index>
2453

> <i_lp_mmshare_version>
43012

> <i_f3d_flags>
0

> <s_epik_input>
W0NIM11jMVtjSF1uW2NIXVtjSF1jMVtOSF1DKD1PKVtOSF1bQ0BASF0yW0NIMl1bQ0gyXVtDSDJdW0NIMl1bQ0BIXTJbQ0gyXVtPSF0=

> <s_epik_cmdline>
J2VwaWtfcHl0aG9uJywgJy1waCcsICc3LjAnLCAnLXRuJywgJzgnLCAnLW1hJywgJzIwMCcsICctbWV0YWxfYmluZGluZycsICctaW1hZScsICc8aW5maWxlLm1hZT4nLCAnLW9tYWUnLCAnPG91dGZpbGUubWFlPic=

> <r_epik_Ionization_Penalty>
0.71493

> <r_epik_Ionization_Penalty_Charging>
0.714909

> <r_epik_Ionization_Penalty_Neutral>
2.10174e-05

> <r_epik_State_Penalty>
0.738815

> <r_epik_Charging_Adjusted_Penalty>
1.45372

> <i_epik_Tot_Q>
1

> <i_epik_Tot_abs_Q>
1

> <r_epik_Metal_State_Penalty>
0.896004

> <b_epik_Metal_Only>
0

> <s_lp_Force_Field>
OPLS_2005

> <r_lp_Energy>
23.4008

> <b_lp_Chiralities_Consistent>
1

> <s_lp_Variant>
AV-unprocessed.smi:2453-7

> <Gold.Version>
5.8.1

> <Gold.Id.Protein>
6NUR|6NUR_protein|mol2

> <Gold.PLP.Fitness>
41.5011

> <Gold.PLP.PLP>
-35.7018

> <Gold.PLP.part.hbond>
-1.8249

> <Gold.PLP.part.metal>
0.0000

> <Gold.PLP.part.buried>
-5.6417

> <Gold.PLP.part.nonpolar>
-29.4230

> <Gold.PLP.part.repulsive>
0.9893

> <Gold.PLP.ligand.clash>
0.0000

> <Gold.PLP.ligand.torsion>
0.0980

> <Gold.PLP.Chemscore.Hbond>
1.9920

> <Gold.PLP.Chemscore.CHOScore>
0.0000

> <Gold.PLP.Chemscore.Metal>
0.0000

> <Gold.Chemscore.Hbonds>
donor molecule, donor type, donor heavy atom, donor atom, acceptor molecule, acceptor atom, score
      L1  H    19    40       P1  7949  0.44
      P1  H 10752 10764       L1    19  0.98

> <Gold.PLP.Chemscore.Internal.Correction>
0.0192

> <Gold.Rescore>
     Score         DG    S(hbond)    S(metal)    S(lipo)     H(rot)  DE(clash)    DE(int)     intcor
     14.24     -17.23       1.63        0.00      92.81       1.77       0.04       2.95       ----

> <Gold.Chemscore.Fitness>
14.2446

> <Gold.Chemscore.DG>
-17.2254

> <Gold.Chemscore.ZeroCoef>
-5.4800

> <Gold.Chemscore.Hbond>
1.6254

> <Gold.Chemscore.Metal>
0.0000

> <Gold.Chemscore.Lipo>
92.8069

> <Gold.Chemscore.Internal_Hbond>
0.0000

> <Gold.Chemscore.DEClash>
0.0354

> <Gold.Chemscore.DEInternal>
2.9454

> <Gold.Chemscore.Rot>
1.7742

> <Gold.Chemscore.Internal.Correction>
   9.000000E+99

> <Gold.Chemscore.Hbonds>
donor molecule, donor type, donor heavy atom, donor atom, acceptor molecule, acceptor atom, score
      L1  H    19    40       P1  7949  0.27
      P1  H 10752 10764       L1    19  0.23

> <Gold.Chemscore.Hbond.Weighted>
-5.4290

> <Gold.Chemscore.Metal.Weighted>
-0.0000

> <Gold.Chemscore.Lipo.Weighted>
-10.8584

> <Gold.Chemscore.Internal_Hbond.Weighted>
0.0000

> <Gold.Chemscore.DEClash.Weighted>
0.0354

> <Gold.Chemscore.DEInternal.Weighted>
2.9454

> <Gold.Chemscore.Rot.Weighted>
4.5419

> <Gold.Chemscore.Internal.Correction.Weighted>
   9.000000E+99

> <Gold.Protein.RotatedTorsions>
[ 6907 6896 6895 6894 ] final  140.61 input  -60.11 | X-H torsion
[ 7974 7965 7964 7962 ] final   44.12 input  175.53 | X-H torsion
[ 8008 7997 7996 7995 ] final -127.51 input   59.86 | X-H torsion
[ 10167 10162 10161 10158 ] final   -6.35 input  -65.29 | X-H torsion
[ 10718 10713 10712 10709 ] final  -55.54 input   66.30 | X-H torsion
[ 10763 10752 10751 10750 ] final  -87.74 input  -60.55 | X-H torsion
[ 11005 11000 10999 10996 ] final    9.05 input  -57.11 | X-H torsion

> <Gold.Protein.ActiveResidues>
 VAL166  LYS551  ARG553  GLY616  TRP617  ASP618  TYR619  PRO620  LYS621  CYS622 
 ASP623  PHE694  ASN695  SER759  ASP760  ASP761  ALA762  ILE779  LEU786  VAL792 
 PHE793  MET794  SER795  GLU796  ALA797  LYS798  CYS799  TRP800  GLU811  SER814 

> <Gold.Protein.RotatedAtoms>
  152.2409  133.5135  159.5269 H   0  0  0  0  0  0  0  0  0  0  0  0  # atno 6907 bound_to 6896
  150.7064  134.1090  159.4002 H   0  0  0  0  0  0  0  0  0  0  0  0  # atno 6908 bound_to 6896
  151.9010  135.0378  160.0557 H   0  0  0  0  0  0  0  0  0  0  0  0  # atno 6909 bound_to 6896
  146.0596  139.5109  142.9667 H   0  0  0  0  0  0  0  0  0  0  0  0  # atno 7974 bound_to 7965
  155.2474  140.0431  157.2982 H   0  0  0  0  0  0  0  0  0  0  0  0  # atno 8008 bound_to 7997
  154.5790  140.2395  155.8050 H   0  0  0  0  0  0  0  0  0  0  0  0  # atno 8009 bound_to 7997
  156.2179  140.2979  155.9891 H   0  0  0  0  0  0  0  0  0  0  0  0  # atno 8010 bound_to 7997
  140.6994  143.6204  150.8618 H   0  0  0  0  0  0  0  0  0  0  0  0  # atno 10167 bound_to 10162
  156.1360  130.4157  150.0184 H   0  0  0  0  0  0  0  0  0  0  0  0  # atno 10718 bound_to 10713
  154.6370  135.5402  153.7745 H   0  0  0  0  0  0  0  0  0  0  0  0  # atno 10763 bound_to 10752
  153.0313  135.6450  154.1217 H   0  0  0  0  0  0  0  0  0  0  0  0  # atno 10764 bound_to 10752
  154.1143  135.2924  155.3203 H   0  0  0  0  0  0  0  0  0  0  0  0  # atno 10765 bound_to 10752
  140.5301  134.0474  155.7871 H   0  0  0  0  0  0  0  0  0  0  0  0  # atno 11005 bound_to 11000
  145.6584  141.0246  143.1722 LP  0  0  0  0  0  0  0  0  0  0  0  0  # atno 17320 bound_to 7965
  144.7167  139.8172  143.7396 LP  0  0  0  0  0  0  0  0  0  0  0  0  # atno 17321 bound_to 7965
  139.9925  143.5832  152.2905 LP  0  0  0  0  0  0  0  0  0  0  0  0  # atno 17342 bound_to 10162
  139.6492  144.7660  151.2182 LP  0  0  0  0  0  0  0  0  0  0  0  0  # atno 17343 bound_to 10162
  156.8083  130.9315  151.3644 LP  0  0  0  0  0  0  0  0  0  0  0  0  # atno 17370 bound_to 10713
  157.6533  130.8903  149.9677 LP  0  0  0  0  0  0  0  0  0  0  0  0  # atno 17371 bound_to 10713
  141.1286  133.9341  157.2583 LP  0  0  0  0  0  0  0  0  0  0  0  0  # atno 17394 bound_to 11000
  139.9559  135.0165  156.9126 LP  0  0  0  0  0  0  0  0  0  0  0  0  # atno 17395 bound_to 11000

$$$$
