AV-unprocessed.smi:2822|AV-procd|sdf|10866|dock3
  -GOLD-   2272015313D 1   1.00000     0.00000
 Structure written by MMmdl.
 41 43  0  0  0  0  0  0  0  0  3 V2000
  150.2948  138.7320  154.2770 Cl  0  0  0  0  0  0  0  0  0  0  0  0
  149.0989  139.9797  154.2246 C   0  0  0  0  0  0  0  0  0  0  0  0
  149.3393  141.1934  154.9008 C   0  0  0  0  0  0  0  0  0  0  0  0
  148.4158  142.1776  154.8712 N   0  3  0  0  0  0  0  0  0  0  0  0
  147.2446  142.0582  154.2110 C   0  0  0  0  0  0  0  0  0  0  0  0
  146.9462  140.8682  153.5160 C   0  0  0  0  0  0  0  0  0  0  0  0
  147.8830  139.8046  153.5183 C   0  0  0  0  0  0  0  0  0  0  0  0
  147.6476  138.5944  152.8478 N   0  0  0  0  0  0  0  0  0  0  0  0
  146.4198  138.3641  152.1022 C   0  0  0  0  0  0  0  0  0  0  0  0
  145.4413  137.4767  152.8984 C   0  0  2  0  0  0  0  0  0  0  0  0
  146.1407  136.5541  153.9150 C   0  0  0  0  0  0  0  0  0  0  0  0
  146.8572  135.4451  153.2417 N   0  3  1  0  0  0  0  0  0  0  0  0
  147.5581  134.5636  154.2102 C   0  0  0  0  0  0  0  0  0  0  0  0
  148.3644  133.4727  153.4879 C   0  0  0  0  0  0  0  0  0  0  0  0
  147.4609  132.6557  152.5564 C   0  0  0  0  0  0  0  0  0  0  0  0
  146.7324  133.5903  151.5819 C   0  0  0  0  0  0  0  0  0  0  0  0
  145.9535  134.6894  152.3327 C   0  0  2  0  0  0  0  0  0  0  0  0
  145.2701  135.6543  151.3457 C   0  0  0  0  0  0  0  0  0  0  0  0
  144.6006  136.6951  152.0494 O   0  0  0  0  0  0  0  0  0  0  0  0
  150.2387  141.4041  155.4611 H   0  0  0  0  0  0  0  0  0  0  0  0
  146.5858  142.9135  154.2566 H   0  0  0  0  0  0  0  0  0  0  0  0
  146.0061  140.7932  152.9903 H   0  0  0  0  0  0  0  0  0  0  0  0
  148.2522  137.8054  153.0322 H   0  0  0  0  0  0  0  0  0  0  0  0
  145.9596  139.3154  151.8358 H   0  0  0  0  0  0  0  0  0  0  0  0
  146.6775  137.8666  151.1666 H   0  0  0  0  0  0  0  0  0  0  0  0
  144.7833  138.1407  153.4607 H   0  0  0  0  0  0  0  0  0  0  0  0
  146.8352  137.1295  154.5283 H   0  0  0  0  0  0  0  0  0  0  0  0
  145.3965  136.1339  154.5938 H   0  0  0  0  0  0  0  0  0  0  0  0
  148.2281  135.1616  154.8289 H   0  0  0  0  0  0  0  0  0  0  0  0
  146.8298  134.1063  154.8820 H   0  0  0  0  0  0  0  0  0  0  0  0
  149.1703  133.9302  152.9125 H   0  0  0  0  0  0  0  0  0  0  0  0
  148.8385  132.8154  154.2173 H   0  0  0  0  0  0  0  0  0  0  0  0
  148.0511  131.9224  152.0060 H   0  0  0  0  0  0  0  0  0  0  0  0
  146.7335  132.0942  153.1445 H   0  0  0  0  0  0  0  0  0  0  0  0
  147.4585  134.0462  150.9072 H   0  0  0  0  0  0  0  0  0  0  0  0
  146.0528  133.0102  150.9563 H   0  0  0  0  0  0  0  0  0  0  0  0
  145.1805  134.2165  152.9416 H   0  0  0  0  0  0  0  0  0  0  0  0
  145.9876  136.0697  150.6379 H   0  0  0  0  0  0  0  0  0  0  0  0
  144.5316  135.1164  150.7508 H   0  0  0  0  0  0  0  0  0  0  0  0
  147.5696  135.8641  152.6613 H   0  0  0  0  0  0  0  0  0  0  0  0
  148.6120  143.0479  155.3672 H   0  0  0  0  0  0  0  0  0  0  0  0
  1  2  1  0  0  0  0
  2  7  1  0  0  0  0
  2  3  2  0  0  0  0
  3  4  1  0  0  0  0
  3 20  1  0  0  0  0
  4  5  2  0  0  0  0
  4 41  1  0  0  0  0
  5  6  1  0  0  0  0
  5 21  1  0  0  0  0
  6  7  2  0  0  0  0
  6 22  1  0  0  0  0
  7  8  1  0  0  0  0
  8  9  1  0  0  0  0
  8 23  1  0  0  0  0
  9 10  1  0  0  0  0
  9 24  1  0  0  0  0
  9 25  1  0  0  0  0
 10 19  1  0  0  0  0
 10 11  1  0  0  0  0
 10 26  1  0  0  0  0
 11 12  1  0  0  0  0
 11 27  1  0  0  0  0
 11 28  1  0  0  0  0
 12 17  1  0  0  0  0
 12 13  1  0  0  0  0
 12 40  1  0  0  0  0
 13 14  1  0  0  0  0
 13 29  1  0  0  0  0
 13 30  1  0  0  0  0
 14 15  1  0  0  0  0
 14 31  1  0  0  0  0
 14 32  1  0  0  0  0
 15 16  1  0  0  0  0
 15 33  1  0  0  0  0
 15 34  1  0  0  0  0
 16 17  1  0  0  0  0
 16 35  1  0  0  0  0
 16 36  1  0  0  0  0
 17 18  1  0  0  0  0
 17 37  1  0  0  0  0
 18 19  1  0  0  0  0
 18 38  1  0  0  0  0
 18 39  1  0  0  0  0
M  CHG  1   4   1
M  CHG  1  12   1
M  END
> <s_m_source_file>
AV-unprocessed.smi

> <i_m_source_file_index>
2822

> <i_lp_mmshare_version>
43012

> <i_f3d_flags>
0

> <s_epik_input>
Q2xjMVtjSF1uW2NIXVtjSF1jMVtOSF1bQ0gyXVtDQEhdKFtDSDJdMilPW0NIMl1bQ0BASF0oTjIzKVtDSDJdW0NIMl1bQ0gyXVtDSDJdMw==

> <s_epik_cmdline>
J2VwaWtfcHl0aG9uJywgJy1waCcsICc3LjAnLCAnLXRuJywgJzgnLCAnLW1hJywgJzIwMCcsICctbWV0YWxfYmluZGluZycsICctaW1hZScsICc8aW5maWxlLm1hZT4nLCAnLW9tYWUnLCAnPG91dGZpbGUubWFlPic=

> <r_lp_tautomer_probability>
1

> <r_epik_Ionization_Penalty>
0.254999

> <r_epik_Ionization_Penalty_Charging>
0.254956

> <r_epik_Ionization_Penalty_Neutral>
4.33524e-05

> <r_epik_State_Penalty>
0.230978

> <r_epik_Charging_Adjusted_Penalty>
0.485934

> <i_epik_Tot_Q>
2

> <i_epik_Tot_abs_Q>
2

> <r_epik_Metal_State_Penalty>
3.47007

> <b_epik_Metal_Only>
0

> <s_lp_Force_Field>
OPLS_2005

> <r_lp_Energy>
41.9654

> <b_lp_Chiralities_Consistent>
1

> <s_lp_Variant>
AV-unprocessed.smi:2822-7

> <Gold.Version>
5.8.1

> <Gold.Id.Protein>
6NUR|6NUR_protein|mol2

> <Gold.PLP.Fitness>
50.0185

> <Gold.PLP.PLP>
-37.1101

> <Gold.PLP.part.hbond>
-4.0000

> <Gold.PLP.part.metal>
0.0000

> <Gold.PLP.part.buried>
-0.4618

> <Gold.PLP.part.nonpolar>
-33.8696

> <Gold.PLP.part.repulsive>
1.5418

> <Gold.PLP.ligand.clash>
0.0000

> <Gold.PLP.ligand.torsion>
0.5332

> <Gold.PLP.Chemscore.Hbond>
4.6560

> <Gold.PLP.Chemscore.CHOScore>
0.0000

> <Gold.PLP.Chemscore.Metal>
0.0000

> <Gold.Chemscore.Hbonds>
donor molecule, donor type, donor heavy atom, donor atom, acceptor molecule, acceptor atom, score
      L1  H     4    41       P1  8028  2.00
      L1  H     8    23       P1  7948  0.60
      L1  H    12    40       P1  7948  2.00

> <Gold.PLP.Chemscore.Internal.Correction>
0.0068

> <Gold.Rescore>
     Score         DG    S(hbond)    S(metal)    S(lipo)     H(rot)  DE(clash)    DE(int)     intcor
     20.49     -21.56       2.65        0.00      87.91       1.20       0.49       0.58       ----

> <Gold.Chemscore.Fitness>
20.4903

> <Gold.Chemscore.DG>
-21.5565

> <Gold.Chemscore.ZeroCoef>
-5.4800

> <Gold.Chemscore.Hbond>
2.6508

> <Gold.Chemscore.Metal>
0.0000

> <Gold.Chemscore.Lipo>
87.9067

> <Gold.Chemscore.Internal_Hbond>
0.0000

> <Gold.Chemscore.DEClash>
0.4857

> <Gold.Chemscore.DEInternal>
0.5805

> <Gold.Chemscore.Rot>
1.1962

> <Gold.Chemscore.Internal.Correction>
   9.000000E+99

> <Gold.Chemscore.Hbonds>
donor molecule, donor type, donor heavy atom, donor atom, acceptor molecule, acceptor atom, score
      L1  H     4    41       P1  8028  0.99
      L1  H     8    23       P1  7948  0.57
      L1  H    12    40       P1  7948  0.99

> <Gold.Chemscore.Hbond.Weighted>
-8.8537

> <Gold.Chemscore.Metal.Weighted>
-0.0000

> <Gold.Chemscore.Lipo.Weighted>
-10.2851

> <Gold.Chemscore.Internal_Hbond.Weighted>
0.0000

> <Gold.Chemscore.DEClash.Weighted>
0.4857

> <Gold.Chemscore.DEInternal.Weighted>
0.5805

> <Gold.Chemscore.Rot.Weighted>
3.0623

> <Gold.Chemscore.Internal.Correction.Weighted>
   9.000000E+99

> <Gold.Protein.RotatedTorsions>
[ 6907 6896 6895 6894 ] final  -30.58 input  -60.11 | X-H torsion
[ 7974 7965 7964 7962 ] final -145.32 input  175.53 | X-H torsion
[ 8008 7997 7996 7995 ] final -178.57 input   59.86 | X-H torsion
[ 10167 10162 10161 10158 ] final -175.77 input  -65.29 | X-H torsion
[ 10718 10713 10712 10709 ] final -138.72 input   66.30 | X-H torsion
[ 10763 10752 10751 10750 ] final -126.75 input  -60.55 | X-H torsion
[ 11005 11000 10999 10996 ] final  123.09 input  -57.11 | X-H torsion

> <Gold.Protein.ActiveResidues>
 VAL166  LYS551  ARG553  GLY616  TRP617  ASP618  TYR619  PRO620  LYS621  CYS622 
 ASP623  PHE694  ASN695  SER759  ASP760  ASP761  ALA762  ILE779  LEU786  VAL792 
 PHE793  MET794  SER795  GLU796  ALA797  LYS798  CYS799  TRP800  GLU811  SER814 

> <Gold.Protein.RotatedAtoms>
  151.1036  134.9986  159.8460 H   0  0  0  0  0  0  0  0  0  0  0  0  # atno 6907 bound_to 6896
  152.5438  134.1921  159.8688 H   0  0  0  0  0  0  0  0  0  0  0  0  # atno 6908 bound_to 6896
  151.1965  133.4591  159.2629 H   0  0  0  0  0  0  0  0  0  0  0  0  # atno 6909 bound_to 6896
  144.8236  140.5599  143.5562 H   0  0  0  0  0  0  0  0  0  0  0  0  # atno 7974 bound_to 7965
  156.0203  140.1260  157.0364 H   0  0  0  0  0  0  0  0  0  0  0  0  # atno 8008 bound_to 7997
  154.4309  140.1070  156.6025 H   0  0  0  0  0  0  0  0  0  0  0  0  # atno 8009 bound_to 7997
  155.5954  140.3470  155.4580 H   0  0  0  0  0  0  0  0  0  0  0  0  # atno 8010 bound_to 7997
  139.5564  144.1979  152.1166 H   0  0  0  0  0  0  0  0  0  0  0  0  # atno 10167 bound_to 10162
  156.3026  130.7437  151.1492 H   0  0  0  0  0  0  0  0  0  0  0  0  # atno 10718 bound_to 10713
  154.8748  135.3985  154.3481 H   0  0  0  0  0  0  0  0  0  0  0  0  # atno 10763 bound_to 10752
  153.4271  135.7024  153.6261 H   0  0  0  0  0  0  0  0  0  0  0  0  # atno 10764 bound_to 10752
  153.4898  135.3751  155.2455 H   0  0  0  0  0  0  0  0  0  0  0  0  # atno 10765 bound_to 10752
  139.9297  134.9641  156.8207 H   0  0  0  0  0  0  0  0  0  0  0  0  # atno 11005 bound_to 11000
  145.5050  139.1481  143.3636 LP  0  0  0  0  0  0  0  0  0  0  0  0  # atno 17320 bound_to 7965
  146.2541  140.5190  142.8881 LP  0  0  0  0  0  0  0  0  0  0  0  0  # atno 17321 bound_to 7965
  140.1484  144.5137  150.6702 LP  0  0  0  0  0  0  0  0  0  0  0  0  # atno 17342 bound_to 10162
  140.6837  143.2339  151.5317 LP  0  0  0  0  0  0  0  0  0  0  0  0  # atno 17343 bound_to 10162
  157.7371  131.0555  150.5372 LP  0  0  0  0  0  0  0  0  0  0  0  0  # atno 17370 bound_to 10713
  156.5501  130.4229  149.6112 LP  0  0  0  0  0  0  0  0  0  0  0  0  # atno 17371 bound_to 10713
  140.6236  133.9971  155.7629 LP  0  0  0  0  0  0  0  0  0  0  0  0  # atno 17394 bound_to 11000
  141.0878  133.9964  157.3286 LP  0  0  0  0  0  0  0  0  0  0  0  0  # atno 17395 bound_to 11000

$$$$
