AV-unprocessed.smi:244|AV-procd|sdf|1869|dock8
  -GOLD-   2262020503D 1   1.00000     0.00000
 Structure written by MMmdl.
 57 61  0  0  0  0  0  0  0  0  2 V2000
  149.2042  138.2880  157.5561 C   0  0  0  0  0  0  0  0  0  0  0  0
  150.1251  138.3444  156.3973 N   0  3  2  0  0  0  0  0  0  0  0  0
  150.9676  139.5657  156.3600 C   0  0  0  0  0  0  0  0  0  0  0  0
  150.1814  140.7885  155.8612 C   0  0  0  0  0  0  0  0  0  0  0  0
  149.5600  140.5108  154.4780 C   0  0  2  0  0  0  0  0  0  0  0  0
  148.8324  141.6304  153.9717 O   0  0  0  0  0  0  0  0  0  0  0  0
  147.6026  141.8906  154.6420 C   0  0  0  0  0  0  0  0  0  0  0  0
  146.7030  140.6501  154.5769 C   0  0  0  0  0  0  0  0  0  0  0  0
  147.3930  139.4850  155.1177 N   0  0  0  0  0  0  0  0  0  0  0  0
  146.5341  138.4444  155.2314 C   0  0  0  0  0  0  0  0  0  0  0  0
  146.2110  137.9477  156.4548 N   0  0  0  0  0  0  0  0  0  0  0  0
  145.3678  136.9154  156.5552 C   0  0  0  0  0  0  0  0  0  0  0  0
  144.7474  136.2466  155.5807 N   0  0  0  0  0  0  0  0  0  0  0  0
  145.0778  136.7395  154.3525 C   0  0  0  0  0  0  0  0  0  0  0  0
  145.9630  137.8214  154.0911 C   0  0  0  0  0  0  0  0  0  0  0  0
  146.0645  138.0378  152.7231 N   0  0  0  0  0  0  0  0  0  0  0  0
  145.2795  137.1339  152.2028 C   0  0  0  0  0  0  0  0  0  0  0  0
  144.6358  136.3216  153.1098 N   0  0  0  0  0  0  0  0  0  0  0  0
  143.6993  135.2503  152.8083 C   0  0  0  0  0  0  0  0  0  0  0  0
  144.3772  133.9360  152.3461 C   0  0  0  0  0  0  0  0  0  0  0  0
  144.8629  133.2682  153.4979 O   0  0  0  0  0  0  0  0  0  0  0  0
  143.4010  132.9882  151.6147 C   0  0  0  0  0  0  0  0  0  0  0  0
  144.1259  131.7904  150.9752 C   0  0  0  0  0  0  0  0  0  0  0  0
  145.1563  132.2476  150.1081 O   0  0  0  0  0  0  0  0  0  0  0  0
  146.1688  132.9725  150.7953 C   0  0  0  0  0  0  0  0  0  0  0  0
  145.5708  134.2456  151.4203 C   0  0  0  0  0  0  0  0  0  0  0  0
  148.6899  139.2307  154.4772 C   0  0  2  0  0  0  0  0  0  0  0  0
  149.4865  138.0415  155.0880 C   0  0  0  0  0  0  0  0  0  0  0  0
  148.4993  139.1180  157.5597 H   0  0  0  0  0  0  0  0  0  0  0  0
  149.7676  138.3266  158.4887 H   0  0  0  0  0  0  0  0  0  0  0  0
  148.6350  137.3578  157.5529 H   0  0  0  0  0  0  0  0  0  0  0  0
  151.3894  139.7587  157.3471 H   0  0  0  0  0  0  0  0  0  0  0  0
  151.8134  139.3811  155.6965 H   0  0  0  0  0  0  0  0  0  0  0  0
  149.4172  141.0436  156.5938 H   0  0  0  0  0  0  0  0  0  0  0  0
  150.8445  141.6519  155.7996 H   0  0  0  0  0  0  0  0  0  0  0  0
  150.3844  140.3523  153.7816 H   0  0  0  0  0  0  0  0  0  0  0  0
  147.7739  142.1963  155.6737 H   0  0  0  0  0  0  0  0  0  0  0  0
  147.1107  142.7306  154.1513 H   0  0  0  0  0  0  0  0  0  0  0  0
  145.7815  140.8379  155.1304 H   0  0  0  0  0  0  0  0  0  0  0  0
  146.4200  140.4528  153.5416 H   0  0  0  0  0  0  0  0  0  0  0  0
  145.1590  136.5780  157.5598 H   0  0  0  0  0  0  0  0  0  0  0  0
  145.1370  137.0411  151.1359 H   0  0  0  0  0  0  0  0  0  0  0  0
  143.1025  135.0669  153.7030 H   0  0  0  0  0  0  0  0  0  0  0  0
  143.0026  135.6072  152.0484 H   0  0  0  0  0  0  0  0  0  0  0  0
  144.2208  132.6297  153.7690 H   0  0  0  0  0  0  0  0  0  0  0  0
  142.6290  132.6242  152.2937 H   0  0  0  0  0  0  0  0  0  0  0  0
  142.8846  133.5412  150.8288 H   0  0  0  0  0  0  0  0  0  0  0  0
  144.5424  131.1307  151.7379 H   0  0  0  0  0  0  0  0  0  0  0  0
  143.4200  131.1947  150.3963 H   0  0  0  0  0  0  0  0  0  0  0  0
  146.6347  132.3415  151.5537 H   0  0  0  0  0  0  0  0  0  0  0  0
  146.9508  133.2398  150.0843 H   0  0  0  0  0  0  0  0  0  0  0  0
  145.2393  134.8998  150.6127 H   0  0  0  0  0  0  0  0  0  0  0  0
  146.3429  134.7957  151.9597 H   0  0  0  0  0  0  0  0  0  0  0  0
  148.4774  138.9860  153.4351 H   0  0  0  0  0  0  0  0  0  0  0  0
  150.2929  137.7895  154.3983 H   0  0  0  0  0  0  0  0  0  0  0  0
  148.8881  137.1340  155.1662 H   0  0  0  0  0  0  0  0  0  0  0  0
  150.7681  137.5816  156.5562 H   0  0  0  0  0  0  0  0  0  0  0  0
  1  2  1  0  0  0  0
  1 29  1  0  0  0  0
  1 30  1  0  0  0  0
  1 31  1  0  0  0  0
  2 28  1  0  0  0  0
  2  3  1  0  0  0  0
  2 57  1  0  0  0  0
  3  4  1  0  0  0  0
  3 32  1  0  0  0  0
  3 33  1  0  0  0  0
  4  5  1  0  0  0  0
  4 34  1  0  0  0  0
  4 35  1  0  0  0  0
  5 27  1  0  0  0  0
  5  6  1  0  0  0  0
  5 36  1  0  0  0  0
  6  7  1  0  0  0  0
  7  8  1  0  0  0  0
  7 37  1  0  0  0  0
  7 38  1  0  0  0  0
  8  9  1  0  0  0  0
  8 39  1  0  0  0  0
  8 40  1  0  0  0  0
  9 10  1  0  0  0  0
  9 27  1  0  0  0  0
 10 15  1  0  0  0  0
 10 11  2  0  0  0  0
 11 12  1  0  0  0  0
 12 13  2  0  0  0  0
 12 41  1  0  0  0  0
 13 14  1  0  0  0  0
 14 18  1  0  0  0  0
 14 15  2  0  0  0  0
 15 16  1  0  0  0  0
 16 17  2  0  0  0  0
 17 18  1  0  0  0  0
 17 42  1  0  0  0  0
 18 19  1  0  0  0  0
 19 20  1  0  0  0  0
 19 43  1  0  0  0  0
 19 44  1  0  0  0  0
 20 26  1  0  0  0  0
 20 21  1  0  0  0  0
 20 22  1  0  0  0  0
 21 45  1  0  0  0  0
 22 23  1  0  0  0  0
 22 46  1  0  0  0  0
 22 47  1  0  0  0  0
 23 24  1  0  0  0  0
 23 48  1  0  0  0  0
 23 49  1  0  0  0  0
 24 25  1  0  0  0  0
 25 26  1  0  0  0  0
 25 50  1  0  0  0  0
 25 51  1  0  0  0  0
 26 52  1  0  0  0  0
 26 53  1  0  0  0  0
 27 28  1  0  0  0  0
 27 54  1  0  0  0  0
 28 55  1  0  0  0  0
 28 56  1  0  0  0  0
M  CHG  1   2   1
M  END
> <s_m_source_file>
AV-unprocessed.smi

> <i_m_source_file_index>
244

> <i_lp_mmshare_version>
43012

> <i_f3d_flags>
0

> <s_epik_input>
W0NIMl0xW0NIMl1OKFtDSDNdKVtDSDJdW0NAQEhdKFtDQEhdMTIpTihbQ0gyXVtDSDJdTzIpYyhuW2NIXW4zKWMoYzM0KW5bY0hdbjRbQ0gyXUM1KFtPSF0pW0NIMl1bQ0gyXU9bQ0gyXVtDSDJdNQ==

> <s_epik_cmdline>
J2VwaWtfcHl0aG9uJywgJy1waCcsICc3LjAnLCAnLXRuJywgJzgnLCAnLW1hJywgJzIwMCcsICctbWV0YWxfYmluZGluZycsICctaW1hZScsICc8aW5maWxlLm1hZT4nLCAnLW9tYWUnLCAnPG91dGZpbGUubWFlPic=

> <r_lp_tautomer_probability>
1

> <r_epik_Ionization_Penalty>
0.0136215

> <r_epik_Ionization_Penalty_Charging>
0.0131385

> <r_epik_Ionization_Penalty_Neutral>
0.000483022

> <r_epik_State_Penalty>
0.0104001

> <r_epik_Charging_Adjusted_Penalty>
0.0235387

> <i_epik_Tot_Q>
1

> <i_epik_Tot_abs_Q>
1

> <r_epik_Metal_State_Penalty>
0.0104469

> <b_epik_Metal_Only>
0

> <s_lp_Force_Field>
OPLS_2005

> <r_lp_Energy>
50.9375

> <b_lp_Chiralities_Consistent>
1

> <s_lp_Variant>
AV-unprocessed.smi:244-6

> <Gold.Version>
5.8.1

> <Gold.Id.Protein>
6NUR|6NUR_protein|mol2

> <Gold.PLP.Fitness>
39.7447

> <Gold.PLP.PLP>
-33.8857

> <Gold.PLP.part.hbond>
-2.9641

> <Gold.PLP.part.metal>
0.0000

> <Gold.PLP.part.buried>
-5.2156

> <Gold.PLP.part.nonpolar>
-28.5568

> <Gold.PLP.part.repulsive>
1.2221

> <Gold.PLP.ligand.clash>
0.0000

> <Gold.PLP.ligand.torsion>
0.5963

> <Gold.PLP.Chemscore.Hbond>
1.7273

> <Gold.PLP.Chemscore.CHOScore>
0.5749

> <Gold.PLP.Chemscore.Metal>
0.0000

> <Gold.Chemscore.Hbonds>
donor molecule, donor type, donor heavy atom, donor atom, acceptor molecule, acceptor atom, score
      L1  H    21    45       P1 10957  0.98
      P1  H  8011  8017       L1     6  0.59
      L1  C    17    42       P1 10171  0.89

> <Gold.PLP.Chemscore.Internal.Correction>
0.1452

> <Gold.Rescore>
     Score         DG    S(hbond)    S(metal)    S(lipo)     H(rot)  DE(clash)    DE(int)     intcor
     13.79     -15.16       1.70        0.00      80.05       2.09       0.89       0.49       ----

> <Gold.Chemscore.Fitness>
13.7856

> <Gold.Chemscore.DG>
-15.1634

> <Gold.Chemscore.ZeroCoef>
-5.4800

> <Gold.Chemscore.Hbond>
1.6979

> <Gold.Chemscore.Metal>
0.0000

> <Gold.Chemscore.Lipo>
80.0488

> <Gold.Chemscore.Internal_Hbond>
0.0000

> <Gold.Chemscore.DEClash>
0.8894

> <Gold.Chemscore.DEInternal>
0.4885

> <Gold.Chemscore.Rot>
2.0911

> <Gold.Chemscore.Internal.Correction>
   9.000000E+99

> <Gold.Chemscore.Hbonds>
donor molecule, donor type, donor heavy atom, donor atom, acceptor molecule, acceptor atom, score
      L1  H    21    45       P1 10957  0.56
      P1  H  8011  8017       L1     6  0.44

> <Gold.Chemscore.Hbond.Weighted>
-5.6708

> <Gold.Chemscore.Metal.Weighted>
-0.0000

> <Gold.Chemscore.Lipo.Weighted>
-9.3657

> <Gold.Chemscore.Internal_Hbond.Weighted>
0.0000

> <Gold.Chemscore.DEClash.Weighted>
0.8894

> <Gold.Chemscore.DEInternal.Weighted>
0.4885

> <Gold.Chemscore.Rot.Weighted>
5.3531

> <Gold.Chemscore.Internal.Correction.Weighted>
   9.000000E+99

> <Gold.Protein.RotatedTorsions>
[ 6907 6896 6895 6894 ] final  -44.86 input  -60.11 | X-H torsion
[ 7974 7965 7964 7962 ] final  -60.96 input  175.53 | X-H torsion
[ 8008 7997 7996 7995 ] final   85.70 input   59.86 | X-H torsion
[ 10167 10162 10161 10158 ] final  -26.80 input  -65.29 | X-H torsion
[ 10718 10713 10712 10709 ] final  103.29 input   66.30 | X-H torsion
[ 10763 10752 10751 10750 ] final  -45.35 input  -60.55 | X-H torsion
[ 11005 11000 10999 10996 ] final -107.40 input  -57.11 | X-H torsion

> <Gold.Protein.ActiveResidues>
 VAL166  LYS551  ARG553  GLY616  TRP617  ASP618  TYR619  PRO620  LYS621  CYS622 
 ASP623  PHE694  ASN695  SER759  ASP760  ASP761  ALA762  ILE779  LEU786  VAL792 
 PHE793  MET794  SER795  GLU796  ALA797  LYS798  CYS799  TRP800  GLU811  SER814 

> <Gold.Protein.RotatedAtoms>
  150.9282  134.8698  159.7533 H   0  0  0  0  0  0  0  0  0  0  0  0  # atno 6907 bound_to 6896
  152.5025  134.4118  159.9461 H   0  0  0  0  0  0  0  0  0  0  0  0  # atno 6908 bound_to 6896
  151.4147  133.3677  159.2783 H   0  0  0  0  0  0  0  0  0  0  0  0  # atno 6909 bound_to 6896
  145.8092  140.8609  143.0190 H   0  0  0  0  0  0  0  0  0  0  0  0  # atno 7974 bound_to 7965
  155.9534  140.3399  155.6427 H   0  0  0  0  0  0  0  0  0  0  0  0  # atno 8008 bound_to 7997
  155.6891  140.0747  157.2473 H   0  0  0  0  0  0  0  0  0  0  0  0  # atno 8009 bound_to 7997
  154.4127  140.1660  156.2054 H   0  0  0  0  0  0  0  0  0  0  0  0  # atno 8010 bound_to 7997
  140.7281  143.4147  151.1047 H   0  0  0  0  0  0  0  0  0  0  0  0  # atno 10167 bound_to 10162
  157.6777  131.0775  150.5532 H   0  0  0  0  0  0  0  0  0  0  0  0  # atno 10718 bound_to 10713
  154.0271  135.6661  153.4777 H   0  0  0  0  0  0  0  0  0  0  0  0  # atno 10763 bound_to 10752
  153.0556  135.5058  154.7968 H   0  0  0  0  0  0  0  0  0  0  0  0  # atno 10764 bound_to 10752
  154.6901  135.3060  154.9456 H   0  0  0  0  0  0  0  0  0  0  0  0  # atno 10765 bound_to 10752
  141.0956  133.8978  157.1972 H   0  0  0  0  0  0  0  0  0  0  0  0  # atno 11005 bound_to 11000
  144.6759  140.0371  143.7481 LP  0  0  0  0  0  0  0  0  0  0  0  0  # atno 17320 bound_to 7965
  145.9795  139.2930  143.1050 LP  0  0  0  0  0  0  0  0  0  0  0  0  # atno 17321 bound_to 7965
  139.7785  143.8389  152.3133 LP  0  0  0  0  0  0  0  0  0  0  0  0  # atno 17342 bound_to 10162
  139.8332  144.7244  150.9423 LP  0  0  0  0  0  0  0  0  0  0  0  0  # atno 17343 bound_to 10162
  156.5836  130.4311  149.5966 LP  0  0  0  0  0  0  0  0  0  0  0  0  # atno 17370 bound_to 10713
  156.2641  130.6979  151.1757 LP  0  0  0  0  0  0  0  0  0  0  0  0  # atno 17371 bound_to 10713
  139.9791  135.0104  156.9706 LP  0  0  0  0  0  0  0  0  0  0  0  0  # atno 17394 bound_to 11000
  140.5149  134.0965  155.7278 LP  0  0  0  0  0  0  0  0  0  0  0  0  # atno 17395 bound_to 11000

$$$$
