AV-unprocessed.smi:750|AV-procd|sdf|3591|dock3
  -GOLD-   22720 0583D 1   1.00000     0.00000
 Structure written by MMmdl.
 22 23  0  0  0  0  0  0  0  0  2 V2000
  150.1442  139.6941  158.4105 C   0  0  0  0  0  0  0  0  0  0  0  0
  150.6292  140.6415  157.2932 C   0  0  2  0  0  0  0  0  0  0  0  0
  151.4486  141.8212  157.8437 C   0  0  0  0  0  0  0  0  0  0  0  0
  152.5399  141.6371  158.7270 C   0  0  0  0  0  0  0  0  0  0  0  0
  153.2477  142.7614  159.1930 C   0  0  0  0  0  0  0  0  0  0  0  0
  152.8397  144.0372  158.7611 C   0  0  0  0  0  0  0  0  0  0  0  0
  151.8041  144.2362  157.9203 N   0  0  0  0  0  0  0  0  0  0  0  0
  151.1309  143.1519  157.4792 C   0  0  0  0  0  0  0  0  0  0  0  0
  149.4917  141.0488  156.4900 N   0  0  0  0  0  0  0  0  0  0  0  0
  149.6157  140.6529  155.2246 C   0  0  0  0  0  0  0  0  0  0  0  0
  148.7625  140.9136  154.3795 O   0  0  0  0  0  0  0  0  0  0  0  0
  150.7627  139.9657  155.0644 N   0  5  0  0  0  0  0  0  0  0  0  0
  151.4393  139.8827  156.2308 C   0  0  0  0  0  0  0  0  0  0  0  0
  152.5018  139.3173  156.4874 O   0  0  0  0  0  0  0  0  0  0  0  0
  150.9744  139.2646  158.9718 H   0  0  0  0  0  0  0  0  0  0  0  0
  149.5661  138.8617  158.0062 H   0  0  0  0  0  0  0  0  0  0  0  0
  149.5052  140.2211  159.1194 H   0  0  0  0  0  0  0  0  0  0  0  0
  152.8447  140.6548  159.0552 H   0  0  0  0  0  0  0  0  0  0  0  0
  154.0836  142.6475  159.8671 H   0  0  0  0  0  0  0  0  0  0  0  0
  153.3587  144.9213  159.1001 H   0  0  0  0  0  0  0  0  0  0  0  0
  150.3070  143.3597  156.8130 H   0  0  0  0  0  0  0  0  0  0  0  0
  148.7146  141.5797  156.8541 H   0  0  0  0  0  0  0  0  0  0  0  0
  1  2  1  0  0  0  0
  1 15  1  0  0  0  0
  1 16  1  0  0  0  0
  1 17  1  0  0  0  0
  2 13  1  0  0  0  0
  2  3  1  0  0  0  0
  2  9  1  0  0  0  0
  3  8  1  0  0  0  0
  3  4  2  0  0  0  0
  4  5  1  0  0  0  0
  4 18  1  0  0  0  0
  5  6  2  0  0  0  0
  5 19  1  0  0  0  0
  6  7  1  0  0  0  0
  6 20  1  0  0  0  0
  7  8  2  0  0  0  0
  8 21  1  0  0  0  0
  9 10  1  0  0  0  0
  9 22  1  0  0  0  0
 10 11  2  0  0  0  0
 10 12  1  0  0  0  0
 12 13  1  0  0  0  0
 13 14  2  0  0  0  0
M  CHG  1  12  -1
M  END
> <s_m_source_file>
AV-unprocessed.smi

> <i_m_source_file_index>
750

> <i_lp_mmshare_version>
43012

> <i_f3d_flags>
0

> <s_epik_input>
Tz1DMVtOSF1DKD1PKVtOSF1bQ0BAXTEoW0NIM10pYzJbY0hdW2NIXVtjSF1uW2NIXTI=

> <s_epik_cmdline>
J2VwaWtfcHl0aG9uJywgJy1waCcsICc3LjAnLCAnLXRuJywgJzgnLCAnLW1hJywgJzIwMCcsICctbWV0YWxfYmluZGluZycsICctaW1hZScsICc8aW5maWxlLm1hZT4nLCAnLW9tYWUnLCAnPG91dGZpbGUubWFlPic=

> <r_epik_Ionization_Penalty>
1.82311

> <r_epik_Ionization_Penalty_Charging>
1.82122

> <r_epik_Ionization_Penalty_Neutral>
0.00188516

> <r_epik_State_Penalty>
1.93645

> <r_epik_Charging_Adjusted_Penalty>
3.75767

> <i_epik_Tot_Q>
-1

> <i_epik_Tot_abs_Q>
1

> <r_epik_Metal_State_Penalty>
0.533589

> <b_epik_Metal_Only>
0

> <s_lp_Force_Field>
OPLS_2005

> <r_lp_Energy>
8.30846

> <b_lp_Chiralities_Consistent>
1

> <s_lp_Variant>
AV-unprocessed.smi:750-4

> <Gold.Version>
5.8.1

> <Gold.Id.Protein>
6NUR|6NUR_protein|mol2

> <Gold.PLP.Fitness>
38.7612

> <Gold.PLP.PLP>
-27.8965

> <Gold.PLP.part.hbond>
-3.7256

> <Gold.PLP.part.metal>
0.0000

> <Gold.PLP.part.buried>
-3.1380

> <Gold.PLP.part.nonpolar>
-21.2567

> <Gold.PLP.part.repulsive>
0.5227

> <Gold.PLP.ligand.clash>
0.0000

> <Gold.PLP.ligand.torsion>
0.2609

> <Gold.PLP.Chemscore.Hbond>
2.7680

> <Gold.PLP.Chemscore.CHOScore>
1.0000

> <Gold.PLP.Chemscore.Metal>
0.0000

> <Gold.Chemscore.Hbonds>
donor molecule, donor type, donor heavy atom, donor atom, acceptor molecule, acceptor atom, score
      P1  H  7989  7998       L1    12  1.00
      P1  H  7997  8008       L1    14  1.00
      L1  C     8    21       P1  8028  1.00

> <Gold.PLP.Chemscore.Internal.Correction>
0.0826

> <Gold.Rescore>
     Score         DG    S(hbond)    S(metal)    S(lipo)     H(rot)  DE(clash)    DE(int)     intcor
     15.87     -15.92       1.94        0.00      55.74       1.00       0.01       0.04       ----

> <Gold.Chemscore.Fitness>
15.8687

> <Gold.Chemscore.DG>
-15.9160

> <Gold.Chemscore.ZeroCoef>
-5.4800

> <Gold.Chemscore.Hbond>
1.9384

> <Gold.Chemscore.Metal>
0.0000

> <Gold.Chemscore.Lipo>
55.7417

> <Gold.Chemscore.Internal_Hbond>
0.0000

> <Gold.Chemscore.DEClash>
0.0060

> <Gold.Chemscore.DEInternal>
0.0413

> <Gold.Chemscore.Rot>
1.0000

> <Gold.Chemscore.Internal.Correction>
   9.000000E+99

> <Gold.Chemscore.Hbonds>
donor molecule, donor type, donor heavy atom, donor atom, acceptor molecule, acceptor atom, score
      P1  H  7989  7998       L1    12  0.37
      P1  H  7997  8008       L1    14  0.96

> <Gold.Chemscore.Hbond.Weighted>
-6.4742

> <Gold.Chemscore.Metal.Weighted>
-0.0000

> <Gold.Chemscore.Lipo.Weighted>
-6.5218

> <Gold.Chemscore.Internal_Hbond.Weighted>
0.0000

> <Gold.Chemscore.DEClash.Weighted>
0.0060

> <Gold.Chemscore.DEInternal.Weighted>
0.0413

> <Gold.Chemscore.Rot.Weighted>
2.5600

> <Gold.Chemscore.Internal.Correction.Weighted>
   9.000000E+99

> <Gold.Protein.RotatedTorsions>
[ 6907 6896 6895 6894 ] final  -51.61 input  -60.11 | X-H torsion
[ 7974 7965 7964 7962 ] final -115.84 input  175.53 | X-H torsion
[ 8008 7997 7996 7995 ] final  -47.14 input   59.86 | X-H torsion
[ 10167 10162 10161 10158 ] final  -91.31 input  -65.29 | X-H torsion
[ 10718 10713 10712 10709 ] final   22.10 input   66.30 | X-H torsion
[ 10763 10752 10751 10750 ] final  -35.86 input  -60.55 | X-H torsion
[ 11005 11000 10999 10996 ] final   71.79 input  -57.11 | X-H torsion

> <Gold.Protein.ActiveResidues>
 VAL166  LYS551  ARG553  GLY616  TRP617  ASP618  TYR619  PRO620  LYS621  CYS622 
 ASP623  PHE694  ASN695  SER759  ASP760  ASP761  ALA762  ILE779  LEU786  VAL792 
 PHE793  MET794  SER795  GLU796  ALA797  LYS798  CYS799  TRP800  GLU811  SER814 

> <Gold.Protein.RotatedAtoms>
  150.8595  134.7943  159.7071 H   0  0  0  0  0  0  0  0  0  0  0  0  # atno 6907 bound_to 6896
  152.4636  134.5123  159.9767 H   0  0  0  0  0  0  0  0  0  0  0  0  # atno 6908 bound_to 6896
  151.5229  133.3425  159.2940 H   0  0  0  0  0  0  0  0  0  0  0  0  # atno 6909 bound_to 6896
  145.1037  140.8568  143.3911 H   0  0  0  0  0  0  0  0  0  0  0  0  # atno 7974 bound_to 7965
  154.4014  140.1354  156.4126 H   0  0  0  0  0  0  0  0  0  0  0  0  # atno 8008 bound_to 7997
  155.7719  140.3483  155.5231 H   0  0  0  0  0  0  0  0  0  0  0  0  # atno 8009 bound_to 7997
  155.8759  140.0979  157.1509 H   0  0  0  0  0  0  0  0  0  0  0  0  # atno 8010 bound_to 7997
  140.3462  143.2915  151.9779 H   0  0  0  0  0  0  0  0  0  0  0  0  # atno 10167 bound_to 10162
  157.1476  130.6660  149.6001 H   0  0  0  0  0  0  0  0  0  0  0  0  # atno 10718 bound_to 10713
  153.8701  135.6832  153.4775 H   0  0  0  0  0  0  0  0  0  0  0  0  # atno 10763 bound_to 10752
  153.1292  135.4705  154.9319 H   0  0  0  0  0  0  0  0  0  0  0  0  # atno 10764 bound_to 10752
  154.7718  135.3241  154.8124 H   0  0  0  0  0  0  0  0  0  0  0  0  # atno 10765 bound_to 10752
  139.9524  134.7203  156.0830 H   0  0  0  0  0  0  0  0  0  0  0  0  # atno 11005 bound_to 11000
  145.0926  139.2879  143.5727 LP  0  0  0  0  0  0  0  0  0  0  0  0  # atno 17320 bound_to 7965
  146.3529  140.0467  142.8639 LP  0  0  0  0  0  0  0  0  0  0  0  0  # atno 17321 bound_to 7965
  139.4833  144.6115  151.7425 LP  0  0  0  0  0  0  0  0  0  0  0  0  # atno 17342 bound_to 10162
  140.5262  144.0801  150.6038 LP  0  0  0  0  0  0  0  0  0  0  0  0  # atno 17343 bound_to 10162
  155.9776  130.4756  150.6606 LP  0  0  0  0  0  0  0  0  0  0  0  0  # atno 17370 bound_to 10713
  157.4250  131.0842  151.1094 LP  0  0  0  0  0  0  0  0  0  0  0  0  # atno 17371 bound_to 10713
  141.1190  133.6619  156.3166 LP  0  0  0  0  0  0  0  0  0  0  0  0  # atno 17394 bound_to 11000
  140.5687  134.5862  157.5452 LP  0  0  0  0  0  0  0  0  0  0  0  0  # atno 17395 bound_to 11000

$$$$
