AV-unprocessed.smi:1645|AV-procd|sdf|6605|dock4
  -GOLD-   22720 7303D 1   1.00000     0.00000
 Structure written by MMmdl.
 55 58  0  0  0  0  0  0  0  0  2 V2000
  146.2951  137.5751  155.0829 O   0  0  0  0  0  0  0  0  0  0  0  0
  147.1008  137.2210  154.2221 C   0  0  0  0  0  0  0  0  0  0  0  0
  148.3695  137.6530  154.1240 N   0  0  0  0  0  0  0  0  0  0  0  0
  149.0588  138.5441  154.9898 C   0  0  0  0  0  0  0  0  0  0  0  0
  148.7597  138.7027  156.3626 C   0  0  0  0  0  0  0  0  0  0  0  0
  149.5253  139.6027  157.1275 C   0  0  0  0  0  0  0  0  0  0  0  0
  150.5753  140.3188  156.5075 C   0  0  0  0  0  0  0  0  0  0  0  0
  151.3505  141.2252  157.2610 N   0  0  0  0  0  0  0  0  0  0  0  0
  150.7825  142.5681  157.3920 C   0  0  0  0  0  0  0  0  0  0  0  0
  151.8452  143.5775  157.8593 C   0  0  0  0  0  0  0  0  0  0  0  0
  152.5374  143.0977  159.1436 C   0  0  0  0  0  0  0  0  0  0  0  0
  153.1146  141.6899  158.9360 C   0  0  0  0  0  0  0  0  0  0  0  0
  152.0273  140.7139  158.4550 C   0  0  0  0  0  0  0  0  0  0  0  0
  150.8666  140.1570  155.1935 N   0  0  0  0  0  0  0  0  0  0  0  0
  150.1331  139.2897  154.4649 C   0  0  0  0  0  0  0  0  0  0  0  0
  146.8010  136.3552  153.2431 N   0  0  0  0  0  0  0  0  0  0  0  0
  145.4966  135.7250  153.0545 C   0  0  1  0  0  0  0  0  0  0  0  0
  144.3249  136.6570  153.3931 C   0  0  0  0  0  0  0  0  0  0  0  0
  143.2170  136.3038  152.3801 C   0  0  0  0  0  0  0  0  0  0  0  0
  143.7421  135.2034  151.5384 N   0  3  2  0  0  0  0  0  0  0  0  0
  143.2393  133.8733  151.9828 C   0  0  0  0  0  0  0  0  0  0  0  0
  143.9584  132.7141  151.2803 C   0  0  0  0  0  0  0  0  0  0  0  0
  145.4679  132.8048  151.5174 C   0  0  0  0  0  0  0  0  0  0  0  0
  145.9802  134.1512  150.9979 C   0  0  0  0  0  0  0  0  0  0  0  0
  145.2164  135.3570  151.5910 C   0  0  2  0  0  0  0  0  0  0  0  0
  148.8835  137.3566  153.3072 H   0  0  0  0  0  0  0  0  0  0  0  0
  147.9706  138.1465  156.8443 H   0  0  0  0  0  0  0  0  0  0  0  0
  149.2948  139.7418  158.1732 H   0  0  0  0  0  0  0  0  0  0  0  0
  150.3518  142.9157  156.4538 H   0  0  0  0  0  0  0  0  0  0  0  0
  149.9657  142.5294  158.1137 H   0  0  0  0  0  0  0  0  0  0  0  0
  152.5887  143.7134  157.0726 H   0  0  0  0  0  0  0  0  0  0  0  0
  151.3857  144.5523  158.0234 H   0  0  0  0  0  0  0  0  0  0  0  0
  153.3282  143.7922  159.4282 H   0  0  0  0  0  0  0  0  0  0  0  0
  151.8205  143.0838  159.9655 H   0  0  0  0  0  0  0  0  0  0  0  0
  153.9192  141.7302  158.2006 H   0  0  0  0  0  0  0  0  0  0  0  0
  153.5595  141.3260  159.8621 H   0  0  0  0  0  0  0  0  0  0  0  0
  151.2911  140.5582  159.2446 H   0  0  0  0  0  0  0  0  0  0  0  0
  152.4839  139.7463  158.2427 H   0  0  0  0  0  0  0  0  0  0  0  0
  150.4105  139.1949  153.4251 H   0  0  0  0  0  0  0  0  0  0  0  0
  147.5221  136.1247  152.5750 H   0  0  0  0  0  0  0  0  0  0  0  0
  145.4145  134.8362  153.6828 H   0  0  0  0  0  0  0  0  0  0  0  0
  143.9946  136.5169  154.4229 H   0  0  0  0  0  0  0  0  0  0  0  0
  144.6050  137.7052  153.2789 H   0  0  0  0  0  0  0  0  0  0  0  0
  142.2774  136.0419  152.8688 H   0  0  0  0  0  0  0  0  0  0  0  0
  143.0167  137.1634  151.7394 H   0  0  0  0  0  0  0  0  0  0  0  0
  143.3620  133.7704  153.0623 H   0  0  0  0  0  0  0  0  0  0  0  0
  142.1681  133.8159  151.7867 H   0  0  0  0  0  0  0  0  0  0  0  0
  143.5803  131.7618  151.6533 H   0  0  0  0  0  0  0  0  0  0  0  0
  143.7460  132.7362  150.2106 H   0  0  0  0  0  0  0  0  0  0  0  0
  145.6910  132.6993  152.5798 H   0  0  0  0  0  0  0  0  0  0  0  0
  145.9794  131.9874  151.0086 H   0  0  0  0  0  0  0  0  0  0  0  0
  147.0502  134.2451  151.1801 H   0  0  0  0  0  0  0  0  0  0  0  0
  145.8651  134.1673  149.9134 H   0  0  0  0  0  0  0  0  0  0  0  0
  145.4612  136.2276  150.9790 H   0  0  0  0  0  0  0  0  0  0  0  0
  143.4371  135.3354  150.5848 H   0  0  0  0  0  0  0  0  0  0  0  0
  1  2  2  0  0  0  0
  2  3  1  0  0  0  0
  2 16  1  0  0  0  0
  3  4  1  0  0  0  0
  3 26  1  0  0  0  0
  4 15  1  0  0  0  0
  4  5  2  0  0  0  0
  5  6  1  0  0  0  0
  5 27  1  0  0  0  0
  6  7  2  0  0  0  0
  6 28  1  0  0  0  0
  7  8  1  0  0  0  0
  7 14  1  0  0  0  0
  8 13  1  0  0  0  0
  8  9  1  0  0  0  0
  9 10  1  0  0  0  0
  9 29  1  0  0  0  0
  9 30  1  0  0  0  0
 10 11  1  0  0  0  0
 10 31  1  0  0  0  0
 10 32  1  0  0  0  0
 11 12  1  0  0  0  0
 11 33  1  0  0  0  0
 11 34  1  0  0  0  0
 12 13  1  0  0  0  0
 12 35  1  0  0  0  0
 12 36  1  0  0  0  0
 13 37  1  0  0  0  0
 13 38  1  0  0  0  0
 14 15  2  0  0  0  0
 15 39  1  0  0  0  0
 16 17  1  0  0  0  0
 16 40  1  0  0  0  0
 17 25  1  0  0  0  0
 17 18  1  0  0  0  0
 17 41  1  0  0  0  0
 18 19  1  0  0  0  0
 18 42  1  0  0  0  0
 18 43  1  0  0  0  0
 19 20  1  0  0  0  0
 19 44  1  0  0  0  0
 19 45  1  0  0  0  0
 20 25  1  0  0  0  0
 20 21  1  0  0  0  0
 20 55  1  0  0  0  0
 21 22  1  0  0  0  0
 21 46  1  0  0  0  0
 21 47  1  0  0  0  0
 22 23  1  0  0  0  0
 22 48  1  0  0  0  0
 22 49  1  0  0  0  0
 23 24  1  0  0  0  0
 23 50  1  0  0  0  0
 23 51  1  0  0  0  0
 24 25  1  0  0  0  0
 24 52  1  0  0  0  0
 24 53  1  0  0  0  0
 25 54  1  0  0  0  0
M  CHG  1  20   1
M  END
> <s_m_source_file>
AV-unprocessed.smi

> <i_m_source_file_index>
1645

> <i_lp_mmshare_version>
43012

> <i_f3d_flags>
0

> <s_epik_input>
W0NIMl0xW0NIMl1bQ0gyXVtDSDJdW0NASF0oTjEyKVtDQEBIXShbQ0gyXVtDSDJdMilbTkhdQyg9TylbTkhdYzNbY0hdW2NIXWMobltjSF0zKU40W0NIMl1bQ0gyXVtDSDJdW0NIMl1bQ0gyXTQ=

> <s_epik_cmdline>
J2VwaWtfcHl0aG9uJywgJy1waCcsICc3LjAnLCAnLXRuJywgJzgnLCAnLW1hJywgJzIwMCcsICctbWV0YWxfYmluZGluZycsICctaW1hZScsICc8aW5maWxlLm1hZT4nLCAnLW9tYWUnLCAnPG91dGZpbGUubWFlPic=

> <r_lp_tautomer_probability>
1

> <r_epik_Ionization_Penalty>
0.0808019

> <r_epik_Ionization_Penalty_Charging>
0.000974069

> <r_epik_Ionization_Penalty_Neutral>
0.0798278

> <r_epik_State_Penalty>
0.0653665

> <r_epik_Charging_Adjusted_Penalty>
0.0663406

> <i_epik_Tot_Q>
1

> <i_epik_Tot_abs_Q>
1

> <r_epik_Metal_State_Penalty>
0.0585673

> <b_epik_Metal_Only>
0

> <s_lp_Force_Field>
OPLS_2005

> <r_lp_Energy>
54.666

> <b_lp_Chiralities_Consistent>
1

> <s_lp_Variant>
AV-unprocessed.smi:1645-6

> <Gold.Version>
5.8.1

> <Gold.Id.Protein>
6NUR|6NUR_protein|mol2

> <Gold.PLP.Fitness>
47.3109

> <Gold.PLP.PLP>
-38.1790

> <Gold.PLP.part.hbond>
-3.0000

> <Gold.PLP.part.metal>
0.0000

> <Gold.PLP.part.buried>
-6.6985

> <Gold.PLP.part.nonpolar>
-29.0730

> <Gold.PLP.part.repulsive>
0.1248

> <Gold.PLP.ligand.clash>
0.0000

> <Gold.PLP.ligand.torsion>
0.8598

> <Gold.PLP.Chemscore.Hbond>
2.4760

> <Gold.PLP.Chemscore.CHOScore>
1.0000

> <Gold.PLP.Chemscore.Metal>
0.0000

> <Gold.Chemscore.Hbonds>
donor molecule, donor type, donor heavy atom, donor atom, acceptor molecule, acceptor atom, score
      L1  H     3    26       P1  7948  0.96
      L1  H    16    40       P1  7948  1.00
      P1  H  7989  7998       L1    14  0.45
      L1  C    15    39       P1  7957  0.99

> <Gold.PLP.Chemscore.Internal.Correction>
0.4235

> <Gold.Rescore>
     Score         DG    S(hbond)    S(metal)    S(lipo)     H(rot)  DE(clash)    DE(int)     intcor
     17.70     -20.93       1.97        0.00     101.49       1.17       0.02       3.21       ----

> <Gold.Chemscore.Fitness>
17.7044

> <Gold.Chemscore.DG>
-20.9344

> <Gold.Chemscore.ZeroCoef>
-5.4800

> <Gold.Chemscore.Hbond>
1.9711

> <Gold.Chemscore.Metal>
0.0000

> <Gold.Chemscore.Lipo>
101.4904

> <Gold.Chemscore.Internal_Hbond>
0.0000

> <Gold.Chemscore.DEClash>
0.0211

> <Gold.Chemscore.DEInternal>
3.2090

> <Gold.Chemscore.Rot>
1.1731

> <Gold.Chemscore.Internal.Correction>
   9.000000E+99

> <Gold.Chemscore.Hbonds>
donor molecule, donor type, donor heavy atom, donor atom, acceptor molecule, acceptor atom, score
      L1  H     3    26       P1  7948  0.92
      L1  H    16    40       P1  7948  0.97
      P1  H  7989  7998       L1    14  0.02

> <Gold.Chemscore.Hbond.Weighted>
-6.5833

> <Gold.Chemscore.Metal.Weighted>
-0.0000

> <Gold.Chemscore.Lipo.Weighted>
-11.8744

> <Gold.Chemscore.Internal_Hbond.Weighted>
0.0000

> <Gold.Chemscore.DEClash.Weighted>
0.0211

> <Gold.Chemscore.DEInternal.Weighted>
3.2090

> <Gold.Chemscore.Rot.Weighted>
3.0032

> <Gold.Chemscore.Internal.Correction.Weighted>
   9.000000E+99

> <Gold.Protein.RotatedTorsions>
[ 6907 6896 6895 6894 ] final   39.28 input  -60.11 | X-H torsion
[ 7974 7965 7964 7962 ] final -104.27 input  175.53 | X-H torsion
[ 8008 7997 7996 7995 ] final  -49.78 input   59.86 | X-H torsion
[ 10167 10162 10161 10158 ] final  -97.41 input  -65.29 | X-H torsion
[ 10718 10713 10712 10709 ] final  -74.33 input   66.30 | X-H torsion
[ 10763 10752 10751 10750 ] final  -71.81 input  -60.55 | X-H torsion
[ 11005 11000 10999 10996 ] final  125.07 input  -57.11 | X-H torsion

> <Gold.Protein.ActiveResidues>
 VAL166  LYS551  ARG553  GLY616  TRP617  ASP618  TYR619  PRO620  LYS621  CYS622 
 ASP623  PHE694  ASN695  SER759  ASP760  ASP761  ALA762  ILE779  LEU786  VAL792 
 PHE793  MET794  SER795  GLU796  ALA797  LYS798  CYS799  TRP800  GLU811  SER814 

> <Gold.Protein.RotatedAtoms>
  152.1675  134.8861  160.0536 H   0  0  0  0  0  0  0  0  0  0  0  0  # atno 6907 bound_to 6896
  151.9834  133.3760  159.4124 H   0  0  0  0  0  0  0  0  0  0  0  0  # atno 6908 bound_to 6896
  150.6897  134.3937  159.5132 H   0  0  0  0  0  0  0  0  0  0  0  0  # atno 6909 bound_to 6896
  145.2452  140.9219  143.3127 H   0  0  0  0  0  0  0  0  0  0  0  0  # atno 7974 bound_to 7965
  154.4050  140.1288  156.4558 H   0  0  0  0  0  0  0  0  0  0  0  0  # atno 8008 bound_to 7997
  155.7321  140.3491  155.5044 H   0  0  0  0  0  0  0  0  0  0  0  0  # atno 8009 bound_to 7997
  155.9117  140.1037  157.1264 H   0  0  0  0  0  0  0  0  0  0  0  0  # atno 8010 bound_to 7997
  140.2837  143.3266  152.0416 H   0  0  0  0  0  0  0  0  0  0  0  0  # atno 10167 bound_to 10162
  156.0247  130.4414  150.2876 H   0  0  0  0  0  0  0  0  0  0  0  0  # atno 10718 bound_to 10713
  154.4370  135.5950  153.6104 H   0  0  0  0  0  0  0  0  0  0  0  0  # atno 10763 bound_to 10752
  152.9802  135.5989  154.3769 H   0  0  0  0  0  0  0  0  0  0  0  0  # atno 10764 bound_to 10752
  154.3615  135.2841  155.2296 H   0  0  0  0  0  0  0  0  0  0  0  0  # atno 10765 bound_to 10752
  139.9389  134.9637  156.8504 H   0  0  0  0  0  0  0  0  0  0  0  0  # atno 11005 bound_to 11000
  144.9552  139.4039  143.6382 LP  0  0  0  0  0  0  0  0  0  0  0  0  # atno 17320 bound_to 7965
  146.3317  139.8579  142.8861 LP  0  0  0  0  0  0  0  0  0  0  0  0  # atno 17321 bound_to 7965
  139.4956  144.6574  151.6542 LP  0  0  0  0  0  0  0  0  0  0  0  0  # atno 17342 bound_to 10162
  140.5790  143.9978  150.6258 LP  0  0  0  0  0  0  0  0  0  0  0  0  # atno 17343 bound_to 10162
  157.0979  131.0187  151.3097 LP  0  0  0  0  0  0  0  0  0  0  0  0  # atno 17370 bound_to 10713
  157.4803  130.7761  149.7407 LP  0  0  0  0  0  0  0  0  0  0  0  0  # atno 17371 bound_to 10713
  140.6003  134.0178  155.7535 LP  0  0  0  0  0  0  0  0  0  0  0  0  # atno 17394 bound_to 11000
  141.1015  133.9761  157.3071 LP  0  0  0  0  0  0  0  0  0  0  0  0  # atno 17395 bound_to 11000

$$$$
