AV-unprocessed.smi:2557|AV-procd|sdf|10027|dock8
  -GOLD-   2272014 73D 1   1.00000     0.00000
 Structure written by MMmdl.
 38 40  0  0  0  0  0  0  0  0  2 V2000
  150.9740  133.1058  157.1935 O   0  5  0  0  0  0  0  0  0  0  0  0
  150.1452  132.3824  156.5920 C   0  0  0  0  0  0  0  0  0  0  0  0
  149.3696  132.5958  155.4498 C   0  0  0  0  0  0  0  0  0  0  0  0
  149.4521  133.8538  154.6901 C   0  0  0  0  0  0  0  0  0  0  0  0
  150.1670  134.8157  154.9684 O   0  0  0  0  0  0  0  0  0  0  0  0
  148.6526  133.9004  153.6068 N   0  0  0  0  0  0  0  0  0  0  0  0
  147.8131  132.8545  153.2179 C   0  0  0  0  0  0  0  0  0  0  0  0
  147.0243  133.2086  151.9562 C   0  0  0  0  0  0  0  0  0  0  0  0
  146.1898  134.4960  152.1456 C   0  0  0  0  0  0  0  0  0  0  0  0
  145.4328  134.8755  150.8618 C   0  0  0  0  0  0  0  0  0  0  0  0
  144.5496  133.7189  150.3695 C   0  0  0  0  0  0  0  0  0  0  0  0
  145.3769  132.4406  150.1674 C   0  0  0  0  0  0  0  0  0  0  0  0
  146.1233  132.0549  151.4548 C   0  0  0  0  0  0  0  0  0  0  0  0
  147.6939  131.7262  153.8497 N   0  0  0  0  0  0  0  0  0  0  0  0
  148.4847  131.6047  154.9684 N   0  0  0  0  0  0  0  0  0  0  0  0
  149.9893  131.1173  157.3359 C   0  0  0  0  0  0  0  0  0  0  0  0
  149.5759  131.1146  158.6863 C   0  0  0  0  0  0  0  0  0  0  0  0
  149.4511  129.8811  159.3550 C   0  0  0  0  0  0  0  0  0  0  0  0
  149.7102  128.6910  158.7723 N   0  0  0  0  0  0  0  0  0  0  0  0
  150.1126  128.6973  157.4834 C   0  0  0  0  0  0  0  0  0  0  0  0
  150.2695  129.8747  156.7263 C   0  0  0  0  0  0  0  0  0  0  0  0
  147.7544  133.4065  151.1690 H   0  0  0  0  0  0  0  0  0  0  0  0
  145.4757  134.3567  152.9589 H   0  0  0  0  0  0  0  0  0  0  0  0
  146.8302  135.3286  152.4393 H   0  0  0  0  0  0  0  0  0  0  0  0
  144.8211  135.7606  151.0390 H   0  0  0  0  0  0  0  0  0  0  0  0
  146.1477  135.1452  150.0834 H   0  0  0  0  0  0  0  0  0  0  0  0
  143.7564  133.5297  151.0939 H   0  0  0  0  0  0  0  0  0  0  0  0
  144.0574  133.9962  149.4370 H   0  0  0  0  0  0  0  0  0  0  0  0
  144.7270  131.6224  149.8555 H   0  0  0  0  0  0  0  0  0  0  0  0
  146.0938  132.5917  149.3593 H   0  0  0  0  0  0  0  0  0  0  0  0
  146.7222  131.1618  151.2709 H   0  0  0  0  0  0  0  0  0  0  0  0
  145.3932  131.7878  152.2205 H   0  0  0  0  0  0  0  0  0  0  0  0
  148.3993  130.7239  155.4638 H   0  0  0  0  0  0  0  0  0  0  0  0
  149.3585  132.0412  159.1968 H   0  0  0  0  0  0  0  0  0  0  0  0
  149.1347  129.8496  160.3872 H   0  0  0  0  0  0  0  0  0  0  0  0
  150.3165  127.7334  157.0413 H   0  0  0  0  0  0  0  0  0  0  0  0
  150.5954  129.8273  155.6976 H   0  0  0  0  0  0  0  0  0  0  0  0
  148.6679  134.7417  153.0498 H   0  0  0  0  0  0  0  0  0  0  0  0
  1  2  1  0  0  0  0
  2  3  2  0  0  0  0
  2 16  1  0  0  0  0
  3 15  1  0  0  0  0
  3  4  1  0  0  0  0
  4  5  2  0  0  0  0
  4  6  1  0  0  0  0
  6  7  1  0  0  0  0
  6 38  1  0  0  0  0
  7  8  1  0  0  0  0
  7 14  2  0  0  0  0
  8 13  1  0  0  0  0
  8  9  1  0  0  0  0
  8 22  1  0  0  0  0
  9 10  1  0  0  0  0
  9 23  1  0  0  0  0
  9 24  1  0  0  0  0
 10 11  1  0  0  0  0
 10 25  1  0  0  0  0
 10 26  1  0  0  0  0
 11 12  1  0  0  0  0
 11 27  1  0  0  0  0
 11 28  1  0  0  0  0
 12 13  1  0  0  0  0
 12 29  1  0  0  0  0
 12 30  1  0  0  0  0
 13 31  1  0  0  0  0
 13 32  1  0  0  0  0
 14 15  1  0  0  0  0
 15 33  1  0  0  0  0
 16 21  1  0  0  0  0
 16 17  2  0  0  0  0
 17 18  1  0  0  0  0
 17 34  1  0  0  0  0
 18 19  2  0  0  0  0
 18 35  1  0  0  0  0
 19 20  1  0  0  0  0
 20 21  2  0  0  0  0
 20 36  1  0  0  0  0
 21 37  1  0  0  0  0
M  CHG  1   1  -1
M  END
> <s_m_source_file>
AV-unprocessed.smi

> <i_m_source_file_index>
2557

> <i_lp_mmshare_version>
43012

> <i_f3d_flags>
0

> <s_epik_input>
W2NIXTFbY0hdbltjSF1bY0hdYzFDKD1PKUMyPUMoW09IXSlOPUMoW05IXVtOSF0yKVtDSF0zW0NIMl1bQ0gyXVtDSDJdW0NIMl1bQ0gyXTM=

> <s_epik_cmdline>
J2VwaWtfcHl0aG9uJywgJy1waCcsICc3LjAnLCAnLXRuJywgJzgnLCAnLW1hJywgJzIwMCcsICctbWV0YWxfYmluZGluZycsICctaW1hZScsICc8aW5maWxlLm1hZT4nLCAnLW9tYWUnLCAnPG91dGZpbGUubWFlPic=

> <r_epik_Ionization_Penalty>
0.0900605

> <r_epik_Ionization_Penalty_Charging>
0.000501436

> <r_epik_Ionization_Penalty_Neutral>
0.0895591

> <r_epik_State_Penalty>
0.142021

> <r_epik_Charging_Adjusted_Penalty>
0.142522

> <i_epik_Tot_Q>
-1

> <i_epik_Tot_abs_Q>
1

> <r_epik_Metal_State_Penalty>
0.0730028

> <b_epik_Metal_Only>
0

> <s_epik_Chemistry_Notes>
This compound has an imine and may undergo hydrolysis.

> <s_lp_Force_Field>
OPLS_2005

> <r_lp_Energy>
31.0156

> <b_lp_Chiralities_Consistent>
1

> <s_lp_Variant>
AV-unprocessed.smi:2557-1

> <Gold.Version>
5.8.1

> <Gold.Id.Protein>
6NUR|6NUR_protein|mol2

> <Gold.PLP.Fitness>
35.1794

> <Gold.PLP.PLP>
-27.0253

> <Gold.PLP.part.hbond>
-2.0000

> <Gold.PLP.part.metal>
0.0000

> <Gold.PLP.part.buried>
-3.4203

> <Gold.PLP.part.nonpolar>
-21.7395

> <Gold.PLP.part.repulsive>
0.2013

> <Gold.PLP.ligand.clash>
0.0000

> <Gold.PLP.ligand.torsion>
1.1315

> <Gold.PLP.Chemscore.Hbond>
2.7600

> <Gold.PLP.Chemscore.CHOScore>
0.0000

> <Gold.PLP.Chemscore.Metal>
0.0000

> <Gold.Chemscore.Hbonds>
donor molecule, donor type, donor heavy atom, donor atom, acceptor molecule, acceptor atom, score
      L1  H     6    38       P1  7948  1.00
      P1  H  6896  6909       L1     1  1.72

> <Gold.PLP.Chemscore.Internal.Correction>
2.1371

> <Gold.Rescore>
     Score         DG    S(hbond)    S(metal)    S(lipo)     H(rot)  DE(clash)    DE(int)     intcor
     14.00     -15.25       1.61        0.00      59.31       1.00       0.00       1.24       ----

> <Gold.Chemscore.Fitness>
14.0049

> <Gold.Chemscore.DG>
-15.2486

> <Gold.Chemscore.ZeroCoef>
-5.4800

> <Gold.Chemscore.Hbond>
1.6135

> <Gold.Chemscore.Metal>
0.0000

> <Gold.Chemscore.Lipo>
59.3120

> <Gold.Chemscore.Internal_Hbond>
0.0000

> <Gold.Chemscore.DEClash>
0.0038

> <Gold.Chemscore.DEInternal>
1.2399

> <Gold.Chemscore.Rot>
1.0000

> <Gold.Chemscore.Internal.Correction>
   9.000000E+99

> <Gold.Chemscore.Hbonds>
donor molecule, donor type, donor heavy atom, donor atom, acceptor molecule, acceptor atom, score
      L1  H     6    38       P1  7948  0.30
      P1  H  6896  6909       L1     1  0.80

> <Gold.Chemscore.Hbond.Weighted>
-5.3891

> <Gold.Chemscore.Metal.Weighted>
-0.0000

> <Gold.Chemscore.Lipo.Weighted>
-6.9395

> <Gold.Chemscore.Internal_Hbond.Weighted>
0.0000

> <Gold.Chemscore.DEClash.Weighted>
0.0038

> <Gold.Chemscore.DEInternal.Weighted>
1.2399

> <Gold.Chemscore.Rot.Weighted>
2.5600

> <Gold.Chemscore.Internal.Correction.Weighted>
   9.000000E+99

> <Gold.Protein.RotatedTorsions>
[ 6907 6896 6895 6894 ] final  -33.54 input  -60.11 | X-H torsion
[ 7974 7965 7964 7962 ] final  154.65 input  175.53 | X-H torsion
[ 8008 7997 7996 7995 ] final -105.11 input   59.86 | X-H torsion
[ 10167 10162 10161 10158 ] final  -46.58 input  -65.29 | X-H torsion
[ 10718 10713 10712 10709 ] final -100.73 input   66.30 | X-H torsion
[ 10763 10752 10751 10750 ] final  -24.11 input  -60.55 | X-H torsion
[ 11005 11000 10999 10996 ] final  -82.13 input  -57.11 | X-H torsion

> <Gold.Protein.ActiveResidues>
 VAL166  LYS551  ARG553  GLY616  TRP617  ASP618  TYR619  PRO620  LYS621  CYS622 
 ASP623  PHE694  ASN695  SER759  ASP760  ASP761  ALA762  ILE779  LEU786  VAL792 
 PHE793  MET794  SER795  GLU796  ALA797  LYS798  CYS799  TRP800  GLU811  SER814 

> <Gold.Protein.RotatedAtoms>
  151.0642  134.9757  159.8275 H   0  0  0  0  0  0  0  0  0  0  0  0  # atno 6907 bound_to 6896
  152.5400  134.2379  159.8860 H   0  0  0  0  0  0  0  0  0  0  0  0  # atno 6908 bound_to 6896
  151.2400  133.4361  159.2640 H   0  0  0  0  0  0  0  0  0  0  0  0  # atno 6909 bound_to 6896
  144.8075  139.6962  143.6156 H   0  0  0  0  0  0  0  0  0  0  0  0  # atno 7974 bound_to 7965
  154.8951  140.0414  157.1861 H   0  0  0  0  0  0  0  0  0  0  0  0  # atno 8008 bound_to 7997
  154.8501  140.2928  155.5583 H   0  0  0  0  0  0  0  0  0  0  0  0  # atno 8009 bound_to 7997
  156.2995  140.2466  156.3458 H   0  0  0  0  0  0  0  0  0  0  0  0  # atno 8010 bound_to 7997
  140.6811  143.2824  151.3803 H   0  0  0  0  0  0  0  0  0  0  0  0  # atno 10167 bound_to 10162
  156.0172  130.5341  150.6859 H   0  0  0  0  0  0  0  0  0  0  0  0  # atno 10718 bound_to 10713
  153.6785  135.6968  153.5125 H   0  0  0  0  0  0  0  0  0  0  0  0  # atno 10763 bound_to 10752
  153.2503  135.4277  155.0789 H   0  0  0  0  0  0  0  0  0  0  0  0  # atno 10764 bound_to 10752
  154.8406  135.3529  154.6329 H   0  0  0  0  0  0  0  0  0  0  0  0  # atno 10765 bound_to 10752
  141.1664  133.7229  156.8525 H   0  0  0  0  0  0  0  0  0  0  0  0  # atno 11005 bound_to 11000
  146.2369  139.5923  142.9518 LP  0  0  0  0  0  0  0  0  0  0  0  0  # atno 17320 bound_to 7965
  145.5403  141.0421  143.2334 LP  0  0  0  0  0  0  0  0  0  0  0  0  # atno 17321 bound_to 7965
  139.6135  144.1050  152.2322 LP  0  0  0  0  0  0  0  0  0  0  0  0  # atno 17342 bound_to 10162
  140.0471  144.5961  150.7365 LP  0  0  0  0  0  0  0  0  0  0  0  0  # atno 17343 bound_to 10162
  157.4551  131.0877  151.0805 LP  0  0  0  0  0  0  0  0  0  0  0  0  # atno 17370 bound_to 10713
  157.1309  130.6102  149.5529 LP  0  0  0  0  0  0  0  0  0  0  0  0  # atno 17371 bound_to 10713
  140.1905  134.8969  157.3055 LP  0  0  0  0  0  0  0  0  0  0  0  0  # atno 17394 bound_to 11000
  140.2295  134.3926  155.7528 LP  0  0  0  0  0  0  0  0  0  0  0  0  # atno 17395 bound_to 11000

$$$$
