AV-unprocessed.smi:1019|AV-procd|sdf|4452|dock3
  -GOLD-   22720 2423D 1   1.00000     0.00000
 Structure written by MMmdl.
 43 45  0  0  0  0  0  0  0  0  1 V2000
  146.1984  142.8983  153.7176 C   0  0  0  0  0  0  0  0  0  0  0  0
  147.0786  142.2485  154.6849 N   0  0  0  0  0  0  0  0  0  0  0  0
  146.3063  141.4854  155.6698 C   0  0  0  0  0  0  0  0  0  0  0  0
  145.1258  142.2465  156.2488 C   0  0  0  0  0  0  0  0  0  0  0  0
  145.3298  143.4856  156.8919 C   0  0  0  0  0  0  0  0  0  0  0  0
  144.2364  144.1934  157.4279 C   0  0  0  0  0  0  0  0  0  0  0  0
  142.9355  143.6641  157.3238 C   0  0  0  0  0  0  0  0  0  0  0  0
  142.7285  142.4266  156.6842 C   0  0  0  0  0  0  0  0  0  0  0  0
  143.8217  141.7181  156.1482 C   0  0  0  0  0  0  0  0  0  0  0  0
  148.0570  141.4119  153.9873 C   0  0  0  0  0  0  0  0  0  0  0  0
  149.2567  140.9456  154.8405 C   0  0  1  0  0  0  0  0  0  0  0  0
  150.1709  140.2499  154.0139 O   0  0  0  0  0  0  0  0  0  0  0  0
  149.9942  142.1311  155.4938 C   0  0  0  0  0  0  0  0  0  0  0  0
  150.6746  141.7559  156.7209 N   0  0  0  0  0  0  0  0  0  0  0  0
  150.8137  140.5166  157.2299 C   0  0  0  0  0  0  0  0  0  0  0  0
  151.4797  140.3998  158.3753 N   0  0  0  0  0  0  0  0  0  0  0  0
  151.8165  141.7165  158.6385 C   0  0  0  0  0  0  0  0  0  0  0  0
  152.5362  142.2824  159.7152 C   0  0  0  0  0  0  0  0  0  0  0  0
  152.7596  143.6740  159.7721 C   0  0  0  0  0  0  0  0  0  0  0  0
  152.2686  144.5195  158.7560 C   0  0  0  0  0  0  0  0  0  0  0  0
  151.5492  143.9788  157.6731 C   0  0  0  0  0  0  0  0  0  0  0  0
  151.3280  142.5902  157.6206 C   0  0  0  0  0  0  0  0  0  0  0  0
  146.7750  143.4800  152.9977 H   0  0  0  0  0  0  0  0  0  0  0  0
  145.5103  143.5872  154.2080 H   0  0  0  0  0  0  0  0  0  0  0  0
  145.6093  142.1645  153.1660 H   0  0  0  0  0  0  0  0  0  0  0  0
  145.9631  140.5466  155.2327 H   0  0  0  0  0  0  0  0  0  0  0  0
  146.9371  141.2164  156.5163 H   0  0  0  0  0  0  0  0  0  0  0  0
  146.3260  143.8956  156.9727 H   0  0  0  0  0  0  0  0  0  0  0  0
  144.3959  145.1424  157.9183 H   0  0  0  0  0  0  0  0  0  0  0  0
  142.0971  144.2072  157.7342 H   0  0  0  0  0  0  0  0  0  0  0  0
  141.7310  142.0204  156.6044 H   0  0  0  0  0  0  0  0  0  0  0  0
  143.6554  140.7703  155.6575 H   0  0  0  0  0  0  0  0  0  0  0  0
  147.5649  140.5582  153.5180 H   0  0  0  0  0  0  0  0  0  0  0  0
  148.4588  141.9989  153.1603 H   0  0  0  0  0  0  0  0  0  0  0  0
  148.9120  140.2714  155.6262 H   0  0  0  0  0  0  0  0  0  0  0  0
  149.7463  140.0622  153.1905 H   0  0  0  0  0  0  0  0  0  0  0  0
  150.7240  142.5555  154.8024 H   0  0  0  0  0  0  0  0  0  0  0  0
  149.2894  142.9288  155.7318 H   0  0  0  0  0  0  0  0  0  0  0  0
  150.3990  139.6515  156.7334 H   0  0  0  0  0  0  0  0  0  0  0  0
  152.9175  141.6448  160.4989 H   0  0  0  0  0  0  0  0  0  0  0  0
  153.3112  144.0949  160.5999 H   0  0  0  0  0  0  0  0  0  0  0  0
  152.4444  145.5840  158.8087 H   0  0  0  0  0  0  0  0  0  0  0  0
  151.1713  144.6227  156.8929 H   0  0  0  0  0  0  0  0  0  0  0  0
  1  2  1  0  0  0  0
  1 23  1  0  0  0  0
  1 24  1  0  0  0  0
  1 25  1  0  0  0  0
  2  3  1  0  0  0  0
  2 10  1  0  0  0  0
  3  4  1  0  0  0  0
  3 26  1  0  0  0  0
  3 27  1  0  0  0  0
  4  9  1  0  0  0  0
  4  5  2  0  0  0  0
  5  6  1  0  0  0  0
  5 28  1  0  0  0  0
  6  7  2  0  0  0  0
  6 29  1  0  0  0  0
  7  8  1  0  0  0  0
  7 30  1  0  0  0  0
  8  9  2  0  0  0  0
  8 31  1  0  0  0  0
  9 32  1  0  0  0  0
 10 11  1  0  0  0  0
 10 33  1  0  0  0  0
 10 34  1  0  0  0  0
 11 12  1  0  0  0  0
 11 13  1  0  0  0  0
 11 35  1  0  0  0  0
 12 36  1  0  0  0  0
 13 14  1  0  0  0  0
 13 37  1  0  0  0  0
 13 38  1  0  0  0  0
 14 22  1  0  0  0  0
 14 15  1  0  0  0  0
 15 16  2  0  0  0  0
 15 39  1  0  0  0  0
 16 17  1  0  0  0  0
 17 22  2  0  0  0  0
 17 18  1  0  0  0  0
 18 19  2  0  0  0  0
 18 40  1  0  0  0  0
 19 20  1  0  0  0  0
 19 41  1  0  0  0  0
 20 21  2  0  0  0  0
 20 42  1  0  0  0  0
 21 22  1  0  0  0  0
 21 43  1  0  0  0  0
M  END
> <s_m_source_file>
AV-unprocessed.smi

> <i_m_source_file_index>
1019

> <i_lp_mmshare_version>
43012

> <i_f3d_flags>
0

> <s_epik_input>
W2NIXTFbY0hdW2NIXVtjSF1bY0hdYzFbQ0gyXU4oW0NIM10pW0NIMl1bQ0BIXShbT0hdKVtDSDJdbihbY0hdbjIpYyhjMjMpW2NIXVtjSF1bY0hdW2NIXTM=

> <s_epik_cmdline>
J2VwaWtfcHl0aG9uJywgJy1waCcsICc3LjAnLCAnLXRuJywgJzgnLCAnLW1hJywgJzIwMCcsICctbWV0YWxfYmluZGluZycsICctaW1hZScsICc8aW5maWxlLm1hZT4nLCAnLW9tYWUnLCAnPG91dGZpbGUubWFlPic=

> <r_epik_Ionization_Penalty>
1.56741

> <r_epik_Ionization_Penalty_Charging>
0

> <r_epik_Ionization_Penalty_Neutral>
1.56741

> <r_epik_State_Penalty>
1.62466

> <r_epik_Charging_Adjusted_Penalty>
1.62466

> <i_epik_Tot_Q>
0

> <i_epik_Tot_abs_Q>
0

> <r_epik_Metal_State_Penalty>
1.58486

> <b_epik_Metal_Only>
0

> <s_lp_Force_Field>
OPLS_2005

> <r_lp_Energy>
22.9091

> <b_lp_Chiralities_Consistent>
1

> <s_lp_Variant>
AV-unprocessed.smi:1019-10

> <Gold.Version>
5.8.1

> <Gold.Id.Protein>
6NUR|6NUR_protein|mol2

> <Gold.PLP.Fitness>
47.7105

> <Gold.PLP.PLP>
-42.7816

> <Gold.PLP.part.hbond>
-2.0000

> <Gold.PLP.part.metal>
0.0000

> <Gold.PLP.part.buried>
-4.8021

> <Gold.PLP.part.nonpolar>
-37.1259

> <Gold.PLP.part.repulsive>
0.1541

> <Gold.PLP.ligand.clash>
0.0000

> <Gold.PLP.ligand.torsion>
0.5138

> <Gold.PLP.Chemscore.Hbond>
1.8873

> <Gold.PLP.Chemscore.CHOScore>
0.0000

> <Gold.PLP.Chemscore.Metal>
0.0000

> <Gold.Chemscore.Hbonds>
donor molecule, donor type, donor heavy atom, donor atom, acceptor molecule, acceptor atom, score
      L1  H    12    36       P1  7957  0.99
      P1  H  7989  7998       L1    12  0.88

> <Gold.PLP.Chemscore.Internal.Correction>
0.2947

> <Gold.Rescore>
     Score         DG    S(hbond)    S(metal)    S(lipo)     H(rot)  DE(clash)    DE(int)     intcor
     16.17     -17.98       1.54        0.00     112.42       2.27       1.17       0.64       ----

> <Gold.Chemscore.Fitness>
16.1745

> <Gold.Chemscore.DG>
-17.9781

> <Gold.Chemscore.ZeroCoef>
-5.4800

> <Gold.Chemscore.Hbond>
1.5412

> <Gold.Chemscore.Metal>
0.0000

> <Gold.Chemscore.Lipo>
112.4219

> <Gold.Chemscore.Internal_Hbond>
0.0000

> <Gold.Chemscore.DEClash>
1.1659

> <Gold.Chemscore.DEInternal>
0.6377

> <Gold.Chemscore.Rot>
2.2667

> <Gold.Chemscore.Internal.Correction>
   9.000000E+99

> <Gold.Chemscore.Hbonds>
donor molecule, donor type, donor heavy atom, donor atom, acceptor molecule, acceptor atom, score
      L1  H    12    36       P1  7957  0.90
      P1  H  7989  7998       L1    12  0.22

> <Gold.Chemscore.Hbond.Weighted>
-5.1476

> <Gold.Chemscore.Metal.Weighted>
-0.0000

> <Gold.Chemscore.Lipo.Weighted>
-13.1534

> <Gold.Chemscore.Internal_Hbond.Weighted>
0.0000

> <Gold.Chemscore.DEClash.Weighted>
1.1659

> <Gold.Chemscore.DEInternal.Weighted>
0.6377

> <Gold.Chemscore.Rot.Weighted>
5.8028

> <Gold.Chemscore.Internal.Correction.Weighted>
   9.000000E+99

> <Gold.Protein.RotatedTorsions>
[ 6907 6896 6895 6894 ] final   -8.35 input  -60.11 | X-H torsion
[ 7974 7965 7964 7962 ] final   17.98 input  175.53 | X-H torsion
[ 8008 7997 7996 7995 ] final   74.35 input   59.86 | X-H torsion
[ 10167 10162 10161 10158 ] final -130.25 input  -65.29 | X-H torsion
[ 10718 10713 10712 10709 ] final -131.06 input   66.30 | X-H torsion
[ 10763 10752 10751 10750 ] final  -75.67 input  -60.55 | X-H torsion
[ 11005 11000 10999 10996 ] final  155.42 input  -57.11 | X-H torsion

> <Gold.Protein.ActiveResidues>
 VAL166  LYS551  ARG553  GLY616  TRP617  ASP618  TYR619  PRO620  LYS621  CYS622 
 ASP623  PHE694  ASN695  SER759  ASP760  ASP761  ALA762  ILE779  LEU786  VAL792 
 PHE793  MET794  SER795  GLU796  ALA797  LYS798  CYS799  TRP800  GLU811  SER814 

> <Gold.Protein.RotatedAtoms>
  151.4351  135.1014  159.9653 H   0  0  0  0  0  0  0  0  0  0  0  0  # atno 6907 bound_to 6896
  152.4942  133.8581  159.7246 H   0  0  0  0  0  0  0  0  0  0  0  0  # atno 6908 bound_to 6896
  150.9128  133.6918  159.2878 H   0  0  0  0  0  0  0  0  0  0  0  0  # atno 6909 bound_to 6896
  146.2200  139.8523  142.8620 H   0  0  0  0  0  0  0  0  0  0  0  0  # atno 7974 bound_to 7965
  155.7971  140.3477  155.5382 H   0  0  0  0  0  0  0  0  0  0  0  0  # atno 8008 bound_to 7997
  155.8575  140.0966  157.1655 H   0  0  0  0  0  0  0  0  0  0  0  0  # atno 8009 bound_to 7997
  154.4010  140.1365  156.3908 H   0  0  0  0  0  0  0  0  0  0  0  0  # atno 8010 bound_to 7997
  139.9312  143.6269  152.2529 H   0  0  0  0  0  0  0  0  0  0  0  0  # atno 10167 bound_to 10162
  156.2206  130.6976  151.0751 H   0  0  0  0  0  0  0  0  0  0  0  0  # atno 10718 bound_to 10713
  154.4897  135.5823  153.6450 H   0  0  0  0  0  0  0  0  0  0  0  0  # atno 10763 bound_to 10752
  152.9860  135.6110  154.3141 H   0  0  0  0  0  0  0  0  0  0  0  0  # atno 10764 bound_to 10752
  154.3039  135.2846  155.2577 H   0  0  0  0  0  0  0  0  0  0  0  0  # atno 10765 bound_to 10752
  140.1580  134.8629  157.2538 H   0  0  0  0  0  0  0  0  0  0  0  0  # atno 11005 bound_to 11000
  145.2788  141.0132  143.3729 LP  0  0  0  0  0  0  0  0  0  0  0  0  # atno 17320 bound_to 7965
  144.9166  139.4463  143.6561 LP  0  0  0  0  0  0  0  0  0  0  0  0  # atno 17321 bound_to 7965
  139.6780  144.7657  151.1660 LP  0  0  0  0  0  0  0  0  0  0  0  0  # atno 17342 bound_to 10162
  140.7637  143.5766  150.8939 LP  0  0  0  0  0  0  0  0  0  0  0  0  # atno 17343 bound_to 10162
  157.7085  131.0745  150.6583 LP  0  0  0  0  0  0  0  0  0  0  0  0  # atno 17370 bound_to 10713
  156.6646  130.4522  149.5676 LP  0  0  0  0  0  0  0  0  0  0  0  0  # atno 17371 bound_to 10713
  140.2524  134.3667  155.7437 LP  0  0  0  0  0  0  0  0  0  0  0  0  # atno 17394 bound_to 11000
  141.2206  133.7324  156.8955 LP  0  0  0  0  0  0  0  0  0  0  0  0  # atno 17395 bound_to 11000

$$$$
