AV-unprocessed.smi:228|AV-procd|sdf|1745|dock5
  -GOLD-   2262020253D 1   1.00000     0.00000
 Structure written by MMmdl.
 59 62  0  0  0  0  0  0  0  0  1 V2000
  150.0717  127.7289  154.5024 C   0  0  0  0  0  0  0  0  0  0  0  0
  149.7797  129.1572  154.5814 N   0  0  0  0  0  0  0  0  0  0  0  0
  150.9037  130.0793  154.7289 C   0  0  0  0  0  0  0  0  0  0  0  0
  151.3840  130.1968  156.1937 C   0  0  2  0  0  0  0  0  0  0  0  0
  150.3464  130.8231  156.9216 O   0  0  0  0  0  0  0  0  0  0  0  0
  152.6568  131.0636  156.3276 C   0  0  0  0  0  0  0  0  0  0  0  0
  153.9205  130.3735  156.0615 N   0  0  0  0  0  0  0  0  0  0  0  0
  153.9477  129.7262  154.7517 C   0  0  0  0  0  0  0  0  0  0  0  0
  155.2698  128.9777  154.5064 C   0  0  0  0  0  0  0  0  0  0  0  0
  155.4867  128.0307  155.5471 O   0  0  0  0  0  0  0  0  0  0  0  0
  155.5173  128.6325  156.8369 C   0  0  0  0  0  0  0  0  0  0  0  0
  154.1930  129.3734  157.0890 C   0  0  0  0  0  0  0  0  0  0  0  0
  148.6400  129.6230  154.0053 C   0  0  0  0  0  0  0  0  0  0  0  0
  147.6478  128.7453  153.6979 N   0  0  0  0  0  0  0  0  0  0  0  0
  146.5253  129.1685  153.1110 C   0  0  0  0  0  0  0  0  0  0  0  0
  146.1873  130.4083  152.7556 N   0  0  0  0  0  0  0  0  0  0  0  0
  147.1640  131.3023  153.0820 C   0  0  0  0  0  0  0  0  0  0  0  0
  148.4117  130.9967  153.6979 C   0  0  0  0  0  0  0  0  0  0  0  0
  149.1468  132.1636  153.8668 N   0  0  0  0  0  0  0  0  0  0  0  0
  148.3914  133.0972  153.3577 C   0  0  0  0  0  0  0  0  0  0  0  0
  147.1646  132.6752  152.8943 N   0  0  0  0  0  0  0  0  0  0  0  0
  146.1549  133.4764  152.2538 C   0  0  0  0  0  0  0  0  0  0  0  0
  144.7571  132.9149  151.9584 C   0  0  0  0  0  0  0  0  0  0  0  0
  145.1399  132.7157  150.4760 C   0  0  0  0  0  0  0  0  0  0  0  0
  145.6354  131.2911  150.1478 C   0  0  0  0  0  0  0  0  0  0  0  0
  146.6316  131.2843  149.1461 O   0  0  0  0  0  0  0  0  0  0  0  0
  144.0389  133.1136  149.4766 C   0  0  0  0  0  0  0  0  0  0  0  0
  142.9852  132.1731  149.4447 O   0  0  0  0  0  0  0  0  0  0  0  0
  146.2305  133.7736  150.7513 C   0  0  0  0  0  0  0  0  0  0  0  0
  149.2027  127.1378  154.7940 H   0  0  0  0  0  0  0  0  0  0  0  0
  150.8926  127.4648  155.1694 H   0  0  0  0  0  0  0  0  0  0  0  0
  150.3592  127.4501  153.4881 H   0  0  0  0  0  0  0  0  0  0  0  0
  151.7052  129.6815  154.1062 H   0  0  0  0  0  0  0  0  0  0  0  0
  150.6929  131.0588  154.2982 H   0  0  0  0  0  0  0  0  0  0  0  0
  151.5660  129.2066  156.6143 H   0  0  0  0  0  0  0  0  0  0  0  0
  150.2654  130.3897  157.7579 H   0  0  0  0  0  0  0  0  0  0  0  0
  152.5807  131.8720  155.5996 H   0  0  0  0  0  0  0  0  0  0  0  0
  152.6849  131.5550  157.3018 H   0  0  0  0  0  0  0  0  0  0  0  0
  153.1146  129.0269  154.6669 H   0  0  0  0  0  0  0  0  0  0  0  0
  153.8177  130.4666  153.9629 H   0  0  0  0  0  0  0  0  0  0  0  0
  155.2382  128.4556  153.5501 H   0  0  0  0  0  0  0  0  0  0  0  0
  156.1065  129.6767  154.4621 H   0  0  0  0  0  0  0  0  0  0  0  0
  155.6676  127.8576  157.5886 H   0  0  0  0  0  0  0  0  0  0  0  0
  156.3638  129.3171  156.9071 H   0  0  0  0  0  0  0  0  0  0  0  0
  154.2295  129.8493  158.0695 H   0  0  0  0  0  0  0  0  0  0  0  0
  153.3779  128.6488  157.1249 H   0  0  0  0  0  0  0  0  0  0  0  0
  145.7935  128.4045  152.8937 H   0  0  0  0  0  0  0  0  0  0  0  0
  148.7167  134.1260  153.3154 H   0  0  0  0  0  0  0  0  0  0  0  0
  146.0971  134.3969  152.8359 H   0  0  0  0  0  0  0  0  0  0  0  0
  144.4939  131.9955  152.4803 H   0  0  0  0  0  0  0  0  0  0  0  0
  143.9798  133.6675  152.1019 H   0  0  0  0  0  0  0  0  0  0  0  0
  146.0599  130.8098  151.0287 H   0  0  0  0  0  0  0  0  0  0  0  0
  144.8120  130.6536  149.8250 H   0  0  0  0  0  0  0  0  0  0  0  0
  147.3969  130.8459  149.4851 H   0  0  0  0  0  0  0  0  0  0  0  0
  143.6284  134.0963  149.7101 H   0  0  0  0  0  0  0  0  0  0  0  0
  144.4408  133.1832  148.4652 H   0  0  0  0  0  0  0  0  0  0  0  0
  142.1648  132.6407  149.4117 H   0  0  0  0  0  0  0  0  0  0  0  0
  145.9031  134.7878  150.5163 H   0  0  0  0  0  0  0  0  0  0  0  0
  147.1897  133.5622  150.2791 H   0  0  0  0  0  0  0  0  0  0  0  0
  1  2  1  0  0  0  0
  1 30  1  0  0  0  0
  1 31  1  0  0  0  0
  1 32  1  0  0  0  0
  2  3  1  0  0  0  0
  2 13  1  0  0  0  0
  3  4  1  0  0  0  0
  3 33  1  0  0  0  0
  3 34  1  0  0  0  0
  4  5  1  0  0  0  0
  4  6  1  0  0  0  0
  4 35  1  0  0  0  0
  5 36  1  0  0  0  0
  6  7  1  0  0  0  0
  6 37  1  0  0  0  0
  6 38  1  0  0  0  0
  7 12  1  0  0  0  0
  7  8  1  0  0  0  0
  8  9  1  0  0  0  0
  8 39  1  0  0  0  0
  8 40  1  0  0  0  0
  9 10  1  0  0  0  0
  9 41  1  0  0  0  0
  9 42  1  0  0  0  0
 10 11  1  0  0  0  0
 11 12  1  0  0  0  0
 11 43  1  0  0  0  0
 11 44  1  0  0  0  0
 12 45  1  0  0  0  0
 12 46  1  0  0  0  0
 13 18  1  0  0  0  0
 13 14  2  0  0  0  0
 14 15  1  0  0  0  0
 15 16  2  0  0  0  0
 15 47  1  0  0  0  0
 16 17  1  0  0  0  0
 17 21  1  0  0  0  0
 17 18  2  0  0  0  0
 18 19  1  0  0  0  0
 19 20  2  0  0  0  0
 20 21  1  0  0  0  0
 20 48  1  0  0  0  0
 21 22  1  0  0  0  0
 22 29  1  0  0  0  0
 22 23  1  0  0  0  0
 22 49  1  0  0  0  0
 23 24  1  0  0  0  0
 23 50  1  0  0  0  0
 23 51  1  0  0  0  0
 24 25  1  0  0  0  0
 24 27  1  0  0  0  0
 24 29  1  0  0  0  0
 25 26  1  0  0  0  0
 25 52  1  0  0  0  0
 25 53  1  0  0  0  0
 26 54  1  0  0  0  0
 27 28  1  0  0  0  0
 27 55  1  0  0  0  0
 27 56  1  0  0  0  0
 28 57  1  0  0  0  0
 29 58  1  0  0  0  0
 29 59  1  0  0  0  0
M  END
> <s_m_source_file>
AV-unprocessed.smi

> <i_m_source_file_index>
228

> <i_lp_mmshare_version>
43012

> <i_f3d_flags>
0

> <s_epik_input>
W0NIMl0xW0NIMl1PW0NIMl1bQ0gyXU4xW0NIMl1bQ0BASF0oW09IXSlbQ0gyXU4oW0NIM10pYyhuW2NIXW4yKWMoYzIzKW5bY0hdbjNbQ0hdKFtDSDJdNClbQ0gyXUM0KFtDSDJdW09IXSlbQ0gyXVtPSF0=

> <s_epik_cmdline>
J2VwaWtfcHl0aG9uJywgJy1waCcsICc3LjAnLCAnLXRuJywgJzgnLCAnLW1hJywgJzIwMCcsICctbWV0YWxfYmluZGluZycsICctaW1hZScsICc8aW5maWxlLm1hZT4nLCAnLW9tYWUnLCAnPG91dGZpbGUubWFlPic=

> <r_lp_tautomer_probability>
1

> <r_epik_Ionization_Penalty>
0.423559

> <r_epik_Ionization_Penalty_Charging>
0

> <r_epik_Ionization_Penalty_Neutral>
0.423559

> <r_epik_State_Penalty>
0.438466

> <r_epik_Charging_Adjusted_Penalty>
0.438466

> <i_epik_Tot_Q>
0

> <i_epik_Tot_abs_Q>
0

> <r_epik_Metal_State_Penalty>
0.436601

> <b_epik_Metal_Only>
0

> <s_lp_Force_Field>
OPLS_2005

> <r_lp_Energy>
66.0814

> <b_lp_Chiralities_Consistent>
1

> <s_lp_Variant>
AV-unprocessed.smi:228-3

> <Gold.Version>
5.8.1

> <Gold.Id.Protein>
6NUR|6NUR_protein|mol2

> <Gold.PLP.Fitness>
53.2632

> <Gold.PLP.PLP>
-44.7780

> <Gold.PLP.part.hbond>
-3.7185

> <Gold.PLP.part.metal>
0.0000

> <Gold.PLP.part.buried>
-7.2253

> <Gold.PLP.part.nonpolar>
-34.3689

> <Gold.PLP.part.repulsive>
0.3389

> <Gold.PLP.ligand.clash>
0.0000

> <Gold.PLP.ligand.torsion>
1.4407

> <Gold.PLP.Chemscore.Hbond>
2.3449

> <Gold.PLP.Chemscore.CHOScore>
1.0000

> <Gold.PLP.Chemscore.Metal>
0.0000

> <Gold.Chemscore.Hbonds>
donor molecule, donor type, donor heavy atom, donor atom, acceptor molecule, acceptor atom, score
      L1  H    26    54       P1 10747  1.00
      L1  H    28    57       P1 10186  0.78
      P1  H 10785 10796       L1    28  0.68
      L1  C    20    48       P1  7948  0.76

> <Gold.PLP.Chemscore.Internal.Correction>
1.3322

> <Gold.Rescore>
     Score         DG    S(hbond)    S(metal)    S(lipo)     H(rot)  DE(clash)    DE(int)     intcor
      7.28     -12.54       2.54        0.00      89.68       4.66       0.17       5.09       ----

> <Gold.Chemscore.Fitness>
7.2818

> <Gold.Chemscore.DG>
-12.5393

> <Gold.Chemscore.ZeroCoef>
-5.4800

> <Gold.Chemscore.Hbond>
2.5437

> <Gold.Chemscore.Metal>
0.0000

> <Gold.Chemscore.Lipo>
89.6831

> <Gold.Chemscore.Internal_Hbond>
0.0000

> <Gold.Chemscore.DEClash>
0.1677

> <Gold.Chemscore.DEInternal>
5.0898

> <Gold.Chemscore.Rot>
4.6600

> <Gold.Chemscore.Internal.Correction>
   9.000000E+99

> <Gold.Chemscore.Hbonds>
donor molecule, donor type, donor heavy atom, donor atom, acceptor molecule, acceptor atom, score
      L1  H    26    54       P1 10747  0.97
      L1  H    28    57       P1 10186  0.74
      P1  H 10785 10796       L1    28  0.66

> <Gold.Chemscore.Hbond.Weighted>
-8.4960

> <Gold.Chemscore.Metal.Weighted>
-0.0000

> <Gold.Chemscore.Lipo.Weighted>
-10.4929

> <Gold.Chemscore.Internal_Hbond.Weighted>
0.0000

> <Gold.Chemscore.DEClash.Weighted>
0.1677

> <Gold.Chemscore.DEInternal.Weighted>
5.0898

> <Gold.Chemscore.Rot.Weighted>
11.9297

> <Gold.Chemscore.Internal.Correction.Weighted>
   9.000000E+99

> <Gold.Protein.RotatedTorsions>
[ 6907 6896 6895 6894 ] final  -55.25 input  -60.11 | X-H torsion
[ 7974 7965 7964 7962 ] final  -98.76 input  175.53 | X-H torsion
[ 8008 7997 7996 7995 ] final  113.89 input   59.86 | X-H torsion
[ 10167 10162 10161 10158 ] final   -5.62 input  -65.29 | X-H torsion
[ 10718 10713 10712 10709 ] final  123.35 input   66.30 | X-H torsion
[ 10763 10752 10751 10750 ] final  -51.41 input  -60.55 | X-H torsion
[ 11005 11000 10999 10996 ] final   69.74 input  -57.11 | X-H torsion

> <Gold.Protein.ActiveResidues>
 VAL166  LYS551  ARG553  GLY616  TRP617  ASP618  TYR619  PRO620  LYS621  CYS622 
 ASP623  PHE694  ASN695  SER759  ASP760  ASP761  ALA762  ILE779  LEU786  VAL792 
 PHE793  MET794  SER795  GLU796  ALA797  LYS798  CYS799  TRP800  GLU811  SER814 

> <Gold.Protein.RotatedAtoms>
  150.8268  134.7502  159.6818 H   0  0  0  0  0  0  0  0  0  0  0  0  # atno 6907 bound_to 6896
  152.4377  134.5649  159.9914 H   0  0  0  0  0  0  0  0  0  0  0  0  # atno 6908 bound_to 6896
  151.5820  133.3339  159.3046 H   0  0  0  0  0  0  0  0  0  0  0  0  # atno 6909 bound_to 6896
  145.3164  140.9412  143.2740 H   0  0  0  0  0  0  0  0  0  0  0  0  # atno 7974 bound_to 7965
  156.2287  140.2970  156.0132 H   0  0  0  0  0  0  0  0  0  0  0  0  # atno 8008 bound_to 7997
  155.2286  140.0418  157.2976 H   0  0  0  0  0  0  0  0  0  0  0  0  # atno 8009 bound_to 7997
  154.5958  140.2414  155.7866 H   0  0  0  0  0  0  0  0  0  0  0  0  # atno 8010 bound_to 7997
  140.6969  143.6287  150.8543 H   0  0  0  0  0  0  0  0  0  0  0  0  # atno 10167 bound_to 10162
  157.5672  131.1086  150.8433 H   0  0  0  0  0  0  0  0  0  0  0  0  # atno 10718 bound_to 10713
  154.1261  135.6527  153.4912 H   0  0  0  0  0  0  0  0  0  0  0  0  # atno 10763 bound_to 10752
  153.0210  135.5282  154.7048 H   0  0  0  0  0  0  0  0  0  0  0  0  # atno 10764 bound_to 10752
  154.6269  135.2971  155.0232 H   0  0  0  0  0  0  0  0  0  0  0  0  # atno 10765 bound_to 10752
  139.9637  134.7018  156.0592 H   0  0  0  0  0  0  0  0  0  0  0  0  # atno 11005 bound_to 11000
  144.8974  139.4694  143.6649 LP  0  0  0  0  0  0  0  0  0  0  0  0  # atno 17320 bound_to 7965
  146.3099  139.7709  142.9028 LP  0  0  0  0  0  0  0  0  0  0  0  0  # atno 17321 bound_to 7965
  140.0006  143.5748  152.2877 LP  0  0  0  0  0  0  0  0  0  0  0  0  # atno 17342 bound_to 10162
  139.6436  144.7656  151.2289 LP  0  0  0  0  0  0  0  0  0  0  0  0  # atno 17343 bound_to 10162
  156.8915  130.5214  149.5286 LP  0  0  0  0  0  0  0  0  0  0  0  0  # atno 17370 bound_to 10713
  156.0719  130.5750  150.9400 LP  0  0  0  0  0  0  0  0  0  0  0  0  # atno 17371 bound_to 10713
  141.1315  133.6585  156.3478 LP  0  0  0  0  0  0  0  0  0  0  0  0  # atno 17394 bound_to 11000
  140.5444  134.6088  157.5389 LP  0  0  0  0  0  0  0  0  0  0  0  0  # atno 17395 bound_to 11000

$$$$
