AV-unprocessed.smi:3348|AV-procd|sdf|12919|dock10
  -GOLD-   2272019343D 1   1.00000     0.00000
 Structure written by MMmdl.
 47 48  0  0  0  0  0  0  0  0  2 V2000
  144.0164  136.1824  152.7627 C   0  0  0  0  0  0  0  0  0  0  0  0
  145.3438  136.6396  152.1335 C   0  0  2  0  0  0  0  0  0  0  0  0
  145.6259  135.9630  150.7718 C   0  0  0  0  0  0  0  0  0  0  0  0
  145.4833  134.5184  150.8179 N   0  0  0  0  0  0  0  0  0  0  0  0
  144.3526  133.7624  150.5903 C   0  0  0  0  0  0  0  0  0  0  0  0
  144.7013  132.4517  150.7482 C   0  0  0  0  0  0  0  0  0  0  0  0
  146.0859  132.5069  151.0717 C   0  0  0  0  0  0  0  0  0  0  0  0
  146.5511  133.7453  151.1117 N   0  0  0  0  0  0  0  0  0  0  0  0
  146.4436  136.3923  153.0924 N   0  3  0  0  0  0  0  0  0  0  0  0
  146.6456  137.4377  154.1186 C   0  0  0  0  0  0  0  0  0  0  0  0
  148.0066  137.2720  154.8014 C   0  0  0  0  0  0  0  0  0  0  0  0
  148.4888  138.5585  155.1567 O   0  0  0  0  0  0  0  0  0  0  0  0
  149.3178  139.1746  154.1768 C   0  0  2  0  0  0  0  0  0  0  0  0
  150.6789  138.4520  154.0895 C   0  0  0  0  0  0  0  0  0  0  0  0
  151.4850  138.5958  155.3907 C   0  0  0  0  0  0  0  0  0  0  0  0
  151.6683  140.0729  155.7710 C   0  0  0  0  0  0  0  0  0  0  0  0
  150.3159  140.7968  155.8676 C   0  0  0  0  0  0  0  0  0  0  0  0
  149.5060  140.6588  154.5628 C   0  0  2  0  0  0  0  0  0  0  0  0
  148.1662  141.4081  154.6398 C   0  0  0  0  0  0  0  0  0  0  0  0
  143.1620  136.4487  152.1400 H   0  0  0  0  0  0  0  0  0  0  0  0
  143.8607  136.6506  153.7352 H   0  0  0  0  0  0  0  0  0  0  0  0
  143.9981  135.1013  152.9073 H   0  0  0  0  0  0  0  0  0  0  0  0
  145.2727  137.7175  151.9801 H   0  0  0  0  0  0  0  0  0  0  0  0
  144.9445  136.3339  150.0062 H   0  0  0  0  0  0  0  0  0  0  0  0
  146.6345  136.2058  150.4320 H   0  0  0  0  0  0  0  0  0  0  0  0
  143.4041  134.2146  150.3401 H   0  0  0  0  0  0  0  0  0  0  0  0
  144.0656  131.5847  150.6465 H   0  0  0  0  0  0  0  0  0  0  0  0
  146.7614  131.6894  151.2769 H   0  0  0  0  0  0  0  0  0  0  0  0
  146.2351  135.5317  153.5780 H   0  0  0  0  0  0  0  0  0  0  0  0
  146.5755  138.4301  153.6732 H   0  0  0  0  0  0  0  0  0  0  0  0
  145.8547  137.3610  154.8656 H   0  0  0  0  0  0  0  0  0  0  0  0
  147.8974  136.6506  155.6901 H   0  0  0  0  0  0  0  0  0  0  0  0
  148.7056  136.7682  154.1319 H   0  0  0  0  0  0  0  0  0  0  0  0
  148.8272  139.1379  153.2021 H   0  0  0  0  0  0  0  0  0  0  0  0
  150.5459  137.3976  153.8494 H   0  0  0  0  0  0  0  0  0  0  0  0
  151.2553  138.8749  153.2658 H   0  0  0  0  0  0  0  0  0  0  0  0
  150.9756  138.0697  156.1990 H   0  0  0  0  0  0  0  0  0  0  0  0
  152.4587  138.1184  155.2780 H   0  0  0  0  0  0  0  0  0  0  0  0
  152.1993  140.1496  156.7204 H   0  0  0  0  0  0  0  0  0  0  0  0
  152.2947  140.5664  155.0269 H   0  0  0  0  0  0  0  0  0  0  0  0
  149.7449  140.3924  156.7044 H   0  0  0  0  0  0  0  0  0  0  0  0
  150.4831  141.8509  156.0918 H   0  0  0  0  0  0  0  0  0  0  0  0
  150.0866  141.1303  153.7683 H   0  0  0  0  0  0  0  0  0  0  0  0
  147.5319  141.0140  155.4344 H   0  0  0  0  0  0  0  0  0  0  0  0
  147.6156  141.3261  153.7023 H   0  0  0  0  0  0  0  0  0  0  0  0
  148.3224  142.4688  154.8378 H   0  0  0  0  0  0  0  0  0  0  0  0
  147.3045  136.2659  152.5787 H   0  0  0  0  0  0  0  0  0  0  0  0
  1  2  1  0  0  0  0
  1 20  1  0  0  0  0
  1 21  1  0  0  0  0
  1 22  1  0  0  0  0
  2  3  1  0  0  0  0
  2  9  1  0  0  0  0
  2 23  1  0  0  0  0
  3  4  1  0  0  0  0
  3 24  1  0  0  0  0
  3 25  1  0  0  0  0
  4  8  1  0  0  0  0
  4  5  1  0  0  0  0
  5  6  2  0  0  0  0
  5 26  1  0  0  0  0
  6  7  1  0  0  0  0
  6 27  1  0  0  0  0
  7  8  2  0  0  0  0
  7 28  1  0  0  0  0
  9 10  1  0  0  0  0
  9 29  1  0  0  0  0
  9 47  1  0  0  0  0
 10 11  1  0  0  0  0
 10 30  1  0  0  0  0
 10 31  1  0  0  0  0
 11 12  1  0  0  0  0
 11 32  1  0  0  0  0
 11 33  1  0  0  0  0
 12 13  1  0  0  0  0
 13 18  1  0  0  0  0
 13 14  1  0  0  0  0
 13 34  1  0  0  0  0
 14 15  1  0  0  0  0
 14 35  1  0  0  0  0
 14 36  1  0  0  0  0
 15 16  1  0  0  0  0
 15 37  1  0  0  0  0
 15 38  1  0  0  0  0
 16 17  1  0  0  0  0
 16 39  1  0  0  0  0
 16 40  1  0  0  0  0
 17 18  1  0  0  0  0
 17 41  1  0  0  0  0
 17 42  1  0  0  0  0
 18 19  1  0  0  0  0
 18 43  1  0  0  0  0
 19 44  1  0  0  0  0
 19 45  1  0  0  0  0
 19 46  1  0  0  0  0
M  CHG  1   9   1
M  END
> <s_m_source_file>
AV-unprocessed.smi

> <i_m_source_file_index>
3348

> <i_lp_mmshare_version>
43012

> <i_f3d_flags>
0

> <s_epik_input>
bjFbY0hdW2NIXVtjSF1uMVtDSDJdW0NAQEhdKFtDSDNdKVtOSF1bQ0gyXVtDSDJdT1tDQEBIXTJbQ0gyXVtDSDJdW0NIMl1bQ0gyXVtDQEhdMltDSDNd

> <s_epik_cmdline>
J2VwaWtfcHl0aG9uJywgJy1waCcsICc3LjAnLCAnLXRuJywgJzgnLCAnLW1hJywgJzIwMCcsICctbWV0YWxfYmluZGluZycsICctaW1hZScsICc8aW5maWxlLm1hZT4nLCAnLW9tYWUnLCAnPG91dGZpbGUubWFlPic=

> <r_lp_tautomer_probability>
1

> <r_epik_Ionization_Penalty>
0.00925088

> <r_epik_Ionization_Penalty_Charging>
0.00924645

> <r_epik_Ionization_Penalty_Neutral>
4.42413e-06

> <r_epik_State_Penalty>
0.0070118

> <r_epik_Charging_Adjusted_Penalty>
0.0162583

> <i_epik_Tot_Q>
1

> <i_epik_Tot_abs_Q>
1

> <r_epik_Metal_State_Penalty>
0.00701222

> <b_epik_Metal_Only>
0

> <s_lp_Force_Field>
OPLS_2005

> <r_lp_Energy>
17.0128

> <b_lp_Chiralities_Consistent>
1

> <s_lp_Variant>
AV-unprocessed.smi:3348-5

> <Gold.Version>
5.8.1

> <Gold.Id.Protein>
6NUR|6NUR_protein|mol2

> <Gold.PLP.Fitness>
46.0235

> <Gold.PLP.PLP>
-36.4805

> <Gold.PLP.part.hbond>
-1.0000

> <Gold.PLP.part.metal>
0.0000

> <Gold.PLP.part.buried>
-3.2884

> <Gold.PLP.part.nonpolar>
-32.1729

> <Gold.PLP.part.repulsive>
0.2949

> <Gold.PLP.ligand.clash>
0.0000

> <Gold.PLP.ligand.torsion>
1.2737

> <Gold.PLP.Chemscore.Hbond>
2.0000

> <Gold.PLP.Chemscore.CHOScore>
1.9986

> <Gold.PLP.Chemscore.Metal>
0.0000

> <Gold.Chemscore.Hbonds>
donor molecule, donor type, donor heavy atom, donor atom, acceptor molecule, acceptor atom, score
      L1  H     9    47       P1  7948  2.00
      L1  C     5    26       P1 10186  1.00
      L1  C     7    28       P1 10747  0.90

> <Gold.PLP.Chemscore.Internal.Correction>
0.0947

> <Gold.Rescore>
     Score         DG    S(hbond)    S(metal)    S(lipo)     H(rot)  DE(clash)    DE(int)     intcor
     14.21     -15.43       1.00        0.00      96.24       1.82       0.07       1.16       ----

> <Gold.Chemscore.Fitness>
14.2074

> <Gold.Chemscore.DG>
-15.4296

> <Gold.Chemscore.ZeroCoef>
-5.4800

> <Gold.Chemscore.Hbond>
0.9997

> <Gold.Chemscore.Metal>
0.0000

> <Gold.Chemscore.Lipo>
96.2416

> <Gold.Chemscore.Internal_Hbond>
0.0000

> <Gold.Chemscore.DEClash>
0.0665

> <Gold.Chemscore.DEInternal>
1.1557

> <Gold.Chemscore.Rot>
1.8163

> <Gold.Chemscore.Internal.Correction>
   9.000000E+99

> <Gold.Chemscore.Hbonds>
donor molecule, donor type, donor heavy atom, donor atom, acceptor molecule, acceptor atom, score
      L1  H     9    47       P1  7948  1.00

> <Gold.Chemscore.Hbond.Weighted>
-3.3391

> <Gold.Chemscore.Metal.Weighted>
-0.0000

> <Gold.Chemscore.Lipo.Weighted>
-11.2603

> <Gold.Chemscore.Internal_Hbond.Weighted>
0.0000

> <Gold.Chemscore.DEClash.Weighted>
0.0665

> <Gold.Chemscore.DEInternal.Weighted>
1.1557

> <Gold.Chemscore.Rot.Weighted>
4.6497

> <Gold.Chemscore.Internal.Correction.Weighted>
   9.000000E+99

> <Gold.Protein.RotatedTorsions>
[ 6907 6896 6895 6894 ] final   34.39 input  -60.11 | X-H torsion
[ 7974 7965 7964 7962 ] final  -49.15 input  175.53 | X-H torsion
[ 8008 7997 7996 7995 ] final  -82.61 input   59.86 | X-H torsion
[ 10167 10162 10161 10158 ] final  141.57 input  -65.29 | X-H torsion
[ 10718 10713 10712 10709 ] final   88.77 input   66.30 | X-H torsion
[ 10763 10752 10751 10750 ] final -126.17 input  -60.55 | X-H torsion
[ 11005 11000 10999 10996 ] final   71.13 input  -57.11 | X-H torsion

> <Gold.Protein.ActiveResidues>
 VAL166  LYS551  ARG553  GLY616  TRP617  ASP618  TYR619  PRO620  LYS621  CYS622 
 ASP623  PHE694  ASN695  SER759  ASP760  ASP761  ALA762  ILE779  LEU786  VAL792 
 PHE793  MET794  SER795  GLU796  ALA797  LYS798  CYS799  TRP800  GLU811  SER814 

> <Gold.Protein.RotatedAtoms>
  152.1017  134.9337  160.0569 H   0  0  0  0  0  0  0  0  0  0  0  0  # atno 6907 bound_to 6896
  152.0549  133.4030  159.4401 H   0  0  0  0  0  0  0  0  0  0  0  0  # atno 6908 bound_to 6896
  150.6839  134.3187  159.4821 H   0  0  0  0  0  0  0  0  0  0  0  0  # atno 6909 bound_to 6896
  145.9436  140.7639  142.9540 H   0  0  0  0  0  0  0  0  0  0  0  0  # atno 7974 bound_to 7965
  154.6104  140.0630  156.9487 H   0  0  0  0  0  0  0  0  0  0  0  0  # atno 8008 bound_to 7997
  155.1982  140.3313  155.4329 H   0  0  0  0  0  0  0  0  0  0  0  0  # atno 8009 bound_to 7997
  156.2373  140.1869  156.7067 H   0  0  0  0  0  0  0  0  0  0  0  0  # atno 8010 bound_to 7997
  139.5017  144.6163  151.6156 H   0  0  0  0  0  0  0  0  0  0  0  0  # atno 10167 bound_to 10162
  157.6951  131.0308  150.3325 H   0  0  0  0  0  0  0  0  0  0  0  0  # atno 10718 bound_to 10713
  154.8743  135.4004  154.3387 H   0  0  0  0  0  0  0  0  0  0  0  0  # atno 10763 bound_to 10752
  153.4190  135.7022  153.6313 H   0  0  0  0  0  0  0  0  0  0  0  0  # atno 10764 bound_to 10752
  153.4983  135.3733  155.2497 H   0  0  0  0  0  0  0  0  0  0  0  0  # atno 10765 bound_to 10752
  139.9560  134.7144  156.0753 H   0  0  0  0  0  0  0  0  0  0  0  0  # atno 11005 bound_to 11000
  144.6783  140.2320  143.7354 LP  0  0  0  0  0  0  0  0  0  0  0  0  # atno 17320 bound_to 7965
  145.8266  139.2067  143.1907 LP  0  0  0  0  0  0  0  0  0  0  0  0  # atno 17321 bound_to 7965
  140.5852  143.9876  150.6291 LP  0  0  0  0  0  0  0  0  0  0  0  0  # atno 17342 bound_to 10162
  140.3038  143.3242  152.0945 LP  0  0  0  0  0  0  0  0  0  0  0  0  # atno 17343 bound_to 10162
  156.3797  130.3878  149.7111 LP  0  0  0  0  0  0  0  0  0  0  0  0  # atno 17370 bound_to 10713
  156.4497  130.7901  151.2922 LP  0  0  0  0  0  0  0  0  0  0  0  0  # atno 17371 bound_to 10713
  141.1231  133.6607  156.3266 LP  0  0  0  0  0  0  0  0  0  0  0  0  # atno 17394 bound_to 11000
  140.5609  134.5935  157.5433 LP  0  0  0  0  0  0  0  0  0  0  0  0  # atno 17395 bound_to 11000

$$$$
