AV-unprocessed.smi:34|AV-procd|sdf|232|dock10
  -GOLD-   2262015563D 1   1.00000     0.00000
 Structure written by MMmdl.
 54 58  0  0  0  0  0  0  0  0  2 V2000
  152.5967  133.1538  158.5453 O   0  0  0  0  0  0  0  0  0  0  0  0
  151.6317  132.5157  158.1193 C   0  0  0  0  0  0  0  0  0  0  0  0
  150.3144  132.8219  158.2350 N   0  5  0  0  0  0  0  0  0  0  0  0
  149.7213  133.5918  157.3097 C   0  0  0  0  0  0  0  0  0  0  0  0
  149.2881  133.0498  156.1430 N   0  0  0  0  0  0  0  0  0  0  0  0
  148.7027  133.8184  155.2175 C   0  0  0  0  0  0  0  0  0  0  0  0
  148.4587  135.1314  155.2501 N   0  0  0  0  0  0  0  0  0  0  0  0
  148.8962  135.6928  156.4142 C   0  0  0  0  0  0  0  0  0  0  0  0
  149.5343  134.9917  157.4791 C   0  0  0  0  0  0  0  0  0  0  0  0
  149.8549  135.8559  158.5157 N   0  0  0  0  0  0  0  0  0  0  0  0
  149.4038  137.0166  158.0468 C   0  0  0  0  0  0  0  0  0  0  0  0
  148.8264  137.0151  156.8290 N   0  0  0  0  0  0  0  0  0  0  0  0
  148.2473  138.1955  156.1117 C   0  0  1  0  0  0  0  0  0  0  0  0
  148.6785  139.3793  156.7180 O   0  0  0  0  0  0  0  0  0  0  0  0
  149.0451  140.3569  155.7392 C   0  0  1  0  0  0  0  0  0  0  0  0
  150.5638  140.5845  155.8071 C   0  0  0  0  0  0  0  0  0  0  0  0
  150.8395  141.5764  156.7829 O   0  0  0  0  0  0  0  0  0  0  0  0
  151.7830  141.3589  157.7196 C   0  0  0  0  0  0  0  0  0  0  0  0
  152.4472  140.3229  157.7933 O   0  0  0  0  0  0  0  0  0  0  0  0
  151.9379  142.5038  158.6626 C   0  0  0  0  0  0  0  0  0  0  0  0
  151.6287  143.8117  158.2214 C   0  0  0  0  0  0  0  0  0  0  0  0
  151.7698  144.9130  159.0881 C   0  0  0  0  0  0  0  0  0  0  0  0
  152.2236  144.7199  160.4059 C   0  0  0  0  0  0  0  0  0  0  0  0
  152.5351  143.4239  160.8566 C   0  0  0  0  0  0  0  0  0  0  0  0
  152.3936  142.3211  159.9917 C   0  0  0  0  0  0  0  0  0  0  0  0
  148.5685  139.7598  154.4107 C   0  0  1  0  0  0  0  0  0  0  0  0
  149.2295  140.1810  153.3308 F   0  0  0  0  0  0  0  0  0  0  0  0
  148.6455  138.2608  154.6316 C   0  0  1  0  0  0  0  0  0  0  0  0
  149.9351  137.7354  154.3694 O   0  0  0  0  0  0  0  0  0  0  0  0
  151.8791  131.1985  157.4329 C   0  0  0  0  0  0  0  0  0  0  0  0
  153.1907  130.6735  157.3767 C   0  0  0  0  0  0  0  0  0  0  0  0
  153.4479  129.4558  156.7171 C   0  0  0  0  0  0  0  0  0  0  0  0
  152.3974  128.7540  156.0971 C   0  0  0  0  0  0  0  0  0  0  0  0
  151.0897  129.2731  156.1341 C   0  0  0  0  0  0  0  0  0  0  0  0
  150.8316  130.4905  156.7938 C   0  0  0  0  0  0  0  0  0  0  0  0
  148.3841  133.3086  154.3203 H   0  0  0  0  0  0  0  0  0  0  0  0
  149.4955  137.9239  158.6257 H   0  0  0  0  0  0  0  0  0  0  0  0
  147.1688  138.1051  156.2492 H   0  0  0  0  0  0  0  0  0  0  0  0
  148.5274  141.2962  155.9370 H   0  0  0  0  0  0  0  0  0  0  0  0
  151.0832  139.6565  156.0449 H   0  0  0  0  0  0  0  0  0  0  0  0
  150.9384  140.9280  154.8422 H   0  0  0  0  0  0  0  0  0  0  0  0
  151.2808  143.9842  157.2132 H   0  0  0  0  0  0  0  0  0  0  0  0
  151.5303  145.9068  158.7403 H   0  0  0  0  0  0  0  0  0  0  0  0
  152.3336  145.5644  161.0698 H   0  0  0  0  0  0  0  0  0  0  0  0
  152.8844  143.2744  161.8677 H   0  0  0  0  0  0  0  0  0  0  0  0
  152.6444  141.3402  160.3682 H   0  0  0  0  0  0  0  0  0  0  0  0
  147.5253  140.0385  154.2559 H   0  0  0  0  0  0  0  0  0  0  0  0
  147.9183  137.7168  154.0279 H   0  0  0  0  0  0  0  0  0  0  0  0
  149.8767  137.1448  153.6338 H   0  0  0  0  0  0  0  0  0  0  0  0
  154.0092  131.2010  157.8449 H   0  0  0  0  0  0  0  0  0  0  0  0
  154.4526  129.0614  156.6854 H   0  0  0  0  0  0  0  0  0  0  0  0
  152.5946  127.8209  155.5907 H   0  0  0  0  0  0  0  0  0  0  0  0
  150.2833  128.7396  155.6532 H   0  0  0  0  0  0  0  0  0  0  0  0
  149.8223  130.8760  156.8009 H   0  0  0  0  0  0  0  0  0  0  0  0
  1  2  2  0  0  0  0
  2  3  1  0  0  0  0
  2 30  1  0  0  0  0
  3  4  1  0  0  0  0
  4  9  1  0  0  0  0
  4  5  2  0  0  0  0
  5  6  1  0  0  0  0
  6  7  2  0  0  0  0
  6 36  1  0  0  0  0
  7  8  1  0  0  0  0
  8 12  1  0  0  0  0
  8  9  2  0  0  0  0
  9 10  1  0  0  0  0
 10 11  2  0  0  0  0
 11 12  1  0  0  0  0
 11 37  1  0  0  0  0
 12 13  1  0  0  0  0
 13 28  1  0  0  0  0
 13 14  1  0  0  0  0
 13 38  1  0  0  0  0
 14 15  1  0  0  0  0
 15 16  1  0  0  0  0
 15 26  1  0  0  0  0
 15 39  1  0  0  0  0
 16 17  1  0  0  0  0
 16 40  1  0  0  0  0
 16 41  1  0  0  0  0
 17 18  1  0  0  0  0
 18 19  2  0  0  0  0
 18 20  1  0  0  0  0
 20 25  1  0  0  0  0
 20 21  2  0  0  0  0
 21 22  1  0  0  0  0
 21 42  1  0  0  0  0
 22 23  2  0  0  0  0
 22 43  1  0  0  0  0
 23 24  1  0  0  0  0
 23 44  1  0  0  0  0
 24 25  2  0  0  0  0
 24 45  1  0  0  0  0
 25 46  1  0  0  0  0
 26 27  1  0  0  0  0
 26 28  1  0  0  0  0
 26 47  1  0  0  0  0
 28 29  1  0  0  0  0
 28 48  1  0  0  0  0
 29 49  1  0  0  0  0
 30 35  1  0  0  0  0
 30 31  2  0  0  0  0
 31 32  1  0  0  0  0
 31 50  1  0  0  0  0
 32 33  2  0  0  0  0
 32 51  1  0  0  0  0
 33 34  1  0  0  0  0
 33 52  1  0  0  0  0
 34 35  2  0  0  0  0
 34 53  1  0  0  0  0
 35 54  1  0  0  0  0
M  CHG  1   3  -1
M  END
> <s_m_source_file>
AV-unprocessed.smi

> <i_m_source_file_index>
34

> <i_lp_mmshare_version>
43012

> <i_f3d_flags>
0

> <s_epik_input>
W2NIXTFbY0hdW2NIXVtjSF1bY0hdYzFDKD1PKVtOSF1jKG5bY0hdbjIpYyhjMjMpbltjSF1uM1tDQEBIXTRPW0NASF0oW0NAQEhdKEYpW0NASF00W09IXSlbQ0gyXU9DKD1PKWM1W2NIXVtjSF1bY0hdW2NIXVtjSF01

> <s_epik_cmdline>
J2VwaWtfcHl0aG9uJywgJy1waCcsICc3LjAnLCAnLXRuJywgJzgnLCAnLW1hJywgJzIwMCcsICctbWV0YWxfYmluZGluZycsICctaW1hZScsICc8aW5maWxlLm1hZT4nLCAnLW9tYWUnLCAnPG91dGZpbGUubWFlPic=

> <r_lp_tautomer_probability>
1

> <r_epik_Ionization_Penalty>
4.33227

> <r_epik_Ionization_Penalty_Charging>
3.41027

> <r_epik_Ionization_Penalty_Neutral>
0.922001

> <r_epik_State_Penalty>
3.41358

> <r_epik_Charging_Adjusted_Penalty>
6.82385

> <i_epik_Tot_Q>
-1

> <i_epik_Tot_abs_Q>
1

> <r_epik_Metal_State_Penalty>
0.496292

> <b_epik_Metal_Only>
1

> <s_epik_Chemistry_Notes>
This compound has an ester and may undergo hydrolysis at high or low pH. This compound contains an acetal/aminal-like group ( X-CH(R)-Y where X, Y are N, S, or O) that may be acid/base labile, releasing an aldehyde.

> <s_lp_Force_Field>
OPLS_2005

> <r_lp_Energy>
54.2336

> <b_lp_Chiralities_Consistent>
1

> <s_lp_Variant>
AV-unprocessed.smi:34-18

> <Gold.Version>
5.8.1

> <Gold.Id.Protein>
6NUR|6NUR_protein|mol2

> <Gold.PLP.Fitness>
60.1763

> <Gold.PLP.PLP>
-52.2443

> <Gold.PLP.part.hbond>
-4.6047

> <Gold.PLP.part.metal>
0.0000

> <Gold.PLP.part.buried>
-2.0974

> <Gold.PLP.part.nonpolar>
-46.5402

> <Gold.PLP.part.repulsive>
0.5166

> <Gold.PLP.ligand.clash>
0.0000

> <Gold.PLP.ligand.torsion>
2.8391

> <Gold.PLP.Chemscore.Hbond>
4.3600

> <Gold.PLP.Chemscore.CHOScore>
0.0000

> <Gold.PLP.Chemscore.Metal>
0.0000

> <Gold.Chemscore.Hbonds>
donor molecule, donor type, donor heavy atom, donor atom, acceptor molecule, acceptor atom, score
      L1  H    29    49       P1  7948  0.68
      P1  H  6896  6908       L1    10  0.74
      P1  H  7997  8010       L1    19  0.47

> <Gold.PLP.Chemscore.Internal.Correction>
0.5302

> <Gold.Rescore>
     Score         DG    S(hbond)    S(metal)    S(lipo)     H(rot)  DE(clash)    DE(int)     intcor
     18.08     -21.40       2.79        0.00     115.38       2.69       0.90       2.43       ----

> <Gold.Chemscore.Fitness>
18.0798

> <Gold.Chemscore.DG>
-21.4042

> <Gold.Chemscore.ZeroCoef>
-5.4800

> <Gold.Chemscore.Hbond>
2.7911

> <Gold.Chemscore.Metal>
0.0000

> <Gold.Chemscore.Lipo>
115.3813

> <Gold.Chemscore.Internal_Hbond>
0.0000

> <Gold.Chemscore.DEClash>
0.8969

> <Gold.Chemscore.DEInternal>
2.4275

> <Gold.Chemscore.Rot>
2.6944

> <Gold.Chemscore.Internal.Correction>
   9.000000E+99

> <Gold.Chemscore.Hbonds>
donor molecule, donor type, donor heavy atom, donor atom, acceptor molecule, acceptor atom, score
      L1  H    29    49       P1  7948  0.36
      P1  H  6896  6908       L1    10  0.60
      P1  H  6896  6909       L1     1  0.01
      P1  H  7997  8010       L1    19  0.45

> <Gold.Chemscore.Hbond.Weighted>
-9.3222

> <Gold.Chemscore.Metal.Weighted>
-0.0000

> <Gold.Chemscore.Lipo.Weighted>
-13.4996

> <Gold.Chemscore.Internal_Hbond.Weighted>
0.0000

> <Gold.Chemscore.DEClash.Weighted>
0.8969

> <Gold.Chemscore.DEInternal.Weighted>
2.4275

> <Gold.Chemscore.Rot.Weighted>
6.8975

> <Gold.Chemscore.Internal.Correction.Weighted>
   9.000000E+99

> <Gold.Protein.RotatedTorsions>
[ 6907 6896 6895 6894 ] final -151.13 input  -60.11 | X-H torsion
[ 7974 7965 7964 7962 ] final -179.07 input  175.53 | X-H torsion
[ 8008 7997 7996 7995 ] final   52.70 input   59.86 | X-H torsion
[ 10167 10162 10161 10158 ] final  -79.06 input  -65.29 | X-H torsion
[ 10718 10713 10712 10709 ] final -139.71 input   66.30 | X-H torsion
[ 10763 10752 10751 10750 ] final -142.87 input  -60.55 | X-H torsion
[ 11005 11000 10999 10996 ] final  160.81 input  -57.11 | X-H torsion

> <Gold.Protein.ActiveResidues>
 VAL166  LYS551  ARG553  GLY616  TRP617  ASP618  TYR619  PRO620  LYS621  CYS622 
 ASP623  PHE694  ASN695  SER759  ASP760  ASP761  ALA762  ILE779  LEU786  VAL792 
 PHE793  MET794  SER795  GLU796  ALA797  LYS798  CYS799  TRP800  GLU811  SER814 

> <Gold.Protein.RotatedAtoms>
  151.2086  133.4569  159.2597 H   0  0  0  0  0  0  0  0  0  0  0  0  # atno 6907 bound_to 6896
  151.0999  134.9966  159.8454 H   0  0  0  0  0  0  0  0  0  0  0  0  # atno 6908 bound_to 6896
  152.5442  134.2013  159.8766 H   0  0  0  0  0  0  0  0  0  0  0  0  # atno 6909 bound_to 6896
  144.7134  140.0772  143.6427 H   0  0  0  0  0  0  0  0  0  0  0  0  # atno 7974 bound_to 7965
  155.4560  140.3460  155.4307 H   0  0  0  0  0  0  0  0  0  0  0  0  # atno 8008 bound_to 7997
  156.1190  140.1482  156.9261 H   0  0  0  0  0  0  0  0  0  0  0  0  # atno 8009 bound_to 7997
  154.4810  140.0870  156.7356 H   0  0  0  0  0  0  0  0  0  0  0  0  # atno 8010 bound_to 7997
  140.4627  143.2449  151.8325 H   0  0  0  0  0  0  0  0  0  0  0  0  # atno 10167 bound_to 10162
  156.3138  130.7497  151.1579 H   0  0  0  0  0  0  0  0  0  0  0  0  # atno 10718 bound_to 10713
  154.8492  135.3483  154.6097 H   0  0  0  0  0  0  0  0  0  0  0  0  # atno 10763 bound_to 10752
  153.6706  135.6985  153.5153 H   0  0  0  0  0  0  0  0  0  0  0  0  # atno 10764 bound_to 10752
  153.2745  135.4282  155.0977 H   0  0  0  0  0  0  0  0  0  0  0  0  # atno 10765 bound_to 10752
  140.2096  134.8277  157.3106 H   0  0  0  0  0  0  0  0  0  0  0  0  # atno 11005 bound_to 11000
  145.9733  139.2886  143.1086 LP  0  0  0  0  0  0  0  0  0  0  0  0  # atno 17320 bound_to 7965
  145.9093  140.9191  143.0462 LP  0  0  0  0  0  0  0  0  0  0  0  0  # atno 17321 bound_to 7965
  139.4808  144.4989  151.9087 LP  0  0  0  0  0  0  0  0  0  0  0  0  # atno 17342 bound_to 10162
  140.4074  144.2414  150.5890 LP  0  0  0  0  0  0  0  0  0  0  0  0  # atno 17343 bound_to 10162
  157.7397  131.0526  150.5215 LP  0  0  0  0  0  0  0  0  0  0  0  0  # atno 17370 bound_to 10713
  156.5358  130.4196  149.6179 LP  0  0  0  0  0  0  0  0  0  0  0  0  # atno 17371 bound_to 10713
  140.1965  134.4307  155.7686 LP  0  0  0  0  0  0  0  0  0  0  0  0  # atno 17394 bound_to 11000
  141.2226  133.7052  156.8114 LP  0  0  0  0  0  0  0  0  0  0  0  0  # atno 17395 bound_to 11000

$$$$
