AV-unprocessed.smi:1554|AV-procd|sdf|6241|dock8
  -GOLD-   22720 6423D 1   1.00000     0.00000
 Structure written by MMmdl.
 47 49  0  0  0  0  0  0  0  0  1 V2000
  153.7091  142.9216  163.6553 C   0  0  0  0  0  0  0  0  0  0  0  0
  153.1425  143.0156  162.2495 C   0  0  0  0  0  0  0  0  0  0  0  0
  152.3278  144.1191  161.9093 C   0  0  0  0  0  0  0  0  0  0  0  0
  151.7846  144.2454  160.6120 C   0  0  0  0  0  0  0  0  0  0  0  0
  150.9773  145.2298  160.0677 N   0  0  0  0  0  0  0  0  0  0  0  0
  150.8117  144.7842  158.8258 C   0  0  0  0  0  0  0  0  0  0  0  0
  151.4173  143.6261  158.5000 N   0  0  0  0  0  0  0  0  0  0  0  0
  151.3765  142.9530  157.2136 C   0  0  0  0  0  0  0  0  0  0  0  0
  150.3523  141.8027  157.1809 C   0  0  1  0  0  0  0  0  0  0  0  0
  149.1793  142.2460  156.5263 O   0  0  0  0  0  0  0  0  0  0  0  0
  150.9059  140.5777  156.4244 C   0  0  0  0  0  0  0  0  0  0  0  0
  150.7875  139.2941  157.1193 N   0  0  0  0  0  0  0  0  0  0  0  0
  150.9790  138.1838  156.1927 C   0  0  0  0  0  0  0  0  0  0  0  0
  150.8574  136.8207  156.8939 C   0  0  0  0  0  0  0  0  0  0  0  0
  151.7959  136.7525  157.9621 O   0  0  0  0  0  0  0  0  0  0  0  0
  151.6165  137.7885  158.9237 C   0  0  1  0  0  0  0  0  0  0  0  0
  152.6636  137.6084  160.0280 C   0  0  0  0  0  0  0  0  0  0  0  0
  151.7365  139.1566  158.2232 C   0  0  0  0  0  0  0  0  0  0  0  0
  152.0788  143.2284  159.6572 C   0  0  0  0  0  0  0  0  0  0  0  0
  152.8883  142.1261  159.9836 C   0  0  0  0  0  0  0  0  0  0  0  0
  153.4242  142.0161  161.2839 C   0  0  0  0  0  0  0  0  0  0  0  0
  154.2999  140.8237  161.6257 C   0  0  0  0  0  0  0  0  0  0  0  0
  153.3846  143.7602  164.2722 H   0  0  0  0  0  0  0  0  0  0  0  0
  154.7990  142.9278  163.6286 H   0  0  0  0  0  0  0  0  0  0  0  0
  153.3792  142.0028  164.1408 H   0  0  0  0  0  0  0  0  0  0  0  0
  152.1138  144.8812  162.6440 H   0  0  0  0  0  0  0  0  0  0  0  0
  150.2163  145.3315  158.1097 H   0  0  0  0  0  0  0  0  0  0  0  0
  151.1539  143.6886  156.4394 H   0  0  0  0  0  0  0  0  0  0  0  0
  152.3756  142.5713  156.9997 H   0  0  0  0  0  0  0  0  0  0  0  0
  150.0976  141.5442  158.2077 H   0  0  0  0  0  0  0  0  0  0  0  0
  149.3224  143.1283  156.2194 H   0  0  0  0  0  0  0  0  0  0  0  0
  150.3923  140.5166  155.4636 H   0  0  0  0  0  0  0  0  0  0  0  0
  151.9558  140.7515  156.1839 H   0  0  0  0  0  0  0  0  0  0  0  0
  150.2424  138.2399  155.3903 H   0  0  0  0  0  0  0  0  0  0  0  0
  151.9604  138.2594  155.7216 H   0  0  0  0  0  0  0  0  0  0  0  0
  149.8468  136.6705  157.2767 H   0  0  0  0  0  0  0  0  0  0  0  0
  151.0578  136.0126  156.1905 H   0  0  0  0  0  0  0  0  0  0  0  0
  150.6229  137.6914  159.3647 H   0  0  0  0  0  0  0  0  0  0  0  0
  152.5570  138.3732  160.7977 H   0  0  0  0  0  0  0  0  0  0  0  0
  153.6754  137.6747  159.6271 H   0  0  0  0  0  0  0  0  0  0  0  0
  152.5585  136.6360  160.5093 H   0  0  0  0  0  0  0  0  0  0  0  0
  152.7546  139.2870  157.8522 H   0  0  0  0  0  0  0  0  0  0  0  0
  151.5724  139.9366  158.9650 H   0  0  0  0  0  0  0  0  0  0  0  0
  153.0973  141.3734  159.2378 H   0  0  0  0  0  0  0  0  0  0  0  0
  154.4017  140.1483  160.7758 H   0  0  0  0  0  0  0  0  0  0  0  0
  153.8702  140.2575  162.4526 H   0  0  0  0  0  0  0  0  0  0  0  0
  155.2985  141.1539  161.9126 H   0  0  0  0  0  0  0  0  0  0  0  0
  1  2  1  0  0  0  0
  1 23  1  0  0  0  0
  1 24  1  0  0  0  0
  1 25  1  0  0  0  0
  2 21  1  0  0  0  0
  2  3  2  0  0  0  0
  3  4  1  0  0  0  0
  3 26  1  0  0  0  0
  4 19  2  0  0  0  0
  4  5  1  0  0  0  0
  5  6  2  0  0  0  0
  6  7  1  0  0  0  0
  6 27  1  0  0  0  0
  7  8  1  0  0  0  0
  7 19  1  0  0  0  0
  8  9  1  0  0  0  0
  8 28  1  0  0  0  0
  8 29  1  0  0  0  0
  9 10  1  0  0  0  0
  9 11  1  0  0  0  0
  9 30  1  0  0  0  0
 10 31  1  0  0  0  0
 11 12  1  0  0  0  0
 11 32  1  0  0  0  0
 11 33  1  0  0  0  0
 12 18  1  0  0  0  0
 12 13  1  0  0  0  0
 13 14  1  0  0  0  0
 13 34  1  0  0  0  0
 13 35  1  0  0  0  0
 14 15  1  0  0  0  0
 14 36  1  0  0  0  0
 14 37  1  0  0  0  0
 15 16  1  0  0  0  0
 16 17  1  0  0  0  0
 16 18  1  0  0  0  0
 16 38  1  0  0  0  0
 17 39  1  0  0  0  0
 17 40  1  0  0  0  0
 17 41  1  0  0  0  0
 18 42  1  0  0  0  0
 18 43  1  0  0  0  0
 19 20  1  0  0  0  0
 20 21  2  0  0  0  0
 20 44  1  0  0  0  0
 21 22  1  0  0  0  0
 22 45  1  0  0  0  0
 22 46  1  0  0  0  0
 22 47  1  0  0  0  0
M  END
> <s_m_source_file>
AV-unprocessed.smi

> <i_m_source_file_index>
1554

> <i_lp_mmshare_version>
43012

> <i_f3d_flags>
0

> <s_epik_input>
W0NIM11jKFtjSF0xKWMoW0NIM10pW2NIXWMoYzEyKW4oW2NIXW4yKVtDSDJdW0NASF0oW09IXSlbQ0gyXU4zW0NIMl1bQ0gyXU9bQ0BASF0oW0NIM10pW0NIMl0z

> <s_epik_cmdline>
J2VwaWtfcHl0aG9uJywgJy1waCcsICc3LjAnLCAnLXRuJywgJzgnLCAnLW1hJywgJzIwMCcsICctbWV0YWxfYmluZGluZycsICctaW1hZScsICc8aW5maWxlLm1hZT4nLCAnLW9tYWUnLCAnPG91dGZpbGUubWFlPic=

> <r_epik_Ionization_Penalty>
0.345108

> <r_epik_Ionization_Penalty_Charging>
0

> <r_epik_Ionization_Penalty_Neutral>
0.345108

> <r_epik_State_Penalty>
0.314544

> <r_epik_Charging_Adjusted_Penalty>
0.314544

> <i_epik_Tot_Q>
0

> <i_epik_Tot_abs_Q>
0

> <r_epik_Metal_State_Penalty>
0.239719

> <b_epik_Metal_Only>
0

> <s_lp_Force_Field>
OPLS_2005

> <r_lp_Energy>
29.8053

> <b_lp_Chiralities_Consistent>
1

> <s_lp_Variant>
AV-unprocessed.smi:1554-2

> <Gold.Version>
5.8.1

> <Gold.Id.Protein>
6NUR|6NUR_protein|mol2

> <Gold.PLP.Fitness>
52.0489

> <Gold.PLP.PLP>
-49.5804

> <Gold.PLP.part.hbond>
-1.2140

> <Gold.PLP.part.metal>
0.0000

> <Gold.PLP.part.buried>
-7.1084

> <Gold.PLP.part.nonpolar>
-41.5334

> <Gold.PLP.part.repulsive>
0.1839

> <Gold.PLP.ligand.clash>
0.0000

> <Gold.PLP.ligand.torsion>
1.6791

> <Gold.PLP.Chemscore.Hbond>
1.0000

> <Gold.PLP.Chemscore.CHOScore>
0.9343

> <Gold.PLP.Chemscore.Metal>
0.0000

> <Gold.Chemscore.Hbonds>
donor molecule, donor type, donor heavy atom, donor atom, acceptor molecule, acceptor atom, score
      L1  H    10    31       P1  8028  1.00
      L1  C     6    27       P1  8028  0.07
      L1  C     6    27       P1  8029  0.86

> <Gold.PLP.Chemscore.Internal.Correction>
0.0239

> <Gold.Rescore>
     Score         DG    S(hbond)    S(metal)    S(lipo)     H(rot)  DE(clash)    DE(int)     intcor
     17.82     -19.38       0.99        0.00     133.90       1.98       0.02       1.54       ----

> <Gold.Chemscore.Fitness>
17.8246

> <Gold.Chemscore.DG>
-19.3838

> <Gold.Chemscore.ZeroCoef>
-5.4800

> <Gold.Chemscore.Hbond>
0.9935

> <Gold.Chemscore.Metal>
0.0000

> <Gold.Chemscore.Lipo>
133.9021

> <Gold.Chemscore.Internal_Hbond>
0.0000

> <Gold.Chemscore.DEClash>
0.0203

> <Gold.Chemscore.DEInternal>
1.5388

> <Gold.Chemscore.Rot>
1.9848

> <Gold.Chemscore.Internal.Correction>
   9.000000E+99

> <Gold.Chemscore.Hbonds>
donor molecule, donor type, donor heavy atom, donor atom, acceptor molecule, acceptor atom, score
      L1  H    10    31       P1  8028  0.99

> <Gold.Chemscore.Hbond.Weighted>
-3.3183

> <Gold.Chemscore.Metal.Weighted>
-0.0000

> <Gold.Chemscore.Lipo.Weighted>
-15.6665

> <Gold.Chemscore.Internal_Hbond.Weighted>
0.0000

> <Gold.Chemscore.DEClash.Weighted>
0.0203

> <Gold.Chemscore.DEInternal.Weighted>
1.5388

> <Gold.Chemscore.Rot.Weighted>
5.0810

> <Gold.Chemscore.Internal.Correction.Weighted>
   9.000000E+99

> <Gold.Protein.RotatedTorsions>
[ 6907 6896 6895 6894 ] final  161.06 input  -60.11 | X-H torsion
[ 7974 7965 7964 7962 ] final  -32.94 input  175.53 | X-H torsion
[ 8008 7997 7996 7995 ] final    5.79 input   59.86 | X-H torsion
[ 10167 10162 10161 10158 ] final  -31.12 input  -65.29 | X-H torsion
[ 10718 10713 10712 10709 ] final  107.87 input   66.30 | X-H torsion
[ 10763 10752 10751 10750 ] final -158.72 input  -60.55 | X-H torsion
[ 11005 11000 10999 10996 ] final -131.08 input  -57.11 | X-H torsion

> <Gold.Protein.ActiveResidues>
 VAL166  LYS551  ARG553  GLY616  TRP617  ASP618  TYR619  PRO620  LYS621  CYS622 
 ASP623  PHE694  ASN695  SER759  ASP760  ASP761  ALA762  ILE779  LEU786  VAL792 
 PHE793  MET794  SER795  GLU796  ALA797  LYS798  CYS799  TRP800  GLU811  SER814 

> <Gold.Protein.RotatedAtoms>
  151.9613  133.3696  159.4036 H   0  0  0  0  0  0  0  0  0  0  0  0  # atno 6907 bound_to 6896
  150.6964  134.4237  159.5226 H   0  0  0  0  0  0  0  0  0  0  0  0  # atno 6908 bound_to 6896
  152.1927  134.8658  160.0567 H   0  0  0  0  0  0  0  0  0  0  0  0  # atno 6909 bound_to 6896
  146.0950  140.5855  142.8847 H   0  0  0  0  0  0  0  0  0  0  0  0  # atno 7974 bound_to 7965
  154.7328  140.2734  155.6441 H   0  0  0  0  0  0  0  0  0  0  0  0  # atno 8008 bound_to 7997
  156.2854  140.2712  156.1959 H   0  0  0  0  0  0  0  0  0  0  0  0  # atno 8009 bound_to 7997
  155.0359  140.0371  157.2481 H   0  0  0  0  0  0  0  0  0  0  0  0  # atno 8010 bound_to 7997
  140.7240  143.3796  151.1626 H   0  0  0  0  0  0  0  0  0  0  0  0  # atno 10167 bound_to 10162
  157.6610  131.0882  150.6221 H   0  0  0  0  0  0  0  0  0  0  0  0  # atno 10718 bound_to 10713
  154.7534  135.3098  154.8516 H   0  0  0  0  0  0  0  0  0  0  0  0  # atno 10763 bound_to 10752
  153.9296  135.6786  153.4750 H   0  0  0  0  0  0  0  0  0  0  0  0  # atno 10764 bound_to 10752
  153.1130  135.4857  154.8997 H   0  0  0  0  0  0  0  0  0  0  0  0  # atno 10765 bound_to 10752
  140.9290  134.1344  157.4251 H   0  0  0  0  0  0  0  0  0  0  0  0  # atno 11005 bound_to 11000
  144.7388  140.4885  143.6884 LP  0  0  0  0  0  0  0  0  0  0  0  0  # atno 17320 bound_to 7965
  145.5965  139.1500  143.3153 LP  0  0  0  0  0  0  0  0  0  0  0  0  # atno 17321 bound_to 7965
  139.7382  143.8966  152.3041 LP  0  0  0  0  0  0  0  0  0  0  0  0  # atno 17342 bound_to 10162
  139.8778  144.7034  150.8913 LP  0  0  0  0  0  0  0  0  0  0  0  0  # atno 17343 bound_to 10162
  156.6524  130.4489  149.5715 LP  0  0  0  0  0  0  0  0  0  0  0  0  # atno 17370 bound_to 10713
  156.2128  130.6689  151.1287 LP  0  0  0  0  0  0  0  0  0  0  0  0  # atno 17371 bound_to 10713
  139.8792  134.9998  156.5977 LP  0  0  0  0  0  0  0  0  0  0  0  0  # atno 17394 bound_to 11000
  140.7888  133.8600  155.8628 LP  0  0  0  0  0  0  0  0  0  0  0  0  # atno 17395 bound_to 11000

$$$$
