AV-unprocessed.smi:2079|AV-procd|sdf|8478|dock1
  -GOLD-   2272011183D 1   1.00000     0.00000
 Structure written by MMmdl.
 42 43  0  0  0  0  0  0  0  0  2 V2000
  151.8534  139.6786  158.3423 C   0  0  0  0  0  0  0  0  0  0  0  0
  151.4514  139.6320  156.9081 C   0  0  0  0  0  0  0  0  0  0  0  0
  150.2770  139.3248  156.2803 C   0  0  0  0  0  0  0  0  0  0  0  0
  150.6008  139.4751  154.9056 C   0  0  0  0  0  0  0  0  0  0  0  0
  149.6324  139.2347  153.8976 N   0  0  0  0  0  0  0  0  0  0  0  0
  148.3837  138.7658  154.0612 C   0  0  0  0  0  0  0  0  0  0  0  0
  147.8824  138.4404  155.1379 O   0  0  0  0  0  0  0  0  0  0  0  0
  147.7299  138.6882  152.8926 N   0  0  0  0  0  0  0  0  0  0  0  0
  146.3479  138.2454  152.7448 C   0  0  0  0  0  0  0  0  0  0  0  0
  146.0617  136.9860  153.5904 C   0  0  0  0  0  0  0  0  0  0  0  0
  146.7385  135.7579  153.0802 N   0  3  1  0  0  0  0  0  0  0  0  0
  147.1023  134.8204  154.1829 C   0  0  0  0  0  0  0  0  0  0  0  0
  147.9101  133.6170  153.6772 C   0  0  0  0  0  0  0  0  0  0  0  0
  147.1359  132.8662  152.5949 C   0  0  0  0  0  0  0  0  0  0  0  0
  146.7759  133.8371  151.4685 C   0  0  0  0  0  0  0  0  0  0  0  0
  145.9831  135.0568  151.9885 C   0  0  2  0  0  0  0  0  0  0  0  0
  145.6462  135.9695  150.7904 C   0  0  0  0  0  0  0  0  0  0  0  0
  151.8576  139.8449  154.7120 N   0  0  0  0  0  0  0  0  0  0  0  0
  152.4093  139.9467  155.9944 O   0  0  0  0  0  0  0  0  0  0  0  0
  150.9820  139.6136  158.9939 H   0  0  0  0  0  0  0  0  0  0  0  0
  152.3762  140.6080  158.5685 H   0  0  0  0  0  0  0  0  0  0  0  0
  152.5184  138.8489  158.5825 H   0  0  0  0  0  0  0  0  0  0  0  0
  149.3407  139.0361  156.7348 H   0  0  0  0  0  0  0  0  0  0  0  0
  149.9163  139.4587  152.9555 H   0  0  0  0  0  0  0  0  0  0  0  0
  148.2130  138.9740  152.0532 H   0  0  0  0  0  0  0  0  0  0  0  0
  145.6669  139.0542  153.0160 H   0  0  0  0  0  0  0  0  0  0  0  0
  146.1999  138.0515  151.6835 H   0  0  0  0  0  0  0  0  0  0  0  0
  146.3425  137.1538  154.6312 H   0  0  0  0  0  0  0  0  0  0  0  0
  144.9840  136.8452  153.5812 H   0  0  0  0  0  0  0  0  0  0  0  0
  147.7067  135.3221  154.9362 H   0  0  0  0  0  0  0  0  0  0  0  0
  146.1950  134.4781  154.6834 H   0  0  0  0  0  0  0  0  0  0  0  0
  148.8683  133.9554  153.2807 H   0  0  0  0  0  0  0  0  0  0  0  0
  148.1368  132.9453  154.5056 H   0  0  0  0  0  0  0  0  0  0  0  0
  147.7320  132.0396  152.2074 H   0  0  0  0  0  0  0  0  0  0  0  0
  146.2288  132.4311  153.0169 H   0  0  0  0  0  0  0  0  0  0  0  0
  147.6886  134.1739  150.9744 H   0  0  0  0  0  0  0  0  0  0  0  0
  146.1959  133.3071  150.7119 H   0  0  0  0  0  0  0  0  0  0  0  0
  145.0435  134.6960  152.4107 H   0  0  0  0  0  0  0  0  0  0  0  0
  145.2537  135.3871  149.9563 H   0  0  0  0  0  0  0  0  0  0  0  0
  146.5289  136.5003  150.4320 H   0  0  0  0  0  0  0  0  0  0  0  0
  144.8765  136.7029  151.0284 H   0  0  0  0  0  0  0  0  0  0  0  0
  147.6060  136.0667  152.6649 H   0  0  0  0  0  0  0  0  0  0  0  0
  1  2  1  0  0  0  0
  1 20  1  0  0  0  0
  1 21  1  0  0  0  0
  1 22  1  0  0  0  0
  2 19  1  0  0  0  0
  2  3  2  0  0  0  0
  3  4  1  0  0  0  0
  3 23  1  0  0  0  0
  4  5  1  0  0  0  0
  4 18  2  0  0  0  0
  5  6  1  0  0  0  0
  5 24  1  0  0  0  0
  6  7  2  0  0  0  0
  6  8  1  0  0  0  0
  8  9  1  0  0  0  0
  8 25  1  0  0  0  0
  9 10  1  0  0  0  0
  9 26  1  0  0  0  0
  9 27  1  0  0  0  0
 10 11  1  0  0  0  0
 10 28  1  0  0  0  0
 10 29  1  0  0  0  0
 11 16  1  0  0  0  0
 11 12  1  0  0  0  0
 11 42  1  0  0  0  0
 12 13  1  0  0  0  0
 12 30  1  0  0  0  0
 12 31  1  0  0  0  0
 13 14  1  0  0  0  0
 13 32  1  0  0  0  0
 13 33  1  0  0  0  0
 14 15  1  0  0  0  0
 14 34  1  0  0  0  0
 14 35  1  0  0  0  0
 15 16  1  0  0  0  0
 15 36  1  0  0  0  0
 15 37  1  0  0  0  0
 16 17  1  0  0  0  0
 16 38  1  0  0  0  0
 17 39  1  0  0  0  0
 17 40  1  0  0  0  0
 17 41  1  0  0  0  0
 18 19  1  0  0  0  0
M  CHG  1  11   1
M  END
> <s_m_source_file>
AV-unprocessed.smi

> <i_m_source_file_index>
2079

> <i_lp_mmshare_version>
43012

> <i_f3d_flags>
0

> <s_epik_input>
W0NIM11jMVtjSF1jKG5vMSlbTkhdQyg9TylbTkhdW0NIMl1bQ0gyXU4yW0NIMl1bQ0gyXVtDSDJdW0NIMl1bQ0BIXTJbQ0gzXQ==

> <s_epik_cmdline>
J2VwaWtfcHl0aG9uJywgJy1waCcsICc3LjAnLCAnLXRuJywgJzgnLCAnLW1hJywgJzIwMCcsICctbWV0YWxfYmluZGluZycsICctaW1hZScsICc8aW5maWxlLm1hZT4nLCAnLW9tYWUnLCAnPG91dGZpbGUubWFlPic=

> <r_epik_Ionization_Penalty>
0.00265971

> <r_epik_Ionization_Penalty_Charging>
0.00262393

> <r_epik_Ionization_Penalty_Neutral>
3.57846e-05

> <r_epik_State_Penalty>
0.00182566

> <r_epik_Charging_Adjusted_Penalty>
0.00444959

> <i_epik_Tot_Q>
1

> <i_epik_Tot_abs_Q>
1

> <r_epik_Metal_State_Penalty>
0.0216344

> <b_epik_Metal_Only>
0

> <s_lp_Force_Field>
OPLS_2005

> <r_lp_Energy>
17.1718

> <b_lp_Chiralities_Consistent>
1

> <s_lp_Variant>
AV-unprocessed.smi:2079-4

> <Gold.Version>
5.8.1

> <Gold.Id.Protein>
6NUR|6NUR_protein|mol2

> <Gold.PLP.Fitness>
46.5168

> <Gold.PLP.PLP>
-29.5006

> <Gold.PLP.part.hbond>
-6.0000

> <Gold.PLP.part.metal>
0.0000

> <Gold.PLP.part.buried>
-2.8004

> <Gold.PLP.part.nonpolar>
-19.9766

> <Gold.PLP.part.repulsive>
0.2798

> <Gold.PLP.ligand.clash>
0.0000

> <Gold.PLP.ligand.torsion>
0.4686

> <Gold.PLP.Chemscore.Hbond>
5.9760

> <Gold.PLP.Chemscore.CHOScore>
0.0000

> <Gold.PLP.Chemscore.Metal>
0.0000

> <Gold.Chemscore.Hbonds>
donor molecule, donor type, donor heavy atom, donor atom, acceptor molecule, acceptor atom, score
      L1  H     5    24       P1  7957  1.00
      L1  H     8    25       P1  7957  1.00
      L1  H    11    42       P1  7948  2.00
      P1  H  7989  7998       L1    18  0.98
      P1  H  7997  8010       L1    19  1.00

> <Gold.PLP.Chemscore.Internal.Correction>
0.0254

> <Gold.Rescore>
     Score         DG    S(hbond)    S(metal)    S(lipo)     H(rot)  DE(clash)    DE(int)     intcor
     18.87     -22.40       4.51        0.00      50.26       1.57       0.01       3.52       ----

> <Gold.Chemscore.Fitness>
18.8731

> <Gold.Chemscore.DG>
-22.3999

> <Gold.Chemscore.ZeroCoef>
-5.4800

> <Gold.Chemscore.Hbond>
4.5084

> <Gold.Chemscore.Metal>
0.0000

> <Gold.Chemscore.Lipo>
50.2599

> <Gold.Chemscore.Internal_Hbond>
0.0000

> <Gold.Chemscore.DEClash>
0.0074

> <Gold.Chemscore.DEInternal>
3.5194

> <Gold.Chemscore.Rot>
1.5697

> <Gold.Chemscore.Internal.Correction>
   9.000000E+99

> <Gold.Chemscore.Hbonds>
donor molecule, donor type, donor heavy atom, donor atom, acceptor molecule, acceptor atom, score
      L1  H     5    24       P1  7957  0.97
      L1  H     8    25       P1  7957  0.94
      L1  H    11    42       P1  7948  0.97
      P1  H  7989  7998       L1    18  0.23
      P1  H  7997  8010       L1    19  0.97

> <Gold.Chemscore.Hbond.Weighted>
-15.0579

> <Gold.Chemscore.Metal.Weighted>
-0.0000

> <Gold.Chemscore.Lipo.Weighted>
-5.8804

> <Gold.Chemscore.Internal_Hbond.Weighted>
0.0000

> <Gold.Chemscore.DEClash.Weighted>
0.0074

> <Gold.Chemscore.DEInternal.Weighted>
3.5194

> <Gold.Chemscore.Rot.Weighted>
4.0185

> <Gold.Chemscore.Internal.Correction.Weighted>
   9.000000E+99

> <Gold.Protein.RotatedTorsions>
[ 6907 6896 6895 6894 ] final  -28.05 input  -60.11 | X-H torsion
[ 7974 7965 7964 7962 ] final  109.78 input  175.53 | X-H torsion
[ 8008 7997 7996 7995 ] final   73.39 input   59.86 | X-H torsion
[ 10167 10162 10161 10158 ] final   92.19 input  -65.29 | X-H torsion
[ 10718 10713 10712 10709 ] final -159.76 input   66.30 | X-H torsion
[ 10763 10752 10751 10750 ] final -132.11 input  -60.55 | X-H torsion
[ 11005 11000 10999 10996 ] final  -13.89 input  -57.11 | X-H torsion

> <Gold.Protein.ActiveResidues>
 VAL166  LYS551  ARG553  GLY616  TRP617  ASP618  TYR619  PRO620  LYS621  CYS622 
 ASP623  PHE694  ASN695  SER759  ASP760  ASP761  ALA762  ILE779  LEU786  VAL792 
 PHE793  MET794  SER795  GLU796  ALA797  LYS798  CYS799  TRP800  GLU811  SER814 

> <Gold.Protein.RotatedAtoms>
  151.1384  135.0167  159.8614 H   0  0  0  0  0  0  0  0  0  0  0  0  # atno 6907 bound_to 6896
  152.5452  134.1528  159.8535 H   0  0  0  0  0  0  0  0  0  0  0  0  # atno 6908 bound_to 6896
  151.1601  133.4805  159.2627 H   0  0  0  0  0  0  0  0  0  0  0  0  # atno 6909 bound_to 6896
  145.2633  139.2694  143.4005 H   0  0  0  0  0  0  0  0  0  0  0  0  # atno 7974 bound_to 7965
  155.7829  140.3481  155.5307 H   0  0  0  0  0  0  0  0  0  0  0  0  # atno 8008 bound_to 7997
  155.8710  140.0986  157.1571 H   0  0  0  0  0  0  0  0  0  0  0  0  # atno 8009 bound_to 7997
  154.4017  140.1340  156.4066 H   0  0  0  0  0  0  0  0  0  0  0  0  # atno 8010 bound_to 7997
  139.8301  144.6691  150.9410 H   0  0  0  0  0  0  0  0  0  0  0  0  # atno 10167 bound_to 10162
  156.5726  130.8695  151.2842 H   0  0  0  0  0  0  0  0  0  0  0  0  # atno 10718 bound_to 10713
  154.8746  135.3808  154.4356 H   0  0  0  0  0  0  0  0  0  0  0  0  # atno 10763 bound_to 10752
  153.5045  135.7030  153.5819 H   0  0  0  0  0  0  0  0  0  0  0  0  # atno 10764 bound_to 10752
  153.4135  135.3919  155.2032 H   0  0  0  0  0  0  0  0  0  0  0  0  # atno 10765 bound_to 10752
  140.7808  133.8364  155.9290 H   0  0  0  0  0  0  0  0  0  0  0  0  # atno 11005 bound_to 11000
  146.3268  140.3057  142.8623 LP  0  0  0  0  0  0  0  0  0  0  0  0  # atno 17320 bound_to 7965
  144.9399  140.8066  143.5637 LP  0  0  0  0  0  0  0  0  0  0  0  0  # atno 17321 bound_to 7965
  140.7807  143.4009  151.1151 LP  0  0  0  0  0  0  0  0  0  0  0  0  # atno 17342 bound_to 10162
  139.7663  143.8560  152.3111 LP  0  0  0  0  0  0  0  0  0  0  0  0  # atno 17343 bound_to 10162
  157.7345  130.9747  150.2031 LP  0  0  0  0  0  0  0  0  0  0  0  0  # atno 17370 bound_to 10713
  156.2701  130.3721  149.8040 LP  0  0  0  0  0  0  0  0  0  0  0  0  # atno 17371 bound_to 10713
  140.9484  134.1810  157.4746 LP  0  0  0  0  0  0  0  0  0  0  0  0  # atno 17394 bound_to 11000
  139.8743  134.9900  156.5481 LP  0  0  0  0  0  0  0  0  0  0  0  0  # atno 17395 bound_to 11000

$$$$
