AV-unprocessed.smi:1159|AV-procd|sdf|4914|dock3
  -GOLD-   22720 3493D 1   1.00000     0.00000
 Structure written by MMmdl.
 41 42  0  0  0  0  0  0  0  0  1 V2000
  148.3485  135.7291  156.2972 O   0  0  0  0  0  0  0  0  0  0  0  0
  148.4855  135.9534  155.0952 C   0  0  0  0  0  0  0  0  0  0  0  0
  149.0488  137.0521  154.5628 N   0  0  0  0  0  0  0  0  0  0  0  0
  149.5729  138.2020  155.2159 C   0  0  0  0  0  0  0  0  0  0  0  0
  149.2782  138.5796  156.5485 C   0  0  0  0  0  0  0  0  0  0  0  0
  149.8560  139.7545  157.0669 C   0  0  0  0  0  0  0  0  0  0  0  0
  150.7030  140.5205  156.2423 C   0  0  0  0  0  0  0  0  0  0  0  0
  151.2618  141.6712  156.7587 O   0  0  0  0  0  0  0  0  0  0  0  0
  150.7299  142.2025  157.9696 C   0  0  0  0  0  0  0  0  0  0  0  0
  151.6488  143.3199  158.4777 C   0  0  0  0  0  0  0  0  0  0  0  0
  150.9984  144.0460  159.3862 F   0  0  0  0  0  0  0  0  0  0  0  0
  152.7364  142.7996  159.0458 F   0  0  0  0  0  0  0  0  0  0  0  0
  152.0073  144.1158  157.4707 F   0  0  0  0  0  0  0  0  0  0  0  0
  150.9834  140.1708  154.9628 N   0  0  0  0  0  0  0  0  0  0  0  0
  150.4268  139.0431  154.4723 C   0  0  0  0  0  0  0  0  0  0  0  0
  148.0901  135.1025  154.1362 N   0  0  0  0  0  0  0  0  0  0  0  0
  147.4113  133.8238  154.3615 C   0  0  2  0  0  0  0  0  0  0  0  0
  148.4478  132.6995  154.1339 C   0  0  0  0  0  0  0  0  0  0  0  0
  148.0859  131.3717  154.8218 C   0  0  0  0  0  0  0  0  0  0  0  0
  146.8195  130.6877  154.2849 C   0  0  0  0  0  0  0  0  0  0  0  0
  145.5389  131.5158  154.4829 C   0  0  0  0  0  0  0  0  0  0  0  0
  145.4237  132.5900  153.5052 N   0  0  0  0  0  0  0  0  0  0  0  0
  146.2402  133.6457  153.3665 C   0  0  0  0  0  0  0  0  0  0  0  0
  146.0594  134.4551  152.4567 O   0  0  0  0  0  0  0  0  0  0  0  0
  149.1344  137.0566  153.5570 H   0  0  0  0  0  0  0  0  0  0  0  0
  148.6181  138.0082  157.1810 H   0  0  0  0  0  0  0  0  0  0  0  0
  149.6479  140.0652  158.0802 H   0  0  0  0  0  0  0  0  0  0  0  0
  149.7279  142.6001  157.7997 H   0  0  0  0  0  0  0  0  0  0  0  0
  150.6550  141.4184  158.7251 H   0  0  0  0  0  0  0  0  0  0  0  0
  150.6745  138.8046  153.4482 H   0  0  0  0  0  0  0  0  0  0  0  0
  148.2418  135.3689  153.1746 H   0  0  0  0  0  0  0  0  0  0  0  0
  147.0405  133.7911  155.3876 H   0  0  0  0  0  0  0  0  0  0  0  0
  148.6223  132.5375  153.0688 H   0  0  0  0  0  0  0  0  0  0  0  0
  149.4094  133.0161  154.5413 H   0  0  0  0  0  0  0  0  0  0  0  0
  148.9239  130.6834  154.7087 H   0  0  0  0  0  0  0  0  0  0  0  0
  147.9819  131.5364  155.8948 H   0  0  0  0  0  0  0  0  0  0  0  0
  146.9455  130.4343  153.2314 H   0  0  0  0  0  0  0  0  0  0  0  0
  146.7003  129.7382  154.8077 H   0  0  0  0  0  0  0  0  0  0  0  0
  144.6708  130.8696  154.3514 H   0  0  0  0  0  0  0  0  0  0  0  0
  145.4754  131.9121  155.4973 H   0  0  0  0  0  0  0  0  0  0  0  0
  144.6633  132.5103  152.8454 H   0  0  0  0  0  0  0  0  0  0  0  0
  1  2  2  0  0  0  0
  2  3  1  0  0  0  0
  2 16  1  0  0  0  0
  3  4  1  0  0  0  0
  3 25  1  0  0  0  0
  4 15  1  0  0  0  0
  4  5  2  0  0  0  0
  5  6  1  0  0  0  0
  5 26  1  0  0  0  0
  6  7  2  0  0  0  0
  6 27  1  0  0  0  0
  7  8  1  0  0  0  0
  7 14  1  0  0  0  0
  8  9  1  0  0  0  0
  9 10  1  0  0  0  0
  9 28  1  0  0  0  0
  9 29  1  0  0  0  0
 10 11  1  0  0  0  0
 10 12  1  0  0  0  0
 10 13  1  0  0  0  0
 14 15  2  0  0  0  0
 15 30  1  0  0  0  0
 16 17  1  0  0  0  0
 16 31  1  0  0  0  0
 17 23  1  0  0  0  0
 17 18  1  0  0  0  0
 17 32  1  0  0  0  0
 18 19  1  0  0  0  0
 18 33  1  0  0  0  0
 18 34  1  0  0  0  0
 19 20  1  0  0  0  0
 19 35  1  0  0  0  0
 19 36  1  0  0  0  0
 20 21  1  0  0  0  0
 20 37  1  0  0  0  0
 20 38  1  0  0  0  0
 21 22  1  0  0  0  0
 21 39  1  0  0  0  0
 21 40  1  0  0  0  0
 22 23  1  0  0  0  0
 22 41  1  0  0  0  0
 23 24  2  0  0  0  0
M  END
> <s_m_source_file>
AV-unprocessed.smi

> <i_m_source_file_index>
1159

> <i_lp_mmshare_version>
43012

> <i_f3d_flags>
0

> <s_epik_input>
Tz1DMVtOSF1bQ0gyXVtDSDJdW0NIMl1bQ0gyXVtDQEhdMVtOSF1DKD1PKVtOSF1jMltjSF1bY0hdYyhuW2NIXTIpT1tDSDJdQyhGKShGKUY=

> <s_epik_cmdline>
J2VwaWtfcHl0aG9uJywgJy1waCcsICc3LjAnLCAnLXRuJywgJzgnLCAnLW1hJywgJzIwMCcsICctbWV0YWxfYmluZGluZycsICctaW1hZScsICc8aW5maWxlLm1hZT4nLCAnLW9tYWUnLCAnPG91dGZpbGUubWFlPic=

> <r_lp_tautomer_probability>
1

> <r_epik_Ionization_Penalty>
3.53205e-05

> <r_epik_Ionization_Penalty_Charging>
0

> <r_epik_Ionization_Penalty_Neutral>
3.53205e-05

> <r_epik_State_Penalty>
-0

> <r_epik_Charging_Adjusted_Penalty>
0

> <i_epik_Tot_Q>
0

> <i_epik_Tot_abs_Q>
0

> <r_epik_Metal_State_Penalty>
-0

> <b_epik_Metal_Only>
0

> <s_lp_Force_Field>
OPLS_2005

> <r_lp_Energy>
13.2476

> <b_lp_Chiralities_Consistent>
1

> <s_lp_Variant>
AV-unprocessed.smi:1159-1

> <Gold.Version>
5.8.1

> <Gold.Id.Protein>
6NUR|6NUR_protein|mol2

> <Gold.PLP.Fitness>
46.8283

> <Gold.PLP.PLP>
-36.3210

> <Gold.PLP.part.hbond>
-3.0000

> <Gold.PLP.part.metal>
0.0000

> <Gold.PLP.part.buried>
-5.0521

> <Gold.PLP.part.nonpolar>
-28.2249

> <Gold.PLP.part.repulsive>
0.2617

> <Gold.PLP.ligand.clash>
0.0000

> <Gold.PLP.ligand.torsion>
0.6688

> <Gold.PLP.Chemscore.Hbond>
2.9500

> <Gold.PLP.Chemscore.CHOScore>
0.9821

> <Gold.PLP.Chemscore.Metal>
0.0000

> <Gold.Chemscore.Hbonds>
donor molecule, donor type, donor heavy atom, donor atom, acceptor molecule, acceptor atom, score
      L1  H     3    25       P1  7948  1.00
      L1  H    16    31       P1  7948  1.00
      P1  H  7989  7998       L1    14  1.00
      L1  C    15    30       P1  7957  0.33

> <Gold.PLP.Chemscore.Internal.Correction>
0.0487

> <Gold.Rescore>
     Score         DG    S(hbond)    S(metal)    S(lipo)     H(rot)  DE(clash)    DE(int)     intcor
     15.33     -16.03       2.61        0.00      55.23       1.81       0.09       0.60       ----

> <Gold.Chemscore.Fitness>
15.3346

> <Gold.Chemscore.DG>
-16.0266

> <Gold.Chemscore.ZeroCoef>
-5.4800

> <Gold.Chemscore.Hbond>
2.6074

> <Gold.Chemscore.Metal>
0.0000

> <Gold.Chemscore.Lipo>
55.2285

> <Gold.Chemscore.Internal_Hbond>
0.0000

> <Gold.Chemscore.DEClash>
0.0871

> <Gold.Chemscore.DEInternal>
0.6049

> <Gold.Chemscore.Rot>
1.8062

> <Gold.Chemscore.Internal.Correction>
   9.000000E+99

> <Gold.Chemscore.Hbonds>
donor molecule, donor type, donor heavy atom, donor atom, acceptor molecule, acceptor atom, score
      L1  H     3    25       P1  7948  0.97
      L1  H    16    31       P1  7948  0.98
      P1  H  7989  7998       L1    14  0.30

> <Gold.Chemscore.Hbond.Weighted>
-8.7087

> <Gold.Chemscore.Metal.Weighted>
-0.0000

> <Gold.Chemscore.Lipo.Weighted>
-6.4617

> <Gold.Chemscore.Internal_Hbond.Weighted>
0.0000

> <Gold.Chemscore.DEClash.Weighted>
0.0871

> <Gold.Chemscore.DEInternal.Weighted>
0.6049

> <Gold.Chemscore.Rot.Weighted>
4.6238

> <Gold.Chemscore.Internal.Correction.Weighted>
   9.000000E+99

> <Gold.Protein.RotatedTorsions>
[ 6907 6896 6895 6894 ] final    5.95 input  -60.11 | X-H torsion
[ 7974 7965 7964 7962 ] final   73.60 input  175.53 | X-H torsion
[ 8008 7997 7996 7995 ] final  103.79 input   59.86 | X-H torsion
[ 10167 10162 10161 10158 ] final  -24.77 input  -65.29 | X-H torsion
[ 10718 10713 10712 10709 ] final  -40.11 input   66.30 | X-H torsion
[ 10763 10752 10751 10750 ] final -169.04 input  -60.55 | X-H torsion
[ 11005 11000 10999 10996 ] final   72.03 input  -57.11 | X-H torsion

> <Gold.Protein.ActiveResidues>
 VAL166  LYS551  ARG553  GLY616  TRP617  ASP618  TYR619  PRO620  LYS621  CYS622 
 ASP623  PHE694  ASN695  SER759  ASP760  ASP761  ALA762  ILE779  LEU786  VAL792 
 PHE793  MET794  SER795  GLU796  ALA797  LYS798  CYS799  TRP800  GLU811  SER814 

> <Gold.Protein.RotatedAtoms>
  151.6658  135.0983  160.0188 H   0  0  0  0  0  0  0  0  0  0  0  0  # atno 6907 bound_to 6896
  152.3920  133.6688  159.6254 H   0  0  0  0  0  0  0  0  0  0  0  0  # atno 6908 bound_to 6896
  150.7834  133.8855  159.3339 H   0  0  0  0  0  0  0  0  0  0  0  0  # atno 6909 bound_to 6896
  145.7388  139.2712  143.1498 H   0  0  0  0  0  0  0  0  0  0  0  0  # atno 7974 bound_to 7965
  156.1516  140.3159  155.8657 H   0  0  0  0  0  0  0  0  0  0  0  0  # atno 8008 bound_to 7997
  155.3960  140.0496  157.3056 H   0  0  0  0  0  0  0  0  0  0  0  0  # atno 8009 bound_to 7997
  154.5063  140.2148  155.9256 H   0  0  0  0  0  0  0  0  0  0  0  0  # atno 8010 bound_to 7997
  140.7288  143.4324  151.0782 H   0  0  0  0  0  0  0  0  0  0  0  0  # atno 10167 bound_to 10162
  156.2850  130.4221  149.8297 H   0  0  0  0  0  0  0  0  0  0  0  0  # atno 10718 bound_to 10713
  154.6565  135.2918  154.9921 H   0  0  0  0  0  0  0  0  0  0  0  0  # atno 10763 bound_to 10752
  154.0996  135.6578  153.4870 H   0  0  0  0  0  0  0  0  0  0  0  0  # atno 10764 bound_to 10752
  153.0405  135.5239  154.7496 H   0  0  0  0  0  0  0  0  0  0  0  0  # atno 10765 bound_to 10752
  139.9512  134.7224  156.0859 H   0  0  0  0  0  0  0  0  0  0  0  0  # atno 11005 bound_to 11000
  146.0468  140.8110  142.9801 LP  0  0  0  0  0  0  0  0  0  0  0  0  # atno 17320 bound_to 7965
  144.6875  140.2992  143.7266 LP  0  0  0  0  0  0  0  0  0  0  0  0  # atno 17321 bound_to 7965
  139.7982  143.8121  152.3160 LP  0  0  0  0  0  0  0  0  0  0  0  0  # atno 17342 bound_to 10162
  139.8129  144.7328  150.9674 LP  0  0  0  0  0  0  0  0  0  0  0  0  # atno 17343 bound_to 10162
  156.5731  130.8433  151.3362 LP  0  0  0  0  0  0  0  0  0  0  0  0  # atno 17370 bound_to 10713
  157.7326  130.9717  150.1935 LP  0  0  0  0  0  0  0  0  0  0  0  0  # atno 17371 bound_to 10713
  141.1175  133.6623  156.3130 LP  0  0  0  0  0  0  0  0  0  0  0  0  # atno 17394 bound_to 11000
  140.5715  134.5835  157.5458 LP  0  0  0  0  0  0  0  0  0  0  0  0  # atno 17395 bound_to 11000

$$$$
