AV-unprocessed.smi:1046|AV-procd|sdf|4553|dock9
  -GOLD-   22720 2583D 1   1.00000     0.00000
 Structure written by MMmdl.
 54 56  0  0  0  0  0  0  0  0  3 V2000
  152.0977  143.8523  160.3442 C   0  0  0  0  0  0  0  0  0  0  0  0
  151.8998  142.8195  159.2474 C   0  0  0  0  0  0  0  0  0  0  0  0
  151.0061  143.1187  158.1942 C   0  0  0  0  0  0  0  0  0  0  0  0
  150.8430  142.1536  157.2074 C   0  0  0  0  0  0  0  0  0  0  0  0
  150.0457  142.1412  156.0608 N   0  3  0  0  0  0  0  0  0  0  0  0
  150.2191  140.9637  155.3986 C   0  0  0  0  0  0  0  0  0  0  0  0
  151.1252  140.2288  156.1001 N   0  0  0  0  0  0  0  0  0  0  0  0
  151.6666  138.8890  155.8377 C   0  0  0  0  0  0  0  0  0  0  0  0
  150.8005  138.0639  154.8638 C   0  0  1  0  0  0  0  0  0  0  0  0
  151.6682  137.1943  154.1655 O   0  0  0  0  0  0  0  0  0  0  0  0
  149.7138  137.2294  155.5772 C   0  0  0  0  0  0  0  0  0  0  0  0
  148.4894  137.0505  154.7562 N   0  3  0  0  0  0  0  0  0  0  0  0
  147.7431  138.3164  154.5220 C   0  0  0  0  0  0  0  0  0  0  0  0
  146.5085  138.0571  153.6349 C   0  0  0  0  0  0  0  0  0  0  0  0
  145.6025  137.0444  154.1825 N   0  0  0  0  0  0  0  0  0  0  0  0
  144.8665  137.4677  155.3786 C   0  0  0  0  0  0  0  0  0  0  0  0
  143.8750  138.6212  155.1580 C   0  0  0  0  0  0  0  0  0  0  0  0
  142.9770  138.2703  154.1283 O   0  0  0  0  0  0  0  0  0  0  0  0
  146.3611  135.8122  154.3943 C   0  0  0  0  0  0  0  0  0  0  0  0
  147.5899  136.0035  155.3069 C   0  0  0  0  0  0  0  0  0  0  0  0
  151.5339  140.9270  157.2414 C   0  0  0  0  0  0  0  0  0  0  0  0
  152.4157  140.6146  158.2728 C   0  0  0  0  0  0  0  0  0  0  0  0
  152.5936  141.5820  159.2876 C   0  0  0  0  0  0  0  0  0  0  0  0
  153.5468  141.2673  160.4280 C   0  0  0  0  0  0  0  0  0  0  0  0
  151.5861  144.7861  160.1093 H   0  0  0  0  0  0  0  0  0  0  0  0
  153.1556  144.0797  160.4765 H   0  0  0  0  0  0  0  0  0  0  0  0
  151.7012  143.4817  161.2898 H   0  0  0  0  0  0  0  0  0  0  0  0
  150.4706  144.0565  158.1610 H   0  0  0  0  0  0  0  0  0  0  0  0
  149.7284  140.6690  154.4820 H   0  0  0  0  0  0  0  0  0  0  0  0
  152.6833  139.0027  155.4580 H   0  0  0  0  0  0  0  0  0  0  0  0
  151.7510  138.3771  156.7976 H   0  0  0  0  0  0  0  0  0  0  0  0
  150.3513  138.7403  154.1381 H   0  0  0  0  0  0  0  0  0  0  0  0
  151.3129  137.0269  153.3060 H   0  0  0  0  0  0  0  0  0  0  0  0
  150.1365  136.2551  155.8281 H   0  0  0  0  0  0  0  0  0  0  0  0
  149.4286  137.6860  156.5255 H   0  0  0  0  0  0  0  0  0  0  0  0
  147.4491  138.7602  155.4739 H   0  0  0  0  0  0  0  0  0  0  0  0
  148.3843  139.0447  154.0268 H   0  0  0  0  0  0  0  0  0  0  0  0
  145.9758  138.9902  153.4553 H   0  0  0  0  0  0  0  0  0  0  0  0
  146.8493  137.7281  152.6521 H   0  0  0  0  0  0  0  0  0  0  0  0
  144.2990  136.6151  155.7541 H   0  0  0  0  0  0  0  0  0  0  0  0
  145.5563  137.7368  156.1780 H   0  0  0  0  0  0  0  0  0  0  0  0
  143.2975  138.8339  156.0571 H   0  0  0  0  0  0  0  0  0  0  0  0
  144.4007  139.5344  154.8776 H   0  0  0  0  0  0  0  0  0  0  0  0
  143.0861  138.8780  153.4124 H   0  0  0  0  0  0  0  0  0  0  0  0
  145.7092  135.0414  154.8073 H   0  0  0  0  0  0  0  0  0  0  0  0
  146.6948  135.4298  153.4285 H   0  0  0  0  0  0  0  0  0  0  0  0
  148.1317  135.0596  155.3776 H   0  0  0  0  0  0  0  0  0  0  0  0
  147.2867  136.2669  156.3211 H   0  0  0  0  0  0  0  0  0  0  0  0
  152.9412  139.6715  158.3049 H   0  0  0  0  0  0  0  0  0  0  0  0
  153.9305  140.2489  160.3579 H   0  0  0  0  0  0  0  0  0  0  0  0
  153.0438  141.3662  161.3903 H   0  0  0  0  0  0  0  0  0  0  0  0
  154.3989  141.9473  160.4105 H   0  0  0  0  0  0  0  0  0  0  0  0
  148.7892  136.7105  153.8537 H   0  0  0  0  0  0  0  0  0  0  0  0
  149.4231  142.8782  155.7542 H   0  0  0  0  0  0  0  0  0  0  0  0
  1  2  1  0  0  0  0
  1 25  1  0  0  0  0
  1 26  1  0  0  0  0
  1 27  1  0  0  0  0
  2 23  1  0  0  0  0
  2  3  2  0  0  0  0
  3  4  1  0  0  0  0
  3 28  1  0  0  0  0
  4 21  2  0  0  0  0
  4  5  1  0  0  0  0
  5  6  2  0  0  0  0
  5 54  1  0  0  0  0
  6  7  1  0  0  0  0
  6 29  1  0  0  0  0
  7  8  1  0  0  0  0
  7 21  1  0  0  0  0
  8  9  1  0  0  0  0
  8 30  1  0  0  0  0
  8 31  1  0  0  0  0
  9 10  1  0  0  0  0
  9 11  1  0  0  0  0
  9 32  1  0  0  0  0
 10 33  1  0  0  0  0
 11 12  1  0  0  0  0
 11 34  1  0  0  0  0
 11 35  1  0  0  0  0
 12 20  1  0  0  0  0
 12 13  1  0  0  0  0
 12 53  1  0  0  0  0
 13 14  1  0  0  0  0
 13 36  1  0  0  0  0
 13 37  1  0  0  0  0
 14 15  1  0  0  0  0
 14 38  1  0  0  0  0
 14 39  1  0  0  0  0
 15 16  1  0  0  0  0
 15 19  1  0  0  0  0
 16 17  1  0  0  0  0
 16 40  1  0  0  0  0
 16 41  1  0  0  0  0
 17 18  1  0  0  0  0
 17 42  1  0  0  0  0
 17 43  1  0  0  0  0
 18 44  1  0  0  0  0
 19 20  1  0  0  0  0
 19 45  1  0  0  0  0
 19 46  1  0  0  0  0
 20 47  1  0  0  0  0
 20 48  1  0  0  0  0
 21 22  1  0  0  0  0
 22 23  2  0  0  0  0
 22 49  1  0  0  0  0
 23 24  1  0  0  0  0
 24 50  1  0  0  0  0
 24 51  1  0  0  0  0
 24 52  1  0  0  0  0
M  CHG  1   5   1
M  CHG  1  12   1
M  END
> <s_m_source_file>
AV-unprocessed.smi

> <i_m_source_file_index>
1046

> <i_lp_mmshare_version>
43012

> <i_f3d_flags>
0

> <s_epik_input>
W0NIM11jKFtjSF0xKWMoW0NIM10pW2NIXWMoYzEyKW4oW2NIXW4yKVtDSDJdW0NASF0oW09IXSlbQ0gyXU4zW0NIMl1bQ0gyXU4oW0NIMl1bQ0gyXTMpW0NIMl1bQ0gyXVtPSF0=

> <s_epik_cmdline>
J2VwaWtfcHl0aG9uJywgJy1waCcsICc3LjAnLCAnLXRuJywgJzgnLCAnLW1hJywgJzIwMCcsICctbWV0YWxfYmluZGluZycsICctaW1hZScsICc8aW5maWxlLm1hZT4nLCAnLW9tYWUnLCAnPG91dGZpbGUubWFlPic=

> <r_epik_Ionization_Penalty>
1.22056

> <r_epik_Ionization_Penalty_Charging>
1.17959

> <r_epik_Ionization_Penalty_Neutral>
0.0409743

> <r_epik_State_Penalty>
1.27074

> <r_epik_Charging_Adjusted_Penalty>
2.45032

> <i_epik_Tot_Q>
2

> <i_epik_Tot_abs_Q>
2

> <r_epik_Metal_State_Penalty>
5.26922

> <b_epik_Metal_Only>
0

> <s_lp_Force_Field>
OPLS_2005

> <r_lp_Energy>
42.2252

> <b_lp_Chiralities_Consistent>
1

> <s_lp_Variant>
AV-unprocessed.smi:1046-6

> <Gold.Version>
5.8.1

> <Gold.Id.Protein>
6NUR|6NUR_protein|mol2

> <Gold.PLP.Fitness>
58.8464

> <Gold.PLP.PLP>
-40.0764

> <Gold.PLP.part.hbond>
-5.0000

> <Gold.PLP.part.metal>
0.0000

> <Gold.PLP.part.buried>
-3.6109

> <Gold.PLP.part.nonpolar>
-31.3508

> <Gold.PLP.part.repulsive>
0.2127

> <Gold.PLP.ligand.clash>
0.0000

> <Gold.PLP.ligand.torsion>
1.1399

> <Gold.PLP.Chemscore.Hbond>
6.9920

> <Gold.PLP.Chemscore.CHOScore>
0.0000

> <Gold.PLP.Chemscore.Metal>
0.0000

> <Gold.Chemscore.Hbonds>
donor molecule, donor type, donor heavy atom, donor atom, acceptor molecule, acceptor atom, score
      L1  H     5    54       P1  8028  2.00
      L1  H    10    33       P1  7949  0.83
      L1  H    12    53       P1  7948  1.92
      L1  H    18    44       P1 10175  1.00
      P1  H 10752 10764       L1    10  0.75

> <Gold.PLP.Chemscore.Internal.Correction>
0.0738

> <Gold.Rescore>
     Score         DG    S(hbond)    S(metal)    S(lipo)     H(rot)  DE(clash)    DE(int)     intcor
     20.75     -21.99       3.85        0.00     103.19       3.29       0.11       1.13       ----

> <Gold.Chemscore.Fitness>
20.7504

> <Gold.Chemscore.DG>
-21.9896

> <Gold.Chemscore.ZeroCoef>
-5.4800

> <Gold.Chemscore.Hbond>
3.8495

> <Gold.Chemscore.Metal>
0.0000

> <Gold.Chemscore.Lipo>
103.1932

> <Gold.Chemscore.Internal_Hbond>
0.0000

> <Gold.Chemscore.DEClash>
0.1102

> <Gold.Chemscore.DEInternal>
1.1290

> <Gold.Chemscore.Rot>
3.2896

> <Gold.Chemscore.Internal.Correction>
   9.000000E+99

> <Gold.Chemscore.Hbonds>
donor molecule, donor type, donor heavy atom, donor atom, acceptor molecule, acceptor atom, score
      L1  H     5    54       P1  8028  0.97
      L1  H    10    33       P1  7949  0.56
      L1  H    12    53       P1  7948  0.91
      L1  H    18    44       P1 10175  0.99
      P1  H 10752 10764       L1    10  0.09

> <Gold.Chemscore.Hbond.Weighted>
-12.8575

> <Gold.Chemscore.Metal.Weighted>
-0.0000

> <Gold.Chemscore.Lipo.Weighted>
-12.0736

> <Gold.Chemscore.Internal_Hbond.Weighted>
0.0000

> <Gold.Chemscore.DEClash.Weighted>
0.1102

> <Gold.Chemscore.DEInternal.Weighted>
1.1290

> <Gold.Chemscore.Rot.Weighted>
8.4215

> <Gold.Chemscore.Internal.Correction.Weighted>
   9.000000E+99

> <Gold.Protein.RotatedTorsions>
[ 6907 6896 6895 6894 ] final   83.50 input  -60.11 | X-H torsion
[ 7974 7965 7964 7962 ] final  -36.08 input  175.53 | X-H torsion
[ 8008 7997 7996 7995 ] final  158.87 input   59.86 | X-H torsion
[ 10167 10162 10161 10158 ] final -167.84 input  -65.29 | X-H torsion
[ 10718 10713 10712 10709 ] final   23.92 input   66.30 | X-H torsion
[ 10763 10752 10751 10750 ] final  -88.69 input  -60.55 | X-H torsion
[ 11005 11000 10999 10996 ] final   93.60 input  -57.11 | X-H torsion

> <Gold.Protein.ActiveResidues>
 VAL166  LYS551  ARG553  GLY616  TRP617  ASP618  TYR619  PRO620  LYS621  CYS622 
 ASP623  PHE694  ASN695  SER759  ASP760  ASP761  ALA762  ILE779  LEU786  VAL792 
 PHE793  MET794  SER795  GLU796  ALA797  LYS798  CYS799  TRP800  GLU811  SER814 

> <Gold.Protein.RotatedAtoms>
  152.5329  134.2885  159.9034 H   0  0  0  0  0  0  0  0  0  0  0  0  # atno 6907 bound_to 6896
  151.2838  133.4190  159.2636 H   0  0  0  0  0  0  0  0  0  0  0  0  # atno 6908 bound_to 6896
  151.0260  134.9520  159.8142 H   0  0  0  0  0  0  0  0  0  0  0  0  # atno 6909 bound_to 6896
  146.0692  140.6236  142.8960 H   0  0  0  0  0  0  0  0  0  0  0  0  # atno 7974 bound_to 7965
  156.2275  140.1846  156.7326 H   0  0  0  0  0  0  0  0  0  0  0  0  # atno 8008 bound_to 7997
  154.5966  140.0642  156.9339 H   0  0  0  0  0  0  0  0  0  0  0  0  # atno 8009 bound_to 7997
  155.2246  140.3310  155.4313 H   0  0  0  0  0  0  0  0  0  0  0  0  # atno 8010 bound_to 7997
  139.6024  144.0984  152.1756 H   0  0  0  0  0  0  0  0  0  0  0  0  # atno 10167 bound_to 10162
  157.1727  130.6767  149.6084 H   0  0  0  0  0  0  0  0  0  0  0  0  # atno 10718 bound_to 10713
  154.6473  135.5368  153.7859 H   0  0  0  0  0  0  0  0  0  0  0  0  # atno 10763 bound_to 10752
  153.0366  135.6474  154.1070 H   0  0  0  0  0  0  0  0  0  0  0  0  # atno 10764 bound_to 10752
  154.0990  135.2934  155.3235 H   0  0  0  0  0  0  0  0  0  0  0  0  # atno 10765 bound_to 10752
  139.8808  134.8799  156.3741 H   0  0  0  0  0  0  0  0  0  0  0  0  # atno 11005 bound_to 11000
  144.7221  140.4407  143.7000 LP  0  0  0  0  0  0  0  0  0  0  0  0  # atno 17320 bound_to 7965
  145.6423  139.1552  143.2909 LP  0  0  0  0  0  0  0  0  0  0  0  0  # atno 17321 bound_to 7965
  140.0583  144.5877  150.7282 LP  0  0  0  0  0  0  0  0  0  0  0  0  # atno 17342 bound_to 10162
  140.7259  143.2636  151.4121 LP  0  0  0  0  0  0  0  0  0  0  0  0  # atno 17343 bound_to 10162
  155.9736  130.4673  150.6321 LP  0  0  0  0  0  0  0  0  0  0  0  0  # atno 17370 bound_to 10713
  157.4028  131.0812  151.1293 LP  0  0  0  0  0  0  0  0  0  0  0  0  # atno 17371 bound_to 10713
  140.9444  133.7493  156.0188 LP  0  0  0  0  0  0  0  0  0  0  0  0  # atno 17394 bound_to 11000
  140.8181  134.3321  157.5390 LP  0  0  0  0  0  0  0  0  0  0  0  0  # atno 17395 bound_to 11000

$$$$
