AV-unprocessed.smi:1385|AV-procd|sdf|5628|dock6
  -GOLD-   22720 5243D 1   1.00000     0.00000
 Structure written by MMmdl.
 38 39  0  0  0  0  0  0  0  0  1 V2000
  149.8630  141.7743  157.6895 C   0  0  0  0  0  0  0  0  0  0  0  0
  149.6684  141.0677  156.3917 C   0  0  0  0  0  0  0  0  0  0  0  0
  150.6414  140.9440  155.4809 N   0  0  0  0  0  0  0  0  0  0  0  0
  150.2251  140.2412  154.3587 N   0  0  0  0  0  0  0  0  0  0  0  0
  148.9460  139.8538  154.4578 C   0  0  0  0  0  0  0  0  0  0  0  0
  148.2639  139.1167  153.4541 N   0  0  0  0  0  0  0  0  0  0  0  0
  147.2496  138.2467  153.6032 C   0  0  0  0  0  0  0  0  0  0  0  0
  146.7293  137.9363  154.6751 O   0  0  0  0  0  0  0  0  0  0  0  0
  146.8646  137.7433  152.4214 N   0  0  0  0  0  0  0  0  0  0  0  0
  145.7925  136.7704  152.2317 C   0  0  0  0  0  0  0  0  0  0  0  0
  146.0589  135.4923  153.0437 C   0  0  0  0  0  0  0  0  0  0  0  0
  145.0066  134.4098  152.7441 C   0  0  0  0  0  0  0  0  0  0  0  0
  144.9800  134.0955  151.3076 N   0  0  0  0  0  0  0  0  0  0  0  0
  144.0242  133.0106  150.9831 C   0  0  0  0  0  0  0  0  0  0  0  0
  143.9200  132.6700  149.4918 C   0  0  0  0  0  0  0  0  0  0  0  0
  142.7318  132.8487  148.9088 N   0  0  0  0  0  0  0  0  0  0  0  0
  144.8968  132.2453  148.8790 O   0  0  0  0  0  0  0  0  0  0  0  0
  144.6303  135.2915  150.5340 C   0  0  0  0  0  0  0  0  0  0  0  0
  145.6761  136.4000  150.7468 C   0  0  0  0  0  0  0  0  0  0  0  0
  148.1390  140.3221  155.9445 S   0  0  0  0  0  0  0  0  0  0  0  0
  150.7052  142.4641  157.6277 H   0  0  0  0  0  0  0  0  0  0  0  0
  150.0596  141.0501  158.4801 H   0  0  0  0  0  0  0  0  0  0  0  0
  148.9676  142.3405  157.9469 H   0  0  0  0  0  0  0  0  0  0  0  0
  148.5883  139.2691  152.5105 H   0  0  0  0  0  0  0  0  0  0  0  0
  147.3484  138.0531  151.5913 H   0  0  0  0  0  0  0  0  0  0  0  0
  144.8452  137.2088  152.5522 H   0  0  0  0  0  0  0  0  0  0  0  0
  147.0521  135.1039  152.8131 H   0  0  0  0  0  0  0  0  0  0  0  0
  146.0568  135.7179  154.1108 H   0  0  0  0  0  0  0  0  0  0  0  0
  145.2560  133.5271  153.3327 H   0  0  0  0  0  0  0  0  0  0  0  0
  144.0204  134.7403  153.0748 H   0  0  0  0  0  0  0  0  0  0  0  0
  144.2924  132.1070  151.5342 H   0  0  0  0  0  0  0  0  0  0  0  0
  143.0254  133.2927  151.3196 H   0  0  0  0  0  0  0  0  0  0  0  0
  142.6154  132.6291  147.9302 H   0  0  0  0  0  0  0  0  0  0  0  0
  141.9535  133.1944  149.4512 H   0  0  0  0  0  0  0  0  0  0  0  0
  144.5897  135.0468  149.4716 H   0  0  0  0  0  0  0  0  0  0  0  0
  143.6378  135.6496  150.8143 H   0  0  0  0  0  0  0  0  0  0  0  0
  145.4035  137.2794  150.1624 H   0  0  0  0  0  0  0  0  0  0  0  0
  146.6423  136.0634  150.3674 H   0  0  0  0  0  0  0  0  0  0  0  0
  1  2  1  0  0  0  0
  1 21  1  0  0  0  0
  1 22  1  0  0  0  0
  1 23  1  0  0  0  0
  2 20  1  0  0  0  0
  2  3  2  0  0  0  0
  3  4  1  0  0  0  0
  4  5  2  0  0  0  0
  5  6  1  0  0  0  0
  5 20  1  0  0  0  0
  6  7  1  0  0  0  0
  6 24  1  0  0  0  0
  7  8  2  0  0  0  0
  7  9  1  0  0  0  0
  9 10  1  0  0  0  0
  9 25  1  0  0  0  0
 10 19  1  0  0  0  0
 10 11  1  0  0  0  0
 10 26  1  0  0  0  0
 11 12  1  0  0  0  0
 11 27  1  0  0  0  0
 11 28  1  0  0  0  0
 12 13  1  0  0  0  0
 12 29  1  0  0  0  0
 12 30  1  0  0  0  0
 13 14  1  0  0  0  0
 13 18  1  0  0  0  0
 14 15  1  0  0  0  0
 14 31  1  0  0  0  0
 14 32  1  0  0  0  0
 15 16  1  0  0  0  0
 15 17  2  0  0  0  0
 16 33  1  0  0  0  0
 16 34  1  0  0  0  0
 18 19  1  0  0  0  0
 18 35  1  0  0  0  0
 18 36  1  0  0  0  0
 19 37  1  0  0  0  0
 19 38  1  0  0  0  0
M  END
> <s_m_source_file>
AV-unprocessed.smi

> <i_m_source_file_index>
1385

> <i_lp_mmshare_version>
43012

> <i_f3d_flags>
0

> <s_epik_input>
W0NIM11jMW5uYyhzMSlbTkhdQyg9TylbTkhdW0NIXTJbQ0gyXVtDSDJdTihbQ0gyXVtDSDJdMilbQ0gyXUMoPU8pW05IMl0=

> <s_epik_cmdline>
J2VwaWtfcHl0aG9uJywgJy1waCcsICc3LjAnLCAnLXRuJywgJzgnLCAnLW1hJywgJzIwMCcsICctbWV0YWxfYmluZGluZycsICctaW1hZScsICc8aW5maWxlLm1hZT4nLCAnLW9tYWUnLCAnPG91dGZpbGUubWFlPic=

> <r_lp_tautomer_probability>
1

> <r_epik_Ionization_Penalty>
0.159363

> <r_epik_Ionization_Penalty_Charging>
0

> <r_epik_Ionization_Penalty_Neutral>
0.159363

> <r_epik_State_Penalty>
0.146692

> <r_epik_Charging_Adjusted_Penalty>
0.146692

> <i_epik_Tot_Q>
0

> <i_epik_Tot_abs_Q>
0

> <r_epik_Metal_State_Penalty>
0.501772

> <b_epik_Metal_Only>
0

> <s_lp_Force_Field>
OPLS_2005

> <r_lp_Energy>
10.053

> <b_lp_Chiralities_Consistent>
1

> <s_lp_Variant>
AV-unprocessed.smi:1385-1

> <Gold.Version>
5.8.1

> <Gold.Id.Protein>
6NUR|6NUR_protein|mol2

> <Gold.PLP.Fitness>
38.0393

> <Gold.PLP.PLP>
-30.7150

> <Gold.PLP.part.hbond>
-5.5206

> <Gold.PLP.part.metal>
0.0000

> <Gold.PLP.part.buried>
-5.9650

> <Gold.PLP.part.nonpolar>
-20.2067

> <Gold.PLP.part.repulsive>
0.8532

> <Gold.PLP.ligand.clash>
0.0000

> <Gold.PLP.ligand.torsion>
0.1910

> <Gold.PLP.Chemscore.Hbond>
2.5664

> <Gold.PLP.Chemscore.CHOScore>
0.0000

> <Gold.PLP.Chemscore.Metal>
0.0000

> <Gold.Chemscore.Hbonds>
donor molecule, donor type, donor heavy atom, donor atom, acceptor molecule, acceptor atom, score
      L1  H     6    24       P1  7957  1.00
      L1  H    16    34       P1 10186  0.82
      P1  H  7989  7998       L1     4  0.45

> <Gold.PLP.Chemscore.Internal.Correction>
0.0071

> <Gold.Rescore>
     Score         DG    S(hbond)    S(metal)    S(lipo)     H(rot)  DE(clash)    DE(int)     intcor
     12.33     -13.29       2.36        0.00      44.13       2.04       0.66       0.31       ----

> <Gold.Chemscore.Fitness>
12.3286

> <Gold.Chemscore.DG>
-13.2927

> <Gold.Chemscore.ZeroCoef>
-5.4800

> <Gold.Chemscore.Hbond>
2.3576

> <Gold.Chemscore.Metal>
0.0000

> <Gold.Chemscore.Lipo>
44.1257

> <Gold.Chemscore.Internal_Hbond>
0.0000

> <Gold.Chemscore.DEClash>
0.6569

> <Gold.Chemscore.DEInternal>
0.3073

> <Gold.Chemscore.Rot>
2.0407

> <Gold.Chemscore.Internal.Correction>
   9.000000E+99

> <Gold.Chemscore.Hbonds>
donor molecule, donor type, donor heavy atom, donor atom, acceptor molecule, acceptor atom, score
      L1  H     6    24       P1  7957  0.99
      L1  H    16    34       P1 10186  0.77
      P1  H  7989  7998       L1     4  0.02

> <Gold.Chemscore.Hbond.Weighted>
-7.8743

> <Gold.Chemscore.Metal.Weighted>
-0.0000

> <Gold.Chemscore.Lipo.Weighted>
-5.1627

> <Gold.Chemscore.Internal_Hbond.Weighted>
0.0000

> <Gold.Chemscore.DEClash.Weighted>
0.6569

> <Gold.Chemscore.DEInternal.Weighted>
0.3073

> <Gold.Chemscore.Rot.Weighted>
5.2243

> <Gold.Chemscore.Internal.Correction.Weighted>
   9.000000E+99

> <Gold.Protein.RotatedTorsions>
[ 6907 6896 6895 6894 ] final  -37.56 input  -60.11 | X-H torsion
[ 7974 7965 7964 7962 ] final  -38.70 input  175.53 | X-H torsion
[ 8008 7997 7996 7995 ] final   62.45 input   59.86 | X-H torsion
[ 10167 10162 10161 10158 ] final  117.77 input  -65.29 | X-H torsion
[ 10718 10713 10712 10709 ] final  -91.45 input   66.30 | X-H torsion
[ 10763 10752 10751 10750 ] final  -95.86 input  -60.55 | X-H torsion
[ 11005 11000 10999 10996 ] final -146.29 input  -57.11 | X-H torsion

> <Gold.Protein.ActiveResidues>
 VAL166  LYS551  ARG553  GLY616  TRP617  ASP618  TYR619  PRO620  LYS621  CYS622 
 ASP623  PHE694  ASN695  SER759  ASP760  ASP761  ALA762  ILE779  LEU786  VAL792 
 PHE793  MET794  SER795  GLU796  ALA797  LYS798  CYS799  TRP800  GLU811  SER814 

> <Gold.Protein.RotatedAtoms>
  151.0133  134.9413  159.8018 H   0  0  0  0  0  0  0  0  0  0  0  0  # atno 6907 bound_to 6896
  152.5308  134.3000  159.9085 H   0  0  0  0  0  0  0  0  0  0  0  0  # atno 6908 bound_to 6896
  151.3006  133.4082  159.2673 H   0  0  0  0  0  0  0  0  0  0  0  0  # atno 6909 bound_to 6896
  146.0463  140.6541  142.9063 H   0  0  0  0  0  0  0  0  0  0  0  0  # atno 7974 bound_to 7965
  155.6145  140.3495  155.4632 H   0  0  0  0  0  0  0  0  0  0  0  0  # atno 8008 bound_to 7997
  156.0128  140.1237  157.0460 H   0  0  0  0  0  0  0  0  0  0  0  0  # atno 8009 bound_to 7997
  154.4287  140.1078  156.5840 H   0  0  0  0  0  0  0  0  0  0  0  0  # atno 8010 bound_to 7997
  139.6156  144.7091  151.2747 H   0  0  0  0  0  0  0  0  0  0  0  0  # atno 10167 bound_to 10162
  155.9994  130.4948  150.5477 H   0  0  0  0  0  0  0  0  0  0  0  0  # atno 10718 bound_to 10713
  154.7187  135.5105  153.8778 H   0  0  0  0  0  0  0  0  0  0  0  0  # atno 10763 bound_to 10752
  153.0843  135.6640  153.9990 H   0  0  0  0  0  0  0  0  0  0  0  0  # atno 10764 bound_to 10752
  153.9817  135.3028  155.3399 H   0  0  0  0  0  0  0  0  0  0  0  0  # atno 10765 bound_to 10752
  140.7835  134.3051  157.5037 H   0  0  0  0  0  0  0  0  0  0  0  0  # atno 11005 bound_to 11000
  144.7099  140.4000  143.7088 LP  0  0  0  0  0  0  0  0  0  0  0  0  # atno 17320 bound_to 7965
  145.6800  139.1616  143.2706 LP  0  0  0  0  0  0  0  0  0  0  0  0  # atno 17321 bound_to 7965
  140.7348  143.6754  150.8046 LP  0  0  0  0  0  0  0  0  0  0  0  0  # atno 17342 bound_to 10162
  140.0356  143.5398  152.2741 LP  0  0  0  0  0  0  0  0  0  0  0  0  # atno 17343 bound_to 10162
  157.3404  131.0715  151.1792 LP  0  0  0  0  0  0  0  0  0  0  0  0  # atno 17370 bound_to 10713
  157.2643  130.6673  149.5989 LP  0  0  0  0  0  0  0  0  0  0  0  0  # atno 17371 bound_to 10713
  139.8739  134.9332  156.3575 LP  0  0  0  0  0  0  0  0  0  0  0  0  # atno 17394 bound_to 11000
  140.9459  133.7483  156.0208 LP  0  0  0  0  0  0  0  0  0  0  0  0  # atno 17395 bound_to 11000

$$$$
