AV-unprocessed.smi:877|AV-procd|sdf|4029|dock8
  -GOLD-   22720 1523D 1   1.00000     0.00000
 Structure written by MMmdl.
 44 46  0  0  0  0  0  0  0  0  2 V2000
  143.3773  143.8345  155.8076 C   0  0  0  0  0  0  0  0  0  0  0  0
  144.2087  143.5245  154.6987 O   0  0  0  0  0  0  0  0  0  0  0  0
  145.4235  142.9227  154.9470 C   0  0  0  0  0  0  0  0  0  0  0  0
  146.2293  142.6217  153.8297 C   0  0  0  0  0  0  0  0  0  0  0  0
  147.4825  142.0005  153.9895 C   0  0  0  0  0  0  0  0  0  0  0  0
  147.9492  141.6718  155.2777 C   0  0  0  0  0  0  0  0  0  0  0  0
  149.2925  140.9884  155.4568 C   0  0  0  0  0  0  0  0  0  0  0  0
  150.1246  141.6157  156.5327 C   0  0  0  0  0  0  0  0  0  0  0  0
  150.4083  142.9450  156.6531 N   0  3  0  0  0  0  0  0  0  0  0  0
  151.2202  143.1585  157.7667 C   0  0  0  0  0  0  0  0  0  0  0  0
  151.7690  144.3277  158.2841 C   0  0  0  0  0  0  0  0  0  0  0  0
  152.5605  144.1956  159.4439 C   0  0  0  0  0  0  0  0  0  0  0  0
  152.7793  142.9387  160.0444 C   0  0  0  0  0  0  0  0  0  0  0  0
  152.2170  141.7602  159.5101 C   0  0  0  0  0  0  0  0  0  0  0  0
  151.4369  141.8998  158.3627 C   0  0  0  0  0  0  0  0  0  0  0  0
  150.7407  140.9790  157.5714 N   0  0  0  0  0  0  0  0  0  0  0  0
  150.7745  139.5541  157.9386 C   0  0  0  0  0  0  0  0  0  0  0  0
  152.2063  139.0263  158.1607 C   0  0  2  0  0  0  0  0  0  0  0  0
  152.9983  139.3514  157.0340 O   0  0  0  0  0  0  0  0  0  0  0  0
  152.2274  137.5013  158.3620 C   0  0  0  0  0  0  0  0  0  0  0  0
  151.4609  137.1446  159.4927 O   0  0  0  0  0  0  0  0  0  0  0  0
  147.1550  141.9740  156.4023 C   0  0  0  0  0  0  0  0  0  0  0  0
  145.9004  142.5934  156.2410 C   0  0  0  0  0  0  0  0  0  0  0  0
  142.4544  144.2895  155.4487 H   0  0  0  0  0  0  0  0  0  0  0  0
  143.8572  144.5474  156.4793 H   0  0  0  0  0  0  0  0  0  0  0  0
  143.1067  142.9372  156.3659 H   0  0  0  0  0  0  0  0  0  0  0  0
  145.8806  142.8679  152.8374 H   0  0  0  0  0  0  0  0  0  0  0  0
  148.0808  141.7754  153.1187 H   0  0  0  0  0  0  0  0  0  0  0  0
  149.1499  139.9334  155.6925 H   0  0  0  0  0  0  0  0  0  0  0  0
  149.8263  141.0263  154.5073 H   0  0  0  0  0  0  0  0  0  0  0  0
  151.6035  145.2914  157.8250 H   0  0  0  0  0  0  0  0  0  0  0  0
  153.0094  145.0757  159.8815 H   0  0  0  0  0  0  0  0  0  0  0  0
  153.3917  142.8763  160.9322 H   0  0  0  0  0  0  0  0  0  0  0  0
  152.3937  140.8019  159.9756 H   0  0  0  0  0  0  0  0  0  0  0  0
  150.1669  139.4165  158.8337 H   0  0  0  0  0  0  0  0  0  0  0  0
  150.2771  138.9913  157.1482 H   0  0  0  0  0  0  0  0  0  0  0  0
  152.6329  139.5174  159.0364 H   0  0  0  0  0  0  0  0  0  0  0  0
  152.6160  138.9460  156.2707 H   0  0  0  0  0  0  0  0  0  0  0  0
  151.7844  137.0020  157.4996 H   0  0  0  0  0  0  0  0  0  0  0  0
  153.2460  137.1246  158.4629 H   0  0  0  0  0  0  0  0  0  0  0  0
  151.0515  137.9235  159.8373 H   0  0  0  0  0  0  0  0  0  0  0  0
  147.5039  141.7248  157.3940 H   0  0  0  0  0  0  0  0  0  0  0  0
  145.3215  142.8047  157.1272 H   0  0  0  0  0  0  0  0  0  0  0  0
  150.0756  143.6510  156.0090 H   0  0  0  0  0  0  0  0  0  0  0  0
  1  2  1  0  0  0  0
  1 24  1  0  0  0  0
  1 25  1  0  0  0  0
  1 26  1  0  0  0  0
  2  3  1  0  0  0  0
  3 23  1  0  0  0  0
  3  4  2  0  0  0  0
  4  5  1  0  0  0  0
  4 27  1  0  0  0  0
  5  6  2  0  0  0  0
  5 28  1  0  0  0  0
  6  7  1  0  0  0  0
  6 22  1  0  0  0  0
  7  8  1  0  0  0  0
  7 29  1  0  0  0  0
  7 30  1  0  0  0  0
  8 16  1  0  0  0  0
  8  9  2  0  0  0  0
  9 10  1  0  0  0  0
  9 44  1  0  0  0  0
 10 15  2  0  0  0  0
 10 11  1  0  0  0  0
 11 12  2  0  0  0  0
 11 31  1  0  0  0  0
 12 13  1  0  0  0  0
 12 32  1  0  0  0  0
 13 14  2  0  0  0  0
 13 33  1  0  0  0  0
 14 15  1  0  0  0  0
 14 34  1  0  0  0  0
 15 16  1  0  0  0  0
 16 17  1  0  0  0  0
 17 18  1  0  0  0  0
 17 35  1  0  0  0  0
 17 36  1  0  0  0  0
 18 19  1  0  0  0  0
 18 20  1  0  0  0  0
 18 37  1  0  0  0  0
 19 38  1  0  0  0  0
 20 21  1  0  0  0  0
 20 39  1  0  0  0  0
 20 40  1  0  0  0  0
 21 41  1  0  0  0  0
 22 23  2  0  0  0  0
 22 42  1  0  0  0  0
 23 43  1  0  0  0  0
M  CHG  1   9   1
M  END
> <s_m_source_file>
AV-unprocessed.smi

> <i_m_source_file_index>
877

> <i_lp_mmshare_version>
43012

> <i_f3d_flags>
0

> <s_epik_input>
W0NIM11PYzFbY0hdW2NIXWMoW2NIXVtjSF0xKVtDSDJdYyhuMiluKFtDSDJdW0NASF0oW09IXSlbQ0gyXVtPSF0pYyhjMjMpW2NIXVtjSF1bY0hdW2NIXTM=

> <s_epik_cmdline>
J2VwaWtfcHl0aG9uJywgJy1waCcsICc3LjAnLCAnLXRuJywgJzgnLCAnLW1hJywgJzIwMCcsICctbWV0YWxfYmluZGluZycsICctaW1hZScsICc8aW5maWxlLm1hZT4nLCAnLW9tYWUnLCAnPG91dGZpbGUubWFlPic=

> <r_lp_tautomer_probability>
1

> <r_epik_Ionization_Penalty>
1.37112

> <r_epik_Ionization_Penalty_Charging>
1.37111

> <r_epik_Ionization_Penalty_Neutral>
4.48252e-07

> <r_epik_State_Penalty>
1.45083

> <r_epik_Charging_Adjusted_Penalty>
2.82194

> <i_epik_Tot_Q>
1

> <i_epik_Tot_abs_Q>
1

> <r_epik_Metal_State_Penalty>
5.49009

> <b_epik_Metal_Only>
0

> <s_lp_Force_Field>
OPLS_2005

> <r_lp_Energy>
22.2712

> <b_lp_Chiralities_Consistent>
1

> <s_lp_Variant>
AV-unprocessed.smi:877-3

> <Gold.Version>
5.8.1

> <Gold.Id.Protein>
6NUR|6NUR_protein|mol2

> <Gold.PLP.Fitness>
58.5533

> <Gold.PLP.PLP>
-47.5206

> <Gold.PLP.part.hbond>
-3.0000

> <Gold.PLP.part.metal>
0.0000

> <Gold.PLP.part.buried>
-7.6958

> <Gold.PLP.part.nonpolar>
-38.6387

> <Gold.PLP.part.repulsive>
0.2235

> <Gold.PLP.ligand.clash>
0.0000

> <Gold.PLP.ligand.torsion>
0.3366

> <Gold.PLP.Chemscore.Hbond>
3.8880

> <Gold.PLP.Chemscore.CHOScore>
0.0000

> <Gold.PLP.Chemscore.Metal>
0.0000

> <Gold.Chemscore.Hbonds>
donor molecule, donor type, donor heavy atom, donor atom, acceptor molecule, acceptor atom, score
      L1  H     9    44       P1  8028  1.89
      P1  H  6896  6907       L1    21  1.00
      P1  H  7997  8010       L1    19  1.00

> <Gold.PLP.Chemscore.Internal.Correction>
0.0420

> <Gold.Rescore>
     Score         DG    S(hbond)    S(metal)    S(lipo)     H(rot)  DE(clash)    DE(int)     intcor
     19.65     -19.99       2.90        0.00     111.86       3.23       0.15       0.19       ----

> <Gold.Chemscore.Fitness>
19.6471

> <Gold.Chemscore.DG>
-19.9852

> <Gold.Chemscore.ZeroCoef>
-5.4800

> <Gold.Chemscore.Hbond>
2.9012

> <Gold.Chemscore.Metal>
0.0000

> <Gold.Chemscore.Lipo>
111.8630

> <Gold.Chemscore.Internal_Hbond>
0.0000

> <Gold.Chemscore.DEClash>
0.1481

> <Gold.Chemscore.DEInternal>
0.1899

> <Gold.Chemscore.Rot>
3.2315

> <Gold.Chemscore.Internal.Correction>
   9.000000E+99

> <Gold.Chemscore.Hbonds>
donor molecule, donor type, donor heavy atom, donor atom, acceptor molecule, acceptor atom, score
      L1  H     9    44       P1  8028  0.90
      P1  H  6896  6907       L1    21  0.87
      P1  H  7997  8010       L1    19  0.81

> <Gold.Chemscore.Hbond.Weighted>
-9.6899

> <Gold.Chemscore.Metal.Weighted>
-0.0000

> <Gold.Chemscore.Lipo.Weighted>
-13.0880

> <Gold.Chemscore.Internal_Hbond.Weighted>
0.0000

> <Gold.Chemscore.DEClash.Weighted>
0.1481

> <Gold.Chemscore.DEInternal.Weighted>
0.1899

> <Gold.Chemscore.Rot.Weighted>
8.2727

> <Gold.Chemscore.Internal.Correction.Weighted>
   9.000000E+99

> <Gold.Protein.RotatedTorsions>
[ 6907 6896 6895 6894 ] final   -9.52 input  -60.11 | X-H torsion
[ 7974 7965 7964 7962 ] final -107.25 input  175.53 | X-H torsion
[ 8008 7997 7996 7995 ] final   55.80 input   59.86 | X-H torsion
[ 10167 10162 10161 10158 ] final   15.42 input  -65.29 | X-H torsion
[ 10718 10713 10712 10709 ] final -109.91 input   66.30 | X-H torsion
[ 10763 10752 10751 10750 ] final  145.61 input  -60.55 | X-H torsion
[ 11005 11000 10999 10996 ] final   70.92 input  -57.11 | X-H torsion

> <Gold.Protein.ActiveResidues>
 VAL166  LYS551  ARG553  GLY616  TRP617  ASP618  TYR619  PRO620  LYS621  CYS622 
 ASP623  PHE694  ASN695  SER759  ASP760  ASP761  ALA762  ILE779  LEU786  VAL792 
 PHE793  MET794  SER795  GLU796  ALA797  LYS798  CYS799  TRP800  GLU811  SER814 

> <Gold.Protein.RotatedAtoms>
  151.4164  135.0992  159.9600 H   0  0  0  0  0  0  0  0  0  0  0  0  # atno 6907 bound_to 6896
  152.5003  133.8748  159.7327 H   0  0  0  0  0  0  0  0  0  0  0  0  # atno 6908 bound_to 6896
  150.9255  133.6772  159.2850 H   0  0  0  0  0  0  0  0  0  0  0  0  # atno 6909 bound_to 6896
  145.2077  140.9083  143.3333 H   0  0  0  0  0  0  0  0  0  0  0  0  # atno 7974 bound_to 7965
  155.5070  140.3476  155.4381 H   0  0  0  0  0  0  0  0  0  0  0  0  # atno 8008 bound_to 7997
  156.0875  140.1402  156.9662 H   0  0  0  0  0  0  0  0  0  0  0  0  # atno 8009 bound_to 7997
  154.4615  140.0933  156.6883 H   0  0  0  0  0  0  0  0  0  0  0  0  # atno 8010 bound_to 7997
  140.5868  143.8873  150.6838 H   0  0  0  0  0  0  0  0  0  0  0  0  # atno 10167 bound_to 10162
  156.0562  130.5788  150.8165 H   0  0  0  0  0  0  0  0  0  0  0  0  # atno 10718 bound_to 10713
  154.0083  135.2917  155.3395 H   0  0  0  0  0  0  0  0  0  0  0  0  # atno 10763 bound_to 10752
  154.7118  135.5146  153.8682 H   0  0  0  0  0  0  0  0  0  0  0  0  # atno 10764 bound_to 10752
  153.0735  135.6655  154.0317 H   0  0  0  0  0  0  0  0  0  0  0  0  # atno 10765 bound_to 10752
  139.9571  134.7125  156.0728 H   0  0  0  0  0  0  0  0  0  0  0  0  # atno 11005 bound_to 11000
  144.9886  139.3711  143.6226 LP  0  0  0  0  0  0  0  0  0  0  0  0  # atno 17320 bound_to 7965
  146.3404  139.9059  142.8787 LP  0  0  0  0  0  0  0  0  0  0  0  0  # atno 17321 bound_to 7965
  140.2386  143.3681  152.1505 LP  0  0  0  0  0  0  0  0  0  0  0  0  # atno 17342 bound_to 10162
  139.5203  144.7031  151.5436 LP  0  0  0  0  0  0  0  0  0  0  0  0  # atno 17343 bound_to 10162
  157.5534  131.0944  150.9663 LP  0  0  0  0  0  0  0  0  0  0  0  0  # atno 17370 bound_to 10713
  156.9918  130.5566  149.5304 LP  0  0  0  0  0  0  0  0  0  0  0  0  # atno 17371 bound_to 10713
  141.1244  133.6603  156.3299 LP  0  0  0  0  0  0  0  0  0  0  0  0  # atno 17394 bound_to 11000
  140.5584  134.5959  157.5427 LP  0  0  0  0  0  0  0  0  0  0  0  0  # atno 17395 bound_to 11000

$$$$
