AV-unprocessed.smi:2662|AV-procd|sdf|10319|dock3
  -GOLD-   2272014333D 1   1.00000     0.00000
 Structure written by MMmdl.
 36 38  0  0  0  0  0  0  0  0  1 V2000
  151.5592  136.7533  154.3154 O   0  0  0  0  0  0  0  0  0  0  0  0
  151.5056  137.9991  154.9803 C   0  0  0  0  0  0  0  0  0  0  0  0
  150.3316  138.8519  154.5896 C   0  0  0  0  0  0  0  0  0  0  0  0
  149.3571  138.4191  153.7860 N   0  0  0  0  0  0  0  0  0  0  0  0
  148.5114  139.5077  153.7138 C   0  0  0  0  0  0  0  0  0  0  0  0
  147.2966  139.6819  153.0133 C   0  0  0  0  0  0  0  0  0  0  0  0
  146.5958  140.9031  153.0935 C   0  0  0  0  0  0  0  0  0  0  0  0
  147.0977  141.9642  153.8745 C   0  0  0  0  0  0  0  0  0  0  0  0
  148.3070  141.8112  154.5795 C   0  0  0  0  0  0  0  0  0  0  0  0
  149.0036  140.5909  154.4942 C   0  0  0  0  0  0  0  0  0  0  0  0
  150.1952  140.1251  155.0413 N   0  0  0  0  0  0  0  0  0  0  0  0
  151.0848  140.8800  155.9145 C   0  0  0  0  0  0  0  0  0  0  0  0
  150.3483  141.4705  157.1347 C   0  0  1  0  0  0  0  0  0  0  0  0
  149.5702  140.4453  157.7199 O   0  0  0  0  0  0  0  0  0  0  0  0
  151.3000  142.1221  158.1319 C   0  0  0  0  0  0  0  0  0  0  0  0
  151.2096  143.5055  158.4065 C   0  0  0  0  0  0  0  0  0  0  0  0
  152.0697  144.1027  159.3478 C   0  0  0  0  0  0  0  0  0  0  0  0
  151.9714  145.4278  159.6079 F   0  0  0  0  0  0  0  0  0  0  0  0
  153.0273  143.3221  160.0220 C   0  0  0  0  0  0  0  0  0  0  0  0
  153.1237  141.9436  159.7540 C   0  0  0  0  0  0  0  0  0  0  0  0
  152.2642  141.3436  158.8133 C   0  0  0  0  0  0  0  0  0  0  0  0
  152.3650  140.0134  158.5771 F   0  0  0  0  0  0  0  0  0  0  0  0
  151.3900  136.8949  153.3968 H   0  0  0  0  0  0  0  0  0  0  0  0
  151.4709  137.8184  156.0548 H   0  0  0  0  0  0  0  0  0  0  0  0
  152.4291  138.5353  154.7667 H   0  0  0  0  0  0  0  0  0  0  0  0
  146.9040  138.8746  152.4129 H   0  0  0  0  0  0  0  0  0  0  0  0
  145.6687  141.0258  152.5531 H   0  0  0  0  0  0  0  0  0  0  0  0
  146.5544  142.8961  153.9310 H   0  0  0  0  0  0  0  0  0  0  0  0
  148.6957  142.6227  155.1765 H   0  0  0  0  0  0  0  0  0  0  0  0
  151.8676  140.1982  156.2501 H   0  0  0  0  0  0  0  0  0  0  0  0
  151.5895  141.6634  155.3494 H   0  0  0  0  0  0  0  0  0  0  0  0
  149.6349  142.2210  156.7933 H   0  0  0  0  0  0  0  0  0  0  0  0
  149.2621  140.7441  158.5616 H   0  0  0  0  0  0  0  0  0  0  0  0
  150.4724  144.1145  157.9044 H   0  0  0  0  0  0  0  0  0  0  0  0
  153.6858  143.7794  160.7455 H   0  0  0  0  0  0  0  0  0  0  0  0
  153.8562  141.3438  160.2740 H   0  0  0  0  0  0  0  0  0  0  0  0
  1  2  1  0  0  0  0
  1 23  1  0  0  0  0
  2  3  1  0  0  0  0
  2 24  1  0  0  0  0
  2 25  1  0  0  0  0
  3 11  1  0  0  0  0
  3  4  2  0  0  0  0
  4  5  1  0  0  0  0
  5 10  2  0  0  0  0
  5  6  1  0  0  0  0
  6  7  2  0  0  0  0
  6 26  1  0  0  0  0
  7  8  1  0  0  0  0
  7 27  1  0  0  0  0
  8  9  2  0  0  0  0
  8 28  1  0  0  0  0
  9 10  1  0  0  0  0
  9 29  1  0  0  0  0
 10 11  1  0  0  0  0
 11 12  1  0  0  0  0
 12 13  1  0  0  0  0
 12 30  1  0  0  0  0
 12 31  1  0  0  0  0
 13 14  1  0  0  0  0
 13 15  1  0  0  0  0
 13 32  1  0  0  0  0
 14 33  1  0  0  0  0
 15 21  1  0  0  0  0
 15 16  2  0  0  0  0
 16 17  1  0  0  0  0
 16 34  1  0  0  0  0
 17 18  1  0  0  0  0
 17 19  2  0  0  0  0
 19 20  1  0  0  0  0
 19 35  1  0  0  0  0
 20 21  2  0  0  0  0
 20 36  1  0  0  0  0
 21 22  1  0  0  0  0
M  END
> <s_m_source_file>
AV-unprocessed.smi

> <i_m_source_file_index>
2662

> <i_lp_mmshare_version>
43012

> <i_f3d_flags>
0

> <s_epik_input>
W2NIXTFbY0hdW2NIXVtjSF1jKGMxMiluKGMobjIpW0NIMl1bT0hdKVtDSDJdW0NASF0oW09IXSljM1tjSF1jKEYpW2NIXVtjSF1jM0Y=

> <s_epik_cmdline>
J2VwaWtfcHl0aG9uJywgJy1waCcsICc3LjAnLCAnLXRuJywgJzgnLCAnLW1hJywgJzIwMCcsICctbWV0YWxfYmluZGluZycsICctaW1hZScsICc8aW5maWxlLm1hZT4nLCAnLW9tYWUnLCAnPG91dGZpbGUubWFlPic=

> <r_epik_Ionization_Penalty>
0.0634732

> <r_epik_Ionization_Penalty_Charging>
0

> <r_epik_Ionization_Penalty_Neutral>
0.0634732

> <r_epik_State_Penalty>
0.0551572

> <r_epik_Charging_Adjusted_Penalty>
0.0551572

> <i_epik_Tot_Q>
0

> <i_epik_Tot_abs_Q>
0

> <r_epik_Metal_State_Penalty>
5.78034e-05

> <b_epik_Metal_Only>
0

> <s_lp_Force_Field>
OPLS_2005

> <r_lp_Energy>
12.437

> <b_lp_Chiralities_Consistent>
1

> <s_lp_Variant>
AV-unprocessed.smi:2662-2

> <Gold.Version>
5.8.1

> <Gold.Id.Protein>
6NUR|6NUR_protein|mol2

> <Gold.PLP.Fitness>
54.4647

> <Gold.PLP.PLP>
-49.9005

> <Gold.PLP.part.hbond>
-2.0000

> <Gold.PLP.part.metal>
0.0000

> <Gold.PLP.part.buried>
1.1446

> <Gold.PLP.part.nonpolar>
-50.2785

> <Gold.PLP.part.repulsive>
1.6668

> <Gold.PLP.ligand.clash>
0.0000

> <Gold.PLP.ligand.torsion>
0.1422

> <Gold.PLP.Chemscore.Hbond>
1.5983

> <Gold.PLP.Chemscore.CHOScore>
0.0000

> <Gold.PLP.Chemscore.Metal>
0.0000

> <Gold.Chemscore.Hbonds>
donor molecule, donor type, donor heavy atom, donor atom, acceptor molecule, acceptor atom, score
      L1  H     1    23       P1  7949  0.71
      P1  H 10752 10765       L1     1  1.00

> <Gold.PLP.Chemscore.Internal.Correction>
0.0539

> <Gold.Rescore>
     Score         DG    S(hbond)    S(metal)    S(lipo)     H(rot)  DE(clash)    DE(int)     intcor
     13.67     -16.86       1.26        0.00     124.15       2.88       1.77       1.42       ----

> <Gold.Chemscore.Fitness>
13.6690

> <Gold.Chemscore.DG>
-16.8590

> <Gold.Chemscore.ZeroCoef>
-5.4800

> <Gold.Chemscore.Hbond>
1.2629

> <Gold.Chemscore.Metal>
0.0000

> <Gold.Chemscore.Lipo>
124.1469

> <Gold.Chemscore.Internal_Hbond>
0.0000

> <Gold.Chemscore.DEClash>
1.7670

> <Gold.Chemscore.DEInternal>
1.4230

> <Gold.Chemscore.Rot>
2.8767

> <Gold.Chemscore.Internal.Correction>
   9.000000E+99

> <Gold.Chemscore.Hbonds>
donor molecule, donor type, donor heavy atom, donor atom, acceptor molecule, acceptor atom, score
      L1  H     1    23       P1  7949  0.54
      P1  H 10752 10765       L1     1  0.77

> <Gold.Chemscore.Hbond.Weighted>
-4.2182

> <Gold.Chemscore.Metal.Weighted>
-0.0000

> <Gold.Chemscore.Lipo.Weighted>
-14.5252

> <Gold.Chemscore.Internal_Hbond.Weighted>
0.0000

> <Gold.Chemscore.DEClash.Weighted>
1.7670

> <Gold.Chemscore.DEInternal.Weighted>
1.4230

> <Gold.Chemscore.Rot.Weighted>
7.3644

> <Gold.Chemscore.Internal.Correction.Weighted>
   9.000000E+99

> <Gold.Protein.RotatedTorsions>
[ 6907 6896 6895 6894 ] final   98.92 input  -60.11 | X-H torsion
[ 7974 7965 7964 7962 ] final  -85.94 input  175.53 | X-H torsion
[ 8008 7997 7996 7995 ] final  140.17 input   59.86 | X-H torsion
[ 10167 10162 10161 10158 ] final  -29.57 input  -65.29 | X-H torsion
[ 10718 10713 10712 10709 ] final  -17.88 input   66.30 | X-H torsion
[ 10763 10752 10751 10750 ] final -178.02 input  -60.55 | X-H torsion
[ 11005 11000 10999 10996 ] final   48.74 input  -57.11 | X-H torsion

> <Gold.Protein.ActiveResidues>
 VAL166  LYS551  ARG553  GLY616  TRP617  ASP618  TYR619  PRO620  LYS621  CYS622 
 ASP623  PHE694  ASN695  SER759  ASP760  ASP761  ALA762  ILE779  LEU786  VAL792 
 PHE793  MET794  SER795  GLU796  ALA797  LYS798  CYS799  TRP800  GLU811  SER814 

> <Gold.Protein.RotatedAtoms>
  152.5401  134.0507  159.8108 H   0  0  0  0  0  0  0  0  0  0  0  0  # atno 6907 bound_to 6896
  151.0649  133.5506  159.2638 H   0  0  0  0  0  0  0  0  0  0  0  0  # atno 6908 bound_to 6896
  151.2391  135.0590  159.9072 H   0  0  0  0  0  0  0  0  0  0  0  0  # atno 6909 bound_to 6896
  145.4865  140.9555  143.1835 H   0  0  0  0  0  0  0  0  0  0  0  0  # atno 7974 bound_to 7965
  156.2982  140.2348  156.4357 H   0  0  0  0  0  0  0  0  0  0  0  0  # atno 8008 bound_to 7997
  154.8230  140.0437  157.1445 H   0  0  0  0  0  0  0  0  0  0  0  0  # atno 8009 bound_to 7997
  154.9293  140.3014  155.5179 H   0  0  0  0  0  0  0  0  0  0  0  0  # atno 8010 bound_to 7997
  140.7259  143.3918  151.1417 H   0  0  0  0  0  0  0  0  0  0  0  0  # atno 10167 bound_to 10162
  156.5673  130.4740  149.6379 H   0  0  0  0  0  0  0  0  0  0  0  0  # atno 10718 bound_to 10713
  154.5529  135.2814  155.0992 H   0  0  0  0  0  0  0  0  0  0  0  0  # atno 10763 bound_to 10752
  154.2431  135.6353  153.5217 H   0  0  0  0  0  0  0  0  0  0  0  0  # atno 10764 bound_to 10752
  153.0008  135.5564  154.6100 H   0  0  0  0  0  0  0  0  0  0  0  0  # atno 10765 bound_to 10752
  140.1164  134.4887  155.8634 H   0  0  0  0  0  0  0  0  0  0  0  0  # atno 11005 bound_to 11000
  144.7858  139.6429  143.7134 LP  0  0  0  0  0  0  0  0  0  0  0  0  # atno 17320 bound_to 7965
  146.2310  139.5813  142.9555 LP  0  0  0  0  0  0  0  0  0  0  0  0  # atno 17321 bound_to 7965
  139.7524  143.8759  152.3080 LP  0  0  0  0  0  0  0  0  0  0  0  0  # atno 17342 bound_to 10162
  139.8617  144.7114  150.9092 LP  0  0  0  0  0  0  0  0  0  0  0  0  # atno 17343 bound_to 10162
  156.2746  130.7036  151.1843 LP  0  0  0  0  0  0  0  0  0  0  0  0  # atno 17370 bound_to 10713
  157.7356  131.0571  150.5462 LP  0  0  0  0  0  0  0  0  0  0  0  0  # atno 17371 bound_to 10713
  141.2142  133.6745  156.6804 LP  0  0  0  0  0  0  0  0  0  0  0  0  # atno 17394 bound_to 11000
  140.3023  134.8154  157.4108 LP  0  0  0  0  0  0  0  0  0  0  0  0  # atno 17395 bound_to 11000

$$$$
