AV-unprocessed.smi:2068|AV-procd|sdf|8428|dock7
  -GOLD-   2272011123D 1   1.00000     0.00000
 Structure written by MMmdl.
 33 34  0  0  0  0  0  0  0  0  1 V2000
  144.9687  137.8631  152.4214 N   0  0  0  0  0  0  0  0  0  0  0  0
  146.2256  138.3002  152.3047 C   0  0  0  0  0  0  0  0  0  0  0  0
  146.7136  138.6194  151.2224 O   0  0  0  0  0  0  0  0  0  0  0  0
  147.0539  138.3954  153.5874 C   0  0  0  0  0  0  0  0  0  0  0  0
  147.3056  139.8329  153.9385 C   0  0  0  0  0  0  0  0  0  0  0  0
  146.8526  140.9393  153.2607 C   0  0  0  0  0  0  0  0  0  0  0  0
  147.3759  142.4250  154.0077 S   0  0  0  0  0  0  0  0  0  0  0  0
  148.2027  141.4731  155.2309 C   0  0  0  0  0  0  0  0  0  0  0  0
  148.9380  142.0771  156.2839 N   0  0  0  0  0  0  0  0  0  0  0  0
  149.9605  141.5597  156.9905 C   0  0  0  0  0  0  0  0  0  0  0  0
  150.4160  140.4262  156.8351 O   0  0  0  0  0  0  0  0  0  0  0  0
  150.5691  142.4794  158.0554 C   0  0  0  0  0  0  0  0  0  0  0  0
  152.0302  142.1289  158.4122 C   0  0  1  0  0  0  0  0  0  0  0  0
  152.7444  143.2199  159.1734 C   0  0  0  0  0  0  0  0  0  0  0  0
  153.2685  142.7903  160.3187 C   0  0  0  0  0  0  0  0  0  0  0  0
  153.0109  141.3286  160.5579 C   0  0  0  0  0  0  0  0  0  0  0  0
  152.1491  140.8993  159.3492 C   0  0  0  0  0  0  0  0  0  0  0  0
  148.0701  140.1525  155.0657 N   0  0  0  0  0  0  0  0  0  0  0  0
  144.3899  137.7731  151.5990 H   0  0  0  0  0  0  0  0  0  0  0  0
  144.6053  137.6126  153.3298 H   0  0  0  0  0  0  0  0  0  0  0  0
  146.5216  137.8913  154.3951 H   0  0  0  0  0  0  0  0  0  0  0  0
  147.9928  137.8555  153.4555 H   0  0  0  0  0  0  0  0  0  0  0  0
  146.2470  140.9686  152.3670 H   0  0  0  0  0  0  0  0  0  0  0  0
  148.6676  143.0219  156.5156 H   0  0  0  0  0  0  0  0  0  0  0  0
  150.5127  143.5165  157.7200 H   0  0  0  0  0  0  0  0  0  0  0  0
  149.9490  142.4127  158.9499 H   0  0  0  0  0  0  0  0  0  0  0  0
  152.5982  141.9409  157.4997 H   0  0  0  0  0  0  0  0  0  0  0  0
  152.8216  144.2304  158.7993 H   0  0  0  0  0  0  0  0  0  0  0  0
  153.8294  143.3977  161.0135 H   0  0  0  0  0  0  0  0  0  0  0  0
  153.9550  140.7844  160.5953 H   0  0  0  0  0  0  0  0  0  0  0  0
  152.4857  141.1828  161.5023 H   0  0  0  0  0  0  0  0  0  0  0  0
  151.1675  140.5712  159.6936 H   0  0  0  0  0  0  0  0  0  0  0  0
  152.6001  140.0540  158.8279 H   0  0  0  0  0  0  0  0  0  0  0  0
  1  2  1  0  0  0  0
  1 19  1  0  0  0  0
  1 20  1  0  0  0  0
  2  3  2  0  0  0  0
  2  4  1  0  0  0  0
  4  5  1  0  0  0  0
  4 21  1  0  0  0  0
  4 22  1  0  0  0  0
  5 18  1  0  0  0  0
  5  6  2  0  0  0  0
  6  7  1  0  0  0  0
  6 23  1  0  0  0  0
  7  8  1  0  0  0  0
  8  9  1  0  0  0  0
  8 18  2  0  0  0  0
  9 10  1  0  0  0  0
  9 24  1  0  0  0  0
 10 11  2  0  0  0  0
 10 12  1  0  0  0  0
 12 13  1  0  0  0  0
 12 25  1  0  0  0  0
 12 26  1  0  0  0  0
 13 17  1  0  0  0  0
 13 14  1  0  0  0  0
 13 27  1  0  0  0  0
 14 15  2  0  0  0  0
 14 28  1  0  0  0  0
 15 16  1  0  0  0  0
 15 29  1  0  0  0  0
 16 17  1  0  0  0  0
 16 30  1  0  0  0  0
 16 31  1  0  0  0  0
 17 32  1  0  0  0  0
 17 33  1  0  0  0  0
M  END
> <s_m_source_file>
AV-unprocessed.smi

> <i_m_source_file_index>
2068

> <i_lp_mmshare_version>
43012

> <i_f3d_flags>
0

> <s_epik_input>
W05IMl1DKD1PKVtDSDJdYzFbY0hdc2MobjEpW05IXUMoPU8pW0NIMl1bQ0BASF0yW0NIXT1bQ0hdW0NIMl1bQ0gyXTI=

> <s_epik_cmdline>
J2VwaWtfcHl0aG9uJywgJy1waCcsICc3LjAnLCAnLXRuJywgJzgnLCAnLW1hJywgJzIwMCcsICctbWV0YWxfYmluZGluZycsICctaW1hZScsICc8aW5maWxlLm1hZT4nLCAnLW9tYWUnLCAnPG91dGZpbGUubWFlPic=

> <r_lp_tautomer_probability>
1

> <r_epik_Ionization_Penalty>
0.000253249

> <r_epik_Ionization_Penalty_Charging>
0

> <r_epik_Ionization_Penalty_Neutral>
0.000253249

> <r_epik_State_Penalty>
-0

> <r_epik_Charging_Adjusted_Penalty>
0

> <i_epik_Tot_Q>
0

> <i_epik_Tot_abs_Q>
0

> <r_epik_Metal_State_Penalty>
0.148671

> <b_epik_Metal_Only>
0

> <s_lp_Force_Field>
OPLS_2005

> <r_lp_Energy>
16.4011

> <b_lp_Chiralities_Consistent>
1

> <s_lp_Variant>
AV-unprocessed.smi:2068-2

> <Gold.Version>
5.8.1

> <Gold.Id.Protein>
6NUR|6NUR_protein|mol2

> <Gold.PLP.Fitness>
43.7969

> <Gold.PLP.PLP>
-35.8883

> <Gold.PLP.part.hbond>
-3.8947

> <Gold.PLP.part.metal>
0.0000

> <Gold.PLP.part.buried>
-4.8677

> <Gold.PLP.part.nonpolar>
-29.1558

> <Gold.PLP.part.repulsive>
1.0338

> <Gold.PLP.ligand.clash>
0.0000

> <Gold.PLP.ligand.torsion>
0.6929

> <Gold.PLP.Chemscore.Hbond>
2.4480

> <Gold.PLP.Chemscore.CHOScore>
0.6432

> <Gold.PLP.Chemscore.Metal>
0.0000

> <Gold.Chemscore.Hbonds>
donor molecule, donor type, donor heavy atom, donor atom, acceptor molecule, acceptor atom, score
      L1  H     1    19       P1 10171  0.91
      L1  H     9    24       P1  8028  0.70
      P1  H  7954  7966       L1     3  0.83
      L1  C     6    23       P1 10175  0.52

> <Gold.PLP.Chemscore.Internal.Correction>
0.0208

> <Gold.Rescore>
     Score         DG    S(hbond)    S(metal)    S(lipo)     H(rot)  DE(clash)    DE(int)     intcor
     15.94     -18.21       2.52        0.00      85.24       2.21       0.22       2.06       ----

> <Gold.Chemscore.Fitness>
15.9399

> <Gold.Chemscore.DG>
-18.2138

> <Gold.Chemscore.ZeroCoef>
-5.4800

> <Gold.Chemscore.Hbond>
2.5170

> <Gold.Chemscore.Metal>
0.0000

> <Gold.Chemscore.Lipo>
85.2369

> <Gold.Chemscore.Internal_Hbond>
0.0000

> <Gold.Chemscore.DEClash>
0.2174

> <Gold.Chemscore.DEInternal>
2.0565

> <Gold.Chemscore.Rot>
2.2053

> <Gold.Chemscore.Internal.Correction>
   9.000000E+99

> <Gold.Chemscore.Hbonds>
donor molecule, donor type, donor heavy atom, donor atom, acceptor molecule, acceptor atom, score
      L1  H     1    19       P1 10171  0.84
      L1  H     9    24       P1  8028  0.63
      P1  H  7954  7966       L1     3  0.77

> <Gold.Chemscore.Hbond.Weighted>
-8.4068

> <Gold.Chemscore.Metal.Weighted>
-0.0000

> <Gold.Chemscore.Lipo.Weighted>
-9.9727

> <Gold.Chemscore.Internal_Hbond.Weighted>
0.0000

> <Gold.Chemscore.DEClash.Weighted>
0.2174

> <Gold.Chemscore.DEInternal.Weighted>
2.0565

> <Gold.Chemscore.Rot.Weighted>
5.6456

> <Gold.Chemscore.Internal.Correction.Weighted>
   9.000000E+99

> <Gold.Protein.RotatedTorsions>
[ 6907 6896 6895 6894 ] final    2.36 input  -60.11 | X-H torsion
[ 7974 7965 7964 7962 ] final  -31.45 input  175.53 | X-H torsion
[ 8008 7997 7996 7995 ] final -135.86 input   59.86 | X-H torsion
[ 10167 10162 10161 10158 ] final  -33.97 input  -65.29 | X-H torsion
[ 10718 10713 10712 10709 ] final  -61.95 input   66.30 | X-H torsion
[ 10763 10752 10751 10750 ] final  164.60 input  -60.55 | X-H torsion
[ 11005 11000 10999 10996 ] final   23.44 input  -57.11 | X-H torsion

> <Gold.Protein.ActiveResidues>
 VAL166  LYS551  ARG553  GLY616  TRP617  ASP618  TYR619  PRO620  LYS621  CYS622 
 ASP623  PHE694  ASN695  SER759  ASP760  ASP761  ALA762  ILE779  LEU786  VAL792 
 PHE793  MET794  SER795  GLU796  ALA797  LYS798  CYS799  TRP800  GLU811  SER814 

> <Gold.Protein.RotatedAtoms>
  151.6076  135.1043  160.0073 H   0  0  0  0  0  0  0  0  0  0  0  0  # atno 6907 bound_to 6896
  152.4225  133.7136  159.6504 H   0  0  0  0  0  0  0  0  0  0  0  0  # atno 6908 bound_to 6896
  150.8113  133.8344  159.3203 H   0  0  0  0  0  0  0  0  0  0  0  0  # atno 6909 bound_to 6896
  146.1066  140.5668  142.8796 H   0  0  0  0  0  0  0  0  0  0  0  0  # atno 7974 bound_to 7965
  155.3857  140.0497  157.3042 H   0  0  0  0  0  0  0  0  0  0  0  0  # atno 8008 bound_to 7997
  154.5061  140.2174  155.9211 H   0  0  0  0  0  0  0  0  0  0  0  0  # atno 8009 bound_to 7997
  156.1527  140.3132  155.8679 H   0  0  0  0  0  0  0  0  0  0  0  0  # atno 8010 bound_to 7997
  140.7194  143.3582  151.2017 H   0  0  0  0  0  0  0  0  0  0  0  0  # atno 10167 bound_to 10162
  156.0887  130.4204  150.1066 H   0  0  0  0  0  0  0  0  0  0  0  0  # atno 10718 bound_to 10713
  154.3114  135.2757  155.2564 H   0  0  0  0  0  0  0  0  0  0  0  0  # atno 10763 bound_to 10752
  154.4958  135.5821  153.6497 H   0  0  0  0  0  0  0  0  0  0  0  0  # atno 10764 bound_to 10752
  152.9887  135.6145  154.3291 H   0  0  0  0  0  0  0  0  0  0  0  0  # atno 10765 bound_to 10752
  140.3696  134.2037  155.7667 H   0  0  0  0  0  0  0  0  0  0  0  0  # atno 11005 bound_to 11000
  144.7476  140.5109  143.6824 LP  0  0  0  0  0  0  0  0  0  0  0  0  # atno 17320 bound_to 7965
  145.5747  139.1485  143.3268 LP  0  0  0  0  0  0  0  0  0  0  0  0  # atno 17321 bound_to 7965
  139.7128  143.9349  152.2954 LP  0  0  0  0  0  0  0  0  0  0  0  0  # atno 17342 bound_to 10162
  139.9080  144.6873  150.8593 LP  0  0  0  0  0  0  0  0  0  0  0  0  # atno 17343 bound_to 10162
  156.9081  130.9642  151.3567 LP  0  0  0  0  0  0  0  0  0  0  0  0  # atno 17370 bound_to 10713
  157.6030  130.8526  149.8832 LP  0  0  0  0  0  0  0  0  0  0  0  0  # atno 17371 bound_to 10713
  141.1959  133.8096  157.0697 LP  0  0  0  0  0  0  0  0  0  0  0  0  # atno 17394 bound_to 11000
  140.0562  134.9779  157.1224 LP  0  0  0  0  0  0  0  0  0  0  0  0  # atno 17395 bound_to 11000

$$$$
