AV-unprocessed.smi:365|AV-procd|sdf|2427|dock4
  -GOLD-   2262022363D 1   1.00000     0.00000
 Structure written by MMmdl.
 53 54  0  0  0  0  0  0  0  0  1 V2000
  147.1003  136.2704  157.2701 C   0  0  0  0  0  0  0  0  0  0  0  0
  148.0469  135.3829  158.0950 C   0  0  2  0  0  0  0  0  0  0  0  0
  147.4491  135.1825  159.4134 N   0  0  0  0  0  0  0  0  0  0  0  0
  147.2260  136.1471  160.3238 C   0  0  0  0  0  0  0  0  0  0  0  0
  147.5449  137.3207  160.1248 O   0  0  0  0  0  0  0  0  0  0  0  0
  146.5365  135.7560  161.6530 C   0  0  0  0  0  0  0  0  0  0  0  0
  145.0260  136.0369  161.5198 C   0  0  0  0  0  0  0  0  0  0  0  0
  147.1133  136.6267  162.7887 C   0  0  0  0  0  0  0  0  0  0  0  0
  146.7438  134.2653  162.0126 C   0  0  0  0  0  0  0  0  0  0  0  0
  149.3976  136.1031  158.2304 C   0  0  0  0  0  0  0  0  0  0  0  0
  149.8216  136.4378  159.3379 O   0  0  0  0  0  0  0  0  0  0  0  0
  150.0638  136.3306  157.0885 N   0  0  0  0  0  0  0  0  0  0  0  0
  151.3796  136.9552  156.9983 C   0  0  0  0  0  0  0  0  0  0  0  0
  151.4210  138.4213  157.4121 C   0  0  0  0  0  0  0  0  0  0  0  0
  151.7308  139.4100  156.4591 C   0  0  0  0  0  0  0  0  0  0  0  0
  151.7793  140.7598  156.8564 C   0  0  0  0  0  0  0  0  0  0  0  0
  151.5196  141.0943  158.2105 C   0  0  0  0  0  0  0  0  0  0  0  0
  151.5473  142.4302  158.6764 N   0  0  0  0  0  0  0  0  0  0  0  0
  152.2843  142.6782  159.9164 C   0  0  0  0  0  0  0  0  0  0  0  0
  151.9529  144.0710  160.4781 C   0  0  0  0  0  0  0  0  0  0  0  0
  152.1868  145.0605  159.4828 O   0  0  0  0  0  0  0  0  0  0  0  0
  151.3474  144.8698  158.3504 C   0  0  0  0  0  0  0  0  0  0  0  0
  151.6510  143.5105  157.6979 C   0  0  0  0  0  0  0  0  0  0  0  0
  151.2235  140.1368  159.1231 N   0  0  0  0  0  0  0  0  0  0  0  0
  151.1786  138.8447  158.7371 C   0  0  0  0  0  0  0  0  0  0  0  0
  147.5028  136.4598  156.2743 H   0  0  0  0  0  0  0  0  0  0  0  0
  146.9258  137.2356  157.7482 H   0  0  0  0  0  0  0  0  0  0  0  0
  146.1308  135.7881  157.1409 H   0  0  0  0  0  0  0  0  0  0  0  0
  148.1750  134.4214  157.5935 H   0  0  0  0  0  0  0  0  0  0  0  0
  147.1542  134.2440  159.6400 H   0  0  0  0  0  0  0  0  0  0  0  0
  144.4963  135.7895  162.4404 H   0  0  0  0  0  0  0  0  0  0  0  0
  144.5800  135.4460  160.7182 H   0  0  0  0  0  0  0  0  0  0  0  0
  144.8249  137.0873  161.3039 H   0  0  0  0  0  0  0  0  0  0  0  0
  146.9410  137.6899  162.6147 H   0  0  0  0  0  0  0  0  0  0  0  0
  148.1891  136.4809  162.8971 H   0  0  0  0  0  0  0  0  0  0  0  0
  146.6534  136.3800  163.7462 H   0  0  0  0  0  0  0  0  0  0  0  0
  146.2593  134.0203  162.9584 H   0  0  0  0  0  0  0  0  0  0  0  0
  147.8010  134.0183  162.1210 H   0  0  0  0  0  0  0  0  0  0  0  0
  146.3196  133.6027  161.2567 H   0  0  0  0  0  0  0  0  0  0  0  0
  149.6426  136.0240  156.2237 H   0  0  0  0  0  0  0  0  0  0  0  0
  152.0602  136.4006  157.6443 H   0  0  0  0  0  0  0  0  0  0  0  0
  151.7663  136.8515  155.9829 H   0  0  0  0  0  0  0  0  0  0  0  0
  151.9312  139.1399  155.4324 H   0  0  0  0  0  0  0  0  0  0  0  0
  152.0247  141.5036  156.1142 H   0  0  0  0  0  0  0  0  0  0  0  0
  152.0529  141.9355  160.6799 H   0  0  0  0  0  0  0  0  0  0  0  0
  153.3526  142.6027  159.7103 H   0  0  0  0  0  0  0  0  0  0  0  0
  150.9165  144.1169  160.8170 H   0  0  0  0  0  0  0  0  0  0  0  0
  152.5794  144.2841  161.3443 H   0  0  0  0  0  0  0  0  0  0  0  0
  150.2990  144.9336  158.6462 H   0  0  0  0  0  0  0  0  0  0  0  0
  151.5250  145.6747  157.6372 H   0  0  0  0  0  0  0  0  0  0  0  0
  152.6546  143.5141  157.2712 H   0  0  0  0  0  0  0  0  0  0  0  0
  150.9440  143.3543  156.8828 H   0  0  0  0  0  0  0  0  0  0  0  0
  150.9461  138.1361  159.5181 H   0  0  0  0  0  0  0  0  0  0  0  0
  1  2  1  0  0  0  0
  1 26  1  0  0  0  0
  1 27  1  0  0  0  0
  1 28  1  0  0  0  0
  2  3  1  0  0  0  0
  2 10  1  0  0  0  0
  2 29  1  0  0  0  0
  3  4  1  0  0  0  0
  3 30  1  0  0  0  0
  4  5  2  0  0  0  0
  4  6  1  0  0  0  0
  6  7  1  0  0  0  0
  6  8  1  0  0  0  0
  6  9  1  0  0  0  0
  7 31  1  0  0  0  0
  7 32  1  0  0  0  0
  7 33  1  0  0  0  0
  8 34  1  0  0  0  0
  8 35  1  0  0  0  0
  8 36  1  0  0  0  0
  9 37  1  0  0  0  0
  9 38  1  0  0  0  0
  9 39  1  0  0  0  0
 10 11  2  0  0  0  0
 10 12  1  0  0  0  0
 12 13  1  0  0  0  0
 12 40  1  0  0  0  0
 13 14  1  0  0  0  0
 13 41  1  0  0  0  0
 13 42  1  0  0  0  0
 14 25  1  0  0  0  0
 14 15  2  0  0  0  0
 15 16  1  0  0  0  0
 15 43  1  0  0  0  0
 16 17  2  0  0  0  0
 16 44  1  0  0  0  0
 17 18  1  0  0  0  0
 17 24  1  0  0  0  0
 18 23  1  0  0  0  0
 18 19  1  0  0  0  0
 19 20  1  0  0  0  0
 19 45  1  0  0  0  0
 19 46  1  0  0  0  0
 20 21  1  0  0  0  0
 20 47  1  0  0  0  0
 20 48  1  0  0  0  0
 21 22  1  0  0  0  0
 22 23  1  0  0  0  0
 22 49  1  0  0  0  0
 22 50  1  0  0  0  0
 23 51  1  0  0  0  0
 23 52  1  0  0  0  0
 24 25  2  0  0  0  0
 25 53  1  0  0  0  0
M  END
> <s_m_source_file>
AV-unprocessed.smi

> <i_m_source_file_index>
365

> <i_lp_mmshare_version>
43012

> <i_f3d_flags>
0

> <s_epik_input>
W0NIM11DKFtDSDNdKShbQ0gzXSlDKD1PKVtOSF1bQ0BASF0oW0NIM10pQyg9TylbTkhdW0NIMl1jMVtjSF1bY0hdYyhuW2NIXTEpTjJbQ0gyXVtDSDJdT1tDSDJdW0NIMl0y

> <s_epik_cmdline>
J2VwaWtfcHl0aG9uJywgJy1waCcsICc3LjAnLCAnLXRuJywgJzgnLCAnLW1hJywgJzIwMCcsICctbWV0YWxfYmluZGluZycsICctaW1hZScsICc8aW5maWxlLm1hZT4nLCAnLW9tYWUnLCAnPG91dGZpbGUubWFlPic=

> <r_lp_tautomer_probability>
1

> <r_epik_Ionization_Penalty>
0.00484327

> <r_epik_Ionization_Penalty_Charging>
0

> <r_epik_Ionization_Penalty_Neutral>
0.00484327

> <r_epik_State_Penalty>
0.0035131

> <r_epik_Charging_Adjusted_Penalty>
0.0035131

> <i_epik_Tot_Q>
0

> <i_epik_Tot_abs_Q>
0

> <r_epik_Metal_State_Penalty>
-0

> <b_epik_Metal_Only>
0

> <s_lp_Force_Field>
OPLS_2005

> <r_lp_Energy>
21.7768

> <b_lp_Chiralities_Consistent>
1

> <s_lp_Variant>
AV-unprocessed.smi:365-1

> <Gold.Version>
5.8.1

> <Gold.Id.Protein>
6NUR|6NUR_protein|mol2

> <Gold.PLP.Fitness>
48.6328

> <Gold.PLP.PLP>
-42.9931

> <Gold.PLP.part.hbond>
-3.0000

> <Gold.PLP.part.metal>
0.0000

> <Gold.PLP.part.buried>
-7.0091

> <Gold.PLP.part.nonpolar>
-34.9196

> <Gold.PLP.part.repulsive>
0.1787

> <Gold.PLP.ligand.clash>
0.0000

> <Gold.PLP.ligand.torsion>
1.3563

> <Gold.PLP.Chemscore.Hbond>
2.6000

> <Gold.PLP.Chemscore.CHOScore>
0.0000

> <Gold.PLP.Chemscore.Metal>
0.0000

> <Gold.Chemscore.Hbonds>
donor molecule, donor type, donor heavy atom, donor atom, acceptor molecule, acceptor atom, score
      P1  H  6896  6909       L1    11  1.00
      P1  H  6934  6947       L1     5  0.93

> <Gold.PLP.Chemscore.Internal.Correction>
0.5523

> <Gold.Rescore>
     Score         DG    S(hbond)    S(metal)    S(lipo)     H(rot)  DE(clash)    DE(int)     intcor
     14.67     -21.59       2.49        0.00     111.13       2.04       0.00       6.92       ----

> <Gold.Chemscore.Fitness>
14.6673

> <Gold.Chemscore.DG>
-21.5860

> <Gold.Chemscore.ZeroCoef>
-5.4800

> <Gold.Chemscore.Hbond>
2.4902

> <Gold.Chemscore.Metal>
0.0000

> <Gold.Chemscore.Lipo>
111.1341

> <Gold.Chemscore.Internal_Hbond>
0.0000

> <Gold.Chemscore.DEClash>
0.0027

> <Gold.Chemscore.DEInternal>
6.9160

> <Gold.Chemscore.Rot>
2.0367

> <Gold.Chemscore.Internal.Correction>
   9.000000E+99

> <Gold.Chemscore.Hbonds>
donor molecule, donor type, donor heavy atom, donor atom, acceptor molecule, acceptor atom, score
      P1  H  6896  6909       L1    11  0.26
      P1  H  6931  6943       L1     5  0.01
      P1  H  6934  6947       L1     5  0.89

> <Gold.Chemscore.Hbond.Weighted>
-8.3173

> <Gold.Chemscore.Metal.Weighted>
-0.0000

> <Gold.Chemscore.Lipo.Weighted>
-13.0027

> <Gold.Chemscore.Internal_Hbond.Weighted>
0.0000

> <Gold.Chemscore.DEClash.Weighted>
0.0027

> <Gold.Chemscore.DEInternal.Weighted>
6.9160

> <Gold.Chemscore.Rot.Weighted>
5.2140

> <Gold.Chemscore.Internal.Correction.Weighted>
   9.000000E+99

> <Gold.Protein.RotatedTorsions>
[ 6907 6896 6895 6894 ] final   76.75 input  -60.11 | X-H torsion
[ 7974 7965 7964 7962 ] final   45.93 input  175.53 | X-H torsion
[ 8008 7997 7996 7995 ] final  -45.98 input   59.86 | X-H torsion
[ 10167 10162 10161 10158 ] final  -25.52 input  -65.29 | X-H torsion
[ 10718 10713 10712 10709 ] final  102.77 input   66.30 | X-H torsion
[ 10763 10752 10751 10750 ] final -159.80 input  -60.55 | X-H torsion
[ 11005 11000 10999 10996 ] final  110.57 input  -57.11 | X-H torsion

> <Gold.Protein.ActiveResidues>
 VAL166  LYS551  ARG553  GLY616  TRP617  ASP618  TYR619  PRO620  LYS621  CYS622 
 ASP623  PHE694  ASN695  SER759  ASP760  ASP761  ALA762  ILE779  LEU786  VAL792 
 PHE793  MET794  SER795  GLU796  ALA797  LYS798  CYS799  TRP800  GLU811  SER814 

> <Gold.Protein.RotatedAtoms>
  152.5087  134.3921  159.9387 H   0  0  0  0  0  0  0  0  0  0  0  0  # atno 6907 bound_to 6896
  151.3882  133.3792  159.2725 H   0  0  0  0  0  0  0  0  0  0  0  0  # atno 6908 bound_to 6896
  150.9453  134.8879  159.7697 H   0  0  0  0  0  0  0  0  0  0  0  0  # atno 6909 bound_to 6896
  146.0436  139.4911  142.9763 H   0  0  0  0  0  0  0  0  0  0  0  0  # atno 7974 bound_to 7965
  154.4004  140.1383  156.3936 H   0  0  0  0  0  0  0  0  0  0  0  0  # atno 8008 bound_to 7997
  155.7890  140.3479  155.5318 H   0  0  0  0  0  0  0  0  0  0  0  0  # atno 8009 bound_to 7997
  155.8598  140.0954  157.1611 H   0  0  0  0  0  0  0  0  0  0  0  0  # atno 8010 bound_to 7997
  140.7286  143.4258  151.0879 H   0  0  0  0  0  0  0  0  0  0  0  0  # atno 10167 bound_to 10162
  157.6792  131.0761  150.5454 H   0  0  0  0  0  0  0  0  0  0  0  0  # atno 10718 bound_to 10713
  154.7444  135.3076  154.8670 H   0  0  0  0  0  0  0  0  0  0  0  0  # atno 10763 bound_to 10752
  153.9476  135.6767  153.4748 H   0  0  0  0  0  0  0  0  0  0  0  0  # atno 10764 bound_to 10752
  153.1041  135.4897  154.8846 H   0  0  0  0  0  0  0  0  0  0  0  0  # atno 10765 bound_to 10752
  139.8885  134.9487  156.6299 H   0  0  0  0  0  0  0  0  0  0  0  0  # atno 11005 bound_to 11000
  145.6843  141.0182  143.1589 LP  0  0  0  0  0  0  0  0  0  0  0  0  # atno 17320 bound_to 7965
  144.7086  139.8458  143.7422 LP  0  0  0  0  0  0  0  0  0  0  0  0  # atno 17321 bound_to 7965
  139.7909  143.8220  152.3151 LP  0  0  0  0  0  0  0  0  0  0  0  0  # atno 17342 bound_to 10162
  139.8203  144.7298  150.9581 LP  0  0  0  0  0  0  0  0  0  0  0  0  # atno 17343 bound_to 10162
  156.5760  130.4292  149.5998 LP  0  0  0  0  0  0  0  0  0  0  0  0  # atno 17370 bound_to 10713
  156.2701  130.7012  151.1806 LP  0  0  0  0  0  0  0  0  0  0  0  0  # atno 17371 bound_to 10713
  140.7674  133.8767  155.8465 LP  0  0  0  0  0  0  0  0  0  0  0  0  # atno 17394 bound_to 11000
  140.9871  134.1329  157.4442 LP  0  0  0  0  0  0  0  0  0  0  0  0  # atno 17395 bound_to 11000

$$$$
