AV-unprocessed.smi:3193|AV-procd|sdf|12203|dock1
  -GOLD-   2272018 33D 1   1.00000     0.00000
 Structure written by MMmdl.
 40 41  0  0  0  0  0  0  0  0  2 V2000
  152.3967  144.6233  158.2568 C   0  0  0  0  0  0  0  0  0  0  0  0
  151.4513  143.7300  159.0862 C   0  0  2  0  0  0  0  0  0  0  0  0
  151.7729  143.8088  160.5941 C   0  0  0  0  0  0  0  0  0  0  0  0
  153.0686  143.0635  160.9568 C   0  0  0  0  0  0  0  0  0  0  0  0
  153.0198  141.6034  160.4841 C   0  0  0  0  0  0  0  0  0  0  0  0
  152.7107  141.5078  158.9815 C   0  0  0  0  0  0  0  0  0  0  0  0
  151.4032  142.2495  158.6216 C   0  0  2  0  0  0  0  0  0  0  0  0
  151.0403  142.1059  157.1297 C   0  0  0  0  0  0  0  0  0  0  0  0
  149.5874  142.2457  156.9069 N   0  3  0  0  0  0  0  0  0  0  0  0
  148.9544  141.0555  156.3033 C   0  0  0  0  0  0  0  0  0  0  0  0
  149.4863  140.7865  154.8869 C   0  0  0  0  0  0  0  0  0  0  0  0
  150.3853  139.6484  154.8456 N   0  0  0  0  0  0  0  0  0  0  0  0
  150.2930  138.5366  154.0183 C   0  0  0  0  0  0  0  0  0  0  0  0
  151.3563  137.7216  154.3351 C   0  0  0  0  0  0  0  0  0  0  0  0
  152.1134  138.3110  155.3448 N   0  0  0  0  0  0  0  0  0  0  0  0
  151.4816  139.4510  155.5908 C   0  0  0  0  0  0  0  0  0  0  0  0
  153.4256  144.2652  158.2769 H   0  0  0  0  0  0  0  0  0  0  0  0
  152.3995  145.6445  158.6386 H   0  0  0  0  0  0  0  0  0  0  0  0
  152.0847  144.6783  157.2141 H   0  0  0  0  0  0  0  0  0  0  0  0
  150.4507  144.1449  158.9569 H   0  0  0  0  0  0  0  0  0  0  0  0
  151.8411  144.8495  160.9134 H   0  0  0  0  0  0  0  0  0  0  0  0
  150.9466  143.3762  161.1597 H   0  0  0  0  0  0  0  0  0  0  0  0
  153.9263  143.5665  160.5096 H   0  0  0  0  0  0  0  0  0  0  0  0
  153.2249  143.0977  162.0354 H   0  0  0  0  0  0  0  0  0  0  0  0
  153.9679  141.1107  160.7014 H   0  0  0  0  0  0  0  0  0  0  0  0
  152.2570  141.0645  161.0471 H   0  0  0  0  0  0  0  0  0  0  0  0
  153.5452  141.9137  158.4092 H   0  0  0  0  0  0  0  0  0  0  0  0
  152.6366  140.4560  158.7039 H   0  0  0  0  0  0  0  0  0  0  0  0
  150.5990  141.7776  159.1894 H   0  0  0  0  0  0  0  0  0  0  0  0
  151.5515  142.8750  156.5490 H   0  0  0  0  0  0  0  0  0  0  0  0
  151.3709  141.1400  156.7456 H   0  0  0  0  0  0  0  0  0  0  0  0
  149.1433  142.4331  157.7945 H   0  0  0  0  0  0  0  0  0  0  0  0
  149.1269  140.1879  156.9414 H   0  0  0  0  0  0  0  0  0  0  0  0
  147.8756  141.2113  156.2625 H   0  0  0  0  0  0  0  0  0  0  0  0
  148.6553  140.5869  154.2093 H   0  0  0  0  0  0  0  0  0  0  0  0
  150.0044  141.6643  154.4978 H   0  0  0  0  0  0  0  0  0  0  0  0
  149.5007  138.4184  153.2936 H   0  0  0  0  0  0  0  0  0  0  0  0
  151.6339  136.7653  153.9164 H   0  0  0  0  0  0  0  0  0  0  0  0
  151.8217  140.1555  156.3359 H   0  0  0  0  0  0  0  0  0  0  0  0
  149.4325  143.0347  156.2952 H   0  0  0  0  0  0  0  0  0  0  0  0
  1  2  1  0  0  0  0
  1 17  1  0  0  0  0
  1 18  1  0  0  0  0
  1 19  1  0  0  0  0
  2  7  1  0  0  0  0
  2  3  1  0  0  0  0
  2 20  1  0  0  0  0
  3  4  1  0  0  0  0
  3 21  1  0  0  0  0
  3 22  1  0  0  0  0
  4  5  1  0  0  0  0
  4 23  1  0  0  0  0
  4 24  1  0  0  0  0
  5  6  1  0  0  0  0
  5 25  1  0  0  0  0
  5 26  1  0  0  0  0
  6  7  1  0  0  0  0
  6 27  1  0  0  0  0
  6 28  1  0  0  0  0
  7  8  1  0  0  0  0
  7 29  1  0  0  0  0
  8  9  1  0  0  0  0
  8 30  1  0  0  0  0
  8 31  1  0  0  0  0
  9 10  1  0  0  0  0
  9 32  1  0  0  0  0
  9 40  1  0  0  0  0
 10 11  1  0  0  0  0
 10 33  1  0  0  0  0
 10 34  1  0  0  0  0
 11 12  1  0  0  0  0
 11 35  1  0  0  0  0
 11 36  1  0  0  0  0
 12 16  1  0  0  0  0
 12 13  1  0  0  0  0
 13 14  2  0  0  0  0
 13 37  1  0  0  0  0
 14 15  1  0  0  0  0
 14 38  1  0  0  0  0
 15 16  2  0  0  0  0
 16 39  1  0  0  0  0
M  CHG  1   9   1
M  END
> <s_m_source_file>
AV-unprocessed.smi

> <i_m_source_file_index>
3193

> <i_lp_mmshare_version>
43012

> <i_f3d_flags>
0

> <s_epik_input>
W0NIM11bQ0BASF0xW0NIMl1bQ0gyXVtDSDJdW0NIMl1bQ0BIXTFbQ0gyXVtOSF1bQ0gyXVtDSDJdbjJbY0hdW2NIXW5bY0hdMg==

> <s_epik_cmdline>
J2VwaWtfcHl0aG9uJywgJy1waCcsICc3LjAnLCAnLXRuJywgJzgnLCAnLW1hJywgJzIwMCcsICctbWV0YWxfYmluZGluZycsICctaW1hZScsICc8aW5maWxlLm1hZT4nLCAnLW9tYWUnLCAnPG91dGZpbGUubWFlPic=

> <r_lp_tautomer_probability>
1

> <r_epik_Ionization_Penalty>
0.0503046

> <r_epik_Ionization_Penalty_Charging>
0.0503046

> <r_epik_Ionization_Penalty_Neutral>
0

> <r_epik_State_Penalty>
0.0981804

> <r_epik_Charging_Adjusted_Penalty>
0.148485

> <i_epik_Tot_Q>
1

> <i_epik_Tot_abs_Q>
1

> <r_epik_Metal_State_Penalty>
0.000105854

> <b_epik_Metal_Only>
0

> <s_lp_Force_Field>
OPLS_2005

> <r_lp_Energy>
20.9297

> <b_lp_Chiralities_Consistent>
1

> <s_lp_Variant>
AV-unprocessed.smi:3193-3

> <Gold.Version>
5.8.1

> <Gold.Id.Protein>
6NUR|6NUR_protein|mol2

> <Gold.PLP.Fitness>
52.1084

> <Gold.PLP.PLP>
-41.1292

> <Gold.PLP.part.hbond>
-1.0000

> <Gold.PLP.part.metal>
0.0000

> <Gold.PLP.part.buried>
-2.9404

> <Gold.PLP.part.nonpolar>
-37.7314

> <Gold.PLP.part.repulsive>
0.0373

> <Gold.PLP.ligand.clash>
0.0000

> <Gold.PLP.ligand.torsion>
0.9822

> <Gold.PLP.Chemscore.Hbond>
2.0000

> <Gold.PLP.Chemscore.CHOScore>
2.2904

> <Gold.PLP.Chemscore.Metal>
0.0000

> <Gold.Chemscore.Hbonds>
donor molecule, donor type, donor heavy atom, donor atom, acceptor molecule, acceptor atom, score
      L1  H     9    40       P1  8028  2.00
      L1  C    13    37       P1  7948  0.69
      L1  C    13    37       P1  7957  0.48
      L1  C    14    38       P1  7949  0.79

> <Gold.PLP.Chemscore.Internal.Correction>
0.0723

> <Gold.Rescore>
     Score         DG    S(hbond)    S(metal)    S(lipo)     H(rot)  DE(clash)    DE(int)     intcor
     16.33     -17.31       0.99        0.00     114.19       1.89       0.02       0.95       ----

> <Gold.Chemscore.Fitness>
16.3305

> <Gold.Chemscore.DG>
-17.3055

> <Gold.Chemscore.ZeroCoef>
-5.4800

> <Gold.Chemscore.Hbond>
0.9886

> <Gold.Chemscore.Metal>
0.0000

> <Gold.Chemscore.Lipo>
114.1941

> <Gold.Chemscore.Internal_Hbond>
0.0000

> <Gold.Chemscore.DEClash>
0.0215

> <Gold.Chemscore.DEInternal>
0.9536

> <Gold.Chemscore.Rot>
1.8895

> <Gold.Chemscore.Internal.Correction>
   9.000000E+99

> <Gold.Chemscore.Hbonds>
donor molecule, donor type, donor heavy atom, donor atom, acceptor molecule, acceptor atom, score
      L1  H     9    40       P1  8028  1.00

> <Gold.Chemscore.Hbond.Weighted>
-3.3019

> <Gold.Chemscore.Metal.Weighted>
-0.0000

> <Gold.Chemscore.Lipo.Weighted>
-13.3607

> <Gold.Chemscore.Internal_Hbond.Weighted>
0.0000

> <Gold.Chemscore.DEClash.Weighted>
0.0215

> <Gold.Chemscore.DEInternal.Weighted>
0.9536

> <Gold.Chemscore.Rot.Weighted>
4.8371

> <Gold.Chemscore.Internal.Correction.Weighted>
   9.000000E+99

> <Gold.Protein.RotatedTorsions>
[ 6907 6896 6895 6894 ] final  -53.37 input  -60.11 | X-H torsion
[ 7974 7965 7964 7962 ] final  -96.35 input  175.53 | X-H torsion
[ 8008 7997 7996 7995 ] final -171.76 input   59.86 | X-H torsion
[ 10167 10162 10161 10158 ] final  -13.12 input  -65.29 | X-H torsion
[ 10718 10713 10712 10709 ] final  160.09 input   66.30 | X-H torsion
[ 10763 10752 10751 10750 ] final  -97.59 input  -60.55 | X-H torsion
[ 11005 11000 10999 10996 ] final   61.30 input  -57.11 | X-H torsion

> <Gold.Protein.ActiveResidues>
 VAL166  LYS551  ARG553  GLY616  TRP617  ASP618  TYR619  PRO620  LYS621  CYS622 
 ASP623  PHE694  ASN695  SER759  ASP760  ASP761  ALA762  ILE779  LEU786  VAL792 
 PHE793  MET794  SER795  GLU796  ALA797  LYS798  CYS799  TRP800  GLU811  SER814 

> <Gold.Protein.RotatedAtoms>
  150.8433  134.7733  159.6949 H   0  0  0  0  0  0  0  0  0  0  0  0  # atno 6907 bound_to 6896
  152.4515  134.5379  159.9840 H   0  0  0  0  0  0  0  0  0  0  0  0  # atno 6908 bound_to 6896
  151.5515  133.3379  159.2989 H   0  0  0  0  0  0  0  0  0  0  0  0  # atno 6909 bound_to 6896
  145.3481  140.9472  143.2570 H   0  0  0  0  0  0  0  0  0  0  0  0  # atno 7974 bound_to 7965
  155.9357  140.1099  157.1096 H   0  0  0  0  0  0  0  0  0  0  0  0  # atno 8008 bound_to 7997
  154.4079  140.1229  156.4927 H   0  0  0  0  0  0  0  0  0  0  0  0  # atno 8009 bound_to 7997
  155.7024  140.3472  155.4941 H   0  0  0  0  0  0  0  0  0  0  0  0  # atno 8010 bound_to 7997
  140.7175  143.5460  150.9355 H   0  0  0  0  0  0  0  0  0  0  0  0  # atno 10167 bound_to 10162
  157.1552  131.0573  151.2260 H   0  0  0  0  0  0  0  0  0  0  0  0  # atno 10718 bound_to 10713
  154.7342  135.5040  153.9013 H   0  0  0  0  0  0  0  0  0  0  0  0  # atno 10763 bound_to 10752
  153.0978  135.6677  153.9737 H   0  0  0  0  0  0  0  0  0  0  0  0  # atno 10764 bound_to 10752
  153.9531  135.3055  155.3417 H   0  0  0  0  0  0  0  0  0  0  0  0  # atno 10765 bound_to 10752
  140.0171  134.6208  155.9694 H   0  0  0  0  0  0  0  0  0  0  0  0  # atno 11005 bound_to 11000
  144.8739  139.4999  143.6755 LP  0  0  0  0  0  0  0  0  0  0  0  0  # atno 17320 bound_to 7965
  146.2979  139.7336  142.9113 LP  0  0  0  0  0  0  0  0  0  0  0  0  # atno 17321 bound_to 7965
  139.9183  143.6636  152.3102 LP  0  0  0  0  0  0  0  0  0  0  0  0  # atno 17342 bound_to 10162
  139.7044  144.7630  151.1218 LP  0  0  0  0  0  0  0  0  0  0  0  0  # atno 17343 bound_to 10162
  157.4184  130.7424  149.6894 LP  0  0  0  0  0  0  0  0  0  0  0  0  # atno 17370 bound_to 10713
  155.9763  130.4077  150.3786 LP  0  0  0  0  0  0  0  0  0  0  0  0  # atno 17371 bound_to 10713
  141.1750  133.6539  156.4793 LP  0  0  0  0  0  0  0  0  0  0  0  0  # atno 17394 bound_to 11000
  140.4452  134.6979  157.5012 LP  0  0  0  0  0  0  0  0  0  0  0  0  # atno 17395 bound_to 11000

$$$$
