AV-unprocessed.smi:918|AV-procd|sdf|4163|dock10
  -GOLD-   22720 2 73D 1   1.00000     0.00000
 Structure written by MMmdl.
 31 32  0  0  0  0  0  0  0  0  2 V2000
  152.5976  136.5006  156.3067 O   0  0  0  0  0  0  0  0  0  0  0  0
  152.7485  137.7394  156.4018 C   0  0  0  0  0  0  0  0  0  0  0  0
  153.7090  138.2810  156.9872 O   0  5  0  0  0  0  0  0  0  0  0  0
  151.6026  138.6320  155.7075 C   0  0  0  0  0  0  0  0  0  0  0  0
  150.9515  138.0899  154.6547 C   0  0  0  0  0  0  0  0  0  0  0  0
  149.9177  138.8162  153.9787 C   0  0  0  0  0  0  0  0  0  0  0  0
  149.5890  140.0453  154.3900 C   0  0  0  0  0  0  0  0  0  0  0  0
  150.2562  140.6851  155.5217 C   0  0  0  0  0  0  0  0  0  0  0  0
  149.9003  141.8171  155.8424 O   0  0  0  0  0  0  0  0  0  0  0  0
  151.2519  139.9648  156.1598 N   0  0  0  0  0  0  0  0  0  0  0  0
  151.9921  140.5341  157.3272 C   0  0  0  0  0  0  0  0  0  0  0  0
  151.3907  140.5517  158.7493 C   0  0  0  0  0  0  0  0  0  0  0  0
  152.2285  141.3486  159.5756 O   0  0  0  0  0  0  0  0  0  0  0  0
  152.1344  142.7215  159.4768 C   0  0  0  0  0  0  0  0  0  0  0  0
  151.7450  143.4036  158.2952 C   0  0  0  0  0  0  0  0  0  0  0  0
  151.6721  144.8097  158.2716 C   0  0  0  0  0  0  0  0  0  0  0  0
  151.9859  145.5530  159.4238 C   0  0  0  0  0  0  0  0  0  0  0  0
  152.3731  144.8873  160.6009 C   0  0  0  0  0  0  0  0  0  0  0  0
  152.4469  143.4805  160.6272 C   0  0  0  0  0  0  0  0  0  0  0  0
  152.9254  142.6906  162.0870 Cl  0  0  0  0  0  0  0  0  0  0  0  0
  151.1876  137.1001  154.2921 H   0  0  0  0  0  0  0  0  0  0  0  0
  149.4057  138.3707  153.1387 H   0  0  0  0  0  0  0  0  0  0  0  0
  148.8076  140.5808  153.8706 H   0  0  0  0  0  0  0  0  0  0  0  0
  152.9312  139.9879  157.4189 H   0  0  0  0  0  0  0  0  0  0  0  0
  152.2173  141.5757  157.0974 H   0  0  0  0  0  0  0  0  0  0  0  0
  150.3898  140.9864  158.7345 H   0  0  0  0  0  0  0  0  0  0  0  0
  151.3480  139.5405  159.1576 H   0  0  0  0  0  0  0  0  0  0  0  0
  151.4964  142.8698  157.3907 H   0  0  0  0  0  0  0  0  0  0  0  0
  151.3745  145.3181  157.3664 H   0  0  0  0  0  0  0  0  0  0  0  0
  151.9297  146.6316  159.4048 H   0  0  0  0  0  0  0  0  0  0  0  0
  152.6141  145.4578  161.4859 H   0  0  0  0  0  0  0  0  0  0  0  0
  1  2  2  0  0  0  0
  2  3  1  0  0  0  0
  2  4  1  0  0  0  0
  4 10  1  0  0  0  0
  4  5  2  0  0  0  0
  5  6  1  0  0  0  0
  5 21  1  0  0  0  0
  6  7  2  0  0  0  0
  6 22  1  0  0  0  0
  7  8  1  0  0  0  0
  7 23  1  0  0  0  0
  8  9  2  0  0  0  0
  8 10  1  0  0  0  0
 10 11  1  0  0  0  0
 11 12  1  0  0  0  0
 11 24  1  0  0  0  0
 11 25  1  0  0  0  0
 12 13  1  0  0  0  0
 12 26  1  0  0  0  0
 12 27  1  0  0  0  0
 13 14  1  0  0  0  0
 14 19  1  0  0  0  0
 14 15  2  0  0  0  0
 15 16  1  0  0  0  0
 15 28  1  0  0  0  0
 16 17  2  0  0  0  0
 16 29  1  0  0  0  0
 17 18  1  0  0  0  0
 17 30  1  0  0  0  0
 18 19  2  0  0  0  0
 18 31  1  0  0  0  0
 19 20  1  0  0  0  0
M  CHG  1   3  -1
M  END
> <s_m_source_file>
AV-unprocessed.smi

> <i_m_source_file_index>
918

> <i_lp_mmshare_version>
43012

> <i_f3d_flags>
0

> <s_epik_input>
Tz1DKFtPSF0pYzFbY0hdW2NIXVtjSF1jKD1PKW4xW0NIMl1bQ0gyXU9jMltjSF1bY0hdW2NIXVtjSF1jMkNs

> <s_epik_cmdline>
J2VwaWtfcHl0aG9uJywgJy1waCcsICc3LjAnLCAnLXRuJywgJzgnLCAnLW1hJywgJzIwMCcsICctbWV0YWxfYmluZGluZycsICctaW1hZScsICc8aW5maWxlLm1hZT4nLCAnLW9tYWUnLCAnPG91dGZpbGUubWFlPic=

> <r_lp_tautomer_probability>
1

> <r_epik_Ionization_Penalty>
4.91901e-05

> <r_epik_Ionization_Penalty_Charging>
4.91901e-05

> <r_epik_Ionization_Penalty_Neutral>
0

> <r_epik_State_Penalty>
-0

> <r_epik_Charging_Adjusted_Penalty>
4.91901e-05

> <i_epik_Tot_Q>
-1

> <i_epik_Tot_abs_Q>
1

> <r_epik_Metal_State_Penalty>
-0

> <b_epik_Metal_Only>
0

> <s_lp_Force_Field>
OPLS_2005

> <r_lp_Energy>
37.328

> <b_lp_Chiralities_Consistent>
1

> <s_lp_Variant>
AV-unprocessed.smi:918-1

> <Gold.Version>
5.8.1

> <Gold.Id.Protein>
6NUR|6NUR_protein|mol2

> <Gold.PLP.Fitness>
55.9507

> <Gold.PLP.PLP>
-47.0185

> <Gold.PLP.part.hbond>
-2.0000

> <Gold.PLP.part.metal>
0.0000

> <Gold.PLP.part.buried>
-4.4884

> <Gold.PLP.part.nonpolar>
-41.6066

> <Gold.PLP.part.repulsive>
0.5021

> <Gold.PLP.ligand.clash>
0.0000

> <Gold.PLP.ligand.torsion>
1.0626

> <Gold.PLP.Chemscore.Hbond>
3.6480

> <Gold.PLP.Chemscore.CHOScore>
0.0000

> <Gold.PLP.Chemscore.Metal>
0.0000

> <Gold.Chemscore.Hbonds>
donor molecule, donor type, donor heavy atom, donor atom, acceptor molecule, acceptor atom, score
      P1  H  7997  8010       L1     3  1.60
      P1  H 10752 10765       L1     1  2.00

> <Gold.PLP.Chemscore.Internal.Correction>
0.1133

> <Gold.Rescore>
     Score         DG    S(hbond)    S(metal)    S(lipo)     H(rot)  DE(clash)    DE(int)     intcor
     17.61     -20.93       1.88        0.00     114.19       1.64       0.04       3.28       ----

> <Gold.Chemscore.Fitness>
17.6130

> <Gold.Chemscore.DG>
-20.9308

> <Gold.Chemscore.ZeroCoef>
-5.4800

> <Gold.Chemscore.Hbond>
1.8833

> <Gold.Chemscore.Metal>
0.0000

> <Gold.Chemscore.Lipo>
114.1892

> <Gold.Chemscore.Internal_Hbond>
0.0000

> <Gold.Chemscore.DEClash>
0.0361

> <Gold.Chemscore.DEInternal>
3.2818

> <Gold.Chemscore.Rot>
1.6405

> <Gold.Chemscore.Internal.Correction>
   9.000000E+99

> <Gold.Chemscore.Hbonds>
donor molecule, donor type, donor heavy atom, donor atom, acceptor molecule, acceptor atom, score
      P1  H  7997  8010       L1     3  0.79
      P1  H 10752 10765       L1     1  0.95

> <Gold.Chemscore.Hbond.Weighted>
-6.2902

> <Gold.Chemscore.Metal.Weighted>
-0.0000

> <Gold.Chemscore.Lipo.Weighted>
-13.3601

> <Gold.Chemscore.Internal_Hbond.Weighted>
0.0000

> <Gold.Chemscore.DEClash.Weighted>
0.0361

> <Gold.Chemscore.DEInternal.Weighted>
3.2818

> <Gold.Chemscore.Rot.Weighted>
4.1996

> <Gold.Chemscore.Internal.Correction.Weighted>
   9.000000E+99

> <Gold.Protein.RotatedTorsions>
[ 6907 6896 6895 6894 ] final   90.81 input  -60.11 | X-H torsion
[ 7974 7965 7964 7962 ] final   -1.44 input  175.53 | X-H torsion
[ 8008 7997 7996 7995 ] final   50.86 input   59.86 | X-H torsion
[ 10167 10162 10161 10158 ] final   15.08 input  -65.29 | X-H torsion
[ 10718 10713 10712 10709 ] final -120.07 input   66.30 | X-H torsion
[ 10763 10752 10751 10750 ] final -152.32 input  -60.55 | X-H torsion
[ 11005 11000 10999 10996 ] final -112.97 input  -57.11 | X-H torsion

> <Gold.Protein.ActiveResidues>
 VAL166  LYS551  ARG553  GLY616  TRP617  ASP618  TYR619  PRO620  LYS621  CYS622 
 ASP623  PHE694  ASN695  SER759  ASP760  ASP761  ALA762  ILE779  LEU786  VAL792 
 PHE793  MET794  SER795  GLU796  ALA797  LYS798  CYS799  TRP800  GLU811  SER814 

> <Gold.Protein.RotatedAtoms>
  152.5447  134.1754  159.8613 H   0  0  0  0  0  0  0  0  0  0  0  0  # atno 6907 bound_to 6896
  151.1760  133.4747  159.2601 H   0  0  0  0  0  0  0  0  0  0  0  0  # atno 6908 bound_to 6896
  151.1226  135.0099  159.8601 H   0  0  0  0  0  0  0  0  0  0  0  0  # atno 6909 bound_to 6896
  146.2417  140.1420  142.8335 H   0  0  0  0  0  0  0  0  0  0  0  0  # atno 7974 bound_to 7965
  155.4257  140.3448  155.4275 H   0  0  0  0  0  0  0  0  0  0  0  0  # atno 8008 bound_to 7997
  156.1366  140.1530  156.9015 H   0  0  0  0  0  0  0  0  0  0  0  0  # atno 8009 bound_to 7997
  154.4937  140.0834  156.7631 H   0  0  0  0  0  0  0  0  0  0  0  0  # atno 8010 bound_to 7997
  140.5891  143.8830  150.6857 H   0  0  0  0  0  0  0  0  0  0  0  0  # atno 10167 bound_to 10162
  156.1229  130.6337  150.9494 H   0  0  0  0  0  0  0  0  0  0  0  0  # atno 10718 bound_to 10713
  154.8002  135.3239  154.7569 H   0  0  0  0  0  0  0  0  0  0  0  0  # atno 10763 bound_to 10752
  153.8239  135.6885  153.4828 H   0  0  0  0  0  0  0  0  0  0  0  0  # atno 10764 bound_to 10752
  153.1714  135.4621  154.9851 H   0  0  0  0  0  0  0  0  0  0  0  0  # atno 10765 bound_to 10752
  141.0643  133.9485  157.2609 H   0  0  0  0  0  0  0  0  0  0  0  0  # atno 11005 bound_to 11000
  145.0238  140.8815  143.5150 LP  0  0  0  0  0  0  0  0  0  0  0  0  # atno 17320 bound_to 7965
  145.1473  139.2535  143.5459 LP  0  0  0  0  0  0  0  0  0  0  0  0  # atno 17321 bound_to 7965
  140.2348  143.3708  152.1535 LP  0  0  0  0  0  0  0  0  0  0  0  0  # atno 17342 bound_to 10162
  139.5216  144.7048  151.5385 LP  0  0  0  0  0  0  0  0  0  0  0  0  # atno 17343 bound_to 10162
  157.6412  131.0910  150.8247 LP  0  0  0  0  0  0  0  0  0  0  0  0  # atno 17370 bound_to 10713
  156.8341  130.5026  149.5328 LP  0  0  0  0  0  0  0  0  0  0  0  0  # atno 17371 bound_to 10713
  139.9461  135.0184  156.8857 LP  0  0  0  0  0  0  0  0  0  0  0  0  # atno 17394 bound_to 11000
  140.5806  134.0356  155.7462 LP  0  0  0  0  0  0  0  0  0  0  0  0  # atno 17395 bound_to 11000

$$$$
