AV-unprocessed.smi:658|AV-procd|sdf|3231|dock8
  -GOLD-   22720 0173D 1   1.00000     0.00000
 Structure written by MMmdl.
 38 38  0  0  0  0  0  0  0  0  2 V2000
  148.6787  137.0122  155.7422 C   0  0  0  0  0  0  0  0  0  0  0  0
  150.1332  136.8410  155.2671 C   0  0  1  0  0  0  0  0  0  0  0  0
  150.1986  135.6813  154.3488 N   0  3  0  0  0  0  0  0  0  0  0  0
  149.7285  134.4041  154.9240 C   0  0  0  0  0  0  0  0  0  0  0  0
  149.5599  133.3396  153.8336 C   0  0  0  0  0  0  0  0  0  0  0  0
  148.1693  133.3761  153.1871 C   0  0  0  0  0  0  0  0  0  0  0  0
  147.2453  131.8242  153.5440 S   0  0  0  0  0  0  0  0  0  0  0  0
  148.2475  130.6164  152.8408 N   0  0  0  0  0  0  0  0  0  0  0  0
  147.2379  131.6099  154.9988 O   0  0  0  0  0  0  0  0  0  0  0  0
  145.9818  131.8517  152.7922 O   0  0  0  0  0  0  0  0  0  0  0  0
  150.7028  138.1124  154.5824 C   0  0  2  0  0  0  0  0  0  0  0  0
  152.1982  137.9963  154.2340 C   0  0  0  0  0  0  0  0  0  0  0  0
  150.4769  139.3059  155.3886 N   0  0  0  0  0  0  0  0  0  0  0  0
  150.2068  139.3978  156.7398 C   0  0  0  0  0  0  0  0  0  0  0  0
  150.0598  140.7219  157.0380 C   0  0  0  0  0  0  0  0  0  0  0  0
  150.2555  141.3732  155.7886 C   0  0  0  0  0  0  0  0  0  0  0  0
  150.5020  140.5238  154.8043 N   0  0  0  0  0  0  0  0  0  0  0  0
  148.5884  137.7842  156.5069 H   0  0  0  0  0  0  0  0  0  0  0  0
  148.2984  136.0878  156.1783 H   0  0  0  0  0  0  0  0  0  0  0  0
  148.0214  137.2843  154.9157 H   0  0  0  0  0  0  0  0  0  0  0  0
  150.7322  136.6273  156.1542 H   0  0  0  0  0  0  0  0  0  0  0  0
  149.6242  135.8866  153.5439 H   0  0  0  0  0  0  0  0  0  0  0  0
  150.4384  134.0560  155.6749 H   0  0  0  0  0  0  0  0  0  0  0  0
  148.7782  134.5712  155.4325 H   0  0  0  0  0  0  0  0  0  0  0  0
  150.3199  133.4814  153.0640 H   0  0  0  0  0  0  0  0  0  0  0  0
  149.7328  132.3509  154.2605 H   0  0  0  0  0  0  0  0  0  0  0  0
  147.5845  134.2140  153.5674 H   0  0  0  0  0  0  0  0  0  0  0  0
  148.2462  133.4850  152.1049 H   0  0  0  0  0  0  0  0  0  0  0  0
  148.3919  130.7484  151.8400 H   0  0  0  0  0  0  0  0  0  0  0  0
  147.9827  129.6692  153.1100 H   0  0  0  0  0  0  0  0  0  0  0  0
  150.1646  138.2521  153.6426 H   0  0  0  0  0  0  0  0  0  0  0  0
  152.3793  137.2052  153.5064 H   0  0  0  0  0  0  0  0  0  0  0  0
  152.8005  137.7812  155.1172 H   0  0  0  0  0  0  0  0  0  0  0  0
  152.5705  138.9233  153.7964 H   0  0  0  0  0  0  0  0  0  0  0  0
  150.1427  138.5235  157.3706 H   0  0  0  0  0  0  0  0  0  0  0  0
  149.8443  141.1589  158.0018 H   0  0  0  0  0  0  0  0  0  0  0  0
  150.2249  142.4303  155.5691 H   0  0  0  0  0  0  0  0  0  0  0  0
  151.1536  135.5719  154.0385 H   0  0  0  0  0  0  0  0  0  0  0  0
  1  2  1  0  0  0  0
  1 18  1  0  0  0  0
  1 19  1  0  0  0  0
  1 20  1  0  0  0  0
  2  3  1  0  0  0  0
  2 11  1  0  0  0  0
  2 21  1  0  0  0  0
  3  4  1  0  0  0  0
  3 22  1  0  0  0  0
  3 38  1  0  0  0  0
  4  5  1  0  0  0  0
  4 23  1  0  0  0  0
  4 24  1  0  0  0  0
  5  6  1  0  0  0  0
  5 25  1  0  0  0  0
  5 26  1  0  0  0  0
  6  7  1  0  0  0  0
  6 27  1  0  0  0  0
  6 28  1  0  0  0  0
  7  8  1  0  0  0  0
  7  9  2  0  0  0  0
  7 10  2  0  0  0  0
  8 29  1  0  0  0  0
  8 30  1  0  0  0  0
 11 12  1  0  0  0  0
 11 13  1  0  0  0  0
 11 31  1  0  0  0  0
 12 32  1  0  0  0  0
 12 33  1  0  0  0  0
 12 34  1  0  0  0  0
 13 17  1  0  0  0  0
 13 14  1  0  0  0  0
 14 15  2  0  0  0  0
 14 35  1  0  0  0  0
 15 16  1  0  0  0  0
 15 36  1  0  0  0  0
 16 17  2  0  0  0  0
 16 37  1  0  0  0  0
M  CHG  1   3   1
M  END
> <s_m_source_file>
AV-unprocessed.smi

> <i_m_source_file_index>
658

> <i_lp_mmshare_version>
43012

> <i_f3d_flags>
0

> <s_epik_input>
bjFbY0hdW2NIXVtjSF1uMVtDQEBIXShbQ0gzXSlbQ0BIXShbQ0gzXSlbTkhdW0NIMl1bQ0gyXVtDSDJdUyg9TykoPU8pW05IMl0=

> <s_epik_cmdline>
J2VwaWtfcHl0aG9uJywgJy1waCcsICc3LjAnLCAnLXRuJywgJzgnLCAnLW1hJywgJzIwMCcsICctbWV0YWxfYmluZGluZycsICctaW1hZScsICc8aW5maWxlLm1hZT4nLCAnLW9tYWUnLCAnPG91dGZpbGUubWFlPic=

> <r_lp_tautomer_probability>
1

> <r_epik_Ionization_Penalty>
0.00535781

> <r_epik_Ionization_Penalty_Charging>
0.00511015

> <r_epik_Ionization_Penalty_Neutral>
0.000247661

> <r_epik_State_Penalty>
-0

> <r_epik_Charging_Adjusted_Penalty>
0.00511015

> <i_epik_Tot_Q>
1

> <i_epik_Tot_abs_Q>
1

> <r_epik_Metal_State_Penalty>
0.149106

> <b_epik_Metal_Only>
0

> <s_lp_Force_Field>
OPLS_2005

> <r_lp_Energy>
8.89673

> <b_lp_Chiralities_Consistent>
1

> <s_lp_Variant>
AV-unprocessed.smi:658-2

> <Gold.Version>
5.8.1

> <Gold.Id.Protein>
6NUR|6NUR_protein|mol2

> <Gold.PLP.Fitness>
39.1789

> <Gold.PLP.PLP>
-26.2461

> <Gold.PLP.part.hbond>
-3.8334

> <Gold.PLP.part.metal>
0.0000

> <Gold.PLP.part.buried>
-3.3964

> <Gold.PLP.part.nonpolar>
-20.0355

> <Gold.PLP.part.repulsive>
0.3814

> <Gold.PLP.ligand.clash>
0.0000

> <Gold.PLP.ligand.torsion>
1.1274

> <Gold.PLP.Chemscore.Hbond>
3.9600

> <Gold.PLP.Chemscore.CHOScore>
1.0000

> <Gold.PLP.Chemscore.Metal>
0.0000

> <Gold.Chemscore.Hbonds>
donor molecule, donor type, donor heavy atom, donor atom, acceptor molecule, acceptor atom, score
      L1  H     3    22       P1  7948  1.90
      L1  H     8    29       P1 10747  1.00
      P1  H  7989  7998       L1    17  1.00
      L1  C    16    37       P1  8028  0.70

> <Gold.PLP.Chemscore.Internal.Correction>
0.3076

> <Gold.Rescore>
     Score         DG    S(hbond)    S(metal)    S(lipo)     H(rot)  DE(clash)    DE(int)     intcor
     10.12     -11.42       2.30        0.00      53.46       3.13       0.03       1.26       ----

> <Gold.Chemscore.Fitness>
10.1207

> <Gold.Chemscore.DG>
-11.4154

> <Gold.Chemscore.ZeroCoef>
-5.4800

> <Gold.Chemscore.Hbond>
2.3045

> <Gold.Chemscore.Metal>
0.0000

> <Gold.Chemscore.Lipo>
53.4558

> <Gold.Chemscore.Internal_Hbond>
0.0000

> <Gold.Chemscore.DEClash>
0.0327

> <Gold.Chemscore.DEInternal>
1.2620

> <Gold.Chemscore.Rot>
3.1312

> <Gold.Chemscore.Internal.Correction>
   9.000000E+99

> <Gold.Chemscore.Hbonds>
donor molecule, donor type, donor heavy atom, donor atom, acceptor molecule, acceptor atom, score
      L1  H     3    22       P1  7948  0.22
      L1  H     8    29       P1 10747  0.98
      P1  H  7989  7998       L1    17  0.92

> <Gold.Chemscore.Hbond.Weighted>
-7.6970

> <Gold.Chemscore.Metal.Weighted>
-0.0000

> <Gold.Chemscore.Lipo.Weighted>
-6.2543

> <Gold.Chemscore.Internal_Hbond.Weighted>
0.0000

> <Gold.Chemscore.DEClash.Weighted>
0.0327

> <Gold.Chemscore.DEInternal.Weighted>
1.2620

> <Gold.Chemscore.Rot.Weighted>
8.0160

> <Gold.Chemscore.Internal.Correction.Weighted>
   9.000000E+99

> <Gold.Protein.RotatedTorsions>
[ 6907 6896 6895 6894 ] final   55.35 input  -60.11 | X-H torsion
[ 7974 7965 7964 7962 ] final -148.93 input  175.53 | X-H torsion
[ 8008 7997 7996 7995 ] final  -33.25 input   59.86 | X-H torsion
[ 10167 10162 10161 10158 ] final  -53.84 input  -65.29 | X-H torsion
[ 10718 10713 10712 10709 ] final   72.02 input   66.30 | X-H torsion
[ 10763 10752 10751 10750 ] final  -55.87 input  -60.55 | X-H torsion
[ 11005 11000 10999 10996 ] final  -49.51 input  -57.11 | X-H torsion

> <Gold.Protein.ActiveResidues>
 VAL166  LYS551  ARG553  GLY616  TRP617  ASP618  TYR619  PRO620  LYS621  CYS622 
 ASP623  PHE694  ASN695  SER759  ASP760  ASP761  ALA762  ILE779  LEU786  VAL792 
 PHE793  MET794  SER795  GLU796  ALA797  LYS798  CYS799  TRP800  GLU811  SER814 

> <Gold.Protein.RotatedAtoms>
  152.3530  134.6980  160.0230 H   0  0  0  0  0  0  0  0  0  0  0  0  # atno 6907 bound_to 6896
  151.7327  133.3313  159.3353 H   0  0  0  0  0  0  0  0  0  0  0  0  # atno 6908 bound_to 6896
  150.7552  134.6282  159.6217 H   0  0  0  0  0  0  0  0  0  0  0  0  # atno 6909 bound_to 6896
  144.7999  140.5132  143.5714 H   0  0  0  0  0  0  0  0  0  0  0  0  # atno 7974 bound_to 7965
  154.4154  140.1715  156.1858 H   0  0  0  0  0  0  0  0  0  0  0  0  # atno 8008 bound_to 7997
  155.9644  140.3391  155.6495 H   0  0  0  0  0  0  0  0  0  0  0  0  # atno 8009 bound_to 7997
  155.6707  140.0711  157.2512 H   0  0  0  0  0  0  0  0  0  0  0  0  # atno 8010 bound_to 7997
  140.6463  143.2537  151.4850 H   0  0  0  0  0  0  0  0  0  0  0  0  # atno 10167 bound_to 10162
  157.6480  130.9557  150.0870 H   0  0  0  0  0  0  0  0  0  0  0  0  # atno 10718 bound_to 10713
  154.1976  135.6416  153.5078 H   0  0  0  0  0  0  0  0  0  0  0  0  # atno 10763 bound_to 10752
  153.0020  135.5443  154.6349 H   0  0  0  0  0  0  0  0  0  0  0  0  # atno 10764 bound_to 10752
  154.5754  135.2920  155.0759 H   0  0  0  0  0  0  0  0  0  0  0  0  # atno 10765 bound_to 10752
  141.0763  133.6665  156.3597 H   0  0  0  0  0  0  0  0  0  0  0  0  # atno 11005 bound_to 11000
  145.5580  139.1478  143.3357 LP  0  0  0  0  0  0  0  0  0  0  0  0  # atno 17320 bound_to 7965
  146.2277  140.5716  142.8989 LP  0  0  0  0  0  0  0  0  0  0  0  0  # atno 17321 bound_to 7965
  139.5674  144.2010  152.1785 LP  0  0  0  0  0  0  0  0  0  0  0  0  # atno 17342 bound_to 10162
  140.1295  144.5301  150.6811 LP  0  0  0  0  0  0  0  0  0  0  0  0  # atno 17343 bound_to 10162
  156.1830  130.3651  149.9010 LP  0  0  0  0  0  0  0  0  0  0  0  0  # atno 17370 bound_to 10713
  156.6958  130.8913  151.3593 LP  0  0  0  0  0  0  0  0  0  0  0  0  # atno 17371 bound_to 10713
  140.5565  134.5976  157.5422 LP  0  0  0  0  0  0  0  0  0  0  0  0  # atno 17394 bound_to 11000
  139.9576  134.7508  156.0308 LP  0  0  0  0  0  0  0  0  0  0  0  0  # atno 17395 bound_to 11000

$$$$
