AV-unprocessed.smi:3004|AV-procd|sdf|11440|dock5
  -GOLD-   2272016373D 1   1.00000     0.00000
 Structure written by MMmdl.
 47 48  0  0  0  0  0  0  0  0  2 V2000
  150.9827  141.9994  157.1706 C   0  0  0  0  0  0  0  0  0  0  0  0
  150.9902  140.8239  156.2387 C   0  0  0  0  0  0  0  0  0  0  0  0
  152.0877  139.9958  155.8719 C   0  0  0  0  0  0  0  0  0  0  0  0
  151.5511  139.0893  155.0017 C   0  0  0  0  0  0  0  0  0  0  0  0
  152.1957  137.9580  154.2701 C   0  0  0  0  0  0  0  0  0  0  0  0
  150.2063  139.3937  154.8840 N   0  0  0  0  0  0  0  0  0  0  0  0
  149.1811  138.7352  154.0878 C   0  0  0  0  0  0  0  0  0  0  0  0
  148.4261  137.6827  154.9023 C   0  0  0  0  0  0  0  0  0  0  0  0
  147.8728  137.9995  155.9552 O   0  0  0  0  0  0  0  0  0  0  0  0
  148.4072  136.4351  154.4071 N   0  0  0  0  0  0  0  0  0  0  0  0
  147.7245  135.3024  155.0189 C   0  0  0  0  0  0  0  0  0  0  0  0
  147.7862  134.0543  154.1157 C   0  0  0  0  0  0  0  0  0  0  0  0
  147.0785  134.2283  152.8182 N   0  3  1  0  0  0  0  0  0  0  0  0
  146.8676  132.9306  152.1205 C   0  0  0  0  0  0  0  0  0  0  0  0
  146.3426  133.1401  150.6913 C   0  0  0  0  0  0  0  0  0  0  0  0
  145.0563  133.9729  150.6935 C   0  0  0  0  0  0  0  0  0  0  0  0
  145.2941  135.2961  151.4341 C   0  0  0  0  0  0  0  0  0  0  0  0
  145.8458  135.0773  152.8593 C   0  0  1  0  0  0  0  0  0  0  0  0
  144.7642  134.5522  153.8281 C   0  0  0  0  0  0  0  0  0  0  0  0
  149.8662  140.4563  155.6462 N   0  0  0  0  0  0  0  0  0  0  0  0
  151.9429  142.1086  157.6755 H   0  0  0  0  0  0  0  0  0  0  0  0
  150.2160  141.8897  157.9377 H   0  0  0  0  0  0  0  0  0  0  0  0
  150.7851  142.9256  156.6306 H   0  0  0  0  0  0  0  0  0  0  0  0
  153.1157  140.0599  156.1972 H   0  0  0  0  0  0  0  0  0  0  0  0
  153.2579  137.8960  154.5073 H   0  0  0  0  0  0  0  0  0  0  0  0
  152.1000  138.0870  153.1920 H   0  0  0  0  0  0  0  0  0  0  0  0
  151.7368  137.0072  154.5413 H   0  0  0  0  0  0  0  0  0  0  0  0
  148.4780  139.4785  153.7084 H   0  0  0  0  0  0  0  0  0  0  0  0
  149.6521  138.2726  153.2196 H   0  0  0  0  0  0  0  0  0  0  0  0
  148.8900  136.2661  153.5359 H   0  0  0  0  0  0  0  0  0  0  0  0
  148.2183  135.1175  155.9721 H   0  0  0  0  0  0  0  0  0  0  0  0
  146.6895  135.5657  155.2442 H   0  0  0  0  0  0  0  0  0  0  0  0
  148.8339  133.8415  153.8991 H   0  0  0  0  0  0  0  0  0  0  0  0
  147.4092  133.1775  154.6424 H   0  0  0  0  0  0  0  0  0  0  0  0
  147.8106  132.3851  152.0689 H   0  0  0  0  0  0  0  0  0  0  0  0
  146.1805  132.3048  152.6910 H   0  0  0  0  0  0  0  0  0  0  0  0
  147.1032  133.6428  150.0922 H   0  0  0  0  0  0  0  0  0  0  0  0
  146.1616  132.1759  150.2151 H   0  0  0  0  0  0  0  0  0  0  0  0
  144.7344  134.1685  149.6701 H   0  0  0  0  0  0  0  0  0  0  0  0
  144.2505  133.4135  151.1698 H   0  0  0  0  0  0  0  0  0  0  0  0
  146.0047  135.8970  150.8643 H   0  0  0  0  0  0  0  0  0  0  0  0
  144.3708  135.8757  151.4686 H   0  0  0  0  0  0  0  0  0  0  0  0
  146.1349  136.0658  153.2142 H   0  0  0  0  0  0  0  0  0  0  0  0
  143.8828  135.1936  153.8029 H   0  0  0  0  0  0  0  0  0  0  0  0
  145.1135  134.5434  154.8602 H   0  0  0  0  0  0  0  0  0  0  0  0
  144.4370  133.5434  153.5779 H   0  0  0  0  0  0  0  0  0  0  0  0
  147.7282  134.7333  152.2323 H   0  0  0  0  0  0  0  0  0  0  0  0
  1  2  1  0  0  0  0
  1 21  1  0  0  0  0
  1 22  1  0  0  0  0
  1 23  1  0  0  0  0
  2 20  2  0  0  0  0
  2  3  1  0  0  0  0
  3  4  2  0  0  0  0
  3 24  1  0  0  0  0
  4  5  1  0  0  0  0
  4  6  1  0  0  0  0
  5 25  1  0  0  0  0
  5 26  1  0  0  0  0
  5 27  1  0  0  0  0
  6  7  1  0  0  0  0
  6 20  1  0  0  0  0
  7  8  1  0  0  0  0
  7 28  1  0  0  0  0
  7 29  1  0  0  0  0
  8  9  2  0  0  0  0
  8 10  1  0  0  0  0
 10 11  1  0  0  0  0
 10 30  1  0  0  0  0
 11 12  1  0  0  0  0
 11 31  1  0  0  0  0
 11 32  1  0  0  0  0
 12 13  1  0  0  0  0
 12 33  1  0  0  0  0
 12 34  1  0  0  0  0
 13 18  1  0  0  0  0
 13 14  1  0  0  0  0
 13 47  1  0  0  0  0
 14 15  1  0  0  0  0
 14 35  1  0  0  0  0
 14 36  1  0  0  0  0
 15 16  1  0  0  0  0
 15 37  1  0  0  0  0
 15 38  1  0  0  0  0
 16 17  1  0  0  0  0
 16 39  1  0  0  0  0
 16 40  1  0  0  0  0
 17 18  1  0  0  0  0
 17 41  1  0  0  0  0
 17 42  1  0  0  0  0
 18 19  1  0  0  0  0
 18 43  1  0  0  0  0
 19 44  1  0  0  0  0
 19 45  1  0  0  0  0
 19 46  1  0  0  0  0
M  CHG  1  13   1
M  END
> <s_m_source_file>
AV-unprocessed.smi

> <i_m_source_file_index>
3004

> <i_lp_mmshare_version>
43012

> <i_f3d_flags>
0

> <s_epik_input>
W0NIM11jMVtjSF1jKFtDSDNdKW4objEpW0NIMl1DKD1PKVtOSF1bQ0gyXVtDSDJdTjJbQ0gyXVtDSDJdW0NIMl1bQ0gyXVtDQEhdMltDSDNd

> <s_epik_cmdline>
J2VwaWtfcHl0aG9uJywgJy1waCcsICc3LjAnLCAnLXRuJywgJzgnLCAnLW1hJywgJzIwMCcsICctbWV0YWxfYmluZGluZycsICctaW1hZScsICc8aW5maWxlLm1hZT4nLCAnLW9tYWUnLCAnPG91dGZpbGUubWFlPic=

> <r_lp_tautomer_probability>
1

> <r_epik_Ionization_Penalty>
0.00303644

> <r_epik_Ionization_Penalty_Charging>
0.00284254

> <r_epik_Ionization_Penalty_Neutral>
0.000193908

> <r_epik_State_Penalty>
-0

> <r_epik_Charging_Adjusted_Penalty>
0.00284254

> <i_epik_Tot_Q>
1

> <i_epik_Tot_abs_Q>
1

> <r_epik_Metal_State_Penalty>
-0

> <b_epik_Metal_Only>
0

> <s_lp_Force_Field>
OPLS_2005

> <r_lp_Energy>
17.9546

> <b_lp_Chiralities_Consistent>
1

> <s_lp_Variant>
AV-unprocessed.smi:3004-2

> <Gold.Version>
5.8.1

> <Gold.Id.Protein>
6NUR|6NUR_protein|mol2

> <Gold.PLP.Fitness>
42.5421

> <Gold.PLP.PLP>
-34.6443

> <Gold.PLP.part.hbond>
-2.0000

> <Gold.PLP.part.metal>
0.0000

> <Gold.PLP.part.buried>
-2.0937

> <Gold.PLP.part.nonpolar>
-30.4761

> <Gold.PLP.part.repulsive>
0.0907

> <Gold.PLP.ligand.clash>
0.0000

> <Gold.PLP.ligand.torsion>
0.5827

> <Gold.PLP.Chemscore.Hbond>
3.0000

> <Gold.PLP.Chemscore.CHOScore>
0.0000

> <Gold.PLP.Chemscore.Metal>
0.0000

> <Gold.Chemscore.Hbonds>
donor molecule, donor type, donor heavy atom, donor atom, acceptor molecule, acceptor atom, score
      L1  H    10    30       P1  7948  1.00
      L1  H    13    47       P1  7948  2.00

> <Gold.PLP.Chemscore.Internal.Correction>
0.0632

> <Gold.Rescore>
     Score         DG    S(hbond)    S(metal)    S(lipo)     H(rot)  DE(clash)    DE(int)     intcor
     16.60     -17.08       1.97        0.00      79.32       1.67       0.07       0.41       ----

> <Gold.Chemscore.Fitness>
16.5996

> <Gold.Chemscore.DG>
-17.0831

> <Gold.Chemscore.ZeroCoef>
-5.4800

> <Gold.Chemscore.Hbond>
1.9723

> <Gold.Chemscore.Metal>
0.0000

> <Gold.Chemscore.Lipo>
79.3150

> <Gold.Chemscore.Internal_Hbond>
0.0000

> <Gold.Chemscore.DEClash>
0.0713

> <Gold.Chemscore.DEInternal>
0.4122

> <Gold.Chemscore.Rot>
1.6657

> <Gold.Chemscore.Internal.Correction>
   9.000000E+99

> <Gold.Chemscore.Hbonds>
donor molecule, donor type, donor heavy atom, donor atom, acceptor molecule, acceptor atom, score
      L1  H    10    30       P1  7948  0.96
      L1  H    13    47       P1  7948  0.68

> <Gold.Chemscore.Hbond.Weighted>
-6.5873

> <Gold.Chemscore.Metal.Weighted>
-0.0000

> <Gold.Chemscore.Lipo.Weighted>
-9.2799

> <Gold.Chemscore.Internal_Hbond.Weighted>
0.0000

> <Gold.Chemscore.DEClash.Weighted>
0.0713

> <Gold.Chemscore.DEInternal.Weighted>
0.4122

> <Gold.Chemscore.Rot.Weighted>
4.2641

> <Gold.Chemscore.Internal.Correction.Weighted>
   9.000000E+99

> <Gold.Protein.RotatedTorsions>
[ 6907 6896 6895 6894 ] final -155.93 input  -60.11 | X-H torsion
[ 7974 7965 7964 7962 ] final  116.13 input  175.53 | X-H torsion
[ 8008 7997 7996 7995 ] final  154.79 input   59.86 | X-H torsion
[ 10167 10162 10161 10158 ] final   36.84 input  -65.29 | X-H torsion
[ 10718 10713 10712 10709 ] final   45.09 input   66.30 | X-H torsion
[ 10763 10752 10751 10750 ] final  -14.22 input  -60.55 | X-H torsion
[ 11005 11000 10999 10996 ] final -119.55 input  -57.11 | X-H torsion

> <Gold.Protein.ActiveResidues>
 VAL166  LYS551  ARG553  GLY616  TRP617  ASP618  TYR619  PRO620  LYS621  CYS622 
 ASP623  PHE694  ASN695  SER759  ASP760  ASP761  ALA762  ILE779  LEU786  VAL792 
 PHE793  MET794  SER795  GLU796  ALA797  LYS798  CYS799  TRP800  GLU811  SER814 

> <Gold.Protein.RotatedAtoms>
  151.2799  133.4214  159.2626 H   0  0  0  0  0  0  0  0  0  0  0  0  # atno 6907 bound_to 6896
  151.0370  134.9580  159.8151 H   0  0  0  0  0  0  0  0  0  0  0  0  # atno 6908 bound_to 6896
  152.5357  134.2759  159.9041 H   0  0  0  0  0  0  0  0  0  0  0  0  # atno 6909 bound_to 6896
  145.1834  139.3038  143.4406 H   0  0  0  0  0  0  0  0  0  0  0  0  # atno 7974 bound_to 7965
  156.2512  140.1957  156.6702 H   0  0  0  0  0  0  0  0  0  0  0  0  # atno 8008 bound_to 7997
  154.6399  140.0585  156.9858 H   0  0  0  0  0  0  0  0  0  0  0  0  # atno 8009 bound_to 7997
  155.1579  140.3257  155.4420 H   0  0  0  0  0  0  0  0  0  0  0  0  # atno 8010 bound_to 7997
  140.4089  144.1620  150.6138 H   0  0  0  0  0  0  0  0  0  0  0  0  # atno 10167 bound_to 10162
  157.4338  130.8040  149.7628 H   0  0  0  0  0  0  0  0  0  0  0  0  # atno 10718 bound_to 10713
  153.5250  135.7015  153.5712 H   0  0  0  0  0  0  0  0  0  0  0  0  # atno 10763 bound_to 10752
  153.3744  135.3936  155.1812 H   0  0  0  0  0  0  0  0  0  0  0  0  # atno 10764 bound_to 10752
  154.8691  135.3820  154.4742 H   0  0  0  0  0  0  0  0  0  0  0  0  # atno 10765 bound_to 10752
  141.0207  134.0128  157.3286 H   0  0  0  0  0  0  0  0  0  0  0  0  # atno 11005 bound_to 11000
  146.3449  140.2021  142.8589 LP  0  0  0  0  0  0  0  0  0  0  0  0  # atno 17320 bound_to 7965
  145.0113  140.8717  143.5222 LP  0  0  0  0  0  0  0  0  0  0  0  0  # atno 17321 bound_to 7965
  140.4659  143.2431  151.9155 LP  0  0  0  0  0  0  0  0  0  0  0  0  # atno 17342 bound_to 10162
  139.4783  144.5419  151.8515 LP  0  0  0  0  0  0  0  0  0  0  0  0  # atno 17343 bound_to 10162
  155.9923  130.3932  150.2948 LP  0  0  0  0  0  0  0  0  0  0  0  0  # atno 17370 bound_to 10713
  157.1107  131.0220  151.3049 LP  0  0  0  0  0  0  0  0  0  0  0  0  # atno 17371 bound_to 10713
  139.9144  135.0195  156.7823 LP  0  0  0  0  0  0  0  0  0  0  0  0  # atno 17394 bound_to 11000
  140.6577  133.9673  155.7788 LP  0  0  0  0  0  0  0  0  0  0  0  0  # atno 17395 bound_to 11000

$$$$
