AV-unprocessed.smi:2586|AV-procd|sdf|10145|dock5
  -GOLD-   2272014153D 1   1.00000     0.00000
 Structure written by MMmdl.
 30 31  0  0  0  0  0  0  0  0  1 V2000
  144.0356  131.8516  150.4144 C   0  0  0  0  0  0  0  0  0  0  0  0
  144.4113  133.2076  150.2052 O   0  0  0  0  0  0  0  0  0  0  0  0
  145.3105  133.7833  151.1593 C   0  0  0  0  0  0  0  0  0  0  0  0
  146.6260  133.0011  151.2564 C   0  0  0  0  0  0  0  0  0  0  0  0
  147.5611  133.6729  152.1537 N   0  0  0  0  0  0  0  0  0  0  0  0
  148.1244  133.1313  153.2424 C   0  0  0  0  0  0  0  0  0  0  0  0
  147.8785  131.9930  153.6415 O   0  0  0  0  0  0  0  0  0  0  0  0
  148.9821  133.9914  153.8184 N   0  0  0  0  0  0  0  0  0  0  0  0
  149.7525  133.8093  154.9221 C   0  0  0  0  0  0  0  0  0  0  0  0
  150.5601  134.7451  155.5101 C   0  0  0  0  0  0  0  0  0  0  0  0
  151.2464  134.2821  156.6443 N   0  0  0  0  0  0  0  0  0  0  0  0
  150.9987  133.0418  156.9473 N   0  0  0  0  0  0  0  0  0  0  0  0
  149.9143  132.3622  155.8678 S   0  0  0  0  0  0  0  0  0  0  0  0
  145.3872  135.2906  150.8512 C   0  0  0  0  0  0  0  0  0  0  0  0
  144.2149  135.5195  151.8070 C   0  0  0  0  0  0  0  0  0  0  0  0
  144.5641  134.1767  152.4516 C   0  0  0  0  0  0  0  0  0  0  0  0
  143.2567  131.5846  149.7006 H   0  0  0  0  0  0  0  0  0  0  0  0
  143.6396  131.6793  151.4146 H   0  0  0  0  0  0  0  0  0  0  0  0
  144.8689  131.1700  150.2485 H   0  0  0  0  0  0  0  0  0  0  0  0
  146.4392  132.0079  151.6658 H   0  0  0  0  0  0  0  0  0  0  0  0
  147.0538  132.8279  150.2683 H   0  0  0  0  0  0  0  0  0  0  0  0
  147.8245  134.6148  151.9039 H   0  0  0  0  0  0  0  0  0  0  0  0
  149.0786  134.8900  153.3688 H   0  0  0  0  0  0  0  0  0  0  0  0
  150.7114  135.7662  155.1926 H   0  0  0  0  0  0  0  0  0  0  0  0
  146.3105  135.7487  151.2094 H   0  0  0  0  0  0  0  0  0  0  0  0
  145.1883  135.5600  149.8133 H   0  0  0  0  0  0  0  0  0  0  0  0
  144.3207  136.3838  152.4634 H   0  0  0  0  0  0  0  0  0  0  0  0
  143.2483  135.5081  151.3012 H   0  0  0  0  0  0  0  0  0  0  0  0
  143.6982  133.5689  152.7120 H   0  0  0  0  0  0  0  0  0  0  0  0
  145.2341  134.2904  153.3054 H   0  0  0  0  0  0  0  0  0  0  0  0
  1  2  1  0  0  0  0
  1 17  1  0  0  0  0
  1 18  1  0  0  0  0
  1 19  1  0  0  0  0
  2  3  1  0  0  0  0
  3 16  1  0  0  0  0
  3  4  1  0  0  0  0
  3 14  1  0  0  0  0
  4  5  1  0  0  0  0
  4 20  1  0  0  0  0
  4 21  1  0  0  0  0
  5  6  1  0  0  0  0
  5 22  1  0  0  0  0
  6  7  2  0  0  0  0
  6  8  1  0  0  0  0
  8  9  1  0  0  0  0
  8 23  1  0  0  0  0
  9 13  1  0  0  0  0
  9 10  2  0  0  0  0
 10 11  1  0  0  0  0
 10 24  1  0  0  0  0
 11 12  2  0  0  0  0
 12 13  1  0  0  0  0
 14 15  1  0  0  0  0
 14 25  1  0  0  0  0
 14 26  1  0  0  0  0
 15 16  1  0  0  0  0
 15 27  1  0  0  0  0
 15 28  1  0  0  0  0
 16 29  1  0  0  0  0
 16 30  1  0  0  0  0
M  END
> <s_m_source_file>
AV-unprocessed.smi

> <i_m_source_file_index>
2586

> <i_lp_mmshare_version>
43012

> <i_f3d_flags>
0

> <s_epik_input>
W0NIMl0xW0NIMl1bQ0gyXUMxKE9bQ0gzXSlbQ0gyXVtOSF1DKD1PKVtOSF1jMltjSF1ubnMy

> <s_epik_cmdline>
J2VwaWtfcHl0aG9uJywgJy1waCcsICc3LjAnLCAnLXRuJywgJzgnLCAnLW1hJywgJzIwMCcsICctbWV0YWxfYmluZGluZycsICctaW1hZScsICc8aW5maWxlLm1hZT4nLCAnLW9tYWUnLCAnPG91dGZpbGUubWFlPic=

> <r_lp_tautomer_probability>
1

> <r_epik_Ionization_Penalty>
2.25632e-05

> <r_epik_Ionization_Penalty_Charging>
0

> <r_epik_Ionization_Penalty_Neutral>
2.25632e-05

> <r_epik_State_Penalty>
-0

> <r_epik_Charging_Adjusted_Penalty>
0

> <i_epik_Tot_Q>
0

> <i_epik_Tot_abs_Q>
0

> <r_epik_Metal_State_Penalty>
-0

> <b_epik_Metal_Only>
0

> <s_lp_Force_Field>
OPLS_2005

> <r_lp_Energy>
14.9091

> <b_lp_Chiralities_Consistent>
1

> <s_lp_Variant>
AV-unprocessed.smi:2586-1

> <Gold.Version>
5.8.1

> <Gold.Id.Protein>
6NUR|6NUR_protein|mol2

> <Gold.PLP.Fitness>
36.3340

> <Gold.PLP.PLP>
-27.8178

> <Gold.PLP.part.hbond>
-3.6536

> <Gold.PLP.part.metal>
0.0000

> <Gold.PLP.part.buried>
-5.3869

> <Gold.PLP.part.nonpolar>
-19.4126

> <Gold.PLP.part.repulsive>
0.2577

> <Gold.PLP.ligand.clash>
0.0000

> <Gold.PLP.ligand.torsion>
0.1493

> <Gold.PLP.Chemscore.Hbond>
2.8480

> <Gold.PLP.Chemscore.CHOScore>
0.0000

> <Gold.PLP.Chemscore.Metal>
0.0000

> <Gold.Chemscore.Hbonds>
donor molecule, donor type, donor heavy atom, donor atom, acceptor molecule, acceptor atom, score
      L1  H     5    22       P1  7948  1.00
      L1  H     8    23       P1  7948  0.85
      P1  H  6896  6907       L1    12  0.18

> <Gold.PLP.Chemscore.Internal.Correction>
0.2708

> <Gold.Rescore>
     Score         DG    S(hbond)    S(metal)    S(lipo)     H(rot)  DE(clash)    DE(int)     intcor
     13.15     -14.21       2.10        0.00      49.99       1.61       0.02       1.04       ----

> <Gold.Chemscore.Fitness>
13.1542

> <Gold.Chemscore.DG>
-14.2123

> <Gold.Chemscore.ZeroCoef>
-5.4800

> <Gold.Chemscore.Hbond>
2.1004

> <Gold.Chemscore.Metal>
0.0000

> <Gold.Chemscore.Lipo>
49.9904

> <Gold.Chemscore.Internal_Hbond>
0.0000

> <Gold.Chemscore.DEClash>
0.0174

> <Gold.Chemscore.DEInternal>
1.0407

> <Gold.Chemscore.Rot>
1.6141

> <Gold.Chemscore.Internal.Correction>
   9.000000E+99

> <Gold.Chemscore.Hbonds>
donor molecule, donor type, donor heavy atom, donor atom, acceptor molecule, acceptor atom, score
      L1  H     5    22       P1  7948  0.30
      L1  H     8    23       P1  7948  0.14
      P1  H  6896  6907       L1    12  0.01

> <Gold.Chemscore.Hbond.Weighted>
-7.0154

> <Gold.Chemscore.Metal.Weighted>
-0.0000

> <Gold.Chemscore.Lipo.Weighted>
-5.8489

> <Gold.Chemscore.Internal_Hbond.Weighted>
0.0000

> <Gold.Chemscore.DEClash.Weighted>
0.0174

> <Gold.Chemscore.DEInternal.Weighted>
1.0407

> <Gold.Chemscore.Rot.Weighted>
4.1320

> <Gold.Chemscore.Internal.Correction.Weighted>
   9.000000E+99

> <Gold.Protein.RotatedTorsions>
[ 6907 6896 6895 6894 ] final -144.89 input  -60.11 | X-H torsion
[ 7974 7965 7964 7962 ] final -156.54 input  175.53 | X-H torsion
[ 8008 7997 7996 7995 ] final   89.08 input   59.86 | X-H torsion
[ 10167 10162 10161 10158 ] final -144.23 input  -65.29 | X-H torsion
[ 10718 10713 10712 10709 ] final   40.36 input   66.30 | X-H torsion
[ 10763 10752 10751 10750 ] final   46.72 input  -60.55 | X-H torsion
[ 11005 11000 10999 10996 ] final  124.45 input  -57.11 | X-H torsion

> <Gold.Protein.ActiveResidues>
 VAL166  LYS551  ARG553  GLY616  TRP617  ASP618  TYR619  PRO620  LYS621  CYS622 
 ASP623  PHE694  ASN695  SER759  ASP760  ASP761  ALA762  ILE779  LEU786  VAL792 
 PHE793  MET794  SER795  GLU796  ALA797  LYS798  CYS799  TRP800  GLU811  SER814 

> <Gold.Protein.RotatedAtoms>
  151.1203  133.5109  159.2602 H   0  0  0  0  0  0  0  0  0  0  0  0  # atno 6907 bound_to 6896
  151.1869  135.0385  159.8826 H   0  0  0  0  0  0  0  0  0  0  0  0  # atno 6908 bound_to 6896
  152.5455  134.1048  159.8386 H   0  0  0  0  0  0  0  0  0  0  0  0  # atno 6909 bound_to 6896
  144.7588  140.4095  143.5992 H   0  0  0  0  0  0  0  0  0  0  0  0  # atno 7974 bound_to 7965
  155.9956  140.3364  155.6795 H   0  0  0  0  0  0  0  0  0  0  0  0  # atno 8008 bound_to 7997
  155.6361  140.0690  157.2651 H   0  0  0  0  0  0  0  0  0  0  0  0  # atno 8009 bound_to 7997
  154.4233  140.1751  156.1511 H   0  0  0  0  0  0  0  0  0  0  0  0  # atno 8010 bound_to 7997
  139.7919  143.7955  152.2650 H   0  0  0  0  0  0  0  0  0  0  0  0  # atno 10167 bound_to 10162
  157.3813  130.7755  149.7195 H   0  0  0  0  0  0  0  0  0  0  0  0  # atno 10718 bound_to 10713
  152.9807  135.5999  154.3646 H   0  0  0  0  0  0  0  0  0  0  0  0  # atno 10763 bound_to 10752
  154.3325  135.2768  155.2466 H   0  0  0  0  0  0  0  0  0  0  0  0  # atno 10764 bound_to 10752
  154.4584  135.5972  153.6294 H   0  0  0  0  0  0  0  0  0  0  0  0  # atno 10765 bound_to 10752
  139.9359  134.9639  156.8411 H   0  0  0  0  0  0  0  0  0  0  0  0  # atno 11005 bound_to 11000
  145.6687  139.1595  143.2767 LP  0  0  0  0  0  0  0  0  0  0  0  0  # atno 17320 bound_to 7965
  146.1629  140.6761  142.9269 LP  0  0  0  0  0  0  0  0  0  0  0  0  # atno 17321 bound_to 7965
  139.8048  144.7359  150.9775 LP  0  0  0  0  0  0  0  0  0  0  0  0  # atno 17342 bound_to 10162
  140.7820  143.4308  151.0697 LP  0  0  0  0  0  0  0  0  0  0  0  0  # atno 17343 bound_to 10162
  155.9776  130.4061  150.3700 LP  0  0  0  0  0  0  0  0  0  0  0  0  # atno 17370 bound_to 10713
  157.1804  131.0391  151.2751 LP  0  0  0  0  0  0  0  0  0  0  0  0  # atno 17371 bound_to 10713
  140.6077  134.0112  155.7563 LP  0  0  0  0  0  0  0  0  0  0  0  0  # atno 17394 bound_to 11000
  141.0972  133.9824  157.3139 LP  0  0  0  0  0  0  0  0  0  0  0  0  # atno 17395 bound_to 11000

$$$$
