AV-unprocessed.smi:339|AV-procd|sdf|2378|dock1
  -GOLD-   2262022303D 1   1.00000     0.00000
 Structure written by MMmdl.
 45 46  0  0  0  0  0  0  0  0  1 V2000
  145.9720  133.2929  152.1660 C   0  0  0  0  0  0  0  0  0  0  0  0
  146.5757  131.9697  152.5996 C   0  0  0  0  0  0  0  0  0  0  0  0
  145.9639  130.7643  152.1982 C   0  0  0  0  0  0  0  0  0  0  0  0
  146.5009  129.5279  152.6018 C   0  0  0  0  0  0  0  0  0  0  0  0
  147.6501  129.4911  153.4127 C   0  0  0  0  0  0  0  0  0  0  0  0
  148.2711  130.6900  153.8197 C   0  0  0  0  0  0  0  0  0  0  0  0
  149.5043  130.6321  154.7018 C   0  0  0  0  0  0  0  0  0  0  0  0
  147.7414  131.9336  153.4018 C   0  0  0  0  0  0  0  0  0  0  0  0
  148.3404  133.1011  153.7991 O   0  0  0  0  0  0  0  0  0  0  0  0
  147.5618  133.8615  154.7115 C   0  0  0  0  0  0  0  0  0  0  0  0
  148.4979  134.7682  155.5268 C   0  0  2  0  0  0  0  0  0  0  0  0
  149.4069  135.3572  154.6168 O   0  0  0  0  0  0  0  0  0  0  0  0
  149.3160  133.9678  156.5648 C   0  0  0  0  0  0  0  0  0  0  0  0
  148.7051  134.0092  157.8994 N   0  0  0  0  0  0  0  0  0  0  0  0
  148.4134  132.7643  158.4206 N   0  0  0  0  0  0  0  0  0  0  0  0
  147.8908  132.6317  159.5953 C   0  0  0  0  0  0  0  0  0  0  0  0
  147.6179  131.2262  160.0594 C   0  0  0  0  0  0  0  0  0  0  0  0
  147.5986  133.8174  160.3946 C   0  0  0  0  0  0  0  0  0  0  0  0
  146.9866  133.6009  161.7721 C   0  0  0  0  0  0  0  0  0  0  0  0
  147.8795  135.0350  159.8670 C   0  0  0  0  0  0  0  0  0  0  0  0
  147.6221  136.2496  160.5713 C   0  0  0  0  0  0  0  0  0  0  0  0
  147.3994  137.2252  161.1535 N   0  0  0  0  0  0  0  0  0  0  0  0
  148.4706  135.1922  158.5360 C   0  0  0  0  0  0  0  0  0  0  0  0
  148.7403  136.2822  158.0293 O   0  0  0  0  0  0  0  0  0  0  0  0
  144.9157  133.1791  151.9212 H   0  0  0  0  0  0  0  0  0  0  0  0
  146.4876  133.6723  151.2839 H   0  0  0  0  0  0  0  0  0  0  0  0
  146.0513  134.0374  152.9586 H   0  0  0  0  0  0  0  0  0  0  0  0
  145.0773  130.7837  151.5812 H   0  0  0  0  0  0  0  0  0  0  0  0
  146.0277  128.6072  152.2935 H   0  0  0  0  0  0  0  0  0  0  0  0
  148.0523  128.5377  153.7231 H   0  0  0  0  0  0  0  0  0  0  0  0
  149.4675  131.4022  155.4725 H   0  0  0  0  0  0  0  0  0  0  0  0
  150.4028  130.7844  154.1043 H   0  0  0  0  0  0  0  0  0  0  0  0
  149.5869  129.6661  155.2001 H   0  0  0  0  0  0  0  0  0  0  0  0
  146.8698  134.4712  154.1291 H   0  0  0  0  0  0  0  0  0  0  0  0
  146.9549  133.2305  155.3636 H   0  0  0  0  0  0  0  0  0  0  0  0
  147.9098  135.5438  156.0189 H   0  0  0  0  0  0  0  0  0  0  0  0
  148.9308  135.6200  153.8442 H   0  0  0  0  0  0  0  0  0  0  0  0
  149.3921  132.9244  156.2538 H   0  0  0  0  0  0  0  0  0  0  0  0
  150.3479  134.3239  156.5956 H   0  0  0  0  0  0  0  0  0  0  0  0
  146.5738  131.1094  160.3505 H   0  0  0  0  0  0  0  0  0  0  0  0
  148.2396  130.9765  160.9194 H   0  0  0  0  0  0  0  0  0  0  0  0
  147.8246  130.4926  159.2786 H   0  0  0  0  0  0  0  0  0  0  0  0
  146.9071  134.5285  162.3382 H   0  0  0  0  0  0  0  0  0  0  0  0
  147.5938  132.9133  162.3617 H   0  0  0  0  0  0  0  0  0  0  0  0
  145.9840  133.1823  161.6802 H   0  0  0  0  0  0  0  0  0  0  0  0
  1  2  1  0  0  0  0
  1 25  1  0  0  0  0
  1 26  1  0  0  0  0
  1 27  1  0  0  0  0
  2  8  1  0  0  0  0
  2  3  2  0  0  0  0
  3  4  1  0  0  0  0
  3 28  1  0  0  0  0
  4  5  2  0  0  0  0
  4 29  1  0  0  0  0
  5  6  1  0  0  0  0
  5 30  1  0  0  0  0
  6  7  1  0  0  0  0
  6  8  2  0  0  0  0
  7 31  1  0  0  0  0
  7 32  1  0  0  0  0
  7 33  1  0  0  0  0
  8  9  1  0  0  0  0
  9 10  1  0  0  0  0
 10 11  1  0  0  0  0
 10 34  1  0  0  0  0
 10 35  1  0  0  0  0
 11 12  1  0  0  0  0
 11 13  1  0  0  0  0
 11 36  1  0  0  0  0
 12 37  1  0  0  0  0
 13 14  1  0  0  0  0
 13 38  1  0  0  0  0
 13 39  1  0  0  0  0
 14 23  1  0  0  0  0
 14 15  1  0  0  0  0
 15 16  2  0  0  0  0
 16 17  1  0  0  0  0
 16 18  1  0  0  0  0
 17 40  1  0  0  0  0
 17 41  1  0  0  0  0
 17 42  1  0  0  0  0
 18 19  1  0  0  0  0
 18 20  2  0  0  0  0
 19 43  1  0  0  0  0
 19 44  1  0  0  0  0
 19 45  1  0  0  0  0
 20 21  1  0  0  0  0
 20 23  1  0  0  0  0
 21 22  3  0  0  0  0
 23 24  2  0  0  0  0
M  END
> <s_m_source_file>
AV-unprocessed.smi

> <i_m_source_file_index>
339

> <i_lp_mmshare_version>
43012

> <i_f3d_flags>
0

> <s_epik_input>
W0NIM11jMVtjSF1bY0hdW2NIXWMoW0NIM10pYzFPW0NIMl1bQ0BIXShbT0hdKVtDSDJdbjJuYyhbQ0gzXSljKFtDSDNdKWMoQyNOKWMyPU8=

> <s_epik_cmdline>
J2VwaWtfcHl0aG9uJywgJy1waCcsICc3LjAnLCAnLXRuJywgJzgnLCAnLW1hJywgJzIwMCcsICctbWV0YWxfYmluZGluZycsICctaW1hZScsICc8aW5maWxlLm1hZT4nLCAnLW9tYWUnLCAnPG91dGZpbGUubWFlPic=

> <r_lp_tautomer_probability>
1

> <r_epik_Ionization_Penalty>
1.17331e-07

> <r_epik_Ionization_Penalty_Charging>
1.57223e-10

> <r_epik_Ionization_Penalty_Neutral>
1.17174e-07

> <r_epik_State_Penalty>
-0

> <r_epik_Charging_Adjusted_Penalty>
1.57223e-10

> <i_epik_Tot_Q>
0

> <i_epik_Tot_abs_Q>
0

> <r_epik_Metal_State_Penalty>
-0

> <b_epik_Metal_Only>
0

> <s_lp_Force_Field>
OPLS_2005

> <r_lp_Energy>
35.9352

> <b_lp_Chiralities_Consistent>
1

> <s_lp_Variant>
AV-unprocessed.smi:339-1

> <Gold.Version>
5.8.1

> <Gold.Id.Protein>
6NUR|6NUR_protein|mol2

> <Gold.PLP.Fitness>
39.5952

> <Gold.PLP.PLP>
-32.3514

> <Gold.PLP.part.hbond>
-3.0000

> <Gold.PLP.part.metal>
0.0000

> <Gold.PLP.part.buried>
-4.4867

> <Gold.PLP.part.nonpolar>
-25.5330

> <Gold.PLP.part.repulsive>
0.1594

> <Gold.PLP.ligand.clash>
0.0000

> <Gold.PLP.ligand.torsion>
0.7844

> <Gold.PLP.Chemscore.Hbond>
2.8400

> <Gold.PLP.Chemscore.CHOScore>
0.0000

> <Gold.PLP.Chemscore.Metal>
0.0000

> <Gold.Chemscore.Hbonds>
donor molecule, donor type, donor heavy atom, donor atom, acceptor molecule, acceptor atom, score
      L1  H    12    37       P1  7948  0.90
      P1  H  6931  6943       L1    22  0.77
      P1  H  6934  6947       L1    22  1.00

> <Gold.PLP.Chemscore.Internal.Correction>
0.2926

> <Gold.Rescore>
     Score         DG    S(hbond)    S(metal)    S(lipo)     H(rot)  DE(clash)    DE(int)     intcor
     16.89     -17.78       2.62        0.00      80.33       2.29       0.03       0.86       ----

> <Gold.Chemscore.Fitness>
16.8863

> <Gold.Chemscore.DG>
-17.7771

> <Gold.Chemscore.ZeroCoef>
-5.4800

> <Gold.Chemscore.Hbond>
2.6235

> <Gold.Chemscore.Metal>
0.0000

> <Gold.Chemscore.Lipo>
80.3255

> <Gold.Chemscore.Internal_Hbond>
0.0000

> <Gold.Chemscore.DEClash>
0.0315

> <Gold.Chemscore.DEInternal>
0.8593

> <Gold.Chemscore.Rot>
2.2905

> <Gold.Chemscore.Internal.Correction>
   9.000000E+99

> <Gold.Chemscore.Hbonds>
donor molecule, donor type, donor heavy atom, donor atom, acceptor molecule, acceptor atom, score
      L1  H    12    37       P1  7948  0.75
      P1  H  6931  6943       L1    22  0.68
      P1  H  6934  6947       L1    22  0.95

> <Gold.Chemscore.Hbond.Weighted>
-8.7626

> <Gold.Chemscore.Metal.Weighted>
-0.0000

> <Gold.Chemscore.Lipo.Weighted>
-9.3981

> <Gold.Chemscore.Internal_Hbond.Weighted>
0.0000

> <Gold.Chemscore.DEClash.Weighted>
0.0315

> <Gold.Chemscore.DEInternal.Weighted>
0.8593

> <Gold.Chemscore.Rot.Weighted>
5.8636

> <Gold.Chemscore.Internal.Correction.Weighted>
   9.000000E+99

> <Gold.Protein.RotatedTorsions>
[ 6907 6896 6895 6894 ] final   -8.99 input  -60.11 | X-H torsion
[ 7974 7965 7964 7962 ] final  -69.46 input  175.53 | X-H torsion
[ 8008 7997 7996 7995 ] final  -65.64 input   59.86 | X-H torsion
[ 10167 10162 10161 10158 ] final   72.22 input  -65.29 | X-H torsion
[ 10718 10713 10712 10709 ] final -103.57 input   66.30 | X-H torsion
[ 10763 10752 10751 10750 ] final   16.44 input  -60.55 | X-H torsion
[ 11005 11000 10999 10996 ] final -104.03 input  -57.11 | X-H torsion

> <Gold.Protein.ActiveResidues>
 VAL166  LYS551  ARG553  GLY616  TRP617  ASP618  TYR619  PRO620  LYS621  CYS622 
 ASP623  PHE694  ASN695  SER759  ASP760  ASP761  ALA762  ILE779  LEU786  VAL792 
 PHE793  MET794  SER795  GLU796  ALA797  LYS798  CYS799  TRP800  GLU811  SER814 

> <Gold.Protein.RotatedAtoms>
  151.4248  135.1002  159.9624 H   0  0  0  0  0  0  0  0  0  0  0  0  # atno 6907 bound_to 6896
  152.4976  133.8673  159.7291 H   0  0  0  0  0  0  0  0  0  0  0  0  # atno 6908 bound_to 6896
  150.9197  133.6837  159.2863 H   0  0  0  0  0  0  0  0  0  0  0  0  # atno 6909 bound_to 6896
  145.7034  140.9107  143.0719 H   0  0  0  0  0  0  0  0  0  0  0  0  # atno 7974 bound_to 7965
  154.4684  140.0929  156.7081 H   0  0  0  0  0  0  0  0  0  0  0  0  # atno 8008 bound_to 7997
  155.4793  140.3467  155.4319 H   0  0  0  0  0  0  0  0  0  0  0  0  # atno 8009 bound_to 7997
  156.0996  140.1419  156.9473 H   0  0  0  0  0  0  0  0  0  0  0  0  # atno 8010 bound_to 7997
  140.0376  144.5415  150.7459 H   0  0  0  0  0  0  0  0  0  0  0  0  # atno 10167 bound_to 10162
  156.0270  130.5473  150.7271 H   0  0  0  0  0  0  0  0  0  0  0  0  # atno 10718 bound_to 10713
  153.1431  135.6764  153.8997 H   0  0  0  0  0  0  0  0  0  0  0  0  # atno 10763 bound_to 10752
  153.8447  135.3101  155.3430 H   0  0  0  0  0  0  0  0  0  0  0  0  # atno 10764 bound_to 10752
  154.7803  135.4892  153.9915 H   0  0  0  0  0  0  0  0  0  0  0  0  # atno 10765 bound_to 10752
  141.1119  133.8689  157.1560 H   0  0  0  0  0  0  0  0  0  0  0  0  # atno 11005 bound_to 11000
  144.6962  139.8978  143.7457 LP  0  0  0  0  0  0  0  0  0  0  0  0  # atno 17320 bound_to 7965
  146.0777  139.3765  143.0484 LP  0  0  0  0  0  0  0  0  0  0  0  0  # atno 17321 bound_to 7965
  140.7274  143.2651  151.4071 LP  0  0  0  0  0  0  0  0  0  0  0  0  # atno 17342 bound_to 10162
  139.6035  144.1246  152.2224 LP  0  0  0  0  0  0  0  0  0  0  0  0  # atno 17343 bound_to 10162
  157.4873  131.0908  151.0468 LP  0  0  0  0  0  0  0  0  0  0  0  0  # atno 17370 bound_to 10713
  157.0885  130.5932  149.5435 LP  0  0  0  0  0  0  0  0  0  0  0  0  # atno 17371 bound_to 10713
  140.0018  135.0024  157.0206 LP  0  0  0  0  0  0  0  0  0  0  0  0  # atno 17394 bound_to 11000
  140.4751  134.1346  155.7208 LP  0  0  0  0  0  0  0  0  0  0  0  0  # atno 17395 bound_to 11000

$$$$
