AV-unprocessed.smi:220|AV-procd|sdf|1685|dock2
  -GOLD-   2262020123D 1   1.00000     0.00000
 Structure written by MMmdl.
 51 55  0  0  0  0  0  0  0  0  1 V2000
  151.6563  139.1558  157.6925 N   0  0  0  0  0  0  0  0  0  0  0  0
  152.4191  140.1009  158.2466 C   0  0  0  0  0  0  0  0  0  0  0  0
  153.5761  139.8828  158.6030 O   0  0  0  0  0  0  0  0  0  0  0  0
  151.7766  141.4852  158.4398 C   0  0  1  0  0  0  0  0  0  0  0  0
  152.7858  142.5008  159.0221 C   0  0  2  0  0  0  0  0  0  0  0  0
  152.6311  142.7527  160.5306 C   0  0  0  0  0  0  0  0  0  0  0  0
  151.7518  143.9994  160.6371 C   0  0  0  0  0  0  0  0  0  0  0  0
  152.1636  144.8506  159.4359 C   0  0  0  0  0  0  0  0  0  0  0  0
  152.4852  143.8379  158.3275 C   0  0  2  0  0  0  0  0  0  0  0  0
  151.3186  143.5377  157.3821 C   0  0  0  0  0  0  0  0  0  0  0  0
  151.3394  142.0978  157.1834 N   0  0  0  0  0  0  0  0  0  0  0  0
  150.2731  141.6009  156.5013 C   0  0  0  0  0  0  0  0  0  0  0  0
  150.4493  141.0008  155.2933 N   0  0  0  0  0  0  0  0  0  0  0  0
  149.4054  140.4983  154.6284 C   0  0  0  0  0  0  0  0  0  0  0  0
  148.1199  140.4839  154.9833 N   0  0  0  0  0  0  0  0  0  0  0  0
  147.9336  141.0863  156.1922 C   0  0  0  0  0  0  0  0  0  0  0  0
  148.9448  141.6681  157.0083 C   0  0  0  0  0  0  0  0  0  0  0  0
  148.3741  142.1990  158.1589 N   0  0  0  0  0  0  0  0  0  0  0  0
  147.1020  141.9366  158.0357 C   0  0  0  0  0  0  0  0  0  0  0  0
  146.7504  141.2576  156.8908 N   0  0  0  0  0  0  0  0  0  0  0  0
  145.4136  140.8323  156.5044 C   0  0  0  0  0  0  0  0  0  0  0  0
  144.5011  141.9914  156.0547 C   0  0  0  0  0  0  0  0  0  0  0  0
  143.0470  141.5081  155.9129 C   0  0  0  0  0  0  0  0  0  0  0  0
  142.9565  140.3958  155.0460 O   0  0  0  0  0  0  0  0  0  0  0  0
  144.6573  143.3074  156.8305 C   0  0  0  0  0  0  0  0  0  0  0  0
  144.8231  144.0701  155.6169 O   0  0  0  0  0  0  0  0  0  0  0  0
  145.0184  142.8410  154.8857 C   0  0  0  0  0  0  0  0  0  0  0  0
  152.0350  138.2324  157.5409 H   0  0  0  0  0  0  0  0  0  0  0  0
  150.7069  139.3682  157.4231 H   0  0  0  0  0  0  0  0  0  0  0  0
  150.9174  141.4035  159.1094 H   0  0  0  0  0  0  0  0  0  0  0  0
  153.8121  142.2009  158.8003 H   0  0  0  0  0  0  0  0  0  0  0  0
  152.2178  141.8993  161.0692 H   0  0  0  0  0  0  0  0  0  0  0  0
  153.6096  142.9659  160.9630 H   0  0  0  0  0  0  0  0  0  0  0  0
  150.7019  143.7180  160.5461 H   0  0  0  0  0  0  0  0  0  0  0  0
  151.8763  144.5223  161.5857 H   0  0  0  0  0  0  0  0  0  0  0  0
  151.3992  145.5738  159.1493 H   0  0  0  0  0  0  0  0  0  0  0  0
  153.0655  145.4110  159.6857 H   0  0  0  0  0  0  0  0  0  0  0  0
  153.3494  144.1628  157.7462 H   0  0  0  0  0  0  0  0  0  0  0  0
  150.3635  143.8268  157.8252 H   0  0  0  0  0  0  0  0  0  0  0  0
  151.4329  144.0858  156.4472 H   0  0  0  0  0  0  0  0  0  0  0  0
  149.6336  140.0399  153.6774 H   0  0  0  0  0  0  0  0  0  0  0  0
  146.3828  142.2323  158.7848 H   0  0  0  0  0  0  0  0  0  0  0  0
  145.5208  140.0992  155.7040 H   0  0  0  0  0  0  0  0  0  0  0  0
  144.9670  140.2877  157.3370 H   0  0  0  0  0  0  0  0  0  0  0  0
  142.6121  141.2457  156.8772 H   0  0  0  0  0  0  0  0  0  0  0  0
  142.4173  142.2991  155.5045 H   0  0  0  0  0  0  0  0  0  0  0  0
  143.3653  140.6202  154.2240 H   0  0  0  0  0  0  0  0  0  0  0  0
  143.7708  143.5994  157.3946 H   0  0  0  0  0  0  0  0  0  0  0  0
  145.5495  143.3558  157.4559 H   0  0  0  0  0  0  0  0  0  0  0  0
  146.0703  142.6745  154.6474 H   0  0  0  0  0  0  0  0  0  0  0  0
  144.4035  142.7859  153.9866 H   0  0  0  0  0  0  0  0  0  0  0  0
  1  2  1  0  0  0  0
  1 28  1  0  0  0  0
  1 29  1  0  0  0  0
  2  3  2  0  0  0  0
  2  4  1  0  0  0  0
  4 11  1  0  0  0  0
  4  5  1  0  0  0  0
  4 30  1  0  0  0  0
  5  9  1  0  0  0  0
  5  6  1  0  0  0  0
  5 31  1  0  0  0  0
  6  7  1  0  0  0  0
  6 32  1  0  0  0  0
  6 33  1  0  0  0  0
  7  8  1  0  0  0  0
  7 34  1  0  0  0  0
  7 35  1  0  0  0  0
  8  9  1  0  0  0  0
  8 36  1  0  0  0  0
  8 37  1  0  0  0  0
  9 10  1  0  0  0  0
  9 38  1  0  0  0  0
 10 11  1  0  0  0  0
 10 39  1  0  0  0  0
 10 40  1  0  0  0  0
 11 12  1  0  0  0  0
 12 17  1  0  0  0  0
 12 13  2  0  0  0  0
 13 14  1  0  0  0  0
 14 15  2  0  0  0  0
 14 41  1  0  0  0  0
 15 16  1  0  0  0  0
 16 20  1  0  0  0  0
 16 17  2  0  0  0  0
 17 18  1  0  0  0  0
 18 19  2  0  0  0  0
 19 20  1  0  0  0  0
 19 42  1  0  0  0  0
 20 21  1  0  0  0  0
 21 22  1  0  0  0  0
 21 43  1  0  0  0  0
 21 44  1  0  0  0  0
 22 27  1  0  0  0  0
 22 23  1  0  0  0  0
 22 25  1  0  0  0  0
 23 24  1  0  0  0  0
 23 45  1  0  0  0  0
 23 46  1  0  0  0  0
 24 47  1  0  0  0  0
 25 26  1  0  0  0  0
 25 48  1  0  0  0  0
 25 49  1  0  0  0  0
 26 27  1  0  0  0  0
 27 50  1  0  0  0  0
 27 51  1  0  0  0  0
M  END
> <s_m_source_file>
AV-unprocessed.smi

> <i_m_source_file_index>
220

> <i_lp_mmshare_version>
43012

> <i_f3d_flags>
0

> <s_epik_input>
W0NIMl0xW0NIMl1bQ0gyXVtDQEhdKFtDQEhdMTIpW0NIMl1OKFtDQEBIXTJDKD1PKVtOSDJdKWMobltjSF1uMyljKGMzNCluW2NIXW40W0NIMl1DNShbQ0gyXVtPSF0pW0NIMl1PW0NIMl01

> <s_epik_cmdline>
J2VwaWtfcHl0aG9uJywgJy1waCcsICc3LjAnLCAnLXRuJywgJzgnLCAnLW1hJywgJzIwMCcsICctbWV0YWxfYmluZGluZycsICctaW1hZScsICc8aW5maWxlLm1hZT4nLCAnLW9tYWUnLCAnPG91dGZpbGUubWFlPic=

> <r_lp_tautomer_probability>
1

> <r_epik_Ionization_Penalty>
0.00118987

> <r_epik_Ionization_Penalty_Charging>
0

> <r_epik_Ionization_Penalty_Neutral>
0.00118987

> <r_epik_State_Penalty>
0.000654261

> <r_epik_Charging_Adjusted_Penalty>
0.000654261

> <i_epik_Tot_Q>
0

> <i_epik_Tot_abs_Q>
0

> <r_epik_Metal_State_Penalty>
-0

> <b_epik_Metal_Only>
0

> <s_lp_Force_Field>
OPLS_2005

> <r_lp_Energy>
59.1601

> <b_lp_Chiralities_Consistent>
1

> <s_lp_Variant>
AV-unprocessed.smi:220-4

> <Gold.Version>
5.8.1

> <Gold.Id.Protein>
6NUR|6NUR_protein|mol2

> <Gold.PLP.Fitness>
52.3127

> <Gold.PLP.PLP>
-42.9220

> <Gold.PLP.part.hbond>
-3.0000

> <Gold.PLP.part.metal>
0.0000

> <Gold.PLP.part.buried>
-4.3805

> <Gold.PLP.part.nonpolar>
-35.3761

> <Gold.PLP.part.repulsive>
0.5649

> <Gold.PLP.ligand.clash>
0.0000

> <Gold.PLP.ligand.torsion>
0.4825

> <Gold.PLP.Chemscore.Hbond>
2.2831

> <Gold.PLP.Chemscore.CHOScore>
1.0000

> <Gold.PLP.Chemscore.Metal>
0.0000

> <Gold.Chemscore.Hbonds>
donor molecule, donor type, donor heavy atom, donor atom, acceptor molecule, acceptor atom, score
      L1  H    24    47       P1 10175  1.00
      P1  H  7989  7998       L1    13  0.26
      P1  H  7997  8009       L1     3  1.00
      L1  C    14    41       P1  7957  1.00

> <Gold.PLP.Chemscore.Internal.Correction>
0.5064

> <Gold.Rescore>
     Score         DG    S(hbond)    S(metal)    S(lipo)     H(rot)  DE(clash)    DE(int)     intcor
     13.90     -14.54       2.04        0.00      90.81       3.27       0.05       0.59       ----

> <Gold.Chemscore.Fitness>
13.9016

> <Gold.Chemscore.DG>
-14.5402

> <Gold.Chemscore.ZeroCoef>
-5.4800

> <Gold.Chemscore.Hbond>
2.0381

> <Gold.Chemscore.Metal>
0.0000

> <Gold.Chemscore.Lipo>
90.8116

> <Gold.Chemscore.Internal_Hbond>
0.0000

> <Gold.Chemscore.DEClash>
0.0496

> <Gold.Chemscore.DEInternal>
0.5891

> <Gold.Chemscore.Rot>
3.2703

> <Gold.Chemscore.Internal.Correction>
   9.000000E+99

> <Gold.Chemscore.Hbonds>
donor molecule, donor type, donor heavy atom, donor atom, acceptor molecule, acceptor atom, score
      L1  H    24    47       P1 10175  0.95
      P1  H  7989  7998       L1    13  0.01
      P1  H  7997  8009       L1     3  0.48

> <Gold.Chemscore.Hbond.Weighted>
-6.8073

> <Gold.Chemscore.Metal.Weighted>
-0.0000

> <Gold.Chemscore.Lipo.Weighted>
-10.6250

> <Gold.Chemscore.Internal_Hbond.Weighted>
0.0000

> <Gold.Chemscore.DEClash.Weighted>
0.0496

> <Gold.Chemscore.DEInternal.Weighted>
0.5891

> <Gold.Chemscore.Rot.Weighted>
8.3721

> <Gold.Chemscore.Internal.Correction.Weighted>
   9.000000E+99

> <Gold.Protein.RotatedTorsions>
[ 6907 6896 6895 6894 ] final -108.40 input  -60.11 | X-H torsion
[ 7974 7965 7964 7962 ] final  -54.16 input  175.53 | X-H torsion
[ 8008 7997 7996 7995 ] final  154.62 input   59.86 | X-H torsion
[ 10167 10162 10161 10158 ] final   -6.85 input  -65.29 | X-H torsion
[ 10718 10713 10712 10709 ] final  145.38 input   66.30 | X-H torsion
[ 10763 10752 10751 10750 ] final -161.54 input  -60.55 | X-H torsion
[ 11005 11000 10999 10996 ] final -123.44 input  -57.11 | X-H torsion

> <Gold.Protein.ActiveResidues>
 VAL166  LYS551  ARG553  GLY616  TRP617  ASP618  TYR619  PRO620  LYS621  CYS622 
 ASP623  PHE694  ASN695  SER759  ASP760  ASP761  ALA762  ILE779  LEU786  VAL792 
 PHE793  MET794  SER795  GLU796  ALA797  LYS798  CYS799  TRP800  GLU811  SER814 

> <Gold.Protein.RotatedAtoms>
  150.7499  133.9683  159.3537 H   0  0  0  0  0  0  0  0  0  0  0  0  # atno 6907 bound_to 6896
  151.7615  135.0807  160.0355 H   0  0  0  0  0  0  0  0  0  0  0  0  # atno 6908 bound_to 6896
  152.3400  133.6019  159.5905 H   0  0  0  0  0  0  0  0  0  0  0  0  # atno 6909 bound_to 6896
  145.8887  140.8088  142.9802 H   0  0  0  0  0  0  0  0  0  0  0  0  # atno 7974 bound_to 7965
  156.2522  140.1962  156.6674 H   0  0  0  0  0  0  0  0  0  0  0  0  # atno 8008 bound_to 7997
  154.6419  140.0582  156.9880 H   0  0  0  0  0  0  0  0  0  0  0  0  # atno 8009 bound_to 7997
  155.1550  140.3255  155.4426 H   0  0  0  0  0  0  0  0  0  0  0  0  # atno 8010 bound_to 7997
  140.7010  143.6147  150.8669 H   0  0  0  0  0  0  0  0  0  0  0  0  # atno 10167 bound_to 10162
  157.3459  131.0943  151.1042 H   0  0  0  0  0  0  0  0  0  0  0  0  # atno 10718 bound_to 10713
  154.7294  135.3043  154.8916 H   0  0  0  0  0  0  0  0  0  0  0  0  # atno 10763 bound_to 10752
  153.9763  135.6735  153.4752 H   0  0  0  0  0  0  0  0  0  0  0  0  # atno 10764 bound_to 10752
  153.0905  135.4962  154.8600 H   0  0  0  0  0  0  0  0  0  0  0  0  # atno 10765 bound_to 10752
  140.9918  134.0527  157.3645 H   0  0  0  0  0  0  0  0  0  0  0  0  # atno 11005 bound_to 11000
  144.6729  140.1496  143.7431 LP  0  0  0  0  0  0  0  0  0  0  0  0  # atno 17320 bound_to 7965
  145.8935  139.2389  143.1535 LP  0  0  0  0  0  0  0  0  0  0  0  0  # atno 17321 bound_to 7965
  139.9869  143.5889  152.2923 LP  0  0  0  0  0  0  0  0  0  0  0  0  # atno 17342 bound_to 10162
  139.6530  144.7661  151.2110 LP  0  0  0  0  0  0  0  0  0  0  0  0  # atno 17343 bound_to 10162
  157.2236  130.6493  149.5821 LP  0  0  0  0  0  0  0  0  0  0  0  0  # atno 17370 bound_to 10713
  155.9714  130.4621  150.6134 LP  0  0  0  0  0  0  0  0  0  0  0  0  # atno 17371 bound_to 10713
  139.8996  135.0159  156.7203 LP  0  0  0  0  0  0  0  0  0  0  0  0  # atno 17394 bound_to 11000
  140.7027  133.9292  155.8034 LP  0  0  0  0  0  0  0  0  0  0  0  0  # atno 17395 bound_to 11000

$$$$
