AV-unprocessed.smi:1252|AV-procd|sdf|5265|dock2
  -GOLD-   22720 4373D 1   1.00000     0.00000
 Structure written by MMmdl.
 43 44  0  0  0  0  0  0  0  0  1 V2000
  146.7276  139.6094  153.6051 C   0  0  0  0  0  0  0  0  0  0  0  0
  147.2608  138.7425  154.7645 C   0  0  1  0  0  0  0  0  0  0  0  0
  146.7755  137.2837  154.7005 C   0  0  0  0  0  0  0  0  0  0  0  0
  146.2304  136.7518  155.6681 O   0  0  0  0  0  0  0  0  0  0  0  0
  146.9846  136.6454  153.5400 N   0  0  0  0  0  0  0  0  0  0  0  0
  146.5571  135.2848  153.2352 C   0  0  0  0  0  0  0  0  0  0  0  0
  145.3835  135.2680  152.2143 C   0  0  0  0  0  0  0  0  0  0  0  0
  144.1733  135.9540  152.8927 C   0  0  0  0  0  0  0  0  0  0  0  0
  145.8245  136.1715  151.0336 C   0  0  0  0  0  0  0  0  0  0  0  0
  145.0843  133.8849  151.7465 N   0  0  0  0  0  0  0  0  0  0  0  0
  143.8103  133.7379  151.0327 C   0  0  0  0  0  0  0  0  0  0  0  0
  143.5051  132.2696  150.6919 C   0  0  0  0  0  0  0  0  0  0  0  0
  144.5709  131.7260  149.9231 O   0  0  0  0  0  0  0  0  0  0  0  0
  145.8190  131.7945  150.6021 C   0  0  0  0  0  0  0  0  0  0  0  0
  146.1436  133.2579  150.9479 C   0  0  0  0  0  0  0  0  0  0  0  0
  148.7161  138.7885  154.8575 N   0  0  0  0  0  0  0  0  0  0  0  0
  149.5999  139.4796  154.1339 C   0  0  0  0  0  0  0  0  0  0  0  0
  150.8557  139.3318  154.5317 N   0  0  0  0  0  0  0  0  0  0  0  0
  150.6624  138.4839  155.5850 C   0  0  0  0  0  0  0  0  0  0  0  0
  149.3996  138.1353  155.8304 N   0  0  0  0  0  0  0  0  0  0  0  0
  145.6375  139.6404  153.6059 H   0  0  0  0  0  0  0  0  0  0  0  0
  147.0470  139.2326  152.6326 H   0  0  0  0  0  0  0  0  0  0  0  0
  147.0818  140.6367  153.6933 H   0  0  0  0  0  0  0  0  0  0  0  0
  146.8690  139.1643  155.6915 H   0  0  0  0  0  0  0  0  0  0  0  0
  147.4489  137.1471  152.7969 H   0  0  0  0  0  0  0  0  0  0  0  0
  147.4139  134.7161  152.8731 H   0  0  0  0  0  0  0  0  0  0  0  0
  146.2529  134.7896  154.1594 H   0  0  0  0  0  0  0  0  0  0  0  0
  144.4255  136.9668  153.2090 H   0  0  0  0  0  0  0  0  0  0  0  0
  143.8451  135.4207  153.7845 H   0  0  0  0  0  0  0  0  0  0  0  0
  143.3182  136.0387  152.2228 H   0  0  0  0  0  0  0  0  0  0  0  0
  146.2094  137.1299  151.3844 H   0  0  0  0  0  0  0  0  0  0  0  0
  144.9989  136.4058  150.3618 H   0  0  0  0  0  0  0  0  0  0  0  0
  146.6112  135.7051  150.4389 H   0  0  0  0  0  0  0  0  0  0  0  0
  142.9829  134.1179  151.6287 H   0  0  0  0  0  0  0  0  0  0  0  0
  143.8268  134.3156  150.1084 H   0  0  0  0  0  0  0  0  0  0  0  0
  143.3649  131.6834  151.6017 H   0  0  0  0  0  0  0  0  0  0  0  0
  142.5805  132.1982  150.1192 H   0  0  0  0  0  0  0  0  0  0  0  0
  145.7839  131.1834  151.5053 H   0  0  0  0  0  0  0  0  0  0  0  0
  146.5957  131.3755  149.9624 H   0  0  0  0  0  0  0  0  0  0  0  0
  146.2966  133.8119  150.0218 H   0  0  0  0  0  0  0  0  0  0  0  0
  147.0915  133.2664  151.4831 H   0  0  0  0  0  0  0  0  0  0  0  0
  149.3174  140.1114  153.3045 H   0  0  0  0  0  0  0  0  0  0  0  0
  151.4761  138.1180  156.1939 H   0  0  0  0  0  0  0  0  0  0  0  0
  1  2  1  0  0  0  0
  1 21  1  0  0  0  0
  1 22  1  0  0  0  0
  1 23  1  0  0  0  0
  2  3  1  0  0  0  0
  2 16  1  0  0  0  0
  2 24  1  0  0  0  0
  3  4  2  0  0  0  0
  3  5  1  0  0  0  0
  5  6  1  0  0  0  0
  5 25  1  0  0  0  0
  6  7  1  0  0  0  0
  6 26  1  0  0  0  0
  6 27  1  0  0  0  0
  7  8  1  0  0  0  0
  7  9  1  0  0  0  0
  7 10  1  0  0  0  0
  8 28  1  0  0  0  0
  8 29  1  0  0  0  0
  8 30  1  0  0  0  0
  9 31  1  0  0  0  0
  9 32  1  0  0  0  0
  9 33  1  0  0  0  0
 10 15  1  0  0  0  0
 10 11  1  0  0  0  0
 11 12  1  0  0  0  0
 11 34  1  0  0  0  0
 11 35  1  0  0  0  0
 12 13  1  0  0  0  0
 12 36  1  0  0  0  0
 12 37  1  0  0  0  0
 13 14  1  0  0  0  0
 14 15  1  0  0  0  0
 14 38  1  0  0  0  0
 14 39  1  0  0  0  0
 15 40  1  0  0  0  0
 15 41  1  0  0  0  0
 16 20  1  0  0  0  0
 16 17  1  0  0  0  0
 17 18  2  0  0  0  0
 17 42  1  0  0  0  0
 18 19  1  0  0  0  0
 19 20  2  0  0  0  0
 19 43  1  0  0  0  0
M  END
> <s_m_source_file>
AV-unprocessed.smi

> <i_m_source_file_index>
1252

> <i_lp_mmshare_version>
43012

> <i_f3d_flags>
0

> <s_epik_input>
bjFbY0hdbltjSF1uMVtDQEhdKFtDSDNdKUMoPU8pW05IXVtDSDJdQyhbQ0gzXSkoW0NIM10pTjJbQ0gyXVtDSDJdT1tDSDJdW0NIMl0y

> <s_epik_cmdline>
J2VwaWtfcHl0aG9uJywgJy1waCcsICc3LjAnLCAnLXRuJywgJzgnLCAnLW1hJywgJzIwMCcsICctbWV0YWxfYmluZGluZycsICctaW1hZScsICc8aW5maWxlLm1hZT4nLCAnLW9tYWUnLCAnPG91dGZpbGUubWFlPic=

> <r_lp_tautomer_probability>
1

> <r_epik_Ionization_Penalty>
0.211373

> <r_epik_Ionization_Penalty_Charging>
0

> <r_epik_Ionization_Penalty_Neutral>
0.211373

> <r_epik_State_Penalty>
0.201459

> <r_epik_Charging_Adjusted_Penalty>
0.201459

> <i_epik_Tot_Q>
0

> <i_epik_Tot_abs_Q>
0

> <r_epik_Metal_State_Penalty>
0.201458

> <b_epik_Metal_Only>
0

> <s_lp_Force_Field>
OPLS_2005

> <r_lp_Energy>
47.0271

> <b_lp_Chiralities_Consistent>
1

> <s_lp_Variant>
AV-unprocessed.smi:1252-2

> <Gold.Version>
5.8.1

> <Gold.Id.Protein>
6NUR|6NUR_protein|mol2

> <Gold.PLP.Fitness>
30.8201

> <Gold.PLP.PLP>
-24.5959

> <Gold.PLP.part.hbond>
-2.8481

> <Gold.PLP.part.metal>
0.0000

> <Gold.PLP.part.buried>
-0.8446

> <Gold.PLP.part.nonpolar>
-21.8844

> <Gold.PLP.part.repulsive>
0.4417

> <Gold.PLP.ligand.clash>
0.0000

> <Gold.PLP.ligand.torsion>
0.5666

> <Gold.PLP.Chemscore.Hbond>
1.3964

> <Gold.PLP.Chemscore.CHOScore>
1.0000

> <Gold.PLP.Chemscore.Metal>
0.0000

> <Gold.Chemscore.Hbonds>
donor molecule, donor type, donor heavy atom, donor atom, acceptor molecule, acceptor atom, score
      L1  H     5    25       P1  7948  0.37
      P1  H  7989  7998       L1    18  0.85
      P1  H 10785 10796       L1    13  0.04
      L1  C    17    42       P1  7957  1.00

> <Gold.PLP.Chemscore.Internal.Correction>
0.1683

> <Gold.Rescore>
     Score         DG    S(hbond)    S(metal)    S(lipo)     H(rot)  DE(clash)    DE(int)     intcor
      7.72      -8.96       1.15        0.00      51.93       2.52       1.00       0.24       ----

> <Gold.Chemscore.Fitness>
7.7191

> <Gold.Chemscore.DG>
-8.9596

> <Gold.Chemscore.ZeroCoef>
-5.4800

> <Gold.Chemscore.Hbond>
1.1506

> <Gold.Chemscore.Metal>
0.0000

> <Gold.Chemscore.Lipo>
51.9301

> <Gold.Chemscore.Internal_Hbond>
0.0000

> <Gold.Chemscore.DEClash>
1.0034

> <Gold.Chemscore.DEInternal>
0.2371

> <Gold.Chemscore.Rot>
2.5153

> <Gold.Chemscore.Internal.Correction>
   9.000000E+99

> <Gold.Chemscore.Hbonds>
donor molecule, donor type, donor heavy atom, donor atom, acceptor molecule, acceptor atom, score
      L1  H     5    25       P1  7948  0.35
      P1  H  7989  7998       L1    18  0.14
      P1  H 10785 10796       L1    13  0.01

> <Gold.Chemscore.Hbond.Weighted>
-3.8429

> <Gold.Chemscore.Metal.Weighted>
-0.0000

> <Gold.Chemscore.Lipo.Weighted>
-6.0758

> <Gold.Chemscore.Internal_Hbond.Weighted>
0.0000

> <Gold.Chemscore.DEClash.Weighted>
1.0034

> <Gold.Chemscore.DEInternal.Weighted>
0.2371

> <Gold.Chemscore.Rot.Weighted>
6.4392

> <Gold.Chemscore.Internal.Correction.Weighted>
   9.000000E+99

> <Gold.Protein.RotatedTorsions>
[ 6907 6896 6895 6894 ] final   99.95 input  -60.11 | X-H torsion
[ 7974 7965 7964 7962 ] final -134.21 input  175.53 | X-H torsion
[ 8008 7997 7996 7995 ] final  167.23 input   59.86 | X-H torsion
[ 10167 10162 10161 10158 ] final   -4.96 input  -65.29 | X-H torsion
[ 10718 10713 10712 10709 ] final  -92.53 input   66.30 | X-H torsion
[ 10763 10752 10751 10750 ] final  -34.48 input  -60.55 | X-H torsion
[ 11005 11000 10999 10996 ] final   -2.07 input  -57.11 | X-H torsion

> <Gold.Protein.ActiveResidues>
 VAL166  LYS551  ARG553  GLY616  TRP617  ASP618  TYR619  PRO620  LYS621  CYS622 
 ASP623  PHE694  ASN695  SER759  ASP760  ASP761  ALA762  ILE779  LEU786  VAL792 
 PHE793  MET794  SER795  GLU796  ALA797  LYS798  CYS799  TRP800  GLU811  SER814 

> <Gold.Protein.RotatedAtoms>
  152.5382  134.0351  159.8042 H   0  0  0  0  0  0  0  0  0  0  0  0  # atno 6907 bound_to 6896
  151.0516  133.5612  159.2649 H   0  0  0  0  0  0  0  0  0  0  0  0  # atno 6908 bound_to 6896
  151.2544  135.0640  159.9128 H   0  0  0  0  0  0  0  0  0  0  0  0  # atno 6909 bound_to 6896
  144.9123  140.6911  143.5017 H   0  0  0  0  0  0  0  0  0  0  0  0  # atno 7974 bound_to 7965
  156.1652  140.1622  156.8544 H   0  0  0  0  0  0  0  0  0  0  0  0  # atno 8008 bound_to 7997
  154.5200  140.0780  156.8189 H   0  0  0  0  0  0  0  0  0  0  0  0  # atno 8009 bound_to 7997
  155.3627  140.3396  155.4243 H   0  0  0  0  0  0  0  0  0  0  0  0  # atno 8010 bound_to 7997
  140.6946  143.6363  150.8476 H   0  0  0  0  0  0  0  0  0  0  0  0  # atno 10167 bound_to 10162
  156.0003  130.4991  150.5640 H   0  0  0  0  0  0  0  0  0  0  0  0  # atno 10718 bound_to 10713
  153.8474  135.6852  153.4796 H   0  0  0  0  0  0  0  0  0  0  0  0  # atno 10763 bound_to 10752
  153.1417  135.4654  154.9504 H   0  0  0  0  0  0  0  0  0  0  0  0  # atno 10764 bound_to 10752
  154.7817  135.3271  154.7922 H   0  0  0  0  0  0  0  0  0  0  0  0  # atno 10765 bound_to 10752
  140.6543  133.9376  155.8398 H   0  0  0  0  0  0  0  0  0  0  0  0  # atno 11005 bound_to 11000
  145.3433  139.1726  143.4474 LP  0  0  0  0  0  0  0  0  0  0  0  0  # atno 17320 bound_to 7965
  146.3165  140.3477  142.8653 LP  0  0  0  0  0  0  0  0  0  0  0  0  # atno 17321 bound_to 7965
  140.0079  143.5673  152.2850 LP  0  0  0  0  0  0  0  0  0  0  0  0  # atno 17342 bound_to 10162
  139.6387  144.7652  151.2384 LP  0  0  0  0  0  0  0  0  0  0  0  0  # atno 17343 bound_to 10162
  157.3545  131.0739  151.1687 LP  0  0  0  0  0  0  0  0  0  0  0  0  # atno 17370 bound_to 10713
  157.2492  130.6606  149.5924 LP  0  0  0  0  0  0  0  0  0  0  0  0  # atno 17371 bound_to 10713
  141.0513  134.0481  157.3780 LP  0  0  0  0  0  0  0  0  0  0  0  0  # atno 17394 bound_to 11000
  139.9035  135.0172  156.7378 LP  0  0  0  0  0  0  0  0  0  0  0  0  # atno 17395 bound_to 11000

$$$$
