AV-unprocessed.smi:2499|AV-procd|sdf|9835|dock2
  -GOLD-   2272013463D 1   1.00000     0.00000
 Structure written by MMmdl.
 27 28  0  0  0  0  0  0  0  0  1 V2000
  153.3325  142.2248  160.7667 C   0  0  0  0  0  0  0  0  0  0  0  0
  152.5353  142.4056  159.4677 C   0  0  2  0  0  0  0  0  0  0  0  0
  152.7656  141.2436  158.6146 N   0  0  0  0  0  0  0  0  0  0  0  0
  151.9593  140.8198  157.6293 C   0  0  0  0  0  0  0  0  0  0  0  0
  150.8988  141.3944  157.3637 O   0  0  0  0  0  0  0  0  0  0  0  0
  152.4863  139.6837  157.0352 N   0  0  0  0  0  0  0  0  0  0  0  0
  151.9650  139.2544  155.9278 C   0  0  0  0  0  0  0  0  0  0  0  0
  152.3586  138.1603  155.1740 N   0  0  0  0  0  0  0  0  0  0  0  0
  151.5262  138.0670  154.0929 C   0  0  0  0  0  0  0  0  0  0  0  0
  150.6437  139.0595  154.1630 C   0  0  0  0  0  0  0  0  0  0  0  0
  150.8849  139.8055  155.2769 O   0  0  0  0  0  0  0  0  0  0  0  0
  152.8835  143.7248  158.7985 C   0  0  0  0  0  0  0  0  0  0  0  0
  152.1919  145.0064  159.2000 C   0  0  0  0  0  0  0  0  0  0  0  0
  151.9292  144.3995  157.8412 C   0  0  0  0  0  0  0  0  0  0  0  0
  153.1477  143.0467  161.4589 H   0  0  0  0  0  0  0  0  0  0  0  0
  154.4051  142.1886  160.5729 H   0  0  0  0  0  0  0  0  0  0  0  0
  153.0538  141.3007  161.2746 H   0  0  0  0  0  0  0  0  0  0  0  0
  151.4784  142.4333  159.7402 H   0  0  0  0  0  0  0  0  0  0  0  0
  153.6122  140.7194  158.7836 H   0  0  0  0  0  0  0  0  0  0  0  0
  153.1176  137.5184  155.3521 H   0  0  0  0  0  0  0  0  0  0  0  0
  151.6578  137.2770  153.3683 H   0  0  0  0  0  0  0  0  0  0  0  0
  149.8211  139.3565  153.5295 H   0  0  0  0  0  0  0  0  0  0  0  0
  153.9413  143.8227  158.5604 H   0  0  0  0  0  0  0  0  0  0  0  0
  151.3950  144.9439  159.9383 H   0  0  0  0  0  0  0  0  0  0  0  0
  152.7955  145.9108  159.2398 H   0  0  0  0  0  0  0  0  0  0  0  0
  152.3587  144.8968  156.9740 H   0  0  0  0  0  0  0  0  0  0  0  0
  150.9572  143.9379  157.6797 H   0  0  0  0  0  0  0  0  0  0  0  0
  1  2  1  0  0  0  0
  1 15  1  0  0  0  0
  1 16  1  0  0  0  0
  1 17  1  0  0  0  0
  2  3  1  0  0  0  0
  2 12  1  0  0  0  0
  2 18  1  0  0  0  0
  3 19  1  0  0  0  0
  3  4  1  0  0  0  0
  4  6  1  0  0  0  0
  4  5  2  0  0  0  0
  6  7  2  0  0  0  0
  7 11  1  0  0  0  0
  7  8  1  0  0  0  0
  8 20  1  0  0  0  0
  8  9  1  0  0  0  0
  9 21  1  0  0  0  0
  9 10  2  0  0  0  0
 10 22  1  0  0  0  0
 10 11  1  0  0  0  0
 12 14  1  0  0  0  0
 12 13  1  0  0  0  0
 12 23  1  0  0  0  0
 13 14  1  0  0  0  0
 13 24  1  0  0  0  0
 13 25  1  0  0  0  0
 14 26  1  0  0  0  0
 14 27  1  0  0  0  0
M  END
> <s_m_source_file>
AV-unprocessed.smi

> <i_m_source_file_index>
2499

> <i_lp_mmshare_version>
43012

> <i_f3d_flags>
0

> <s_epik_input>
W0NIMl0xW0NIMl1bQ0hdMVtDQEhdKFtDSDNdKVtOSF1DKD1PKVtOSF1jMm5bY0hdW2NIXW8y

> <s_epik_cmdline>
J2VwaWtfcHl0aG9uJywgJy1waCcsICc3LjAnLCAnLXRuJywgJzgnLCAnLW1hJywgJzIwMCcsICctbWV0YWxfYmluZGluZycsICctaW1hZScsICc8aW5maWxlLm1hZT4nLCAnLW9tYWUnLCAnPG91dGZpbGUubWFlPic=

> <r_lp_tautomer_probability>
0.107061

> <r_epik_Ionization_Penalty>
1.51515

> <r_epik_Ionization_Penalty_Charging>
1.51478

> <r_epik_Ionization_Penalty_Neutral>
0.000369309

> <r_epik_State_Penalty>
2.62718

> <r_epik_Charging_Adjusted_Penalty>
4.14196

> <i_epik_Tot_Q>
0

> <i_epik_Tot_abs_Q>
0

> <r_epik_Metal_State_Penalty>
3.5378

> <b_epik_Metal_Only>
0

> <s_lp_Force_Field>
OPLS_2005

> <r_lp_Energy>
35.8345

> <b_lp_Chiralities_Consistent>
1

> <s_lp_Variant>
AV-unprocessed.smi:2499-5

> <Gold.Version>
5.8.1

> <Gold.Id.Protein>
6NUR|6NUR_protein|mol2

> <Gold.PLP.Fitness>
42.8024

> <Gold.PLP.PLP>
-34.4358

> <Gold.PLP.part.hbond>
-1.3171

> <Gold.PLP.part.metal>
0.0000

> <Gold.PLP.part.buried>
-3.6054

> <Gold.PLP.part.nonpolar>
-28.7147

> <Gold.PLP.part.repulsive>
0.3507

> <Gold.PLP.ligand.clash>
0.0000

> <Gold.PLP.ligand.torsion>
0.8483

> <Gold.PLP.Chemscore.Hbond>
1.0000

> <Gold.PLP.Chemscore.CHOScore>
2.0000

> <Gold.PLP.Chemscore.Metal>
0.0000

> <Gold.Chemscore.Hbonds>
donor molecule, donor type, donor heavy atom, donor atom, acceptor molecule, acceptor atom, score
      P1  H  7997  8009       L1     6  1.00
      L1  C     9    21       P1  7949  1.00
      L1  C    10    22       P1  7957  1.00

> <Gold.PLP.Chemscore.Internal.Correction>
1.0631

> <Gold.Rescore>
     Score         DG    S(hbond)    S(metal)    S(lipo)     H(rot)  DE(clash)    DE(int)     intcor
     11.64     -14.29       0.73        0.00      82.79       1.29       0.13       2.52       ----

> <Gold.Chemscore.Fitness>
11.6394

> <Gold.Chemscore.DG>
-14.2887

> <Gold.Chemscore.ZeroCoef>
-5.4800

> <Gold.Chemscore.Hbond>
0.7269

> <Gold.Chemscore.Metal>
0.0000

> <Gold.Chemscore.Lipo>
82.7943

> <Gold.Chemscore.Internal_Hbond>
0.0000

> <Gold.Chemscore.DEClash>
0.1301

> <Gold.Chemscore.DEInternal>
2.5191

> <Gold.Chemscore.Rot>
1.2915

> <Gold.Chemscore.Internal.Correction>
   9.000000E+99

> <Gold.Chemscore.Hbonds>
donor molecule, donor type, donor heavy atom, donor atom, acceptor molecule, acceptor atom, score
      P1  H  7997  8009       L1     6  0.27

> <Gold.Chemscore.Hbond.Weighted>
-2.4280

> <Gold.Chemscore.Metal.Weighted>
-0.0000

> <Gold.Chemscore.Lipo.Weighted>
-9.6869

> <Gold.Chemscore.Internal_Hbond.Weighted>
0.0000

> <Gold.Chemscore.DEClash.Weighted>
0.1301

> <Gold.Chemscore.DEInternal.Weighted>
2.5191

> <Gold.Chemscore.Rot.Weighted>
3.3062

> <Gold.Chemscore.Internal.Correction.Weighted>
   9.000000E+99

> <Gold.Protein.RotatedTorsions>
[ 6907 6896 6895 6894 ] final -157.10 input  -60.11 | X-H torsion
[ 7974 7965 7964 7962 ] final   95.29 input  175.53 | X-H torsion
[ 8008 7997 7996 7995 ] final -175.28 input   59.86 | X-H torsion
[ 10167 10162 10161 10158 ] final  119.02 input  -65.29 | X-H torsion
[ 10718 10713 10712 10709 ] final   30.06 input   66.30 | X-H torsion
[ 10763 10752 10751 10750 ] final   50.37 input  -60.55 | X-H torsion
[ 11005 11000 10999 10996 ] final -121.38 input  -57.11 | X-H torsion

> <Gold.Protein.ActiveResidues>
 VAL166  LYS551  ARG553  GLY616  TRP617  ASP618  TYR619  PRO620  LYS621  CYS622 
 ASP623  PHE694  ASN695  SER759  ASP760  ASP761  ALA762  ILE779  LEU786  VAL792 
 PHE793  MET794  SER795  GLU796  ALA797  LYS798  CYS799  TRP800  GLU811  SER814 

> <Gold.Protein.RotatedAtoms>
  151.2977  133.4136  159.2637 H   0  0  0  0  0  0  0  0  0  0  0  0  # atno 6907 bound_to 6896
  151.0222  134.9478  159.8076 H   0  0  0  0  0  0  0  0  0  0  0  0  # atno 6908 bound_to 6896
  152.5327  134.2940  159.9106 H   0  0  0  0  0  0  0  0  0  0  0  0  # atno 6909 bound_to 6896
  145.4541  139.2291  143.3023 H   0  0  0  0  0  0  0  0  0  0  0  0  # atno 7974 bound_to 7965
  155.9806  140.1181  157.0730 H   0  0  0  0  0  0  0  0  0  0  0  0  # atno 8008 bound_to 7997
  154.4181  140.1145  156.5497 H   0  0  0  0  0  0  0  0  0  0  0  0  # atno 8009 bound_to 7997
  155.6476  140.3473  155.4739 H   0  0  0  0  0  0  0  0  0  0  0  0  # atno 8010 bound_to 7997
  139.6073  144.7073  151.2924 H   0  0  0  0  0  0  0  0  0  0  0  0  # atno 10167 bound_to 10162
  157.2547  130.7132  149.6423 H   0  0  0  0  0  0  0  0  0  0  0  0  # atno 10718 bound_to 10713
  152.9785  135.5881  154.4241 H   0  0  0  0  0  0  0  0  0  0  0  0  # atno 10763 bound_to 10752
  154.3862  135.2767  155.2184 H   0  0  0  0  0  0  0  0  0  0  0  0  # atno 10764 bound_to 10752
  154.4076  135.6089  153.5988 H   0  0  0  0  0  0  0  0  0  0  0  0  # atno 10765 bound_to 10752
  141.0074  134.0314  157.3459 H   0  0  0  0  0  0  0  0  0  0  0  0  # atno 11005 bound_to 11000
  146.2488  140.5303  142.8902 LP  0  0  0  0  0  0  0  0  0  0  0  0  # atno 17320 bound_to 7965
  144.8043  140.6271  143.6457 LP  0  0  0  0  0  0  0  0  0  0  0  0  # atno 17321 bound_to 7965
  140.7294  143.6908  150.7923 LP  0  0  0  0  0  0  0  0  0  0  0  0  # atno 17342 bound_to 10162
  140.0496  143.5263  152.2680 LP  0  0  0  0  0  0  0  0  0  0  0  0  # atno 17343 bound_to 10162
  155.9665  130.4416  150.5349 LP  0  0  0  0  0  0  0  0  0  0  0  0  # atno 17370 bound_to 10713
  157.3240  131.0687  151.1910 LP  0  0  0  0  0  0  0  0  0  0  0  0  # atno 17371 bound_to 10713
  139.9071  135.0182  156.7532 LP  0  0  0  0  0  0  0  0  0  0  0  0  # atno 17394 bound_to 11000
  140.6790  133.9492  155.7899 LP  0  0  0  0  0  0  0  0  0  0  0  0  # atno 17395 bound_to 11000

$$$$
