AV-unprocessed.smi:1589|AV-procd|sdf|6394|dock8
  -GOLD-   22720 7 33D 1   1.00000     0.00000
 Structure written by MMmdl.
 43 44  0  0  0  0  0  0  0  0  1 V2000
  152.0601  143.6064  161.0786 C   0  0  0  0  0  0  0  0  0  0  0  0
  152.9091  143.7733  159.7990 C   0  0  0  0  0  0  0  0  0  0  0  0
  152.2562  144.8633  158.9210 C   0  0  0  0  0  0  0  0  0  0  0  0
  153.0599  142.4969  159.0707 N   0  0  0  0  0  0  0  0  0  0  0  0
  151.7966  142.0895  158.4312 C   0  0  0  0  0  0  0  0  0  0  0  0
  151.9567  140.7581  157.6732 C   0  0  0  0  0  0  0  0  0  0  0  0
  152.3713  139.7236  158.6277 N   0  0  0  0  0  0  0  0  0  0  0  0
  151.6289  138.6847  159.0869 C   0  0  0  0  0  0  0  0  0  0  0  0
  152.0905  137.8129  159.8243 O   0  0  0  0  0  0  0  0  0  0  0  0
  150.3539  138.6838  158.6543 N   0  0  0  0  0  0  0  0  0  0  0  0
  149.3351  137.7462  158.9571 C   0  0  0  0  0  0  0  0  0  0  0  0
  148.1338  137.4550  158.2511 C   0  0  0  0  0  0  0  0  0  0  0  0
  147.4389  136.5095  158.8662 N   0  0  0  0  0  0  0  0  0  0  0  0
  148.1698  136.1888  159.9632 N   0  0  0  0  0  0  0  0  0  0  0  0
  147.6890  135.1622  160.8749 C   0  0  0  0  0  0  0  0  0  0  0  0
  147.5953  135.6538  162.3250 C   0  0  0  0  0  0  0  0  0  0  0  0
  147.1373  134.7780  163.2228 N   0  0  0  0  0  0  0  0  0  0  0  0
  147.9228  136.7973  162.6390 O   0  0  0  0  0  0  0  0  0  0  0  0
  149.3357  136.9257  160.0444 C   0  0  0  0  0  0  0  0  0  0  0  0
  153.6689  140.0854  159.1979 C   0  0  0  0  0  0  0  0  0  0  0  0
  153.5194  141.4159  159.9607 C   0  0  0  0  0  0  0  0  0  0  0  0
  151.8311  144.5743  161.5252 H   0  0  0  0  0  0  0  0  0  0  0  0
  152.5774  143.0386  161.8511 H   0  0  0  0  0  0  0  0  0  0  0  0
  151.1114  143.1116  160.8666 H   0  0  0  0  0  0  0  0  0  0  0  0
  153.8992  144.1253  160.0928 H   0  0  0  0  0  0  0  0  0  0  0  0
  152.0172  145.7490  159.5104 H   0  0  0  0  0  0  0  0  0  0  0  0
  151.3276  144.5101  158.4709 H   0  0  0  0  0  0  0  0  0  0  0  0
  152.9156  145.2059  158.1242 H   0  0  0  0  0  0  0  0  0  0  0  0
  151.0079  142.0045  159.1805 H   0  0  0  0  0  0  0  0  0  0  0  0
  151.4748  142.8348  157.7064 H   0  0  0  0  0  0  0  0  0  0  0  0
  151.0318  140.5278  157.1448 H   0  0  0  0  0  0  0  0  0  0  0  0
  152.7152  140.8577  156.8948 H   0  0  0  0  0  0  0  0  0  0  0  0
  150.0832  139.4496  158.0548 H   0  0  0  0  0  0  0  0  0  0  0  0
  147.7429  137.8797  157.3387 H   0  0  0  0  0  0  0  0  0  0  0  0
  146.7068  134.8162  160.5487 H   0  0  0  0  0  0  0  0  0  0  0  0
  148.3668  134.3096  160.8162 H   0  0  0  0  0  0  0  0  0  0  0  0
  147.0593  135.0431  164.1940 H   0  0  0  0  0  0  0  0  0  0  0  0
  146.8755  133.8486  162.9265 H   0  0  0  0  0  0  0  0  0  0  0  0
  150.0437  136.8044  160.8512 H   0  0  0  0  0  0  0  0  0  0  0  0
  154.0613  139.3201  159.8687 H   0  0  0  0  0  0  0  0  0  0  0  0
  154.4067  140.1856  158.4001 H   0  0  0  0  0  0  0  0  0  0  0  0
  154.4932  141.6545  160.3844 H   0  0  0  0  0  0  0  0  0  0  0  0
  152.8242  141.2966  160.7934 H   0  0  0  0  0  0  0  0  0  0  0  0
  1  2  1  0  0  0  0
  1 22  1  0  0  0  0
  1 23  1  0  0  0  0
  1 24  1  0  0  0  0
  2  3  1  0  0  0  0
  2  4  1  0  0  0  0
  2 25  1  0  0  0  0
  3 26  1  0  0  0  0
  3 27  1  0  0  0  0
  3 28  1  0  0  0  0
  4 21  1  0  0  0  0
  4  5  1  0  0  0  0
  5  6  1  0  0  0  0
  5 29  1  0  0  0  0
  5 30  1  0  0  0  0
  6  7  1  0  0  0  0
  6 31  1  0  0  0  0
  6 32  1  0  0  0  0
  7  8  1  0  0  0  0
  7 20  1  0  0  0  0
  8  9  2  0  0  0  0
  8 10  1  0  0  0  0
 10 11  1  0  0  0  0
 10 33  1  0  0  0  0
 11 19  2  0  0  0  0
 11 12  1  0  0  0  0
 12 13  2  0  0  0  0
 12 34  1  0  0  0  0
 13 14  1  0  0  0  0
 14 15  1  0  0  0  0
 14 19  1  0  0  0  0
 15 16  1  0  0  0  0
 15 35  1  0  0  0  0
 15 36  1  0  0  0  0
 16 17  1  0  0  0  0
 16 18  2  0  0  0  0
 17 37  1  0  0  0  0
 17 38  1  0  0  0  0
 19 39  1  0  0  0  0
 20 21  1  0  0  0  0
 20 40  1  0  0  0  0
 20 41  1  0  0  0  0
 21 42  1  0  0  0  0
 21 43  1  0  0  0  0
M  END
> <s_m_source_file>
AV-unprocessed.smi

> <i_m_source_file_index>
1589

> <i_lp_mmshare_version>
43012

> <i_f3d_flags>
0

> <s_epik_input>
W0NIM11bQ0hdKFtDSDNdKU4xW0NIMl1bQ0gyXU4oW0NIMl1bQ0gyXTEpQyg9TylbTkhdYzJbY0hdbm4oW2NIXTIpW0NIMl1DKD1PKVtOSDJd

> <s_epik_cmdline>
J2VwaWtfcHl0aG9uJywgJy1waCcsICc3LjAnLCAnLXRuJywgJzgnLCAnLW1hJywgJzIwMCcsICctbWV0YWxfYmluZGluZycsICctaW1hZScsICc8aW5maWxlLm1hZT4nLCAnLW9tYWUnLCAnPG91dGZpbGUubWFlPic=

> <r_lp_tautomer_probability>
1

> <r_epik_Ionization_Penalty>
0.648545

> <r_epik_Ionization_Penalty_Charging>
0

> <r_epik_Ionization_Penalty_Neutral>
0.648545

> <r_epik_State_Penalty>
0.6668

> <r_epik_Charging_Adjusted_Penalty>
0.6668

> <i_epik_Tot_Q>
0

> <i_epik_Tot_abs_Q>
0

> <r_epik_Metal_State_Penalty>
0.666798

> <b_epik_Metal_Only>
0

> <s_lp_Force_Field>
OPLS_2005

> <r_lp_Energy>
50.3263

> <b_lp_Chiralities_Consistent>
1

> <s_lp_Variant>
AV-unprocessed.smi:1589-2

> <Gold.Version>
5.8.1

> <Gold.Id.Protein>
6NUR|6NUR_protein|mol2

> <Gold.PLP.Fitness>
39.9325

> <Gold.PLP.PLP>
-37.4293

> <Gold.PLP.part.hbond>
-1.0000

> <Gold.PLP.part.metal>
0.0000

> <Gold.PLP.part.buried>
-5.1956

> <Gold.PLP.part.nonpolar>
-31.9010

> <Gold.PLP.part.repulsive>
0.3384

> <Gold.PLP.ligand.clash>
0.0000

> <Gold.PLP.ligand.torsion>
0.2693

> <Gold.PLP.Chemscore.Hbond>
1.0000

> <Gold.PLP.Chemscore.CHOScore>
0.0000

> <Gold.PLP.Chemscore.Metal>
0.0000

> <Gold.Chemscore.Hbonds>
donor molecule, donor type, donor heavy atom, donor atom, acceptor molecule, acceptor atom, score
      P1  H  6931  6943       L1    18  0.99

> <Gold.PLP.Chemscore.Internal.Correction>
0.0419

> <Gold.Rescore>
     Score         DG    S(hbond)    S(metal)    S(lipo)     H(rot)  DE(clash)    DE(int)     intcor
     11.24     -13.87       0.94        0.00      84.66       1.82       0.10       2.53       ----

> <Gold.Chemscore.Fitness>
11.2354

> <Gold.Chemscore.DG>
-13.8716

> <Gold.Chemscore.ZeroCoef>
-5.4800

> <Gold.Chemscore.Hbond>
0.9413

> <Gold.Chemscore.Metal>
0.0000

> <Gold.Chemscore.Lipo>
84.6596

> <Gold.Chemscore.Internal_Hbond>
0.0000

> <Gold.Chemscore.DEClash>
0.1022

> <Gold.Chemscore.DEInternal>
2.5341

> <Gold.Chemscore.Rot>
1.8193

> <Gold.Chemscore.Internal.Correction>
   9.000000E+99

> <Gold.Chemscore.Hbonds>
donor molecule, donor type, donor heavy atom, donor atom, acceptor molecule, acceptor atom, score
      P1  H  6931  6943       L1    18  0.93

> <Gold.Chemscore.Hbond.Weighted>
-3.1440

> <Gold.Chemscore.Metal.Weighted>
-0.0000

> <Gold.Chemscore.Lipo.Weighted>
-9.9052

> <Gold.Chemscore.Internal_Hbond.Weighted>
0.0000

> <Gold.Chemscore.DEClash.Weighted>
0.1022

> <Gold.Chemscore.DEInternal.Weighted>
2.5341

> <Gold.Chemscore.Rot.Weighted>
4.6575

> <Gold.Chemscore.Internal.Correction.Weighted>
   9.000000E+99

> <Gold.Protein.RotatedTorsions>
[ 6907 6896 6895 6894 ] final -112.30 input  -60.11 | X-H torsion
[ 7974 7965 7964 7962 ] final  132.81 input  175.53 | X-H torsion
[ 8008 7997 7996 7995 ] final -102.13 input   59.86 | X-H torsion
[ 10167 10162 10161 10158 ] final  -90.84 input  -65.29 | X-H torsion
[ 10718 10713 10712 10709 ] final   39.85 input   66.30 | X-H torsion
[ 10763 10752 10751 10750 ] final  -75.42 input  -60.55 | X-H torsion
[ 11005 11000 10999 10996 ] final  147.92 input  -57.11 | X-H torsion

> <Gold.Protein.ActiveResidues>
 VAL166  LYS551  ARG553  GLY616  TRP617  ASP618  TYR619  PRO620  LYS621  CYS622 
 ASP623  PHE694  ASN695  SER759  ASP760  ASP761  ALA762  ILE779  LEU786  VAL792 
 PHE793  MET794  SER795  GLU796  ALA797  LYS798  CYS799  TRP800  GLU811  SER814 

> <Gold.Protein.RotatedAtoms>
  150.7749  133.9110  159.3369 H   0  0  0  0  0  0  0  0  0  0  0  0  # atno 6907 bound_to 6896
  151.6987  135.0932  160.0256 H   0  0  0  0  0  0  0  0  0  0  0  0  # atno 6908 bound_to 6896
  152.3781  133.6470  159.6175 H   0  0  0  0  0  0  0  0  0  0  0  0  # atno 6909 bound_to 6896
  144.9930  139.4387  143.5330 H   0  0  0  0  0  0  0  0  0  0  0  0  # atno 7974 bound_to 7965
  154.8524  140.0430  157.1612 H   0  0  0  0  0  0  0  0  0  0  0  0  # atno 8008 bound_to 7997
  154.8929  140.2989  155.5340 H   0  0  0  0  0  0  0  0  0  0  0  0  # atno 8009 bound_to 7997
  156.2996  140.2390  156.3946 H   0  0  0  0  0  0  0  0  0  0  0  0  # atno 8010 bound_to 7997
  140.3509  143.2892  151.9727 H   0  0  0  0  0  0  0  0  0  0  0  0  # atno 10167 bound_to 10162
  157.3753  130.7723  149.7150 H   0  0  0  0  0  0  0  0  0  0  0  0  # atno 10718 bound_to 10713
  154.4863  135.5832  153.6426 H   0  0  0  0  0  0  0  0  0  0  0  0  # atno 10763 bound_to 10752
  152.9855  135.6102  154.3182 H   0  0  0  0  0  0  0  0  0  0  0  0  # atno 10764 bound_to 10752
  154.3078  135.2845  155.2560 H   0  0  0  0  0  0  0  0  0  0  0  0  # atno 10765 bound_to 10752
  140.0916  134.9037  157.1660 H   0  0  0  0  0  0  0  0  0  0  0  0  # atno 11005 bound_to 11000
  146.3435  139.9273  142.8758 LP  0  0  0  0  0  0  0  0  0  0  0  0  # atno 17320 bound_to 7965
  145.2259  140.9954  143.4018 LP  0  0  0  0  0  0  0  0  0  0  0  0  # atno 17321 bound_to 7965
  139.4826  144.6077  151.7491 LP  0  0  0  0  0  0  0  0  0  0  0  0  # atno 17342 bound_to 10162
  140.5220  144.0864  150.6025 LP  0  0  0  0  0  0  0  0  0  0  0  0  # atno 17343 bound_to 10162
  155.9764  130.4076  150.3782 LP  0  0  0  0  0  0  0  0  0  0  0  0  # atno 17370 bound_to 10713
  157.1879  131.0408  151.2715 LP  0  0  0  0  0  0  0  0  0  0  0  0  # atno 17371 bound_to 10713
  140.3344  134.2774  155.7222 LP  0  0  0  0  0  0  0  0  0  0  0  0  # atno 17394 bound_to 11000
  141.2079  133.7791  157.0088 LP  0  0  0  0  0  0  0  0  0  0  0  0  # atno 17395 bound_to 11000

$$$$
