AV-unprocessed.smi:2889|AV-procd|sdf|11112|dock1
  -GOLD-   2272015583D 1   1.00000     0.00000
 Structure written by MMmdl.
 35 36  0  0  0  0  0  0  0  0  2 V2000
  153.1363  143.2787  162.8429 C   0  0  0  0  0  0  0  0  0  0  0  0
  152.4734  142.0192  161.7207 S   0  0  0  0  0  0  0  0  0  0  0  0
  152.4235  142.9506  160.1546 C   0  0  2  0  0  0  0  0  0  0  0  0
  152.3758  144.4770  160.4470 C   0  0  0  0  0  0  0  0  0  0  0  0
  152.2993  145.3418  159.1724 C   0  0  0  0  0  0  0  0  0  0  0  0
  151.1053  144.8833  158.3141 C   0  0  0  0  0  0  0  0  0  0  0  0
  151.1573  143.3694  157.9973 C   0  0  0  0  0  0  0  0  0  0  0  0
  151.2431  142.4730  159.2596 C   0  0  1  0  0  0  0  0  0  0  0  0
  151.4353  141.0837  158.8613 N   0  5  0  0  0  0  0  0  0  0  0  0
  150.3850  140.3878  157.8409 S   0  0  0  0  0  0  0  0  0  0  0  0
  150.3637  138.9209  157.9616 O   0  0  0  0  0  0  0  0  0  0  0  0
  149.0820  141.0729  157.8149 O   0  0  0  0  0  0  0  0  0  0  0  0
  151.1900  140.7557  156.2231 C   0  0  0  0  0  0  0  0  0  0  0  0
  151.5050  139.4780  155.4960 C   0  0  0  0  0  0  0  0  0  0  0  0
  150.6122  138.5966  154.8249 C   0  0  0  0  0  0  0  0  0  0  0  0
  151.4306  137.6144  154.3472 C   0  0  0  0  0  0  0  0  0  0  0  0
  152.7212  137.8679  154.6799 O   0  0  0  0  0  0  0  0  0  0  0  0
  152.7593  139.0611  155.4102 N   0  0  0  0  0  0  0  0  0  0  0  0
  153.2631  142.8591  163.8406 H   0  0  0  0  0  0  0  0  0  0  0  0
  152.4611  144.1307  162.9130 H   0  0  0  0  0  0  0  0  0  0  0  0
  154.1065  143.6290  162.4907 H   0  0  0  0  0  0  0  0  0  0  0  0
  153.3530  142.7398  159.6231 H   0  0  0  0  0  0  0  0  0  0  0  0
  151.5226  144.7088  161.0879 H   0  0  0  0  0  0  0  0  0  0  0  0
  153.2578  144.7722  161.0146 H   0  0  0  0  0  0  0  0  0  0  0  0
  152.2000  146.3960  159.4319 H   0  0  0  0  0  0  0  0  0  0  0  0
  153.2238  145.2415  158.6026 H   0  0  0  0  0  0  0  0  0  0  0  0
  150.1725  145.1295  158.8254 H   0  0  0  0  0  0  0  0  0  0  0  0
  151.0915  145.4484  157.3817 H   0  0  0  0  0  0  0  0  0  0  0  0
  150.2794  143.0995  157.4098 H   0  0  0  0  0  0  0  0  0  0  0  0
  152.0198  143.1787  157.3567 H   0  0  0  0  0  0  0  0  0  0  0  0
  150.3220  142.6046  159.8290 H   0  0  0  0  0  0  0  0  0  0  0  0
  150.5142  141.3798  155.6393 H   0  0  0  0  0  0  0  0  0  0  0  0
  152.0923  141.3361  156.4186 H   0  0  0  0  0  0  0  0  0  0  0  0
  149.5400  138.6716  154.7201 H   0  0  0  0  0  0  0  0  0  0  0  0
  151.2550  136.7141  153.7772 H   0  0  0  0  0  0  0  0  0  0  0  0
  1  2  1  0  0  0  0
  1 19  1  0  0  0  0
  1 20  1  0  0  0  0
  1 21  1  0  0  0  0
  2  3  1  0  0  0  0
  3  8  1  0  0  0  0
  3  4  1  0  0  0  0
  3 22  1  0  0  0  0
  4  5  1  0  0  0  0
  4 23  1  0  0  0  0
  4 24  1  0  0  0  0
  5  6  1  0  0  0  0
  5 25  1  0  0  0  0
  5 26  1  0  0  0  0
  6  7  1  0  0  0  0
  6 27  1  0  0  0  0
  6 28  1  0  0  0  0
  7  8  1  0  0  0  0
  7 29  1  0  0  0  0
  7 30  1  0  0  0  0
  8  9  1  0  0  0  0
  8 31  1  0  0  0  0
  9 10  1  0  0  0  0
 10 11  2  0  0  0  0
 10 12  2  0  0  0  0
 10 13  1  0  0  0  0
 13 14  1  0  0  0  0
 13 32  1  0  0  0  0
 13 33  1  0  0  0  0
 14 18  2  0  0  0  0
 14 15  1  0  0  0  0
 15 16  2  0  0  0  0
 15 34  1  0  0  0  0
 16 17  1  0  0  0  0
 16 35  1  0  0  0  0
 17 18  1  0  0  0  0
M  CHG  1   9  -1
M  END
> <s_m_source_file>
AV-unprocessed.smi

> <i_m_source_file_index>
2889

> <i_lp_mmshare_version>
43012

> <i_f3d_flags>
0

> <s_epik_input>
W0NIM11TW0NAQEhdMVtDSDJdW0NIMl1bQ0gyXVtDSDJdW0NASF0xW05IXVMoPU8pKD1PKVtDSDJdYzJbY0hdW2NIXW9uMg==

> <s_epik_cmdline>
J2VwaWtfcHl0aG9uJywgJy1waCcsICc3LjAnLCAnLXRuJywgJzgnLCAnLW1hJywgJzIwMCcsICctbWV0YWxfYmluZGluZycsICctaW1hZScsICc8aW5maWxlLm1hZT4nLCAnLW9tYWUnLCAnPG91dGZpbGUubWFlPic=

> <r_lp_tautomer_probability>
1

> <r_epik_Ionization_Penalty>
4.65467

> <r_epik_Ionization_Penalty_Charging>
4.65467

> <r_epik_Ionization_Penalty_Neutral>
2.71476e-10

> <r_epik_State_Penalty>
4.65444

> <r_epik_Charging_Adjusted_Penalty>
9.30911

> <i_epik_Tot_Q>
-1

> <i_epik_Tot_abs_Q>
1

> <r_epik_Metal_State_Penalty>
0.901484

> <b_epik_Metal_Only>
1

> <s_lp_Force_Field>
OPLS_2005

> <r_lp_Energy>
8.40565

> <b_lp_Chiralities_Consistent>
1

> <s_lp_Variant>
AV-unprocessed.smi:2889-5

> <Gold.Version>
5.8.1

> <Gold.Id.Protein>
6NUR|6NUR_protein|mol2

> <Gold.PLP.Fitness>
45.8900

> <Gold.PLP.PLP>
-41.1325

> <Gold.PLP.part.hbond>
-2.0000

> <Gold.PLP.part.metal>
0.0000

> <Gold.PLP.part.buried>
-5.5708

> <Gold.PLP.part.nonpolar>
-33.4506

> <Gold.PLP.part.repulsive>
0.0864

> <Gold.PLP.ligand.clash>
0.0000

> <Gold.PLP.ligand.torsion>
1.1346

> <Gold.PLP.Chemscore.Hbond>
1.0000

> <Gold.PLP.Chemscore.CHOScore>
1.0000

> <Gold.PLP.Chemscore.Metal>
0.0000

> <Gold.Chemscore.Hbonds>
donor molecule, donor type, donor heavy atom, donor atom, acceptor molecule, acceptor atom, score
      P1  H  7997  8008       L1    18  0.89
      L1  C    16    35       P1  7949  1.00

> <Gold.PLP.Chemscore.Internal.Correction>
1.0268

> <Gold.Rescore>
     Score         DG    S(hbond)    S(metal)    S(lipo)     H(rot)  DE(clash)    DE(int)     intcor
     18.02     -19.00       1.00        0.00     120.63       1.53       0.08       0.91       ----

> <Gold.Chemscore.Fitness>
18.0168

> <Gold.Chemscore.DG>
-19.0004

> <Gold.Chemscore.ZeroCoef>
-5.4800

> <Gold.Chemscore.Hbond>
0.9960

> <Gold.Chemscore.Metal>
0.0000

> <Gold.Chemscore.Lipo>
120.6339

> <Gold.Chemscore.Internal_Hbond>
0.0000

> <Gold.Chemscore.DEClash>
0.0767

> <Gold.Chemscore.DEInternal>
0.9068

> <Gold.Chemscore.Rot>
1.5314

> <Gold.Chemscore.Internal.Correction>
   9.000000E+99

> <Gold.Chemscore.Hbonds>
donor molecule, donor type, donor heavy atom, donor atom, acceptor molecule, acceptor atom, score
      P1  H  7997  8008       L1    18  0.86

> <Gold.Chemscore.Hbond.Weighted>
-3.3267

> <Gold.Chemscore.Metal.Weighted>
-0.0000

> <Gold.Chemscore.Lipo.Weighted>
-14.1142

> <Gold.Chemscore.Internal_Hbond.Weighted>
0.0000

> <Gold.Chemscore.DEClash.Weighted>
0.0767

> <Gold.Chemscore.DEInternal.Weighted>
0.9068

> <Gold.Chemscore.Rot.Weighted>
3.9205

> <Gold.Chemscore.Internal.Correction.Weighted>
   9.000000E+99

> <Gold.Protein.RotatedTorsions>
[ 6907 6896 6895 6894 ] final  -44.74 input  -60.11 | X-H torsion
[ 7974 7965 7964 7962 ] final   13.05 input  175.53 | X-H torsion
[ 8008 7997 7996 7995 ] final  -34.44 input   59.86 | X-H torsion
[ 10167 10162 10161 10158 ] final  -10.21 input  -65.29 | X-H torsion
[ 10718 10713 10712 10709 ] final  147.77 input   66.30 | X-H torsion
[ 10763 10752 10751 10750 ] final   -4.25 input  -60.55 | X-H torsion
[ 11005 11000 10999 10996 ] final  -25.98 input  -57.11 | X-H torsion

> <Gold.Protein.ActiveResidues>
 VAL166  LYS551  ARG553  GLY616  TRP617  ASP618  TYR619  PRO620  LYS621  CYS622 
 ASP623  PHE694  ASN695  SER759  ASP760  ASP761  ALA762  ILE779  LEU786  VAL792 
 PHE793  MET794  SER795  GLU796  ALA797  LYS798  CYS799  TRP800  GLU811  SER814 

> <Gold.Protein.RotatedAtoms>
  150.9295  134.8710  159.7541 H   0  0  0  0  0  0  0  0  0  0  0  0  # atno 6907 bound_to 6896
  152.5031  134.4100  159.9455 H   0  0  0  0  0  0  0  0  0  0  0  0  # atno 6908 bound_to 6896
  151.4128  133.3682  159.2781 H   0  0  0  0  0  0  0  0  0  0  0  0  # atno 6909 bound_to 6896
  146.2338  139.9246  142.8505 H   0  0  0  0  0  0  0  0  0  0  0  0  # atno 7974 bound_to 7965
  154.4121  140.1684  156.2050 H   0  0  0  0  0  0  0  0  0  0  0  0  # atno 8008 bound_to 7997
  155.9492  140.3402  155.6370 H   0  0  0  0  0  0  0  0  0  0  0  0  # atno 8009 bound_to 7997
  155.6892  140.0731  157.2445 H   0  0  0  0  0  0  0  0  0  0  0  0  # atno 8010 bound_to 7997
  140.7108  143.5773  150.9029 H   0  0  0  0  0  0  0  0  0  0  0  0  # atno 10167 bound_to 10162
  157.3169  131.0897  151.1272 H   0  0  0  0  0  0  0  0  0  0  0  0  # atno 10718 bound_to 10713
  153.3824  135.6999  153.6556 H   0  0  0  0  0  0  0  0  0  0  0  0  # atno 10763 bound_to 10752
  153.5162  135.3621  155.2610 H   0  0  0  0  0  0  0  0  0  0  0  0  # atno 10764 bound_to 10752
  154.8694  135.4146  154.3124 H   0  0  0  0  0  0  0  0  0  0  0  0  # atno 10765 bound_to 10752
  140.8987  133.7539  156.0515 H   0  0  0  0  0  0  0  0  0  0  0  0  # atno 11005 bound_to 11000
  145.2103  140.9893  143.4104 LP  0  0  0  0  0  0  0  0  0  0  0  0  # atno 17320 bound_to 7965
  144.9697  139.3893  143.6315 LP  0  0  0  0  0  0  0  0  0  0  0  0  # atno 17321 bound_to 7965
  139.9499  143.6284  152.3032 LP  0  0  0  0  0  0  0  0  0  0  0  0  # atno 17342 bound_to 10162
  139.6799  144.7656  151.1628 LP  0  0  0  0  0  0  0  0  0  0  0  0  # atno 17343 bound_to 10162
  157.2572  130.6642  149.5958 LP  0  0  0  0  0  0  0  0  0  0  0  0  # atno 17370 bound_to 10713
  155.9682  130.4520  150.5756 LP  0  0  0  0  0  0  0  0  0  0  0  0  # atno 17371 bound_to 10713
  140.8257  134.3237  157.5366 LP  0  0  0  0  0  0  0  0  0  0  0  0  # atno 17394 bound_to 11000
  139.8739  134.9335  156.3581 LP  0  0  0  0  0  0  0  0  0  0  0  0  # atno 17395 bound_to 11000

$$$$
