AV-unprocessed.smi:240|AV-procd|sdf|1827|dock1
  -GOLD-   2262020423D 1   1.00000     0.00000
 Structure written by MMmdl.
 55 59  0  0  0  0  0  0  0  0  1 V2000
  151.4877  140.7871  155.3354 O   0  0  0  0  0  0  0  0  0  0  0  0
  150.4790  141.5172  156.0047 C   0  0  1  0  0  0  0  0  0  0  0  0
  149.3123  141.8076  155.0434 C   0  0  0  0  0  0  0  0  0  0  0  0
  148.1360  140.9662  155.5406 C   0  0  0  0  0  0  0  0  0  0  0  0
  148.3656  140.8615  157.0453 C   0  0  0  0  0  0  0  0  0  0  0  0
  149.8865  140.6911  157.1731 C   0  0  2  0  0  0  0  0  0  0  0  0
  150.4683  140.9730  158.5945 C   0  0  2  0  0  0  0  0  0  0  0  0
  150.4205  142.4734  158.9897 C   0  0  0  0  0  0  0  0  0  0  0  0
  150.9827  142.6722  160.2806 O   0  0  0  0  0  0  0  0  0  0  0  0
  152.3510  142.2955  160.3213 C   0  0  0  0  0  0  0  0  0  0  0  0
  152.4523  140.7925  160.0390 C   0  0  0  0  0  0  0  0  0  0  0  0
  151.8416  140.4681  158.7540 N   0  0  0  0  0  0  0  0  0  0  0  0
  152.0669  139.1651  158.4625 C   0  0  0  0  0  0  0  0  0  0  0  0
  151.0257  138.3113  158.2750 N   0  0  0  0  0  0  0  0  0  0  0  0
  151.2598  137.0255  157.9947 C   0  0  0  0  0  0  0  0  0  0  0  0
  152.4315  136.3982  157.8672 N   0  0  0  0  0  0  0  0  0  0  0  0
  153.4764  137.2513  158.0711 C   0  0  0  0  0  0  0  0  0  0  0  0
  153.3816  138.6378  158.3728 C   0  0  0  0  0  0  0  0  0  0  0  0
  154.6498  139.1874  158.5050 N   0  0  0  0  0  0  0  0  0  0  0  0
  155.4524  138.1808  158.2900 C   0  0  0  0  0  0  0  0  0  0  0  0
  154.8329  136.9775  158.0323 N   0  0  0  0  0  0  0  0  0  0  0  0
  155.4791  135.7021  157.7612 C   0  0  0  0  0  0  0  0  0  0  0  0
  156.7024  135.8125  156.8204 C   0  0  1  0  0  0  0  0  0  0  0  0
  156.3487  136.5887  155.6887 O   0  0  0  0  0  0  0  0  0  0  0  0
  157.9067  136.4609  157.4906 C   0  0  0  0  0  0  0  0  0  0  0  0
  159.0803  135.8426  156.7436 C   0  0  0  0  0  0  0  0  0  0  0  0
  158.6720  134.4963  156.5700 O   0  0  0  0  0  0  0  0  0  0  0  0
  157.2679  134.4634  156.3300 C   0  0  0  0  0  0  0  0  0  0  0  0
  151.5071  139.9097  155.6866 H   0  0  0  0  0  0  0  0  0  0  0  0
  150.9144  142.4570  156.3398 H   0  0  0  0  0  0  0  0  0  0  0  0
  149.0492  142.8638  155.1115 H   0  0  0  0  0  0  0  0  0  0  0  0
  149.5496  141.6040  153.9983 H   0  0  0  0  0  0  0  0  0  0  0  0
  147.1701  141.4063  155.2911 H   0  0  0  0  0  0  0  0  0  0  0  0
  148.1769  139.9728  155.0918 H   0  0  0  0  0  0  0  0  0  0  0  0
  148.0199  141.7821  157.5126 H   0  0  0  0  0  0  0  0  0  0  0  0
  147.8145  140.0346  157.4939 H   0  0  0  0  0  0  0  0  0  0  0  0
  150.0499  139.6379  156.9402 H   0  0  0  0  0  0  0  0  0  0  0  0
  149.8455  140.4395  159.3141 H   0  0  0  0  0  0  0  0  0  0  0  0
  150.9464  143.1038  158.2730 H   0  0  0  0  0  0  0  0  0  0  0  0
  149.3944  142.8342  159.0321 H   0  0  0  0  0  0  0  0  0  0  0  0
  152.9300  142.8726  159.5984 H   0  0  0  0  0  0  0  0  0  0  0  0
  152.7531  142.5206  161.3090 H   0  0  0  0  0  0  0  0  0  0  0  0
  153.5010  140.4907  160.0449 H   0  0  0  0  0  0  0  0  0  0  0  0
  151.9526  140.2334  160.8317 H   0  0  0  0  0  0  0  0  0  0  0  0
  150.3830  136.4112  157.8527 H   0  0  0  0  0  0  0  0  0  0  0  0
  156.5266  138.2911  158.3151 H   0  0  0  0  0  0  0  0  0  0  0  0
  155.7758  135.2588  158.7128 H   0  0  0  0  0  0  0  0  0  0  0  0
  154.7346  135.0306  157.3317 H   0  0  0  0  0  0  0  0  0  0  0  0
  156.8549  137.3865  155.7017 H   0  0  0  0  0  0  0  0  0  0  0  0
  157.8982  137.5509  157.4523 H   0  0  0  0  0  0  0  0  0  0  0  0
  157.9598  136.1664  158.5397 H   0  0  0  0  0  0  0  0  0  0  0  0
  159.2166  136.3135  155.7689 H   0  0  0  0  0  0  0  0  0  0  0  0
  160.0179  135.9114  157.2951 H   0  0  0  0  0  0  0  0  0  0  0  0
  156.8567  133.6189  156.8820 H   0  0  0  0  0  0  0  0  0  0  0  0
  157.0681  134.2899  155.2714 H   0  0  0  0  0  0  0  0  0  0  0  0
  1  2  1  0  0  0  0
  1 29  1  0  0  0  0
  2  6  1  0  0  0  0
  2  3  1  0  0  0  0
  2 30  1  0  0  0  0
  3  4  1  0  0  0  0
  3 31  1  0  0  0  0
  3 32  1  0  0  0  0
  4  5  1  0  0  0  0
  4 33  1  0  0  0  0
  4 34  1  0  0  0  0
  5  6  1  0  0  0  0
  5 35  1  0  0  0  0
  5 36  1  0  0  0  0
  6  7  1  0  0  0  0
  6 37  1  0  0  0  0
  7 12  1  0  0  0  0
  7  8  1  0  0  0  0
  7 38  1  0  0  0  0
  8  9  1  0  0  0  0
  8 39  1  0  0  0  0
  8 40  1  0  0  0  0
  9 10  1  0  0  0  0
 10 11  1  0  0  0  0
 10 41  1  0  0  0  0
 10 42  1  0  0  0  0
 11 12  1  0  0  0  0
 11 43  1  0  0  0  0
 11 44  1  0  0  0  0
 12 13  1  0  0  0  0
 13 18  1  0  0  0  0
 13 14  2  0  0  0  0
 14 15  1  0  0  0  0
 15 16  2  0  0  0  0
 15 45  1  0  0  0  0
 16 17  1  0  0  0  0
 17 21  1  0  0  0  0
 17 18  2  0  0  0  0
 18 19  1  0  0  0  0
 19 20  2  0  0  0  0
 20 21  1  0  0  0  0
 20 46  1  0  0  0  0
 21 22  1  0  0  0  0
 22 23  1  0  0  0  0
 22 47  1  0  0  0  0
 22 48  1  0  0  0  0
 23 28  1  0  0  0  0
 23 24  1  0  0  0  0
 23 25  1  0  0  0  0
 24 49  1  0  0  0  0
 25 26  1  0  0  0  0
 25 50  1  0  0  0  0
 25 51  1  0  0  0  0
 26 27  1  0  0  0  0
 26 52  1  0  0  0  0
 26 53  1  0  0  0  0
 27 28  1  0  0  0  0
 28 54  1  0  0  0  0
 28 55  1  0  0  0  0
M  END
> <s_m_source_file>
AV-unprocessed.smi

> <i_m_source_file_index>
240

> <i_lp_mmshare_version>
43012

> <i_f3d_flags>
0

> <s_epik_input>
W09IXVtDQEBIXTFbQ0gyXVtDSDJdW0NIMl1bQ0BIXTFbQ0BASF0yW0NIMl1PW0NIMl1bQ0gyXU4yYyhuW2NIXW4zKWMoYzM0KW5bY0hdbjRbQ0gyXVtDQEBdNShbT0hdKVtDSDJdW0NIMl1PW0NIMl01

> <s_epik_cmdline>
J2VwaWtfcHl0aG9uJywgJy1waCcsICc3LjAnLCAnLXRuJywgJzgnLCAnLW1hJywgJzIwMCcsICctbWV0YWxfYmluZGluZycsICctaW1hZScsICc8aW5maWxlLm1hZT4nLCAnLW9tYWUnLCAnPG91dGZpbGUubWFlPic=

> <r_lp_tautomer_probability>
1

> <r_epik_Ionization_Penalty>
0.000130618

> <r_epik_Ionization_Penalty_Charging>
0

> <r_epik_Ionization_Penalty_Neutral>
0.000130618

> <r_epik_State_Penalty>
-0

> <r_epik_Charging_Adjusted_Penalty>
0

> <i_epik_Tot_Q>
0

> <i_epik_Tot_abs_Q>
0

> <r_epik_Metal_State_Penalty>
-0

> <b_epik_Metal_Only>
0

> <s_lp_Force_Field>
OPLS_2005

> <r_lp_Energy>
61.8297

> <b_lp_Chiralities_Consistent>
1

> <s_lp_Variant>
AV-unprocessed.smi:240-4

> <Gold.Version>
5.8.1

> <Gold.Id.Protein>
6NUR|6NUR_protein|mol2

> <Gold.PLP.Fitness>
47.6899

> <Gold.PLP.PLP>
-36.8353

> <Gold.PLP.part.hbond>
-4.0478

> <Gold.PLP.part.metal>
0.0000

> <Gold.PLP.part.buried>
-6.5860

> <Gold.PLP.part.nonpolar>
-25.8420

> <Gold.PLP.part.repulsive>
0.0000

> <Gold.PLP.ligand.clash>
0.0000

> <Gold.PLP.ligand.torsion>
0.5659

> <Gold.PLP.Chemscore.Hbond>
3.8960

> <Gold.PLP.Chemscore.CHOScore>
0.0000

> <Gold.PLP.Chemscore.Metal>
0.0000

> <Gold.Chemscore.Hbonds>
donor molecule, donor type, donor heavy atom, donor atom, acceptor molecule, acceptor atom, score
      P1  H  7989  7998       L1     1  0.70
      P1  H  7997  8010       L1    19  0.67

> <Gold.PLP.Chemscore.Internal.Correction>
0.2984

> <Gold.Rescore>
     Score         DG    S(hbond)    S(metal)    S(lipo)     H(rot)  DE(clash)    DE(int)     intcor
     14.54     -16.90       3.10        0.00      74.86       3.00       0.06       2.30       ----

> <Gold.Chemscore.Fitness>
14.5353

> <Gold.Chemscore.DG>
-16.8951

> <Gold.Chemscore.ZeroCoef>
-5.4800

> <Gold.Chemscore.Hbond>
3.0978

> <Gold.Chemscore.Metal>
0.0000

> <Gold.Chemscore.Lipo>
74.8565

> <Gold.Chemscore.Internal_Hbond>
0.0000

> <Gold.Chemscore.DEClash>
0.0621

> <Gold.Chemscore.DEInternal>
2.2976

> <Gold.Chemscore.Rot>
3.0039

> <Gold.Chemscore.Internal.Correction>
   9.000000E+99

> <Gold.Chemscore.Hbonds>
donor molecule, donor type, donor heavy atom, donor atom, acceptor molecule, acceptor atom, score
      P1  H  7989  7998       L1     1  0.62
      P1  H  7997  8010       L1    19  0.06

> <Gold.Chemscore.Hbond.Weighted>
-10.3468

> <Gold.Chemscore.Metal.Weighted>
-0.0000

> <Gold.Chemscore.Lipo.Weighted>
-8.7582

> <Gold.Chemscore.Internal_Hbond.Weighted>
0.0000

> <Gold.Chemscore.DEClash.Weighted>
0.0621

> <Gold.Chemscore.DEInternal.Weighted>
2.2976

> <Gold.Chemscore.Rot.Weighted>
7.6899

> <Gold.Chemscore.Internal.Correction.Weighted>
   9.000000E+99

> <Gold.Protein.RotatedTorsions>
[ 6907 6896 6895 6894 ] final -119.51 input  -60.11 | X-H torsion
[ 7974 7965 7964 7962 ] final    0.24 input  175.53 | X-H torsion
[ 8008 7997 7996 7995 ] final   -5.22 input   59.86 | X-H torsion
[ 10167 10162 10161 10158 ] final   42.64 input  -65.29 | X-H torsion
[ 10718 10713 10712 10709 ] final -164.03 input   66.30 | X-H torsion
[ 10763 10752 10751 10750 ] final  158.81 input  -60.55 | X-H torsion
[ 11005 11000 10999 10996 ] final  145.15 input  -57.11 | X-H torsion

> <Gold.Protein.ActiveResidues>
 VAL166  LYS551  ARG553  GLY616  TRP617  ASP618  TYR619  PRO620  LYS621  CYS622 
 ASP623  PHE694  ASN695  SER759  ASP760  ASP761  ALA762  ILE779  LEU786  VAL792 
 PHE793  MET794  SER795  GLU796  ALA797  LYS798  CYS799  TRP800  GLU811  SER814 

> <Gold.Protein.RotatedAtoms>
  150.8311  133.8089  159.3097 H   0  0  0  0  0  0  0  0  0  0  0  0  # atno 6907 bound_to 6896
  151.5818  135.1056  160.0028 H   0  0  0  0  0  0  0  0  0  0  0  0  # atno 6908 bound_to 6896
  152.4391  133.7373  159.6677 H   0  0  0  0  0  0  0  0  0  0  0  0  # atno 6909 bound_to 6896
  146.2433  140.1167  142.8342 H   0  0  0  0  0  0  0  0  0  0  0  0  # atno 7974 bound_to 7965
  154.6061  140.2464  155.7729 H   0  0  0  0  0  0  0  0  0  0  0  0  # atno 8008 bound_to 7997
  156.2342  140.2956  156.0219 H   0  0  0  0  0  0  0  0  0  0  0  0  # atno 8009 bound_to 7997
  155.2129  140.0398  157.2927 H   0  0  0  0  0  0  0  0  0  0  0  0  # atno 8010 bound_to 7997
  140.3523  144.2334  150.6144 H   0  0  0  0  0  0  0  0  0  0  0  0  # atno 10167 bound_to 10162
  156.6332  130.8938  151.2981 H   0  0  0  0  0  0  0  0  0  0  0  0  # atno 10718 bound_to 10713
  154.2220  135.2781  155.2921 H   0  0  0  0  0  0  0  0  0  0  0  0  # atno 10763 bound_to 10752
  154.5694  135.5623  153.7084 H   0  0  0  0  0  0  0  0  0  0  0  0  # atno 10764 bound_to 10752
  153.0039  135.6317  154.2360 H   0  0  0  0  0  0  0  0  0  0  0  0  # atno 10765 bound_to 10752
  140.0689  134.9163  157.1311 H   0  0  0  0  0  0  0  0  0  0  0  0  # atno 11005 bound_to 11000
  145.0441  140.8968  143.5035 LP  0  0  0  0  0  0  0  0  0  0  0  0  # atno 17320 bound_to 7965
  145.1253  139.2667  143.5567 LP  0  0  0  0  0  0  0  0  0  0  0  0  # atno 17321 bound_to 7965
  140.5207  143.2266  151.8394 LP  0  0  0  0  0  0  0  0  0  0  0  0  # atno 17342 bound_to 10162
  139.4824  144.4840  151.9270 LP  0  0  0  0  0  0  0  0  0  0  0  0  # atno 17343 bound_to 10162
  157.7193  130.9538  150.1378 LP  0  0  0  0  0  0  0  0  0  0  0  0  # atno 17370 bound_to 10713
  156.2218  130.3674  149.8547 LP  0  0  0  0  0  0  0  0  0  0  0  0  # atno 17371 bound_to 10713
  140.3657  134.2445  155.7182 LP  0  0  0  0  0  0  0  0  0  0  0  0  # atno 17394 bound_to 11000
  141.2004  133.7989  157.0492 LP  0  0  0  0  0  0  0  0  0  0  0  0  # atno 17395 bound_to 11000

$$$$
