AV-unprocessed.smi:2690|AV-procd|sdf|10389|dock6
  -GOLD-   2272014423D 1   1.00000     0.00000
 Structure written by MMmdl.
 47 49  0  0  0  0  0  0  0  0  1 V2000
  149.9429  141.6304  156.6313 C   0  0  0  0  0  0  0  0  0  0  0  0
  149.5864  140.9574  155.2985 C   0  0  2  0  0  0  0  0  0  0  0  0
  148.2612  141.5011  154.7319 C   0  0  0  0  0  0  0  0  0  0  0  0
  147.8870  140.8149  153.4063 C   0  0  0  0  0  0  0  0  0  0  0  0
  147.8232  139.2755  153.5303 C   0  0  2  0  0  0  0  0  0  0  0  0
  147.7168  138.7697  152.2124 O   0  0  0  0  0  0  0  0  0  0  0  0
  146.5633  138.8118  154.3129 C   0  0  0  0  0  0  0  0  0  0  0  0
  145.9422  137.6044  153.7859 N   0  0  0  0  0  0  0  0  0  0  0  0
  145.0350  137.5263  152.7518 C   0  0  0  0  0  0  0  0  0  0  0  0
  144.6175  136.3237  152.4631 N   0  0  0  0  0  0  0  0  0  0  0  0
  145.2796  135.5117  153.3745 C   0  0  0  0  0  0  0  0  0  0  0  0
  145.2889  134.1140  153.6201 C   0  0  0  0  0  0  0  0  0  0  0  0
  144.5355  133.2718  152.8780 N   0  0  0  0  0  0  0  0  0  0  0  0
  144.6668  133.2099  151.4248 C   0  0  0  0  0  0  0  0  0  0  0  0
  143.5106  132.4183  150.7912 C   0  0  0  0  0  0  0  0  0  0  0  0
  146.0211  132.5952  151.0485 C   0  0  0  0  0  0  0  0  0  0  0  0
  146.0752  133.6554  154.6293 N   0  0  0  0  0  0  0  0  0  0  0  0
  146.8075  134.5104  155.3498 C   0  0  0  0  0  0  0  0  0  0  0  0
  146.8981  135.8370  155.2318 N   0  0  0  0  0  0  0  0  0  0  0  0
  146.1109  136.2999  154.2188 C   0  0  0  0  0  0  0  0  0  0  0  0
  149.1546  138.7438  154.1128 C   0  0  0  0  0  0  0  0  0  0  0  0
  149.5252  139.4253  155.4420 C   0  0  0  0  0  0  0  0  0  0  0  0
  149.1859  141.4315  157.3905 H   0  0  0  0  0  0  0  0  0  0  0  0
  150.0232  142.7116  156.5161 H   0  0  0  0  0  0  0  0  0  0  0  0
  150.8983  141.2677  157.0112 H   0  0  0  0  0  0  0  0  0  0  0  0
  150.3788  141.1958  154.5875 H   0  0  0  0  0  0  0  0  0  0  0  0
  147.4615  141.3659  155.4604 H   0  0  0  0  0  0  0  0  0  0  0  0
  148.3427  142.5765  154.5701 H   0  0  0  0  0  0  0  0  0  0  0  0
  146.9365  141.2070  153.0421 H   0  0  0  0  0  0  0  0  0  0  0  0
  148.6326  141.0898  152.6582 H   0  0  0  0  0  0  0  0  0  0  0  0
  148.1840  137.9495  152.1675 H   0  0  0  0  0  0  0  0  0  0  0  0
  146.8058  138.6339  155.3603 H   0  0  0  0  0  0  0  0  0  0  0  0
  145.8108  139.6016  154.3135 H   0  0  0  0  0  0  0  0  0  0  0  0
  144.6927  138.3961  152.2102 H   0  0  0  0  0  0  0  0  0  0  0  0
  143.8167  132.6861  153.2784 H   0  0  0  0  0  0  0  0  0  0  0  0
  144.6539  134.2250  151.0263 H   0  0  0  0  0  0  0  0  0  0  0  0
  143.6114  132.3808  149.7063 H   0  0  0  0  0  0  0  0  0  0  0  0
  142.5439  132.8716  151.0115 H   0  0  0  0  0  0  0  0  0  0  0  0
  143.4863  131.3916  151.1576 H   0  0  0  0  0  0  0  0  0  0  0  0
  146.1555  132.5753  149.9666 H   0  0  0  0  0  0  0  0  0  0  0  0
  146.1093  131.5714  151.4137 H   0  0  0  0  0  0  0  0  0  0  0  0
  146.8445  133.1723  151.4706 H   0  0  0  0  0  0  0  0  0  0  0  0
  147.4065  134.0681  156.1320 H   0  0  0  0  0  0  0  0  0  0  0  0
  149.1221  137.6620  154.2437 H   0  0  0  0  0  0  0  0  0  0  0  0
  149.9603  138.9283  153.4003 H   0  0  0  0  0  0  0  0  0  0  0  0
  150.4884  139.0462  155.7852 H   0  0  0  0  0  0  0  0  0  0  0  0
  148.8020  139.1586  156.2121 H   0  0  0  0  0  0  0  0  0  0  0  0
  1  2  1  0  0  0  0
  1 23  1  0  0  0  0
  1 24  1  0  0  0  0
  1 25  1  0  0  0  0
  2 22  1  0  0  0  0
  2  3  1  0  0  0  0
  2 26  1  0  0  0  0
  3  4  1  0  0  0  0
  3 27  1  0  0  0  0
  3 28  1  0  0  0  0
  4  5  1  0  0  0  0
  4 29  1  0  0  0  0
  4 30  1  0  0  0  0
  5  6  1  0  0  0  0
  5  7  1  0  0  0  0
  5 21  1  0  0  0  0
  6 31  1  0  0  0  0
  7  8  1  0  0  0  0
  7 32  1  0  0  0  0
  7 33  1  0  0  0  0
  8 20  1  0  0  0  0
  8  9  1  0  0  0  0
  9 10  2  0  0  0  0
  9 34  1  0  0  0  0
 10 11  1  0  0  0  0
 11 20  2  0  0  0  0
 11 12  1  0  0  0  0
 12 13  1  0  0  0  0
 12 17  2  0  0  0  0
 13 14  1  0  0  0  0
 13 35  1  0  0  0  0
 14 15  1  0  0  0  0
 14 16  1  0  0  0  0
 14 36  1  0  0  0  0
 15 37  1  0  0  0  0
 15 38  1  0  0  0  0
 15 39  1  0  0  0  0
 16 40  1  0  0  0  0
 16 41  1  0  0  0  0
 16 42  1  0  0  0  0
 17 18  1  0  0  0  0
 18 19  2  0  0  0  0
 18 43  1  0  0  0  0
 19 20  1  0  0  0  0
 21 22  1  0  0  0  0
 21 44  1  0  0  0  0
 21 45  1  0  0  0  0
 22 46  1  0  0  0  0
 22 47  1  0  0  0  0
M  END
> <s_m_source_file>
AV-unprocessed.smi

> <i_m_source_file_index>
2690

> <i_lp_mmshare_version>
43012

> <i_f3d_flags>
0

> <s_epik_input>
W0NIMl0xW0NIMl1bQ0BIXShbQ0gzXSlbQ0gyXVtDSDJdW0NAQF0xKFtPSF0pW0NIMl1uKFtjSF1uMiljKGMyMyluW2NIXW5jM1tOSF1bQ0hdKFtDSDNdKVtDSDNd

> <s_epik_cmdline>
J2VwaWtfcHl0aG9uJywgJy1waCcsICc3LjAnLCAnLXRuJywgJzgnLCAnLW1hJywgJzIwMCcsICctbWV0YWxfYmluZGluZycsICctaW1hZScsICc8aW5maWxlLm1hZT4nLCAnLW9tYWUnLCAnPG91dGZpbGUubWFlPic=

> <r_lp_tautomer_probability>
1

> <r_epik_Ionization_Penalty>
0.00225104

> <r_epik_Ionization_Penalty_Charging>
0

> <r_epik_Ionization_Penalty_Neutral>
0.00225104

> <r_epik_State_Penalty>
-0

> <r_epik_Charging_Adjusted_Penalty>
0

> <i_epik_Tot_Q>
0

> <i_epik_Tot_abs_Q>
0

> <r_epik_Metal_State_Penalty>
-0

> <b_epik_Metal_Only>
0

> <s_lp_Force_Field>
OPLS_2005

> <r_lp_Energy>
15.1009

> <b_lp_Chiralities_Consistent>
1

> <s_lp_Variant>
AV-unprocessed.smi:2690-2

> <Gold.Version>
5.8.1

> <Gold.Id.Protein>
6NUR|6NUR_protein|mol2

> <Gold.PLP.Fitness>
37.0771

> <Gold.PLP.PLP>
-28.5477

> <Gold.PLP.part.hbond>
-3.0000

> <Gold.PLP.part.metal>
0.0000

> <Gold.PLP.part.buried>
-2.5373

> <Gold.PLP.part.nonpolar>
-23.5770

> <Gold.PLP.part.repulsive>
0.2626

> <Gold.PLP.ligand.clash>
0.0000

> <Gold.PLP.ligand.torsion>
1.6924

> <Gold.PLP.Chemscore.Hbond>
1.9588

> <Gold.PLP.Chemscore.CHOScore>
2.0000

> <Gold.PLP.Chemscore.Metal>
0.0000

> <Gold.Chemscore.Hbonds>
donor molecule, donor type, donor heavy atom, donor atom, acceptor molecule, acceptor atom, score
      L1  H     6    31       P1  7948  1.00
      L1  H    13    35       P1 10957  0.84
      L1  C     9    34       P1 10171  0.99
      L1  C     9    34       P1 10175  1.00

> <Gold.PLP.Chemscore.Internal.Correction>
0.0378

> <Gold.Rescore>
     Score         DG    S(hbond)    S(metal)    S(lipo)     H(rot)  DE(clash)    DE(int)     intcor
     12.43     -14.25       1.80        0.00      68.40       2.05       0.15       1.67       ----

> <Gold.Chemscore.Fitness>
12.4304

> <Gold.Chemscore.DG>
-14.2535

> <Gold.Chemscore.ZeroCoef>
-5.4800

> <Gold.Chemscore.Hbond>
1.8039

> <Gold.Chemscore.Metal>
0.0000

> <Gold.Chemscore.Lipo>
68.4030

> <Gold.Chemscore.Internal_Hbond>
0.0000

> <Gold.Chemscore.DEClash>
0.1542

> <Gold.Chemscore.DEInternal>
1.6689

> <Gold.Chemscore.Rot>
2.0526

> <Gold.Chemscore.Internal.Correction>
   9.000000E+99

> <Gold.Chemscore.Hbonds>
donor molecule, donor type, donor heavy atom, donor atom, acceptor molecule, acceptor atom, score
      L1  H     6    31       P1  7948  1.00
      L1  H    13    35       P1 10957  0.28

> <Gold.Chemscore.Hbond.Weighted>
-6.0249

> <Gold.Chemscore.Metal.Weighted>
-0.0000

> <Gold.Chemscore.Lipo.Weighted>
-8.0032

> <Gold.Chemscore.Internal_Hbond.Weighted>
0.0000

> <Gold.Chemscore.DEClash.Weighted>
0.1542

> <Gold.Chemscore.DEInternal.Weighted>
1.6689

> <Gold.Chemscore.Rot.Weighted>
5.2546

> <Gold.Chemscore.Internal.Correction.Weighted>
   9.000000E+99

> <Gold.Protein.RotatedTorsions>
[ 6907 6896 6895 6894 ] final  171.46 input  -60.11 | X-H torsion
[ 7974 7965 7964 7962 ] final   19.35 input  175.53 | X-H torsion
[ 8008 7997 7996 7995 ] final   23.87 input   59.86 | X-H torsion
[ 10167 10162 10161 10158 ] final  -94.25 input  -65.29 | X-H torsion
[ 10718 10713 10712 10709 ] final  167.51 input   66.30 | X-H torsion
[ 10763 10752 10751 10750 ] final  116.32 input  -60.55 | X-H torsion
[ 11005 11000 10999 10996 ] final   43.39 input  -57.11 | X-H torsion

> <Gold.Protein.ActiveResidues>
 VAL166  LYS551  ARG553  GLY616  TRP617  ASP618  TYR619  PRO620  LYS621  CYS622 
 ASP623  PHE694  ASN695  SER759  ASP760  ASP761  ALA762  ILE779  LEU786  VAL792 
 PHE793  MET794  SER795  GLU796  ALA797  LYS798  CYS799  TRP800  GLU811  SER814 

> <Gold.Protein.RotatedAtoms>
  151.7999  133.3369  159.3523 H   0  0  0  0  0  0  0  0  0  0  0  0  # atno 6907 bound_to 6896
  150.7362  134.5763  159.5925 H   0  0  0  0  0  0  0  0  0  0  0  0  # atno 6908 bound_to 6896
  152.3150  134.7452  160.0378 H   0  0  0  0  0  0  0  0  0  0  0  0  # atno 6909 bound_to 6896
  146.2152  139.8326  142.8657 H   0  0  0  0  0  0  0  0  0  0  0  0  # atno 7974 bound_to 7965
  154.9876  140.3110  155.4920 H   0  0  0  0  0  0  0  0  0  0  0  0  # atno 8008 bound_to 7997
  156.2944  140.2255  156.4919 H   0  0  0  0  0  0  0  0  0  0  0  0  # atno 8009 bound_to 7997
  154.7733  140.0451  157.1057 H   0  0  0  0  0  0  0  0  0  0  0  0  # atno 8010 bound_to 7997
  140.3163  143.3075  152.0094 H   0  0  0  0  0  0  0  0  0  0  0  0  # atno 10167 bound_to 10162
  157.0504  131.0312  151.2682 H   0  0  0  0  0  0  0  0  0  0  0  0  # atno 10718 bound_to 10713
  153.5354  135.3569  155.2695 H   0  0  0  0  0  0  0  0  0  0  0  0  # atno 10763 bound_to 10752
  154.8723  135.4078  154.3104 H   0  0  0  0  0  0  0  0  0  0  0  0  # atno 10764 bound_to 10752
  153.3800  135.7068  153.6640 H   0  0  0  0  0  0  0  0  0  0  0  0  # atno 10765 bound_to 10752
  140.1650  134.4294  155.8293 H   0  0  0  0  0  0  0  0  0  0  0  0  # atno 11005 bound_to 11000
  145.2981  141.0186  143.3624 LP  0  0  0  0  0  0  0  0  0  0  0  0  # atno 17320 bound_to 7965
  144.9026  139.4629  143.6625 LP  0  0  0  0  0  0  0  0  0  0  0  0  # atno 17321 bound_to 7965
  139.4883  144.6345  151.7002 LP  0  0  0  0  0  0  0  0  0  0  0  0  # atno 17342 bound_to 10162
  140.5523  144.0405  150.6132 LP  0  0  0  0  0  0  0  0  0  0  0  0  # atno 17343 bound_to 10162
  157.5034  130.7894  149.7629 LP  0  0  0  0  0  0  0  0  0  0  0  0  # atno 17370 bound_to 10713
  156.0009  130.3881  150.2609 LP  0  0  0  0  0  0  0  0  0  0  0  0  # atno 17371 bound_to 10713
  141.2213  133.6930  156.7661 LP  0  0  0  0  0  0  0  0  0  0  0  0  # atno 17394 bound_to 11000
  140.2445  134.8588  157.3606 LP  0  0  0  0  0  0  0  0  0  0  0  0  # atno 17395 bound_to 11000

$$$$
