AV-unprocessed.smi:2658|AV-procd|sdf|10309|dock5
  -GOLD-   2272014323D 1   1.00000     0.00000
 Structure written by MMmdl.
 46 48  0  0  0  0  0  0  0  0  1 V2000
  153.9383  142.3290  163.3244 C   0  0  0  0  0  0  0  0  0  0  0  0
  153.2957  142.4295  161.9521 C   0  0  0  0  0  0  0  0  0  0  0  0
  152.4244  143.5079  161.6795 C   0  0  0  0  0  0  0  0  0  0  0  0
  151.8109  143.6415  160.4150 C   0  0  0  0  0  0  0  0  0  0  0  0
  150.9397  144.6053  159.9369 N   0  0  0  0  0  0  0  0  0  0  0  0
  150.7313  144.1837  158.6931 C   0  0  0  0  0  0  0  0  0  0  0  0
  151.3648  143.0589  158.3085 N   0  0  0  0  0  0  0  0  0  0  0  0
  151.2981  142.4166  157.0081 C   0  0  0  0  0  0  0  0  0  0  0  0
  149.9753  141.6568  156.7879 C   0  0  1  0  0  0  0  0  0  0  0  0
  148.8816  142.5403  156.9405 O   0  0  0  0  0  0  0  0  0  0  0  0
  149.8954  141.0213  155.3923 C   0  0  0  0  0  0  0  0  0  0  0  0
  151.0623  140.2339  155.1718 O   0  0  0  0  0  0  0  0  0  0  0  0
  150.9241  138.8639  155.0865 C   0  0  0  0  0  0  0  0  0  0  0  0
  149.6317  138.3153  154.9837 C   0  0  0  0  0  0  0  0  0  0  0  0
  149.5172  136.9146  154.9048 C   0  0  0  0  0  0  0  0  0  0  0  0
  148.1570  136.2523  154.7906 C   0  0  0  0  0  0  0  0  0  0  0  0
  150.7159  136.1675  154.9375 C   0  0  0  0  0  0  0  0  0  0  0  0
  150.7141  134.6517  154.8650 C   0  0  0  0  0  0  0  0  0  0  0  0
  151.9319  136.7535  155.0351 N   0  0  0  0  0  0  0  0  0  0  0  0
  152.0362  138.0844  155.1074 N   0  0  0  0  0  0  0  0  0  0  0  0
  152.0953  142.6590  159.4219 C   0  0  0  0  0  0  0  0  0  0  0  0
  152.9571  141.5788  159.6819 C   0  0  0  0  0  0  0  0  0  0  0  0
  153.5616  141.4603  160.9514 C   0  0  0  0  0  0  0  0  0  0  0  0
  154.4911  140.2910  161.2239 C   0  0  0  0  0  0  0  0  0  0  0  0
  153.6305  143.1523  163.9697 H   0  0  0  0  0  0  0  0  0  0  0  0
  155.0248  142.3597  163.2404 H   0  0  0  0  0  0  0  0  0  0  0  0
  153.6541  141.3968  163.8130 H   0  0  0  0  0  0  0  0  0  0  0  0
  152.2210  144.2459  162.4413 H   0  0  0  0  0  0  0  0  0  0  0  0
  150.0800  144.7239  158.0216 H   0  0  0  0  0  0  0  0  0  0  0  0
  151.4341  143.1769  156.2375 H   0  0  0  0  0  0  0  0  0  0  0  0
  152.1444  141.7341  156.9235 H   0  0  0  0  0  0  0  0  0  0  0  0
  149.8714  140.8758  157.5423 H   0  0  0  0  0  0  0  0  0  0  0  0
  148.9755  143.2447  156.3178 H   0  0  0  0  0  0  0  0  0  0  0  0
  149.0147  140.3798  155.3260 H   0  0  0  0  0  0  0  0  0  0  0  0
  149.7981  141.8021  154.6353 H   0  0  0  0  0  0  0  0  0  0  0  0
  148.7599  138.9528  154.9662 H   0  0  0  0  0  0  0  0  0  0  0  0
  148.1040  135.6421  153.8885 H   0  0  0  0  0  0  0  0  0  0  0  0
  147.3599  136.9949  154.7424 H   0  0  0  0  0  0  0  0  0  0  0  0
  147.9717  135.6118  155.6533 H   0  0  0  0  0  0  0  0  0  0  0  0
  150.1240  134.2322  155.6797 H   0  0  0  0  0  0  0  0  0  0  0  0
  151.7242  134.2467  154.9394 H   0  0  0  0  0  0  0  0  0  0  0  0
  150.2860  134.3176  153.9197 H   0  0  0  0  0  0  0  0  0  0  0  0
  153.1511  140.8491  158.9095 H   0  0  0  0  0  0  0  0  0  0  0  0
  154.5943  139.6511  160.3471 H   0  0  0  0  0  0  0  0  0  0  0  0
  154.1063  139.6804  162.0409 H   0  0  0  0  0  0  0  0  0  0  0  0
  155.4848  140.6479  161.4959 H   0  0  0  0  0  0  0  0  0  0  0  0
  1  2  1  0  0  0  0
  1 25  1  0  0  0  0
  1 26  1  0  0  0  0
  1 27  1  0  0  0  0
  2 23  1  0  0  0  0
  2  3  2  0  0  0  0
  3  4  1  0  0  0  0
  3 28  1  0  0  0  0
  4 21  2  0  0  0  0
  4  5  1  0  0  0  0
  5  6  2  0  0  0  0
  6  7  1  0  0  0  0
  6 29  1  0  0  0  0
  7  8  1  0  0  0  0
  7 21  1  0  0  0  0
  8  9  1  0  0  0  0
  8 30  1  0  0  0  0
  8 31  1  0  0  0  0
  9 10  1  0  0  0  0
  9 11  1  0  0  0  0
  9 32  1  0  0  0  0
 10 33  1  0  0  0  0
 11 12  1  0  0  0  0
 11 34  1  0  0  0  0
 11 35  1  0  0  0  0
 12 13  1  0  0  0  0
 13 20  1  0  0  0  0
 13 14  2  0  0  0  0
 14 15  1  0  0  0  0
 14 36  1  0  0  0  0
 15 16  1  0  0  0  0
 15 17  2  0  0  0  0
 16 37  1  0  0  0  0
 16 38  1  0  0  0  0
 16 39  1  0  0  0  0
 17 18  1  0  0  0  0
 17 19  1  0  0  0  0
 18 40  1  0  0  0  0
 18 41  1  0  0  0  0
 18 42  1  0  0  0  0
 19 20  2  0  0  0  0
 21 22  1  0  0  0  0
 22 23  2  0  0  0  0
 22 43  1  0  0  0  0
 23 24  1  0  0  0  0
 24 44  1  0  0  0  0
 24 45  1  0  0  0  0
 24 46  1  0  0  0  0
M  END
> <s_m_source_file>
AV-unprocessed.smi

> <i_m_source_file_index>
2658

> <i_lp_mmshare_version>
43012

> <i_f3d_flags>
0

> <s_epik_input>
W0NIM11jKFtjSF0xKWMoW0NIM10pW2NIXWMoYzEyKW4oW2NIXW4yKVtDSDJdW0NASF0oW09IXSlbQ0gyXU9jM1tjSF1jKFtDSDNdKWMoW0NIM10pbm4z

> <s_epik_cmdline>
J2VwaWtfcHl0aG9uJywgJy1waCcsICc3LjAnLCAnLXRuJywgJzgnLCAnLW1hJywgJzIwMCcsICctbWV0YWxfYmluZGluZycsICctaW1hZScsICc8aW5maWxlLm1hZT4nLCAnLW9tYWUnLCAnPG91dGZpbGUubWFlPic=

> <r_lp_tautomer_probability>
1

> <r_epik_Ionization_Penalty>
0.110663

> <r_epik_Ionization_Penalty_Charging>
0

> <r_epik_Ionization_Penalty_Neutral>
0.110663

> <r_epik_State_Penalty>
0.100267

> <r_epik_Charging_Adjusted_Penalty>
0.100267

> <i_epik_Tot_Q>
0

> <i_epik_Tot_abs_Q>
0

> <r_epik_Metal_State_Penalty>
0.0843924

> <b_epik_Metal_Only>
0

> <s_lp_Force_Field>
OPLS_2005

> <r_lp_Energy>
13.1317

> <b_lp_Chiralities_Consistent>
1

> <s_lp_Variant>
AV-unprocessed.smi:2658-2

> <Gold.Version>
5.8.1

> <Gold.Id.Protein>
6NUR|6NUR_protein|mol2

> <Gold.PLP.Fitness>
62.0490

> <Gold.PLP.PLP>
-51.6826

> <Gold.PLP.part.hbond>
-2.6227

> <Gold.PLP.part.metal>
0.0000

> <Gold.PLP.part.buried>
-7.7838

> <Gold.PLP.part.nonpolar>
-41.6233

> <Gold.PLP.part.repulsive>
0.2619

> <Gold.PLP.ligand.clash>
0.0210

> <Gold.PLP.ligand.torsion>
0.6917

> <Gold.PLP.Chemscore.Hbond>
2.8500

> <Gold.PLP.Chemscore.CHOScore>
1.0311

> <Gold.PLP.Chemscore.Metal>
0.0000

> <Gold.Chemscore.Hbonds>
donor molecule, donor type, donor heavy atom, donor atom, acceptor molecule, acceptor atom, score
      L1  H    10    33       P1  8028  1.00
      P1  H  7989  7998       L1    12  1.00
      P1  H 10752 10764       L1    19  0.94
      L1  C     6    29       P1  8028  0.49
      L1  C     6    29       P1  8029  0.51

> <Gold.PLP.Chemscore.Internal.Correction>
0.1274

> <Gold.Rescore>
     Score         DG    S(hbond)    S(metal)    S(lipo)     H(rot)  DE(clash)    DE(int)     intcor
     20.88     -21.68       2.37        0.00     123.25       2.40       0.05       0.74       ----

> <Gold.Chemscore.Fitness>
20.8841

> <Gold.Chemscore.DG>
-21.6782

> <Gold.Chemscore.ZeroCoef>
-5.4800

> <Gold.Chemscore.Hbond>
2.3704

> <Gold.Chemscore.Metal>
0.0000

> <Gold.Chemscore.Lipo>
123.2530

> <Gold.Chemscore.Internal_Hbond>
0.0000

> <Gold.Chemscore.DEClash>
0.0529

> <Gold.Chemscore.DEInternal>
0.7413

> <Gold.Chemscore.Rot>
2.3983

> <Gold.Chemscore.Internal.Correction>
   9.000000E+99

> <Gold.Chemscore.Hbonds>
donor molecule, donor type, donor heavy atom, donor atom, acceptor molecule, acceptor atom, score
      L1  H    10    33       P1  8028  0.98
      P1  H  7989  7998       L1    12  0.24
      P1  H 10752 10764       L1    19  0.50

> <Gold.Chemscore.Hbond.Weighted>
-7.9173

> <Gold.Chemscore.Metal.Weighted>
-0.0000

> <Gold.Chemscore.Lipo.Weighted>
-14.4206

> <Gold.Chemscore.Internal_Hbond.Weighted>
0.0000

> <Gold.Chemscore.DEClash.Weighted>
0.0529

> <Gold.Chemscore.DEInternal.Weighted>
0.7413

> <Gold.Chemscore.Rot.Weighted>
6.1397

> <Gold.Chemscore.Internal.Correction.Weighted>
   9.000000E+99

> <Gold.Protein.RotatedTorsions>
[ 6907 6896 6895 6894 ] final   82.58 input  -60.11 | X-H torsion
[ 7974 7965 7964 7962 ] final  165.56 input  175.53 | X-H torsion
[ 8008 7997 7996 7995 ] final -159.81 input   59.86 | X-H torsion
[ 10167 10162 10161 10158 ] final  -91.85 input  -65.29 | X-H torsion
[ 10718 10713 10712 10709 ] final  -58.40 input   66.30 | X-H torsion
[ 10763 10752 10751 10750 ] final  -43.03 input  -60.55 | X-H torsion
[ 11005 11000 10999 10996 ] final    1.79 input  -57.11 | X-H torsion

> <Gold.Protein.ActiveResidues>
 VAL166  LYS551  ARG553  GLY616  TRP617  ASP618  TYR619  PRO620  LYS621  CYS622 
 ASP623  PHE694  ASN695  SER759  ASP760  ASP761  ALA762  ILE779  LEU786  VAL792 
 PHE793  MET794  SER795  GLU796  ALA797  LYS798  CYS799  TRP800  GLU811  SER814 

> <Gold.Protein.RotatedAtoms>
  152.5303  134.3028  159.9084 H   0  0  0  0  0  0  0  0  0  0  0  0  # atno 6907 bound_to 6896
  151.2978  133.4129  159.2645 H   0  0  0  0  0  0  0  0  0  0  0  0  # atno 6908 bound_to 6896
  151.0145  134.9438  159.8082 H   0  0  0  0  0  0  0  0  0  0  0  0  # atno 6909 bound_to 6896
  144.7498  139.8487  143.6370 H   0  0  0  0  0  0  0  0  0  0  0  0  # atno 7974 bound_to 7965
  155.7680  140.0848  157.2122 H   0  0  0  0  0  0  0  0  0  0  0  0  # atno 8008 bound_to 7997
  154.3998  140.1530  156.2966 H   0  0  0  0  0  0  0  0  0  0  0  0  # atno 8009 bound_to 7997
  155.8774  140.3422  155.5866 H   0  0  0  0  0  0  0  0  0  0  0  0  # atno 8010 bound_to 7997
  140.3407  143.2944  151.9838 H   0  0  0  0  0  0  0  0  0  0  0  0  # atno 10167 bound_to 10162
  156.1138  130.4172  150.0572 H   0  0  0  0  0  0  0  0  0  0  0  0  # atno 10718 bound_to 10713
  153.9888  135.6708  153.4753 H   0  0  0  0  0  0  0  0  0  0  0  0  # atno 10763 bound_to 10752
  153.0714  135.4972  154.8310 H   0  0  0  0  0  0  0  0  0  0  0  0  # atno 10764 bound_to 10752
  154.7121  135.3099  154.9142 H   0  0  0  0  0  0  0  0  0  0  0  0  # atno 10765 bound_to 10752
  140.6116  133.9743  155.8180 H   0  0  0  0  0  0  0  0  0  0  0  0  # atno 11005 bound_to 11000
  146.1431  139.4493  143.0096 LP  0  0  0  0  0  0  0  0  0  0  0  0  # atno 17320 bound_to 7965
  145.6987  141.0142  143.1516 LP  0  0  0  0  0  0  0  0  0  0  0  0  # atno 17321 bound_to 7965
  139.4841  144.6159  151.7347 LP  0  0  0  0  0  0  0  0  0  0  0  0  # atno 17342 bound_to 10162
  140.5312  144.0728  150.6054 LP  0  0  0  0  0  0  0  0  0  0  0  0  # atno 17343 bound_to 10162
  156.8528  130.9465  151.3624 LP  0  0  0  0  0  0  0  0  0  0  0  0  # atno 17370 bound_to 10713
  157.6321  130.8737  149.9292 LP  0  0  0  0  0  0  0  0  0  0  0  0  # atno 17371 bound_to 10713
  141.0804  134.0071  157.3394 LP  0  0  0  0  0  0  0  0  0  0  0  0  # atno 17394 bound_to 11000
  139.9190  135.0199  156.7992 LP  0  0  0  0  0  0  0  0  0  0  0  0  # atno 17395 bound_to 11000

$$$$
