AV-unprocessed.smi:653|AV-procd|sdf|3209|dock6
  -GOLD-   22720 0143D 1   1.00000     0.00000
 Structure written by MMmdl.
 45 46  0  0  0  0  0  0  0  0  2 V2000
  151.2191  145.2293  158.9753 C   0  0  0  0  0  0  0  0  0  0  0  0
  151.4106  143.7740  158.6037 C   0  0  0  0  0  0  0  0  0  0  0  0
  152.2089  142.9011  159.3735 C   0  0  0  0  0  0  0  0  0  0  0  0
  152.3416  141.5554  158.9730 C   0  0  0  0  0  0  0  0  0  0  0  0
  151.6727  141.1083  157.8120 C   0  0  0  0  0  0  0  0  0  0  0  0
  151.7970  139.6662  157.3541 C   0  0  0  0  0  0  0  0  0  0  0  0
  151.3482  138.7151  158.4643 C   0  0  0  0  0  0  0  0  0  0  0  0
  151.9963  138.6432  159.5084 O   0  0  0  0  0  0  0  0  0  0  0  0
  150.2405  137.9956  158.2260 N   0  0  0  0  0  0  0  0  0  0  0  0
  149.6304  137.0428  159.1488 C   0  0  0  0  0  0  0  0  0  0  0  0
  148.2664  136.5224  158.6312 C   0  0  1  0  0  0  0  0  0  0  0  0
  148.3535  135.8901  157.2489 C   0  0  0  0  0  0  0  0  0  0  0  0
  148.7814  134.4527  157.5494 C   0  0  0  0  0  0  0  0  0  0  0  0
  148.4546  134.2248  158.9179 O   0  0  0  0  0  0  0  0  0  0  0  0
  147.7035  135.3250  159.4179 C   0  0  1  0  0  0  0  0  0  0  0  0
  147.7550  135.3934  160.9615 C   0  0  0  0  0  0  0  0  0  0  0  0
  147.2159  134.0973  161.5882 C   0  0  0  0  0  0  0  0  0  0  0  0
  146.9722  136.6008  161.5058 C   0  0  0  0  0  0  0  0  0  0  0  0
  150.8865  142.0268  157.0827 C   0  0  0  0  0  0  0  0  0  0  0  0
  150.7855  143.3079  157.4991 N   0  3  0  0  0  0  0  0  0  0  0  0
  152.0597  145.5921  159.5676 H   0  0  0  0  0  0  0  0  0  0  0  0
  150.3085  145.3510  159.5625 H   0  0  0  0  0  0  0  0  0  0  0  0
  151.1403  145.8519  158.0835 H   0  0  0  0  0  0  0  0  0  0  0  0
  152.7138  143.2563  160.2601 H   0  0  0  0  0  0  0  0  0  0  0  0
  152.9516  140.8759  159.5507 H   0  0  0  0  0  0  0  0  0  0  0  0
  151.2058  139.5116  156.4500 H   0  0  0  0  0  0  0  0  0  0  0  0
  152.8334  139.4489  157.0928 H   0  0  0  0  0  0  0  0  0  0  0  0
  149.7793  138.1195  157.3363 H   0  0  0  0  0  0  0  0  0  0  0  0
  150.3044  136.2128  159.3674 H   0  0  0  0  0  0  0  0  0  0  0  0
  149.4967  137.5743  160.0900 H   0  0  0  0  0  0  0  0  0  0  0  0
  147.5519  137.3465  158.6286 H   0  0  0  0  0  0  0  0  0  0  0  0
  147.3635  135.8855  156.7905 H   0  0  0  0  0  0  0  0  0  0  0  0
  149.0244  136.3975  156.5571 H   0  0  0  0  0  0  0  0  0  0  0  0
  148.2747  133.7374  156.9011 H   0  0  0  0  0  0  0  0  0  0  0  0
  149.8567  134.3270  157.4189 H   0  0  0  0  0  0  0  0  0  0  0  0
  146.6662  135.1710  159.1131 H   0  0  0  0  0  0  0  0  0  0  0  0
  148.7943  135.4905  161.2759 H   0  0  0  0  0  0  0  0  0  0  0  0
  146.1769  133.9227  161.3071 H   0  0  0  0  0  0  0  0  0  0  0  0
  147.2632  134.1375  162.6768 H   0  0  0  0  0  0  0  0  0  0  0  0
  147.7964  133.2309  161.2704 H   0  0  0  0  0  0  0  0  0  0  0  0
  145.9195  136.5467  161.2269 H   0  0  0  0  0  0  0  0  0  0  0  0
  147.3658  137.5436  161.1272 H   0  0  0  0  0  0  0  0  0  0  0  0
  147.0247  136.6429  162.5941 H   0  0  0  0  0  0  0  0  0  0  0  0
  150.3422  141.7777  156.1834 H   0  0  0  0  0  0  0  0  0  0  0  0
  150.2122  143.9528  156.9546 H   0  0  0  0  0  0  0  0  0  0  0  0
  1  2  1  0  0  0  0
  1 21  1  0  0  0  0
  1 22  1  0  0  0  0
  1 23  1  0  0  0  0
  2 20  1  0  0  0  0
  2  3  2  0  0  0  0
  3  4  1  0  0  0  0
  3 24  1  0  0  0  0
  4  5  2  0  0  0  0
  4 25  1  0  0  0  0
  5  6  1  0  0  0  0
  5 19  1  0  0  0  0
  6  7  1  0  0  0  0
  6 26  1  0  0  0  0
  6 27  1  0  0  0  0
  7  8  2  0  0  0  0
  7  9  1  0  0  0  0
  9 10  1  0  0  0  0
  9 28  1  0  0  0  0
 10 11  1  0  0  0  0
 10 29  1  0  0  0  0
 10 30  1  0  0  0  0
 11 15  1  0  0  0  0
 11 12  1  0  0  0  0
 11 31  1  0  0  0  0
 12 13  1  0  0  0  0
 12 32  1  0  0  0  0
 12 33  1  0  0  0  0
 13 14  1  0  0  0  0
 13 34  1  0  0  0  0
 13 35  1  0  0  0  0
 14 15  1  0  0  0  0
 15 16  1  0  0  0  0
 15 36  1  0  0  0  0
 16 17  1  0  0  0  0
 16 18  1  0  0  0  0
 16 37  1  0  0  0  0
 17 38  1  0  0  0  0
 17 39  1  0  0  0  0
 17 40  1  0  0  0  0
 18 41  1  0  0  0  0
 18 42  1  0  0  0  0
 18 43  1  0  0  0  0
 19 20  2  0  0  0  0
 19 44  1  0  0  0  0
 20 45  1  0  0  0  0
M  CHG  1  20   1
M  END
> <s_m_source_file>
AV-unprocessed.smi

> <i_m_source_file_index>
653

> <i_lp_mmshare_version>
43012

> <i_f3d_flags>
0

> <s_epik_input>
W0NIM11jMVtjSF1bY0hdYyhbY0hdbjEpW0NIMl1DKD1PKVtOSF1bQ0gyXVtDQEBIXTJbQ0gyXVtDSDJdT1tDQEhdMltDSF0oW0NIM10pW0NIM10=

> <s_epik_cmdline>
J2VwaWtfcHl0aG9uJywgJy1waCcsICc3LjAnLCAnLXRuJywgJzgnLCAnLW1hJywgJzIwMCcsICctbWV0YWxfYmluZGluZycsICctaW1hZScsICc8aW5maWxlLm1hZT4nLCAnLW9tYWUnLCAnPG91dGZpbGUubWFlPic=

> <r_epik_Ionization_Penalty>
2.12486

> <r_epik_Ionization_Penalty_Charging>
2.12486

> <r_epik_Ionization_Penalty_Neutral>
9.0873e-08

> <r_epik_State_Penalty>
2.26279

> <r_epik_Charging_Adjusted_Penalty>
4.38765

> <i_epik_Tot_Q>
1

> <i_epik_Tot_abs_Q>
1

> <r_epik_Metal_State_Penalty>
2.27914

> <b_epik_Metal_Only>
0

> <s_lp_Force_Field>
OPLS_2005

> <r_lp_Energy>
28.2902

> <b_lp_Chiralities_Consistent>
1

> <s_lp_Variant>
AV-unprocessed.smi:653-6

> <Gold.Version>
5.8.1

> <Gold.Id.Protein>
6NUR|6NUR_protein|mol2

> <Gold.PLP.Fitness>
43.1973

> <Gold.PLP.PLP>
-34.8464

> <Gold.PLP.part.hbond>
-2.0000

> <Gold.PLP.part.metal>
0.0000

> <Gold.PLP.part.buried>
-5.0728

> <Gold.PLP.part.nonpolar>
-28.3643

> <Gold.PLP.part.repulsive>
0.1087

> <Gold.PLP.ligand.clash>
0.0000

> <Gold.PLP.ligand.torsion>
0.1071

> <Gold.PLP.Chemscore.Hbond>
2.8426

> <Gold.PLP.Chemscore.CHOScore>
0.0000

> <Gold.PLP.Chemscore.Metal>
0.0000

> <Gold.Chemscore.Hbonds>
donor molecule, donor type, donor heavy atom, donor atom, acceptor molecule, acceptor atom, score
      L1  H    20    45       P1  8028  2.00
      P1  H  6896  6907       L1    14  0.25

> <Gold.PLP.Chemscore.Internal.Correction>
0.0375

> <Gold.Rescore>
     Score         DG    S(hbond)    S(metal)    S(lipo)     H(rot)  DE(clash)    DE(int)     intcor
     15.84     -17.21       0.96        0.00     107.15       1.57       0.11       1.26       ----

> <Gold.Chemscore.Fitness>
15.8368

> <Gold.Chemscore.DG>
-17.2069

> <Gold.Chemscore.ZeroCoef>
-5.4800

> <Gold.Chemscore.Hbond>
0.9609

> <Gold.Chemscore.Metal>
0.0000

> <Gold.Chemscore.Lipo>
107.1542

> <Gold.Chemscore.Internal_Hbond>
0.0000

> <Gold.Chemscore.DEClash>
0.1130

> <Gold.Chemscore.DEInternal>
1.2571

> <Gold.Chemscore.Rot>
1.5701

> <Gold.Chemscore.Internal.Correction>
   9.000000E+99

> <Gold.Chemscore.Hbonds>
donor molecule, donor type, donor heavy atom, donor atom, acceptor molecule, acceptor atom, score
      L1  H    20    45       P1  8028  0.95
      P1  H  6896  6907       L1    14  0.01

> <Gold.Chemscore.Hbond.Weighted>
-3.2094

> <Gold.Chemscore.Metal.Weighted>
-0.0000

> <Gold.Chemscore.Lipo.Weighted>
-12.5370

> <Gold.Chemscore.Internal_Hbond.Weighted>
0.0000

> <Gold.Chemscore.DEClash.Weighted>
0.1130

> <Gold.Chemscore.DEInternal.Weighted>
1.2571

> <Gold.Chemscore.Rot.Weighted>
4.0196

> <Gold.Chemscore.Internal.Correction.Weighted>
   9.000000E+99

> <Gold.Protein.RotatedTorsions>
[ 6907 6896 6895 6894 ] final  -87.85 input  -60.11 | X-H torsion
[ 7974 7965 7964 7962 ] final  133.82 input  175.53 | X-H torsion
[ 8008 7997 7996 7995 ] final -110.58 input   59.86 | X-H torsion
[ 10167 10162 10161 10158 ] final  150.46 input  -65.29 | X-H torsion
[ 10718 10713 10712 10709 ] final   76.20 input   66.30 | X-H torsion
[ 10763 10752 10751 10750 ] final -123.41 input  -60.55 | X-H torsion
[ 11005 11000 10999 10996 ] final   -3.05 input  -57.11 | X-H torsion

> <Gold.Protein.ActiveResidues>
 VAL166  LYS551  ARG553  GLY616  TRP617  ASP618  TYR619  PRO620  LYS621  CYS622 
 ASP623  PHE694  ASN695  SER759  ASP760  ASP761  ALA762  ILE779  LEU786  VAL792 
 PHE793  MET794  SER795  GLU796  ALA797  LYS798  CYS799  TRP800  GLU811  SER814 

> <Gold.Protein.RotatedAtoms>
  150.6867  134.2833  159.4636 H   0  0  0  0  0  0  0  0  0  0  0  0  # atno 6907 bound_to 6896
  152.0745  134.9509  160.0583 H   0  0  0  0  0  0  0  0  0  0  0  0  # atno 6908 bound_to 6896
  152.0886  133.4154  159.4570 H   0  0  0  0  0  0  0  0  0  0  0  0  # atno 6909 bound_to 6896
  144.9826  139.4488  143.5378 H   0  0  0  0  0  0  0  0  0  0  0  0  # atno 7974 bound_to 7965
  154.9766  140.0397  157.2259 H   0  0  0  0  0  0  0  0  0  0  0  0  # atno 8008 bound_to 7997
  154.7752  140.2809  155.6084 H   0  0  0  0  0  0  0  0  0  0  0  0  # atno 8009 bound_to 7997
  156.2927  140.2602  156.2564 H   0  0  0  0  0  0  0  0  0  0  0  0  # atno 8010 bound_to 7997
  139.4850  144.5520  151.7383 H   0  0  0  0  0  0  0  0  0  0  0  0  # atno 10167 bound_to 10162
  157.6664  130.9763  150.1462 H   0  0  0  0  0  0  0  0  0  0  0  0  # atno 10718 bound_to 10713
  154.8707  135.4099  154.2939 H   0  0  0  0  0  0  0  0  0  0  0  0  # atno 10763 bound_to 10752
  153.3810  135.7011  153.6571 H   0  0  0  0  0  0  0  0  0  0  0  0  # atno 10764 bound_to 10752
  153.5393  135.3651  155.2683 H   0  0  0  0  0  0  0  0  0  0  0  0  # atno 10765 bound_to 10752
  140.6651  133.9286  155.8460 H   0  0  0  0  0  0  0  0  0  0  0  0  # atno 11005 bound_to 11000
  146.3412  139.9109  142.8780 LP  0  0  0  0  0  0  0  0  0  0  0  0  # atno 17320 bound_to 7965
  145.2399  141.0005  143.3942 LP  0  0  0  0  0  0  0  0  0  0  0  0  # atno 17321 bound_to 7965
  140.5076  144.1074  150.5986 LP  0  0  0  0  0  0  0  0  0  0  0  0  # atno 17342 bound_to 10162
  140.3989  143.2714  151.9972 LP  0  0  0  0  0  0  0  0  0  0  0  0  # atno 17343 bound_to 10162
  156.2272  130.3679  149.8486 LP  0  0  0  0  0  0  0  0  0  0  0  0  # atno 17370 bound_to 10713
  156.6323  130.8671  151.3497 LP  0  0  0  0  0  0  0  0  0  0  0  0  # atno 17371 bound_to 10713
  141.0435  134.0587  157.3872 LP  0  0  0  0  0  0  0  0  0  0  0  0  # atno 17394 bound_to 11000
  139.9000  135.0160  156.7221 LP  0  0  0  0  0  0  0  0  0  0  0  0  # atno 17395 bound_to 11000

$$$$
