AV-unprocessed.smi:1873|AV-procd|sdf|7609|dock3
  -GOLD-   22720 9333D 1   1.00000     0.00000
 Structure written by MMmdl.
 37 39  0  0  0  0  0  0  0  0  2 V2000
  144.4919  138.1774  153.1817 O   0  0  0  0  0  0  0  0  0  0  0  0
  145.7405  137.7362  152.6835 C   0  0  2  0  0  0  0  0  0  0  0  0
  145.9028  136.2281  152.9585 C   0  0  0  0  0  0  0  0  0  0  0  0
  145.1100  135.3980  152.0432 N   0  0  0  0  0  0  0  0  0  0  0  0
  144.0426  135.7258  151.2660 C   0  0  0  0  0  0  0  0  0  0  0  0
  143.6691  134.6052  150.5877 N   0  3  0  0  0  0  0  0  0  0  0  0
  144.5096  133.5459  150.9379 C   0  0  0  0  0  0  0  0  0  0  0  0
  144.5302  132.2195  150.5180 C   0  0  0  0  0  0  0  0  0  0  0  0
  145.5291  131.3943  151.0761 C   0  0  0  0  0  0  0  0  0  0  0  0
  146.4579  131.8949  152.0118 C   0  0  0  0  0  0  0  0  0  0  0  0
  146.4288  133.2418  152.4295 C   0  0  0  0  0  0  0  0  0  0  0  0
  145.4375  134.0495  151.8737 C   0  0  0  0  0  0  0  0  0  0  0  0
  146.9032  138.5321  153.2534 C   0  0  0  0  0  0  0  0  0  0  0  0
  147.0933  139.8846  152.8988 C   0  0  0  0  0  0  0  0  0  0  0  0
  148.1696  140.6148  153.4389 C   0  0  0  0  0  0  0  0  0  0  0  0
  149.0635  140.0109  154.3458 C   0  0  0  0  0  0  0  0  0  0  0  0
  150.1029  140.7726  154.8296 O   0  0  0  0  0  0  0  0  0  0  0  0
  150.8611  140.2913  155.8505 C   0  0  0  0  0  0  0  0  0  0  0  0
  151.9288  139.6097  155.3672 F   0  0  0  0  0  0  0  0  0  0  0  0
  151.3352  141.3202  156.5935 F   0  0  0  0  0  0  0  0  0  0  0  0
  148.8756  138.6518  154.6935 C   0  0  0  0  0  0  0  0  0  0  0  0
  147.7998  137.9208  154.1541 C   0  0  0  0  0  0  0  0  0  0  0  0
  144.4408  139.1150  153.0730 H   0  0  0  0  0  0  0  0  0  0  0  0
  145.7165  137.8976  151.6051 H   0  0  0  0  0  0  0  0  0  0  0  0
  146.9480  135.9260  152.8786 H   0  0  0  0  0  0  0  0  0  0  0  0
  145.5883  135.9881  153.9753 H   0  0  0  0  0  0  0  0  0  0  0  0
  143.5805  136.7002  151.1954 H   0  0  0  0  0  0  0  0  0  0  0  0
  143.8205  131.8333  149.8010 H   0  0  0  0  0  0  0  0  0  0  0  0
  145.5838  130.3567  150.7801 H   0  0  0  0  0  0  0  0  0  0  0  0
  147.2086  131.2322  152.4179 H   0  0  0  0  0  0  0  0  0  0  0  0
  147.1445  133.6170  153.1459 H   0  0  0  0  0  0  0  0  0  0  0  0
  146.4138  140.3677  152.2119 H   0  0  0  0  0  0  0  0  0  0  0  0
  148.3073  141.6488  153.1583 H   0  0  0  0  0  0  0  0  0  0  0  0
  150.2846  139.6425  156.5104 H   0  0  0  0  0  0  0  0  0  0  0  0
  149.5538  138.1543  155.3707 H   0  0  0  0  0  0  0  0  0  0  0  0
  147.6685  136.8860  154.4345 H   0  0  0  0  0  0  0  0  0  0  0  0
  142.8980  134.5702  149.9332 H   0  0  0  0  0  0  0  0  0  0  0  0
  1  2  1  0  0  0  0
  1 23  1  0  0  0  0
  2  3  1  0  0  0  0
  2 13  1  0  0  0  0
  2 24  1  0  0  0  0
  3  4  1  0  0  0  0
  3 25  1  0  0  0  0
  3 26  1  0  0  0  0
  4 12  1  0  0  0  0
  4  5  1  0  0  0  0
  5  6  2  0  0  0  0
  5 27  1  0  0  0  0
  6  7  1  0  0  0  0
  6 37  1  0  0  0  0
  7 12  2  0  0  0  0
  7  8  1  0  0  0  0
  8  9  2  0  0  0  0
  8 28  1  0  0  0  0
  9 10  1  0  0  0  0
  9 29  1  0  0  0  0
 10 11  2  0  0  0  0
 10 30  1  0  0  0  0
 11 12  1  0  0  0  0
 11 31  1  0  0  0  0
 13 22  1  0  0  0  0
 13 14  2  0  0  0  0
 14 15  1  0  0  0  0
 14 32  1  0  0  0  0
 15 16  2  0  0  0  0
 15 33  1  0  0  0  0
 16 17  1  0  0  0  0
 16 21  1  0  0  0  0
 17 18  1  0  0  0  0
 18 19  1  0  0  0  0
 18 20  1  0  0  0  0
 18 34  1  0  0  0  0
 21 22  2  0  0  0  0
 21 35  1  0  0  0  0
 22 36  1  0  0  0  0
M  CHG  1   6   1
M  END
> <s_m_source_file>
AV-unprocessed.smi

> <i_m_source_file_index>
1873

> <i_lp_mmshare_version>
43012

> <i_f3d_flags>
0

> <s_epik_input>
RltDSF0oRilPYyhbY0hdW2NIXTEpW2NIXVtjSF1jMVtDQEhdKFtPSF0pW0NIMl1uKFtjSF1uMiljKGMyMylbY0hdW2NIXVtjSF1bY0hdMw==

> <s_epik_cmdline>
J2VwaWtfcHl0aG9uJywgJy1waCcsICc3LjAnLCAnLXRuJywgJzgnLCAnLW1hJywgJzIwMCcsICctbWV0YWxfYmluZGluZycsICctaW1hZScsICc8aW5maWxlLm1hZT4nLCAnLW9tYWUnLCAnPG91dGZpbGUubWFlPic=

> <r_lp_tautomer_probability>
1

> <r_epik_Ionization_Penalty>
1.3029

> <r_epik_Ionization_Penalty_Charging>
1.3029

> <r_epik_Ionization_Penalty_Neutral>
2.50501e-07

> <r_epik_State_Penalty>
1.377

> <r_epik_Charging_Adjusted_Penalty>
2.6799

> <i_epik_Tot_Q>
1

> <i_epik_Tot_abs_Q>
1

> <r_epik_Metal_State_Penalty>
5.40879

> <b_epik_Metal_Only>
0

> <s_lp_Force_Field>
OPLS_2005

> <r_lp_Energy>
14.9016

> <b_lp_Chiralities_Consistent>
1

> <s_lp_Variant>
AV-unprocessed.smi:1873-3

> <Gold.Version>
5.8.1

> <Gold.Id.Protein>
6NUR|6NUR_protein|mol2

> <Gold.PLP.Fitness>
49.8938

> <Gold.PLP.PLP>
-38.0861

> <Gold.PLP.part.hbond>
-2.9637

> <Gold.PLP.part.metal>
0.0000

> <Gold.PLP.part.buried>
1.0432

> <Gold.PLP.part.nonpolar>
-35.5813

> <Gold.PLP.part.repulsive>
0.1279

> <Gold.PLP.ligand.clash>
0.0000

> <Gold.PLP.ligand.torsion>
1.1426

> <Gold.PLP.Chemscore.Hbond>
3.6630

> <Gold.PLP.Chemscore.CHOScore>
1.0000

> <Gold.PLP.Chemscore.Metal>
0.0000

> <Gold.Chemscore.Hbonds>
donor molecule, donor type, donor heavy atom, donor atom, acceptor molecule, acceptor atom, score
      L1  H     1    23       P1 10175  0.99
      L1  H     6    37       P1 10186  2.00
      P1  H  7989  7998       L1    17  0.64
      L1  C     5    27       P1 10171  1.00

> <Gold.PLP.Chemscore.Internal.Correction>
0.1040

> <Gold.Rescore>
     Score         DG    S(hbond)    S(metal)    S(lipo)     H(rot)  DE(clash)    DE(int)     intcor
     13.85     -15.94       1.95        0.00      87.70       2.47       0.93       1.16       ----

> <Gold.Chemscore.Fitness>
13.8510

> <Gold.Chemscore.DG>
-15.9394

> <Gold.Chemscore.ZeroCoef>
-5.4800

> <Gold.Chemscore.Hbond>
1.9503

> <Gold.Chemscore.Metal>
0.0000

> <Gold.Chemscore.Lipo>
87.6965

> <Gold.Chemscore.Internal_Hbond>
0.0000

> <Gold.Chemscore.DEClash>
0.9255

> <Gold.Chemscore.DEInternal>
1.1630

> <Gold.Chemscore.Rot>
2.4668

> <Gold.Chemscore.Internal.Correction>
   9.000000E+99

> <Gold.Chemscore.Hbonds>
donor molecule, donor type, donor heavy atom, donor atom, acceptor molecule, acceptor atom, score
      L1  H     1    23       P1 10175  0.94
      L1  H     6    37       P1 10186  0.81
      P1  H  7989  7998       L1    17  0.07

> <Gold.Chemscore.Hbond.Weighted>
-6.5140

> <Gold.Chemscore.Metal.Weighted>
-0.0000

> <Gold.Chemscore.Lipo.Weighted>
-10.2605

> <Gold.Chemscore.Internal_Hbond.Weighted>
0.0000

> <Gold.Chemscore.DEClash.Weighted>
0.9255

> <Gold.Chemscore.DEInternal.Weighted>
1.1630

> <Gold.Chemscore.Rot.Weighted>
6.3151

> <Gold.Chemscore.Internal.Correction.Weighted>
   9.000000E+99

> <Gold.Protein.RotatedTorsions>
[ 6907 6896 6895 6894 ] final   73.50 input  -60.11 | X-H torsion
[ 7974 7965 7964 7962 ] final  -18.26 input  175.53 | X-H torsion
[ 8008 7997 7996 7995 ] final  -83.71 input   59.86 | X-H torsion
[ 10167 10162 10161 10158 ] final   91.80 input  -65.29 | X-H torsion
[ 10718 10713 10712 10709 ] final  119.87 input   66.30 | X-H torsion
[ 10763 10752 10751 10750 ] final -173.46 input  -60.55 | X-H torsion
[ 11005 11000 10999 10996 ] final   69.01 input  -57.11 | X-H torsion

> <Gold.Protein.ActiveResidues>
 VAL166  LYS551  ARG553  GLY616  TRP617  ASP618  TYR619  PRO620  LYS621  CYS622 
 ASP623  PHE694  ASN695  SER759  ASP760  ASP761  ALA762  ILE779  LEU786  VAL792 
 PHE793  MET794  SER795  GLU796  ALA797  LYS798  CYS799  TRP800  GLU811  SER814 

> <Gold.Protein.RotatedAtoms>
  152.4926  134.4412  159.9543 H   0  0  0  0  0  0  0  0  0  0  0  0  # atno 6907 bound_to 6896
  151.4396  133.3641  159.2788 H   0  0  0  0  0  0  0  0  0  0  0  0  # atno 6908 bound_to 6896
  150.9097  134.8536  159.7476 H   0  0  0  0  0  0  0  0  0  0  0  0  # atno 6909 bound_to 6896
  146.1901  140.3896  142.8461 H   0  0  0  0  0  0  0  0  0  0  0  0  # atno 7974 bound_to 7965
  154.6220  140.0615  156.9626 H   0  0  0  0  0  0  0  0  0  0  0  0  # atno 8008 bound_to 7997
  155.1803  140.3298  155.4358 H   0  0  0  0  0  0  0  0  0  0  0  0  # atno 8009 bound_to 7997
  156.2436  140.1899  156.6899 H   0  0  0  0  0  0  0  0  0  0  0  0  # atno 8010 bound_to 7997
  139.8339  144.6674  150.9366 H   0  0  0  0  0  0  0  0  0  0  0  0  # atno 10167 bound_to 10162
  157.5931  131.1061  150.7957 H   0  0  0  0  0  0  0  0  0  0  0  0  # atno 10718 bound_to 10713
  154.6076  135.2861  155.0468 H   0  0  0  0  0  0  0  0  0  0  0  0  # atno 10763 bound_to 10752
  154.1710  135.6472  153.5013 H   0  0  0  0  0  0  0  0  0  0  0  0  # atno 10764 bound_to 10752
  153.0182  135.5401  154.6817 H   0  0  0  0  0  0  0  0  0  0  0  0  # atno 10765 bound_to 10752
  139.9678  134.6951  156.0509 H   0  0  0  0  0  0  0  0  0  0  0  0  # atno 11005 bound_to 11000
  144.8470  140.6944  143.6192 LP  0  0  0  0  0  0  0  0  0  0  0  0  # atno 17320 bound_to 7965
  145.3819  139.1635  143.4276 LP  0  0  0  0  0  0  0  0  0  0  0  0  # atno 17321 bound_to 7965
  140.7804  143.3975  151.1205 LP  0  0  0  0  0  0  0  0  0  0  0  0  # atno 17342 bound_to 10162
  139.7626  143.8612  152.3103 LP  0  0  0  0  0  0  0  0  0  0  0  0  # atno 17343 bound_to 10162
  156.8374  130.5036  149.5325 LP  0  0  0  0  0  0  0  0  0  0  0  0  # atno 17370 bound_to 10713
  156.0989  130.5953  150.9860 LP  0  0  0  0  0  0  0  0  0  0  0  0  # atno 17371 bound_to 10713
  141.1358  133.6575  156.3590 LP  0  0  0  0  0  0  0  0  0  0  0  0  # atno 17394 bound_to 11000
  140.5358  134.6168  157.5364 LP  0  0  0  0  0  0  0  0  0  0  0  0  # atno 17395 bound_to 11000

$$$$
