AV-unprocessed.smi:1883|AV-procd|sdf|7642|dock7
  -GOLD-   22720 9373D 1   1.00000     0.00000
 Structure written by MMmdl.
 35 37  0  0  0  0  0  0  0  0  1 V2000
  152.4189  139.7633  155.5441 C   0  0  0  0  0  0  0  0  0  0  0  0
  151.0256  140.3074  155.5455 C   0  0  0  0  0  0  0  0  0  0  0  0
  150.3212  140.4590  154.4235 N   0  0  0  0  0  0  0  0  0  0  0  0
  149.1263  140.9779  154.8838 C   0  0  0  0  0  0  0  0  0  0  0  0
  147.9591  141.3585  154.1836 C   0  0  0  0  0  0  0  0  0  0  0  0
  146.8456  141.8740  154.8791 C   0  0  0  0  0  0  0  0  0  0  0  0
  146.8823  142.0155  156.2817 C   0  0  0  0  0  0  0  0  0  0  0  0
  148.0347  141.6403  156.9990 C   0  0  0  0  0  0  0  0  0  0  0  0
  149.1434  141.1271  156.2996 C   0  0  0  0  0  0  0  0  0  0  0  0
  150.4002  140.6770  156.6906 N   0  0  0  0  0  0  0  0  0  0  0  0
  150.9052  140.6251  158.0559 C   0  0  0  0  0  0  0  0  0  0  0  0
  152.2926  141.2811  158.2002 C   0  0  2  0  0  0  0  0  0  0  0  0
  153.2808  140.2843  158.3821 O   0  0  0  0  0  0  0  0  0  0  0  0
  152.2967  142.3161  159.3171 C   0  0  0  0  0  0  0  0  0  0  0  0
  152.9041  142.0249  160.5595 C   0  0  0  0  0  0  0  0  0  0  0  0
  152.8999  142.9785  161.5957 C   0  0  0  0  0  0  0  0  0  0  0  0
  153.4853  142.6913  162.7823 F   0  0  0  0  0  0  0  0  0  0  0  0
  152.2852  144.2294  161.3987 C   0  0  0  0  0  0  0  0  0  0  0  0
  151.6708  144.5238  160.1668 C   0  0  0  0  0  0  0  0  0  0  0  0
  151.6728  143.5707  159.1292 C   0  0  0  0  0  0  0  0  0  0  0  0
  151.0673  143.8671  157.9540 F   0  0  0  0  0  0  0  0  0  0  0  0
  152.7675  139.6074  154.5228 H   0  0  0  0  0  0  0  0  0  0  0  0
  152.4500  138.8078  156.0679 H   0  0  0  0  0  0  0  0  0  0  0  0
  153.1001  140.4583  156.0347 H   0  0  0  0  0  0  0  0  0  0  0  0
  147.9211  141.2539  153.1095 H   0  0  0  0  0  0  0  0  0  0  0  0
  145.9591  142.1625  154.3337 H   0  0  0  0  0  0  0  0  0  0  0  0
  146.0253  142.4116  156.8064 H   0  0  0  0  0  0  0  0  0  0  0  0
  148.0670  141.7469  158.0732 H   0  0  0  0  0  0  0  0  0  0  0  0
  150.1858  141.1379  158.6954 H   0  0  0  0  0  0  0  0  0  0  0  0
  150.9311  139.5908  158.4000 H   0  0  0  0  0  0  0  0  0  0  0  0
  152.5423  141.7831  157.2651 H   0  0  0  0  0  0  0  0  0  0  0  0
  152.8831  139.5422  158.8113 H   0  0  0  0  0  0  0  0  0  0  0  0
  153.3737  141.0661  160.7249 H   0  0  0  0  0  0  0  0  0  0  0  0
  152.2821  144.9611  162.1933 H   0  0  0  0  0  0  0  0  0  0  0  0
  151.1946  145.4818  160.0181 H   0  0  0  0  0  0  0  0  0  0  0  0
  1  2  1  0  0  0  0
  1 22  1  0  0  0  0
  1 23  1  0  0  0  0
  1 24  1  0  0  0  0
  2 10  1  0  0  0  0
  2  3  2  0  0  0  0
  3  4  1  0  0  0  0
  4  9  2  0  0  0  0
  4  5  1  0  0  0  0
  5  6  2  0  0  0  0
  5 25  1  0  0  0  0
  6  7  1  0  0  0  0
  6 26  1  0  0  0  0
  7  8  2  0  0  0  0
  7 27  1  0  0  0  0
  8  9  1  0  0  0  0
  8 28  1  0  0  0  0
  9 10  1  0  0  0  0
 10 11  1  0  0  0  0
 11 12  1  0  0  0  0
 11 29  1  0  0  0  0
 11 30  1  0  0  0  0
 12 13  1  0  0  0  0
 12 14  1  0  0  0  0
 12 31  1  0  0  0  0
 13 32  1  0  0  0  0
 14 20  1  0  0  0  0
 14 15  2  0  0  0  0
 15 16  1  0  0  0  0
 15 33  1  0  0  0  0
 16 17  1  0  0  0  0
 16 18  2  0  0  0  0
 18 19  1  0  0  0  0
 18 34  1  0  0  0  0
 19 20  2  0  0  0  0
 19 35  1  0  0  0  0
 20 21  1  0  0  0  0
M  END
> <s_m_source_file>
AV-unprocessed.smi

> <i_m_source_file_index>
1883

> <i_lp_mmshare_version>
43012

> <i_f3d_flags>
0

> <s_epik_input>
W2NIXTFbY0hdW2NIXVtjSF1jKGMxMiluKGMobjIpW0NIM10pW0NIMl1bQ0BIXShbT0hdKWMzW2NIXWMoRilbY0hdW2NIXWMzRg==

> <s_epik_cmdline>
J2VwaWtfcHl0aG9uJywgJy1waCcsICc3LjAnLCAnLXRuJywgJzgnLCAnLW1hJywgJzIwMCcsICctbWV0YWxfYmluZGluZycsICctaW1hZScsICc8aW5maWxlLm1hZT4nLCAnLW9tYWUnLCAnPG91dGZpbGUubWFlPic=

> <r_epik_Ionization_Penalty>
0.129664

> <r_epik_Ionization_Penalty_Charging>
0

> <r_epik_Ionization_Penalty_Neutral>
0.129664

> <r_epik_State_Penalty>
0.119073

> <r_epik_Charging_Adjusted_Penalty>
0.119073

> <i_epik_Tot_Q>
0

> <i_epik_Tot_abs_Q>
0

> <r_epik_Metal_State_Penalty>
0.000131867

> <b_epik_Metal_Only>
0

> <s_lp_Force_Field>
OPLS_2005

> <r_lp_Energy>
11.5832

> <b_lp_Chiralities_Consistent>
1

> <s_lp_Variant>
AV-unprocessed.smi:1883-1

> <Gold.Version>
5.8.1

> <Gold.Id.Protein>
6NUR|6NUR_protein|mol2

> <Gold.PLP.Fitness>
55.5599

> <Gold.PLP.PLP>
-52.2658

> <Gold.PLP.part.hbond>
-1.9506

> <Gold.PLP.part.metal>
0.0000

> <Gold.PLP.part.buried>
-2.2439

> <Gold.PLP.part.nonpolar>
-47.1225

> <Gold.PLP.part.repulsive>
0.1181

> <Gold.PLP.ligand.clash>
0.0000

> <Gold.PLP.ligand.torsion>
1.2313

> <Gold.PLP.Chemscore.Hbond>
1.9110

> <Gold.PLP.Chemscore.CHOScore>
0.0000

> <Gold.PLP.Chemscore.Metal>
0.0000

> <Gold.Chemscore.Hbonds>
donor molecule, donor type, donor heavy atom, donor atom, acceptor molecule, acceptor atom, score
      P1  H  7989  7998       L1     3  0.72
      P1  H  7997  8008       L1    13  0.91

> <Gold.PLP.Chemscore.Internal.Correction>
0.0238

> <Gold.Rescore>
     Score         DG    S(hbond)    S(metal)    S(lipo)     H(rot)  DE(clash)    DE(int)     intcor
     15.38     -17.25       1.00        0.00     113.26       1.88       0.05       1.82       ----

> <Gold.Chemscore.Fitness>
15.3782

> <Gold.Chemscore.DG>
-17.2530

> <Gold.Chemscore.ZeroCoef>
-5.4800

> <Gold.Chemscore.Hbond>
1.0013

> <Gold.Chemscore.Metal>
0.0000

> <Gold.Chemscore.Lipo>
113.2607

> <Gold.Chemscore.Internal_Hbond>
0.0000

> <Gold.Chemscore.DEClash>
0.0539

> <Gold.Chemscore.DEInternal>
1.8209

> <Gold.Chemscore.Rot>
1.8839

> <Gold.Chemscore.Internal.Correction>
   9.000000E+99

> <Gold.Chemscore.Hbonds>
donor molecule, donor type, donor heavy atom, donor atom, acceptor molecule, acceptor atom, score
      P1  H  7989  7998       L1     3  0.09
      P1  H  7997  8008       L1    13  0.84

> <Gold.Chemscore.Hbond.Weighted>
-3.3442

> <Gold.Chemscore.Metal.Weighted>
-0.0000

> <Gold.Chemscore.Lipo.Weighted>
-13.2515

> <Gold.Chemscore.Internal_Hbond.Weighted>
0.0000

> <Gold.Chemscore.DEClash.Weighted>
0.0539

> <Gold.Chemscore.DEInternal.Weighted>
1.8209

> <Gold.Chemscore.Rot.Weighted>
4.8227

> <Gold.Chemscore.Internal.Correction.Weighted>
   9.000000E+99

> <Gold.Protein.RotatedTorsions>
[ 6907 6896 6895 6894 ] final -126.09 input  -60.11 | X-H torsion
[ 7974 7965 7964 7962 ] final   25.59 input  175.53 | X-H torsion
[ 8008 7997 7996 7995 ] final  -88.40 input   59.86 | X-H torsion
[ 10167 10162 10161 10158 ] final  179.21 input  -65.29 | X-H torsion
[ 10718 10713 10712 10709 ] final    9.85 input   66.30 | X-H torsion
[ 10763 10752 10751 10750 ] final -174.65 input  -60.55 | X-H torsion
[ 11005 11000 10999 10996 ] final   17.46 input  -57.11 | X-H torsion

> <Gold.Protein.ActiveResidues>
 VAL166  LYS551  ARG553  GLY616  TRP617  ASP618  TYR619  PRO620  LYS621  CYS622 
 ASP623  PHE694  ASN695  SER759  ASP760  ASP761  ALA762  ILE779  LEU786  VAL792 
 PHE793  MET794  SER795  GLU796  ALA797  LYS798  CYS799  TRP800  GLU811  SER814 

> <Gold.Protein.RotatedAtoms>
  150.8933  133.7214  159.2898 H   0  0  0  0  0  0  0  0  0  0  0  0  # atno 6907 bound_to 6896
  151.4757  135.1047  159.9773 H   0  0  0  0  0  0  0  0  0  0  0  0  # atno 6908 bound_to 6896
  152.4833  133.8262  159.7135 H   0  0  0  0  0  0  0  0  0  0  0  0  # atno 6909 bound_to 6896
  146.1881  139.7445  142.8852 H   0  0  0  0  0  0  0  0  0  0  0  0  # atno 7974 bound_to 7965
  154.6744  140.0554  157.0200 H   0  0  0  0  0  0  0  0  0  0  0  0  # atno 8008 bound_to 7997
  155.1042  140.3232  155.4520 H   0  0  0  0  0  0  0  0  0  0  0  0  # atno 8009 bound_to 7997
  156.2670  140.2026  156.6168 H   0  0  0  0  0  0  0  0  0  0  0  0  # atno 8010 bound_to 7997
  139.5326  144.2589  152.0724 H   0  0  0  0  0  0  0  0  0  0  0  0  # atno 10167 bound_to 10162
  156.9724  130.5974  149.5670 H   0  0  0  0  0  0  0  0  0  0  0  0  # atno 10718 bound_to 10713
  154.5937  135.2847  155.0609 H   0  0  0  0  0  0  0  0  0  0  0  0  # atno 10763 bound_to 10752
  154.1900  135.6442  153.5061 H   0  0  0  0  0  0  0  0  0  0  0  0  # atno 10764 bound_to 10752
  153.0130  135.5444  154.6631 H   0  0  0  0  0  0  0  0  0  0  0  0  # atno 10765 bound_to 10752
  140.4357  134.1374  155.7685 H   0  0  0  0  0  0  0  0  0  0  0  0  # atno 11005 bound_to 11000
  145.3878  141.0368  143.3141 LP  0  0  0  0  0  0  0  0  0  0  0  0  # atno 17320 bound_to 7965
  144.8434  139.5435  143.6889 LP  0  0  0  0  0  0  0  0  0  0  0  0  # atno 17321 bound_to 7965
  140.2054  144.4616  150.6411 LP  0  0  0  0  0  0  0  0  0  0  0  0  # atno 17342 bound_to 10162
  140.6514  143.2226  151.6068 LP  0  0  0  0  0  0  0  0  0  0  0  0  # atno 17343 bound_to 10162
  156.0277  130.5370  150.8451 LP  0  0  0  0  0  0  0  0  0  0  0  0  # atno 17370 bound_to 10713
  157.5583  131.0945  150.9596 LP  0  0  0  0  0  0  0  0  0  0  0  0  # atno 17371 bound_to 10713
  141.1727  133.8577  157.1521 LP  0  0  0  0  0  0  0  0  0  0  0  0  # atno 17394 bound_to 11000
  140.0104  134.9990  157.0382 LP  0  0  0  0  0  0  0  0  0  0  0  0  # atno 17395 bound_to 11000

$$$$
