AV-unprocessed.smi:1952|AV-procd|sdf|7888|dock3
  -GOLD-   2272010 43D 1   1.00000     0.00000
 Structure written by MMmdl.
 38 39  0  0  0  0  0  0  0  0  2 V2000
  146.8911  140.7420  153.0034 C   0  0  0  0  0  0  0  0  0  0  0  0
  148.1244  140.3929  153.7644 C   0  0  0  0  0  0  0  0  0  0  0  0
  148.5412  139.2468  154.3797 C   0  0  0  0  0  0  0  0  0  0  0  0
  149.8135  139.6040  154.9044 C   0  0  0  0  0  0  0  0  0  0  0  0
  150.6262  138.8060  155.6138 N   0  5  0  0  0  0  0  0  0  0  0  0
  151.5337  139.3405  156.4636 C   0  0  0  0  0  0  0  0  0  0  0  0
  152.6938  139.6565  156.1890 O   0  0  0  0  0  0  0  0  0  0  0  0
  151.0672  139.5188  157.7084 N   0  0  0  0  0  0  0  0  0  0  0  0
  151.8155  140.0553  158.8443 C   0  0  1  0  0  0  0  0  0  0  0  0
  152.9862  139.1217  159.1881 C   0  0  0  0  0  0  0  0  0  0  0  0
  152.3114  141.4803  158.5228 C   0  0  0  0  0  0  0  0  0  0  0  0
  151.8866  142.5269  159.4548 N   0  0  0  0  0  0  0  0  0  0  0  0
  152.7475  142.6238  160.6313 C   0  0  0  0  0  0  0  0  0  0  0  0
  152.2918  143.7431  161.5837 C   0  0  0  0  0  0  0  0  0  0  0  0
  152.2455  144.9813  160.8820 O   0  0  0  0  0  0  0  0  0  0  0  0
  151.3761  144.9390  159.7554 C   0  0  0  0  0  0  0  0  0  0  0  0
  151.8320  143.8267  158.7956 C   0  0  0  0  0  0  0  0  0  0  0  0
  150.1323  140.8611  154.6457 N   0  0  0  0  0  0  0  0  0  0  0  0
  149.0576  141.3723  153.9084 O   0  0  0  0  0  0  0  0  0  0  0  0
  146.0024  140.5698  153.6103 H   0  0  0  0  0  0  0  0  0  0  0  0
  146.8094  140.1335  152.1028 H   0  0  0  0  0  0  0  0  0  0  0  0
  146.8970  141.7902  152.7033 H   0  0  0  0  0  0  0  0  0  0  0  0
  148.0227  138.3019  154.4416 H   0  0  0  0  0  0  0  0  0  0  0  0
  150.1131  139.2409  157.8864 H   0  0  0  0  0  0  0  0  0  0  0  0
  151.1677  140.1028  159.7203 H   0  0  0  0  0  0  0  0  0  0  0  0
  153.5521  139.5006  160.0393 H   0  0  0  0  0  0  0  0  0  0  0  0
  153.6742  139.0217  158.3481 H   0  0  0  0  0  0  0  0  0  0  0  0
  152.6307  138.1241  159.4483 H   0  0  0  0  0  0  0  0  0  0  0  0
  153.4004  141.4744  158.4557 H   0  0  0  0  0  0  0  0  0  0  0  0
  151.9549  141.7386  157.5245 H   0  0  0  0  0  0  0  0  0  0  0  0
  152.7457  141.6830  161.1806 H   0  0  0  0  0  0  0  0  0  0  0  0
  153.7777  142.8068  160.3228 H   0  0  0  0  0  0  0  0  0  0  0  0
  151.3092  143.5170  162.0005 H   0  0  0  0  0  0  0  0  0  0  0  0
  152.9824  143.8327  162.4222 H   0  0  0  0  0  0  0  0  0  0  0  0
  150.3495  144.7693  160.0841 H   0  0  0  0  0  0  0  0  0  0  0  0
  151.3962  145.9061  159.2529 H   0  0  0  0  0  0  0  0  0  0  0  0
  152.8143  144.0784  158.3929 H   0  0  0  0  0  0  0  0  0  0  0  0
  151.1490  143.7829  157.9466 H   0  0  0  0  0  0  0  0  0  0  0  0
  1  2  1  0  0  0  0
  1 20  1  0  0  0  0
  1 21  1  0  0  0  0
  1 22  1  0  0  0  0
  2 19  1  0  0  0  0
  2  3  2  0  0  0  0
  3  4  1  0  0  0  0
  3 23  1  0  0  0  0
  4  5  1  0  0  0  0
  4 18  2  0  0  0  0
  5  6  1  0  0  0  0
  6  7  2  0  0  0  0
  6  8  1  0  0  0  0
  8  9  1  0  0  0  0
  8 24  1  0  0  0  0
  9 10  1  0  0  0  0
  9 11  1  0  0  0  0
  9 25  1  0  0  0  0
 10 26  1  0  0  0  0
 10 27  1  0  0  0  0
 10 28  1  0  0  0  0
 11 12  1  0  0  0  0
 11 29  1  0  0  0  0
 11 30  1  0  0  0  0
 12 17  1  0  0  0  0
 12 13  1  0  0  0  0
 13 14  1  0  0  0  0
 13 31  1  0  0  0  0
 13 32  1  0  0  0  0
 14 15  1  0  0  0  0
 14 33  1  0  0  0  0
 14 34  1  0  0  0  0
 15 16  1  0  0  0  0
 16 17  1  0  0  0  0
 16 35  1  0  0  0  0
 16 36  1  0  0  0  0
 17 37  1  0  0  0  0
 17 38  1  0  0  0  0
 18 19  1  0  0  0  0
M  CHG  1   5  -1
M  END
> <s_m_source_file>
AV-unprocessed.smi

> <i_m_source_file_index>
1952

> <i_lp_mmshare_version>
43012

> <i_f3d_flags>
0

> <s_epik_input>
W0NIM11jMVtjSF1jKG5vMSlbTkhdQyg9TylbTkhdW0NASF0oW0NIM10pW0NIMl1OMltDSDJdW0NIMl1PW0NIMl1bQ0gyXTI=

> <s_epik_cmdline>
J2VwaWtfcHl0aG9uJywgJy1waCcsICc3LjAnLCAnLXRuJywgJzgnLCAnLW1hJywgJzIwMCcsICctbWV0YWxfYmluZGluZycsICctaW1hZScsICc8aW5maWxlLm1hZT4nLCAnLW9tYWUnLCAnPG91dGZpbGUubWFlPic=

> <r_epik_Ionization_Penalty>
6.81701

> <r_epik_Ionization_Penalty_Charging>
6.50532

> <r_epik_Ionization_Penalty_Neutral>
0.311686

> <r_epik_State_Penalty>
6.70952

> <r_epik_Charging_Adjusted_Penalty>
13.2148

> <i_epik_Tot_Q>
-1

> <i_epik_Tot_abs_Q>
1

> <r_epik_Metal_State_Penalty>
2.64135

> <b_epik_Metal_Only>
1

> <s_lp_Force_Field>
OPLS_2005

> <r_lp_Energy>
19.0911

> <b_lp_Chiralities_Consistent>
1

> <s_lp_Variant>
AV-unprocessed.smi:1952-6

> <Gold.Version>
5.8.1

> <Gold.Id.Protein>
6NUR|6NUR_protein|mol2

> <Gold.PLP.Fitness>
38.1781

> <Gold.PLP.PLP>
-34.1146

> <Gold.PLP.part.hbond>
-4.0000

> <Gold.PLP.part.metal>
0.0000

> <Gold.PLP.part.buried>
-1.9808

> <Gold.PLP.part.nonpolar>
-28.9687

> <Gold.PLP.part.repulsive>
1.2358

> <Gold.PLP.ligand.clash>
0.0000

> <Gold.PLP.ligand.torsion>
1.9082

> <Gold.PLP.Chemscore.Hbond>
2.6000

> <Gold.PLP.Chemscore.CHOScore>
0.0000

> <Gold.PLP.Chemscore.Metal>
0.0000

> <Gold.Chemscore.Hbonds>
donor molecule, donor type, donor heavy atom, donor atom, acceptor molecule, acceptor atom, score
      P1  H  7989  7998       L1    18  0.74
      P1  H  7997  8009       L1     7  0.98
      P1  H  8011  8017       L1    19  0.77

> <Gold.PLP.Chemscore.Internal.Correction>
0.0800

> <Gold.Rescore>
     Score         DG    S(hbond)    S(metal)    S(lipo)     H(rot)  DE(clash)    DE(int)     intcor
     13.28     -17.33       1.75        0.00      84.79       1.53       0.28       3.76       ----

> <Gold.Chemscore.Fitness>
13.2841

> <Gold.Chemscore.DG>
-17.3287

> <Gold.Chemscore.ZeroCoef>
-5.4800

> <Gold.Chemscore.Hbond>
1.7512

> <Gold.Chemscore.Metal>
0.0000

> <Gold.Chemscore.Lipo>
84.7939

> <Gold.Chemscore.Internal_Hbond>
0.0000

> <Gold.Chemscore.DEClash>
0.2839

> <Gold.Chemscore.DEInternal>
3.7608

> <Gold.Chemscore.Rot>
1.5317

> <Gold.Chemscore.Internal.Correction>
   9.000000E+99

> <Gold.Chemscore.Hbonds>
donor molecule, donor type, donor heavy atom, donor atom, acceptor molecule, acceptor atom, score
      P1  H  7989  7998       L1    18  0.29
      P1  H  7997  8009       L1     7  0.93
      P1  H  8011  8017       L1    19  0.50

> <Gold.Chemscore.Hbond.Weighted>
-5.8489

> <Gold.Chemscore.Metal.Weighted>
-0.0000

> <Gold.Chemscore.Lipo.Weighted>
-9.9209

> <Gold.Chemscore.Internal_Hbond.Weighted>
0.0000

> <Gold.Chemscore.DEClash.Weighted>
0.2839

> <Gold.Chemscore.DEInternal.Weighted>
3.7608

> <Gold.Chemscore.Rot.Weighted>
3.9211

> <Gold.Chemscore.Internal.Correction.Weighted>
   9.000000E+99

> <Gold.Protein.RotatedTorsions>
[ 6907 6896 6895 6894 ] final  -92.95 input  -60.11 | X-H torsion
[ 7974 7965 7964 7962 ] final   87.91 input  175.53 | X-H torsion
[ 8008 7997 7996 7995 ] final  177.40 input   59.86 | X-H torsion
[ 10167 10162 10161 10158 ] final  155.41 input  -65.29 | X-H torsion
[ 10718 10713 10712 10709 ] final  136.17 input   66.30 | X-H torsion
[ 10763 10752 10751 10750 ] final -111.40 input  -60.55 | X-H torsion
[ 11005 11000 10999 10996 ] final  105.22 input  -57.11 | X-H torsion

> <Gold.Protein.ActiveResidues>
 VAL166  LYS551  ARG553  GLY616  TRP617  ASP618  TYR619  PRO620  LYS621  CYS622 
 ASP623  PHE694  ASN695  SER759  ASP760  ASP761  ALA762  ILE779  LEU786  VAL792 
 PHE793  MET794  SER795  GLU796  ALA797  LYS798  CYS799  TRP800  GLU811  SER814 

> <Gold.Protein.RotatedAtoms>
  150.6914  134.2043  159.4333 H   0  0  0  0  0  0  0  0  0  0  0  0  # atno 6907 bound_to 6896
  152.0008  134.9927  160.0574 H   0  0  0  0  0  0  0  0  0  0  0  0  # atno 6908 bound_to 6896
  152.1581  133.4529  159.4884 H   0  0  0  0  0  0  0  0  0  0  0  0  # atno 6909 bound_to 6896
  145.5527  139.2297  143.2503 H   0  0  0  0  0  0  0  0  0  0  0  0  # atno 7974 bound_to 7965
  156.0661  140.1359  156.9884 H   0  0  0  0  0  0  0  0  0  0  0  0  # atno 8008 bound_to 7997
  154.4507  140.0981  156.6660 H   0  0  0  0  0  0  0  0  0  0  0  0  # atno 8009 bound_to 7997
  155.5302  140.3458  155.4427 H   0  0  0  0  0  0  0  0  0  0  0  0  # atno 8010 bound_to 7997
  139.4821  144.5101  151.8037 H   0  0  0  0  0  0  0  0  0  0  0  0  # atno 10167 bound_to 10162
  157.4494  131.1064  151.0051 H   0  0  0  0  0  0  0  0  0  0  0  0  # atno 10718 bound_to 10713
  154.8298  135.4529  154.1033 H   0  0  0  0  0  0  0  0  0  0  0  0  # atno 10763 bound_to 10752
  153.2316  135.6906  153.7890 H   0  0  0  0  0  0  0  0  0  0  0  0  # atno 10764 bound_to 10752
  153.7270  135.3333  155.3254 H   0  0  0  0  0  0  0  0  0  0  0  0  # atno 10765 bound_to 10752
  139.8800  134.9328  156.5481 H   0  0  0  0  0  0  0  0  0  0  0  0  # atno 11005 bound_to 11000
  146.1905  140.6350  142.9147 LP  0  0  0  0  0  0  0  0  0  0  0  0  # atno 17320 bound_to 7965
  144.7521  140.5217  143.6794 LP  0  0  0  0  0  0  0  0  0  0  0  0  # atno 17321 bound_to 7965
  140.4603  144.1731  150.5905 LP  0  0  0  0  0  0  0  0  0  0  0  0  # atno 17342 bound_to 10162
  140.4491  143.2494  151.9371 LP  0  0  0  0  0  0  0  0  0  0  0  0  # atno 17343 bound_to 10162
  157.0886  130.5932  149.5435 LP  0  0  0  0  0  0  0  0  0  0  0  0  # atno 17370 bound_to 10713
  155.9981  130.5054  150.7558 LP  0  0  0  0  0  0  0  0  0  0  0  0  # atno 17371 bound_to 10713
  140.8260  133.8316  155.8940 LP  0  0  0  0  0  0  0  0  0  0  0  0  # atno 17394 bound_to 11000
  140.9373  134.1945  157.4822 LP  0  0  0  0  0  0  0  0  0  0  0  0  # atno 17395 bound_to 11000

$$$$
