AV-unprocessed.smi:1165|AV-procd|sdf|4933|dock3
  -GOLD-   22720 3513D 1   1.00000     0.00000
 Structure written by MMmdl.
 40 41  0  0  0  0  0  0  0  0  2 V2000
  149.3107  135.1452  155.3632 C   0  0  0  0  0  0  0  0  0  0  0  0
  150.4804  135.1824  156.3638 C   0  0  1  0  0  0  0  0  0  0  0  0
  151.5541  136.2252  155.9995 C   0  0  0  0  0  0  0  0  0  0  0  0
  151.0990  137.5884  156.3110 N   0  0  0  0  0  0  0  0  0  0  0  0
  151.9864  138.9183  155.6189 S   0  0  0  0  0  0  0  0  0  0  0  0
  153.0624  138.2963  154.8322 O   0  0  0  0  0  0  0  0  0  0  0  0
  151.0102  139.7492  154.8930 O   0  0  0  0  0  0  0  0  0  0  0  0
  152.5334  139.5974  156.9947 N   0  5  0  0  0  0  0  0  0  0  0  0
  151.8999  140.7842  157.5613 C   0  0  0  0  0  0  0  0  0  0  0  0
  152.5786  141.1720  158.8925 C   0  0  0  0  0  0  0  0  0  0  0  0
  152.2451  142.5746  159.3903 C   0  0  0  0  0  0  0  0  0  0  0  0
  151.9697  143.6213  158.4835 C   0  0  0  0  0  0  0  0  0  0  0  0
  151.6729  144.9011  158.9903 C   0  0  0  0  0  0  0  0  0  0  0  0
  151.6680  145.0838  160.3871 C   0  0  0  0  0  0  0  0  0  0  0  0
  151.9379  144.0953  161.2665 N   0  0  0  0  0  0  0  0  0  0  0  0
  152.2187  142.8703  160.7717 C   0  0  0  0  0  0  0  0  0  0  0  0
  150.6084  137.7224  157.6934 C   0  0  0  0  0  0  0  0  0  0  0  0
  149.5326  136.6651  157.9928 C   0  0  2  0  0  0  0  0  0  0  0  0
  149.1007  136.6902  159.4635 C   0  0  0  0  0  0  0  0  0  0  0  0
  150.0361  135.3646  157.7064 O   0  0  0  0  0  0  0  0  0  0  0  0
  149.6615  134.8588  154.3714 H   0  0  0  0  0  0  0  0  0  0  0  0
  148.8223  136.1142  155.2626 H   0  0  0  0  0  0  0  0  0  0  0  0
  148.5580  134.4185  155.6692 H   0  0  0  0  0  0  0  0  0  0  0  0
  150.9505  134.1991  156.3338 H   0  0  0  0  0  0  0  0  0  0  0  0
  152.4707  136.0309  156.5575 H   0  0  0  0  0  0  0  0  0  0  0  0
  151.8043  136.1424  154.9423 H   0  0  0  0  0  0  0  0  0  0  0  0
  151.9424  141.6353  156.8812 H   0  0  0  0  0  0  0  0  0  0  0  0
  150.8405  140.6081  157.7504 H   0  0  0  0  0  0  0  0  0  0  0  0
  152.2797  140.4606  159.6631 H   0  0  0  0  0  0  0  0  0  0  0  0
  153.6612  141.0719  158.8020 H   0  0  0  0  0  0  0  0  0  0  0  0
  151.9795  143.4444  157.4179 H   0  0  0  0  0  0  0  0  0  0  0  0
  151.4514  145.7214  158.3240 H   0  0  0  0  0  0  0  0  0  0  0  0
  151.4434  146.0518  160.8100 H   0  0  0  0  0  0  0  0  0  0  0  0
  152.4281  142.1014  161.5009 H   0  0  0  0  0  0  0  0  0  0  0  0
  151.4523  137.6144  158.3760 H   0  0  0  0  0  0  0  0  0  0  0  0
  150.1976  138.7183  157.8558 H   0  0  0  0  0  0  0  0  0  0  0  0
  148.6514  136.8620  157.3817 H   0  0  0  0  0  0  0  0  0  0  0  0
  148.6952  137.6648  159.7364 H   0  0  0  0  0  0  0  0  0  0  0  0
  149.9413  136.4803  160.1254 H   0  0  0  0  0  0  0  0  0  0  0  0
  148.3300  135.9439  159.6561 H   0  0  0  0  0  0  0  0  0  0  0  0
  1  2  1  0  0  0  0
  1 21  1  0  0  0  0
  1 22  1  0  0  0  0
  1 23  1  0  0  0  0
  2 20  1  0  0  0  0
  2  3  1  0  0  0  0
  2 24  1  0  0  0  0
  3  4  1  0  0  0  0
  3 25  1  0  0  0  0
  3 26  1  0  0  0  0
  4  5  1  0  0  0  0
  4 17  1  0  0  0  0
  5  6  2  0  0  0  0
  5  7  2  0  0  0  0
  5  8  1  0  0  0  0
  8  9  1  0  0  0  0
  9 10  1  0  0  0  0
  9 27  1  0  0  0  0
  9 28  1  0  0  0  0
 10 11  1  0  0  0  0
 10 29  1  0  0  0  0
 10 30  1  0  0  0  0
 11 16  1  0  0  0  0
 11 12  2  0  0  0  0
 12 13  1  0  0  0  0
 12 31  1  0  0  0  0
 13 14  2  0  0  0  0
 13 32  1  0  0  0  0
 14 15  1  0  0  0  0
 14 33  1  0  0  0  0
 15 16  2  0  0  0  0
 16 34  1  0  0  0  0
 17 18  1  0  0  0  0
 17 35  1  0  0  0  0
 17 36  1  0  0  0  0
 18 19  1  0  0  0  0
 18 20  1  0  0  0  0
 18 37  1  0  0  0  0
 19 38  1  0  0  0  0
 19 39  1  0  0  0  0
 19 40  1  0  0  0  0
M  CHG  1   8  -1
M  END
> <s_m_source_file>
AV-unprocessed.smi

> <i_m_source_file_index>
1165

> <i_lp_mmshare_version>
43012

> <i_f3d_flags>
0

> <s_epik_input>
W0NIM11bQ0BASF0xW0NIMl1OKFtDSDJdW0NASF0oTzEpW0NIM10pUyg9TykoPU8pW05IXVtDSDJdW0NIMl1jMltjSF1bY0hdW2NIXW5bY0hdMg==

> <s_epik_cmdline>
J2VwaWtfcHl0aG9uJywgJy1waCcsICc3LjAnLCAnLXRuJywgJzgnLCAnLW1hJywgJzIwMCcsICctbWV0YWxfYmluZGluZycsICctaW1hZScsICc8aW5maWxlLm1hZT4nLCAnLW9tYWUnLCAnPG91dGZpbGUubWFlPic=

> <r_epik_Ionization_Penalty>
1.23471

> <r_epik_Ionization_Penalty_Charging>
1.20871

> <r_epik_Ionization_Penalty_Neutral>
0.025996

> <r_epik_State_Penalty>
1.46261

> <r_epik_Charging_Adjusted_Penalty>
2.67132

> <i_epik_Tot_Q>
-1

> <i_epik_Tot_abs_Q>
1

> <r_epik_Metal_State_Penalty>
0.521406

> <b_epik_Metal_Only>
0

> <s_lp_Force_Field>
OPLS_2005

> <r_lp_Energy>
6.37225

> <b_lp_Chiralities_Consistent>
1

> <s_lp_Variant>
AV-unprocessed.smi:1165-6

> <Gold.Version>
5.8.1

> <Gold.Id.Protein>
6NUR|6NUR_protein|mol2

> <Gold.PLP.Fitness>
48.7707

> <Gold.PLP.PLP>
-38.5824

> <Gold.PLP.part.hbond>
-3.5084

> <Gold.PLP.part.metal>
0.0000

> <Gold.PLP.part.buried>
-5.6479

> <Gold.PLP.part.nonpolar>
-29.7140

> <Gold.PLP.part.repulsive>
0.2170

> <Gold.PLP.ligand.clash>
0.0000

> <Gold.PLP.ligand.torsion>
1.4325

> <Gold.PLP.Chemscore.Hbond>
3.8160

> <Gold.PLP.Chemscore.CHOScore>
0.0000

> <Gold.PLP.Chemscore.Metal>
0.0000

> <Gold.Chemscore.Hbonds>
donor molecule, donor type, donor heavy atom, donor atom, acceptor molecule, acceptor atom, score
      P1  H  6896  6909       L1    20  0.54
      P1  H  7989  7998       L1     7  1.00
      P1  H  7997  8009       L1     8  1.80

> <Gold.PLP.Chemscore.Internal.Correction>
1.6053

> <Gold.Rescore>
     Score         DG    S(hbond)    S(metal)    S(lipo)     H(rot)  DE(clash)    DE(int)     intcor
     17.39     -19.18       1.89        0.00      95.49       1.47       0.49       1.31       ----

> <Gold.Chemscore.Fitness>
17.3865

> <Gold.Chemscore.DG>
-19.1840

> <Gold.Chemscore.ZeroCoef>
-5.4800

> <Gold.Chemscore.Hbond>
1.8872

> <Gold.Chemscore.Metal>
0.0000

> <Gold.Chemscore.Lipo>
95.4867

> <Gold.Chemscore.Internal_Hbond>
0.0000

> <Gold.Chemscore.DEClash>
0.4868

> <Gold.Chemscore.DEInternal>
1.3107

> <Gold.Chemscore.Rot>
1.4731

> <Gold.Chemscore.Internal.Correction>
   9.000000E+99

> <Gold.Chemscore.Hbonds>
donor molecule, donor type, donor heavy atom, donor atom, acceptor molecule, acceptor atom, score
      P1  H  6896  6909       L1    20  0.21
      P1  H  7989  7998       L1     7  0.96
      P1  H  7997  8009       L1     8  0.11

> <Gold.Chemscore.Hbond.Weighted>
-6.3033

> <Gold.Chemscore.Metal.Weighted>
-0.0000

> <Gold.Chemscore.Lipo.Weighted>
-11.1719

> <Gold.Chemscore.Internal_Hbond.Weighted>
0.0000

> <Gold.Chemscore.DEClash.Weighted>
0.4868

> <Gold.Chemscore.DEInternal.Weighted>
1.3107

> <Gold.Chemscore.Rot.Weighted>
3.7712

> <Gold.Chemscore.Internal.Correction.Weighted>
   9.000000E+99

> <Gold.Protein.RotatedTorsions>
[ 6907 6896 6895 6894 ] final   60.67 input  -60.11 | X-H torsion
[ 7974 7965 7964 7962 ] final  103.31 input  175.53 | X-H torsion
[ 8008 7997 7996 7995 ] final -162.31 input   59.86 | X-H torsion
[ 10167 10162 10161 10158 ] final -142.19 input  -65.29 | X-H torsion
[ 10718 10713 10712 10709 ] final -116.04 input   66.30 | X-H torsion
[ 10763 10752 10751 10750 ] final   -2.61 input  -60.55 | X-H torsion
[ 11005 11000 10999 10996 ] final   -0.52 input  -57.11 | X-H torsion

> <Gold.Protein.ActiveResidues>
 VAL166  LYS551  ARG553  GLY616  TRP617  ASP618  TYR619  PRO620  LYS621  CYS622 
 ASP623  PHE694  ASN695  SER759  ASP760  ASP761  ALA762  ILE779  LEU786  VAL792 
 PHE793  MET794  SER795  GLU796  ALA797  LYS798  CYS799  TRP800  GLU811  SER814 

> <Gold.Protein.RotatedAtoms>
  152.4023  134.6266  160.0064 H   0  0  0  0  0  0  0  0  0  0  0  0  # atno 6907 bound_to 6896
  151.6467  133.3317  159.3150 H   0  0  0  0  0  0  0  0  0  0  0  0  # atno 6908 bound_to 6896
  150.7922  134.6996  159.6587 H   0  0  0  0  0  0  0  0  0  0  0  0  # atno 6909 bound_to 6896
  145.3476  139.2447  143.3576 H   0  0  0  0  0  0  0  0  0  0  0  0  # atno 7974 bound_to 7965
  155.8050  140.0897  157.1936 H   0  0  0  0  0  0  0  0  0  0  0  0  # atno 8008 bound_to 7997
  154.3981  140.1465  156.3378 H   0  0  0  0  0  0  0  0  0  0  0  0  # atno 8009 bound_to 7997
  155.8424  140.3438  155.5643 H   0  0  0  0  0  0  0  0  0  0  0  0  # atno 8010 bound_to 7997
  139.8112  143.7700  152.2663 H   0  0  0  0  0  0  0  0  0  0  0  0  # atno 10167 bound_to 10162
  156.0936  130.6113  150.8984 H   0  0  0  0  0  0  0  0  0  0  0  0  # atno 10718 bound_to 10713
  153.3603  135.6990  153.6717 H   0  0  0  0  0  0  0  0  0  0  0  0  # atno 10763 bound_to 10752
  153.5408  135.3573  155.2718 H   0  0  0  0  0  0  0  0  0  0  0  0  # atno 10764 bound_to 10752
  154.8667  135.4203  154.2859 H   0  0  0  0  0  0  0  0  0  0  0  0  # atno 10765 bound_to 10752
  140.6372  133.9522  155.8306 H   0  0  0  0  0  0  0  0  0  0  0  0  # atno 11005 bound_to 11000
  146.2982  140.4085  142.8714 LP  0  0  0  0  0  0  0  0  0  0  0  0  # atno 17320 bound_to 7965
  144.8742  140.7314  143.6027 LP  0  0  0  0  0  0  0  0  0  0  0  0  # atno 17321 bound_to 7965
  139.7849  144.7431  151.0036 LP  0  0  0  0  0  0  0  0  0  0  0  0  # atno 17342 bound_to 10162
  140.7817  143.4502  151.0423 LP  0  0  0  0  0  0  0  0  0  0  0  0  # atno 17343 bound_to 10162
  157.6092  131.0937  150.8826 LP  0  0  0  0  0  0  0  0  0  0  0  0  # atno 17370 bound_to 10713
  156.8968  130.5232  149.5284 LP  0  0  0  0  0  0  0  0  0  0  0  0  # atno 17371 bound_to 10713
  141.0633  134.0314  157.3629 LP  0  0  0  0  0  0  0  0  0  0  0  0  # atno 17394 bound_to 11000
  139.9093  135.0187  156.7625 LP  0  0  0  0  0  0  0  0  0  0  0  0  # atno 17395 bound_to 11000

$$$$
