AV-unprocessed.smi:1812|AV-procd|sdf|7338|dock9
  -GOLD-   22720 9 03D 1   1.00000     0.00000
 Structure written by MMmdl.
 33 35  0  0  0  0  0  0  0  0  2 V2000
  153.5955  139.2274  159.9186 O   0  0  0  0  0  0  0  0  0  0  0  0
  153.3742  139.8676  158.8881 C   0  0  0  0  0  0  0  0  0  0  0  0
  153.1027  141.1768  158.9617 N   0  0  0  0  0  0  0  0  0  0  0  0
  153.0409  141.9551  160.1922 C   0  0  0  0  0  0  0  0  0  0  0  0
  152.8205  143.4441  159.8887 C   0  0  2  0  0  0  0  0  0  0  0  0
  152.0294  144.2025  160.9551 C   0  0  0  0  0  0  0  0  0  0  0  0
  151.4747  145.3574  160.1536 C   0  0  0  0  0  0  0  0  0  0  0  0
  151.1485  144.6856  158.8226 C   0  0  0  0  0  0  0  0  0  0  0  0
  152.0666  143.6030  158.6896 O   0  0  0  0  0  0  0  0  0  0  0  0
  153.3699  139.3816  157.6259 N   0  5  0  0  0  0  0  0  0  0  0  0
  152.3056  139.5827  156.8315 C   0  0  0  0  0  0  0  0  0  0  0  0
  152.4100  139.6759  155.4982 N   0  0  0  0  0  0  0  0  0  0  0  0
  151.1923  139.8952  154.8708 N   0  0  0  0  0  0  0  0  0  0  0  0
  150.1834  139.9732  155.7419 C   0  0  0  0  0  0  0  0  0  0  0  0
  148.7740  140.2115  155.3130 C   0  0  0  0  0  0  0  0  0  0  0  0
  148.3937  140.1597  153.8510 C   0  0  0  0  0  0  0  0  0  0  0  0
  148.3672  141.4752  154.5869 C   0  0  0  0  0  0  0  0  0  0  0  0
  150.6560  139.7786  157.4225 S   0  0  0  0  0  0  0  0  0  0  0  0
  152.9269  141.6672  158.0971 H   0  0  0  0  0  0  0  0  0  0  0  0
  152.2268  141.5819  160.8152 H   0  0  0  0  0  0  0  0  0  0  0  0
  153.9653  141.8185  160.7554 H   0  0  0  0  0  0  0  0  0  0  0  0
  153.7816  143.9385  159.7374 H   0  0  0  0  0  0  0  0  0  0  0  0
  151.2136  143.5887  161.3400 H   0  0  0  0  0  0  0  0  0  0  0  0
  152.6447  144.5221  161.7967 H   0  0  0  0  0  0  0  0  0  0  0  0
  150.6079  145.8277  160.6187 H   0  0  0  0  0  0  0  0  0  0  0  0
  152.2440  146.1181  160.0131 H   0  0  0  0  0  0  0  0  0  0  0  0
  150.1367  144.2788  158.8391 H   0  0  0  0  0  0  0  0  0  0  0  0
  151.2221  145.3757  157.9817 H   0  0  0  0  0  0  0  0  0  0  0  0
  148.0766  139.7946  156.0369 H   0  0  0  0  0  0  0  0  0  0  0  0
  149.1915  140.0068  153.1266 H   0  0  0  0  0  0  0  0  0  0  0  0
  147.4386  139.7049  153.5969 H   0  0  0  0  0  0  0  0  0  0  0  0
  147.3938  141.8982  154.8260 H   0  0  0  0  0  0  0  0  0  0  0  0
  149.1407  142.1992  154.3386 H   0  0  0  0  0  0  0  0  0  0  0  0
  1  2  2  0  0  0  0
  2  3  1  0  0  0  0
  2 10  1  0  0  0  0
  3  4  1  0  0  0  0
  3 19  1  0  0  0  0
  4  5  1  0  0  0  0
  4 20  1  0  0  0  0
  4 21  1  0  0  0  0
  5  9  1  0  0  0  0
  5  6  1  0  0  0  0
  5 22  1  0  0  0  0
  6  7  1  0  0  0  0
  6 23  1  0  0  0  0
  6 24  1  0  0  0  0
  7  8  1  0  0  0  0
  7 25  1  0  0  0  0
  7 26  1  0  0  0  0
  8  9  1  0  0  0  0
  8 27  1  0  0  0  0
  8 28  1  0  0  0  0
 10 11  1  0  0  0  0
 11 18  1  0  0  0  0
 11 12  2  0  0  0  0
 12 13  1  0  0  0  0
 13 14  2  0  0  0  0
 14 15  1  0  0  0  0
 14 18  1  0  0  0  0
 15 17  1  0  0  0  0
 15 16  1  0  0  0  0
 15 29  1  0  0  0  0
 16 17  1  0  0  0  0
 16 30  1  0  0  0  0
 16 31  1  0  0  0  0
 17 32  1  0  0  0  0
 17 33  1  0  0  0  0
M  CHG  1  10  -1
M  END
> <s_m_source_file>
AV-unprocessed.smi

> <i_m_source_file_index>
1812

> <i_lp_mmshare_version>
43012

> <i_f3d_flags>
0

> <s_epik_input>
TzFbQ0gyXVtDSDJdW0NIMl1bQ0BIXTFbQ0gyXVtOSF1DKD1PKVtOSF1jMm5uYyhzMilbQ0hdM1tDSDJdW0NIMl0z

> <s_epik_cmdline>
J2VwaWtfcHl0aG9uJywgJy1waCcsICc3LjAnLCAnLXRuJywgJzgnLCAnLW1hJywgJzIwMCcsICctbWV0YWxfYmluZGluZycsICctaW1hZScsICc8aW5maWxlLm1hZT4nLCAnLW9tYWUnLCAnPG91dGZpbGUubWFlPic=

> <r_lp_tautomer_probability>
1

> <r_epik_Ionization_Penalty>
4.72991

> <r_epik_Ionization_Penalty_Charging>
4.58249

> <r_epik_Ionization_Penalty_Neutral>
0.147417

> <r_epik_State_Penalty>
4.58223

> <r_epik_Charging_Adjusted_Penalty>
9.16473

> <i_epik_Tot_Q>
-1

> <i_epik_Tot_abs_Q>
1

> <r_epik_Metal_State_Penalty>
0.861876

> <b_epik_Metal_Only>
1

> <s_lp_Force_Field>
OPLS_2005

> <r_lp_Energy>
13.803

> <b_lp_Chiralities_Consistent>
1

> <s_lp_Variant>
AV-unprocessed.smi:1812-3

> <Gold.Version>
5.8.1

> <Gold.Id.Protein>
6NUR|6NUR_protein|mol2

> <Gold.PLP.Fitness>
44.0585

> <Gold.PLP.PLP>
-37.2027

> <Gold.PLP.part.hbond>
-2.8830

> <Gold.PLP.part.metal>
0.0000

> <Gold.PLP.part.buried>
-1.7022

> <Gold.PLP.part.nonpolar>
-31.4660

> <Gold.PLP.part.repulsive>
0.1692

> <Gold.PLP.ligand.clash>
0.0000

> <Gold.PLP.ligand.torsion>
1.1425

> <Gold.PLP.Chemscore.Hbond>
3.0000

> <Gold.PLP.Chemscore.CHOScore>
0.0000

> <Gold.PLP.Chemscore.Metal>
0.0000

> <Gold.Chemscore.Hbonds>
donor molecule, donor type, donor heavy atom, donor atom, acceptor molecule, acceptor atom, score
      P1  H  7989  7998       L1    13  1.00
      P1  H  7997  8009       L1    10  1.82

> <Gold.PLP.Chemscore.Internal.Correction>
0.1409

> <Gold.Rescore>
     Score         DG    S(hbond)    S(metal)    S(lipo)     H(rot)  DE(clash)    DE(int)     intcor
     13.88     -15.08       0.92        0.00      87.36       1.45       0.13       1.07       ----

> <Gold.Chemscore.Fitness>
13.8806

> <Gold.Chemscore.DG>
-15.0839

> <Gold.Chemscore.ZeroCoef>
-5.4800

> <Gold.Chemscore.Hbond>
0.9229

> <Gold.Chemscore.Metal>
0.0000

> <Gold.Chemscore.Lipo>
87.3594

> <Gold.Chemscore.Internal_Hbond>
0.0000

> <Gold.Chemscore.DEClash>
0.1334

> <Gold.Chemscore.DEInternal>
1.0700

> <Gold.Chemscore.Rot>
1.4451

> <Gold.Chemscore.Internal.Correction>
   9.000000E+99

> <Gold.Chemscore.Hbonds>
donor molecule, donor type, donor heavy atom, donor atom, acceptor molecule, acceptor atom, score
      P1  H  7989  7998       L1    13  0.35
      P1  H  7997  8009       L1    10  0.24

> <Gold.Chemscore.Hbond.Weighted>
-3.0824

> <Gold.Chemscore.Metal.Weighted>
-0.0000

> <Gold.Chemscore.Lipo.Weighted>
-10.2210

> <Gold.Chemscore.Internal_Hbond.Weighted>
0.0000

> <Gold.Chemscore.DEClash.Weighted>
0.1334

> <Gold.Chemscore.DEInternal.Weighted>
1.0700

> <Gold.Chemscore.Rot.Weighted>
3.6995

> <Gold.Chemscore.Internal.Correction.Weighted>
   9.000000E+99

> <Gold.Protein.RotatedTorsions>
[ 6907 6896 6895 6894 ] final  167.75 input  -60.11 | X-H torsion
[ 7974 7965 7964 7962 ] final -135.34 input  175.53 | X-H torsion
[ 8008 7997 7996 7995 ] final  160.32 input   59.86 | X-H torsion
[ 10167 10162 10161 10158 ] final -132.95 input  -65.29 | X-H torsion
[ 10718 10713 10712 10709 ] final   76.38 input   66.30 | X-H torsion
[ 10763 10752 10751 10750 ] final  -66.82 input  -60.55 | X-H torsion
[ 11005 11000 10999 10996 ] final  -64.90 input  -57.11 | X-H torsion

> <Gold.Protein.ActiveResidues>
 VAL166  LYS551  ARG553  GLY616  TRP617  ASP618  TYR619  PRO620  LYS621  CYS622 
 ASP623  PHE694  ASN695  SER759  ASP760  ASP761  ALA762  ILE779  LEU786  VAL792 
 PHE793  MET794  SER795  GLU796  ALA797  LYS798  CYS799  TRP800  GLU811  SER814 

> <Gold.Protein.RotatedAtoms>
  151.8584  133.3452  159.3695 H   0  0  0  0  0  0  0  0  0  0  0  0  # atno 6907 bound_to 6896
  150.7186  134.5230  159.5672 H   0  0  0  0  0  0  0  0  0  0  0  0  # atno 6908 bound_to 6896
  152.2738  134.7904  160.0460 H   0  0  0  0  0  0  0  0  0  0  0  0  # atno 6909 bound_to 6896
  144.9023  140.6787  143.5077 H   0  0  0  0  0  0  0  0  0  0  0  0  # atno 7974 bound_to 7965
  156.2180  140.1807  156.7544 H   0  0  0  0  0  0  0  0  0  0  0  0  # atno 8008 bound_to 7997
  154.5821  140.0664  156.9148 H   0  0  0  0  0  0  0  0  0  0  0  0  # atno 8009 bound_to 7997
  155.2484  140.3327  155.4287 H   0  0  0  0  0  0  0  0  0  0  0  0  # atno 8010 bound_to 7997
  139.9032  143.6582  152.2590 H   0  0  0  0  0  0  0  0  0  0  0  0  # atno 10167 bound_to 10162
  157.6671  130.9771  150.1488 H   0  0  0  0  0  0  0  0  0  0  0  0  # atno 10718 bound_to 10713
  154.3654  135.6107  153.5712 H   0  0  0  0  0  0  0  0  0  0  0  0  # atno 10763 bound_to 10752
  152.9792  135.5825  154.4584 H   0  0  0  0  0  0  0  0  0  0  0  0  # atno 10764 bound_to 10752
  154.4328  135.2848  155.1878 H   0  0  0  0  0  0  0  0  0  0  0  0  # atno 10765 bound_to 10752
  141.1438  133.6673  156.5904 H   0  0  0  0  0  0  0  0  0  0  0  0  # atno 11005 bound_to 11000
  145.3595  139.1685  143.4391 LP  0  0  0  0  0  0  0  0  0  0  0  0  # atno 17320 bound_to 7965
  146.3115  140.3656  142.8669 LP  0  0  0  0  0  0  0  0  0  0  0  0  # atno 17321 bound_to 7965
  139.7007  144.7635  151.1279 LP  0  0  0  0  0  0  0  0  0  0  0  0  # atno 17342 bound_to 10162
  140.7702  143.5462  150.9256 LP  0  0  0  0  0  0  0  0  0  0  0  0  # atno 17343 bound_to 10162
  156.2292  130.3680  149.8464 LP  0  0  0  0  0  0  0  0  0  0  0  0  # atno 17370 bound_to 10713
  156.6296  130.8660  151.3492 LP  0  0  0  0  0  0  0  0  0  0  0  0  # atno 17371 bound_to 10713
  140.3768  134.7558  157.4635 LP  0  0  0  0  0  0  0  0  0  0  0  0  # atno 17394 bound_to 11000
  140.0668  134.5918  155.8686 LP  0  0  0  0  0  0  0  0  0  0  0  0  # atno 17395 bound_to 11000

$$$$
