AV-unprocessed.smi:1810|AV-procd|sdf|7334|dock5
  -GOLD-   22720 8593D 1   1.00000     0.00000
 Structure written by MMmdl.
 39 40  0  0  0  0  0  0  0  0  2 V2000
  152.0057  144.0240  157.7762 C   0  0  0  0  0  0  0  0  0  0  0  0
  151.4669  142.6557  157.4557 C   0  0  0  0  0  0  0  0  0  0  0  0
  150.7964  142.5378  156.3569 N   0  0  0  0  0  0  0  0  0  0  0  0
  150.2610  141.3257  155.9677 N   0  0  0  0  0  0  0  0  0  0  0  0
  149.5214  141.3775  154.7020 C   0  0  0  0  0  0  0  0  0  0  0  0
  148.0608  140.9376  154.8833 C   0  0  0  0  0  0  0  0  0  0  0  0
  147.4288  141.8256  155.7948 O   0  0  0  0  0  0  0  0  0  0  0  0
  146.5536  142.7639  155.2902 C   0  0  0  0  0  0  0  0  0  0  0  0
  146.4090  143.0585  153.9098 C   0  0  0  0  0  0  0  0  0  0  0  0
  145.4899  144.0355  153.4803 C   0  0  0  0  0  0  0  0  0  0  0  0
  144.7075  144.7262  154.4263 C   0  0  0  0  0  0  0  0  0  0  0  0
  143.5356  145.9663  153.8756 S   0  0  0  0  0  0  0  0  0  0  0  0
  142.3763  144.9535  153.3903 N   0  5  0  0  0  0  0  0  0  0  0  0
  143.1526  146.7429  155.0650 O   0  0  0  0  0  0  0  0  0  0  0  0
  144.1749  146.6794  152.7586 O   0  0  0  0  0  0  0  0  0  0  0  0
  144.8400  144.4428  155.7997 C   0  0  0  0  0  0  0  0  0  0  0  0
  145.7609  143.4653  156.2232 C   0  0  0  0  0  0  0  0  0  0  0  0
  150.3737  140.1641  156.6727 C   0  0  0  0  0  0  0  0  0  0  0  0
  149.8761  139.1045  156.2890 O   0  0  0  0  0  0  0  0  0  0  0  0
  151.1333  140.3047  157.9171 C   0  0  0  0  0  0  0  0  0  0  0  0
  151.2758  139.1110  158.6868 C   0  0  0  0  0  0  0  0  0  0  0  0
  151.3852  138.1317  159.2945 N   0  0  0  0  0  0  0  0  0  0  0  0
  151.6642  141.4896  158.3108 C   0  0  0  0  0  0  0  0  0  0  0  0
  152.4612  141.6883  159.5928 C   0  0  0  0  0  0  0  0  0  0  0  0
  153.0887  143.9953  157.8975 H   0  0  0  0  0  0  0  0  0  0  0  0
  151.5712  144.4035  158.7012 H   0  0  0  0  0  0  0  0  0  0  0  0
  151.7833  144.7442  156.9872 H   0  0  0  0  0  0  0  0  0  0  0  0
  149.5454  142.3917  154.2991 H   0  0  0  0  0  0  0  0  0  0  0  0
  150.0097  140.7557  153.9495 H   0  0  0  0  0  0  0  0  0  0  0  0
  147.5427  140.9550  153.9231 H   0  0  0  0  0  0  0  0  0  0  0  0
  148.0294  139.9177  155.2703 H   0  0  0  0  0  0  0  0  0  0  0  0
  146.9930  142.5496  153.1583 H   0  0  0  0  0  0  0  0  0  0  0  0
  145.3913  144.2538  152.4272 H   0  0  0  0  0  0  0  0  0  0  0  0
  142.8115  144.2280  152.8081 H   0  0  0  0  0  0  0  0  0  0  0  0
  144.2442  144.9714  156.5289 H   0  0  0  0  0  0  0  0  0  0  0  0
  145.8606  143.2519  157.2773 H   0  0  0  0  0  0  0  0  0  0  0  0
  152.5244  140.7761  160.1856 H   0  0  0  0  0  0  0  0  0  0  0  0
  151.9981  142.4521  160.2186 H   0  0  0  0  0  0  0  0  0  0  0  0
  153.4803  142.0019  159.3637 H   0  0  0  0  0  0  0  0  0  0  0  0
  1  2  1  0  0  0  0
  1 25  1  0  0  0  0
  1 26  1  0  0  0  0
  1 27  1  0  0  0  0
  2 23  1  0  0  0  0
  2  3  2  0  0  0  0
  3  4  1  0  0  0  0
  4  5  1  0  0  0  0
  4 18  1  0  0  0  0
  5  6  1  0  0  0  0
  5 28  1  0  0  0  0
  5 29  1  0  0  0  0
  6  7  1  0  0  0  0
  6 30  1  0  0  0  0
  6 31  1  0  0  0  0
  7  8  1  0  0  0  0
  8 17  1  0  0  0  0
  8  9  2  0  0  0  0
  9 10  1  0  0  0  0
  9 32  1  0  0  0  0
 10 11  2  0  0  0  0
 10 33  1  0  0  0  0
 11 12  1  0  0  0  0
 11 16  1  0  0  0  0
 12 13  1  0  0  0  0
 12 14  2  0  0  0  0
 12 15  2  0  0  0  0
 13 34  1  0  0  0  0
 16 17  2  0  0  0  0
 16 35  1  0  0  0  0
 17 36  1  0  0  0  0
 18 19  2  0  0  0  0
 18 20  1  0  0  0  0
 20 21  1  0  0  0  0
 20 23  2  0  0  0  0
 21 22  3  0  0  0  0
 23 24  1  0  0  0  0
 24 37  1  0  0  0  0
 24 38  1  0  0  0  0
 24 39  1  0  0  0  0
M  CHG  1  13  -1
M  END
> <s_m_source_file>
AV-unprocessed.smi

> <i_m_source_file_index>
1810

> <i_lp_mmshare_version>
43012

> <i_f3d_flags>
0

> <s_epik_input>
TiNDYyhjMVtDSDNdKWMoPU8pbihuYzFbQ0gzXSlbQ0gyXVtDSDJdT2MyW2NIXVtjSF1jKFMoPU8pKD1PKVtOSDJdKVtjSF1bY0hdMg==

> <s_epik_cmdline>
J2VwaWtfcHl0aG9uJywgJy1waCcsICc3LjAnLCAnLXRuJywgJzgnLCAnLW1hJywgJzIwMCcsICctbWV0YWxfYmluZGluZycsICctaW1hZScsICc8aW5maWxlLm1hZT4nLCAnLW9tYWUnLCAnPG91dGZpbGUubWFlPic=

> <r_lp_tautomer_probability>
1

> <r_epik_Ionization_Penalty>
4.40921

> <r_epik_Ionization_Penalty_Charging>
4.40921

> <r_epik_Ionization_Penalty_Neutral>
1.83918e-13

> <r_epik_State_Penalty>
4.40908

> <r_epik_Charging_Adjusted_Penalty>
8.81829

> <i_epik_Tot_Q>
-1

> <i_epik_Tot_abs_Q>
1

> <r_epik_Metal_State_Penalty>
0.775711

> <b_epik_Metal_Only>
1

> <s_lp_Force_Field>
OPLS_2005

> <r_lp_Energy>
29.6197

> <b_lp_Chiralities_Consistent>
1

> <s_lp_Variant>
AV-unprocessed.smi:1810-2

> <Gold.Version>
5.8.1

> <Gold.Id.Protein>
6NUR|6NUR_protein|mol2

> <Gold.PLP.Fitness>
46.6806

> <Gold.PLP.PLP>
-44.5130

> <Gold.PLP.part.hbond>
-4.4264

> <Gold.PLP.part.metal>
0.0000

> <Gold.PLP.part.buried>
-7.2646

> <Gold.PLP.part.nonpolar>
-34.6719

> <Gold.PLP.part.repulsive>
1.7605

> <Gold.PLP.ligand.clash>
0.0000

> <Gold.PLP.ligand.torsion>
1.4907

> <Gold.PLP.Chemscore.Hbond>
1.0000

> <Gold.PLP.Chemscore.CHOScore>
0.0000

> <Gold.PLP.Chemscore.Metal>
0.0000

> <Gold.Chemscore.Hbonds>
donor molecule, donor type, donor heavy atom, donor atom, acceptor molecule, acceptor atom, score
      L1  H    13    34       P1 10174  0.93

> <Gold.PLP.Chemscore.Internal.Correction>
2.1489

> <Gold.Rescore>
     Score         DG    S(hbond)    S(metal)    S(lipo)     H(rot)  DE(clash)    DE(int)     intcor
      8.98     -13.91       1.00        0.00      85.94       1.94       2.22       2.71       ----

> <Gold.Chemscore.Fitness>
8.9800

> <Gold.Chemscore.DG>
-13.9100

> <Gold.Chemscore.ZeroCoef>
-5.4800

> <Gold.Chemscore.Hbond>
0.9991

> <Gold.Chemscore.Metal>
0.0000

> <Gold.Chemscore.Lipo>
85.9430

> <Gold.Chemscore.Internal_Hbond>
0.0000

> <Gold.Chemscore.DEClash>
2.2207

> <Gold.Chemscore.DEInternal>
2.7093

> <Gold.Chemscore.Rot>
1.9384

> <Gold.Chemscore.Internal.Correction>
   9.000000E+99

> <Gold.Chemscore.Hbonds>
donor molecule, donor type, donor heavy atom, donor atom, acceptor molecule, acceptor atom, score
      L1  H    13    34       P1 10174  0.90

> <Gold.Chemscore.Hbond.Weighted>
-3.3369

> <Gold.Chemscore.Metal.Weighted>
-0.0000

> <Gold.Chemscore.Lipo.Weighted>
-10.0553

> <Gold.Chemscore.Internal_Hbond.Weighted>
0.0000

> <Gold.Chemscore.DEClash.Weighted>
2.2207

> <Gold.Chemscore.DEInternal.Weighted>
2.7093

> <Gold.Chemscore.Rot.Weighted>
4.9622

> <Gold.Chemscore.Internal.Correction.Weighted>
   9.000000E+99

> <Gold.Protein.RotatedTorsions>
[ 6907 6896 6895 6894 ] final   25.22 input  -60.11 | X-H torsion
[ 7974 7965 7964 7962 ] final   17.98 input  175.53 | X-H torsion
[ 8008 7997 7996 7995 ] final  172.39 input   59.86 | X-H torsion
[ 10167 10162 10161 10158 ] final   60.05 input  -65.29 | X-H torsion
[ 10718 10713 10712 10709 ] final   -5.20 input   66.30 | X-H torsion
[ 10763 10752 10751 10750 ] final   79.40 input  -60.55 | X-H torsion
[ 11005 11000 10999 10996 ] final  -13.21 input  -57.11 | X-H torsion

> <Gold.Protein.ActiveResidues>
 VAL166  LYS551  ARG553  GLY616  TRP617  ASP618  TYR619  PRO620  LYS621  CYS622 
 ASP623  PHE694  ASN695  SER759  ASP760  ASP761  ALA762  ILE779  LEU786  VAL792 
 PHE793  MET794  SER795  GLU796  ALA797  LYS798  CYS799  TRP800  GLU811  SER814 

> <Gold.Protein.RotatedAtoms>
  151.9692  135.0085  160.0551 H   0  0  0  0  0  0  0  0  0  0  0  0  # atno 6907 bound_to 6896
  152.1798  133.4695  159.4961 H   0  0  0  0  0  0  0  0  0  0  0  0  # atno 6908 bound_to 6896
  150.6915  134.1765  159.4275 H   0  0  0  0  0  0  0  0  0  0  0  0  # atno 6909 bound_to 6896
  146.2200  139.8524  142.8620 H   0  0  0  0  0  0  0  0  0  0  0  0  # atno 7974 bound_to 7965
  156.1178  140.1487  156.9247 H   0  0  0  0  0  0  0  0  0  0  0  0  # atno 8008 bound_to 7997
  154.4814  140.0878  156.7427 H   0  0  0  0  0  0  0  0  0  0  0  0  # atno 8009 bound_to 7997
  155.4482  140.3433  155.4300 H   0  0  0  0  0  0  0  0  0  0  0  0  # atno 8010 bound_to 7997
  140.1698  144.4288  150.6667 H   0  0  0  0  0  0  0  0  0  0  0  0  # atno 10167 bound_to 10162
  156.7501  130.5236  149.5806 H   0  0  0  0  0  0  0  0  0  0  0  0  # atno 10718 bound_to 10713
  153.0950  135.4841  154.8761 H   0  0  0  0  0  0  0  0  0  0  0  0  # atno 10763 bound_to 10752
  154.7313  135.3061  154.8888 H   0  0  0  0  0  0  0  0  0  0  0  0  # atno 10764 bound_to 10752
  153.9523  135.6822  153.4797 H   0  0  0  0  0  0  0  0  0  0  0  0  # atno 10765 bound_to 10752
  140.7738  133.8417  155.9230 H   0  0  0  0  0  0  0  0  0  0  0  0  # atno 11005 bound_to 11000
  145.2788  141.0132  143.3729 LP  0  0  0  0  0  0  0  0  0  0  0  0  # atno 17320 bound_to 7965
  144.9166  139.4463  143.6561 LP  0  0  0  0  0  0  0  0  0  0  0  0  # atno 17321 bound_to 7965
  140.6590  143.2246  151.5902 LP  0  0  0  0  0  0  0  0  0  0  0  0  # atno 17342 bound_to 10162
  139.5343  144.2825  152.1217 LP  0  0  0  0  0  0  0  0  0  0  0  0  # atno 17343 bound_to 10162
  156.1407  130.6242  151.0463 LP  0  0  0  0  0  0  0  0  0  0  0  0  # atno 17370 bound_to 10713
  157.6781  131.0845  150.7442 LP  0  0  0  0  0  0  0  0  0  0  0  0  # atno 17371 bound_to 10713
  140.9548  134.1732  157.4700 LP  0  0  0  0  0  0  0  0  0  0  0  0  # atno 17394 bound_to 11000
  139.8752  134.9923  156.5589 LP  0  0  0  0  0  0  0  0  0  0  0  0  # atno 17395 bound_to 11000

$$$$
