AV-unprocessed.smi:1033|AV-procd|sdf|4498|dock10
  -GOLD-   22720 2493D 1   1.00000     0.00000
 Structure written by MMmdl.
 57 59  0  0  0  0  0  0  0  0  3 V2000
  152.1954  143.8514  160.5039 C   0  0  0  0  0  0  0  0  0  0  0  0
  151.9579  142.8422  159.3933 C   0  0  0  0  0  0  0  0  0  0  0  0
  151.0741  143.1874  158.3462 C   0  0  0  0  0  0  0  0  0  0  0  0
  150.8771  142.2439  157.3451 C   0  0  0  0  0  0  0  0  0  0  0  0
  150.0803  142.2813  156.1992 N   0  3  0  0  0  0  0  0  0  0  0  0
  150.2128  141.1117  155.5150 C   0  0  0  0  0  0  0  0  0  0  0  0
  151.0815  140.3255  156.2078 N   0  0  0  0  0  0  0  0  0  0  0  0
  151.5702  138.9729  155.9002 C   0  0  0  0  0  0  0  0  0  0  0  0
  150.8380  138.3273  154.7074 C   0  0  2  0  0  0  0  0  0  0  0  0
  151.1232  139.0556  153.5289 O   0  0  0  0  0  0  0  0  0  0  0  0
  149.3106  138.3090  154.9201 C   0  0  0  0  0  0  0  0  0  0  0  0
  148.6747  137.0566  154.4367 N   0  3  0  0  0  0  0  0  0  0  0  0
  147.1917  137.1460  154.4179 C   0  0  0  0  0  0  0  0  0  0  0  0
  146.5810  135.8539  153.8375 C   0  0  0  0  0  0  0  0  0  0  0  0
  146.9877  134.6481  154.5581 N   0  0  0  0  0  0  0  0  0  0  0  0
  146.3619  134.5390  155.8813 C   0  0  0  0  0  0  0  0  0  0  0  0
  144.8626  134.1806  155.8785 C   0  0  2  0  0  0  0  0  0  0  0  0
  144.2014  134.3643  157.2521 C   0  0  0  0  0  0  0  0  0  0  0  0
  144.7408  132.8233  155.5101 O   0  0  0  0  0  0  0  0  0  0  0  0
  148.4515  134.5834  154.5655 C   0  0  0  0  0  0  0  0  0  0  0  0
  149.1172  135.8383  155.1666 C   0  0  0  0  0  0  0  0  0  0  0  0
  151.5240  140.9924  157.3577 C   0  0  0  0  0  0  0  0  0  0  0  0
  152.3982  140.6369  158.3831 C   0  0  0  0  0  0  0  0  0  0  0  0
  152.6113  141.5829  159.4113 C   0  0  0  0  0  0  0  0  0  0  0  0
  153.5577  141.2218  160.5436 C   0  0  0  0  0  0  0  0  0  0  0  0
  151.5958  144.7508  160.3612 H   0  0  0  0  0  0  0  0  0  0  0  0
  153.2435  144.1503  160.5306 H   0  0  0  0  0  0  0  0  0  0  0  0
  151.9313  143.4266  161.4727 H   0  0  0  0  0  0  0  0  0  0  0  0
  150.5731  144.1444  158.3259 H   0  0  0  0  0  0  0  0  0  0  0  0
  149.7185  140.8560  154.5887 H   0  0  0  0  0  0  0  0  0  0  0  0
  152.6337  139.0632  155.6757 H   0  0  0  0  0  0  0  0  0  0  0  0
  151.5016  138.3515  156.7935 H   0  0  0  0  0  0  0  0  0  0  0  0
  151.2172  137.3137  154.5811 H   0  0  0  0  0  0  0  0  0  0  0  0
  150.3213  139.1603  153.0389 H   0  0  0  0  0  0  0  0  0  0  0  0
  149.0684  138.4497  155.9746 H   0  0  0  0  0  0  0  0  0  0  0  0
  148.8797  139.1624  154.3936 H   0  0  0  0  0  0  0  0  0  0  0  0
  146.8165  137.3379  155.4241 H   0  0  0  0  0  0  0  0  0  0  0  0
  146.8857  137.9925  153.8022 H   0  0  0  0  0  0  0  0  0  0  0  0
  145.4931  135.9304  153.8267 H   0  0  0  0  0  0  0  0  0  0  0  0
  146.8809  135.7609  152.7927 H   0  0  0  0  0  0  0  0  0  0  0  0
  146.8988  133.8115  156.4896 H   0  0  0  0  0  0  0  0  0  0  0  0
  146.4740  135.4913  156.4021 H   0  0  0  0  0  0  0  0  0  0  0  0
  144.3258  134.7628  155.1303 H   0  0  0  0  0  0  0  0  0  0  0  0
  144.2350  135.4073  157.5680 H   0  0  0  0  0  0  0  0  0  0  0  0
  144.7013  133.7697  158.0177 H   0  0  0  0  0  0  0  0  0  0  0  0
  143.1534  134.0639  157.2282 H   0  0  0  0  0  0  0  0  0  0  0  0
  144.1259  132.7594  154.7949 H   0  0  0  0  0  0  0  0  0  0  0  0
  148.7937  133.6922  155.0897 H   0  0  0  0  0  0  0  0  0  0  0  0
  148.8015  134.4631  153.5393 H   0  0  0  0  0  0  0  0  0  0  0  0
  150.1982  135.7279  155.0935 H   0  0  0  0  0  0  0  0  0  0  0  0
  148.8853  135.9312  156.2282 H   0  0  0  0  0  0  0  0  0  0  0  0
  152.8944  139.6781  158.4025 H   0  0  0  0  0  0  0  0  0  0  0  0
  154.0011  140.2367  160.3953 H   0  0  0  0  0  0  0  0  0  0  0  0
  153.0266  141.2082  161.4957 H   0  0  0  0  0  0  0  0  0  0  0  0
  154.3706  141.9455  160.6101 H   0  0  0  0  0  0  0  0  0  0  0  0
  148.9596  136.9443  153.4739 H   0  0  0  0  0  0  0  0  0  0  0  0
  149.4907  143.0485  155.9024 H   0  0  0  0  0  0  0  0  0  0  0  0
  1  2  1  0  0  0  0
  1 26  1  0  0  0  0
  1 27  1  0  0  0  0
  1 28  1  0  0  0  0
  2 24  1  0  0  0  0
  2  3  2  0  0  0  0
  3  4  1  0  0  0  0
  3 29  1  0  0  0  0
  4 22  2  0  0  0  0
  4  5  1  0  0  0  0
  5  6  2  0  0  0  0
  5 57  1  0  0  0  0
  6  7  1  0  0  0  0
  6 30  1  0  0  0  0
  7  8  1  0  0  0  0
  7 22  1  0  0  0  0
  8  9  1  0  0  0  0
  8 31  1  0  0  0  0
  8 32  1  0  0  0  0
  9 10  1  0  0  0  0
  9 11  1  0  0  0  0
  9 33  1  0  0  0  0
 10 34  1  0  0  0  0
 11 12  1  0  0  0  0
 11 35  1  0  0  0  0
 11 36  1  0  0  0  0
 12 21  1  0  0  0  0
 12 13  1  0  0  0  0
 12 56  1  0  0  0  0
 13 14  1  0  0  0  0
 13 37  1  0  0  0  0
 13 38  1  0  0  0  0
 14 15  1  0  0  0  0
 14 39  1  0  0  0  0
 14 40  1  0  0  0  0
 15 16  1  0  0  0  0
 15 20  1  0  0  0  0
 16 17  1  0  0  0  0
 16 41  1  0  0  0  0
 16 42  1  0  0  0  0
 17 18  1  0  0  0  0
 17 19  1  0  0  0  0
 17 43  1  0  0  0  0
 18 44  1  0  0  0  0
 18 45  1  0  0  0  0
 18 46  1  0  0  0  0
 19 47  1  0  0  0  0
 20 21  1  0  0  0  0
 20 48  1  0  0  0  0
 20 49  1  0  0  0  0
 21 50  1  0  0  0  0
 21 51  1  0  0  0  0
 22 23  1  0  0  0  0
 23 24  2  0  0  0  0
 23 52  1  0  0  0  0
 24 25  1  0  0  0  0
 25 53  1  0  0  0  0
 25 54  1  0  0  0  0
 25 55  1  0  0  0  0
M  CHG  1   5   1
M  CHG  1  12   1
M  END
> <s_m_source_file>
AV-unprocessed.smi

> <i_m_source_file_index>
1033

> <i_lp_mmshare_version>
43012

> <i_f3d_flags>
0

> <s_epik_input>
W0NIM11jKFtjSF0xKWMoW0NIM10pW2NIXWMoYzEyKW4oW2NIXW4yKVtDSDJdW0NASF0oW09IXSlbQ0gyXU4zW0NIMl1bQ0gyXU4oW0NIMl1bQ0gyXTMpW0NIMl1bQ0BIXShbQ0gzXSlbT0hd

> <s_epik_cmdline>
J2VwaWtfcHl0aG9uJywgJy1waCcsICc3LjAnLCAnLXRuJywgJzgnLCAnLW1hJywgJzIwMCcsICctbWV0YWxfYmluZGluZycsICctaW1hZScsICc8aW5maWxlLm1hZT4nLCAnLW9tYWUnLCAnPG91dGZpbGUubWFlPic=

> <r_epik_Ionization_Penalty>
1.22049

> <r_epik_Ionization_Penalty_Charging>
1.17952

> <r_epik_Ionization_Penalty_Neutral>
0.0409743

> <r_epik_State_Penalty>
1.61468

> <r_epik_Charging_Adjusted_Penalty>
2.7942

> <i_epik_Tot_Q>
2

> <i_epik_Tot_abs_Q>
2

> <r_epik_Metal_State_Penalty>
5.63169

> <b_epik_Metal_Only>
0

> <s_lp_Force_Field>
OPLS_2005

> <r_lp_Energy>
42.2447

> <b_lp_Chiralities_Consistent>
1

> <s_lp_Variant>
AV-unprocessed.smi:1033-9

> <Gold.Version>
5.8.1

> <Gold.Id.Protein>
6NUR|6NUR_protein|mol2

> <Gold.PLP.Fitness>
54.9806

> <Gold.PLP.PLP>
-38.0189

> <Gold.PLP.part.hbond>
-5.0000

> <Gold.PLP.part.metal>
0.0000

> <Gold.PLP.part.buried>
0.2299

> <Gold.PLP.part.nonpolar>
-32.7951

> <Gold.PLP.part.repulsive>
0.1625

> <Gold.PLP.ligand.clash>
0.0000

> <Gold.PLP.ligand.torsion>
0.8302

> <Gold.PLP.Chemscore.Hbond>
6.1623

> <Gold.PLP.Chemscore.CHOScore>
0.0000

> <Gold.PLP.Chemscore.Metal>
0.0000

> <Gold.Chemscore.Hbonds>
donor molecule, donor type, donor heavy atom, donor atom, acceptor molecule, acceptor atom, score
      L1  H     5    57       P1  8028  2.00
      L1  H    10    34       P1  7957  0.50
      L1  H    12    56       P1  7948  2.00
      L1  H    19    47       P1 10957  0.50
      P1  H  7989  7998       L1    10  0.65

> <Gold.PLP.Chemscore.Internal.Correction>
0.1351

> <Gold.Rescore>
     Score         DG    S(hbond)    S(metal)    S(lipo)     H(rot)  DE(clash)    DE(int)     intcor
     19.37     -22.88       3.95        0.00     104.71       3.15       1.35       2.16       ----

> <Gold.Chemscore.Fitness>
19.3684

> <Gold.Chemscore.DG>
-22.8796

> <Gold.Chemscore.ZeroCoef>
-5.4800

> <Gold.Chemscore.Hbond>
3.9546

> <Gold.Chemscore.Metal>
0.0000

> <Gold.Chemscore.Lipo>
104.7098

> <Gold.Chemscore.Internal_Hbond>
0.0000

> <Gold.Chemscore.DEClash>
1.3497

> <Gold.Chemscore.DEInternal>
2.1615

> <Gold.Chemscore.Rot>
3.1483

> <Gold.Chemscore.Internal.Correction>
   9.000000E+99

> <Gold.Chemscore.Hbonds>
donor molecule, donor type, donor heavy atom, donor atom, acceptor molecule, acceptor atom, score
      L1  H     5    57       P1  8028  1.00
      L1  H    10    34       P1  7957  0.38
      L1  H    12    56       P1  7948  0.99
      L1  H    19    47       P1 10957  0.50
      P1  H  7989  7998       L1    10  0.10

> <Gold.Chemscore.Hbond.Weighted>
-13.2082

> <Gold.Chemscore.Metal.Weighted>
-0.0000

> <Gold.Chemscore.Lipo.Weighted>
-12.2510

> <Gold.Chemscore.Internal_Hbond.Weighted>
0.0000

> <Gold.Chemscore.DEClash.Weighted>
1.3497

> <Gold.Chemscore.DEInternal.Weighted>
2.1615

> <Gold.Chemscore.Rot.Weighted>
8.0597

> <Gold.Chemscore.Internal.Correction.Weighted>
   9.000000E+99

> <Gold.Protein.RotatedTorsions>
[ 6907 6896 6895 6894 ] final  101.17 input  -60.11 | X-H torsion
[ 7974 7965 7964 7962 ] final    1.37 input  175.53 | X-H torsion
[ 8008 7997 7996 7995 ] final -105.73 input   59.86 | X-H torsion
[ 10167 10162 10161 10158 ] final  147.28 input  -65.29 | X-H torsion
[ 10718 10713 10712 10709 ] final  -20.64 input   66.30 | X-H torsion
[ 10763 10752 10751 10750 ] final -154.86 input  -60.55 | X-H torsion
[ 11005 11000 10999 10996 ] final  100.89 input  -57.11 | X-H torsion

> <Gold.Protein.ActiveResidues>
 VAL166  LYS551  ARG553  GLY616  TRP617  ASP618  TYR619  PRO620  LYS621  CYS622 
 ASP623  PHE694  ASN695  SER759  ASP760  ASP761  ALA762  ILE779  LEU786  VAL792 
 PHE793  MET794  SER795  GLU796  ALA797  LYS798  CYS799  TRP800  GLU811  SER814 

> <Gold.Protein.RotatedAtoms>
  152.5355  134.0166  159.7962 H   0  0  0  0  0  0  0  0  0  0  0  0  # atno 6907 bound_to 6896
  151.0359  133.5741  159.2663 H   0  0  0  0  0  0  0  0  0  0  0  0  # atno 6908 bound_to 6896
  151.2729  135.0697  159.9194 H   0  0  0  0  0  0  0  0  0  0  0  0  # atno 6909 bound_to 6896
  146.2440  140.0998  142.8348 H   0  0  0  0  0  0  0  0  0  0  0  0  # atno 7974 bound_to 7965
  154.9042  140.0412  157.1910 H   0  0  0  0  0  0  0  0  0  0  0  0  # atno 8008 bound_to 7997
  154.8413  140.2915  155.5636 H   0  0  0  0  0  0  0  0  0  0  0  0  # atno 8009 bound_to 7997
  156.2992  140.2482  156.3356 H   0  0  0  0  0  0  0  0  0  0  0  0  # atno 8010 bound_to 7997
  139.4892  144.5767  151.6952 H   0  0  0  0  0  0  0  0  0  0  0  0  # atno 10167 bound_to 10162
  156.5290  130.4650  149.6557 H   0  0  0  0  0  0  0  0  0  0  0  0  # atno 10718 bound_to 10713
  154.7828  135.3180  154.7951 H   0  0  0  0  0  0  0  0  0  0  0  0  # atno 10763 bound_to 10752
  153.8659  135.6849  153.4783 H   0  0  0  0  0  0  0  0  0  0  0  0  # atno 10764 bound_to 10752
  153.1470  135.4715  154.9519 H   0  0  0  0  0  0  0  0  0  0  0  0  # atno 10765 bound_to 10752
  139.8772  134.9159  156.4824 H   0  0  0  0  0  0  0  0  0  0  0  0  # atno 11005 bound_to 11000
  145.0578  140.9066  143.4956 LP  0  0  0  0  0  0  0  0  0  0  0  0  # atno 17320 bound_to 7965
  145.1108  139.2759  143.5638 LP  0  0  0  0  0  0  0  0  0  0  0  0  # atno 17321 bound_to 7965
  140.5364  144.0648  150.6072 LP  0  0  0  0  0  0  0  0  0  0  0  0  # atno 17342 bound_to 10162
  140.3656  143.2883  152.0336 LP  0  0  0  0  0  0  0  0  0  0  0  0  # atno 17343 bound_to 10162
  156.3077  130.7212  151.2098 LP  0  0  0  0  0  0  0  0  0  0  0  0  # atno 17370 bound_to 10713
  157.7425  131.0489  150.5021 LP  0  0  0  0  0  0  0  0  0  0  0  0  # atno 17371 bound_to 10713
  140.8718  133.7983  155.9372 LP  0  0  0  0  0  0  0  0  0  0  0  0  # atno 17394 bound_to 11000
  140.8945  134.2455  157.5076 LP  0  0  0  0  0  0  0  0  0  0  0  0  # atno 17395 bound_to 11000

$$$$
