AV-unprocessed.smi:307|AV-procd|sdf|2284|dock6
  -GOLD-   2262022183D 1   1.00000     0.00000
 Structure written by MMmdl.
 38 39  0  0  0  0  0  0  0  0  1 V2000
  146.6290  139.1990  154.1806 O   0  0  0  0  0  0  0  0  0  0  0  0
  147.4194  138.5076  153.5426 C   0  0  0  0  0  0  0  0  0  0  0  0
  148.7563  138.5126  153.7135 N   0  0  0  0  0  0  0  0  0  0  0  0
  149.5422  139.3089  154.5898 C   0  0  0  0  0  0  0  0  0  0  0  0
  150.9422  139.1785  154.7525 C   0  0  0  0  0  0  0  0  0  0  0  0
  151.6024  140.0218  155.6667 C   0  0  0  0  0  0  0  0  0  0  0  0
  150.8476  140.9617  156.3957 C   0  0  0  0  0  0  0  0  0  0  0  0
  151.5031  141.7865  157.2862 O   0  0  0  0  0  0  0  0  0  0  0  0
  150.7504  142.7873  157.9668 C   0  0  0  0  0  0  0  0  0  0  0  0
  151.7008  143.6505  158.8045 C   0  0  0  0  0  0  0  0  0  0  0  0
  152.4728  142.8601  159.5495 F   0  0  0  0  0  0  0  0  0  0  0  0
  152.4799  144.3829  158.0092 F   0  0  0  0  0  0  0  0  0  0  0  0
  151.0053  144.4519  159.6112 F   0  0  0  0  0  0  0  0  0  0  0  0
  149.5044  141.0822  156.2563 N   0  0  0  0  0  0  0  0  0  0  0  0
  148.8778  140.2711  155.3780 C   0  0  0  0  0  0  0  0  0  0  0  0
  146.9863  137.6453  152.6045 N   0  0  0  0  0  0  0  0  0  0  0  0
  145.6115  137.3874  152.1696 C   0  0  0  0  0  0  0  0  0  0  0  0
  144.6580  137.2908  153.3743 C   0  0  0  0  0  0  0  0  0  0  0  0
  143.2542  136.8561  152.9234 C   0  0  0  0  0  0  0  0  0  0  0  0
  143.3277  135.6195  152.2221 O   0  0  0  0  0  0  0  0  0  0  0  0
  144.1050  135.7029  151.0324 C   0  0  0  0  0  0  0  0  0  0  0  0
  145.5573  136.0719  151.3778 C   0  0  0  0  0  0  0  0  0  0  0  0
  149.2696  137.8305  153.1746 H   0  0  0  0  0  0  0  0  0  0  0  0
  151.5201  138.4469  154.2104 H   0  0  0  0  0  0  0  0  0  0  0  0
  152.6705  139.9462  155.8082 H   0  0  0  0  0  0  0  0  0  0  0  0
  150.2214  143.4169  157.2492 H   0  0  0  0  0  0  0  0  0  0  0  0
  150.0063  142.3235  158.6168 H   0  0  0  0  0  0  0  0  0  0  0  0
  147.8079  140.3992  155.3002 H   0  0  0  0  0  0  0  0  0  0  0  0
  147.6975  137.0948  152.1450 H   0  0  0  0  0  0  0  0  0  0  0  0
  145.2769  138.1884  151.5079 H   0  0  0  0  0  0  0  0  0  0  0  0
  145.0432  136.5667  154.0938 H   0  0  0  0  0  0  0  0  0  0  0  0
  144.5985  138.2462  153.8963 H   0  0  0  0  0  0  0  0  0  0  0  0
  142.6050  136.7314  153.7903 H   0  0  0  0  0  0  0  0  0  0  0  0
  142.7964  137.6181  152.2908 H   0  0  0  0  0  0  0  0  0  0  0  0
  144.0743  134.7392  150.5239 H   0  0  0  0  0  0  0  0  0  0  0  0
  143.6689  136.4355  150.3517 H   0  0  0  0  0  0  0  0  0  0  0  0
  146.1482  136.1541  150.4648 H   0  0  0  0  0  0  0  0  0  0  0  0
  146.0000  135.2659  151.9649 H   0  0  0  0  0  0  0  0  0  0  0  0
  1  2  2  0  0  0  0
  2  3  1  0  0  0  0
  2 16  1  0  0  0  0
  3  4  1  0  0  0  0
  3 23  1  0  0  0  0
  4 15  1  0  0  0  0
  4  5  2  0  0  0  0
  5  6  1  0  0  0  0
  5 24  1  0  0  0  0
  6  7  2  0  0  0  0
  6 25  1  0  0  0  0
  7  8  1  0  0  0  0
  7 14  1  0  0  0  0
  8  9  1  0  0  0  0
  9 10  1  0  0  0  0
  9 26  1  0  0  0  0
  9 27  1  0  0  0  0
 10 11  1  0  0  0  0
 10 12  1  0  0  0  0
 10 13  1  0  0  0  0
 14 15  2  0  0  0  0
 15 28  1  0  0  0  0
 16 17  1  0  0  0  0
 16 29  1  0  0  0  0
 17 22  1  0  0  0  0
 17 18  1  0  0  0  0
 17 30  1  0  0  0  0
 18 19  1  0  0  0  0
 18 31  1  0  0  0  0
 18 32  1  0  0  0  0
 19 20  1  0  0  0  0
 19 33  1  0  0  0  0
 19 34  1  0  0  0  0
 20 21  1  0  0  0  0
 21 22  1  0  0  0  0
 21 35  1  0  0  0  0
 21 36  1  0  0  0  0
 22 37  1  0  0  0  0
 22 38  1  0  0  0  0
M  END
> <s_m_source_file>
AV-unprocessed.smi

> <i_m_source_file_index>
307

> <i_lp_mmshare_version>
43012

> <i_f3d_flags>
0

> <s_epik_input>
W0NIMl0xW0NIMl1PW0NIMl1bQ0gyXVtDSF0xW05IXUMoPU8pW05IXWMyW2NIXVtjSF1jKG5bY0hdMilPW0NIMl1DKEYpKEYpRg==

> <s_epik_cmdline>
J2VwaWtfcHl0aG9uJywgJy1waCcsICc3LjAnLCAnLXRuJywgJzgnLCAnLW1hJywgJzIwMCcsICctbWV0YWxfYmluZGluZycsICctaW1hZScsICc8aW5maWxlLm1hZT4nLCAnLW9tYWUnLCAnPG91dGZpbGUubWFlPic=

> <r_lp_tautomer_probability>
1

> <r_epik_Ionization_Penalty>
3.97058e-05

> <r_epik_Ionization_Penalty_Charging>
0

> <r_epik_Ionization_Penalty_Neutral>
3.97058e-05

> <r_epik_State_Penalty>
-0

> <r_epik_Charging_Adjusted_Penalty>
0

> <i_epik_Tot_Q>
0

> <i_epik_Tot_abs_Q>
0

> <r_epik_Metal_State_Penalty>
-0

> <b_epik_Metal_Only>
0

> <s_lp_Force_Field>
OPLS_2005

> <r_lp_Energy>
20.0098

> <b_lp_Chiralities_Consistent>
1

> <s_lp_Variant>
AV-unprocessed.smi:307-1

> <Gold.Version>
5.8.1

> <Gold.Id.Protein>
6NUR|6NUR_protein|mol2

> <Gold.PLP.Fitness>
46.8210

> <Gold.PLP.PLP>
-42.0448

> <Gold.PLP.part.hbond>
-2.9322

> <Gold.PLP.part.metal>
0.0000

> <Gold.PLP.part.buried>
-1.9224

> <Gold.PLP.part.nonpolar>
-38.7393

> <Gold.PLP.part.repulsive>
0.5239

> <Gold.PLP.ligand.clash>
0.0000

> <Gold.PLP.ligand.torsion>
0.2945

> <Gold.PLP.Chemscore.Hbond>
1.7717

> <Gold.PLP.Chemscore.CHOScore>
0.0000

> <Gold.PLP.Chemscore.Metal>
0.0000

> <Gold.Chemscore.Hbonds>
donor molecule, donor type, donor heavy atom, donor atom, acceptor molecule, acceptor atom, score
      L1  H     3    23       P1  7948  0.79
      L1  H    16    29       P1  7948  1.00

> <Gold.PLP.Chemscore.Internal.Correction>
0.0501

> <Gold.Rescore>
     Score         DG    S(hbond)    S(metal)    S(lipo)     H(rot)  DE(clash)    DE(int)     intcor
     12.42     -15.35       1.92        0.00      66.89       1.71       0.03       2.89       ----

> <Gold.Chemscore.Fitness>
12.4237

> <Gold.Chemscore.DG>
-15.3453

> <Gold.Chemscore.ZeroCoef>
-5.4800

> <Gold.Chemscore.Hbond>
1.9236

> <Gold.Chemscore.Metal>
0.0000

> <Gold.Chemscore.Lipo>
66.8897

> <Gold.Chemscore.Internal_Hbond>
0.0000

> <Gold.Chemscore.DEClash>
0.0334

> <Gold.Chemscore.DEInternal>
2.8882

> <Gold.Chemscore.Rot>
1.7132

> <Gold.Chemscore.Internal.Correction>
   9.000000E+99

> <Gold.Chemscore.Hbonds>
donor molecule, donor type, donor heavy atom, donor atom, acceptor molecule, acceptor atom, score
      L1  H     3    23       P1  7948  0.72
      L1  H    16    29       P1  7948  0.93

> <Gold.Chemscore.Hbond.Weighted>
-6.4250

> <Gold.Chemscore.Metal.Weighted>
-0.0000

> <Gold.Chemscore.Lipo.Weighted>
-7.8261

> <Gold.Chemscore.Internal_Hbond.Weighted>
0.0000

> <Gold.Chemscore.DEClash.Weighted>
0.0334

> <Gold.Chemscore.DEInternal.Weighted>
2.8882

> <Gold.Chemscore.Rot.Weighted>
4.3858

> <Gold.Chemscore.Internal.Correction.Weighted>
   9.000000E+99

> <Gold.Protein.RotatedTorsions>
[ 6907 6896 6895 6894 ] final -140.36 input  -60.11 | X-H torsion
[ 7974 7965 7964 7962 ] final  -90.29 input  175.53 | X-H torsion
[ 8008 7997 7996 7995 ] final  -41.68 input   59.86 | X-H torsion
[ 10167 10162 10161 10158 ] final  -57.25 input  -65.29 | X-H torsion
[ 10718 10713 10712 10709 ] final   21.83 input   66.30 | X-H torsion
[ 10763 10752 10751 10750 ] final   83.21 input  -60.55 | X-H torsion
[ 11005 11000 10999 10996 ] final -152.13 input  -57.11 | X-H torsion

> <Gold.Protein.ActiveResidues>
 VAL166  LYS551  ARG553  GLY616  TRP617  ASP618  TYR619  PRO620  LYS621  CYS622 
 ASP623  PHE694  ASN695  SER759  ASP760  ASP761  ALA762  ILE779  LEU786  VAL792 
 PHE793  MET794  SER795  GLU796  ALA797  LYS798  CYS799  TRP800  GLU811  SER814 

> <Gold.Protein.RotatedAtoms>
  151.0597  133.5554  159.2635 H   0  0  0  0  0  0  0  0  0  0  0  0  # atno 6907 bound_to 6896
  151.2534  135.0629  159.9080 H   0  0  0  0  0  0  0  0  0  0  0  0  # atno 6908 bound_to 6896
  152.5395  134.0354  159.8097 H   0  0  0  0  0  0  0  0  0  0  0  0  # atno 6909 bound_to 6896
  145.4284  140.9554  143.2142 H   0  0  0  0  0  0  0  0  0  0  0  0  # atno 7974 bound_to 7965
  154.4003  140.1493  156.3230 H   0  0  0  0  0  0  0  0  0  0  0  0  # atno 8008 bound_to 7997
  155.8512  140.3458  155.5673 H   0  0  0  0  0  0  0  0  0  0  0  0  # atno 8009 bound_to 7997
  155.7982  140.0866  157.1962 H   0  0  0  0  0  0  0  0  0  0  0  0  # atno 8010 bound_to 7997
  140.6269  143.2442  151.5341 H   0  0  0  0  0  0  0  0  0  0  0  0  # atno 10167 bound_to 10162
  157.1439  130.6644  149.5990 H   0  0  0  0  0  0  0  0  0  0  0  0  # atno 10718 bound_to 10713
  153.1270  135.4700  154.9289 H   0  0  0  0  0  0  0  0  0  0  0  0  # atno 10763 bound_to 10752
  154.7629  135.3136  154.8344 H   0  0  0  0  0  0  0  0  0  0  0  0  # atno 10764 bound_to 10752
  153.8895  135.6886  153.4815 H   0  0  0  0  0  0  0  0  0  0  0  0  # atno 10765 bound_to 10752
  140.7222  134.3715  157.5181 H   0  0  0  0  0  0  0  0  0  0  0  0  # atno 11005 bound_to 11000
  144.8199  139.5810  143.6991 LP  0  0  0  0  0  0  0  0  0  0  0  0  # atno 17320 bound_to 7965
  146.2620  139.6432  142.9355 LP  0  0  0  0  0  0  0  0  0  0  0  0  # atno 17321 bound_to 7965
  139.5488  144.2450  152.1492 LP  0  0  0  0  0  0  0  0  0  0  0  0  # atno 17342 bound_to 10162
  140.1684  144.4959  150.6593 LP  0  0  0  0  0  0  0  0  0  0  0  0  # atno 17343 bound_to 10162
  155.9783  130.4768  150.6649 LP  0  0  0  0  0  0  0  0  0  0  0  0  # atno 17370 bound_to 10713
  157.4282  131.0846  151.1064 LP  0  0  0  0  0  0  0  0  0  0  0  0  # atno 17371 bound_to 10713
  139.8845  134.8962  156.2697 LP  0  0  0  0  0  0  0  0  0  0  0  0  # atno 17394 bound_to 11000
  140.9994  133.7161  156.0936 LP  0  0  0  0  0  0  0  0  0  0  0  0  # atno 17395 bound_to 11000

$$$$
