AV-unprocessed.smi:213|AV-procd|sdf|1641|dock4
  -GOLD-   2262020 13D 1   1.00000     0.00000
 Structure written by MMmdl.
 58 61  0  0  0  0  0  0  0  0  1 V2000
  147.9172  142.0361  156.6983 C   0  0  0  0  0  0  0  0  0  0  0  0
  148.5418  140.6976  156.2668 C   0  0  2  0  0  0  0  0  0  0  0  0
  150.0765  140.7836  156.1086 C   0  0  0  0  0  0  0  0  0  0  0  0
  150.7638  139.5098  155.8909 N   0  0  0  0  0  0  0  0  0  0  0  0
  152.2109  139.6801  155.9659 C   0  0  0  0  0  0  0  0  0  0  0  0
  152.9594  138.3539  155.7478 C   0  0  0  0  0  0  0  0  0  0  0  0
  152.5834  137.7973  154.4925 O   0  0  0  0  0  0  0  0  0  0  0  0
  151.1816  137.5701  154.3928 C   0  0  0  0  0  0  0  0  0  0  0  0
  150.4247  138.8921  154.6100 C   0  0  0  0  0  0  0  0  0  0  0  0
  147.9174  140.2022  155.0367 N   0  0  0  0  0  0  0  0  0  0  0  0
  147.9049  141.0121  153.8201 C   0  0  0  0  0  0  0  0  0  0  0  0
  147.4456  138.9287  154.9667 C   0  0  0  0  0  0  0  0  0  0  0  0
  147.5764  138.1335  156.0624 N   0  0  0  0  0  0  0  0  0  0  0  0
  147.1279  136.8753  156.0478 C   0  0  0  0  0  0  0  0  0  0  0  0
  146.5305  136.2148  155.0555 N   0  0  0  0  0  0  0  0  0  0  0  0
  146.4070  136.9986  153.9470 C   0  0  0  0  0  0  0  0  0  0  0  0
  146.8324  138.3519  153.8140 C   0  0  0  0  0  0  0  0  0  0  0  0
  146.5529  138.8011  152.5267 N   0  0  0  0  0  0  0  0  0  0  0  0
  145.9844  137.7825  151.9423 C   0  0  0  0  0  0  0  0  0  0  0  0
  145.8594  136.6578  152.7239 N   0  0  0  0  0  0  0  0  0  0  0  0
  145.2836  135.3832  152.3353 C   0  0  0  0  0  0  0  0  0  0  0  0
  145.5415  135.0568  150.8517 C   0  0  2  0  0  0  0  0  0  0  0  0
  144.6075  135.7269  150.0270 O   0  0  0  0  0  0  0  0  0  0  0  0
  145.5335  133.5427  150.5621 C   0  0  2  0  0  0  0  0  0  0  0  0
  144.1879  132.8267  150.7025 C   0  0  0  0  0  0  0  0  0  0  0  0
  144.6395  131.3958  150.8910 C   0  0  0  0  0  0  0  0  0  0  0  0
  145.8891  131.5690  151.7528 C   0  0  0  0  0  0  0  0  0  0  0  0
  146.4443  132.8335  151.3981 O   0  0  0  0  0  0  0  0  0  0  0  0
  148.3108  142.3608  157.6616 H   0  0  0  0  0  0  0  0  0  0  0  0
  146.8357  141.9467  156.8034 H   0  0  0  0  0  0  0  0  0  0  0  0
  148.1177  142.8289  155.9779 H   0  0  0  0  0  0  0  0  0  0  0  0
  148.3525  139.9748  157.0557 H   0  0  0  0  0  0  0  0  0  0  0  0
  150.3135  141.4623  155.2877 H   0  0  0  0  0  0  0  0  0  0  0  0
  150.4854  141.2502  157.0057 H   0  0  0  0  0  0  0  0  0  0  0  0
  152.5377  140.4045  155.2178 H   0  0  0  0  0  0  0  0  0  0  0  0
  152.4859  140.0909  156.9380 H   0  0  0  0  0  0  0  0  0  0  0  0
  154.0365  138.5200  155.7568 H   0  0  0  0  0  0  0  0  0  0  0  0
  152.7361  137.6477  156.5490 H   0  0  0  0  0  0  0  0  0  0  0  0
  150.9556  137.1603  153.4084 H   0  0  0  0  0  0  0  0  0  0  0  0
  150.8746  136.8250  155.1284 H   0  0  0  0  0  0  0  0  0  0  0  0
  149.3564  138.6870  154.5556 H   0  0  0  0  0  0  0  0  0  0  0  0
  150.6549  139.5793  153.7944 H   0  0  0  0  0  0  0  0  0  0  0  0
  146.9518  140.9128  153.2992 H   0  0  0  0  0  0  0  0  0  0  0  0
  148.7020  140.6987  153.1452 H   0  0  0  0  0  0  0  0  0  0  0  0
  148.0505  142.0686  154.0432 H   0  0  0  0  0  0  0  0  0  0  0  0
  147.2692  136.3180  156.9621 H   0  0  0  0  0  0  0  0  0  0  0  0
  145.6472  137.8210  150.9166 H   0  0  0  0  0  0  0  0  0  0  0  0
  145.7115  134.6082  152.9723 H   0  0  0  0  0  0  0  0  0  0  0  0
  144.2135  135.4045  152.5457 H   0  0  0  0  0  0  0  0  0  0  0  0
  146.5257  135.4407  150.5800 H   0  0  0  0  0  0  0  0  0  0  0  0
  144.8123  136.6494  150.0363 H   0  0  0  0  0  0  0  0  0  0  0  0
  145.8850  133.3896  149.5403 H   0  0  0  0  0  0  0  0  0  0  0  0
  143.6445  133.1574  151.5882 H   0  0  0  0  0  0  0  0  0  0  0  0
  143.5414  132.9613  149.8350 H   0  0  0  0  0  0  0  0  0  0  0  0
  143.8834  130.7638  151.3577 H   0  0  0  0  0  0  0  0  0  0  0  0
  144.9046  130.9576  149.9277 H   0  0  0  0  0  0  0  0  0  0  0  0
  145.6210  131.5955  152.8097 H   0  0  0  0  0  0  0  0  0  0  0  0
  146.6088  130.7633  151.6062 H   0  0  0  0  0  0  0  0  0  0  0  0
  1  2  1  0  0  0  0
  1 29  1  0  0  0  0
  1 30  1  0  0  0  0
  1 31  1  0  0  0  0
  2  3  1  0  0  0  0
  2 10  1  0  0  0  0
  2 32  1  0  0  0  0
  3  4  1  0  0  0  0
  3 33  1  0  0  0  0
  3 34  1  0  0  0  0
  4  9  1  0  0  0  0
  4  5  1  0  0  0  0
  5  6  1  0  0  0  0
  5 35  1  0  0  0  0
  5 36  1  0  0  0  0
  6  7  1  0  0  0  0
  6 37  1  0  0  0  0
  6 38  1  0  0  0  0
  7  8  1  0  0  0  0
  8  9  1  0  0  0  0
  8 39  1  0  0  0  0
  8 40  1  0  0  0  0
  9 41  1  0  0  0  0
  9 42  1  0  0  0  0
 10 11  1  0  0  0  0
 10 12  1  0  0  0  0
 11 43  1  0  0  0  0
 11 44  1  0  0  0  0
 11 45  1  0  0  0  0
 12 17  1  0  0  0  0
 12 13  2  0  0  0  0
 13 14  1  0  0  0  0
 14 15  2  0  0  0  0
 14 46  1  0  0  0  0
 15 16  1  0  0  0  0
 16 20  1  0  0  0  0
 16 17  2  0  0  0  0
 17 18  1  0  0  0  0
 18 19  2  0  0  0  0
 19 20  1  0  0  0  0
 19 47  1  0  0  0  0
 20 21  1  0  0  0  0
 21 22  1  0  0  0  0
 21 48  1  0  0  0  0
 21 49  1  0  0  0  0
 22 23  1  0  0  0  0
 22 24  1  0  0  0  0
 22 50  1  0  0  0  0
 23 51  1  0  0  0  0
 24 28  1  0  0  0  0
 24 25  1  0  0  0  0
 24 52  1  0  0  0  0
 25 26  1  0  0  0  0
 25 53  1  0  0  0  0
 25 54  1  0  0  0  0
 26 27  1  0  0  0  0
 26 55  1  0  0  0  0
 26 56  1  0  0  0  0
 27 28  1  0  0  0  0
 27 57  1  0  0  0  0
 27 58  1  0  0  0  0
M  END
> <s_m_source_file>
AV-unprocessed.smi

> <i_m_source_file_index>
213

> <i_lp_mmshare_version>
43012

> <i_f3d_flags>
0

> <s_epik_input>
W0NIMl0xW0NIMl1PW0NIMl1bQ0gyXU4xW0NIMl1bQ0BASF0oW0NIM10pTihbQ0gzXSljKG5bY0hdbjIpYyhjMjMpbltjSF1uM1tDSDJdW0NASF0oW09IXSlbQ0BASF00W0NIMl1bQ0gyXVtDSDJdTzQ=

> <s_epik_cmdline>
J2VwaWtfcHl0aG9uJywgJy1waCcsICc3LjAnLCAnLXRuJywgJzgnLCAnLW1hJywgJzIwMCcsICctbWV0YWxfYmluZGluZycsICctaW1hZScsICc8aW5maWxlLm1hZT4nLCAnLW9tYWUnLCAnPG91dGZpbGUubWFlPic=

> <r_lp_tautomer_probability>
1

> <r_epik_Ionization_Penalty>
0.423322

> <r_epik_Ionization_Penalty_Charging>
0

> <r_epik_Ionization_Penalty_Neutral>
0.423322

> <r_epik_State_Penalty>
0.569486

> <r_epik_Charging_Adjusted_Penalty>
0.569486

> <i_epik_Tot_Q>
0

> <i_epik_Tot_abs_Q>
0

> <r_epik_Metal_State_Penalty>
0.568671

> <b_epik_Metal_Only>
0

> <s_lp_Force_Field>
OPLS_2005

> <r_lp_Energy>
51.8913

> <b_lp_Chiralities_Consistent>
1

> <s_lp_Variant>
AV-unprocessed.smi:213-9

> <Gold.Version>
5.8.1

> <Gold.Id.Protein>
6NUR|6NUR_protein|mol2

> <Gold.PLP.Fitness>
45.1000

> <Gold.PLP.PLP>
-39.6728

> <Gold.PLP.part.hbond>
-2.9382

> <Gold.PLP.part.metal>
0.0000

> <Gold.PLP.part.buried>
-3.9860

> <Gold.PLP.part.nonpolar>
-34.5906

> <Gold.PLP.part.repulsive>
0.6225

> <Gold.PLP.ligand.clash>
0.0000

> <Gold.PLP.ligand.torsion>
0.8712

> <Gold.PLP.Chemscore.Hbond>
1.1334

> <Gold.PLP.Chemscore.CHOScore>
1.0000

> <Gold.PLP.Chemscore.Metal>
0.0000

> <Gold.Chemscore.Hbonds>
donor molecule, donor type, donor heavy atom, donor atom, acceptor molecule, acceptor atom, score
      L1  H    23    51       P1 10171  0.57
      P1  H 10752 10765       L1     7  0.23
      L1  C    19    47       P1 10171  1.00

> <Gold.PLP.Chemscore.Internal.Correction>
0.7695

> <Gold.Rescore>
     Score         DG    S(hbond)    S(metal)    S(lipo)     H(rot)  DE(clash)    DE(int)     intcor
      8.84     -12.53       0.89        0.00      94.67       2.74       0.24       3.45       ----

> <Gold.Chemscore.Fitness>
8.8392

> <Gold.Chemscore.DG>
-12.5254

> <Gold.Chemscore.ZeroCoef>
-5.4800

> <Gold.Chemscore.Hbond>
0.8916

> <Gold.Chemscore.Metal>
0.0000

> <Gold.Chemscore.Lipo>
94.6690

> <Gold.Chemscore.Internal_Hbond>
0.0000

> <Gold.Chemscore.DEClash>
0.2368

> <Gold.Chemscore.DEInternal>
3.4494

> <Gold.Chemscore.Rot>
2.7378

> <Gold.Chemscore.Internal.Correction>
   9.000000E+99

> <Gold.Chemscore.Hbonds>
donor molecule, donor type, donor heavy atom, donor atom, acceptor molecule, acceptor atom, score
      L1  H    23    51       P1 10171  0.58
      P1  H 10752 10765       L1     7  0.01

> <Gold.Chemscore.Hbond.Weighted>
-2.9778

> <Gold.Chemscore.Metal.Weighted>
-0.0000

> <Gold.Chemscore.Lipo.Weighted>
-11.0763

> <Gold.Chemscore.Internal_Hbond.Weighted>
0.0000

> <Gold.Chemscore.DEClash.Weighted>
0.2368

> <Gold.Chemscore.DEInternal.Weighted>
3.4494

> <Gold.Chemscore.Rot.Weighted>
7.0087

> <Gold.Chemscore.Internal.Correction.Weighted>
   9.000000E+99

> <Gold.Protein.RotatedTorsions>
[ 6907 6896 6895 6894 ] final -118.34 input  -60.11 | X-H torsion
[ 7974 7965 7964 7962 ] final   24.50 input  175.53 | X-H torsion
[ 8008 7997 7996 7995 ] final -135.67 input   59.86 | X-H torsion
[ 10167 10162 10161 10158 ] final  -41.11 input  -65.29 | X-H torsion
[ 10718 10713 10712 10709 ] final   64.55 input   66.30 | X-H torsion
[ 10763 10752 10751 10750 ] final  153.68 input  -60.55 | X-H torsion
[ 11005 11000 10999 10996 ] final  174.74 input  -57.11 | X-H torsion

> <Gold.Protein.ActiveResidues>
 VAL166  LYS551  ARG553  GLY616  TRP617  ASP618  TYR619  PRO620  LYS621  CYS622 
 ASP623  PHE694  ASN695  SER759  ASP760  ASP761  ALA762  ILE779  LEU786  VAL792 
 PHE793  MET794  SER795  GLU796  ALA797  LYS798  CYS799  TRP800  GLU811  SER814 

> <Gold.Protein.RotatedAtoms>
  150.8212  133.8250  159.3138 H   0  0  0  0  0  0  0  0  0  0  0  0  # atno 6907 bound_to 6896
  151.6007  135.1046  160.0069 H   0  0  0  0  0  0  0  0  0  0  0  0  # atno 6908 bound_to 6896
  152.4301  133.7221  159.6596 H   0  0  0  0  0  0  0  0  0  0  0  0  # atno 6909 bound_to 6896
  146.1934  139.7596  142.8815 H   0  0  0  0  0  0  0  0  0  0  0  0  # atno 7974 bound_to 7965
  155.3825  140.0495  157.3043 H   0  0  0  0  0  0  0  0  0  0  0  0  # atno 8008 bound_to 7997
  154.5075  140.2179  155.9183 H   0  0  0  0  0  0  0  0  0  0  0  0  # atno 8009 bound_to 7997
  156.1544  140.3129  155.8706 H   0  0  0  0  0  0  0  0  0  0  0  0  # atno 8010 bound_to 7997
  140.7013  143.3113  151.3020 H   0  0  0  0  0  0  0  0  0  0  0  0  # atno 10167 bound_to 10162
  157.6047  130.9166  149.9861 H   0  0  0  0  0  0  0  0  0  0  0  0  # atno 10718 bound_to 10713
  154.1400  135.2821  155.3163 H   0  0  0  0  0  0  0  0  0  0  0  0  # atno 10763 bound_to 10752
  154.6293  135.5440  153.7666 H   0  0  0  0  0  0  0  0  0  0  0  0  # atno 10764 bound_to 10752
  153.0253  135.6459  154.1548 H   0  0  0  0  0  0  0  0  0  0  0  0  # atno 10765 bound_to 10752
  140.3546  134.7165  157.4291 H   0  0  0  0  0  0  0  0  0  0  0  0  # atno 11005 bound_to 11000
  145.3720  141.0344  143.3226 LP  0  0  0  0  0  0  0  0  0  0  0  0  # atno 17320 bound_to 7965
  144.8532  139.5289  143.6846 LP  0  0  0  0  0  0  0  0  0  0  0  0  # atno 17321 bound_to 7965
  139.6537  144.0315  152.2644 LP  0  0  0  0  0  0  0  0  0  0  0  0  # atno 17342 bound_to 10162
  139.9860  144.6395  150.7857 LP  0  0  0  0  0  0  0  0  0  0  0  0  # atno 17343 bound_to 10162
  156.1130  130.3649  150.0016 LP  0  0  0  0  0  0  0  0  0  0  0  0  # atno 17370 bound_to 10713
  156.8111  130.9325  151.3644 LP  0  0  0  0  0  0  0  0  0  0  0  0  # atno 17371 bound_to 10713
  140.0675  134.5909  155.8679 LP  0  0  0  0  0  0  0  0  0  0  0  0  # atno 17394 bound_to 11000
  141.2002  133.6611  156.5884 LP  0  0  0  0  0  0  0  0  0  0  0  0  # atno 17395 bound_to 11000

$$$$
