AV-unprocessed.smi:148|AV-procd|sdf|1203|dock6
  -GOLD-   2262018363D 1   1.00000     0.00000
 Structure written by MMmdl.
 63 67  0  0  0  0  0  0  0  0  1 V2000
  151.2991  145.8240  159.9841 O   0  0  0  0  0  0  0  0  0  0  0  0
  151.4651  145.0394  158.8206 C   0  0  0  0  0  0  0  0  0  0  0  0
  151.5031  143.5286  159.1564 C   0  0  1  0  0  0  0  0  0  0  0  0
  151.5794  142.7142  157.8346 C   0  0  0  0  0  0  0  0  0  0  0  0
  150.4826  141.7878  157.6077 N   0  0  0  0  0  0  0  0  0  0  0  0
  149.1534  142.1140  157.4497 C   0  0  0  0  0  0  0  0  0  0  0  0
  148.3428  141.1015  157.3032 N   0  0  0  0  0  0  0  0  0  0  0  0
  149.1756  139.9933  157.3812 C   0  0  0  0  0  0  0  0  0  0  0  0
  148.9572  138.5920  157.3236 C   0  0  0  0  0  0  0  0  0  0  0  0
  147.7140  138.0702  157.2235 N   0  0  0  0  0  0  0  0  0  0  0  0
  146.9815  138.8269  156.2041 C   0  0  0  0  0  0  0  0  0  0  0  0
  145.6740  138.1342  155.8135 C   0  0  0  0  0  0  0  0  0  0  0  0
  144.8215  137.9096  157.0610 C   0  0  0  0  0  0  0  0  0  0  0  0
  145.6195  137.1039  158.0926 C   0  0  0  0  0  0  0  0  0  0  0  0
  146.9770  137.7646  158.4696 C   0  0  1  0  0  0  0  0  0  0  0  0
  147.7704  136.8437  159.4627 C   0  0  2  0  0  0  0  0  0  0  0  0
  148.0937  135.4421  158.9046 C   0  0  0  0  0  0  0  0  0  0  0  0
  148.3228  134.5593  160.1236 C   0  0  0  0  0  0  0  0  0  0  0  0
  147.2355  135.0196  161.0836 C   0  0  0  0  0  0  0  0  0  0  0  0
  147.0736  136.5248  160.8159 C   0  0  1  0  0  0  0  0  0  0  0  0
  147.6933  137.2319  161.8698 O   0  0  0  0  0  0  0  0  0  0  0  0
  150.0332  137.7726  157.4611 N   0  0  0  0  0  0  0  0  0  0  0  0
  151.2519  138.2976  157.6247 C   0  0  0  0  0  0  0  0  0  0  0  0
  151.6059  139.5831  157.6996 N   0  0  0  0  0  0  0  0  0  0  0  0
  150.5241  140.4043  157.5721 C   0  0  0  0  0  0  0  0  0  0  0  0
  152.6593  143.1925  160.1451 C   0  0  2  0  0  0  0  0  0  0  0  0
  153.2237  141.7775  160.0322 C   0  0  0  0  0  0  0  0  0  0  0  0
  153.6401  141.3930  161.4544 C   0  0  0  0  0  0  0  0  0  0  0  0
  153.3429  142.5250  162.2562 O   0  0  0  0  0  0  0  0  0  0  0  0
  152.2847  143.2267  161.6299 C   0  0  0  0  0  0  0  0  0  0  0  0
  151.5312  145.3002  160.7358 H   0  0  0  0  0  0  0  0  0  0  0  0
  150.6617  145.2607  158.1172 H   0  0  0  0  0  0  0  0  0  0  0  0
  152.3951  145.3702  158.3601 H   0  0  0  0  0  0  0  0  0  0  0  0
  150.5620  143.2938  159.6553 H   0  0  0  0  0  0  0  0  0  0  0  0
  151.6017  143.3848  156.9754 H   0  0  0  0  0  0  0  0  0  0  0  0
  152.5146  142.1533  157.8031 H   0  0  0  0  0  0  0  0  0  0  0  0
  148.7998  143.1347  157.4479 H   0  0  0  0  0  0  0  0  0  0  0  0
  146.7643  139.8278  156.5808 H   0  0  0  0  0  0  0  0  0  0  0  0
  147.5987  138.9515  155.3125 H   0  0  0  0  0  0  0  0  0  0  0  0
  145.1303  138.7393  155.0877 H   0  0  0  0  0  0  0  0  0  0  0  0
  145.8890  137.1800  155.3306 H   0  0  0  0  0  0  0  0  0  0  0  0
  144.5246  138.8686  157.4878 H   0  0  0  0  0  0  0  0  0  0  0  0
  143.9032  137.3831  156.7998 H   0  0  0  0  0  0  0  0  0  0  0  0
  144.9844  136.9800  158.9687 H   0  0  0  0  0  0  0  0  0  0  0  0
  145.7997  136.1028  157.6977 H   0  0  0  0  0  0  0  0  0  0  0  0
  146.7571  138.7086  158.9704 H   0  0  0  0  0  0  0  0  0  0  0  0
  148.7343  137.3166  159.6629 H   0  0  0  0  0  0  0  0  0  0  0  0
  147.2410  135.0491  158.3488 H   0  0  0  0  0  0  0  0  0  0  0  0
  148.9565  135.4443  158.2378 H   0  0  0  0  0  0  0  0  0  0  0  0
  148.2589  133.4955  159.8929 H   0  0  0  0  0  0  0  0  0  0  0  0
  149.3081  134.7565  160.5484 H   0  0  0  0  0  0  0  0  0  0  0  0
  146.3035  134.5097  160.8357 H   0  0  0  0  0  0  0  0  0  0  0  0
  147.4661  134.7799  162.1229 H   0  0  0  0  0  0  0  0  0  0  0  0
  146.0118  136.7670  160.7953 H   0  0  0  0  0  0  0  0  0  0  0  0
  147.6257  136.7149  162.6579 H   0  0  0  0  0  0  0  0  0  0  0  0
  152.0588  137.5855  157.7166 H   0  0  0  0  0  0  0  0  0  0  0  0
  153.4740  143.9034  159.9977 H   0  0  0  0  0  0  0  0  0  0  0  0
  152.4617  141.0820  159.6798 H   0  0  0  0  0  0  0  0  0  0  0  0
  154.0683  141.7276  159.3456 H   0  0  0  0  0  0  0  0  0  0  0  0
  153.0649  140.5348  161.8044 H   0  0  0  0  0  0  0  0  0  0  0  0
  154.6992  141.1441  161.5239 H   0  0  0  0  0  0  0  0  0  0  0  0
  152.2093  144.2395  162.0263 H   0  0  0  0  0  0  0  0  0  0  0  0
  151.3419  142.7085  161.8153 H   0  0  0  0  0  0  0  0  0  0  0  0
  1  2  1  0  0  0  0
  1 31  1  0  0  0  0
  2  3  1  0  0  0  0
  2 32  1  0  0  0  0
  2 33  1  0  0  0  0
  3  4  1  0  0  0  0
  3 26  1  0  0  0  0
  3 34  1  0  0  0  0
  4  5  1  0  0  0  0
  4 35  1  0  0  0  0
  4 36  1  0  0  0  0
  5 25  1  0  0  0  0
  5  6  1  0  0  0  0
  6  7  2  0  0  0  0
  6 37  1  0  0  0  0
  7  8  1  0  0  0  0
  8 25  2  0  0  0  0
  8  9  1  0  0  0  0
  9 10  1  0  0  0  0
  9 22  2  0  0  0  0
 10 15  1  0  0  0  0
 10 11  1  0  0  0  0
 11 12  1  0  0  0  0
 11 38  1  0  0  0  0
 11 39  1  0  0  0  0
 12 13  1  0  0  0  0
 12 40  1  0  0  0  0
 12 41  1  0  0  0  0
 13 14  1  0  0  0  0
 13 42  1  0  0  0  0
 13 43  1  0  0  0  0
 14 15  1  0  0  0  0
 14 44  1  0  0  0  0
 14 45  1  0  0  0  0
 15 16  1  0  0  0  0
 15 46  1  0  0  0  0
 16 20  1  0  0  0  0
 16 17  1  0  0  0  0
 16 47  1  0  0  0  0
 17 18  1  0  0  0  0
 17 48  1  0  0  0  0
 17 49  1  0  0  0  0
 18 19  1  0  0  0  0
 18 50  1  0  0  0  0
 18 51  1  0  0  0  0
 19 20  1  0  0  0  0
 19 52  1  0  0  0  0
 19 53  1  0  0  0  0
 20 21  1  0  0  0  0
 20 54  1  0  0  0  0
 21 55  1  0  0  0  0
 22 23  1  0  0  0  0
 23 24  2  0  0  0  0
 23 56  1  0  0  0  0
 24 25  1  0  0  0  0
 26 30  1  0  0  0  0
 26 27  1  0  0  0  0
 26 57  1  0  0  0  0
 27 28  1  0  0  0  0
 27 58  1  0  0  0  0
 27 59  1  0  0  0  0
 28 29  1  0  0  0  0
 28 60  1  0  0  0  0
 28 61  1  0  0  0  0
 29 30  1  0  0  0  0
 30 62  1  0  0  0  0
 30 63  1  0  0  0  0
M  END
> <s_m_source_file>
AV-unprocessed.smi

> <i_m_source_file_index>
148

> <i_lp_mmshare_version>
43012

> <i_f3d_flags>
0

> <s_epik_input>
W0NIMl0xT1tDSDJdW0NIMl1bQ0BIXTFbQ0BIXShbQ0gyXVtPSF0pW0NIMl1uKFtjSF1uMiljKGMyMyluW2NIXW5jM040W0NIMl1bQ0gyXVtDSDJdW0NIMl1bQ0BIXTRbQ0BASF01W0NIMl1bQ0gyXVtDSDJdW0NASF01W09IXQ==

> <s_epik_cmdline>
J2VwaWtfcHl0aG9uJywgJy1waCcsICc3LjAnLCAnLXRuJywgJzgnLCAnLW1hJywgJzIwMCcsICctbWV0YWxfYmluZGluZycsICctaW1hZScsICc8aW5maWxlLm1hZT4nLCAnLW9tYWUnLCAnPG91dGZpbGUubWFlPic=

> <r_lp_tautomer_probability>
1

> <r_epik_Ionization_Penalty>
0.00556303

> <r_epik_Ionization_Penalty_Charging>
0

> <r_epik_Ionization_Penalty_Neutral>
0.00556303

> <r_epik_State_Penalty>
0.00401767

> <r_epik_Charging_Adjusted_Penalty>
0.00401767

> <i_epik_Tot_Q>
0

> <i_epik_Tot_abs_Q>
0

> <r_epik_Metal_State_Penalty>
-0

> <b_epik_Metal_Only>
0

> <s_lp_Force_Field>
OPLS_2005

> <r_lp_Energy>
69.6021

> <b_lp_Chiralities_Consistent>
1

> <s_lp_Variant>
AV-unprocessed.smi:148-2

> <Gold.Version>
5.8.1

> <Gold.Id.Protein>
6NUR|6NUR_protein|mol2

> <Gold.PLP.Fitness>
45.6808

> <Gold.PLP.PLP>
-42.9083

> <Gold.PLP.part.hbond>
-3.5483

> <Gold.PLP.part.metal>
0.0000

> <Gold.PLP.part.buried>
-5.5271

> <Gold.PLP.part.nonpolar>
-32.4515

> <Gold.PLP.part.repulsive>
0.1113

> <Gold.PLP.ligand.clash>
0.0159

> <Gold.PLP.ligand.torsion>
2.1847

> <Gold.PLP.Chemscore.Hbond>
1.2776

> <Gold.PLP.Chemscore.CHOScore>
0.9799

> <Gold.PLP.Chemscore.Metal>
0.0000

> <Gold.Chemscore.Hbonds>
donor molecule, donor type, donor heavy atom, donor atom, acceptor molecule, acceptor atom, score
      P1  H  6931  6943       L1    21  0.99
      P1  H  6934  6947       L1    21  0.29
      L1  C     6    37       P1  8028  0.98

> <Gold.PLP.Chemscore.Internal.Correction>
0.3854

> <Gold.Rescore>
     Score         DG    S(hbond)    S(metal)    S(lipo)     H(rot)  DE(clash)    DE(int)     intcor
      9.23     -12.71       0.96        0.00     107.16       3.32       0.01       3.47       ----

> <Gold.Chemscore.Fitness>
9.2280

> <Gold.Chemscore.DG>
-12.7083

> <Gold.Chemscore.ZeroCoef>
-5.4800

> <Gold.Chemscore.Hbond>
0.9552

> <Gold.Chemscore.Metal>
0.0000

> <Gold.Chemscore.Lipo>
107.1630

> <Gold.Chemscore.Internal_Hbond>
0.0000

> <Gold.Chemscore.DEClash>
0.0121

> <Gold.Chemscore.DEInternal>
3.4682

> <Gold.Chemscore.Rot>
3.3203

> <Gold.Chemscore.Internal.Correction>
   9.000000E+99

> <Gold.Chemscore.Hbonds>
donor molecule, donor type, donor heavy atom, donor atom, acceptor molecule, acceptor atom, score
      P1  H  6931  6943       L1    21  0.74
      P1  H  6934  6947       L1    21  0.01

> <Gold.Chemscore.Hbond.Weighted>
-3.1902

> <Gold.Chemscore.Metal.Weighted>
-0.0000

> <Gold.Chemscore.Lipo.Weighted>
-12.5381

> <Gold.Chemscore.Internal_Hbond.Weighted>
0.0000

> <Gold.Chemscore.DEClash.Weighted>
0.0121

> <Gold.Chemscore.DEInternal.Weighted>
3.4682

> <Gold.Chemscore.Rot.Weighted>
8.5000

> <Gold.Chemscore.Internal.Correction.Weighted>
   9.000000E+99

> <Gold.Protein.RotatedTorsions>
[ 6907 6896 6895 6894 ] final   77.37 input  -60.11 | X-H torsion
[ 7974 7965 7964 7962 ] final  -42.99 input  175.53 | X-H torsion
[ 8008 7997 7996 7995 ] final  133.29 input   59.86 | X-H torsion
[ 10167 10162 10161 10158 ] final    3.58 input  -65.29 | X-H torsion
[ 10718 10713 10712 10709 ] final  -36.09 input   66.30 | X-H torsion
[ 10763 10752 10751 10750 ] final -161.59 input  -60.55 | X-H torsion
[ 11005 11000 10999 10996 ] final  -68.89 input  -57.11 | X-H torsion

> <Gold.Protein.ActiveResidues>
 VAL166  LYS551  ARG553  GLY616  TRP617  ASP618  TYR619  PRO620  LYS621  CYS622 
 ASP623  PHE694  ASN695  SER759  ASP760  ASP761  ALA762  ILE779  LEU786  VAL792 
 PHE793  MET794  SER795  GLU796  ALA797  LYS798  CYS799  TRP800  GLU811  SER814 

> <Gold.Protein.RotatedAtoms>
  152.5115  134.3827  159.9356 H   0  0  0  0  0  0  0  0  0  0  0  0  # atno 6907 bound_to 6896
  151.3784  133.3823  159.2715 H   0  0  0  0  0  0  0  0  0  0  0  0  # atno 6908 bound_to 6896
  150.9523  134.8942  159.7738 H   0  0  0  0  0  0  0  0  0  0  0  0  # atno 6909 bound_to 6896
  146.0062  140.7017  142.9246 H   0  0  0  0  0  0  0  0  0  0  0  0  # atno 7974 bound_to 7965
  156.2991  140.2525  156.3229 H   0  0  0  0  0  0  0  0  0  0  0  0  # atno 8008 bound_to 7997
  154.9218  140.0400  157.2021 H   0  0  0  0  0  0  0  0  0  0  0  0  # atno 8009 bound_to 7997
  154.8303  140.2874  155.5731 H   0  0  0  0  0  0  0  0  0  0  0  0  # atno 8010 bound_to 7997
  140.6579  143.7381  150.7685 H   0  0  0  0  0  0  0  0  0  0  0  0  # atno 10167 bound_to 10162
  156.3309  130.4279  149.7873 H   0  0  0  0  0  0  0  0  0  0  0  0  # atno 10718 bound_to 10713
  154.7290  135.3042  154.8923 H   0  0  0  0  0  0  0  0  0  0  0  0  # atno 10763 bound_to 10752
  153.9772  135.6734  153.4753 H   0  0  0  0  0  0  0  0  0  0  0  0  # atno 10764 bound_to 10752
  153.0901  135.4964  154.8593 H   0  0  0  0  0  0  0  0  0  0  0  0  # atno 10765 bound_to 10752
  141.1542  133.6751  156.6515 H   0  0  0  0  0  0  0  0  0  0  0  0  # atno 11005 bound_to 11000
  144.6936  140.3319  143.7214 LP  0  0  0  0  0  0  0  0  0  0  0  0  # atno 17320 bound_to 7965
  145.7412  139.1765  143.2375 LP  0  0  0  0  0  0  0  0  0  0  0  0  # atno 17321 bound_to 7965
  140.1044  143.4758  152.2407 LP  0  0  0  0  0  0  0  0  0  0  0  0  # atno 17342 bound_to 10162
  139.5805  144.7508  151.3652 LP  0  0  0  0  0  0  0  0  0  0  0  0  # atno 17343 bound_to 10162
  156.5146  130.8187  151.3181 LP  0  0  0  0  0  0  0  0  0  0  0  0  # atno 17370 bound_to 10713
  157.7430  130.9903  150.2560 LP  0  0  0  0  0  0  0  0  0  0  0  0  # atno 17371 bound_to 10713
  140.3317  134.7923  157.4331 LP  0  0  0  0  0  0  0  0  0  0  0  0  # atno 17394 bound_to 11000
  140.1011  134.5471  155.8352 LP  0  0  0  0  0  0  0  0  0  0  0  0  # atno 17395 bound_to 11000

$$$$
