AV-unprocessed.smi:585|AV-procd|sdf|3000|dock3
  -GOLD-   2262023503D 1   1.00000     0.00000
 Structure written by MMmdl.
 38 39  0  0  0  0  0  0  0  0  1 V2000
  145.8063  137.6494  152.4679 C   0  0  0  0  0  0  0  0  0  0  0  0
  146.7959  138.6540  152.6014 O   0  0  0  0  0  0  0  0  0  0  0  0
  146.6266  139.4342  153.7732 C   0  0  0  0  0  0  0  0  0  0  0  0
  147.2708  140.8152  153.5825 C   0  0  0  0  0  0  0  0  0  0  0  0
  148.7277  140.7515  153.5556 N   0  0  0  0  0  0  0  0  0  0  0  0
  149.4743  140.4884  154.7134 C   0  0  0  0  0  0  0  0  0  0  0  0
  148.8508  140.6637  155.9682 C   0  0  0  0  0  0  0  0  0  0  0  0
  149.5906  140.4063  157.1390 C   0  0  0  0  0  0  0  0  0  0  0  0
  150.9260  139.9832  157.0050 C   0  0  0  0  0  0  0  0  0  0  0  0
  151.9110  139.6489  158.4570 S   0  0  0  0  0  0  0  0  0  0  0  0
  151.1440  138.7410  159.3244 O   0  0  0  0  0  0  0  0  0  0  0  0
  153.2836  139.3050  158.0536 O   0  0  0  0  0  0  0  0  0  0  0  0
  151.9545  141.1957  159.2313 N   0  0  0  0  0  0  0  0  0  0  0  0
  153.1544  141.5820  159.9845 C   0  0  0  0  0  0  0  0  0  0  0  0
  153.4955  142.9974  159.5171 C   0  0  0  0  0  0  0  0  0  0  0  0
  152.1440  143.5705  159.1138 C   0  0  0  0  0  0  0  0  0  0  0  0
  151.4161  142.3638  158.5224 C   0  0  0  0  0  0  0  0  0  0  0  0
  151.4705  139.8367  155.7143 C   0  0  0  0  0  0  0  0  0  0  0  0
  150.7634  140.0877  154.5914 N   0  0  0  0  0  0  0  0  0  0  0  0
  145.9760  137.0884  151.5491 H   0  0  0  0  0  0  0  0  0  0  0  0
  144.8066  138.0831  152.4183 H   0  0  0  0  0  0  0  0  0  0  0  0
  145.8433  136.9477  153.3023 H   0  0  0  0  0  0  0  0  0  0  0  0
  145.5592  139.5611  153.9600 H   0  0  0  0  0  0  0  0  0  0  0  0
  147.0496  138.9297  154.6437 H   0  0  0  0  0  0  0  0  0  0  0  0
  146.8723  141.3143  152.6987 H   0  0  0  0  0  0  0  0  0  0  0  0
  147.0015  141.4462  154.4296 H   0  0  0  0  0  0  0  0  0  0  0  0
  149.2028  141.1237  152.7462 H   0  0  0  0  0  0  0  0  0  0  0  0
  147.8228  140.9887  156.0368 H   0  0  0  0  0  0  0  0  0  0  0  0
  149.1424  140.5329  158.1134 H   0  0  0  0  0  0  0  0  0  0  0  0
  152.9207  141.5666  161.0495 H   0  0  0  0  0  0  0  0  0  0  0  0
  153.9784  140.8905  159.8053 H   0  0  0  0  0  0  0  0  0  0  0  0
  153.9943  143.5878  160.2863 H   0  0  0  0  0  0  0  0  0  0  0  0
  154.1526  142.9522  158.6473 H   0  0  0  0  0  0  0  0  0  0  0  0
  151.6139  143.9280  159.9977 H   0  0  0  0  0  0  0  0  0  0  0  0
  152.2276  144.4001  158.4111 H   0  0  0  0  0  0  0  0  0  0  0  0
  151.6374  142.2785  157.4580 H   0  0  0  0  0  0  0  0  0  0  0  0
  150.3342  142.4264  158.6417 H   0  0  0  0  0  0  0  0  0  0  0  0
  152.4930  139.5198  155.5720 H   0  0  0  0  0  0  0  0  0  0  0  0
  1  2  1  0  0  0  0
  1 20  1  0  0  0  0
  1 21  1  0  0  0  0
  1 22  1  0  0  0  0
  2  3  1  0  0  0  0
  3  4  1  0  0  0  0
  3 23  1  0  0  0  0
  3 24  1  0  0  0  0
  4  5  1  0  0  0  0
  4 25  1  0  0  0  0
  4 26  1  0  0  0  0
  5  6  1  0  0  0  0
  5 27  1  0  0  0  0
  6 19  1  0  0  0  0
  6  7  2  0  0  0  0
  7  8  1  0  0  0  0
  7 28  1  0  0  0  0
  8  9  2  0  0  0  0
  8 29  1  0  0  0  0
  9 10  1  0  0  0  0
  9 18  1  0  0  0  0
 10 11  2  0  0  0  0
 10 12  2  0  0  0  0
 10 13  1  0  0  0  0
 13 17  1  0  0  0  0
 13 14  1  0  0  0  0
 14 15  1  0  0  0  0
 14 30  1  0  0  0  0
 14 31  1  0  0  0  0
 15 16  1  0  0  0  0
 15 32  1  0  0  0  0
 15 33  1  0  0  0  0
 16 17  1  0  0  0  0
 16 34  1  0  0  0  0
 16 35  1  0  0  0  0
 17 36  1  0  0  0  0
 17 37  1  0  0  0  0
 18 19  2  0  0  0  0
 18 38  1  0  0  0  0
M  END
> <s_m_source_file>
AV-unprocessed.smi

> <i_m_source_file_index>
585

> <i_lp_mmshare_version>
43012

> <i_f3d_flags>
0

> <s_epik_input>
W0NIM11PW0NIMl1bQ0gyXVtOSF1jMVtjSF1bY0hdYyhbY0hdbjEpUyg9TykoPU8pTjJbQ0gyXVtDSDJdW0NIMl1bQ0gyXTI=

> <s_epik_cmdline>
J2VwaWtfcHl0aG9uJywgJy1waCcsICc3LjAnLCAnLXRuJywgJzgnLCAnLW1hJywgJzIwMCcsICctbWV0YWxfYmluZGluZycsICctaW1hZScsICc8aW5maWxlLm1hZT4nLCAnLW9tYWUnLCAnPG91dGZpbGUubWFlPic=

> <r_lp_tautomer_probability>
1

> <r_epik_Ionization_Penalty>
0.000380006

> <r_epik_Ionization_Penalty_Charging>
0

> <r_epik_Ionization_Penalty_Neutral>
0.000380006

> <r_epik_State_Penalty>
0.000231905

> <r_epik_Charging_Adjusted_Penalty>
0.000231905

> <i_epik_Tot_Q>
0

> <i_epik_Tot_abs_Q>
0

> <r_epik_Metal_State_Penalty>
-0

> <b_epik_Metal_Only>
0

> <s_lp_Force_Field>
OPLS_2005

> <r_lp_Energy>
14.2821

> <b_lp_Chiralities_Consistent>
1

> <s_lp_Variant>
AV-unprocessed.smi:585-1

> <Gold.Version>
5.8.1

> <Gold.Id.Protein>
6NUR|6NUR_protein|mol2

> <Gold.PLP.Fitness>
40.8402

> <Gold.PLP.PLP>
-35.0381

> <Gold.PLP.part.hbond>
-3.3691

> <Gold.PLP.part.metal>
0.0000

> <Gold.PLP.part.buried>
-6.8475

> <Gold.PLP.part.nonpolar>
-27.6322

> <Gold.PLP.part.repulsive>
0.5917

> <Gold.PLP.ligand.clash>
0.0000

> <Gold.PLP.ligand.torsion>
1.9564

> <Gold.PLP.Chemscore.Hbond>
2.3750

> <Gold.PLP.Chemscore.CHOScore>
0.0000

> <Gold.PLP.Chemscore.Metal>
0.0000

> <Gold.Chemscore.Hbonds>
donor molecule, donor type, donor heavy atom, donor atom, acceptor molecule, acceptor atom, score
      L1  H     5    27       P1  7957  0.48
      P1  H  7989  7998       L1    19  1.00
      P1  H  7997  8009       L1    12  1.00

> <Gold.PLP.Chemscore.Internal.Correction>
2.5899

> <Gold.Rescore>
     Score         DG    S(hbond)    S(metal)    S(lipo)     H(rot)  DE(clash)    DE(int)     intcor
     17.16     -19.20       2.53        0.00      80.23       1.61       0.04       2.00       ----

> <Gold.Chemscore.Fitness>
17.1620

> <Gold.Chemscore.DG>
-19.2034

> <Gold.Chemscore.ZeroCoef>
-5.4800

> <Gold.Chemscore.Hbond>
2.5299

> <Gold.Chemscore.Metal>
0.0000

> <Gold.Chemscore.Lipo>
80.2319

> <Gold.Chemscore.Internal_Hbond>
0.0000

> <Gold.Chemscore.DEClash>
0.0437

> <Gold.Chemscore.DEInternal>
1.9977

> <Gold.Chemscore.Rot>
1.6068

> <Gold.Chemscore.Internal.Correction>
   9.000000E+99

> <Gold.Chemscore.Hbonds>
donor molecule, donor type, donor heavy atom, donor atom, acceptor molecule, acceptor atom, score
      L1  H     5    27       P1  7957  0.47
      P1  H  7989  7998       L1    19  0.73
      P1  H  7997  8009       L1    12  1.00

> <Gold.Chemscore.Hbond.Weighted>
-8.4497

> <Gold.Chemscore.Metal.Weighted>
-0.0000

> <Gold.Chemscore.Lipo.Weighted>
-9.3871

> <Gold.Chemscore.Internal_Hbond.Weighted>
0.0000

> <Gold.Chemscore.DEClash.Weighted>
0.0437

> <Gold.Chemscore.DEInternal.Weighted>
1.9977

> <Gold.Chemscore.Rot.Weighted>
4.1135

> <Gold.Chemscore.Internal.Correction.Weighted>
   9.000000E+99

> <Gold.Protein.RotatedTorsions>
[ 6907 6896 6895 6894 ] final    1.07 input  -60.11 | X-H torsion
[ 7974 7965 7964 7962 ] final  168.11 input  175.53 | X-H torsion
[ 8008 7997 7996 7995 ] final  150.05 input   59.86 | X-H torsion
[ 10167 10162 10161 10158 ] final   79.03 input  -65.29 | X-H torsion
[ 10718 10713 10712 10709 ] final  -62.17 input   66.30 | X-H torsion
[ 10763 10752 10751 10750 ] final  -44.48 input  -60.55 | X-H torsion
[ 11005 11000 10999 10996 ] final   20.03 input  -57.11 | X-H torsion

> <Gold.Protein.ActiveResidues>
 VAL166  LYS551  ARG553  GLY616  TRP617  ASP618  TYR619  PRO620  LYS621  CYS622 
 ASP623  PHE694  ASN695  SER759  ASP760  ASP761  ALA762  ILE779  LEU786  VAL792 
 PHE793  MET794  SER795  GLU796  ALA797  LYS798  CYS799  TRP800  GLU811  SER814 

> <Gold.Protein.RotatedAtoms>
  151.5867  135.1055  160.0029 H   0  0  0  0  0  0  0  0  0  0  0  0  # atno 6907 bound_to 6896
  152.4327  133.7301  159.6593 H   0  0  0  0  0  0  0  0  0  0  0  0  # atno 6908 bound_to 6896
  150.8221  133.8165  159.3157 H   0  0  0  0  0  0  0  0  0  0  0  0  # atno 6909 bound_to 6896
  144.7400  139.8859  143.6399 H   0  0  0  0  0  0  0  0  0  0  0  0  # atno 7974 bound_to 7965
  156.2731  140.2085  156.5956 H   0  0  0  0  0  0  0  0  0  0  0  0  # atno 8008 bound_to 7997
  154.6947  140.0527  157.0422 H   0  0  0  0  0  0  0  0  0  0  0  0  # atno 8009 bound_to 7997
  155.0817  140.3187  155.4602 H   0  0  0  0  0  0  0  0  0  0  0  0  # atno 8010 bound_to 7997
  139.9646  144.5937  150.8040 H   0  0  0  0  0  0  0  0  0  0  0  0  # atno 10167 bound_to 10162
  156.0873  130.4206  150.1097 H   0  0  0  0  0  0  0  0  0  0  0  0  # atno 10718 bound_to 10713
  154.0127  135.6679  153.4766 H   0  0  0  0  0  0  0  0  0  0  0  0  # atno 10763 bound_to 10752
  153.0614  135.5026  154.8097 H   0  0  0  0  0  0  0  0  0  0  0  0  # atno 10764 bound_to 10752
  154.6985  135.3074  154.9339 H   0  0  0  0  0  0  0  0  0  0  0  0  # atno 10765 bound_to 10752
  140.4071  134.1657  155.7666 H   0  0  0  0  0  0  0  0  0  0  0  0  # atno 11005 bound_to 11000
  146.1177  139.4190  143.0248 LP  0  0  0  0  0  0  0  0  0  0  0  0  # atno 17320 bound_to 7965
  145.7351  141.0028  143.1331 LP  0  0  0  0  0  0  0  0  0  0  0  0  # atno 17321 bound_to 7965
  140.7542  143.3022  151.3051 LP  0  0  0  0  0  0  0  0  0  0  0  0  # atno 17342 bound_to 10162
  139.6527  144.0332  152.2638 LP  0  0  0  0  0  0  0  0  0  0  0  0  # atno 17343 bound_to 10162
  156.9115  130.9653  151.3562 LP  0  0  0  0  0  0  0  0  0  0  0  0  # atno 17370 bound_to 10713
  157.6012  130.8513  149.8804 LP  0  0  0  0  0  0  0  0  0  0  0  0  # atno 17371 bound_to 10713
  141.1835  133.8363  157.1172 LP  0  0  0  0  0  0  0  0  0  0  0  0  # atno 17394 bound_to 11000
  140.0294  134.9908  157.0751 LP  0  0  0  0  0  0  0  0  0  0  0  0  # atno 17395 bound_to 11000

$$$$
