AV-unprocessed.smi:3056|AV-procd|sdf|11646|dock3
  -GOLD-   2272017 43D 1   1.00000     0.00000
 Structure written by MMmdl.
 48 49  0  0  0  0  0  0  0  0  2 V2000
  152.3364  140.9633  158.4725 C   0  0  0  0  0  0  0  0  0  0  0  0
  151.5521  140.8208  157.2006 C   0  0  0  0  0  0  0  0  0  0  0  0
  150.7318  141.7951  156.5652 C   0  0  0  0  0  0  0  0  0  0  0  0
  150.1599  141.3434  155.4611 N   0  0  0  0  0  0  0  0  0  0  0  0
  150.6039  140.0734  155.3409 N   0  0  0  0  0  0  0  0  0  0  0  0
  150.1263  139.2454  154.2386 C   0  0  1  0  0  0  0  0  0  0  0  0
  150.8783  137.9003  154.2302 C   0  0  0  0  0  0  0  0  0  0  0  0
  148.5827  139.0946  154.2952 C   0  0  2  0  0  0  0  0  0  0  0  0
  148.1162  138.2440  155.4924 C   0  0  0  0  0  0  0  0  0  0  0  0
  148.0882  138.4915  153.0317 N   0  3  0  0  0  0  0  0  0  0  0  0
  146.6281  138.2498  152.9540 C   0  0  0  0  0  0  0  0  0  0  0  0
  146.2118  137.3907  151.7473 C   0  0  0  0  0  0  0  0  0  0  0  0
  146.5024  137.7771  150.6145 O   0  0  0  0  0  0  0  0  0  0  0  0
  145.5432  136.2327  151.9634 N   0  0  0  0  0  0  0  0  0  0  0  0
  145.2258  135.6485  153.2707 C   0  0  0  0  0  0  0  0  0  0  0  0
  145.9456  134.2932  153.3859 C   0  0  0  0  0  0  0  0  0  0  0  0
  145.5505  133.4457  152.3104 O   0  0  0  0  0  0  0  0  0  0  0  0
  145.8372  133.9942  151.0254 C   0  0  1  0  0  0  0  0  0  0  0  0
  145.3967  132.9819  149.9625 C   0  0  0  0  0  0  0  0  0  0  0  0
  145.1076  135.3447  150.8812 C   0  0  0  0  0  0  0  0  0  0  0  0
  151.4408  139.7311  156.3848 C   0  0  0  0  0  0  0  0  0  0  0  0
  152.5539  142.0073  158.6992 H   0  0  0  0  0  0  0  0  0  0  0  0
  153.2916  140.4409  158.4191 H   0  0  0  0  0  0  0  0  0  0  0  0
  151.7932  140.5555  159.3252 H   0  0  0  0  0  0  0  0  0  0  0  0
  150.5289  142.8089  156.8777 H   0  0  0  0  0  0  0  0  0  0  0  0
  150.3846  139.7582  153.3098 H   0  0  0  0  0  0  0  0  0  0  0  0
  150.6894  137.3394  153.3153 H   0  0  0  0  0  0  0  0  0  0  0  0
  150.5885  137.2716  155.0726 H   0  0  0  0  0  0  0  0  0  0  0  0
  151.9564  138.0558  154.2869 H   0  0  0  0  0  0  0  0  0  0  0  0
  148.1531  140.0927  154.3947 H   0  0  0  0  0  0  0  0  0  0  0  0
  148.3710  138.7129  156.4424 H   0  0  0  0  0  0  0  0  0  0  0  0
  148.5726  137.2538  155.4759 H   0  0  0  0  0  0  0  0  0  0  0  0
  147.0352  138.1076  155.4963 H   0  0  0  0  0  0  0  0  0  0  0  0
  148.3287  139.1140  152.2723 H   0  0  0  0  0  0  0  0  0  0  0  0
  146.3364  137.7188  153.8605 H   0  0  0  0  0  0  0  0  0  0  0  0
  146.0934  139.1993  152.9479 H   0  0  0  0  0  0  0  0  0  0  0  0
  145.5061  136.2742  154.1160 H   0  0  0  0  0  0  0  0  0  0  0  0
  144.1468  135.5067  153.3471 H   0  0  0  0  0  0  0  0  0  0  0  0
  147.0288  134.4254  153.3778 H   0  0  0  0  0  0  0  0  0  0  0  0
  145.6898  133.8086  154.3283 H   0  0  0  0  0  0  0  0  0  0  0  0
  146.9144  134.1468  150.9367 H   0  0  0  0  0  0  0  0  0  0  0  0
  145.6117  133.3488  148.9585 H   0  0  0  0  0  0  0  0  0  0  0  0
  144.3263  132.7835  150.0252 H   0  0  0  0  0  0  0  0  0  0  0  0
  145.9192  132.0333  150.0876 H   0  0  0  0  0  0  0  0  0  0  0  0
  144.0279  135.2024  150.9483 H   0  0  0  0  0  0  0  0  0  0  0  0
  145.2951  135.7609  149.8904 H   0  0  0  0  0  0  0  0  0  0  0  0
  151.8771  138.7467  156.4686 H   0  0  0  0  0  0  0  0  0  0  0  0
  148.5754  137.6180  152.8920 H   0  0  0  0  0  0  0  0  0  0  0  0
  1  2  1  0  0  0  0
  1 22  1  0  0  0  0
  1 23  1  0  0  0  0
  1 24  1  0  0  0  0
  2 21  2  0  0  0  0
  2  3  1  0  0  0  0
  3  4  2  0  0  0  0
  3 25  1  0  0  0  0
  4  5  1  0  0  0  0
  5  6  1  0  0  0  0
  5 21  1  0  0  0  0
  6  7  1  0  0  0  0
  6  8  1  0  0  0  0
  6 26  1  0  0  0  0
  7 27  1  0  0  0  0
  7 28  1  0  0  0  0
  7 29  1  0  0  0  0
  8  9  1  0  0  0  0
  8 10  1  0  0  0  0
  8 30  1  0  0  0  0
  9 31  1  0  0  0  0
  9 32  1  0  0  0  0
  9 33  1  0  0  0  0
 10 11  1  0  0  0  0
 10 34  1  0  0  0  0
 10 48  1  0  0  0  0
 11 12  1  0  0  0  0
 11 35  1  0  0  0  0
 11 36  1  0  0  0  0
 12 13  2  0  0  0  0
 12 14  1  0  0  0  0
 14 20  1  0  0  0  0
 14 15  1  0  0  0  0
 15 16  1  0  0  0  0
 15 37  1  0  0  0  0
 15 38  1  0  0  0  0
 16 17  1  0  0  0  0
 16 39  1  0  0  0  0
 16 40  1  0  0  0  0
 17 18  1  0  0  0  0
 18 19  1  0  0  0  0
 18 20  1  0  0  0  0
 18 41  1  0  0  0  0
 19 42  1  0  0  0  0
 19 43  1  0  0  0  0
 19 44  1  0  0  0  0
 20 45  1  0  0  0  0
 20 46  1  0  0  0  0
 21 47  1  0  0  0  0
M  CHG  1  10   1
M  END
> <s_m_source_file>
AV-unprocessed.smi

> <i_m_source_file_index>
3056

> <i_lp_mmshare_version>
43012

> <i_f3d_flags>
0

> <s_epik_input>
W0NIM11jMVtjSF1ubihbY0hdMSlbQ0BIXShbQ0gzXSlbQ0BIXShbQ0gzXSlbTkhdW0NIMl1DKD1PKU4yW0NIMl1bQ0gyXU9bQ0BASF0oW0NIM10pW0NIMl0y

> <s_epik_cmdline>
J2VwaWtfcHl0aG9uJywgJy1waCcsICc3LjAnLCAnLXRuJywgJzgnLCAnLW1hJywgJzIwMCcsICctbWV0YWxfYmluZGluZycsICctaW1hZScsICc8aW5maWxlLm1hZT4nLCAnLW9tYWUnLCAnPG91dGZpbGUubWFlPic=

> <r_lp_tautomer_probability>
1

> <r_epik_Ionization_Penalty>
0.233715

> <r_epik_Ionization_Penalty_Charging>
0.233698

> <r_epik_Ionization_Penalty_Neutral>
1.68157e-05

> <r_epik_State_Penalty>
0.225221

> <r_epik_Charging_Adjusted_Penalty>
0.458919

> <i_epik_Tot_Q>
1

> <i_epik_Tot_abs_Q>
1

> <r_epik_Metal_State_Penalty>
0.225535

> <b_epik_Metal_Only>
0

> <s_lp_Force_Field>
OPLS_2005

> <r_lp_Energy>
27.0437

> <b_lp_Chiralities_Consistent>
1

> <s_lp_Variant>
AV-unprocessed.smi:3056-2

> <Gold.Version>
5.8.1

> <Gold.Id.Protein>
6NUR|6NUR_protein|mol2

> <Gold.PLP.Fitness>
49.3912

> <Gold.PLP.PLP>
-34.7075

> <Gold.PLP.part.hbond>
-3.7684

> <Gold.PLP.part.metal>
0.0000

> <Gold.PLP.part.buried>
-0.4352

> <Gold.PLP.part.nonpolar>
-33.1129

> <Gold.PLP.part.repulsive>
2.4486

> <Gold.PLP.ligand.clash>
0.0000

> <Gold.PLP.ligand.torsion>
0.1801

> <Gold.PLP.Chemscore.Hbond>
3.9600

> <Gold.PLP.Chemscore.CHOScore>
1.0000

> <Gold.PLP.Chemscore.Metal>
0.0000

> <Gold.Chemscore.Hbonds>
donor molecule, donor type, donor heavy atom, donor atom, acceptor molecule, acceptor atom, score
      L1  H    10    34       P1  7957  1.00
      L1  H    10    48       P1  7948  1.98
      P1  H  7954  7966       L1    13  1.00
      L1  C     3    25       P1  8028  0.34

> <Gold.PLP.Chemscore.Internal.Correction>
0.1639

> <Gold.Rescore>
     Score         DG    S(hbond)    S(metal)    S(lipo)     H(rot)  DE(clash)    DE(int)     intcor
     18.45     -19.98       2.89        0.00      79.46       1.74       1.34       0.19       ----

> <Gold.Chemscore.Fitness>
18.4451

> <Gold.Chemscore.DG>
-19.9751

> <Gold.Chemscore.ZeroCoef>
-5.4800

> <Gold.Chemscore.Hbond>
2.8864

> <Gold.Chemscore.Metal>
0.0000

> <Gold.Chemscore.Lipo>
79.4616

> <Gold.Chemscore.Internal_Hbond>
0.0000

> <Gold.Chemscore.DEClash>
1.3368

> <Gold.Chemscore.DEInternal>
0.1932

> <Gold.Chemscore.Rot>
1.7354

> <Gold.Chemscore.Internal.Correction>
   9.000000E+99

> <Gold.Chemscore.Hbonds>
donor molecule, donor type, donor heavy atom, donor atom, acceptor molecule, acceptor atom, score
      L1  H    10    34       P1  7957  0.97
      L1  H    10    48       P1  7948  0.93
      P1  H  7954  7966       L1    13  0.95

> <Gold.Chemscore.Hbond.Weighted>
-9.6406

> <Gold.Chemscore.Metal.Weighted>
-0.0000

> <Gold.Chemscore.Lipo.Weighted>
-9.2970

> <Gold.Chemscore.Internal_Hbond.Weighted>
0.0000

> <Gold.Chemscore.DEClash.Weighted>
1.3368

> <Gold.Chemscore.DEInternal.Weighted>
0.1932

> <Gold.Chemscore.Rot.Weighted>
4.4426

> <Gold.Chemscore.Internal.Correction.Weighted>
   9.000000E+99

> <Gold.Protein.RotatedTorsions>
[ 6907 6896 6895 6894 ] final -111.09 input  -60.11 | X-H torsion
[ 7974 7965 7964 7962 ] final  -20.29 input  175.53 | X-H torsion
[ 8008 7997 7996 7995 ] final  -15.54 input   59.86 | X-H torsion
[ 10167 10162 10161 10158 ] final  102.28 input  -65.29 | X-H torsion
[ 10718 10713 10712 10709 ] final -158.16 input   66.30 | X-H torsion
[ 10763 10752 10751 10750 ] final    4.66 input  -60.55 | X-H torsion
[ 11005 11000 10999 10996 ] final  150.47 input  -57.11 | X-H torsion

> <Gold.Protein.ActiveResidues>
 VAL166  LYS551  ARG553  GLY616  TRP617  ASP618  TYR619  PRO620  LYS621  CYS622 
 ASP623  PHE694  ASN695  SER759  ASP760  ASP761  ALA762  ILE779  LEU786  VAL792 
 PHE793  MET794  SER795  GLU796  ALA797  LYS798  CYS799  TRP800  GLU811  SER814 

> <Gold.Protein.RotatedAtoms>
  150.7667  133.9287  159.3419 H   0  0  0  0  0  0  0  0  0  0  0  0  # atno 6907 bound_to 6896
  151.7183  135.0897  160.0289 H   0  0  0  0  0  0  0  0  0  0  0  0  # atno 6908 bound_to 6896
  152.3666  133.6327  159.6091 H   0  0  0  0  0  0  0  0  0  0  0  0  # atno 6909 bound_to 6896
  146.1796  140.4181  142.8500 H   0  0  0  0  0  0  0  0  0  0  0  0  # atno 7974 bound_to 7965
  154.5122  140.2193  155.9134 H   0  0  0  0  0  0  0  0  0  0  0  0  # atno 8008 bound_to 7997
  156.1566  140.3151  155.8702 H   0  0  0  0  0  0  0  0  0  0  0  0  # atno 8009 bound_to 7997
  155.3834  140.0474  157.3033 H   0  0  0  0  0  0  0  0  0  0  0  0  # atno 8010 bound_to 7997
  139.7363  144.7023  151.0643 H   0  0  0  0  0  0  0  0  0  0  0  0  # atno 10167 bound_to 10162
  156.5503  130.8602  151.2777 H   0  0  0  0  0  0  0  0  0  0  0  0  # atno 10718 bound_to 10713
  153.2687  135.6930  153.7503 H   0  0  0  0  0  0  0  0  0  0  0  0  # atno 10763 bound_to 10752
  153.6535  135.3372  155.3107 H   0  0  0  0  0  0  0  0  0  0  0  0  # atno 10764 bound_to 10752
  154.8456  135.4460  154.1702 H   0  0  0  0  0  0  0  0  0  0  0  0  # atno 10765 bound_to 10752
  140.1134  134.8909  157.1969 H   0  0  0  0  0  0  0  0  0  0  0  0  # atno 11005 bound_to 11000
  144.8293  140.6680  143.6301 LP  0  0  0  0  0  0  0  0  0  0  0  0  # atno 17320 bound_to 7965
  145.4113  139.1579  143.4124 LP  0  0  0  0  0  0  0  0  0  0  0  0  # atno 17321 bound_to 7965
  140.7779  143.4979  150.9808 LP  0  0  0  0  0  0  0  0  0  0  0  0  # atno 17342 bound_to 10162
  139.8668  143.7244  152.3169 LP  0  0  0  0  0  0  0  0  0  0  0  0  # atno 17343 bound_to 10162
  157.7389  130.9821  150.2279 LP  0  0  0  0  0  0  0  0  0  0  0  0  # atno 17370 bound_to 10713
  156.2891  130.3743  149.7859 LP  0  0  0  0  0  0  0  0  0  0  0  0  # atno 17371 bound_to 10713
  140.3060  134.3077  155.7278 LP  0  0  0  0  0  0  0  0  0  0  0  0  # atno 17394 bound_to 11000
  141.2135  133.7621  156.9709 LP  0  0  0  0  0  0  0  0  0  0  0  0  # atno 17395 bound_to 11000

$$$$
