AV-unprocessed.smi:648|AV-procd|sdf|3173|dock7
  -GOLD-   22720 0 93D 1   1.00000     0.00000
 Structure written by MMmdl.
 46 47  0  0  0  0  0  0  0  0  2 V2000
  142.1771  135.7754  153.9343 C   0  0  0  0  0  0  0  0  0  0  0  0
  143.5586  135.5785  153.2947 C   0  0  1  0  0  0  0  0  0  0  0  0
  143.5116  134.5229  152.1744 C   0  0  0  0  0  0  0  0  0  0  0  0
  144.8822  134.2732  151.5014 C   0  0  0  0  0  0  0  0  0  0  0  0
  145.8057  133.4509  152.4299 C   0  0  0  0  0  0  0  0  0  0  0  0
  144.6563  133.4244  150.2330 C   0  0  0  0  0  0  0  0  0  0  0  0
  145.5203  135.6281  151.0720 C   0  0  0  0  0  0  0  0  0  0  0  0
  145.5368  136.7633  152.1383 C   0  0  2  0  0  0  0  0  0  0  0  0
  145.9903  138.0971  151.4803 C   0  0  0  0  0  0  0  0  0  0  0  0
  147.3735  138.1287  151.1904 O   0  0  0  0  0  0  0  0  0  0  0  0
  146.5218  136.3884  153.1884 N   0  3  0  0  0  0  0  0  0  0  0  0
  146.8442  137.3749  154.2463 C   0  0  0  0  0  0  0  0  0  0  0  0
  148.2041  137.0594  154.8899 C   0  0  0  0  0  0  0  0  0  0  0  0
  149.1234  138.1805  154.8009 N   0  0  0  0  0  0  0  0  0  0  0  0
  150.2779  138.3081  154.1442 C   0  0  0  0  0  0  0  0  0  0  0  0
  150.8572  139.4892  154.3057 N   0  0  0  0  0  0  0  0  0  0  0  0
  149.9338  140.0894  155.1142 C   0  0  0  0  0  0  0  0  0  0  0  0
  148.8743  139.3483  155.4391 N   0  0  0  0  0  0  0  0  0  0  0  0
  144.1144  136.9052  152.7443 C   0  0  0  0  0  0  0  0  0  0  0  0
  141.4488  136.1363  153.2075 H   0  0  0  0  0  0  0  0  0  0  0  0
  142.2214  136.4985  154.7494 H   0  0  0  0  0  0  0  0  0  0  0  0
  141.7993  134.8396  154.3475 H   0  0  0  0  0  0  0  0  0  0  0  0
  144.2176  135.2223  154.0851 H   0  0  0  0  0  0  0  0  0  0  0  0
  143.1165  133.5845  152.5668 H   0  0  0  0  0  0  0  0  0  0  0  0
  142.7950  134.8535  151.4207 H   0  0  0  0  0  0  0  0  0  0  0  0
  146.7953  133.3224  151.9906 H   0  0  0  0  0  0  0  0  0  0  0  0
  145.3980  132.4541  152.6030 H   0  0  0  0  0  0  0  0  0  0  0  0
  145.9379  133.8983  153.4119 H   0  0  0  0  0  0  0  0  0  0  0  0
  145.5961  133.2194  149.7191 H   0  0  0  0  0  0  0  0  0  0  0  0
  143.9992  133.9272  149.5221 H   0  0  0  0  0  0  0  0  0  0  0  0
  144.1974  132.4642  150.4719 H   0  0  0  0  0  0  0  0  0  0  0  0
  146.5304  135.4583  150.6953 H   0  0  0  0  0  0  0  0  0  0  0  0
  144.9551  135.9826  150.2094 H   0  0  0  0  0  0  0  0  0  0  0  0
  145.4656  138.2704  150.5406 H   0  0  0  0  0  0  0  0  0  0  0  0
  145.7605  138.9410  152.1319 H   0  0  0  0  0  0  0  0  0  0  0  0
  147.8167  137.5166  151.7585 H   0  0  0  0  0  0  0  0  0  0  0  0
  146.1528  135.5662  153.6442 H   0  0  0  0  0  0  0  0  0  0  0  0
  146.8692  138.3716  153.8055 H   0  0  0  0  0  0  0  0  0  0  0  0
  146.0807  137.3974  155.0217 H   0  0  0  0  0  0  0  0  0  0  0  0
  148.0781  136.7887  155.9391 H   0  0  0  0  0  0  0  0  0  0  0  0
  148.6632  136.2022  154.3959 H   0  0  0  0  0  0  0  0  0  0  0  0
  150.7101  137.5189  153.5463 H   0  0  0  0  0  0  0  0  0  0  0  0
  150.0473  141.1004  155.4772 H   0  0  0  0  0  0  0  0  0  0  0  0
  143.4285  137.2636  151.9756 H   0  0  0  0  0  0  0  0  0  0  0  0
  144.0887  137.6692  153.5200 H   0  0  0  0  0  0  0  0  0  0  0  0
  147.3860  136.1309  152.7337 H   0  0  0  0  0  0  0  0  0  0  0  0
  1  2  1  0  0  0  0
  1 20  1  0  0  0  0
  1 21  1  0  0  0  0
  1 22  1  0  0  0  0
  2 19  1  0  0  0  0
  2  3  1  0  0  0  0
  2 23  1  0  0  0  0
  3  4  1  0  0  0  0
  3 24  1  0  0  0  0
  3 25  1  0  0  0  0
  4  5  1  0  0  0  0
  4  6  1  0  0  0  0
  4  7  1  0  0  0  0
  5 26  1  0  0  0  0
  5 27  1  0  0  0  0
  5 28  1  0  0  0  0
  6 29  1  0  0  0  0
  6 30  1  0  0  0  0
  6 31  1  0  0  0  0
  7  8  1  0  0  0  0
  7 32  1  0  0  0  0
  7 33  1  0  0  0  0
  8  9  1  0  0  0  0
  8 11  1  0  0  0  0
  8 19  1  0  0  0  0
  9 10  1  0  0  0  0
  9 34  1  0  0  0  0
  9 35  1  0  0  0  0
 10 36  1  0  0  0  0
 11 12  1  0  0  0  0
 11 37  1  0  0  0  0
 11 46  1  0  0  0  0
 12 13  1  0  0  0  0
 12 38  1  0  0  0  0
 12 39  1  0  0  0  0
 13 14  1  0  0  0  0
 13 40  1  0  0  0  0
 13 41  1  0  0  0  0
 14 18  1  0  0  0  0
 14 15  1  0  0  0  0
 15 16  2  0  0  0  0
 15 42  1  0  0  0  0
 16 17  1  0  0  0  0
 17 18  2  0  0  0  0
 17 43  1  0  0  0  0
 19 44  1  0  0  0  0
 19 45  1  0  0  0  0
M  CHG  1  11   1
M  END
> <s_m_source_file>
AV-unprocessed.smi

> <i_m_source_file_index>
648

> <i_lp_mmshare_version>
43012

> <i_f3d_flags>
0

> <s_epik_input>
W0NIM11DMShbQ0gzXSlbQ0gyXVtDQEBIXShbQ0gzXSlbQ0gyXVtDQF0oW0NIMl0xKShbQ0gyXVtPSF0pW05IXVtDSDJdW0NIMl1uMltjSF1uW2NIXW4y

> <s_epik_cmdline>
J2VwaWtfcHl0aG9uJywgJy1waCcsICc3LjAnLCAnLXRuJywgJzgnLCAnLW1hJywgJzIwMCcsICctbWV0YWxfYmluZGluZycsICctaW1hZScsICc8aW5maWxlLm1hZT4nLCAnLW9tYWUnLCAnPG91dGZpbGUubWFlPic=

> <r_lp_tautomer_probability>
1

> <r_epik_Ionization_Penalty>
0.00942316

> <r_epik_Ionization_Penalty_Charging>
0.00942185

> <r_epik_Ionization_Penalty_Neutral>
1.31257e-06

> <r_epik_State_Penalty>
0.00715409

> <r_epik_Charging_Adjusted_Penalty>
0.0165759

> <i_epik_Tot_Q>
1

> <i_epik_Tot_abs_Q>
1

> <r_epik_Metal_State_Penalty>
0.00715563

> <b_epik_Metal_Only>
0

> <s_lp_Force_Field>
OPLS_2005

> <r_lp_Energy>
29.0097

> <b_lp_Chiralities_Consistent>
1

> <s_lp_Variant>
AV-unprocessed.smi:648-4

> <Gold.Version>
5.8.1

> <Gold.Id.Protein>
6NUR|6NUR_protein|mol2

> <Gold.PLP.Fitness>
47.5986

> <Gold.PLP.PLP>
-31.2303

> <Gold.PLP.part.hbond>
-4.7893

> <Gold.PLP.part.metal>
0.0000

> <Gold.PLP.part.buried>
-1.2594

> <Gold.PLP.part.nonpolar>
-25.7627

> <Gold.PLP.part.repulsive>
0.1928

> <Gold.PLP.ligand.clash>
0.0000

> <Gold.PLP.ligand.torsion>
0.6935

> <Gold.PLP.Chemscore.Hbond>
4.8960

> <Gold.PLP.Chemscore.CHOScore>
1.0135

> <Gold.PLP.Chemscore.Metal>
0.0000

> <Gold.Chemscore.Hbonds>
donor molecule, donor type, donor heavy atom, donor atom, acceptor molecule, acceptor atom, score
      L1  H    10    36       P1  7948  0.88
      L1  H    11    46       P1  7948  2.00
      P1  H  7954  7966       L1    10  0.95
      P1  H  7989  7998       L1    16  1.00
      L1  C    15    42       P1  7948  0.23
      L1  C    15    42       P1  7949  0.64

> <Gold.PLP.Chemscore.Internal.Correction>
0.0268

> <Gold.Rescore>
     Score         DG    S(hbond)    S(metal)    S(lipo)     H(rot)  DE(clash)    DE(int)     intcor
     13.96     -15.51       3.41        0.00      57.73       3.17       0.79       0.76       ----

> <Gold.Chemscore.Fitness>
13.9622

> <Gold.Chemscore.DG>
-15.5110

> <Gold.Chemscore.ZeroCoef>
-5.4800

> <Gold.Chemscore.Hbond>
3.4145

> <Gold.Chemscore.Metal>
0.0000

> <Gold.Chemscore.Lipo>
57.7311

> <Gold.Chemscore.Internal_Hbond>
0.0000

> <Gold.Chemscore.DEClash>
0.7876

> <Gold.Chemscore.DEInternal>
0.7611

> <Gold.Chemscore.Rot>
3.1750

> <Gold.Chemscore.Internal.Correction>
   9.000000E+99

> <Gold.Chemscore.Hbonds>
donor molecule, donor type, donor heavy atom, donor atom, acceptor molecule, acceptor atom, score
      L1  H    10    36       P1  7948  0.86
      L1  H    11    46       P1  7948  1.00
      P1  H  7954  7966       L1    10  0.20
      P1  H  7989  7998       L1    16  0.45

> <Gold.Chemscore.Hbond.Weighted>
-11.4044

> <Gold.Chemscore.Metal.Weighted>
-0.0000

> <Gold.Chemscore.Lipo.Weighted>
-6.7545

> <Gold.Chemscore.Internal_Hbond.Weighted>
0.0000

> <Gold.Chemscore.DEClash.Weighted>
0.7876

> <Gold.Chemscore.DEInternal.Weighted>
0.7611

> <Gold.Chemscore.Rot.Weighted>
8.1279

> <Gold.Chemscore.Internal.Correction.Weighted>
   9.000000E+99

> <Gold.Protein.RotatedTorsions>
[ 6907 6896 6895 6894 ] final   23.48 input  -60.11 | X-H torsion
[ 7974 7965 7964 7962 ] final  -47.63 input  175.53 | X-H torsion
[ 8008 7997 7996 7995 ] final   66.97 input   59.86 | X-H torsion
[ 10167 10162 10161 10158 ] final  137.77 input  -65.29 | X-H torsion
[ 10718 10713 10712 10709 ] final   84.55 input   66.30 | X-H torsion
[ 10763 10752 10751 10750 ] final -172.08 input  -60.55 | X-H torsion
[ 11005 11000 10999 10996 ] final  -61.52 input  -57.11 | X-H torsion

> <Gold.Protein.ActiveResidues>
 VAL166  LYS551  ARG553  GLY616  TRP617  ASP618  TYR619  PRO620  LYS621  CYS622 
 ASP623  PHE694  ASN695  SER759  ASP760  ASP761  ALA762  ILE779  LEU786  VAL792 
 PHE793  MET794  SER795  GLU796  ALA797  LYS798  CYS799  TRP800  GLU811  SER814 

> <Gold.Protein.RotatedAtoms>
  151.9430  135.0205  160.0536 H   0  0  0  0  0  0  0  0  0  0  0  0  # atno 6907 bound_to 6896
  152.2020  133.4843  159.5072 H   0  0  0  0  0  0  0  0  0  0  0  0  # atno 6908 bound_to 6896
  150.6957  134.1495  159.4178 H   0  0  0  0  0  0  0  0  0  0  0  0  # atno 6909 bound_to 6896
  145.9596  140.7492  142.9464 H   0  0  0  0  0  0  0  0  0  0  0  0  # atno 7974 bound_to 7965
  155.6857  140.3496  155.4873 H   0  0  0  0  0  0  0  0  0  0  0  0  # atno 8008 bound_to 7997
  155.9568  140.1130  157.0952 H   0  0  0  0  0  0  0  0  0  0  0  0  # atno 8009 bound_to 7997
  154.4134  140.1183  156.5112 H   0  0  0  0  0  0  0  0  0  0  0  0  # atno 8010 bound_to 7997
  139.5133  144.6391  151.5617 H   0  0  0  0  0  0  0  0  0  0  0  0  # atno 10167 bound_to 10162
  157.6900  131.0138  150.2689 H   0  0  0  0  0  0  0  0  0  0  0  0  # atno 10718 bound_to 10713
  154.6233  135.2878  155.0301 H   0  0  0  0  0  0  0  0  0  0  0  0  # atno 10763 bound_to 10752
  154.1488  135.6507  153.4962 H   0  0  0  0  0  0  0  0  0  0  0  0  # atno 10764 bound_to 10752
  153.0246  135.5350  154.7032 H   0  0  0  0  0  0  0  0  0  0  0  0  # atno 10765 bound_to 10752
  141.1327  133.6631  156.5388 H   0  0  0  0  0  0  0  0  0  0  0  0  # atno 11005 bound_to 11000
  144.6812  140.2569  143.7324 LP  0  0  0  0  0  0  0  0  0  0  0  0  # atno 17320 bound_to 7965
  145.8058  139.1983  143.2021 LP  0  0  0  0  0  0  0  0  0  0  0  0  # atno 17321 bound_to 7965
  140.6151  143.9364  150.6482 LP  0  0  0  0  0  0  0  0  0  0  0  0  # atno 17342 bound_to 10162
  140.2619  143.3518  152.1315 LP  0  0  0  0  0  0  0  0  0  0  0  0  # atno 17343 bound_to 10162
  156.3255  130.3792  149.7537 LP  0  0  0  0  0  0  0  0  0  0  0  0  # atno 17370 bound_to 10713
  156.5093  130.8165  151.3163 LP  0  0  0  0  0  0  0  0  0  0  0  0  # atno 17371 bound_to 10713
  140.4156  134.7233  157.4861 LP  0  0  0  0  0  0  0  0  0  0  0  0  # atno 17394 bound_to 11000
  140.0396  134.6287  155.8998 LP  0  0  0  0  0  0  0  0  0  0  0  0  # atno 17395 bound_to 11000

$$$$
