AV-unprocessed.smi:201|AV-procd|sdf|1580|dock6
  -GOLD-   2262019463D 1   1.00000     0.00000
 Structure written by MMmdl.
 59 61  0  0  0  0  0  0  0  0  1 V2000
  141.6704  134.3710  152.8297 C   0  0  0  0  0  0  0  0  0  0  0  0
  142.2521  135.5407  153.6462 C   0  0  0  0  0  0  0  0  0  0  0  0
  141.2179  136.6877  153.6692 C   0  0  0  0  0  0  0  0  0  0  0  0
  143.5615  135.9749  153.1278 N   0  0  0  0  0  0  0  0  0  0  0  0
  144.5315  134.9852  152.6495 C   0  0  0  0  0  0  0  0  0  0  0  0
  145.0551  135.2722  151.2273 C   0  0  0  0  0  0  0  0  0  0  0  0
  144.6387  134.2708  150.3100 O   0  0  0  0  0  0  0  0  0  0  0  0
  144.9011  132.9414  150.7373 C   0  0  0  0  0  0  0  0  0  0  0  0
  146.4104  132.6841  150.6590 C   0  0  0  0  0  0  0  0  0  0  0  0
  146.6928  131.3500  151.0235 O   0  0  0  0  0  0  0  0  0  0  0  0
  144.1780  137.0109  153.7490 C   0  0  0  0  0  0  0  0  0  0  0  0
  143.7276  137.3473  154.9841 N   0  0  0  0  0  0  0  0  0  0  0  0
  144.2831  138.3655  155.6473 C   0  0  0  0  0  0  0  0  0  0  0  0
  145.2756  139.1700  155.2623 N   0  0  0  0  0  0  0  0  0  0  0  0
  145.7227  138.8444  154.0155 C   0  0  0  0  0  0  0  0  0  0  0  0
  145.2367  137.7878  153.1948 C   0  0  0  0  0  0  0  0  0  0  0  0
  145.9344  137.7672  151.9927 N   0  0  0  0  0  0  0  0  0  0  0  0
  146.7908  138.7452  152.1025 C   0  0  0  0  0  0  0  0  0  0  0  0
  146.7202  139.4586  153.2775 N   0  0  0  0  0  0  0  0  0  0  0  0
  147.5494  140.5912  153.6647 C   0  0  0  0  0  0  0  0  0  0  0  0
  148.6576  140.2896  154.7209 C   0  0  0  0  0  0  0  0  0  0  0  0
  147.9577  139.6870  155.9724 C   0  0  0  0  0  0  0  0  0  0  0  0
  146.9989  140.5642  156.5302 O   0  0  0  0  0  0  0  0  0  0  0  0
  149.7296  139.3227  154.1533 C   0  0  0  0  0  0  0  0  0  0  0  0
  150.9327  139.1514  155.0986 C   0  0  0  0  0  0  0  0  0  0  0  0
  151.5221  140.4183  155.3644 O   0  0  0  0  0  0  0  0  0  0  0  0
  150.6350  141.3208  156.0138 C   0  0  0  0  0  0  0  0  0  0  0  0
  149.4069  141.5875  155.1226 C   0  0  0  0  0  0  0  0  0  0  0  0
  140.6791  134.0959  153.1915 H   0  0  0  0  0  0  0  0  0  0  0  0
  142.2872  133.4756  152.9052 H   0  0  0  0  0  0  0  0  0  0  0  0
  141.5769  134.6303  151.7746 H   0  0  0  0  0  0  0  0  0  0  0  0
  142.3873  135.1862  154.6676 H   0  0  0  0  0  0  0  0  0  0  0  0
  140.2471  136.3312  154.0143 H   0  0  0  0  0  0  0  0  0  0  0  0
  141.0777  137.1113  152.6743 H   0  0  0  0  0  0  0  0  0  0  0  0
  141.5059  137.4986  154.3375 H   0  0  0  0  0  0  0  0  0  0  0  0
  145.3674  134.9349  153.3460 H   0  0  0  0  0  0  0  0  0  0  0  0
  144.0763  133.9952  152.6858 H   0  0  0  0  0  0  0  0  0  0  0  0
  144.7514  136.2598  150.8777 H   0  0  0  0  0  0  0  0  0  0  0  0
  146.1450  135.2671  151.2313 H   0  0  0  0  0  0  0  0  0  0  0  0
  144.5283  132.7488  151.7437 H   0  0  0  0  0  0  0  0  0  0  0  0
  144.3881  132.2516  150.0654 H   0  0  0  0  0  0  0  0  0  0  0  0
  146.7569  132.8265  149.6350 H   0  0  0  0  0  0  0  0  0  0  0  0
  146.9663  133.3787  151.2893 H   0  0  0  0  0  0  0  0  0  0  0  0
  147.5646  131.1383  150.7257 H   0  0  0  0  0  0  0  0  0  0  0  0
  143.8721  138.5654  156.6259 H   0  0  0  0  0  0  0  0  0  0  0  0
  147.4979  138.9800  151.3200 H   0  0  0  0  0  0  0  0  0  0  0  0
  148.0035  140.9920  152.7574 H   0  0  0  0  0  0  0  0  0  0  0  0
  146.8815  141.3723  154.0302 H   0  0  0  0  0  0  0  0  0  0  0  0
  147.4502  138.7502  155.7505 H   0  0  0  0  0  0  0  0  0  0  0  0
  148.6944  139.4559  156.7427 H   0  0  0  0  0  0  0  0  0  0  0  0
  147.0407  140.4952  157.4719 H   0  0  0  0  0  0  0  0  0  0  0  0
  149.2928  138.3505  153.9235 H   0  0  0  0  0  0  0  0  0  0  0  0
  150.1168  139.7066  153.2105 H   0  0  0  0  0  0  0  0  0  0  0  0
  150.6491  138.6609  156.0300 H   0  0  0  0  0  0  0  0  0  0  0  0
  151.6822  138.5140  154.6291 H   0  0  0  0  0  0  0  0  0  0  0  0
  150.3525  140.9345  156.9930 H   0  0  0  0  0  0  0  0  0  0  0  0
  151.1663  142.2552  156.1953 H   0  0  0  0  0  0  0  0  0  0  0  0
  149.7705  142.1040  154.2351 H   0  0  0  0  0  0  0  0  0  0  0  0
  148.7276  142.2808  155.6195 H   0  0  0  0  0  0  0  0  0  0  0  0
  1  2  1  0  0  0  0
  1 29  1  0  0  0  0
  1 30  1  0  0  0  0
  1 31  1  0  0  0  0
  2  3  1  0  0  0  0
  2  4  1  0  0  0  0
  2 32  1  0  0  0  0
  3 33  1  0  0  0  0
  3 34  1  0  0  0  0
  3 35  1  0  0  0  0
  4  5  1  0  0  0  0
  4 11  1  0  0  0  0
  5  6  1  0  0  0  0
  5 36  1  0  0  0  0
  5 37  1  0  0  0  0
  6  7  1  0  0  0  0
  6 38  1  0  0  0  0
  6 39  1  0  0  0  0
  7  8  1  0  0  0  0
  8  9  1  0  0  0  0
  8 40  1  0  0  0  0
  8 41  1  0  0  0  0
  9 10  1  0  0  0  0
  9 42  1  0  0  0  0
  9 43  1  0  0  0  0
 10 44  1  0  0  0  0
 11 16  1  0  0  0  0
 11 12  2  0  0  0  0
 12 13  1  0  0  0  0
 13 14  2  0  0  0  0
 13 45  1  0  0  0  0
 14 15  1  0  0  0  0
 15 19  1  0  0  0  0
 15 16  2  0  0  0  0
 16 17  1  0  0  0  0
 17 18  2  0  0  0  0
 18 19  1  0  0  0  0
 18 46  1  0  0  0  0
 19 20  1  0  0  0  0
 20 21  1  0  0  0  0
 20 47  1  0  0  0  0
 20 48  1  0  0  0  0
 21 28  1  0  0  0  0
 21 22  1  0  0  0  0
 21 24  1  0  0  0  0
 22 23  1  0  0  0  0
 22 49  1  0  0  0  0
 22 50  1  0  0  0  0
 23 51  1  0  0  0  0
 24 25  1  0  0  0  0
 24 52  1  0  0  0  0
 24 53  1  0  0  0  0
 25 26  1  0  0  0  0
 25 54  1  0  0  0  0
 25 55  1  0  0  0  0
 26 27  1  0  0  0  0
 27 28  1  0  0  0  0
 27 56  1  0  0  0  0
 27 57  1  0  0  0  0
 28 58  1  0  0  0  0
 28 59  1  0  0  0  0
M  END
> <s_m_source_file>
AV-unprocessed.smi

> <i_m_source_file_index>
201

> <i_lp_mmshare_version>
43012

> <i_f3d_flags>
0

> <s_epik_input>
W09IXVtDSDJdW0NIMl1PW0NIMl1bQ0gyXU4oW0NIXShbQ0gzXSlbQ0gzXSljKG5bY0hdbjEpYyhjMTIpbltjSF1uMltDSDJdQzMoW0NIMl1bT0hdKVtDSDJdW0NIMl1PW0NIMl1bQ0gyXTM=

> <s_epik_cmdline>
J2VwaWtfcHl0aG9uJywgJy1waCcsICc3LjAnLCAnLXRuJywgJzgnLCAnLW1hJywgJzIwMCcsICctbWV0YWxfYmluZGluZycsICctaW1hZScsICc8aW5maWxlLm1hZT4nLCAnLW9tYWUnLCAnPG91dGZpbGUubWFlPic=

> <r_lp_tautomer_probability>
1

> <r_epik_Ionization_Penalty>
0.00276835

> <r_epik_Ionization_Penalty_Charging>
0

> <r_epik_Ionization_Penalty_Neutral>
0.00276835

> <r_epik_State_Penalty>
0.00179834

> <r_epik_Charging_Adjusted_Penalty>
0.00179834

> <i_epik_Tot_Q>
0

> <i_epik_Tot_abs_Q>
0

> <r_epik_Metal_State_Penalty>
-0

> <b_epik_Metal_Only>
0

> <s_lp_Force_Field>
OPLS_2005

> <r_lp_Energy>
32.5455

> <b_lp_Chiralities_Consistent>
1

> <s_lp_Variant>
AV-unprocessed.smi:201-1

> <Gold.Version>
5.8.1

> <Gold.Id.Protein>
6NUR|6NUR_protein|mol2

> <Gold.PLP.Fitness>
49.8065

> <Gold.PLP.PLP>
-43.1129

> <Gold.PLP.part.hbond>
-2.0000

> <Gold.PLP.part.metal>
0.0000

> <Gold.PLP.part.buried>
-5.9289

> <Gold.PLP.part.nonpolar>
-36.2545

> <Gold.PLP.part.repulsive>
1.2675

> <Gold.PLP.ligand.clash>
0.0000

> <Gold.PLP.ligand.torsion>
1.6312

> <Gold.PLP.Chemscore.Hbond>
1.9280

> <Gold.PLP.Chemscore.CHOScore>
1.0000

> <Gold.PLP.Chemscore.Metal>
0.0000

> <Gold.Chemscore.Hbonds>
donor molecule, donor type, donor heavy atom, donor atom, acceptor molecule, acceptor atom, score
      L1  H    10    44       P1 10747  0.94
      P1  H  7989  7998       L1    26  0.60
      L1  C    18    46       P1  7957  1.00

> <Gold.PLP.Chemscore.Internal.Correction>
1.1721

> <Gold.Rescore>
     Score         DG    S(hbond)    S(metal)    S(lipo)     H(rot)  DE(clash)    DE(int)     intcor
      2.42      -7.36       1.04        0.00      88.76       4.68       0.42       4.51       ----

> <Gold.Chemscore.Fitness>
2.4223

> <Gold.Chemscore.DG>
-7.3618

> <Gold.Chemscore.ZeroCoef>
-5.4800

> <Gold.Chemscore.Hbond>
1.0388

> <Gold.Chemscore.Metal>
0.0000

> <Gold.Chemscore.Lipo>
88.7642

> <Gold.Chemscore.Internal_Hbond>
0.0000

> <Gold.Chemscore.DEClash>
0.4250

> <Gold.Chemscore.DEInternal>
4.5145

> <Gold.Chemscore.Rot>
4.6771

> <Gold.Chemscore.Internal.Correction>
   9.000000E+99

> <Gold.Chemscore.Hbonds>
donor molecule, donor type, donor heavy atom, donor atom, acceptor molecule, acceptor atom, score
      L1  H    10    44       P1 10747  0.90
      P1  H  7989  7998       L1    26  0.04

> <Gold.Chemscore.Hbond.Weighted>
-3.4697

> <Gold.Chemscore.Metal.Weighted>
-0.0000

> <Gold.Chemscore.Lipo.Weighted>
-10.3854

> <Gold.Chemscore.Internal_Hbond.Weighted>
0.0000

> <Gold.Chemscore.DEClash.Weighted>
0.4250

> <Gold.Chemscore.DEInternal.Weighted>
4.5145

> <Gold.Chemscore.Rot.Weighted>
11.9733

> <Gold.Chemscore.Internal.Correction.Weighted>
   9.000000E+99

> <Gold.Protein.RotatedTorsions>
[ 6907 6896 6895 6894 ] final    9.04 input  -60.11 | X-H torsion
[ 7974 7965 7964 7962 ] final -103.19 input  175.53 | X-H torsion
[ 8008 7997 7996 7995 ] final    7.11 input   59.86 | X-H torsion
[ 10167 10162 10161 10158 ] final   59.62 input  -65.29 | X-H torsion
[ 10718 10713 10712 10709 ] final  -36.44 input   66.30 | X-H torsion
[ 10763 10752 10751 10750 ] final -159.05 input  -60.55 | X-H torsion
[ 11005 11000 10999 10996 ] final   61.32 input  -57.11 | X-H torsion

> <Gold.Protein.ActiveResidues>
 VAL166  LYS551  ARG553  GLY616  TRP617  ASP618  TYR619  PRO620  LYS621  CYS622 
 ASP623  PHE694  ASN695  SER759  ASP760  ASP761  ALA762  ILE779  LEU786  VAL792 
 PHE793  MET794  SER795  GLU796  ALA797  LYS798  CYS799  TRP800  GLU811  SER814 

> <Gold.Protein.RotatedAtoms>
  151.7158  135.0904  160.0275 H   0  0  0  0  0  0  0  0  0  0  0  0  # atno 6907 bound_to 6896
  152.3633  133.6320  159.6040 H   0  0  0  0  0  0  0  0  0  0  0  0  # atno 6908 bound_to 6896
  150.7620  133.9305  159.3467 H   0  0  0  0  0  0  0  0  0  0  0  0  # atno 6909 bound_to 6896
  145.2591  140.9263  143.3051 H   0  0  0  0  0  0  0  0  0  0  0  0  # atno 7974 bound_to 7965
  154.7496  140.2764  155.6303 H   0  0  0  0  0  0  0  0  0  0  0  0  # atno 8008 bound_to 7997
  156.2892  140.2681  156.2173 H   0  0  0  0  0  0  0  0  0  0  0  0  # atno 8009 bound_to 7997
  155.0153  140.0372  157.2405 H   0  0  0  0  0  0  0  0  0  0  0  0  # atno 8010 bound_to 7997
  140.1745  144.4244  150.6645 H   0  0  0  0  0  0  0  0  0  0  0  0  # atno 10167 bound_to 10162
  156.3269  130.4273  149.7909 H   0  0  0  0  0  0  0  0  0  0  0  0  # atno 10718 bound_to 10713
  154.7507  135.3091  154.8563 H   0  0  0  0  0  0  0  0  0  0  0  0  # atno 10763 bound_to 10752
  153.9351  135.6781  153.4749 H   0  0  0  0  0  0  0  0  0  0  0  0  # atno 10764 bound_to 10752
  153.1103  135.4870  154.8951 H   0  0  0  0  0  0  0  0  0  0  0  0  # atno 10765 bound_to 10752
  140.0169  134.6211  155.9696 H   0  0  0  0  0  0  0  0  0  0  0  0  # atno 11005 bound_to 11000
  144.9434  139.4163  143.6438 LP  0  0  0  0  0  0  0  0  0  0  0  0  # atno 17320 bound_to 7965
  146.3280  139.8405  142.8891 LP  0  0  0  0  0  0  0  0  0  0  0  0  # atno 17321 bound_to 7965
  140.6560  143.2238  151.5967 LP  0  0  0  0  0  0  0  0  0  0  0  0  # atno 17342 bound_to 10162
  139.5323  144.2880  152.1175 LP  0  0  0  0  0  0  0  0  0  0  0  0  # atno 17343 bound_to 10162
  156.5196  130.8209  151.3198 LP  0  0  0  0  0  0  0  0  0  0  0  0  # atno 17370 bound_to 10713
  157.7423  130.9887  150.2505 LP  0  0  0  0  0  0  0  0  0  0  0  0  # atno 17371 bound_to 10713
  141.1749  133.6539  156.4790 LP  0  0  0  0  0  0  0  0  0  0  0  0  # atno 17394 bound_to 11000
  140.4454  134.6977  157.5013 LP  0  0  0  0  0  0  0  0  0  0  0  0  # atno 17395 bound_to 11000

$$$$
