AV-unprocessed.smi:2247|AV-procd|sdf|9088|dock4
  -GOLD-   2272012293D 1   1.00000     0.00000
 Structure written by MMmdl.
 34 35  0  0  0  0  0  0  0  0  1 V2000
  152.1500  143.6315  161.6058 C   0  0  0  0  0  0  0  0  0  0  0  0
  152.2080  144.2115  160.1811 C   0  0  0  0  0  0  0  0  0  0  0  0
  151.2391  145.3905  159.9999 C   0  0  0  0  0  0  0  0  0  0  0  0
  151.9729  143.1930  159.1490 N   0  0  0  0  0  0  0  0  0  0  0  0
  151.8507  141.7785  159.4634 C   0  0  0  0  0  0  0  0  0  0  0  0
  151.2801  141.1491  158.1890 C   0  0  0  0  0  0  0  0  0  0  0  0
  151.6043  142.1329  157.0537 C   0  0  1  0  0  0  0  0  0  0  0  0
  150.4698  142.2337  156.1368 N   0  0  0  0  0  0  0  0  0  0  0  0
  150.1358  141.3273  155.2049 C   0  0  0  0  0  0  0  0  0  0  0  0
  150.7908  140.2922  155.0452 O   0  0  0  0  0  0  0  0  0  0  0  0
  148.9923  141.7322  154.5336 N   0  0  0  0  0  0  0  0  0  0  0  0
  148.2881  140.8512  153.8930 C   0  0  0  0  0  0  0  0  0  0  0  0
  147.1305  141.0622  153.1611 N   0  0  0  0  0  0  0  0  0  0  0  0
  146.7130  139.8569  152.6680 C   0  0  0  0  0  0  0  0  0  0  0  0
  147.5719  138.9249  153.0710 C   0  0  0  0  0  0  0  0  0  0  0  0
  148.5492  139.5017  153.8243 O   0  0  0  0  0  0  0  0  0  0  0  0
  151.8116  143.4289  157.8394 C   0  0  0  0  0  0  0  0  0  0  0  0
  151.8427  144.5364  157.3024 O   0  0  0  0  0  0  0  0  0  0  0  0
  152.4216  144.3878  162.3425 H   0  0  0  0  0  0  0  0  0  0  0  0
  152.8458  142.7997  161.7214 H   0  0  0  0  0  0  0  0  0  0  0  0
  151.1515  143.2749  161.8600 H   0  0  0  0  0  0  0  0  0  0  0  0
  153.2208  144.5952  160.0454 H   0  0  0  0  0  0  0  0  0  0  0  0
  151.4306  146.1706  160.7372 H   0  0  0  0  0  0  0  0  0  0  0  0
  150.2024  145.0724  160.1142 H   0  0  0  0  0  0  0  0  0  0  0  0
  151.3429  145.8407  159.0121 H   0  0  0  0  0  0  0  0  0  0  0  0
  152.8372  141.3697  159.6862 H   0  0  0  0  0  0  0  0  0  0  0  0
  151.2016  141.6058  160.3227 H   0  0  0  0  0  0  0  0  0  0  0  0
  151.6923  140.1569  158.0027 H   0  0  0  0  0  0  0  0  0  0  0  0
  150.2006  141.0325  158.3037 H   0  0  0  0  0  0  0  0  0  0  0  0
  152.5304  141.8559  156.5474 H   0  0  0  0  0  0  0  0  0  0  0  0
  149.8923  143.0581  156.2178 H   0  0  0  0  0  0  0  0  0  0  0  0
  146.6421  141.9312  152.9991 H   0  0  0  0  0  0  0  0  0  0  0  0
  145.8195  139.7930  152.0647 H   0  0  0  0  0  0  0  0  0  0  0  0
  147.6234  137.8576  152.9144 H   0  0  0  0  0  0  0  0  0  0  0  0
  1  2  1  0  0  0  0
  1 19  1  0  0  0  0
  1 20  1  0  0  0  0
  1 21  1  0  0  0  0
  2  3  1  0  0  0  0
  2  4  1  0  0  0  0
  2 22  1  0  0  0  0
  3 23  1  0  0  0  0
  3 24  1  0  0  0  0
  3 25  1  0  0  0  0
  4 17  1  0  0  0  0
  4  5  1  0  0  0  0
  5  6  1  0  0  0  0
  5 26  1  0  0  0  0
  5 27  1  0  0  0  0
  6  7  1  0  0  0  0
  6 28  1  0  0  0  0
  6 29  1  0  0  0  0
  7  8  1  0  0  0  0
  7 17  1  0  0  0  0
  7 30  1  0  0  0  0
  8 31  1  0  0  0  0
  8  9  1  0  0  0  0
  9 11  1  0  0  0  0
  9 10  2  0  0  0  0
 11 12  2  0  0  0  0
 12 16  1  0  0  0  0
 12 13  1  0  0  0  0
 13 32  1  0  0  0  0
 13 14  1  0  0  0  0
 14 33  1  0  0  0  0
 14 15  2  0  0  0  0
 15 34  1  0  0  0  0
 15 16  1  0  0  0  0
 17 18  2  0  0  0  0
M  END
> <s_m_source_file>
AV-unprocessed.smi

> <i_m_source_file_index>
2247

> <i_lp_mmshare_version>
43012

> <i_f3d_flags>
0

> <s_epik_input>
W0NIM11bQ0hdKFtDSDNdKU4xW0NIMl1bQ0gyXVtDQEhdKEMxPU8pW05IXUMoPU8pW05IXWMybltjSF1bY0hdbzI=

> <s_epik_cmdline>
J2VwaWtfcHl0aG9uJywgJy1waCcsICc3LjAnLCAnLXRuJywgJzgnLCAnLW1hJywgJzIwMCcsICctbWV0YWxfYmluZGluZycsICctaW1hZScsICc8aW5maWxlLm1hZT4nLCAnLW9tYWUnLCAnPG91dGZpbGUubWFlPic=

> <r_lp_tautomer_probability>
0.107061

> <r_epik_Ionization_Penalty>
0.180736

> <r_epik_Ionization_Penalty_Charging>
0.180388

> <r_epik_Ionization_Penalty_Neutral>
0.000348501

> <r_epik_State_Penalty>
2.44396

> <r_epik_Charging_Adjusted_Penalty>
2.62435

> <i_epik_Tot_Q>
0

> <i_epik_Tot_abs_Q>
0

> <r_epik_Metal_State_Penalty>
4.38331

> <b_epik_Metal_Only>
0

> <s_lp_Force_Field>
OPLS_2005

> <r_lp_Energy>
44.8331

> <b_lp_Chiralities_Consistent>
1

> <s_lp_Variant>
AV-unprocessed.smi:2247-3

> <Gold.Version>
5.8.1

> <Gold.Id.Protein>
6NUR|6NUR_protein|mol2

> <Gold.PLP.Fitness>
45.1763

> <Gold.PLP.PLP>
-33.9653

> <Gold.PLP.part.hbond>
-2.0751

> <Gold.PLP.part.metal>
0.0000

> <Gold.PLP.part.buried>
-3.6389

> <Gold.PLP.part.nonpolar>
-29.4078

> <Gold.PLP.part.repulsive>
0.9547

> <Gold.PLP.ligand.clash>
0.0000

> <Gold.PLP.ligand.torsion>
0.4335

> <Gold.PLP.Chemscore.Hbond>
2.0000

> <Gold.PLP.Chemscore.CHOScore>
2.0000

> <Gold.PLP.Chemscore.Metal>
0.0000

> <Gold.Chemscore.Hbonds>
donor molecule, donor type, donor heavy atom, donor atom, acceptor molecule, acceptor atom, score
      L1  H     8    31       P1  8028  1.00
      P1  H  7989  7998       L1    10  0.75
      L1  C    14    33       P1 10175  1.00
      L1  C    15    34       P1  7948  1.00

> <Gold.PLP.Chemscore.Internal.Correction>
0.0780

> <Gold.Rescore>
     Score         DG    S(hbond)    S(metal)    S(lipo)     H(rot)  DE(clash)    DE(int)     intcor
     10.54     -14.68       1.27        0.00      71.68       1.33       0.45       3.70       ----

> <Gold.Chemscore.Fitness>
10.5357

> <Gold.Chemscore.DG>
-14.6847

> <Gold.Chemscore.ZeroCoef>
-5.4800

> <Gold.Chemscore.Hbond>
1.2674

> <Gold.Chemscore.Metal>
0.0000

> <Gold.Chemscore.Lipo>
71.6763

> <Gold.Chemscore.Internal_Hbond>
0.0000

> <Gold.Chemscore.DEClash>
0.4474

> <Gold.Chemscore.DEInternal>
3.7016

> <Gold.Chemscore.Rot>
1.3338

> <Gold.Chemscore.Internal.Correction>
   9.000000E+99

> <Gold.Chemscore.Hbonds>
donor molecule, donor type, donor heavy atom, donor atom, acceptor molecule, acceptor atom, score
      L1  H     8    31       P1  8028  0.94
      P1  H  7989  7998       L1    10  0.09

> <Gold.Chemscore.Hbond.Weighted>
-4.2331

> <Gold.Chemscore.Metal.Weighted>
-0.0000

> <Gold.Chemscore.Lipo.Weighted>
-8.3861

> <Gold.Chemscore.Internal_Hbond.Weighted>
0.0000

> <Gold.Chemscore.DEClash.Weighted>
0.4474

> <Gold.Chemscore.DEInternal.Weighted>
3.7016

> <Gold.Chemscore.Rot.Weighted>
3.4145

> <Gold.Chemscore.Internal.Correction.Weighted>
   9.000000E+99

> <Gold.Protein.RotatedTorsions>
[ 6907 6896 6895 6894 ] final    9.61 input  -60.11 | X-H torsion
[ 7974 7965 7964 7962 ] final  -24.41 input  175.53 | X-H torsion
[ 8008 7997 7996 7995 ] final  166.07 input   59.86 | X-H torsion
[ 10167 10162 10161 10158 ] final   75.20 input  -65.29 | X-H torsion
[ 10718 10713 10712 10709 ] final  167.11 input   66.30 | X-H torsion
[ 10763 10752 10751 10750 ] final  101.96 input  -60.55 | X-H torsion
[ 11005 11000 10999 10996 ] final  -61.59 input  -57.11 | X-H torsion

> <Gold.Protein.ActiveResidues>
 VAL166  LYS551  ARG553  GLY616  TRP617  ASP618  TYR619  PRO620  LYS621  CYS622 
 ASP623  PHE694  ASN695  SER759  ASP760  ASP761  ALA762  ILE779  LEU786  VAL792 
 PHE793  MET794  SER795  GLU796  ALA797  LYS798  CYS799  TRP800  GLU811  SER814 

> <Gold.Protein.RotatedAtoms>
  151.7249  135.0886  160.0290 H   0  0  0  0  0  0  0  0  0  0  0  0  # atno 6907 bound_to 6896
  152.3578  133.6254  159.6001 H   0  0  0  0  0  0  0  0  0  0  0  0  # atno 6908 bound_to 6896
  150.7583  133.9388  159.3491 H   0  0  0  0  0  0  0  0  0  0  0  0  # atno 6909 bound_to 6896
  146.1556  140.4748  142.8593 H   0  0  0  0  0  0  0  0  0  0  0  0  # atno 7974 bound_to 7965
  156.1749  140.1653  156.8381 H   0  0  0  0  0  0  0  0  0  0  0  0  # atno 8008 bound_to 7997
  154.5296  140.0760  156.8355 H   0  0  0  0  0  0  0  0  0  0  0  0  # atno 8009 bound_to 7997
  155.3435  140.3386  155.4241 H   0  0  0  0  0  0  0  0  0  0  0  0  # atno 8010 bound_to 7997
  140.0055  144.5654  150.7701 H   0  0  0  0  0  0  0  0  0  0  0  0  # atno 10167 bound_to 10162
  157.0563  131.0327  151.2663 H   0  0  0  0  0  0  0  0  0  0  0  0  # atno 10718 bound_to 10713
  153.3334  135.4027  155.1514 H   0  0  0  0  0  0  0  0  0  0  0  0  # atno 10763 bound_to 10752
  154.8628  135.3616  154.5441 H   0  0  0  0  0  0  0  0  0  0  0  0  # atno 10764 bound_to 10752
  153.5881  135.7074  153.5494 H   0  0  0  0  0  0  0  0  0  0  0  0  # atno 10765 bound_to 10752
  141.1330  133.6631  156.5399 H   0  0  0  0  0  0  0  0  0  0  0  0  # atno 11005 bound_to 11000
  144.7959  140.6122  143.6510 LP  0  0  0  0  0  0  0  0  0  0  0  0  # atno 17320 bound_to 7965
  145.4716  139.1503  143.3811 LP  0  0  0  0  0  0  0  0  0  0  0  0  # atno 17321 bound_to 7965
  140.7402  143.2801  151.3623 LP  0  0  0  0  0  0  0  0  0  0  0  0  # atno 17342 bound_to 10162
  139.6241  144.0848  152.2418 LP  0  0  0  0  0  0  0  0  0  0  0  0  # atno 17343 bound_to 10162
  157.4990  130.7868  149.7585 LP  0  0  0  0  0  0  0  0  0  0  0  0  # atno 17370 bound_to 10713
  155.9992  130.3890  150.2673 LP  0  0  0  0  0  0  0  0  0  0  0  0  # atno 17371 bound_to 10713
  140.4148  134.7240  157.4856 LP  0  0  0  0  0  0  0  0  0  0  0  0  # atno 17394 bound_to 11000
  140.0401  134.6279  155.8991 LP  0  0  0  0  0  0  0  0  0  0  0  0  # atno 17395 bound_to 11000

$$$$
