AV-unprocessed.smi:902|AV-procd|sdf|4094|dock9
  -GOLD-   22720 1583D 1   1.00000     0.00000
 Structure written by MMmdl.
 42 44  0  0  0  0  0  0  0  0  1 V2000
  146.0839  137.8125  152.5594 C   0  0  0  0  0  0  0  0  0  0  0  0
  145.1989  136.8006  152.0162 N   0  0  0  0  0  0  0  0  0  0  0  0
  145.6966  135.6095  151.6216 N   0  0  0  0  0  0  0  0  0  0  0  0
  144.6481  134.9187  151.1842 C   0  0  0  0  0  0  0  0  0  0  0  0
  144.8377  133.5204  150.6606 C   0  0  0  0  0  0  0  0  0  0  0  0
  146.2489  132.9464  150.4690 C   0  0  0  0  0  0  0  0  0  0  0  0
  145.7343  132.2099  149.2277 C   0  0  0  0  0  0  0  0  0  0  0  0
  144.5642  133.1985  149.1845 C   0  0  0  0  0  0  0  0  0  0  0  0
  143.4297  135.6516  151.2856 C   0  0  0  0  0  0  0  0  0  0  0  0
  143.8365  136.8423  151.8221 C   0  0  0  0  0  0  0  0  0  0  0  0
  143.0930  137.9334  152.1453 N   0  0  0  0  0  0  0  0  0  0  0  0
  141.7860  137.9999  152.4526 C   0  0  0  0  0  0  0  0  0  0  0  0
  141.0082  137.0458  152.4788 O   0  0  0  0  0  0  0  0  0  0  0  0
  141.4218  139.2587  152.7343 N   0  0  0  0  0  0  0  0  0  0  0  0
  140.0849  139.6714  153.1469 C   0  0  0  0  0  0  0  0  0  0  0  0
  138.9952  139.6292  152.0764 C   0  0  0  0  0  0  0  0  0  0  0  0
  138.3106  140.9791  151.8830 C   0  0  0  0  0  0  0  0  0  0  0  0
  139.2430  142.0403  151.8711 O   0  0  0  0  0  0  0  0  0  0  0  0
  139.2666  138.7931  150.8407 C   0  0  0  0  0  0  0  0  0  0  0  0
  138.2186  138.3521  151.8276 C   0  0  0  0  0  0  0  0  0  0  0  0
  145.8891  138.7702  152.0759 H   0  0  0  0  0  0  0  0  0  0  0  0
  147.1267  137.5401  152.3913 H   0  0  0  0  0  0  0  0  0  0  0  0
  145.9103  137.9109  153.6310 H   0  0  0  0  0  0  0  0  0  0  0  0
  144.2634  132.8272  151.2783 H   0  0  0  0  0  0  0  0  0  0  0  0
  146.9921  133.7072  150.2249 H   0  0  0  0  0  0  0  0  0  0  0  0
  146.5891  132.2979  151.2769 H   0  0  0  0  0  0  0  0  0  0  0  0
  146.3987  132.2533  148.3643 H   0  0  0  0  0  0  0  0  0  0  0  0
  145.4156  131.1891  149.4440 H   0  0  0  0  0  0  0  0  0  0  0  0
  143.5914  132.7463  148.9903 H   0  0  0  0  0  0  0  0  0  0  0  0
  144.7551  134.0421  148.5193 H   0  0  0  0  0  0  0  0  0  0  0  0
  142.4357  135.3358  151.0072 H   0  0  0  0  0  0  0  0  0  0  0  0
  143.5974  138.8074  152.1618 H   0  0  0  0  0  0  0  0  0  0  0  0
  142.1261  139.9803  152.6884 H   0  0  0  0  0  0  0  0  0  0  0  0
  139.7809  139.0203  153.9669 H   0  0  0  0  0  0  0  0  0  0  0  0
  140.1353  140.6753  153.5722 H   0  0  0  0  0  0  0  0  0  0  0  0
  137.7382  140.9790  150.9549 H   0  0  0  0  0  0  0  0  0  0  0  0
  137.6059  141.1568  152.6960 H   0  0  0  0  0  0  0  0  0  0  0  0
  140.0021  141.7686  151.3779 H   0  0  0  0  0  0  0  0  0  0  0  0
  138.9198  139.1673  149.8794 H   0  0  0  0  0  0  0  0  0  0  0  0
  140.1907  138.2190  150.8059 H   0  0  0  0  0  0  0  0  0  0  0  0
  138.4472  137.4889  152.4494 H   0  0  0  0  0  0  0  0  0  0  0  0
  137.1761  138.4458  151.5300 H   0  0  0  0  0  0  0  0  0  0  0  0
  1  2  1  0  0  0  0
  1 21  1  0  0  0  0
  1 22  1  0  0  0  0
  1 23  1  0  0  0  0
  2 10  1  0  0  0  0
  2  3  1  0  0  0  0
  3  4  2  0  0  0  0
  4  5  1  0  0  0  0
  4  9  1  0  0  0  0
  5  8  1  0  0  0  0
  5  6  1  0  0  0  0
  5 24  1  0  0  0  0
  6  7  1  0  0  0  0
  6 25  1  0  0  0  0
  6 26  1  0  0  0  0
  7  8  1  0  0  0  0
  7 27  1  0  0  0  0
  7 28  1  0  0  0  0
  8 29  1  0  0  0  0
  8 30  1  0  0  0  0
  9 10  2  0  0  0  0
  9 31  1  0  0  0  0
 10 11  1  0  0  0  0
 11 12  1  0  0  0  0
 11 32  1  0  0  0  0
 12 13  2  0  0  0  0
 12 14  1  0  0  0  0
 14 15  1  0  0  0  0
 14 33  1  0  0  0  0
 15 16  1  0  0  0  0
 15 34  1  0  0  0  0
 15 35  1  0  0  0  0
 16 20  1  0  0  0  0
 16 17  1  0  0  0  0
 16 19  1  0  0  0  0
 17 18  1  0  0  0  0
 17 36  1  0  0  0  0
 17 37  1  0  0  0  0
 18 38  1  0  0  0  0
 19 20  1  0  0  0  0
 19 39  1  0  0  0  0
 19 40  1  0  0  0  0
 20 41  1  0  0  0  0
 20 42  1  0  0  0  0
M  END
> <s_m_source_file>
AV-unprocessed.smi

> <i_m_source_file_index>
902

> <i_lp_mmshare_version>
43012

> <i_f3d_flags>
0

> <s_epik_input>
W0NIMl0xW0NIMl1bQ0gyXVtDSF0xYyhubjJbQ0gzXSlbY0hdYzJbTkhdQyg9TylbTkhdW0NIMl1DMyhbQ0gyXVtPSF0pW0NIMl1bQ0gyXTM=

> <s_epik_cmdline>
J2VwaWtfcHl0aG9uJywgJy1waCcsICc3LjAnLCAnLXRuJywgJzgnLCAnLW1hJywgJzIwMCcsICctbWV0YWxfYmluZGluZycsICctaW1hZScsICc8aW5maWxlLm1hZT4nLCAnLW9tYWUnLCAnPG91dGZpbGUubWFlPic=

> <r_lp_tautomer_probability>
1

> <r_epik_Ionization_Penalty>
9.68756e-05

> <r_epik_Ionization_Penalty_Charging>
0

> <r_epik_Ionization_Penalty_Neutral>
9.68756e-05

> <r_epik_State_Penalty>
-0

> <r_epik_Charging_Adjusted_Penalty>
0

> <i_epik_Tot_Q>
0

> <i_epik_Tot_abs_Q>
0

> <r_epik_Metal_State_Penalty>
-0

> <b_epik_Metal_Only>
0

> <s_lp_Force_Field>
OPLS_2005

> <r_lp_Energy>
26.4992

> <b_lp_Chiralities_Consistent>
1

> <s_lp_Variant>
AV-unprocessed.smi:902-1

> <Gold.Version>
5.8.1

> <Gold.Id.Protein>
6NUR|6NUR_protein|mol2

> <Gold.PLP.Fitness>
45.7485

> <Gold.PLP.PLP>
-38.3679

> <Gold.PLP.part.hbond>
-4.7680

> <Gold.PLP.part.metal>
0.0000

> <Gold.PLP.part.buried>
-0.0142

> <Gold.PLP.part.nonpolar>
-34.0195

> <Gold.PLP.part.repulsive>
0.4953

> <Gold.PLP.ligand.clash>
0.0000

> <Gold.PLP.ligand.torsion>
1.4761

> <Gold.PLP.Chemscore.Hbond>
3.0000

> <Gold.PLP.Chemscore.CHOScore>
0.0000

> <Gold.PLP.Chemscore.Metal>
0.0000

> <Gold.Chemscore.Hbonds>
donor molecule, donor type, donor heavy atom, donor atom, acceptor molecule, acceptor atom, score
      L1  H    11    32       P1 10175  0.99
      L1  H    14    33       P1 10175  0.85

> <Gold.PLP.Chemscore.Internal.Correction>
1.3329

> <Gold.Rescore>
     Score         DG    S(hbond)    S(metal)    S(lipo)     H(rot)  DE(clash)    DE(int)     intcor
     17.02     -20.00       2.84        0.00      92.62       2.26       0.19       2.80       ----

> <Gold.Chemscore.Fitness>
17.0150

> <Gold.Chemscore.DG>
-20.0019

> <Gold.Chemscore.ZeroCoef>
-5.4800

> <Gold.Chemscore.Hbond>
2.8378

> <Gold.Chemscore.Metal>
0.0000

> <Gold.Chemscore.Lipo>
92.6154

> <Gold.Chemscore.Internal_Hbond>
0.0000

> <Gold.Chemscore.DEClash>
0.1891

> <Gold.Chemscore.DEInternal>
2.7978

> <Gold.Chemscore.Rot>
2.2626

> <Gold.Chemscore.Internal.Correction>
   9.000000E+99

> <Gold.Chemscore.Hbonds>
donor molecule, donor type, donor heavy atom, donor atom, acceptor molecule, acceptor atom, score
      L1  H    11    32       P1 10175  0.94
      L1  H    14    33       P1 10175  0.13

> <Gold.Chemscore.Hbond.Weighted>
-9.4781

> <Gold.Chemscore.Metal.Weighted>
-0.0000

> <Gold.Chemscore.Lipo.Weighted>
-10.8360

> <Gold.Chemscore.Internal_Hbond.Weighted>
0.0000

> <Gold.Chemscore.DEClash.Weighted>
0.1891

> <Gold.Chemscore.DEInternal.Weighted>
2.7978

> <Gold.Chemscore.Rot.Weighted>
5.7922

> <Gold.Chemscore.Internal.Correction.Weighted>
   9.000000E+99

> <Gold.Protein.RotatedTorsions>
[ 6907 6896 6895 6894 ] final -113.48 input  -60.11 | X-H torsion
[ 7974 7965 7964 7962 ] final  159.07 input  175.53 | X-H torsion
[ 8008 7997 7996 7995 ] final -173.85 input   59.86 | X-H torsion
[ 10167 10162 10161 10158 ] final  -81.67 input  -65.29 | X-H torsion
[ 10718 10713 10712 10709 ] final -144.30 input   66.30 | X-H torsion
[ 10763 10752 10751 10750 ] final   73.52 input  -60.55 | X-H torsion
[ 11005 11000 10999 10996 ] final -120.02 input  -57.11 | X-H torsion

> <Gold.Protein.ActiveResidues>
 VAL166  LYS551  ARG553  GLY616  TRP617  ASP618  TYR619  PRO620  LYS621  CYS622 
 ASP623  PHE694  ASN695  SER759  ASP760  ASP761  ALA762  ILE779  LEU786  VAL792 
 PHE793  MET794  SER795  GLU796  ALA797  LYS798  CYS799  TRP800  GLU811  SER814 

> <Gold.Protein.RotatedAtoms>
  150.7832  133.8939  159.3321 H   0  0  0  0  0  0  0  0  0  0  0  0  # atno 6907 bound_to 6896
  151.6796  135.0962  160.0223 H   0  0  0  0  0  0  0  0  0  0  0  0  # atno 6908 bound_to 6896
  152.3889  133.6612  159.6257 H   0  0  0  0  0  0  0  0  0  0  0  0  # atno 6909 bound_to 6896
  144.7810  139.7566  143.6259 H   0  0  0  0  0  0  0  0  0  0  0  0  # atno 7974 bound_to 7965
  155.9626  140.1147  157.0882 H   0  0  0  0  0  0  0  0  0  0  0  0  # atno 8008 bound_to 7997
  154.4136  140.1179  156.5267 H   0  0  0  0  0  0  0  0  0  0  0  0  # atno 8009 bound_to 7997
  155.6700  140.3473  155.4817 H   0  0  0  0  0  0  0  0  0  0  0  0  # atno 8010 bound_to 7997
  140.4391  143.2521  151.8652 H   0  0  0  0  0  0  0  0  0  0  0  0  # atno 10167 bound_to 10162
  156.3685  130.7775  151.1953 H   0  0  0  0  0  0  0  0  0  0  0  0  # atno 10718 bound_to 10713
  153.0527  135.5060  154.7906 H   0  0  0  0  0  0  0  0  0  0  0  0  # atno 10763 bound_to 10752
  154.6756  135.2960  154.9685 H   0  0  0  0  0  0  0  0  0  0  0  0  # atno 10764 bound_to 10752
  154.0489  135.6706  153.4851 H   0  0  0  0  0  0  0  0  0  0  0  0  # atno 10765 bound_to 10752
  141.0174  134.0175  157.3331 H   0  0  0  0  0  0  0  0  0  0  0  0  # atno 11005 bound_to 11000
  146.2018  139.5318  142.9738 LP  0  0  0  0  0  0  0  0  0  0  0  0  # atno 17320 bound_to 7965
  145.6049  141.0349  143.1998 LP  0  0  0  0  0  0  0  0  0  0  0  0  # atno 17321 bound_to 7965
  139.4788  144.5250  151.8748 LP  0  0  0  0  0  0  0  0  0  0  0  0  # atno 17342 bound_to 10162
  140.4340  144.2077  150.5889 LP  0  0  0  0  0  0  0  0  0  0  0  0  # atno 17343 bound_to 10162
  157.7481  131.0379  150.4479 LP  0  0  0  0  0  0  0  0  0  0  0  0  # atno 17370 bound_to 10713
  156.4702  130.4051  149.6523 LP  0  0  0  0  0  0  0  0  0  0  0  0  # atno 17371 bound_to 10713
  139.9125  135.0192  156.7750 LP  0  0  0  0  0  0  0  0  0  0  0  0  # atno 17394 bound_to 11000
  140.6631  133.9627  155.7816 LP  0  0  0  0  0  0  0  0  0  0  0  0  # atno 17395 bound_to 11000

$$$$
