AV-unprocessed.smi:1217|AV-procd|sdf|5102|dock3
  -GOLD-   22720 4153D 1   1.00000     0.00000
 Structure written by MMmdl.
 34 35  0  0  0  0  0  0  0  0  1 V2000
  151.8177  145.3866  158.7339 C   0  0  0  0  0  0  0  0  0  0  0  0
  152.0605  143.9142  158.3684 C   0  0  2  0  0  0  0  0  0  0  0  0
  151.0225  143.4906  157.4309 N   0  0  0  0  0  0  0  0  0  0  0  0
  150.8980  142.2629  156.9046 C   0  0  0  0  0  0  0  0  0  0  0  0
  151.6637  141.3320  157.1562 O   0  0  0  0  0  0  0  0  0  0  0  0
  149.8347  142.1932  156.0845 N   0  0  0  0  0  0  0  0  0  0  0  0
  149.3988  141.0895  155.3037 C   0  0  0  0  0  0  0  0  0  0  0  0
  148.0054  141.0319  155.0742 C   0  0  0  0  0  0  0  0  0  0  0  0
  147.4725  139.9789  154.3056 C   0  0  0  0  0  0  0  0  0  0  0  0
  148.3480  139.0107  153.7829 C   0  0  0  0  0  0  0  0  0  0  0  0
  149.7218  139.1422  154.0571 C   0  0  0  0  0  0  0  0  0  0  0  0
  150.2344  140.1498  154.7947 N   0  0  0  0  0  0  0  0  0  0  0  0
  152.0526  142.9958  159.6073 C   0  0  2  0  0  0  0  0  0  0  0  0
  152.2423  143.7197  160.9419 C   0  0  0  0  0  0  0  0  0  0  0  0
  152.8524  142.6611  161.8487 C   0  0  0  0  0  0  0  0  0  0  0  0
  153.2661  141.5416  160.8907 C   0  0  0  0  0  0  0  0  0  0  0  0
  153.1650  142.1140  159.5955 O   0  0  0  0  0  0  0  0  0  0  0  0
  152.5956  145.7655  159.3968 H   0  0  0  0  0  0  0  0  0  0  0  0
  150.8590  145.5188  159.2366 H   0  0  0  0  0  0  0  0  0  0  0  0
  151.8164  146.0158  157.8432 H   0  0  0  0  0  0  0  0  0  0  0  0
  153.0396  143.8505  157.8899 H   0  0  0  0  0  0  0  0  0  0  0  0
  150.3421  144.1882  157.1681 H   0  0  0  0  0  0  0  0  0  0  0  0
  149.2798  143.0316  155.9980 H   0  0  0  0  0  0  0  0  0  0  0  0
  147.3471  141.7851  155.4822 H   0  0  0  0  0  0  0  0  0  0  0  0
  146.4104  139.9167  154.1202 H   0  0  0  0  0  0  0  0  0  0  0  0
  147.9772  138.1895  153.1876 H   0  0  0  0  0  0  0  0  0  0  0  0
  150.4279  138.4207  153.6736 H   0  0  0  0  0  0  0  0  0  0  0  0
  151.1360  142.4029  159.6357 H   0  0  0  0  0  0  0  0  0  0  0  0
  152.9456  144.5458  160.8267 H   0  0  0  0  0  0  0  0  0  0  0  0
  151.3101  144.1260  161.3352 H   0  0  0  0  0  0  0  0  0  0  0  0
  153.7105  143.0634  162.3880 H   0  0  0  0  0  0  0  0  0  0  0  0
  152.1344  142.2959  162.5837 H   0  0  0  0  0  0  0  0  0  0  0  0
  154.2745  141.1745  161.0831 H   0  0  0  0  0  0  0  0  0  0  0  0
  152.5769  140.6990  160.9644 H   0  0  0  0  0  0  0  0  0  0  0  0
  1  2  1  0  0  0  0
  1 18  1  0  0  0  0
  1 19  1  0  0  0  0
  1 20  1  0  0  0  0
  2  3  1  0  0  0  0
  2 13  1  0  0  0  0
  2 21  1  0  0  0  0
  3  4  1  0  0  0  0
  3 22  1  0  0  0  0
  4  5  2  0  0  0  0
  4  6  1  0  0  0  0
  6  7  1  0  0  0  0
  6 23  1  0  0  0  0
  7 12  1  0  0  0  0
  7  8  2  0  0  0  0
  8  9  1  0  0  0  0
  8 24  1  0  0  0  0
  9 10  2  0  0  0  0
  9 25  1  0  0  0  0
 10 11  1  0  0  0  0
 10 26  1  0  0  0  0
 11 12  2  0  0  0  0
 11 27  1  0  0  0  0
 13 17  1  0  0  0  0
 13 14  1  0  0  0  0
 13 28  1  0  0  0  0
 14 15  1  0  0  0  0
 14 29  1  0  0  0  0
 14 30  1  0  0  0  0
 15 16  1  0  0  0  0
 15 31  1  0  0  0  0
 15 32  1  0  0  0  0
 16 17  1  0  0  0  0
 16 33  1  0  0  0  0
 16 34  1  0  0  0  0
M  END
> <s_m_source_file>
AV-unprocessed.smi

> <i_m_source_file_index>
1217

> <i_lp_mmshare_version>
43012

> <i_f3d_flags>
0

> <s_epik_input>
TzFbQ0gyXVtDSDJdW0NIMl1bQ0BIXTFbQ0BIXShbQ0gzXSlbTkhdQyg9TylbTkhdYzJbY0hdW2NIXVtjSF1bY0hdbjI=

> <s_epik_cmdline>
J2VwaWtfcHl0aG9uJywgJy1waCcsICc3LjAnLCAnLXRuJywgJzgnLCAnLW1hJywgJzIwMCcsICctbWV0YWxfYmluZGluZycsICctaW1hZScsICc8aW5maWxlLm1hZT4nLCAnLW9tYWUnLCAnPG91dGZpbGUubWFlPic=

> <r_lp_tautomer_probability>
1

> <r_epik_Ionization_Penalty>
4.51768e-05

> <r_epik_Ionization_Penalty_Charging>
0

> <r_epik_Ionization_Penalty_Neutral>
4.51768e-05

> <r_epik_State_Penalty>
-0

> <r_epik_Charging_Adjusted_Penalty>
0

> <i_epik_Tot_Q>
0

> <i_epik_Tot_abs_Q>
0

> <r_epik_Metal_State_Penalty>
-0

> <b_epik_Metal_Only>
0

> <s_lp_Force_Field>
OPLS_2005

> <r_lp_Energy>
20.7335

> <b_lp_Chiralities_Consistent>
1

> <s_lp_Variant>
AV-unprocessed.smi:1217-1

> <Gold.Version>
5.8.1

> <Gold.Id.Protein>
6NUR|6NUR_protein|mol2

> <Gold.PLP.Fitness>
43.3652

> <Gold.PLP.PLP>
-38.2583

> <Gold.PLP.part.hbond>
-3.0000

> <Gold.PLP.part.metal>
0.0000

> <Gold.PLP.part.buried>
-2.7957

> <Gold.PLP.part.nonpolar>
-32.8949

> <Gold.PLP.part.repulsive>
0.2011

> <Gold.PLP.ligand.clash>
0.0000

> <Gold.PLP.ligand.torsion>
1.4493

> <Gold.PLP.Chemscore.Hbond>
2.6610

> <Gold.PLP.Chemscore.CHOScore>
0.0000

> <Gold.PLP.Chemscore.Metal>
0.0000

> <Gold.Chemscore.Hbonds>
donor molecule, donor type, donor heavy atom, donor atom, acceptor molecule, acceptor atom, score
      L1  H     3    22       P1  8028  0.66
      L1  H     6    23       P1  8028  1.00
      P1  H  7989  7998       L1    12  0.99

> <Gold.PLP.Chemscore.Internal.Correction>
0.0225

> <Gold.Rescore>
     Score         DG    S(hbond)    S(metal)    S(lipo)     H(rot)  DE(clash)    DE(int)     intcor
     15.59     -19.49       1.89        0.00      93.08       1.25       0.13       3.76       ----

> <Gold.Chemscore.Fitness>
15.5949

> <Gold.Chemscore.DG>
-19.4870

> <Gold.Chemscore.ZeroCoef>
-5.4800

> <Gold.Chemscore.Hbond>
1.8918

> <Gold.Chemscore.Metal>
0.0000

> <Gold.Chemscore.Lipo>
93.0763

> <Gold.Chemscore.Internal_Hbond>
0.0000

> <Gold.Chemscore.DEClash>
0.1322

> <Gold.Chemscore.DEInternal>
3.7599

> <Gold.Chemscore.Rot>
1.2506

> <Gold.Chemscore.Internal.Correction>
   9.000000E+99

> <Gold.Chemscore.Hbonds>
donor molecule, donor type, donor heavy atom, donor atom, acceptor molecule, acceptor atom, score
      L1  H     3    22       P1  8028  0.57
      L1  H     6    23       P1  8028  0.99
      P1  H  7989  7998       L1    12  0.21

> <Gold.Chemscore.Hbond.Weighted>
-6.3187

> <Gold.Chemscore.Metal.Weighted>
-0.0000

> <Gold.Chemscore.Lipo.Weighted>
-10.8899

> <Gold.Chemscore.Internal_Hbond.Weighted>
0.0000

> <Gold.Chemscore.DEClash.Weighted>
0.1322

> <Gold.Chemscore.DEInternal.Weighted>
3.7599

> <Gold.Chemscore.Rot.Weighted>
3.2016

> <Gold.Chemscore.Internal.Correction.Weighted>
   9.000000E+99

> <Gold.Protein.RotatedTorsions>
[ 6907 6896 6895 6894 ] final   28.80 input  -60.11 | X-H torsion
[ 7974 7965 7964 7962 ] final   63.63 input  175.53 | X-H torsion
[ 8008 7997 7996 7995 ] final -153.86 input   59.86 | X-H torsion
[ 10167 10162 10161 10158 ] final   57.11 input  -65.29 | X-H torsion
[ 10718 10713 10712 10709 ] final  -15.72 input   66.30 | X-H torsion
[ 10763 10752 10751 10750 ] final -167.75 input  -60.55 | X-H torsion
[ 11005 11000 10999 10996 ] final   87.25 input  -57.11 | X-H torsion

> <Gold.Protein.ActiveResidues>
 VAL166  LYS551  ARG553  GLY616  TRP617  ASP618  TYR619  PRO620  LYS621  CYS622 
 ASP623  PHE694  ASN695  SER759  ASP760  ASP761  ALA762  ILE779  LEU786  VAL792 
 PHE793  MET794  SER795  GLU796  ALA797  LYS798  CYS799  TRP800  GLU811  SER814 

> <Gold.Protein.RotatedAtoms>
  152.0223  134.9815  160.0570 H   0  0  0  0  0  0  0  0  0  0  0  0  # atno 6907 bound_to 6896
  152.1325  133.4411  159.4736 H   0  0  0  0  0  0  0  0  0  0  0  0  # atno 6908 bound_to 6896
  150.6857  134.2322  159.4482 H   0  0  0  0  0  0  0  0  0  0  0  0  # atno 6909 bound_to 6896
  145.8596  139.3306  143.0826 H   0  0  0  0  0  0  0  0  0  0  0  0  # atno 7974 bound_to 7965
  155.6774  140.0740  157.2497 H   0  0  0  0  0  0  0  0  0  0  0  0  # atno 8008 bound_to 7997
  154.4112  140.1688  156.1996 H   0  0  0  0  0  0  0  0  0  0  0  0  # atno 8009 bound_to 7997
  155.9564  140.3373  155.6456 H   0  0  0  0  0  0  0  0  0  0  0  0  # atno 8010 bound_to 7997
  140.2015  144.3983  150.6527 H   0  0  0  0  0  0  0  0  0  0  0  0  # atno 10167 bound_to 10162
  156.5978  130.4816  149.6252 H   0  0  0  0  0  0  0  0  0  0  0  0  # atno 10718 bound_to 10713
  154.6700  135.2938  154.9754 H   0  0  0  0  0  0  0  0  0  0  0  0  # atno 10763 bound_to 10752
  154.0785  135.6608  153.4838 H   0  0  0  0  0  0  0  0  0  0  0  0  # atno 10764 bound_to 10752
  153.0481  135.5191  154.7691 H   0  0  0  0  0  0  0  0  0  0  0  0  # atno 10765 bound_to 10752
  139.8924  134.8410  156.2834 H   0  0  0  0  0  0  0  0  0  0  0  0  # atno 11005 bound_to 11000
  145.9263  140.9080  143.0379 LP  0  0  0  0  0  0  0  0  0  0  0  0  # atno 17320 bound_to 7965
  144.6727  140.1357  143.7440 LP  0  0  0  0  0  0  0  0  0  0  0  0  # atno 17321 bound_to 7965
  140.6387  143.2199  151.6338 LP  0  0  0  0  0  0  0  0  0  0  0  0  # atno 17342 bound_to 10162
  139.5215  144.3190  152.0927 LP  0  0  0  0  0  0  0  0  0  0  0  0  # atno 17343 bound_to 10162
  156.2495  130.6899  151.1631 LP  0  0  0  0  0  0  0  0  0  0  0  0  # atno 17370 bound_to 10713
  157.7287  131.0629  150.5806 LP  0  0  0  0  0  0  0  0  0  0  0  0  # atno 17371 bound_to 10713
  141.0024  133.7144  156.0981 LP  0  0  0  0  0  0  0  0  0  0  0  0  # atno 17394 bound_to 11000
  140.7480  134.4077  157.5545 LP  0  0  0  0  0  0  0  0  0  0  0  0  # atno 17395 bound_to 11000

$$$$
