AV-unprocessed.smi:838|AV-procd|sdf|3909|dock7
  -GOLD-   22720 1373D 1   1.00000     0.00000
 Structure written by MMmdl.
 46 47  0  0  0  0  0  0  0  0  2 V2000
  142.5436  143.2963  157.2495 C   0  0  0  0  0  0  0  0  0  0  0  0
  143.0691  143.6624  155.8595 C   0  0  0  0  0  0  0  0  0  0  0  0
  142.2504  143.8158  154.9535 O   0  0  0  0  0  0  0  0  0  0  0  0
  144.4030  143.8051  155.6703 N   0  0  0  0  0  0  0  0  0  0  0  0
  145.0585  144.0673  154.3855 C   0  0  0  0  0  0  0  0  0  0  0  0
  145.8952  142.8373  153.9886 C   0  0  0  0  0  0  0  0  0  0  0  0
  146.8693  142.4722  155.0524 N   0  3  0  0  0  0  0  0  0  0  0  0
  147.6939  141.2970  154.6759 C   0  0  0  0  0  0  0  0  0  0  0  0
  149.1675  141.6683  154.4204 C   0  0  0  0  0  0  0  0  0  0  0  0
  149.7718  142.2936  155.5912 N   0  0  0  0  0  0  0  0  0  0  0  0
  150.5769  141.6682  156.4624 C   0  0  0  0  0  0  0  0  0  0  0  0
  150.8938  140.4830  156.3558 O   0  0  0  0  0  0  0  0  0  0  0  0
  150.9815  142.5014  157.4374 N   0  0  0  0  0  0  0  0  0  0  0  0
  151.8338  142.2226  158.5431 C   0  0  0  0  0  0  0  0  0  0  0  0
  152.3396  140.9866  158.7830 N   0  0  0  0  0  0  0  0  0  0  0  0
  153.1379  140.7905  159.8521 C   0  0  0  0  0  0  0  0  0  0  0  0
  153.4838  141.8147  160.7501 C   0  0  0  0  0  0  0  0  0  0  0  0
  152.9695  143.1014  160.5157 C   0  0  0  0  0  0  0  0  0  0  0  0
  152.1327  143.3160  159.3997 C   0  0  0  0  0  0  0  0  0  0  0  0
  151.5758  144.7076  159.1453 C   0  0  0  0  0  0  0  0  0  0  0  0
  146.2316  142.3419  156.3923 C   0  0  0  0  0  0  0  0  0  0  0  0
  145.3851  143.5817  156.7352 C   0  0  0  0  0  0  0  0  0  0  0  0
  142.8109  144.0614  157.9789 H   0  0  0  0  0  0  0  0  0  0  0  0
  142.9465  142.3372  157.5756 H   0  0  0  0  0  0  0  0  0  0  0  0
  141.4563  143.2130  157.2390 H   0  0  0  0  0  0  0  0  0  0  0  0
  144.3666  144.3129  153.5813 H   0  0  0  0  0  0  0  0  0  0  0  0
  145.7053  144.9397  154.4899 H   0  0  0  0  0  0  0  0  0  0  0  0
  145.2370  141.9885  153.7949 H   0  0  0  0  0  0  0  0  0  0  0  0
  146.4278  143.0453  153.0599 H   0  0  0  0  0  0  0  0  0  0  0  0
  147.6074  140.5298  155.4469 H   0  0  0  0  0  0  0  0  0  0  0  0
  147.2943  140.8580  153.7603 H   0  0  0  0  0  0  0  0  0  0  0  0
  149.7408  140.7722  154.1815 H   0  0  0  0  0  0  0  0  0  0  0  0
  149.2693  142.3392  153.5668 H   0  0  0  0  0  0  0  0  0  0  0  0
  149.5581  143.2672  155.7524 H   0  0  0  0  0  0  0  0  0  0  0  0
  150.6413  143.4501  157.3855 H   0  0  0  0  0  0  0  0  0  0  0  0
  153.5108  139.7871  159.9954 H   0  0  0  0  0  0  0  0  0  0  0  0
  154.1261  141.6181  161.5956 H   0  0  0  0  0  0  0  0  0  0  0  0
  153.2155  143.9112  161.1868 H   0  0  0  0  0  0  0  0  0  0  0  0
  151.9288  145.4195  159.8920 H   0  0  0  0  0  0  0  0  0  0  0  0
  150.4862  144.6950  159.1829 H   0  0  0  0  0  0  0  0  0  0  0  0
  151.8860  145.0702  158.1649 H   0  0  0  0  0  0  0  0  0  0  0  0
  145.6015  141.4511  156.4087 H   0  0  0  0  0  0  0  0  0  0  0  0
  146.9904  142.2060  157.1619 H   0  0  0  0  0  0  0  0  0  0  0  0
  146.0254  144.4611  156.8202 H   0  0  0  0  0  0  0  0  0  0  0  0
  144.9263  143.4539  157.7166 H   0  0  0  0  0  0  0  0  0  0  0  0
  147.5047  143.2546  155.1160 H   0  0  0  0  0  0  0  0  0  0  0  0
  1  2  1  0  0  0  0
  1 23  1  0  0  0  0
  1 24  1  0  0  0  0
  1 25  1  0  0  0  0
  2  3  2  0  0  0  0
  2  4  1  0  0  0  0
  4 22  1  0  0  0  0
  4  5  1  0  0  0  0
  5  6  1  0  0  0  0
  5 26  1  0  0  0  0
  5 27  1  0  0  0  0
  6  7  1  0  0  0  0
  6 28  1  0  0  0  0
  6 29  1  0  0  0  0
  7  8  1  0  0  0  0
  7 21  1  0  0  0  0
  7 46  1  0  0  0  0
  8  9  1  0  0  0  0
  8 30  1  0  0  0  0
  8 31  1  0  0  0  0
  9 10  1  0  0  0  0
  9 32  1  0  0  0  0
  9 33  1  0  0  0  0
 10 11  1  0  0  0  0
 10 34  1  0  0  0  0
 11 12  2  0  0  0  0
 11 13  1  0  0  0  0
 13 14  1  0  0  0  0
 13 35  1  0  0  0  0
 14 19  1  0  0  0  0
 14 15  2  0  0  0  0
 15 16  1  0  0  0  0
 16 17  2  0  0  0  0
 16 36  1  0  0  0  0
 17 18  1  0  0  0  0
 17 37  1  0  0  0  0
 18 19  2  0  0  0  0
 18 38  1  0  0  0  0
 19 20  1  0  0  0  0
 20 39  1  0  0  0  0
 20 40  1  0  0  0  0
 20 41  1  0  0  0  0
 21 22  1  0  0  0  0
 21 42  1  0  0  0  0
 21 43  1  0  0  0  0
 22 44  1  0  0  0  0
 22 45  1  0  0  0  0
M  CHG  1   7   1
M  END
> <s_m_source_file>
AV-unprocessed.smi

> <i_m_source_file_index>
838

> <i_lp_mmshare_version>
43012

> <i_f3d_flags>
0

> <s_epik_input>
W0NIM11DKD1PKU4xW0NIMl1bQ0gyXU4oW0NIMl1bQ0gyXTEpW0NIMl1bQ0gyXVtOSF1DKD1PKVtOSF1jMm5bY0hdW2NIXVtjSF1jMltDSDNd

> <s_epik_cmdline>
J2VwaWtfcHl0aG9uJywgJy1waCcsICc3LjAnLCAnLXRuJywgJzgnLCAnLW1hJywgJzIwMCcsICctbWV0YWxfYmluZGluZycsICctaW1hZScsICc8aW5maWxlLm1hZT4nLCAnLW9tYWUnLCAnPG91dGZpbGUubWFlPic=

> <r_epik_Ionization_Penalty>
0.630076

> <r_epik_Ionization_Penalty_Charging>
0.630034

> <r_epik_Ionization_Penalty_Neutral>
4.2229e-05

> <r_epik_State_Penalty>
0.646805

> <r_epik_Charging_Adjusted_Penalty>
1.27684

> <i_epik_Tot_Q>
1

> <i_epik_Tot_abs_Q>
1

> <r_epik_Metal_State_Penalty>
0.64681

> <b_epik_Metal_Only>
0

> <s_lp_Force_Field>
OPLS_2005

> <r_lp_Energy>
41.2384

> <b_lp_Chiralities_Consistent>
1

> <s_lp_Variant>
AV-unprocessed.smi:838-2

> <Gold.Version>
5.8.1

> <Gold.Id.Protein>
6NUR|6NUR_protein|mol2

> <Gold.PLP.Fitness>
49.0219

> <Gold.PLP.PLP>
-41.7011

> <Gold.PLP.part.hbond>
-2.0000

> <Gold.PLP.part.metal>
0.0000

> <Gold.PLP.part.buried>
-5.4517

> <Gold.PLP.part.nonpolar>
-34.4587

> <Gold.PLP.part.repulsive>
0.4286

> <Gold.PLP.ligand.clash>
0.0000

> <Gold.PLP.ligand.torsion>
0.8693

> <Gold.PLP.Chemscore.Hbond>
3.0000

> <Gold.PLP.Chemscore.CHOScore>
0.0000

> <Gold.PLP.Chemscore.Metal>
0.0000

> <Gold.Chemscore.Hbonds>
donor molecule, donor type, donor heavy atom, donor atom, acceptor molecule, acceptor atom, score
      L1  H     7    46       P1  8028  1.95
      L1  H    10    34       P1  8028  1.00

> <Gold.PLP.Chemscore.Internal.Correction>
0.0593

> <Gold.Rescore>
     Score         DG    S(hbond)    S(metal)    S(lipo)     H(rot)  DE(clash)    DE(int)     intcor
     14.88     -17.19       1.49        0.00      92.06       1.58       0.17       2.14       ----

> <Gold.Chemscore.Fitness>
14.8760

> <Gold.Chemscore.DG>
-17.1871

> <Gold.Chemscore.ZeroCoef>
-5.4800

> <Gold.Chemscore.Hbond>
1.4903

> <Gold.Chemscore.Metal>
0.0000

> <Gold.Chemscore.Lipo>
92.0621

> <Gold.Chemscore.Internal_Hbond>
0.0000

> <Gold.Chemscore.DEClash>
0.1664

> <Gold.Chemscore.DEInternal>
2.1447

> <Gold.Chemscore.Rot>
1.5788

> <Gold.Chemscore.Internal.Correction>
   9.000000E+99

> <Gold.Chemscore.Hbonds>
donor molecule, donor type, donor heavy atom, donor atom, acceptor molecule, acceptor atom, score
      L1  H     7    46       P1  8028  0.23
      L1  H    10    34       P1  8028  0.98

> <Gold.Chemscore.Hbond.Weighted>
-4.9775

> <Gold.Chemscore.Metal.Weighted>
-0.0000

> <Gold.Chemscore.Lipo.Weighted>
-10.7713

> <Gold.Chemscore.Internal_Hbond.Weighted>
0.0000

> <Gold.Chemscore.DEClash.Weighted>
0.1664

> <Gold.Chemscore.DEInternal.Weighted>
2.1447

> <Gold.Chemscore.Rot.Weighted>
4.0416

> <Gold.Chemscore.Internal.Correction.Weighted>
   9.000000E+99

> <Gold.Protein.RotatedTorsions>
[ 6907 6896 6895 6894 ] final  -50.50 input  -60.11 | X-H torsion
[ 7974 7965 7964 7962 ] final  -64.46 input  175.53 | X-H torsion
[ 8008 7997 7996 7995 ] final  171.52 input   59.86 | X-H torsion
[ 10167 10162 10161 10158 ] final   11.55 input  -65.29 | X-H torsion
[ 10718 10713 10712 10709 ] final  -11.63 input   66.30 | X-H torsion
[ 10763 10752 10751 10750 ] final -115.65 input  -60.55 | X-H torsion
[ 11005 11000 10999 10996 ] final -170.60 input  -57.11 | X-H torsion

> <Gold.Protein.ActiveResidues>
 VAL166  LYS551  ARG553  GLY616  TRP617  ASP618  TYR619  PRO620  LYS621  CYS622 
 ASP623  PHE694  ASN695  SER759  ASP760  ASP761  ALA762  ILE779  LEU786  VAL792 
 PHE793  MET794  SER795  GLU796  ALA797  LYS798  CYS799  TRP800  GLU811  SER814 

> <Gold.Protein.RotatedAtoms>
  150.8701  134.8073  159.7147 H   0  0  0  0  0  0  0  0  0  0  0  0  # atno 6907 bound_to 6896
  152.4708  134.4961  159.9720 H   0  0  0  0  0  0  0  0  0  0  0  0  # atno 6908 bound_to 6896
  151.5051  133.3458  159.2911 H   0  0  0  0  0  0  0  0  0  0  0  0  # atno 6909 bound_to 6896
  145.7665  140.8835  143.0403 H   0  0  0  0  0  0  0  0  0  0  0  0  # atno 7974 bound_to 7965
  156.1263  140.1509  156.9131 H   0  0  0  0  0  0  0  0  0  0  0  0  # atno 8008 bound_to 7997
  154.4874  140.0861  156.7558 H   0  0  0  0  0  0  0  0  0  0  0  0  # atno 8009 bound_to 7997
  155.4338  140.3428  155.4285 H   0  0  0  0  0  0  0  0  0  0  0  0  # atno 8010 bound_to 7997
  140.6125  143.8378  150.7081 H   0  0  0  0  0  0  0  0  0  0  0  0  # atno 10167 bound_to 10162
  156.6562  130.4969  149.6045 H   0  0  0  0  0  0  0  0  0  0  0  0  # atno 10718 bound_to 10713
  154.8489  135.4374  154.1697 H   0  0  0  0  0  0  0  0  0  0  0  0  # atno 10763 bound_to 10752
  153.2813  135.6954  153.7388 H   0  0  0  0  0  0  0  0  0  0  0  0  # atno 10764 bound_to 10752
  153.6591  135.3438  155.3097 H   0  0  0  0  0  0  0  0  0  0  0  0  # atno 10765 bound_to 10752
  140.5176  134.5740  157.5038 H   0  0  0  0  0  0  0  0  0  0  0  0  # atno 11005 bound_to 11000
  144.6820  139.9795  143.7483 LP  0  0  0  0  0  0  0  0  0  0  0  0  # atno 17320 bound_to 7965
  146.0213  139.3253  143.0811 LP  0  0  0  0  0  0  0  0  0  0  0  0  # atno 17321 bound_to 7965
  140.1950  143.4006  152.1835 LP  0  0  0  0  0  0  0  0  0  0  0  0  # atno 17342 bound_to 10162
  139.5372  144.7221  151.4853 LP  0  0  0  0  0  0  0  0  0  0  0  0  # atno 17343 bound_to 10162
  156.2046  130.6641  151.1204 LP  0  0  0  0  0  0  0  0  0  0  0  0  # atno 17370 bound_to 10713
  157.7125  131.0727  150.6450 LP  0  0  0  0  0  0  0  0  0  0  0  0  # atno 17371 bound_to 10713
  139.9624  134.7431  156.0210 LP  0  0  0  0  0  0  0  0  0  0  0  0  # atno 17394 bound_to 11000
  141.1352  133.6577  156.3573 LP  0  0  0  0  0  0  0  0  0  0  0  0  # atno 17395 bound_to 11000

$$$$
