AV-unprocessed.smi:1575|AV-procd|sdf|6340|dock10
  -GOLD-   22720 6553D 1   1.00000     0.00000
 Structure written by MMmdl.
 41 41  0  0  0  0  0  0  0  0  1 V2000
  147.7766  137.0103  163.5565 C   0  0  0  0  0  0  0  0  0  0  0  0
  147.9587  136.1374  162.4074 N   0  0  0  0  0  0  0  0  0  0  0  0
  147.5006  136.4052  161.1763 C   0  0  0  0  0  0  0  0  0  0  0  0
  146.8661  137.4256  160.9026 O   0  0  0  0  0  0  0  0  0  0  0  0
  147.7881  135.3453  160.0987 C   0  0  1  0  0  0  0  0  0  0  0  0
  146.6555  134.2925  160.1552 C   0  0  0  0  0  0  0  0  0  0  0  0
  146.5806  133.4774  161.4667 C   0  0  0  0  0  0  0  0  0  0  0  0
  147.6055  132.3334  161.4503 C   0  0  0  0  0  0  0  0  0  0  0  0
  145.1701  132.9274  161.7366 C   0  0  0  0  0  0  0  0  0  0  0  0
  147.7874  135.9659  158.7738 N   0  0  0  0  0  0  0  0  0  0  0  0
  148.8794  136.3586  158.1001 C   0  0  0  0  0  0  0  0  0  0  0  0
  150.0256  136.1968  158.5214 O   0  0  0  0  0  0  0  0  0  0  0  0
  148.6314  137.0158  156.7354 C   0  0  0  0  0  0  0  0  0  0  0  0
  149.8428  137.6265  156.1697 N   0  0  0  0  0  0  0  0  0  0  0  0
  150.1920  137.3975  154.8463 C   0  0  0  0  0  0  0  0  0  0  0  0
  151.3010  137.9157  154.2674 C   0  0  0  0  0  0  0  0  0  0  0  0
  152.2067  138.7642  155.0343 C   0  0  0  0  0  0  0  0  0  0  0  0
  153.2342  139.2798  154.5997 O   0  0  0  0  0  0  0  0  0  0  0  0
  151.8219  138.9701  156.3616 N   0  0  0  0  0  0  0  0  0  0  0  0
  150.6809  138.4385  156.9647 C   0  0  0  0  0  0  0  0  0  0  0  0
  150.4362  138.6806  158.1461 O   0  0  0  0  0  0  0  0  0  0  0  0
  152.4195  139.5497  156.9327 H   0  0  0  0  0  0  0  0  0  0  0  0
  148.1964  136.5439  164.4477 H   0  0  0  0  0  0  0  0  0  0  0  0
  146.7179  137.1998  163.7380 H   0  0  0  0  0  0  0  0  0  0  0  0
  148.2802  137.9652  163.4008 H   0  0  0  0  0  0  0  0  0  0  0  0
  148.4680  135.2781  162.5551 H   0  0  0  0  0  0  0  0  0  0  0  0
  148.7539  134.8787  160.2993 H   0  0  0  0  0  0  0  0  0  0  0  0
  145.6933  134.7829  159.9974 H   0  0  0  0  0  0  0  0  0  0  0  0
  146.7731  133.6001  159.3194 H   0  0  0  0  0  0  0  0  0  0  0  0
  146.8487  134.1286  162.2994 H   0  0  0  0  0  0  0  0  0  0  0  0
  147.3981  131.6265  160.6461 H   0  0  0  0  0  0  0  0  0  0  0  0
  147.5939  131.7810  162.3905 H   0  0  0  0  0  0  0  0  0  0  0  0
  148.6177  132.7126  161.3075 H   0  0  0  0  0  0  0  0  0  0  0  0
  144.8236  132.3028  160.9125 H   0  0  0  0  0  0  0  0  0  0  0  0
  144.4450  133.7284  161.8782 H   0  0  0  0  0  0  0  0  0  0  0  0
  145.1537  132.3196  162.6418 H   0  0  0  0  0  0  0  0  0  0  0  0
  146.8851  136.1388  158.3553 H   0  0  0  0  0  0  0  0  0  0  0  0
  148.2369  136.2545  156.0608 H   0  0  0  0  0  0  0  0  0  0  0  0
  147.8405  137.7645  156.8191 H   0  0  0  0  0  0  0  0  0  0  0  0
  149.5527  136.7710  154.2409 H   0  0  0  0  0  0  0  0  0  0  0  0
  151.5197  137.7003  153.2316 H   0  0  0  0  0  0  0  0  0  0  0  0
  1  2  1  0  0  0  0
  1 23  1  0  0  0  0
  1 24  1  0  0  0  0
  1 25  1  0  0  0  0
  2  3  1  0  0  0  0
  2 26  1  0  0  0  0
  3  4  2  0  0  0  0
  3  5  1  0  0  0  0
  5  6  1  0  0  0  0
  5 10  1  0  0  0  0
  5 27  1  0  0  0  0
  6  7  1  0  0  0  0
  6 28  1  0  0  0  0
  6 29  1  0  0  0  0
  7  8  1  0  0  0  0
  7  9  1  0  0  0  0
  7 30  1  0  0  0  0
  8 31  1  0  0  0  0
  8 32  1  0  0  0  0
  8 33  1  0  0  0  0
  9 34  1  0  0  0  0
  9 35  1  0  0  0  0
  9 36  1  0  0  0  0
 10 11  1  0  0  0  0
 10 37  1  0  0  0  0
 11 12  2  0  0  0  0
 11 13  1  0  0  0  0
 13 14  1  0  0  0  0
 13 38  1  0  0  0  0
 13 39  1  0  0  0  0
 14 20  1  0  0  0  0
 14 15  1  0  0  0  0
 15 16  2  0  0  0  0
 15 40  1  0  0  0  0
 16 17  1  0  0  0  0
 16 41  1  0  0  0  0
 17 18  2  0  0  0  0
 17 19  1  0  0  0  0
 19 22  1  0  0  0  0
 19 20  1  0  0  0  0
 20 21  2  0  0  0  0
M  END
> <s_m_source_file>
AV-unprocessed.smi

> <i_m_source_file_index>
1575

> <i_lp_mmshare_version>
43012

> <i_f3d_flags>
0

> <s_epik_input>
W0NIM11bTkhdQyg9TylbQ0BIXShbQ0gyXVtDSF0oW0NIM10pW0NIM10pW05IXUMoPU8pW0NIMl1uMVtjSF1bY0hdYyg9TylbbkhdYzE9Tw==

> <s_epik_cmdline>
J2VwaWtfcHl0aG9uJywgJy1waCcsICc3LjAnLCAnLXRuJywgJzgnLCAnLW1hJywgJzIwMCcsICctbWV0YWxfYmluZGluZycsICctaW1hZScsICc8aW5maWxlLm1hZT4nLCAnLW9tYWUnLCAnPG91dGZpbGUubWFlPic=

> <r_lp_tautomer_probability>
0.999537

> <r_epik_Ionization_Penalty>
0.00357166

> <r_epik_Ionization_Penalty_Charging>
0.00357161

> <r_epik_Ionization_Penalty_Neutral>
5.44484e-08

> <r_epik_State_Penalty>
0.00253761

> <r_epik_Charging_Adjusted_Penalty>
0.00610921

> <i_epik_Tot_Q>
0

> <i_epik_Tot_abs_Q>
0

> <r_epik_Metal_State_Penalty>
0.368734

> <b_epik_Metal_Only>
0

> <s_lp_Force_Field>
OPLS_2005

> <r_lp_Energy>
5.11716

> <b_lp_Chiralities_Consistent>
1

> <s_lp_Variant>
AV-unprocessed.smi:1575-2

> <Gold.Version>
5.8.1

> <Gold.Id.Protein>
6NUR|6NUR_protein|mol2

> <Gold.PLP.Fitness>
39.5445

> <Gold.PLP.PLP>
-31.3117

> <Gold.PLP.part.hbond>
-4.1198

> <Gold.PLP.part.metal>
0.0000

> <Gold.PLP.part.buried>
-4.3085

> <Gold.PLP.part.nonpolar>
-23.0526

> <Gold.PLP.part.repulsive>
0.4048

> <Gold.PLP.ligand.clash>
0.0000

> <Gold.PLP.ligand.torsion>
1.5547

> <Gold.PLP.Chemscore.Hbond>
3.0312

> <Gold.PLP.Chemscore.CHOScore>
0.7274

> <Gold.PLP.Chemscore.Metal>
0.0000

> <Gold.Chemscore.Hbonds>
donor molecule, donor type, donor heavy atom, donor atom, acceptor molecule, acceptor atom, score
      P1  H  6896  6908       L1    12  1.00
      P1  H  6934  6947       L1     4  1.00
      P1  H  7997  8010       L1    18  0.98
      L1  C    15    40       P1  7948  1.00

> <Gold.PLP.Chemscore.Internal.Correction>
0.0667

> <Gold.Rescore>
     Score         DG    S(hbond)    S(metal)    S(lipo)     H(rot)  DE(clash)    DE(int)     intcor
     13.34     -14.74       2.98        0.00      55.62       2.81       0.19       1.21       ----

> <Gold.Chemscore.Fitness>
13.3365

> <Gold.Chemscore.DG>
-14.7391

> <Gold.Chemscore.ZeroCoef>
-5.4800

> <Gold.Chemscore.Hbond>
2.9755

> <Gold.Chemscore.Metal>
0.0000

> <Gold.Chemscore.Lipo>
55.6171

> <Gold.Chemscore.Internal_Hbond>
0.0000

> <Gold.Chemscore.DEClash>
0.1940

> <Gold.Chemscore.DEInternal>
1.2086

> <Gold.Chemscore.Rot>
2.8072

> <Gold.Chemscore.Internal.Correction>
   9.000000E+99

> <Gold.Chemscore.Hbonds>
donor molecule, donor type, donor heavy atom, donor atom, acceptor molecule, acceptor atom, score
      P1  H  6896  6908       L1    12  0.97
      P1  H  6934  6947       L1     4  0.99
      P1  H  7997  8010       L1    18  0.88

> <Gold.Chemscore.Hbond.Weighted>
-9.9383

> <Gold.Chemscore.Metal.Weighted>
-0.0000

> <Gold.Chemscore.Lipo.Weighted>
-6.5072

> <Gold.Chemscore.Internal_Hbond.Weighted>
0.0000

> <Gold.Chemscore.DEClash.Weighted>
0.1940

> <Gold.Chemscore.DEInternal.Weighted>
1.2086

> <Gold.Chemscore.Rot.Weighted>
7.1864

> <Gold.Chemscore.Internal.Correction.Weighted>
   9.000000E+99

> <Gold.Protein.RotatedTorsions>
[ 6907 6896 6895 6894 ] final -177.45 input  -60.11 | X-H torsion
[ 7974 7965 7964 7962 ] final   48.53 input  175.53 | X-H torsion
[ 8008 7997 7996 7995 ] final  131.26 input   59.86 | X-H torsion
[ 10167 10162 10161 10158 ] final  -60.53 input  -65.29 | X-H torsion
[ 10718 10713 10712 10709 ] final -139.00 input   66.30 | X-H torsion
[ 10763 10752 10751 10750 ] final   75.91 input  -60.55 | X-H torsion
[ 11005 11000 10999 10996 ] final -166.31 input  -57.11 | X-H torsion

> <Gold.Protein.ActiveResidues>
 VAL166  LYS551  ARG553  GLY616  TRP617  ASP618  TYR619  PRO620  LYS621  CYS622 
 ASP623  PHE694  ASN695  SER759  ASP760  ASP761  ALA762  ILE779  LEU786  VAL792 
 PHE793  MET794  SER795  GLU796  ALA797  LYS798  CYS799  TRP800  GLU811  SER814 

> <Gold.Protein.RotatedAtoms>
  151.6213  133.3339  159.3088 H   0  0  0  0  0  0  0  0  0  0  0  0  # atno 6907 bound_to 6896
  150.8105  134.7260  159.6695 H   0  0  0  0  0  0  0  0  0  0  0  0  # atno 6908 bound_to 6896
  152.4201  134.5975  160.0042 H   0  0  0  0  0  0  0  0  0  0  0  0  # atno 6909 bound_to 6896
  146.0195  139.4635  142.9906 H   0  0  0  0  0  0  0  0  0  0  0  0  # atno 7974 bound_to 7965
  156.2967  140.2575  156.2897 H   0  0  0  0  0  0  0  0  0  0  0  0  # atno 8008 bound_to 7997
  154.9521  140.0394  157.2168 H   0  0  0  0  0  0  0  0  0  0  0  0  # atno 8009 bound_to 7997
  154.8026  140.2830  155.5915 H   0  0  0  0  0  0  0  0  0  0  0  0  # atno 8010 bound_to 7997
  140.6065  143.2375  151.5809 H   0  0  0  0  0  0  0  0  0  0  0  0  # atno 10167 bound_to 10162
  156.3058  130.7454  151.1517 H   0  0  0  0  0  0  0  0  0  0  0  0  # atno 10718 bound_to 10713
  153.0688  135.4971  154.8259 H   0  0  0  0  0  0  0  0  0  0  0  0  # atno 10763 bound_to 10752
  154.6992  135.2998  154.9368 H   0  0  0  0  0  0  0  0  0  0  0  0  # atno 10764 bound_to 10752
  154.0097  135.6756  153.4817 H   0  0  0  0  0  0  0  0  0  0  0  0  # atno 10765 bound_to 10752
  140.5659  134.5286  157.5152 H   0  0  0  0  0  0  0  0  0  0  0  0  # atno 11005 bound_to 11000
  145.7215  141.0073  143.1400 LP  0  0  0  0  0  0  0  0  0  0  0  0  # atno 17320 bound_to 7965
  144.6984  139.8876  143.7451 LP  0  0  0  0  0  0  0  0  0  0  0  0  # atno 17321 bound_to 7965
  139.5329  144.2865  152.1187 LP  0  0  0  0  0  0  0  0  0  0  0  0  # atno 17342 bound_to 10162
  140.2056  144.4615  150.6410 LP  0  0  0  0  0  0  0  0  0  0  0  0  # atno 17343 bound_to 10162
  157.7379  131.0547  150.5327 LP  0  0  0  0  0  0  0  0  0  0  0  0  # atno 17370 bound_to 10713
  156.5460  130.4220  149.6130 LP  0  0  0  0  0  0  0  0  0  0  0  0  # atno 17371 bound_to 10713
  139.9385  134.7831  156.0740 LP  0  0  0  0  0  0  0  0  0  0  0  0  # atno 17394 bound_to 11000
  141.1086  133.6651  156.2923 LP  0  0  0  0  0  0  0  0  0  0  0  0  # atno 17395 bound_to 11000

$$$$
