AV-unprocessed.smi:943|AV-procd|sdf|4229|dock2
  -GOLD-   22720 2133D 1   1.00000     0.00000
 Structure written by MMmdl.
 43 44  0  0  0  0  0  0  0  0  1 V2000
  151.5666  140.6114  156.3590 C   0  0  0  0  0  0  0  0  0  0  0  0
  150.7119  140.2409  157.5833 C   0  0  2  0  0  0  0  0  0  0  0  0
  151.2641  140.9115  158.8643 C   0  0  0  0  0  0  0  0  0  0  0  0
  150.7631  142.3462  159.1623 C   0  0  0  0  0  0  0  0  0  0  0  0
  150.9747  143.3122  157.9749 C   0  0  0  0  0  0  0  0  0  0  0  0
  150.5174  144.7410  158.3102 C   0  0  0  0  0  0  0  0  0  0  0  0
  151.2132  145.2735  159.5701 C   0  0  0  0  0  0  0  0  0  0  0  0
  150.9878  144.3281  160.7584 C   0  0  0  0  0  0  0  0  0  0  0  0
  151.4523  142.9012  160.4268 C   0  0  0  0  0  0  0  0  0  0  0  0
  150.6260  138.7145  157.7255 C   0  0  0  0  0  0  0  0  0  0  0  0
  151.3171  137.9828  157.0160 O   0  0  0  0  0  0  0  0  0  0  0  0
  149.7829  138.2500  158.6578 N   0  0  0  0  0  0  0  0  0  0  0  0
  149.6007  136.8407  158.9792 C   0  0  0  0  0  0  0  0  0  0  0  0
  148.1245  136.4246  158.8704 C   0  0  0  0  0  0  0  0  0  0  0  0
  147.5446  135.9432  160.1691 C   0  0  0  0  0  0  0  0  0  0  0  0
  147.3417  134.6372  160.5469 C   0  0  0  0  0  0  0  0  0  0  0  0
  146.6465  134.5164  162.1408 S   0  0  0  0  0  0  0  0  0  0  0  0
  146.6584  136.2697  162.2263 C   0  0  0  0  0  0  0  0  0  0  0  0
  147.1466  136.8687  161.1399 N   0  0  0  0  0  0  0  0  0  0  0  0
  151.1935  140.1315  155.4531 H   0  0  0  0  0  0  0  0  0  0  0  0
  152.6077  140.3127  156.4894 H   0  0  0  0  0  0  0  0  0  0  0  0
  151.5522  141.6876  156.1853 H   0  0  0  0  0  0  0  0  0  0  0  0
  149.7088  140.6257  157.3949 H   0  0  0  0  0  0  0  0  0  0  0  0
  151.0301  140.2749  159.7190 H   0  0  0  0  0  0  0  0  0  0  0  0
  152.3533  140.9287  158.8063 H   0  0  0  0  0  0  0  0  0  0  0  0
  149.6939  142.3058  159.3748 H   0  0  0  0  0  0  0  0  0  0  0  0
  152.0280  143.3234  157.6914 H   0  0  0  0  0  0  0  0  0  0  0  0
  150.4219  142.9686  157.1007 H   0  0  0  0  0  0  0  0  0  0  0  0
  150.7187  145.4026  157.4674 H   0  0  0  0  0  0  0  0  0  0  0  0
  149.4375  144.7504  158.4610 H   0  0  0  0  0  0  0  0  0  0  0  0
  152.2823  145.3795  159.3823 H   0  0  0  0  0  0  0  0  0  0  0  0
  150.8393  146.2694  159.8093 H   0  0  0  0  0  0  0  0  0  0  0  0
  151.5218  144.6985  161.6338 H   0  0  0  0  0  0  0  0  0  0  0  0
  149.9295  144.3173  161.0225 H   0  0  0  0  0  0  0  0  0  0  0  0
  151.2498  142.2497  161.2776 H   0  0  0  0  0  0  0  0  0  0  0  0
  152.5343  142.8973  160.2882 H   0  0  0  0  0  0  0  0  0  0  0  0
  149.2552  138.9180  159.2006 H   0  0  0  0  0  0  0  0  0  0  0  0
  150.2102  136.2314  158.3105 H   0  0  0  0  0  0  0  0  0  0  0  0
  149.9591  136.6581  159.9938 H   0  0  0  0  0  0  0  0  0  0  0  0
  147.5444  137.2707  158.4999 H   0  0  0  0  0  0  0  0  0  0  0  0
  148.0282  135.6485  158.1101 H   0  0  0  0  0  0  0  0  0  0  0  0
  147.5598  133.7408  159.9856 H   0  0  0  0  0  0  0  0  0  0  0  0
  146.3082  136.8516  163.0659 H   0  0  0  0  0  0  0  0  0  0  0  0
  1  2  1  0  0  0  0
  1 20  1  0  0  0  0
  1 21  1  0  0  0  0
  1 22  1  0  0  0  0
  2  3  1  0  0  0  0
  2 10  1  0  0  0  0
  2 23  1  0  0  0  0
  3  4  1  0  0  0  0
  3 24  1  0  0  0  0
  3 25  1  0  0  0  0
  4  9  1  0  0  0  0
  4  5  1  0  0  0  0
  4 26  1  0  0  0  0
  5  6  1  0  0  0  0
  5 27  1  0  0  0  0
  5 28  1  0  0  0  0
  6  7  1  0  0  0  0
  6 29  1  0  0  0  0
  6 30  1  0  0  0  0
  7  8  1  0  0  0  0
  7 31  1  0  0  0  0
  7 32  1  0  0  0  0
  8  9  1  0  0  0  0
  8 33  1  0  0  0  0
  8 34  1  0  0  0  0
  9 35  1  0  0  0  0
  9 36  1  0  0  0  0
 10 11  2  0  0  0  0
 10 12  1  0  0  0  0
 12 13  1  0  0  0  0
 12 37  1  0  0  0  0
 13 14  1  0  0  0  0
 13 38  1  0  0  0  0
 13 39  1  0  0  0  0
 14 15  1  0  0  0  0
 14 40  1  0  0  0  0
 14 41  1  0  0  0  0
 15 19  1  0  0  0  0
 15 16  2  0  0  0  0
 16 17  1  0  0  0  0
 16 42  1  0  0  0  0
 17 18  1  0  0  0  0
 18 19  2  0  0  0  0
 18 43  1  0  0  0  0
M  END
> <s_m_source_file>
AV-unprocessed.smi

> <i_m_source_file_index>
943

> <i_lp_mmshare_version>
43012

> <i_f3d_flags>
0

> <s_epik_input>
W0NIMl0xW0NIMl1bQ0gyXVtDSDJdW0NIMl1bQ0hdMVtDSDJdW0NAQEhdKFtDSDNdKUMoPU8pW05IXVtDSDJdW0NIMl1jMltjSF1zW2NIXW4y

> <s_epik_cmdline>
J2VwaWtfcHl0aG9uJywgJy1waCcsICc3LjAnLCAnLXRuJywgJzgnLCAnLW1hJywgJzIwMCcsICctbWV0YWxfYmluZGluZycsICctaW1hZScsICc8aW5maWxlLm1hZT4nLCAnLW9tYWUnLCAnPG91dGZpbGUubWFlPic=

> <r_lp_tautomer_probability>
1

> <r_epik_Ionization_Penalty>
0.000194757

> <r_epik_Ionization_Penalty_Charging>
0

> <r_epik_Ionization_Penalty_Neutral>
0.000194757

> <r_epik_State_Penalty>
-0

> <r_epik_Charging_Adjusted_Penalty>
0

> <i_epik_Tot_Q>
0

> <i_epik_Tot_abs_Q>
0

> <r_epik_Metal_State_Penalty>
-0

> <b_epik_Metal_Only>
0

> <s_lp_Force_Field>
OPLS_2005

> <r_lp_Energy>
6.00362

> <b_lp_Chiralities_Consistent>
1

> <s_lp_Variant>
AV-unprocessed.smi:943-1

> <Gold.Version>
5.8.1

> <Gold.Id.Protein>
6NUR|6NUR_protein|mol2

> <Gold.PLP.Fitness>
49.5834

> <Gold.PLP.PLP>
-46.4954

> <Gold.PLP.part.hbond>
-2.0000

> <Gold.PLP.part.metal>
0.0000

> <Gold.PLP.part.buried>
-5.3260

> <Gold.PLP.part.nonpolar>
-38.8965

> <Gold.PLP.part.repulsive>
0.1942

> <Gold.PLP.ligand.clash>
0.0000

> <Gold.PLP.ligand.torsion>
1.0810

> <Gold.PLP.Chemscore.Hbond>
1.6978

> <Gold.PLP.Chemscore.CHOScore>
0.0000

> <Gold.PLP.Chemscore.Metal>
0.0000

> <Gold.Chemscore.Hbonds>
donor molecule, donor type, donor heavy atom, donor atom, acceptor molecule, acceptor atom, score
      P1  H  6934  6947       L1    19  0.67

> <Gold.PLP.Chemscore.Internal.Correction>
0.1565

> <Gold.Rescore>
     Score         DG    S(hbond)    S(metal)    S(lipo)     H(rot)  DE(clash)    DE(int)     intcor
     20.14     -21.12       1.50        0.00     125.56       1.58       0.00       0.98       ----

> <Gold.Chemscore.Fitness>
20.1415

> <Gold.Chemscore.DG>
-21.1241

> <Gold.Chemscore.ZeroCoef>
-5.4800

> <Gold.Chemscore.Hbond>
1.4956

> <Gold.Chemscore.Metal>
0.0000

> <Gold.Chemscore.Lipo>
125.5606

> <Gold.Chemscore.Internal_Hbond>
0.0000

> <Gold.Chemscore.DEClash>
0.0009

> <Gold.Chemscore.DEInternal>
0.9818

> <Gold.Chemscore.Rot>
1.5789

> <Gold.Chemscore.Internal.Correction>
   9.000000E+99

> <Gold.Chemscore.Hbonds>
donor molecule, donor type, donor heavy atom, donor atom, acceptor molecule, acceptor atom, score
      P1  H  6931  6943       L1    19  0.02
      P1  H  6934  6947       L1    19  0.65

> <Gold.Chemscore.Hbond.Weighted>
-4.9954

> <Gold.Chemscore.Metal.Weighted>
-0.0000

> <Gold.Chemscore.Lipo.Weighted>
-14.6906

> <Gold.Chemscore.Internal_Hbond.Weighted>
0.0000

> <Gold.Chemscore.DEClash.Weighted>
0.0009

> <Gold.Chemscore.DEInternal.Weighted>
0.9818

> <Gold.Chemscore.Rot.Weighted>
4.0419

> <Gold.Chemscore.Internal.Correction.Weighted>
   9.000000E+99

> <Gold.Protein.RotatedTorsions>
[ 6907 6896 6895 6894 ] final  -49.09 input  -60.11 | X-H torsion
[ 7974 7965 7964 7962 ] final -164.43 input  175.53 | X-H torsion
[ 8008 7997 7996 7995 ] final   -3.00 input   59.86 | X-H torsion
[ 10167 10162 10161 10158 ] final  167.03 input  -65.29 | X-H torsion
[ 10718 10713 10712 10709 ] final    7.89 input   66.30 | X-H torsion
[ 10763 10752 10751 10750 ] final -119.16 input  -60.55 | X-H torsion
[ 11005 11000 10999 10996 ] final  157.19 input  -57.11 | X-H torsion

> <Gold.Protein.ActiveResidues>
 VAL166  LYS551  ARG553  GLY616  TRP617  ASP618  TYR619  PRO620  LYS621  CYS622 
 ASP623  PHE694  ASN695  SER759  ASP760  ASP761  ALA762  ILE779  LEU786  VAL792 
 PHE793  MET794  SER795  GLU796  ALA797  LYS798  CYS799  TRP800  GLU811  SER814 

> <Gold.Protein.RotatedAtoms>
  150.8839  134.8234  159.7244 H   0  0  0  0  0  0  0  0  0  0  0  0  # atno 6907 bound_to 6896
  152.4795  134.4752  159.9658 H   0  0  0  0  0  0  0  0  0  0  0  0  # atno 6908 bound_to 6896
  151.4824  133.3505  159.2875 H   0  0  0  0  0  0  0  0  0  0  0  0  # atno 6909 bound_to 6896
  144.7297  140.2962  143.6212 H   0  0  0  0  0  0  0  0  0  0  0  0  # atno 7974 bound_to 7965
  154.6296  140.2520  155.7449 H   0  0  0  0  0  0  0  0  0  0  0  0  # atno 8008 bound_to 7997
  156.2472  140.2909  156.0562 H   0  0  0  0  0  0  0  0  0  0  0  0  # atno 8009 bound_to 7997
  155.1766  140.0388  157.2864 H   0  0  0  0  0  0  0  0  0  0  0  0  # atno 8010 bound_to 7997
  139.4937  144.3965  151.9458 H   0  0  0  0  0  0  0  0  0  0  0  0  # atno 10167 bound_to 10162
  156.9435  130.5870  149.5653 H   0  0  0  0  0  0  0  0  0  0  0  0  # atno 10718 bound_to 10713
  154.8609  135.4248  154.2254 H   0  0  0  0  0  0  0  0  0  0  0  0  # atno 10763 bound_to 10752
  153.3250  135.6984  153.7003 H   0  0  0  0  0  0  0  0  0  0  0  0  # atno 10764 bound_to 10752
  153.6042  135.3531  155.2930 H   0  0  0  0  0  0  0  0  0  0  0  0  # atno 10765 bound_to 10752
  140.1746  134.8519  157.2731 H   0  0  0  0  0  0  0  0  0  0  0  0  # atno 11005 bound_to 11000
  145.7806  139.1890  143.2160 LP  0  0  0  0  0  0  0  0  0  0  0  0  # atno 17320 bound_to 7965
  146.0837  140.7735  142.9629 LP  0  0  0  0  0  0  0  0  0  0  0  0  # atno 17321 bound_to 7965
  140.3403  144.3211  150.5968 LP  0  0  0  0  0  0  0  0  0  0  0  0  # atno 17342 bound_to 10162
  140.5571  143.2197  151.7828 LP  0  0  0  0  0  0  0  0  0  0  0  0  # atno 17343 bound_to 10162
  156.0394  130.5478  150.8733 LP  0  0  0  0  0  0  0  0  0  0  0  0  # atno 17370 bound_to 10713
  157.5769  131.0946  150.9332 LP  0  0  0  0  0  0  0  0  0  0  0  0  # atno 17371 bound_to 10713
  140.2338  134.3878  155.7510 LP  0  0  0  0  0  0  0  0  0  0  0  0  # atno 17394 bound_to 11000
  141.2219  133.7229  156.8682 LP  0  0  0  0  0  0  0  0  0  0  0  0  # atno 17395 bound_to 11000

$$$$
