AV-unprocessed.smi:709|AV-procd|sdf|3460|dock5
  -GOLD-   22720 0453D 1   1.00000     0.00000
 Structure written by MMmdl.
 48 50  0  0  0  0  0  0  0  0  1 V2000
  153.2799  137.5610  158.3681 C   0  0  0  0  0  0  0  0  0  0  0  0
  153.5950  137.4582  156.8744 C   0  0  0  0  0  0  0  0  0  0  0  0
  153.1299  136.2088  156.3936 O   0  0  0  0  0  0  0  0  0  0  0  0
  151.7457  136.0087  156.6326 C   0  0  2  0  0  0  0  0  0  0  0  0
  151.1770  134.7036  156.0655 C   0  0  0  0  0  0  0  0  0  0  0  0
  149.9213  135.5204  155.7532 C   0  0  2  0  0  0  0  0  0  0  0  0
  149.2791  135.1177  154.5066 N   0  0  0  0  0  0  0  0  0  0  0  0
  148.4683  134.0579  154.3846 C   0  0  0  0  0  0  0  0  0  0  0  0
  148.1864  133.3171  155.3260 O   0  0  0  0  0  0  0  0  0  0  0  0
  148.0151  133.9409  153.1225 N   0  0  0  0  0  0  0  0  0  0  0  0
  147.1730  132.9658  152.5573 C   0  0  0  0  0  0  0  0  0  0  0  0
  147.2096  131.6417  152.8542 C   0  0  0  0  0  0  0  0  0  0  0  0
  146.3114  130.7117  152.2129 C   0  0  0  0  0  0  0  0  0  0  0  0
  145.4438  131.1843  151.3078 C   0  0  0  0  0  0  0  0  0  0  0  0
  145.3933  132.5492  150.9784 N   0  0  0  0  0  0  0  0  0  0  0  0
  144.4122  132.9676  149.9739 C   0  0  0  0  0  0  0  0  0  0  0  0
  146.2150  133.4755  151.5562 C   0  0  0  0  0  0  0  0  0  0  0  0
  146.1476  134.6678  151.2470 O   0  0  0  0  0  0  0  0  0  0  0  0
  150.8268  136.7749  155.6483 C   0  0  0  0  0  0  0  0  0  0  0  0
  151.4225  137.1636  154.2883 C   0  0  0  0  0  0  0  0  0  0  0  0
  151.9891  138.5757  154.4463 C   0  0  0  0  0  0  0  0  0  0  0  0
  151.1960  139.2100  155.5936 C   0  0  0  0  0  0  0  0  0  0  0  0
  150.2682  138.1116  156.1246 C   0  0  0  0  0  0  0  0  0  0  0  0
  153.6221  138.5131  158.7740 H   0  0  0  0  0  0  0  0  0  0  0  0
  153.7696  136.7631  158.9268 H   0  0  0  0  0  0  0  0  0  0  0  0
  152.2070  137.4869  158.5470 H   0  0  0  0  0  0  0  0  0  0  0  0
  153.1143  138.2754  156.3349 H   0  0  0  0  0  0  0  0  0  0  0  0
  154.6710  137.5453  156.7161 H   0  0  0  0  0  0  0  0  0  0  0  0
  151.4630  136.1739  157.6753 H   0  0  0  0  0  0  0  0  0  0  0  0
  151.7096  134.3513  155.1799 H   0  0  0  0  0  0  0  0  0  0  0  0
  151.0373  133.9095  156.7993 H   0  0  0  0  0  0  0  0  0  0  0  0
  149.2448  135.5621  156.6108 H   0  0  0  0  0  0  0  0  0  0  0  0
  149.4601  135.6842  153.6907 H   0  0  0  0  0  0  0  0  0  0  0  0
  148.3005  134.6652  152.4794 H   0  0  0  0  0  0  0  0  0  0  0  0
  147.9115  131.2315  153.5611 H   0  0  0  0  0  0  0  0  0  0  0  0
  146.3389  129.6598  152.4564 H   0  0  0  0  0  0  0  0  0  0  0  0
  144.7413  130.5525  150.7842 H   0  0  0  0  0  0  0  0  0  0  0  0
  143.7127  133.6885  150.3991 H   0  0  0  0  0  0  0  0  0  0  0  0
  143.8254  132.1347  149.5851 H   0  0  0  0  0  0  0  0  0  0  0  0
  144.9102  133.4374  149.1244 H   0  0  0  0  0  0  0  0  0  0  0  0
  152.1834  136.4646  153.9397 H   0  0  0  0  0  0  0  0  0  0  0  0
  150.6454  137.1874  153.5239 H   0  0  0  0  0  0  0  0  0  0  0  0
  153.0454  138.5258  154.7134 H   0  0  0  0  0  0  0  0  0  0  0  0
  151.9102  139.1491  153.5221 H   0  0  0  0  0  0  0  0  0  0  0  0
  151.8777  139.5459  156.3759 H   0  0  0  0  0  0  0  0  0  0  0  0
  150.6260  140.0779  155.2606 H   0  0  0  0  0  0  0  0  0  0  0  0
  149.2668  138.2592  155.7193 H   0  0  0  0  0  0  0  0  0  0  0  0
  150.1762  138.1611  157.2099 H   0  0  0  0  0  0  0  0  0  0  0  0
  1  2  1  0  0  0  0
  1 24  1  0  0  0  0
  1 25  1  0  0  0  0
  1 26  1  0  0  0  0
  2  3  1  0  0  0  0
  2 27  1  0  0  0  0
  2 28  1  0  0  0  0
  3  4  1  0  0  0  0
  4 19  1  0  0  0  0
  4  5  1  0  0  0  0
  4 29  1  0  0  0  0
  5  6  1  0  0  0  0
  5 30  1  0  0  0  0
  5 31  1  0  0  0  0
  6  7  1  0  0  0  0
  6 19  1  0  0  0  0
  6 32  1  0  0  0  0
  7  8  1  0  0  0  0
  7 33  1  0  0  0  0
  8  9  2  0  0  0  0
  8 10  1  0  0  0  0
 10 11  1  0  0  0  0
 10 34  1  0  0  0  0
 11 17  1  0  0  0  0
 11 12  2  0  0  0  0
 12 13  1  0  0  0  0
 12 35  1  0  0  0  0
 13 14  2  0  0  0  0
 13 36  1  0  0  0  0
 14 15  1  0  0  0  0
 14 37  1  0  0  0  0
 15 16  1  0  0  0  0
 15 17  1  0  0  0  0
 16 38  1  0  0  0  0
 16 39  1  0  0  0  0
 16 40  1  0  0  0  0
 17 18  2  0  0  0  0
 19 23  1  0  0  0  0
 19 20  1  0  0  0  0
 20 21  1  0  0  0  0
 20 41  1  0  0  0  0
 20 42  1  0  0  0  0
 21 22  1  0  0  0  0
 21 43  1  0  0  0  0
 21 44  1  0  0  0  0
 22 23  1  0  0  0  0
 22 45  1  0  0  0  0
 22 46  1  0  0  0  0
 23 47  1  0  0  0  0
 23 48  1  0  0  0  0
M  END
> <s_m_source_file>
AV-unprocessed.smi

> <i_m_source_file_index>
709

> <i_lp_mmshare_version>
43012

> <i_f3d_flags>
0

> <s_epik_input>
W0NIMl0xW0NIMl1bQ0gyXVtDSDJdQzEyW0NASF0oT1tDSDJdW0NIM10pW0NIMl1bQ0BIXTJbTkhdQyg9TylbTkhdYzNbY0hdW2NIXVtjSF1uKFtDSDNdKWMzPU8=

> <s_epik_cmdline>
J2VwaWtfcHl0aG9uJywgJy1waCcsICc3LjAnLCAnLXRuJywgJzgnLCAnLW1hJywgJzIwMCcsICctbWV0YWxfYmluZGluZycsICctaW1hZScsICc8aW5maWxlLm1hZT4nLCAnLW9tYWUnLCAnPG91dGZpbGUubWFlPic=

> <r_lp_tautomer_probability>
1

> <r_epik_Ionization_Penalty>
2.50859e-05

> <r_epik_Ionization_Penalty_Charging>
5.10493e-06

> <r_epik_Ionization_Penalty_Neutral>
1.9981e-05

> <r_epik_State_Penalty>
-0

> <r_epik_Charging_Adjusted_Penalty>
5.10493e-06

> <i_epik_Tot_Q>
0

> <i_epik_Tot_abs_Q>
0

> <r_epik_Metal_State_Penalty>
-0

> <b_epik_Metal_Only>
0

> <s_lp_Force_Field>
OPLS_2005

> <r_lp_Energy>
49.811

> <b_lp_Chiralities_Consistent>
1

> <s_lp_Variant>
AV-unprocessed.smi:709-3

> <Gold.Version>
5.8.1

> <Gold.Id.Protein>
6NUR|6NUR_protein|mol2

> <Gold.PLP.Fitness>
43.7079

> <Gold.PLP.PLP>
-35.4335

> <Gold.PLP.part.hbond>
-3.0000

> <Gold.PLP.part.metal>
0.0000

> <Gold.PLP.part.buried>
-4.4087

> <Gold.PLP.part.nonpolar>
-27.8223

> <Gold.PLP.part.repulsive>
0.2272

> <Gold.PLP.ligand.clash>
0.0000

> <Gold.PLP.ligand.torsion>
0.5081

> <Gold.PLP.Chemscore.Hbond>
2.9920

> <Gold.PLP.Chemscore.CHOScore>
0.0000

> <Gold.PLP.Chemscore.Metal>
0.0000

> <Gold.Chemscore.Hbonds>
donor molecule, donor type, donor heavy atom, donor atom, acceptor molecule, acceptor atom, score
      L1  H     7    33       P1  7948  0.99
      L1  H    10    34       P1  7948  1.00
      P1  H 10752 10764       L1     3  0.70

> <Gold.PLP.Chemscore.Internal.Correction>
0.3146

> <Gold.Rescore>
     Score         DG    S(hbond)    S(metal)    S(lipo)     H(rot)  DE(clash)    DE(int)     intcor
     20.33     -20.90       2.69        0.00      84.71       1.36       0.02       0.55       ----

> <Gold.Chemscore.Fitness>
20.3298

> <Gold.Chemscore.DG>
-20.8959

> <Gold.Chemscore.ZeroCoef>
-5.4800

> <Gold.Chemscore.Hbond>
2.6903

> <Gold.Chemscore.Metal>
0.0000

> <Gold.Chemscore.Lipo>
84.7142

> <Gold.Chemscore.Internal_Hbond>
0.0000

> <Gold.Chemscore.DEClash>
0.0202

> <Gold.Chemscore.DEInternal>
0.5458

> <Gold.Chemscore.Rot>
1.3599

> <Gold.Chemscore.Internal.Correction>
   9.000000E+99

> <Gold.Chemscore.Hbonds>
donor molecule, donor type, donor heavy atom, donor atom, acceptor molecule, acceptor atom, score
      L1  H     7    33       P1  7948  0.33
      L1  H    10    34       P1  7948  0.26
      P1  H 10752 10764       L1     3  0.26

> <Gold.Chemscore.Hbond.Weighted>
-8.9856

> <Gold.Chemscore.Metal.Weighted>
-0.0000

> <Gold.Chemscore.Lipo.Weighted>
-9.9116

> <Gold.Chemscore.Internal_Hbond.Weighted>
0.0000

> <Gold.Chemscore.DEClash.Weighted>
0.0202

> <Gold.Chemscore.DEInternal.Weighted>
0.5458

> <Gold.Chemscore.Rot.Weighted>
3.4813

> <Gold.Chemscore.Internal.Correction.Weighted>
   9.000000E+99

> <Gold.Protein.RotatedTorsions>
[ 6907 6896 6895 6894 ] final -178.26 input  -60.11 | X-H torsion
[ 7974 7965 7964 7962 ] final  156.04 input  175.53 | X-H torsion
[ 8008 7997 7996 7995 ] final -110.52 input   59.86 | X-H torsion
[ 10167 10162 10161 10158 ] final   -5.78 input  -65.29 | X-H torsion
[ 10718 10713 10712 10709 ] final -146.67 input   66.30 | X-H torsion
[ 10763 10752 10751 10750 ] final  -12.94 input  -60.55 | X-H torsion
[ 11005 11000 10999 10996 ] final -167.83 input  -57.11 | X-H torsion

> <Gold.Protein.ActiveResidues>
 VAL166  LYS551  ARG553  GLY616  TRP617  ASP618  TYR619  PRO620  LYS621  CYS622 
 ASP623  PHE694  ASN695  SER759  ASP760  ASP761  ALA762  ILE779  LEU786  VAL792 
 PHE793  MET794  SER795  GLU796  ALA797  LYS798  CYS799  TRP800  GLU811  SER814 

> <Gold.Protein.RotatedAtoms>
  151.6343  133.3330  159.3115 H   0  0  0  0  0  0  0  0  0  0  0  0  # atno 6907 bound_to 6896
  150.8040  134.7157  159.6638 H   0  0  0  0  0  0  0  0  0  0  0  0  # atno 6908 bound_to 6896
  152.4134  134.6088  160.0071 H   0  0  0  0  0  0  0  0  0  0  0  0  # atno 6909 bound_to 6896
  144.7988  139.7149  143.6191 H   0  0  0  0  0  0  0  0  0  0  0  0  # atno 7974 bound_to 7965
  154.9758  140.0397  157.2255 H   0  0  0  0  0  0  0  0  0  0  0  0  # atno 8008 bound_to 7997
  154.7759  140.2810  155.6079 H   0  0  0  0  0  0  0  0  0  0  0  0  # atno 8009 bound_to 7997
  156.2928  140.2601  156.2573 H   0  0  0  0  0  0  0  0  0  0  0  0  # atno 8010 bound_to 7997
  140.6975  143.6269  150.8560 H   0  0  0  0  0  0  0  0  0  0  0  0  # atno 10167 bound_to 10162
  156.3978  130.7918  151.2126 H   0  0  0  0  0  0  0  0  0  0  0  0  # atno 10718 bound_to 10713
  153.5060  135.7017  153.5806 H   0  0  0  0  0  0  0  0  0  0  0  0  # atno 10763 bound_to 10752
  153.3917  135.3894  155.1928 H   0  0  0  0  0  0  0  0  0  0  0  0  # atno 10764 bound_to 10752
  154.8707  135.3860  154.4535 H   0  0  0  0  0  0  0  0  0  0  0  0  # atno 10765 bound_to 10752
  140.5488  134.5449  157.5117 H   0  0  0  0  0  0  0  0  0  0  0  0  # atno 11005 bound_to 11000
  146.2263  139.5729  142.9585 LP  0  0  0  0  0  0  0  0  0  0  0  0  # atno 17320 bound_to 7965
  145.5606  141.0404  143.2228 LP  0  0  0  0  0  0  0  0  0  0  0  0  # atno 17321 bound_to 7965
  139.9988  143.5767  152.2883 LP  0  0  0  0  0  0  0  0  0  0  0  0  # atno 17342 bound_to 10162
  139.6448  144.7657  151.2265 LP  0  0  0  0  0  0  0  0  0  0  0  0  # atno 17343 bound_to 10162
  157.7502  131.0296  150.4099 LP  0  0  0  0  0  0  0  0  0  0  0  0  # atno 17370 bound_to 10713
  156.4373  130.3984  149.6720 LP  0  0  0  0  0  0  0  0  0  0  0  0  # atno 17371 bound_to 10713
  139.9466  134.7692  156.0548 LP  0  0  0  0  0  0  0  0  0  0  0  0  # atno 17394 bound_to 11000
  141.1184  133.6620  156.3151 LP  0  0  0  0  0  0  0  0  0  0  0  0  # atno 17395 bound_to 11000

$$$$
