AV-unprocessed.smi:653|AV-procd|sdf|3204|dock7
  -GOLD-   22720 0143D 1   1.00000     0.00000
 Structure written by MMmdl.
 44 45  0  0  0  0  0  0  0  0  1 V2000
  144.5750  131.7225  150.2228 C   0  0  0  0  0  0  0  0  0  0  0  0
  144.9545  133.1022  150.7183 C   0  0  0  0  0  0  0  0  0  0  0  0
  146.0049  133.2737  151.6444 C   0  0  0  0  0  0  0  0  0  0  0  0
  146.3112  134.5784  152.0764 C   0  0  0  0  0  0  0  0  0  0  0  0
  145.5582  135.6577  151.5690 C   0  0  0  0  0  0  0  0  0  0  0  0
  145.8455  137.0848  152.0063 C   0  0  0  0  0  0  0  0  0  0  0  0
  146.2021  137.1785  153.4948 C   0  0  0  0  0  0  0  0  0  0  0  0
  145.3262  137.2037  154.3610 O   0  0  0  0  0  0  0  0  0  0  0  0
  147.5125  137.2303  153.7769 N   0  0  0  0  0  0  0  0  0  0  0  0
  148.0763  137.3456  155.1175 C   0  0  0  0  0  0  0  0  0  0  0  0
  148.7110  138.7300  155.3555 C   0  0  2  0  0  0  0  0  0  0  0  0
  147.9204  139.8873  154.7762 C   0  0  0  0  0  0  0  0  0  0  0  0
  148.9725  140.9890  154.7301 C   0  0  0  0  0  0  0  0  0  0  0  0
  150.2036  140.3296  154.4534 O   0  0  0  0  0  0  0  0  0  0  0  0
  150.0694  138.9247  154.6647 C   0  0  1  0  0  0  0  0  0  0  0  0
  151.2990  138.3515  155.4069 C   0  0  0  0  0  0  0  0  0  0  0  0
  152.6414  138.7244  154.7512 C   0  0  0  0  0  0  0  0  0  0  0  0
  151.1810  136.8273  155.5629 C   0  0  0  0  0  0  0  0  0  0  0  0
  144.5290  135.3772  150.6453 C   0  0  0  0  0  0  0  0  0  0  0  0
  144.2274  134.1295  150.2263 N   0  0  0  0  0  0  0  0  0  0  0  0
  145.3668  131.0009  150.4258 H   0  0  0  0  0  0  0  0  0  0  0  0
  144.3963  131.7353  149.1470 H   0  0  0  0  0  0  0  0  0  0  0  0
  143.6659  131.3820  150.7187 H   0  0  0  0  0  0  0  0  0  0  0  0
  146.5639  132.4277  152.0167 H   0  0  0  0  0  0  0  0  0  0  0  0
  147.1105  134.7465  152.7831 H   0  0  0  0  0  0  0  0  0  0  0  0
  146.6677  137.4921  151.4168 H   0  0  0  0  0  0  0  0  0  0  0  0
  144.9711  137.7041  151.8010 H   0  0  0  0  0  0  0  0  0  0  0  0
  148.1659  137.1995  153.0077 H   0  0  0  0  0  0  0  0  0  0  0  0
  147.3035  137.1485  155.8623 H   0  0  0  0  0  0  0  0  0  0  0  0
  148.8244  136.5615  155.2386 H   0  0  0  0  0  0  0  0  0  0  0  0
  148.8121  138.9016  156.4266 H   0  0  0  0  0  0  0  0  0  0  0  0
  147.5797  139.6530  153.7665 H   0  0  0  0  0  0  0  0  0  0  0  0
  147.0519  140.1581  155.3775 H   0  0  0  0  0  0  0  0  0  0  0  0
  148.7494  141.7511  153.9833 H   0  0  0  0  0  0  0  0  0  0  0  0
  149.0525  141.4779  155.7019 H   0  0  0  0  0  0  0  0  0  0  0  0
  150.0096  138.4710  153.6736 H   0  0  0  0  0  0  0  0  0  0  0  0
  151.3008  138.7708  156.4134 H   0  0  0  0  0  0  0  0  0  0  0  0
  152.6965  138.3669  153.7226 H   0  0  0  0  0  0  0  0  0  0  0  0
  153.4756  138.2821  155.2965 H   0  0  0  0  0  0  0  0  0  0  0  0
  152.8073  139.8007  154.7403 H   0  0  0  0  0  0  0  0  0  0  0  0
  151.1702  136.3289  154.5931 H   0  0  0  0  0  0  0  0  0  0  0  0
  150.2652  136.5541  156.0875 H   0  0  0  0  0  0  0  0  0  0  0  0
  152.0174  136.4239  156.1341 H   0  0  0  0  0  0  0  0  0  0  0  0
  143.9299  136.1748  150.2311 H   0  0  0  0  0  0  0  0  0  0  0  0
  1  2  1  0  0  0  0
  1 21  1  0  0  0  0
  1 22  1  0  0  0  0
  1 23  1  0  0  0  0
  2 20  1  0  0  0  0
  2  3  2  0  0  0  0
  3  4  1  0  0  0  0
  3 24  1  0  0  0  0
  4  5  2  0  0  0  0
  4 25  1  0  0  0  0
  5  6  1  0  0  0  0
  5 19  1  0  0  0  0
  6  7  1  0  0  0  0
  6 26  1  0  0  0  0
  6 27  1  0  0  0  0
  7  8  2  0  0  0  0
  7  9  1  0  0  0  0
  9 10  1  0  0  0  0
  9 28  1  0  0  0  0
 10 11  1  0  0  0  0
 10 29  1  0  0  0  0
 10 30  1  0  0  0  0
 11 15  1  0  0  0  0
 11 12  1  0  0  0  0
 11 31  1  0  0  0  0
 12 13  1  0  0  0  0
 12 32  1  0  0  0  0
 12 33  1  0  0  0  0
 13 14  1  0  0  0  0
 13 34  1  0  0  0  0
 13 35  1  0  0  0  0
 14 15  1  0  0  0  0
 15 16  1  0  0  0  0
 15 36  1  0  0  0  0
 16 17  1  0  0  0  0
 16 18  1  0  0  0  0
 16 37  1  0  0  0  0
 17 38  1  0  0  0  0
 17 39  1  0  0  0  0
 17 40  1  0  0  0  0
 18 41  1  0  0  0  0
 18 42  1  0  0  0  0
 18 43  1  0  0  0  0
 19 20  2  0  0  0  0
 19 44  1  0  0  0  0
M  END
> <s_m_source_file>
AV-unprocessed.smi

> <i_m_source_file_index>
653

> <i_lp_mmshare_version>
43012

> <i_f3d_flags>
0

> <s_epik_input>
W0NIM11jMVtjSF1bY0hdYyhbY0hdbjEpW0NIMl1DKD1PKVtOSF1bQ0gyXVtDQEBIXTJbQ0gyXVtDSDJdT1tDQEhdMltDSF0oW0NIM10pW0NIM10=

> <s_epik_cmdline>
J2VwaWtfcHl0aG9uJywgJy1waCcsICc3LjAnLCAnLXRuJywgJzgnLCAnLW1hJywgJzIwMCcsICctbWV0YWxfYmluZGluZycsICctaW1hZScsICc8aW5maWxlLm1hZT4nLCAnLW9tYWUnLCAnPG91dGZpbGUubWFlPic=

> <r_epik_Ionization_Penalty>
0.0166429

> <r_epik_Ionization_Penalty_Charging>
0

> <r_epik_Ionization_Penalty_Neutral>
0.0166429

> <r_epik_State_Penalty>
0.0131478

> <r_epik_Charging_Adjusted_Penalty>
0.0131478

> <i_epik_Tot_Q>
0

> <i_epik_Tot_abs_Q>
0

> <r_epik_Metal_State_Penalty>
0.012786

> <b_epik_Metal_Only>
0

> <s_lp_Force_Field>
OPLS_2005

> <r_lp_Energy>
19.6488

> <b_lp_Chiralities_Consistent>
1

> <s_lp_Variant>
AV-unprocessed.smi:653-1

> <Gold.Version>
5.8.1

> <Gold.Id.Protein>
6NUR|6NUR_protein|mol2

> <Gold.PLP.Fitness>
41.7945

> <Gold.PLP.PLP>
-34.4654

> <Gold.PLP.part.hbond>
-1.7544

> <Gold.PLP.part.metal>
0.0000

> <Gold.PLP.part.buried>
-4.1404

> <Gold.PLP.part.nonpolar>
-30.0556

> <Gold.PLP.part.repulsive>
0.5196

> <Gold.PLP.ligand.clash>
0.0000

> <Gold.PLP.ligand.torsion>
0.8520

> <Gold.PLP.Chemscore.Hbond>
2.0000

> <Gold.PLP.Chemscore.CHOScore>
1.0000

> <Gold.PLP.Chemscore.Metal>
0.0000

> <Gold.Chemscore.Hbonds>
donor molecule, donor type, donor heavy atom, donor atom, acceptor molecule, acceptor atom, score
      L1  H     9    28       P1  7948  0.94
      P1  H  7989  7998       L1    14  0.99
      L1  C    19    44       P1 10171  1.00

> <Gold.PLP.Chemscore.Internal.Correction>
0.0332

> <Gold.Rescore>
     Score         DG    S(hbond)    S(metal)    S(lipo)     H(rot)  DE(clash)    DE(int)     intcor
     17.60     -18.46       1.85        0.00      90.63       1.48       0.15       0.72       ----

> <Gold.Chemscore.Fitness>
17.5991

> <Gold.Chemscore.DG>
-18.4637

> <Gold.Chemscore.ZeroCoef>
-5.4800

> <Gold.Chemscore.Hbond>
1.8508

> <Gold.Chemscore.Metal>
0.0000

> <Gold.Chemscore.Lipo>
90.6301

> <Gold.Chemscore.Internal_Hbond>
0.0000

> <Gold.Chemscore.DEClash>
0.1474

> <Gold.Chemscore.DEInternal>
0.7172

> <Gold.Chemscore.Rot>
1.4850

> <Gold.Chemscore.Internal.Correction>
   9.000000E+99

> <Gold.Chemscore.Hbonds>
donor molecule, donor type, donor heavy atom, donor atom, acceptor molecule, acceptor atom, score
      L1  H     9    28       P1  7948  0.91
      P1  H  7989  7998       L1    14  0.89

> <Gold.Chemscore.Hbond.Weighted>
-6.1815

> <Gold.Chemscore.Metal.Weighted>
-0.0000

> <Gold.Chemscore.Lipo.Weighted>
-10.6037

> <Gold.Chemscore.Internal_Hbond.Weighted>
0.0000

> <Gold.Chemscore.DEClash.Weighted>
0.1474

> <Gold.Chemscore.DEInternal.Weighted>
0.7172

> <Gold.Chemscore.Rot.Weighted>
3.8015

> <Gold.Chemscore.Internal.Correction.Weighted>
   9.000000E+99

> <Gold.Protein.RotatedTorsions>
[ 6907 6896 6895 6894 ] final  -52.09 input  -60.11 | X-H torsion
[ 7974 7965 7964 7962 ] final  -35.00 input  175.53 | X-H torsion
[ 8008 7997 7996 7995 ] final -101.67 input   59.86 | X-H torsion
[ 10167 10162 10161 10158 ] final -130.37 input  -65.29 | X-H torsion
[ 10718 10713 10712 10709 ] final -113.61 input   66.30 | X-H torsion
[ 10763 10752 10751 10750 ] final   27.11 input  -60.55 | X-H torsion
[ 11005 11000 10999 10996 ] final -116.15 input  -57.11 | X-H torsion

> <Gold.Protein.ActiveResidues>
 VAL166  LYS551  ARG553  GLY616  TRP617  ASP618  TYR619  PRO620  LYS621  CYS622 
 ASP623  PHE694  ASN695  SER759  ASP760  ASP761  ALA762  ILE779  LEU786  VAL792 
 PHE793  MET794  SER795  GLU796  ALA797  LYS798  CYS799  TRP800  GLU811  SER814 

> <Gold.Protein.RotatedAtoms>
  150.8550  134.7886  159.7038 H   0  0  0  0  0  0  0  0  0  0  0  0  # atno 6907 bound_to 6896
  152.4604  134.5194  159.9788 H   0  0  0  0  0  0  0  0  0  0  0  0  # atno 6908 bound_to 6896
  151.5308  133.3411  159.2953 H   0  0  0  0  0  0  0  0  0  0  0  0  # atno 6909 bound_to 6896
  146.0783  140.6106  142.8920 H   0  0  0  0  0  0  0  0  0  0  0  0  # atno 7974 bound_to 7965
  154.8458  140.0433  157.1572 H   0  0  0  0  0  0  0  0  0  0  0  0  # atno 8008 bound_to 7997
  154.8996  140.2998  155.5304 H   0  0  0  0  0  0  0  0  0  0  0  0  # atno 8009 bound_to 7997
  156.2994  140.2378  156.4023 H   0  0  0  0  0  0  0  0  0  0  0  0  # atno 8010 bound_to 7997
  139.9300  143.6283  152.2532 H   0  0  0  0  0  0  0  0  0  0  0  0  # atno 10167 bound_to 10162
  156.0777  130.5982  150.8665 H   0  0  0  0  0  0  0  0  0  0  0  0  # atno 10718 bound_to 10713
  153.0577  135.6544  154.0537 H   0  0  0  0  0  0  0  0  0  0  0  0  # atno 10763 bound_to 10752
  154.0211  135.2920  155.3382 H   0  0  0  0  0  0  0  0  0  0  0  0  # atno 10764 bound_to 10752
  154.6901  135.5286  153.8447 H   0  0  0  0  0  0  0  0  0  0  0  0  # atno 10765 bound_to 10752
  141.0441  133.9790  157.2946 H   0  0  0  0  0  0  0  0  0  0  0  0  # atno 11005 bound_to 11000
  144.7276  140.4573  143.6961 LP  0  0  0  0  0  0  0  0  0  0  0  0  # atno 17320 bound_to 7965
  145.6265  139.1531  143.2993 LP  0  0  0  0  0  0  0  0  0  0  0  0  # atno 17321 bound_to 7965
  139.6790  144.7657  151.1643 LP  0  0  0  0  0  0  0  0  0  0  0  0  # atno 17342 bound_to 10162
  140.7640  143.5752  150.8953 LP  0  0  0  0  0  0  0  0  0  0  0  0  # atno 17343 bound_to 10162
  157.5880  131.0945  150.9165 LP  0  0  0  0  0  0  0  0  0  0  0  0  # atno 17370 bound_to 10713
  156.9346  130.5362  149.5279 LP  0  0  0  0  0  0  0  0  0  0  0  0  # atno 17371 bound_to 10713
  139.9298  135.0200  156.8361 LP  0  0  0  0  0  0  0  0  0  0  0  0  # atno 17394 bound_to 11000
  140.6179  134.0021  155.7605 LP  0  0  0  0  0  0  0  0  0  0  0  0  # atno 17395 bound_to 11000

$$$$
