AV-unprocessed.smi:1033|AV-procd|sdf|4504|dock9
  -GOLD-   22720 2503D 1   1.00000     0.00000
 Structure written by MMmdl.
 57 59  0  0  0  0  0  0  0  0  3 V2000
  153.0098  143.0962  161.0782 C   0  0  0  0  0  0  0  0  0  0  0  0
  152.5052  142.3683  159.8439 C   0  0  0  0  0  0  0  0  0  0  0  0
  151.6759  143.0697  158.9392 C   0  0  0  0  0  0  0  0  0  0  0  0
  151.2290  142.3764  157.8207 C   0  0  0  0  0  0  0  0  0  0  0  0
  150.4134  142.7770  156.7601 N   0  3  0  0  0  0  0  0  0  0  0  0
  150.2517  141.7387  155.8939 C   0  0  0  0  0  0  0  0  0  0  0  0
  150.9533  140.6818  156.3859 N   0  0  0  0  0  0  0  0  0  0  0  0
  151.1159  139.3240  155.8498 C   0  0  0  0  0  0  0  0  0  0  0  0
  150.0783  138.9758  154.7633 C   0  0  2  0  0  0  0  0  0  0  0  0
  150.3394  139.7765  153.6264 O   0  0  0  0  0  0  0  0  0  0  0  0
  148.6387  139.2393  155.2507 C   0  0  0  0  0  0  0  0  0  0  0  0
  147.7802  139.9723  154.3125 N   0  0  0  0  0  0  0  0  0  0  0  0
  147.4254  139.1784  153.1361 C   0  0  0  0  0  0  0  0  0  0  0  0
  146.4280  138.0430  153.4462 C   0  0  0  0  0  0  0  0  0  0  0  0
  145.1935  138.5913  154.0646 N   0  3  0  0  0  0  0  0  0  0  0  0
  144.1762  137.5409  154.3234 C   0  0  0  0  0  0  0  0  0  0  0  0
  143.5488  136.9862  153.0292 C   0  0  1  0  0  0  0  0  0  0  0  0
  142.4736  135.9211  153.2914 C   0  0  0  0  0  0  0  0  0  0  0  0
  142.9486  138.0565  152.3308 O   0  0  0  0  0  0  0  0  0  0  0  0
  145.5237  139.4085  155.2632 C   0  0  0  0  0  0  0  0  0  0  0  0
  146.5474  140.5035  154.8985 C   0  0  0  0  0  0  0  0  0  0  0  0
  151.5788  141.0326  157.5863 C   0  0  0  0  0  0  0  0  0  0  0  0
  152.3949  140.3264  158.4665 C   0  0  0  0  0  0  0  0  0  0  0  0
  152.8611  141.0145  159.6095 C   0  0  0  0  0  0  0  0  0  0  0  0
  153.7560  140.2716  160.5870 C   0  0  0  0  0  0  0  0  0  0  0  0
  152.6462  144.1237  161.1122 H   0  0  0  0  0  0  0  0  0  0  0  0
  154.0995  143.1285  161.0854 H   0  0  0  0  0  0  0  0  0  0  0  0
  152.6710  142.5930  161.9841 H   0  0  0  0  0  0  0  0  0  0  0  0
  151.4017  144.1002  159.1107 H   0  0  0  0  0  0  0  0  0  0  0  0
  149.6738  141.7518  154.9807 H   0  0  0  0  0  0  0  0  0  0  0  0
  152.1327  139.2278  155.4665 H   0  0  0  0  0  0  0  0  0  0  0  0
  151.0343  138.6302  156.6880 H   0  0  0  0  0  0  0  0  0  0  0  0
  150.1903  137.9264  154.4878 H   0  0  0  0  0  0  0  0  0  0  0  0
  149.8076  139.4638  152.9108 H   0  0  0  0  0  0  0  0  0  0  0  0
  148.1745  138.2664  155.4167 H   0  0  0  0  0  0  0  0  0  0  0  0
  148.6557  139.7141  156.2317 H   0  0  0  0  0  0  0  0  0  0  0  0
  146.9885  139.8355  152.3827 H   0  0  0  0  0  0  0  0  0  0  0  0
  148.3265  138.7660  152.6807 H   0  0  0  0  0  0  0  0  0  0  0  0
  146.1729  137.5290  152.5186 H   0  0  0  0  0  0  0  0  0  0  0  0
  146.8754  137.2971  154.1045 H   0  0  0  0  0  0  0  0  0  0  0  0
  144.6370  136.7137  154.8658 H   0  0  0  0  0  0  0  0  0  0  0  0
  143.4056  137.9447  154.9828 H   0  0  0  0  0  0  0  0  0  0  0  0
  144.3172  136.5740  152.3757 H   0  0  0  0  0  0  0  0  0  0  0  0
  142.8942  135.0501  153.7946 H   0  0  0  0  0  0  0  0  0  0  0  0
  142.0291  135.5741  152.3579 H   0  0  0  0  0  0  0  0  0  0  0  0
  141.6701  136.3112  153.9174 H   0  0  0  0  0  0  0  0  0  0  0  0
  143.4555  138.8406  152.4783 H   0  0  0  0  0  0  0  0  0  0  0  0
  144.6246  139.8851  155.6519 H   0  0  0  0  0  0  0  0  0  0  0  0
  145.9067  138.7693  156.0596 H   0  0  0  0  0  0  0  0  0  0  0  0
  146.7727  141.1132  155.7726 H   0  0  0  0  0  0  0  0  0  0  0  0
  146.0854  141.1871  154.1846 H   0  0  0  0  0  0  0  0  0  0  0  0
  152.6645  139.2962  158.2874 H   0  0  0  0  0  0  0  0  0  0  0  0
  153.9520  139.2521  160.2535 H   0  0  0  0  0  0  0  0  0  0  0  0
  153.2864  140.2163  161.5692 H   0  0  0  0  0  0  0  0  0  0  0  0
  154.7161  140.7776  160.6893 H   0  0  0  0  0  0  0  0  0  0  0  0
  144.7942  139.2183  153.3808 H   0  0  0  0  0  0  0  0  0  0  0  0
  149.9964  143.6903  156.6338 H   0  0  0  0  0  0  0  0  0  0  0  0
  1  2  1  0  0  0  0
  1 26  1  0  0  0  0
  1 27  1  0  0  0  0
  1 28  1  0  0  0  0
  2 24  1  0  0  0  0
  2  3  2  0  0  0  0
  3  4  1  0  0  0  0
  3 29  1  0  0  0  0
  4 22  2  0  0  0  0
  4  5  1  0  0  0  0
  5  6  2  0  0  0  0
  5 57  1  0  0  0  0
  6  7  1  0  0  0  0
  6 30  1  0  0  0  0
  7  8  1  0  0  0  0
  7 22  1  0  0  0  0
  8  9  1  0  0  0  0
  8 31  1  0  0  0  0
  8 32  1  0  0  0  0
  9 10  1  0  0  0  0
  9 11  1  0  0  0  0
  9 33  1  0  0  0  0
 10 34  1  0  0  0  0
 11 12  1  0  0  0  0
 11 35  1  0  0  0  0
 11 36  1  0  0  0  0
 12 21  1  0  0  0  0
 12 13  1  0  0  0  0
 13 14  1  0  0  0  0
 13 37  1  0  0  0  0
 13 38  1  0  0  0  0
 14 15  1  0  0  0  0
 14 39  1  0  0  0  0
 14 40  1  0  0  0  0
 15 16  1  0  0  0  0
 15 20  1  0  0  0  0
 15 56  1  0  0  0  0
 16 17  1  0  0  0  0
 16 41  1  0  0  0  0
 16 42  1  0  0  0  0
 17 18  1  0  0  0  0
 17 19  1  0  0  0  0
 17 43  1  0  0  0  0
 18 44  1  0  0  0  0
 18 45  1  0  0  0  0
 18 46  1  0  0  0  0
 19 47  1  0  0  0  0
 20 21  1  0  0  0  0
 20 48  1  0  0  0  0
 20 49  1  0  0  0  0
 21 50  1  0  0  0  0
 21 51  1  0  0  0  0
 22 23  1  0  0  0  0
 23 24  2  0  0  0  0
 23 52  1  0  0  0  0
 24 25  1  0  0  0  0
 25 53  1  0  0  0  0
 25 54  1  0  0  0  0
 25 55  1  0  0  0  0
M  CHG  1   5   1
M  CHG  1  15   1
M  END
> <s_m_source_file>
AV-unprocessed.smi

> <i_m_source_file_index>
1033

> <i_lp_mmshare_version>
43012

> <i_f3d_flags>
0

> <s_epik_input>
W0NIM11jKFtjSF0xKWMoW0NIM10pW2NIXWMoYzEyKW4oW2NIXW4yKVtDSDJdW0NASF0oW09IXSlbQ0gyXU4zW0NIMl1bQ0gyXU4oW0NIMl1bQ0gyXTMpW0NIMl1bQ0BIXShbQ0gzXSlbT0hd

> <s_epik_cmdline>
J2VwaWtfcHl0aG9uJywgJy1waCcsICc3LjAnLCAnLXRuJywgJzgnLCAnLW1hJywgJzIwMCcsICctbWV0YWxfYmluZGluZycsICctaW1hZScsICc8aW5maWxlLm1hZT4nLCAnLW9tYWUnLCAnPG91dGZpbGUubWFlPic=

> <r_epik_Ionization_Penalty>
1.28617

> <r_epik_Ionization_Penalty_Charging>
1.23646

> <r_epik_Ionization_Penalty_Neutral>
0.0497112

> <r_epik_State_Penalty>
1.79157

> <r_epik_Charging_Adjusted_Penalty>
3.02803

> <i_epik_Tot_Q>
2

> <i_epik_Tot_abs_Q>
2

> <r_epik_Metal_State_Penalty>
5.81739

> <b_epik_Metal_Only>
0

> <s_lp_Force_Field>
OPLS_2005

> <r_lp_Energy>
41.725

> <b_lp_Chiralities_Consistent>
1

> <s_lp_Variant>
AV-unprocessed.smi:1033-15

> <Gold.Version>
5.8.1

> <Gold.Id.Protein>
6NUR|6NUR_protein|mol2

> <Gold.PLP.Fitness>
60.2759

> <Gold.PLP.PLP>
-42.9051

> <Gold.PLP.part.hbond>
-5.7658

> <Gold.PLP.part.metal>
0.0000

> <Gold.PLP.part.buried>
-3.6972

> <Gold.PLP.part.nonpolar>
-33.3050

> <Gold.PLP.part.repulsive>
0.1566

> <Gold.PLP.ligand.clash>
0.0021

> <Gold.PLP.ligand.torsion>
1.0658

> <Gold.PLP.Chemscore.Hbond>
6.4400

> <Gold.PLP.Chemscore.CHOScore>
0.0000

> <Gold.PLP.Chemscore.Metal>
0.0000

> <Gold.Chemscore.Hbonds>
donor molecule, donor type, donor heavy atom, donor atom, acceptor molecule, acceptor atom, score
      L1  H     5    57       P1  8028  1.92
      L1  H    10    34       P1  7957  0.64
      L1  H    15    56       P1 10175  2.00
      L1  H    19    47       P1 10175  1.00
      P1  H  7989  7998       L1    10  0.86

> <Gold.PLP.Chemscore.Internal.Correction>
0.1844

> <Gold.Rescore>
     Score         DG    S(hbond)    S(metal)    S(lipo)     H(rot)  DE(clash)    DE(int)     intcor
     22.13     -25.07       4.44        0.00     109.50       3.15       0.59       2.34       ----

> <Gold.Chemscore.Fitness>
22.1310

> <Gold.Chemscore.DG>
-25.0672

> <Gold.Chemscore.ZeroCoef>
-5.4800

> <Gold.Chemscore.Hbond>
4.4416

> <Gold.Chemscore.Metal>
0.0000

> <Gold.Chemscore.Lipo>
109.5029

> <Gold.Chemscore.Internal_Hbond>
0.0000

> <Gold.Chemscore.DEClash>
0.5949

> <Gold.Chemscore.DEInternal>
2.3413

> <Gold.Chemscore.Rot>
3.1483

> <Gold.Chemscore.Internal.Correction>
   9.000000E+99

> <Gold.Chemscore.Hbonds>
donor molecule, donor type, donor heavy atom, donor atom, acceptor molecule, acceptor atom, score
      L1  H     5    57       P1  8028  0.92
      L1  H    10    34       P1  7957  0.64
      L1  H    15    56       P1 10175  1.00
      L1  H    19    47       P1 10175  0.94
      P1  H  7989  7998       L1    10  0.84

> <Gold.Chemscore.Hbond.Weighted>
-14.8351

> <Gold.Chemscore.Metal.Weighted>
-0.0000

> <Gold.Chemscore.Lipo.Weighted>
-12.8118

> <Gold.Chemscore.Internal_Hbond.Weighted>
0.0000

> <Gold.Chemscore.DEClash.Weighted>
0.5949

> <Gold.Chemscore.DEInternal.Weighted>
2.3413

> <Gold.Chemscore.Rot.Weighted>
8.0597

> <Gold.Chemscore.Internal.Correction.Weighted>
   9.000000E+99

> <Gold.Protein.RotatedTorsions>
[ 6907 6896 6895 6894 ] final  163.30 input  -60.11 | X-H torsion
[ 7974 7965 7964 7962 ] final -141.91 input  175.53 | X-H torsion
[ 8008 7997 7996 7995 ] final  117.17 input   59.86 | X-H torsion
[ 10167 10162 10161 10158 ] final   32.70 input  -65.29 | X-H torsion
[ 10718 10713 10712 10709 ] final   -7.09 input   66.30 | X-H torsion
[ 10763 10752 10751 10750 ] final -127.18 input  -60.55 | X-H torsion
[ 11005 11000 10999 10996 ] final   98.55 input  -57.11 | X-H torsion

> <Gold.Protein.ActiveResidues>
 VAL166  LYS551  ARG553  GLY616  TRP617  ASP618  TYR619  PRO620  LYS621  CYS622 
 ASP623  PHE694  ASN695  SER759  ASP760  ASP761  ALA762  ILE779  LEU786  VAL792 
 PHE793  MET794  SER795  GLU796  ALA797  LYS798  CYS799  TRP800  GLU811  SER814 

> <Gold.Protein.RotatedAtoms>
  151.9272  133.3601  159.3917 H   0  0  0  0  0  0  0  0  0  0  0  0  # atno 6907 bound_to 6896
  150.7024  134.4574  159.5374 H   0  0  0  0  0  0  0  0  0  0  0  0  # atno 6908 bound_to 6896
  152.2208  134.8414  160.0537 H   0  0  0  0  0  0  0  0  0  0  0  0  # atno 6909 bound_to 6896
  144.8483  140.6022  143.5407 H   0  0  0  0  0  0  0  0  0  0  0  0  # atno 7974 bound_to 7965
  156.2480  140.2902  156.0637 H   0  0  0  0  0  0  0  0  0  0  0  0  # atno 8008 bound_to 7997
  155.1747  140.0402  157.2887 H   0  0  0  0  0  0  0  0  0  0  0  0  # atno 8009 bound_to 7997
  154.6301  140.2497  155.7451 H   0  0  0  0  0  0  0  0  0  0  0  0  # atno 8010 bound_to 7997
  140.4475  144.1098  150.6185 H   0  0  0  0  0  0  0  0  0  0  0  0  # atno 10167 bound_to 10162
  156.7223  130.5155  149.5865 H   0  0  0  0  0  0  0  0  0  0  0  0  # atno 10718 bound_to 10713
  154.8751  135.3970  154.3551 H   0  0  0  0  0  0  0  0  0  0  0  0  # atno 10763 bound_to 10752
  153.4332  135.7025  153.6222 H   0  0  0  0  0  0  0  0  0  0  0  0  # atno 10764 bound_to 10752
  153.4835  135.3764  155.2424 H   0  0  0  0  0  0  0  0  0  0  0  0  # atno 10765 bound_to 10752
  139.8772  134.9054  156.4473 H   0  0  0  0  0  0  0  0  0  0  0  0  # atno 11005 bound_to 11000
  145.4552  139.1519  143.3896 LP  0  0  0  0  0  0  0  0  0  0  0  0  # atno 17320 bound_to 7965
  146.2763  140.4679  142.8794 LP  0  0  0  0  0  0  0  0  0  0  0  0  # atno 17321 bound_to 7965
  140.4247  143.2595  151.9672 LP  0  0  0  0  0  0  0  0  0  0  0  0  # atno 17342 bound_to 10162
  139.4794  144.5799  151.7950 LP  0  0  0  0  0  0  0  0  0  0  0  0  # atno 17343 bound_to 10162
  156.1586  130.6358  151.0689 LP  0  0  0  0  0  0  0  0  0  0  0  0  # atno 17370 bound_to 10713
  157.6893  131.0815  150.7154 LP  0  0  0  0  0  0  0  0  0  0  0  0  # atno 17371 bound_to 10713
  140.8957  133.7816  155.9622 LP  0  0  0  0  0  0  0  0  0  0  0  0  # atno 17394 bound_to 11000
  140.8706  134.2731  157.5192 LP  0  0  0  0  0  0  0  0  0  0  0  0  # atno 17395 bound_to 11000

$$$$
