AV-unprocessed.smi:281|AV-procd|sdf|2115|dock7
  -GOLD-   2262021413D 1   1.00000     0.00000
 Structure written by MMmdl.
 55 59  0  0  0  0  0  0  0  0  1 V2000
  153.0621  139.1192  159.8172 C   0  0  0  0  0  0  0  0  0  0  0  0
  151.8131  138.8823  158.9628 C   0  0  2  0  0  0  0  0  0  0  0  0
  151.1755  137.5120  159.2354 C   0  0  0  0  0  0  0  0  0  0  0  0
  150.0455  137.3131  158.3383 N   0  0  0  0  0  0  0  0  0  0  0  0
  149.1988  136.3122  158.6898 C   0  0  0  0  0  0  0  0  0  0  0  0
  148.8438  135.3694  157.7757 N   0  0  0  0  0  0  0  0  0  0  0  0
  148.0148  134.3778  158.1145 C   0  0  0  0  0  0  0  0  0  0  0  0
  147.4318  134.1434  159.2913 N   0  0  0  0  0  0  0  0  0  0  0  0
  147.7784  135.0879  160.2120 C   0  0  0  0  0  0  0  0  0  0  0  0
  148.6445  136.1970  159.9963 C   0  0  0  0  0  0  0  0  0  0  0  0
  148.7409  136.9528  161.1590 N   0  0  0  0  0  0  0  0  0  0  0  0
  147.9838  136.3217  162.0141 C   0  0  0  0  0  0  0  0  0  0  0  0
  147.3756  135.1841  161.5330 N   0  0  0  0  0  0  0  0  0  0  0  0
  146.4847  134.2927  162.2612 C   0  0  0  0  0  0  0  0  0  0  0  0
  144.9915  134.4699  161.8954 C   0  0  2  0  0  0  0  0  0  0  0  0
  144.7517  133.8950  160.6224 O   0  0  0  0  0  0  0  0  0  0  0  0
  144.5666  135.9327  161.8464 C   0  0  0  0  0  0  0  0  0  0  0  0
  143.0925  135.8689  162.2225 C   0  0  0  0  0  0  0  0  0  0  0  0
  143.0701  134.8821  163.2394 O   0  0  0  0  0  0  0  0  0  0  0  0
  143.9991  133.8550  162.9048 C   0  0  0  0  0  0  0  0  0  0  0  0
  150.4110  137.4446  156.9315 C   0  0  0  0  0  0  0  0  0  0  0  0
  151.1179  138.7963  156.6595 C   0  0  1  0  0  0  0  0  0  0  0  0
  151.6882  138.8208  155.2503 C   0  0  0  0  0  0  0  0  0  0  0  0
  150.4836  139.2189  154.4039 C   0  0  0  0  0  0  0  0  0  0  0  0
  149.6650  140.0216  155.2485 O   0  0  0  0  0  0  0  0  0  0  0  0
  150.1395  139.9919  156.5941 C   0  0  2  0  0  0  0  0  0  0  0  0
  150.7783  141.3717  156.8456 C   0  0  0  0  0  0  0  0  0  0  0  0
  152.1932  138.9687  157.5883 O   0  0  0  0  0  0  0  0  0  0  0  0
  152.8237  139.0790  160.8804 H   0  0  0  0  0  0  0  0  0  0  0  0
  153.4943  140.0986  159.6107 H   0  0  0  0  0  0  0  0  0  0  0  0
  153.8263  138.3682  159.6156 H   0  0  0  0  0  0  0  0  0  0  0  0
  151.0852  139.6589  159.1973 H   0  0  0  0  0  0  0  0  0  0  0  0
  151.9039  136.7168  159.0698 H   0  0  0  0  0  0  0  0  0  0  0  0
  150.8734  137.4512  160.2802 H   0  0  0  0  0  0  0  0  0  0  0  0
  147.7860  133.6712  157.3305 H   0  0  0  0  0  0  0  0  0  0  0  0
  147.8480  136.6740  163.0261 H   0  0  0  0  0  0  0  0  0  0  0  0
  146.7998  133.2666  162.0673 H   0  0  0  0  0  0  0  0  0  0  0  0
  146.6320  134.4595  163.3292 H   0  0  0  0  0  0  0  0  0  0  0  0
  144.8819  132.9613  160.6855 H   0  0  0  0  0  0  0  0  0  0  0  0
  145.1010  136.5075  162.6039 H   0  0  0  0  0  0  0  0  0  0  0  0
  144.7441  136.4107  160.8819 H   0  0  0  0  0  0  0  0  0  0  0  0
  142.7041  136.8234  162.5785 H   0  0  0  0  0  0  0  0  0  0  0  0
  142.4850  135.5405  161.3778 H   0  0  0  0  0  0  0  0  0  0  0  0
  143.4718  132.9928  162.4933 H   0  0  0  0  0  0  0  0  0  0  0  0
  144.4869  133.5312  163.8235 H   0  0  0  0  0  0  0  0  0  0  0  0
  151.0771  136.6208  156.6703 H   0  0  0  0  0  0  0  0  0  0  0  0
  149.5233  137.3507  156.3044 H   0  0  0  0  0  0  0  0  0  0  0  0
  152.4611  139.5860  155.1689 H   0  0  0  0  0  0  0  0  0  0  0  0
  152.1321  137.8744  154.9402 H   0  0  0  0  0  0  0  0  0  0  0  0
  150.7717  139.7578  153.5010 H   0  0  0  0  0  0  0  0  0  0  0  0
  149.9159  138.3376  154.1036 H   0  0  0  0  0  0  0  0  0  0  0  0
  149.3022  139.8579  157.2799 H   0  0  0  0  0  0  0  0  0  0  0  0
  151.1637  141.4686  157.8594 H   0  0  0  0  0  0  0  0  0  0  0  0
  150.0429  142.1640  156.7053 H   0  0  0  0  0  0  0  0  0  0  0  0
  151.6026  141.5677  156.1600 H   0  0  0  0  0  0  0  0  0  0  0  0
  1  2  1  0  0  0  0
  1 29  1  0  0  0  0
  1 30  1  0  0  0  0
  1 31  1  0  0  0  0
  2 28  1  0  0  0  0
  2  3  1  0  0  0  0
  2 32  1  0  0  0  0
  3  4  1  0  0  0  0
  3 33  1  0  0  0  0
  3 34  1  0  0  0  0
  4  5  1  0  0  0  0
  4 21  1  0  0  0  0
  5 10  1  0  0  0  0
  5  6  2  0  0  0  0
  6  7  1  0  0  0  0
  7  8  2  0  0  0  0
  7 35  1  0  0  0  0
  8  9  1  0  0  0  0
  9 13  1  0  0  0  0
  9 10  2  0  0  0  0
 10 11  1  0  0  0  0
 11 12  2  0  0  0  0
 12 13  1  0  0  0  0
 12 36  1  0  0  0  0
 13 14  1  0  0  0  0
 14 15  1  0  0  0  0
 14 37  1  0  0  0  0
 14 38  1  0  0  0  0
 15 20  1  0  0  0  0
 15 16  1  0  0  0  0
 15 17  1  0  0  0  0
 16 39  1  0  0  0  0
 17 18  1  0  0  0  0
 17 40  1  0  0  0  0
 17 41  1  0  0  0  0
 18 19  1  0  0  0  0
 18 42  1  0  0  0  0
 18 43  1  0  0  0  0
 19 20  1  0  0  0  0
 20 44  1  0  0  0  0
 20 45  1  0  0  0  0
 21 22  1  0  0  0  0
 21 46  1  0  0  0  0
 21 47  1  0  0  0  0
 22 26  1  0  0  0  0
 22 23  1  0  0  0  0
 22 28  1  0  0  0  0
 23 24  1  0  0  0  0
 23 48  1  0  0  0  0
 23 49  1  0  0  0  0
 24 25  1  0  0  0  0
 24 50  1  0  0  0  0
 24 51  1  0  0  0  0
 25 26  1  0  0  0  0
 26 27  1  0  0  0  0
 26 52  1  0  0  0  0
 27 53  1  0  0  0  0
 27 54  1  0  0  0  0
 27 55  1  0  0  0  0
M  END
> <s_m_source_file>
AV-unprocessed.smi

> <i_m_source_file_index>
281

> <i_lp_mmshare_version>
43012

> <i_f3d_flags>
0

> <s_epik_input>
W0NIM11bQ0BASF0xT1tDSDJdW0NIMl1bQ0BAXTEyW0NIMl1OKFtDSDJdW0NASF0oTzIpW0NIM10pYyhuW2NIXW4zKWMoYzM0KW5bY0hdbjRbQ0gyXVtDQEBdNShbT0hdKVtDSDJdW0NIMl1PW0NIMl01

> <s_epik_cmdline>
J2VwaWtfcHl0aG9uJywgJy1waCcsICc3LjAnLCAnLXRuJywgJzgnLCAnLW1hJywgJzIwMCcsICctbWV0YWxfYmluZGluZycsICctaW1hZScsICc8aW5maWxlLm1hZT4nLCAnLW9tYWUnLCAnPG91dGZpbGUubWFlPic=

> <r_lp_tautomer_probability>
1

> <r_epik_Ionization_Penalty>
0.00571331

> <r_epik_Ionization_Penalty_Charging>
0

> <r_epik_Ionization_Penalty_Neutral>
0.00571331

> <r_epik_State_Penalty>
0.00399586

> <r_epik_Charging_Adjusted_Penalty>
0.00399586

> <i_epik_Tot_Q>
0

> <i_epik_Tot_abs_Q>
0

> <r_epik_Metal_State_Penalty>
-0

> <b_epik_Metal_Only>
0

> <s_lp_Force_Field>
OPLS_2005

> <r_lp_Energy>
55.4075

> <b_lp_Chiralities_Consistent>
1

> <s_lp_Variant>
AV-unprocessed.smi:281-15

> <Gold.Version>
5.8.1

> <Gold.Id.Protein>
6NUR|6NUR_protein|mol2

> <Gold.PLP.Fitness>
41.3208

> <Gold.PLP.PLP>
-39.0887

> <Gold.PLP.part.hbond>
-1.0489

> <Gold.PLP.part.metal>
0.0000

> <Gold.PLP.part.buried>
-5.6455

> <Gold.PLP.part.nonpolar>
-32.9627

> <Gold.PLP.part.repulsive>
0.1861

> <Gold.PLP.ligand.clash>
0.0000

> <Gold.PLP.ligand.torsion>
0.5190

> <Gold.PLP.Chemscore.Hbond>
0.9913

> <Gold.PLP.Chemscore.CHOScore>
0.0000

> <Gold.PLP.Chemscore.Metal>
0.0000

> <Gold.Chemscore.Hbonds>
donor molecule, donor type, donor heavy atom, donor atom, acceptor molecule, acceptor atom, score
      P1  H  6931  6943       L1    11  0.98

> <Gold.PLP.Chemscore.Internal.Correction>
0.2963

> <Gold.Rescore>
     Score         DG    S(hbond)    S(metal)    S(lipo)     H(rot)  DE(clash)    DE(int)     intcor
     11.83     -12.43       0.86        0.00      80.64       2.09       0.16       0.44       ----

> <Gold.Chemscore.Fitness>
11.8339

> <Gold.Chemscore.DG>
-12.4327

> <Gold.Chemscore.ZeroCoef>
-5.4800

> <Gold.Chemscore.Hbond>
0.8609

> <Gold.Chemscore.Metal>
0.0000

> <Gold.Chemscore.Lipo>
80.6380

> <Gold.Chemscore.Internal_Hbond>
0.0000

> <Gold.Chemscore.DEClash>
0.1625

> <Gold.Chemscore.DEInternal>
0.4363

> <Gold.Chemscore.Rot>
2.0927

> <Gold.Chemscore.Internal.Correction>
   9.000000E+99

> <Gold.Chemscore.Hbonds>
donor molecule, donor type, donor heavy atom, donor atom, acceptor molecule, acceptor atom, score
      P1  H  6931  6943       L1    11  0.31

> <Gold.Chemscore.Hbond.Weighted>
-2.8754

> <Gold.Chemscore.Metal.Weighted>
-0.0000

> <Gold.Chemscore.Lipo.Weighted>
-9.4346

> <Gold.Chemscore.Internal_Hbond.Weighted>
0.0000

> <Gold.Chemscore.DEClash.Weighted>
0.1625

> <Gold.Chemscore.DEInternal.Weighted>
0.4363

> <Gold.Chemscore.Rot.Weighted>
5.3573

> <Gold.Chemscore.Internal.Correction.Weighted>
   9.000000E+99

> <Gold.Protein.RotatedTorsions>
[ 6907 6896 6895 6894 ] final -164.15 input  -60.11 | X-H torsion
[ 7974 7965 7964 7962 ] final  116.22 input  175.53 | X-H torsion
[ 8008 7997 7996 7995 ] final  179.73 input   59.86 | X-H torsion
[ 10167 10162 10161 10158 ] final  118.98 input  -65.29 | X-H torsion
[ 10718 10713 10712 10709 ] final  119.65 input   66.30 | X-H torsion
[ 10763 10752 10751 10750 ] final   31.76 input  -60.55 | X-H torsion
[ 11005 11000 10999 10996 ] final -138.99 input  -57.11 | X-H torsion

> <Gold.Protein.ActiveResidues>
 VAL166  LYS551  ARG553  GLY616  TRP617  ASP618  TYR619  PRO620  LYS621  CYS622 
 ASP623  PHE694  ASN695  SER759  ASP760  ASP761  ALA762  ILE779  LEU786  VAL792 
 PHE793  MET794  SER795  GLU796  ALA797  LYS798  CYS799  TRP800  GLU811  SER814 

> <Gold.Protein.RotatedAtoms>
  151.4072  133.3738  159.2739 H   0  0  0  0  0  0  0  0  0  0  0  0  # atno 6907 bound_to 6896
  150.9389  134.8801  159.7610 H   0  0  0  0  0  0  0  0  0  0  0  0  # atno 6908 bound_to 6896
  152.5062  134.4022  159.9472 H   0  0  0  0  0  0  0  0  0  0  0  0  # atno 6909 bound_to 6896
  145.1824  139.3043  143.4411 H   0  0  0  0  0  0  0  0  0  0  0  0  # atno 7974 bound_to 7965
  156.0401  140.1301  157.0165 H   0  0  0  0  0  0  0  0  0  0  0  0  # atno 8008 bound_to 7997
  154.4387  140.1032  156.6294 H   0  0  0  0  0  0  0  0  0  0  0  0  # atno 8009 bound_to 7997
  155.5680  140.3466  155.4510 H   0  0  0  0  0  0  0  0  0  0  0  0  # atno 8010 bound_to 7997
  139.6076  144.7074  151.2918 H   0  0  0  0  0  0  0  0  0  0  0  0  # atno 10167 bound_to 10162
  157.5946  131.1059  150.7926 H   0  0  0  0  0  0  0  0  0  0  0  0  # atno 10718 bound_to 10713
  153.0298  135.6431  154.1249 H   0  0  0  0  0  0  0  0  0  0  0  0  # atno 10763 bound_to 10752
  154.0973  135.2862  155.3260 H   0  0  0  0  0  0  0  0  0  0  0  0  # atno 10764 bound_to 10752
  154.6423  135.5455  153.7867 H   0  0  0  0  0  0  0  0  0  0  0  0  # atno 10765 bound_to 10752
  140.8563  134.2224  157.4733 H   0  0  0  0  0  0  0  0  0  0  0  0  # atno 11005 bound_to 11000
  146.3451  140.2008  142.8589 LP  0  0  0  0  0  0  0  0  0  0  0  0  # atno 17320 bound_to 7965
  145.0123  140.8724  143.5216 LP  0  0  0  0  0  0  0  0  0  0  0  0  # atno 17321 bound_to 7965
  140.7296  143.6903  150.7927 LP  0  0  0  0  0  0  0  0  0  0  0  0  # atno 17342 bound_to 10162
  140.0492  143.5267  152.2682 LP  0  0  0  0  0  0  0  0  0  0  0  0  # atno 17343 bound_to 10162
  156.8340  130.5025  149.5328 LP  0  0  0  0  0  0  0  0  0  0  0  0  # atno 17370 bound_to 10713
  156.1007  130.5966  150.9888 LP  0  0  0  0  0  0  0  0  0  0  0  0  # atno 17371 bound_to 10713
  139.8705  134.9708  156.4713 LP  0  0  0  0  0  0  0  0  0  0  0  0  # atno 17394 bound_to 11000
  140.8734  133.7971  155.9388 LP  0  0  0  0  0  0  0  0  0  0  0  0  # atno 17395 bound_to 11000

$$$$
