AV-unprocessed.smi:1032|AV-procd|sdf|4488|dock8
  -GOLD-   22720 2473D 1   1.00000     0.00000
 Structure written by MMmdl.
 47 48  0  0  0  0  0  0  0  0  3 V2000
  149.3838  123.9767  146.8073 C   0  0  0  0  0  0  0  0  0  0  0  0
  149.9998  123.4550  148.1173 C   0  0  2  0  0  0  0  0  0  0  0  0
  148.9551  122.8289  149.0587 C   0  0  0  0  0  0  0  0  0  0  0  0
  148.0736  123.8898  149.7421 C   0  0  0  0  0  0  0  0  0  0  0  0
  148.8970  124.8922  150.4661 N   0  3  2  0  0  0  0  0  0  0  0  0
  148.0662  125.8474  151.2441 C   0  0  0  0  0  0  0  0  0  0  0  0
  148.9041  126.9660  151.8966 C   0  0  2  0  0  0  0  0  0  0  0  0
  149.7600  126.3637  152.8483 O   0  0  0  0  0  0  0  0  0  0  0  0
  148.0126  127.9892  152.6308 C   0  0  0  0  0  0  0  0  0  0  0  0
  147.6871  129.1368  151.7889 N   0  0  0  0  0  0  0  0  0  0  0  0
  146.4732  129.6980  151.6918 C   0  0  0  0  0  0  0  0  0  0  0  0
  145.4870  129.2843  152.3017 O   0  0  0  0  0  0  0  0  0  0  0  0
  146.4791  130.7351  150.8366 N   0  0  0  0  0  0  0  0  0  0  0  0
  145.4030  131.5937  150.4821 C   0  0  0  0  0  0  0  0  0  0  0  0
  144.4425  131.8853  151.4762 C   0  0  0  0  0  0  0  0  0  0  0  0
  143.3495  132.7195  151.1644 C   0  0  0  0  0  0  0  0  0  0  0  0
  143.2223  133.2238  149.9183 N   0  3  0  0  0  0  0  0  0  0  0  0
  144.1055  132.9611  148.9312 C   0  0  0  0  0  0  0  0  0  0  0  0
  145.2191  132.1342  149.1837 C   0  0  0  0  0  0  0  0  0  0  0  0
  149.8661  125.5618  149.5579 C   0  0  0  0  0  0  0  0  0  0  0  0
  150.7897  124.5363  148.8767 C   0  0  0  0  0  0  0  0  0  0  0  0
  148.6615  124.7741  146.9793 H   0  0  0  0  0  0  0  0  0  0  0  0
  148.8695  123.1772  146.2733 H   0  0  0  0  0  0  0  0  0  0  0  0
  150.1548  124.3683  146.1430 H   0  0  0  0  0  0  0  0  0  0  0  0
  150.7028  122.6699  147.8354 H   0  0  0  0  0  0  0  0  0  0  0  0
  148.3317  122.1199  148.5127 H   0  0  0  0  0  0  0  0  0  0  0  0
  149.4688  122.2492  149.8269 H   0  0  0  0  0  0  0  0  0  0  0  0
  147.4417  124.3942  149.0100 H   0  0  0  0  0  0  0  0  0  0  0  0
  147.4038  123.3913  150.4441 H   0  0  0  0  0  0  0  0  0  0  0  0
  147.3058  126.2706  150.5857 H   0  0  0  0  0  0  0  0  0  0  0  0
  147.5225  125.3189  152.0292 H   0  0  0  0  0  0  0  0  0  0  0  0
  149.5083  127.4713  151.1441 H   0  0  0  0  0  0  0  0  0  0  0  0
  150.6423  126.6691  152.6999 H   0  0  0  0  0  0  0  0  0  0  0  0
  147.0775  127.5175  152.9385 H   0  0  0  0  0  0  0  0  0  0  0  0
  148.4879  128.3359  153.5494 H   0  0  0  0  0  0  0  0  0  0  0  0
  148.4425  129.5314  151.2474 H   0  0  0  0  0  0  0  0  0  0  0  0
  147.3441  130.8967  150.3417 H   0  0  0  0  0  0  0  0  0  0  0  0
  144.5417  131.4803  152.4731 H   0  0  0  0  0  0  0  0  0  0  0  0
  142.5776  132.9940  151.8687 H   0  0  0  0  0  0  0  0  0  0  0  0
  143.8936  133.4120  147.9726 H   0  0  0  0  0  0  0  0  0  0  0  0
  145.9009  131.9215  148.3747 H   0  0  0  0  0  0  0  0  0  0  0  0
  149.3264  126.1441  148.8099 H   0  0  0  0  0  0  0  0  0  0  0  0
  150.4807  126.2691  150.1133 H   0  0  0  0  0  0  0  0  0  0  0  0
  151.4078  124.0581  149.6380 H   0  0  0  0  0  0  0  0  0  0  0  0
  151.4807  125.0435  148.2024 H   0  0  0  0  0  0  0  0  0  0  0  0
  149.4377  124.3736  151.1440 H   0  0  0  0  0  0  0  0  0  0  0  0
  142.4231  133.8241  149.7127 H   0  0  0  0  0  0  0  0  0  0  0  0
  1  2  1  0  0  0  0
  1 22  1  0  0  0  0
  1 23  1  0  0  0  0
  1 24  1  0  0  0  0
  2 21  1  0  0  0  0
  2  3  1  0  0  0  0
  2 25  1  0  0  0  0
  3  4  1  0  0  0  0
  3 26  1  0  0  0  0
  3 27  1  0  0  0  0
  4  5  1  0  0  0  0
  4 28  1  0  0  0  0
  4 29  1  0  0  0  0
  5  6  1  0  0  0  0
  5 20  1  0  0  0  0
  5 46  1  0  0  0  0
  6  7  1  0  0  0  0
  6 30  1  0  0  0  0
  6 31  1  0  0  0  0
  7  8  1  0  0  0  0
  7  9  1  0  0  0  0
  7 32  1  0  0  0  0
  8 33  1  0  0  0  0
  9 10  1  0  0  0  0
  9 34  1  0  0  0  0
  9 35  1  0  0  0  0
 10 11  1  0  0  0  0
 10 36  1  0  0  0  0
 11 12  2  0  0  0  0
 11 13  1  0  0  0  0
 13 14  1  0  0  0  0
 13 37  1  0  0  0  0
 14 19  1  0  0  0  0
 14 15  2  0  0  0  0
 15 16  1  0  0  0  0
 15 38  1  0  0  0  0
 16 17  2  0  0  0  0
 16 39  1  0  0  0  0
 17 18  1  0  0  0  0
 17 47  1  0  0  0  0
 18 19  2  0  0  0  0
 18 40  1  0  0  0  0
 19 41  1  0  0  0  0
 20 21  1  0  0  0  0
 20 42  1  0  0  0  0
 20 43  1  0  0  0  0
 21 44  1  0  0  0  0
 21 45  1  0  0  0  0
M  CHG  1   5   1
M  CHG  1  17   1
M  END
> <s_m_source_file>
AV-unprocessed.smi

> <i_m_source_file_index>
1032

> <i_lp_mmshare_version>
43012

> <i_f3d_flags>
0

> <s_epik_input>
W0NIM11bQ0hdMVtDSDJdW0NIMl1OKFtDSDJdW0NIMl0xKVtDSDJdW0NASF0oW09IXSlbQ0gyXVtOSF1DKD1PKVtOSF1jMltjSF1bY0hdbltjSF1bY0hdMg==

> <s_epik_cmdline>
J2VwaWtfcHl0aG9uJywgJy1waCcsICc3LjAnLCAnLXRuJywgJzgnLCAnLW1hJywgJzIwMCcsICctbWV0YWxfYmluZGluZycsICctaW1hZScsICc8aW5maWxlLm1hZT4nLCAnLW9tYWUnLCAnPG91dGZpbGUubWFlPic=

> <r_epik_Ionization_Penalty>
1.02509

> <r_epik_Ionization_Penalty_Charging>
1.02507

> <r_epik_Ionization_Penalty_Neutral>
1.85474e-05

> <r_epik_State_Penalty>
1.07411

> <r_epik_Charging_Adjusted_Penalty>
2.09917

> <i_epik_Tot_Q>
2

> <i_epik_Tot_abs_Q>
2

> <r_epik_Metal_State_Penalty>
1.1725

> <b_epik_Metal_Only>
0

> <s_lp_Force_Field>
OPLS_2005

> <r_lp_Energy>
33.8521

> <b_lp_Chiralities_Consistent>
1

> <s_lp_Variant>
AV-unprocessed.smi:1032-7

> <Gold.Version>
5.8.1

> <Gold.Id.Protein>
6NUR|6NUR_protein|mol2

> <Gold.PLP.Fitness>
54.2254

> <Gold.PLP.PLP>
-41.1010

> <Gold.PLP.part.hbond>
-4.0000

> <Gold.PLP.part.metal>
0.0000

> <Gold.PLP.part.buried>
-2.1280

> <Gold.PLP.part.nonpolar>
-34.4897

> <Gold.PLP.part.repulsive>
0.4259

> <Gold.PLP.ligand.clash>
0.0000

> <Gold.PLP.ligand.torsion>
0.8474

> <Gold.PLP.Chemscore.Hbond>
4.9272

> <Gold.PLP.Chemscore.CHOScore>
0.0000

> <Gold.PLP.Chemscore.Metal>
0.0000

> <Gold.Chemscore.Hbonds>
donor molecule, donor type, donor heavy atom, donor atom, acceptor molecule, acceptor atom, score
      L1  H     8    33       P1 10737  1.00
      L1  H    10    36       P1 10747  0.93
      L1  H    13    37       P1 10747  1.00
      L1  H    17    47       P1 10186  2.00

> <Gold.PLP.Chemscore.Internal.Correction>
0.0375

> <Gold.Rescore>
     Score         DG    S(hbond)    S(metal)    S(lipo)     H(rot)  DE(clash)    DE(int)     intcor
     19.82     -22.11       3.19        0.00     102.39       2.34       0.29       2.00       ----

> <Gold.Chemscore.Fitness>
19.8154

> <Gold.Chemscore.DG>
-22.1124

> <Gold.Chemscore.ZeroCoef>
-5.4800

> <Gold.Chemscore.Hbond>
3.1860

> <Gold.Chemscore.Metal>
0.0000

> <Gold.Chemscore.Lipo>
102.3909

> <Gold.Chemscore.Internal_Hbond>
0.0000

> <Gold.Chemscore.DEClash>
0.2925

> <Gold.Chemscore.DEInternal>
2.0045

> <Gold.Chemscore.Rot>
2.3393

> <Gold.Chemscore.Internal.Correction>
   9.000000E+99

> <Gold.Chemscore.Hbonds>
donor molecule, donor type, donor heavy atom, donor atom, acceptor molecule, acceptor atom, score
      L1  H     8    33       P1 10737  0.94
      L1  H    10    36       P1 10747  0.20
      L1  H    13    37       P1 10747  0.95
      L1  H    17    47       P1 10186  0.94

> <Gold.Chemscore.Hbond.Weighted>
-10.6413

> <Gold.Chemscore.Metal.Weighted>
-0.0000

> <Gold.Chemscore.Lipo.Weighted>
-11.9797

> <Gold.Chemscore.Internal_Hbond.Weighted>
0.0000

> <Gold.Chemscore.DEClash.Weighted>
0.2925

> <Gold.Chemscore.DEInternal.Weighted>
2.0045

> <Gold.Chemscore.Rot.Weighted>
5.9886

> <Gold.Chemscore.Internal.Correction.Weighted>
   9.000000E+99

> <Gold.Protein.RotatedTorsions>
[ 6907 6896 6895 6894 ] final -100.47 input  -60.11 | X-H torsion
[ 7974 7965 7964 7962 ] final  107.51 input  175.53 | X-H torsion
[ 8008 7997 7996 7995 ] final  133.13 input   59.86 | X-H torsion
[ 10167 10162 10161 10158 ] final   32.60 input  -65.29 | X-H torsion
[ 10718 10713 10712 10709 ] final  -25.75 input   66.30 | X-H torsion
[ 10763 10752 10751 10750 ] final   22.69 input  -60.55 | X-H torsion
[ 11005 11000 10999 10996 ] final   62.39 input  -57.11 | X-H torsion

> <Gold.Protein.ActiveResidues>
 VAL166  LYS551  ARG553  GLY616  TRP617  ASP618  TYR619  PRO620  LYS621  CYS622 
 ASP623  PHE694  ASN695  SER759  ASP760  ASP761  ALA762  ILE779  LEU786  VAL792 
 PHE793  MET794  SER795  GLU796  ALA797  LYS798  CYS799  TRP800  GLU811  SER814 

> <Gold.Protein.RotatedAtoms>
  150.7117  134.0882  159.3921 H   0  0  0  0  0  0  0  0  0  0  0  0  # atno 6907 bound_to 6896
  151.8867  135.0430  160.0503 H   0  0  0  0  0  0  0  0  0  0  0  0  # atno 6908 bound_to 6896
  152.2524  133.5191  159.5370 H   0  0  0  0  0  0  0  0  0  0  0  0  # atno 6909 bound_to 6896
  145.2927  139.2595  143.3856 H   0  0  0  0  0  0  0  0  0  0  0  0  # atno 7974 bound_to 7965
  156.2989  140.2529  156.3202 H   0  0  0  0  0  0  0  0  0  0  0  0  # atno 8008 bound_to 7997
  154.9242  140.0400  157.2033 H   0  0  0  0  0  0  0  0  0  0  0  0  # atno 8009 bound_to 7997
  154.8281  140.2871  155.5745 H   0  0  0  0  0  0  0  0  0  0  0  0  # atno 8010 bound_to 7997
  140.4484  144.1085  150.6187 H   0  0  0  0  0  0  0  0  0  0  0  0  # atno 10167 bound_to 10162
  156.4603  130.4502  149.6933 H   0  0  0  0  0  0  0  0  0  0  0  0  # atno 10718 bound_to 10713
  153.0895  135.6643  153.9881 H   0  0  0  0  0  0  0  0  0  0  0  0  # atno 10763 bound_to 10752
  153.9482  135.2986  155.3441 H   0  0  0  0  0  0  0  0  0  0  0  0  # atno 10764 bound_to 10752
  154.7308  135.5123  153.9034 H   0  0  0  0  0  0  0  0  0  0  0  0  # atno 10765 bound_to 10752
  140.0095  134.6318  155.9802 H   0  0  0  0  0  0  0  0  0  0  0  0  # atno 11005 bound_to 11000
  146.3179  140.3422  142.8649 LP  0  0  0  0  0  0  0  0  0  0  0  0  # atno 17320 bound_to 7965
  144.9159  140.7812  143.5778 LP  0  0  0  0  0  0  0  0  0  0  0  0  # atno 17321 bound_to 7965
  140.4237  143.2600  151.9684 LP  0  0  0  0  0  0  0  0  0  0  0  0  # atno 17342 bound_to 10162
  139.4794  144.5808  151.7936 LP  0  0  0  0  0  0  0  0  0  0  0  0  # atno 17343 bound_to 10162
  156.3723  130.7537  151.2521 LP  0  0  0  0  0  0  0  0  0  0  0  0  # atno 17370 bound_to 10713
  157.7498  131.0319  150.4204 LP  0  0  0  0  0  0  0  0  0  0  0  0  # atno 17371 bound_to 10713
  141.1701  133.6537  156.4620 LP  0  0  0  0  0  0  0  0  0  0  0  0  # atno 17394 bound_to 11000
  140.4580  134.6867  157.5072 LP  0  0  0  0  0  0  0  0  0  0  0  0  # atno 17395 bound_to 11000

$$$$
