AV-unprocessed.smi:277|AV-procd|sdf|2086|dock6
  -GOLD-   2262021363D 1   1.00000     0.00000
 Structure written by MMmdl.
 54 58  0  0  0  0  0  0  0  0  1 V2000
  140.8170  133.6314  152.9241 O   0  0  0  0  0  0  0  0  0  0  0  0
  141.7682  134.4104  152.8920 C   0  0  0  0  0  0  0  0  0  0  0  0
  141.7951  135.7125  153.6705 C   0  0  0  0  0  0  0  0  0  0  0  0
  143.1042  136.2432  153.3077 N   0  0  0  0  0  0  0  0  0  0  0  0
  143.6727  137.2973  153.9497 C   0  0  0  0  0  0  0  0  0  0  0  0
  142.9622  137.9081  154.9346 N   0  0  0  0  0  0  0  0  0  0  0  0
  143.4754  138.9447  155.6019 C   0  0  0  0  0  0  0  0  0  0  0  0
  144.6653  139.5261  155.4497 N   0  0  0  0  0  0  0  0  0  0  0  0
  145.3858  138.9256  154.4602 C   0  0  0  0  0  0  0  0  0  0  0  0
  144.9688  137.8211  153.6616 C   0  0  0  0  0  0  0  0  0  0  0  0
  145.9699  137.5075  152.7480 N   0  0  0  0  0  0  0  0  0  0  0  0
  146.9187  138.3677  152.9957 C   0  0  0  0  0  0  0  0  0  0  0  0
  146.6609  139.2442  154.0246 N   0  0  0  0  0  0  0  0  0  0  0  0
  147.5345  140.3022  154.5137 C   0  0  0  0  0  0  0  0  0  0  0  0
  148.8989  139.8321  155.1087 C   0  0  0  0  0  0  0  0  0  0  0  0
  148.5963  139.0464  156.4167 C   0  0  0  0  0  0  0  0  0  0  0  0
  147.7912  137.9064  156.1904 O   0  0  0  0  0  0  0  0  0  0  0  0
  149.6982  138.9643  154.1007 C   0  0  0  0  0  0  0  0  0  0  0  0
  151.1260  138.6555  154.5861 C   0  0  0  0  0  0  0  0  0  0  0  0
  151.8252  139.8694  154.8317 O   0  0  0  0  0  0  0  0  0  0  0  0
  151.2257  140.6617  155.8492 C   0  0  0  0  0  0  0  0  0  0  0  0
  149.7936  141.0555  155.4384 C   0  0  0  0  0  0  0  0  0  0  0  0
  143.8442  135.3384  152.4384 C   0  0  0  0  0  0  0  0  0  0  0  0
  142.9070  134.2515  152.2071 N   0  0  0  0  0  0  0  0  0  0  0  0
  143.2896  133.1029  151.3899 C   0  0  0  0  0  0  0  0  0  0  0  0
  144.4289  133.3364  150.4143 C   0  0  0  0  0  0  0  0  0  0  0  0
  145.0589  132.1919  149.6528 C   0  0  0  0  0  0  0  0  0  0  0  0
  145.8252  132.8727  150.7590 C   0  0  0  0  0  0  0  0  0  0  0  0
  140.9926  136.3779  153.3498 H   0  0  0  0  0  0  0  0  0  0  0  0
  141.7115  135.5180  154.7408 H   0  0  0  0  0  0  0  0  0  0  0  0
  142.8432  139.3670  156.3691 H   0  0  0  0  0  0  0  0  0  0  0  0
  147.8431  138.3807  152.4369 H   0  0  0  0  0  0  0  0  0  0  0  0
  147.7091  140.9956  153.6898 H   0  0  0  0  0  0  0  0  0  0  0  0
  146.9704  140.8660  155.2576 H   0  0  0  0  0  0  0  0  0  0  0  0
  149.5037  138.7065  156.9117 H   0  0  0  0  0  0  0  0  0  0  0  0
  148.0826  139.6886  157.1332 H   0  0  0  0  0  0  0  0  0  0  0  0
  147.3990  137.6468  157.0100 H   0  0  0  0  0  0  0  0  0  0  0  0
  149.1684  138.0374  153.8803 H   0  0  0  0  0  0  0  0  0  0  0  0
  149.7935  139.4872  153.1499 H   0  0  0  0  0  0  0  0  0  0  0  0
  151.1236  138.0300  155.4790 H   0  0  0  0  0  0  0  0  0  0  0  0
  151.6629  138.0978  153.8187 H   0  0  0  0  0  0  0  0  0  0  0  0
  151.2459  140.1326  156.8019 H   0  0  0  0  0  0  0  0  0  0  0  0
  151.8285  141.5598  155.9854 H   0  0  0  0  0  0  0  0  0  0  0  0
  149.8835  141.7016  154.5666 H   0  0  0  0  0  0  0  0  0  0  0  0
  149.3353  141.6625  156.2201 H   0  0  0  0  0  0  0  0  0  0  0  0
  144.1083  135.8243  151.4983 H   0  0  0  0  0  0  0  0  0  0  0  0
  144.7463  134.9648  152.9248 H   0  0  0  0  0  0  0  0  0  0  0  0
  143.5802  132.2845  152.0499 H   0  0  0  0  0  0  0  0  0  0  0  0
  142.4120  132.7536  150.8443 H   0  0  0  0  0  0  0  0  0  0  0  0
  144.3734  134.2922  149.8963 H   0  0  0  0  0  0  0  0  0  0  0  0
  144.6823  131.1890  149.8439 H   0  0  0  0  0  0  0  0  0  0  0  0
  145.3712  132.3841  148.6285 H   0  0  0  0  0  0  0  0  0  0  0  0
  146.6534  133.5183  150.4741 H   0  0  0  0  0  0  0  0  0  0  0  0
  145.9620  132.3207  151.6871 H   0  0  0  0  0  0  0  0  0  0  0  0
  1  2  2  0  0  0  0
  2 24  1  0  0  0  0
  2  3  1  0  0  0  0
  3  4  1  0  0  0  0
  3 29  1  0  0  0  0
  3 30  1  0  0  0  0
  4  5  1  0  0  0  0
  4 23  1  0  0  0  0
  5 10  1  0  0  0  0
  5  6  2  0  0  0  0
  6  7  1  0  0  0  0
  7  8  2  0  0  0  0
  7 31  1  0  0  0  0
  8  9  1  0  0  0  0
  9 13  1  0  0  0  0
  9 10  2  0  0  0  0
 10 11  1  0  0  0  0
 11 12  2  0  0  0  0
 12 13  1  0  0  0  0
 12 32  1  0  0  0  0
 13 14  1  0  0  0  0
 14 15  1  0  0  0  0
 14 33  1  0  0  0  0
 14 34  1  0  0  0  0
 15 22  1  0  0  0  0
 15 16  1  0  0  0  0
 15 18  1  0  0  0  0
 16 17  1  0  0  0  0
 16 35  1  0  0  0  0
 16 36  1  0  0  0  0
 17 37  1  0  0  0  0
 18 19  1  0  0  0  0
 18 38  1  0  0  0  0
 18 39  1  0  0  0  0
 19 20  1  0  0  0  0
 19 40  1  0  0  0  0
 19 41  1  0  0  0  0
 20 21  1  0  0  0  0
 21 22  1  0  0  0  0
 21 42  1  0  0  0  0
 21 43  1  0  0  0  0
 22 44  1  0  0  0  0
 22 45  1  0  0  0  0
 23 24  1  0  0  0  0
 23 46  1  0  0  0  0
 23 47  1  0  0  0  0
 24 25  1  0  0  0  0
 25 26  1  0  0  0  0
 25 48  1  0  0  0  0
 25 49  1  0  0  0  0
 26 28  1  0  0  0  0
 26 27  1  0  0  0  0
 26 50  1  0  0  0  0
 27 28  1  0  0  0  0
 27 51  1  0  0  0  0
 27 52  1  0  0  0  0
 28 53  1  0  0  0  0
 28 54  1  0  0  0  0
M  END
> <s_m_source_file>
AV-unprocessed.smi

> <i_m_source_file_index>
277

> <i_lp_mmshare_version>
43012

> <i_f3d_flags>
0

> <s_epik_input>
W0NIMl0xW0NIMl1bQ0hdMVtDSDJdTjJbQ0gyXU4oW0NIMl1DMj1PKWMobltjSF1uMyljKGMzNCluW2NIXW40W0NIMl1DNShbQ0gyXVtPSF0pW0NIMl1bQ0gyXU9bQ0gyXVtDSDJdNQ==

> <s_epik_cmdline>
J2VwaWtfcHl0aG9uJywgJy1waCcsICc3LjAnLCAnLXRuJywgJzgnLCAnLW1hJywgJzIwMCcsICctbWV0YWxfYmluZGluZycsICctaW1hZScsICc8aW5maWxlLm1hZT4nLCAnLW9tYWUnLCAnPG91dGZpbGUubWFlPic=

> <r_lp_tautomer_probability>
1

> <r_epik_Ionization_Penalty>
0.00033977

> <r_epik_Ionization_Penalty_Charging>
0

> <r_epik_Ionization_Penalty_Neutral>
0.00033977

> <r_epik_State_Penalty>
-0

> <r_epik_Charging_Adjusted_Penalty>
0

> <i_epik_Tot_Q>
0

> <i_epik_Tot_abs_Q>
0

> <r_epik_Metal_State_Penalty>
-0

> <b_epik_Metal_Only>
0

> <s_epik_Chemistry_Notes>
This compound contains an acetal/aminal-like group ( X-CH(R)-Y where X, Y are N, S, or O) that may be acid/base labile, releasing an aldehyde.

> <s_lp_Force_Field>
OPLS_2005

> <r_lp_Energy>
42.4244

> <b_lp_Chiralities_Consistent>
1

> <s_lp_Variant>
AV-unprocessed.smi:277-1

> <Gold.Version>
5.8.1

> <Gold.Id.Protein>
6NUR|6NUR_protein|mol2

> <Gold.PLP.Fitness>
49.1917

> <Gold.PLP.PLP>
-40.5712

> <Gold.PLP.part.hbond>
-2.0000

> <Gold.PLP.part.metal>
0.0000

> <Gold.PLP.part.buried>
-4.7583

> <Gold.PLP.part.nonpolar>
-35.4784

> <Gold.PLP.part.repulsive>
0.9447

> <Gold.PLP.ligand.clash>
0.0000

> <Gold.PLP.ligand.torsion>
0.6504

> <Gold.PLP.Chemscore.Hbond>
1.7590

> <Gold.PLP.Chemscore.CHOScore>
1.3172

> <Gold.PLP.Chemscore.Metal>
0.0000

> <Gold.Chemscore.Hbonds>
donor molecule, donor type, donor heavy atom, donor atom, acceptor molecule, acceptor atom, score
      P1  H  7989  7998       L1    20  0.99
      P1  H 10995 11001       L1     1  0.74
      L1  C    12    32       P1  7948  0.81
      L1  C    12    32       P1  7957  0.55

> <Gold.PLP.Chemscore.Internal.Correction>
0.6928

> <Gold.Rescore>
     Score         DG    S(hbond)    S(metal)    S(lipo)     H(rot)  DE(clash)    DE(int)     intcor
      6.46      -9.36       0.55        0.00      78.81       2.80       0.12       2.79       ----

> <Gold.Chemscore.Fitness>
6.4553

> <Gold.Chemscore.DG>
-9.3596

> <Gold.Chemscore.ZeroCoef>
-5.4800

> <Gold.Chemscore.Hbond>
0.5485

> <Gold.Chemscore.Metal>
0.0000

> <Gold.Chemscore.Lipo>
78.8075

> <Gold.Chemscore.Internal_Hbond>
0.0000

> <Gold.Chemscore.DEClash>
0.1181

> <Gold.Chemscore.DEInternal>
2.7862

> <Gold.Chemscore.Rot>
2.8019

> <Gold.Chemscore.Internal.Correction>
   9.000000E+99

> <Gold.Chemscore.Hbonds>
donor molecule, donor type, donor heavy atom, donor atom, acceptor molecule, acceptor atom, score
      P1  H  7989  7998       L1    20  0.23
      P1  H 10995 11001       L1     1  0.70

> <Gold.Chemscore.Hbond.Weighted>
-1.8320

> <Gold.Chemscore.Metal.Weighted>
-0.0000

> <Gold.Chemscore.Lipo.Weighted>
-9.2205

> <Gold.Chemscore.Internal_Hbond.Weighted>
0.0000

> <Gold.Chemscore.DEClash.Weighted>
0.1181

> <Gold.Chemscore.DEInternal.Weighted>
2.7862

> <Gold.Chemscore.Rot.Weighted>
7.1729

> <Gold.Chemscore.Internal.Correction.Weighted>
   9.000000E+99

> <Gold.Protein.RotatedTorsions>
[ 6907 6896 6895 6894 ] final   18.51 input  -60.11 | X-H torsion
[ 7974 7965 7964 7962 ] final  151.26 input  175.53 | X-H torsion
[ 8008 7997 7996 7995 ] final -150.16 input   59.86 | X-H torsion
[ 10167 10162 10161 10158 ] final -158.56 input  -65.29 | X-H torsion
[ 10718 10713 10712 10709 ] final   29.73 input   66.30 | X-H torsion
[ 10763 10752 10751 10750 ] final  145.57 input  -60.55 | X-H torsion
[ 11005 11000 10999 10996 ] final -166.85 input  -57.11 | X-H torsion

> <Gold.Protein.ActiveResidues>
 VAL166  LYS551  ARG553  GLY616  TRP617  ASP618  TYR619  PRO620  LYS621  CYS622 
 ASP623  PHE694  ASN695  SER759  ASP760  ASP761  ALA762  ILE779  LEU786  VAL792 
 PHE793  MET794  SER795  GLU796  ALA797  LYS798  CYS799  TRP800  GLU811  SER814 

> <Gold.Protein.RotatedAtoms>
  151.8664  135.0505  160.0474 H   0  0  0  0  0  0  0  0  0  0  0  0  # atno 6907 bound_to 6896
  152.2622  133.5303  159.5397 H   0  0  0  0  0  0  0  0  0  0  0  0  # atno 6908 bound_to 6896
  150.7121  134.0729  159.3913 H   0  0  0  0  0  0  0  0  0  0  0  0  # atno 6909 bound_to 6896
  144.8305  139.6515  143.6061 H   0  0  0  0  0  0  0  0  0  0  0  0  # atno 7974 bound_to 7965
  155.6191  140.0679  157.2683 H   0  0  0  0  0  0  0  0  0  0  0  0  # atno 8008 bound_to 7997
  154.4234  140.1787  156.1401 H   0  0  0  0  0  0  0  0  0  0  0  0  # atno 8009 bound_to 7997
  156.0024  140.3335  155.6862 H   0  0  0  0  0  0  0  0  0  0  0  0  # atno 8010 bound_to 7997
  139.6682  143.9791  152.2268 H   0  0  0  0  0  0  0  0  0  0  0  0  # atno 10167 bound_to 10162
  157.2503  130.7112  149.6402 H   0  0  0  0  0  0  0  0  0  0  0  0  # atno 10718 bound_to 10713
  154.0076  135.2917  155.3396 H   0  0  0  0  0  0  0  0  0  0  0  0  # atno 10763 bound_to 10752
  154.7122  135.5144  153.8687 H   0  0  0  0  0  0  0  0  0  0  0  0  # atno 10764 bound_to 10752
  153.0738  135.6656  154.0311 H   0  0  0  0  0  0  0  0  0  0  0  0  # atno 10765 bound_to 10752
  140.5599  134.5344  157.5141 H   0  0  0  0  0  0  0  0  0  0  0  0  # atno 11005 bound_to 11000
  146.2608  139.6406  142.9363 LP  0  0  0  0  0  0  0  0  0  0  0  0  # atno 17320 bound_to 7965
  145.4906  141.0438  143.2595 LP  0  0  0  0  0  0  0  0  0  0  0  0  # atno 17321 bound_to 7965
  139.9549  144.6596  150.8136 LP  0  0  0  0  0  0  0  0  0  0  0  0  # atno 17342 bound_to 10162
  140.7608  143.3159  151.2735 LP  0  0  0  0  0  0  0  0  0  0  0  0  # atno 17343 bound_to 10162
  155.9666  130.4430  150.5402 LP  0  0  0  0  0  0  0  0  0  0  0  0  # atno 17370 bound_to 10713
  157.3285  131.0695  151.1879 LP  0  0  0  0  0  0  0  0  0  0  0  0  # atno 17371 bound_to 10713
  139.9413  134.7782  156.0672 LP  0  0  0  0  0  0  0  0  0  0  0  0  # atno 17394 bound_to 11000
  141.1121  133.6640  156.3003 LP  0  0  0  0  0  0  0  0  0  0  0  0  # atno 17395 bound_to 11000

$$$$
