AV-unprocessed.smi:1363|AV-procd|sdf|5565|dock3
  -GOLD-   22720 5153D 1   1.00000     0.00000
 Structure written by MMmdl.
 44 45  0  0  0  0  0  0  0  0  1 V2000
  158.0798  133.6090  163.8500 C   0  0  0  0  0  0  0  0  0  0  0  0
  157.0538  134.5688  163.2876 C   0  0  0  0  0  0  0  0  0  0  0  0
  156.7386  135.6108  164.1437 N   0  0  0  0  0  0  0  0  0  0  0  0
  155.8169  136.5479  163.7114 C   0  0  0  0  0  0  0  0  0  0  0  0
  155.5326  137.6594  164.7068 C   0  0  0  0  0  0  0  0  0  0  0  0
  155.2336  136.4480  162.4899 C   0  0  0  0  0  0  0  0  0  0  0  0
  154.2138  137.4636  161.9765 C   0  0  0  0  0  0  0  0  0  0  0  0
  154.7866  138.7890  161.4682 C   0  0  0  0  0  0  0  0  0  0  0  0
  155.9983  139.0026  161.5119 O   0  0  0  0  0  0  0  0  0  0  0  0
  153.9000  139.6693  160.9803 N   0  0  0  0  0  0  0  0  0  0  0  0
  154.2334  140.9740  160.4219 C   0  0  0  0  0  0  0  0  0  0  0  0
  153.5558  142.1117  161.2115 C   0  0  0  0  0  0  0  0  0  0  0  0
  152.6661  143.0464  160.3979 C   0  0  0  0  0  0  0  0  0  0  0  0
  152.4923  142.9604  159.0615 C   0  0  0  0  0  0  0  0  0  0  0  0
  151.5820  143.8725  158.2579 C   0  0  0  0  0  0  0  0  0  0  0  0
  150.6092  144.6633  159.1469 C   0  0  0  0  0  0  0  0  0  0  0  0
  151.3264  145.2268  160.3784 C   0  0  0  0  0  0  0  0  0  0  0  0
  151.9464  144.1031  161.2281 C   0  0  0  0  0  0  0  0  0  0  0  0
  155.6014  135.3031  161.6235 C   0  0  0  0  0  0  0  0  0  0  0  0
  155.0945  135.1460  160.5136 O   0  0  0  0  0  0  0  0  0  0  0  0
  156.5502  134.3865  162.1049 N   0  0  0  0  0  0  0  0  0  0  0  0
  157.1482  135.7227  165.0599 H   0  0  0  0  0  0  0  0  0  0  0  0
  158.2094  132.7478  163.1933 H   0  0  0  0  0  0  0  0  0  0  0  0
  157.7666  133.2455  164.8291 H   0  0  0  0  0  0  0  0  0  0  0  0
  159.0445  134.1058  163.9564 H   0  0  0  0  0  0  0  0  0  0  0  0
  155.8012  138.6279  164.2847 H   0  0  0  0  0  0  0  0  0  0  0  0
  156.1006  137.5277  165.6286 H   0  0  0  0  0  0  0  0  0  0  0  0
  154.4740  137.6772  164.9672 H   0  0  0  0  0  0  0  0  0  0  0  0
  153.4692  137.6853  162.7414 H   0  0  0  0  0  0  0  0  0  0  0  0
  153.6489  136.9974  161.1684 H   0  0  0  0  0  0  0  0  0  0  0  0
  152.9237  139.4117  160.9852 H   0  0  0  0  0  0  0  0  0  0  0  0
  155.3178  141.0806  160.4641 H   0  0  0  0  0  0  0  0  0  0  0  0
  153.9509  141.0102  159.3681 H   0  0  0  0  0  0  0  0  0  0  0  0
  152.9461  141.6871  162.0101 H   0  0  0  0  0  0  0  0  0  0  0  0
  154.3228  142.7164  161.6974 H   0  0  0  0  0  0  0  0  0  0  0  0
  153.0164  142.2166  158.4813 H   0  0  0  0  0  0  0  0  0  0  0  0
  152.2103  144.5559  157.6858 H   0  0  0  0  0  0  0  0  0  0  0  0
  151.0225  143.2762  157.5365 H   0  0  0  0  0  0  0  0  0  0  0  0
  150.1475  145.4674  158.5730 H   0  0  0  0  0  0  0  0  0  0  0  0
  149.7984  144.0100  159.4723 H   0  0  0  0  0  0  0  0  0  0  0  0
  152.1106  145.9119  160.0531 H   0  0  0  0  0  0  0  0  0  0  0  0
  150.6362  145.8142  160.9847 H   0  0  0  0  0  0  0  0  0  0  0  0
  151.1686  143.6027  161.8058 H   0  0  0  0  0  0  0  0  0  0  0  0
  152.6404  144.5380  161.9481 H   0  0  0  0  0  0  0  0  0  0  0  0
  1 23  1  0  0  0  0
  1 24  1  0  0  0  0
  1 25  1  0  0  0  0
  1  2  1  0  0  0  0
  2  3  1  0  0  0  0
  2 21  2  0  0  0  0
  3  4  1  0  0  0  0
  3 22  1  0  0  0  0
  4  6  2  0  0  0  0
  4  5  1  0  0  0  0
  5 26  1  0  0  0  0
  5 27  1  0  0  0  0
  5 28  1  0  0  0  0
  6 19  1  0  0  0  0
  6  7  1  0  0  0  0
  7  8  1  0  0  0  0
  7 29  1  0  0  0  0
  7 30  1  0  0  0  0
  8  9  2  0  0  0  0
  8 10  1  0  0  0  0
 10 11  1  0  0  0  0
 10 31  1  0  0  0  0
 11 12  1  0  0  0  0
 11 32  1  0  0  0  0
 11 33  1  0  0  0  0
 12 13  1  0  0  0  0
 12 34  1  0  0  0  0
 12 35  1  0  0  0  0
 13 18  1  0  0  0  0
 13 14  2  0  0  0  0
 14 15  1  0  0  0  0
 14 36  1  0  0  0  0
 15 16  1  0  0  0  0
 15 37  1  0  0  0  0
 15 38  1  0  0  0  0
 16 17  1  0  0  0  0
 16 39  1  0  0  0  0
 16 40  1  0  0  0  0
 17 18  1  0  0  0  0
 17 41  1  0  0  0  0
 17 42  1  0  0  0  0
 18 43  1  0  0  0  0
 18 44  1  0  0  0  0
 19 20  2  0  0  0  0
 19 21  1  0  0  0  0
M  END
> <s_m_source_file>
AV-unprocessed.smi

> <i_m_source_file_index>
1363

> <i_lp_mmshare_version>
43012

> <i_f3d_flags>
0

> <s_epik_input>
W0NIM11jMW5jKFtDSDNdKWMoYyg9TylbbkhdMSlbQ0gyXUMoPU8pW05IXVtDSDJdW0NIMl1DMj1bQ0hdW0NIMl1bQ0gyXVtDSDJdW0NIMl0y

> <s_epik_cmdline>
J2VwaWtfcHl0aG9uJywgJy1waCcsICc3LjAnLCAnLXRuJywgJzgnLCAnLW1hJywgJzIwMCcsICctbWV0YWxfYmluZGluZycsICctaW1hZScsICc8aW5maWxlLm1hZT4nLCAnLW9tYWUnLCAnPG91dGZpbGUubWFlPic=

> <r_lp_tautomer_probability>
0.156392

> <r_epik_Ionization_Penalty>
0.0140998

> <r_epik_Ionization_Penalty_Charging>
0.0139776

> <r_epik_Ionization_Penalty_Neutral>
0.000122158

> <r_epik_State_Penalty>
1.53009

> <r_epik_Charging_Adjusted_Penalty>
1.54407

> <i_epik_Tot_Q>
0

> <i_epik_Tot_abs_Q>
0

> <r_epik_Metal_State_Penalty>
1.7066

> <b_epik_Metal_Only>
0

> <s_lp_Force_Field>
OPLS_2005

> <r_lp_Energy>
12.7953

> <b_lp_Chiralities_Consistent>
1

> <s_lp_Variant>
AV-unprocessed.smi:1363-2

> <Gold.Version>
5.8.1

> <Gold.Id.Protein>
6NUR|6NUR_protein|mol2

> <Gold.PLP.Fitness>
49.8846

> <Gold.PLP.PLP>
-48.0929

> <Gold.PLP.part.hbond>
-0.9654

> <Gold.PLP.part.metal>
0.0000

> <Gold.PLP.part.buried>
-5.5288

> <Gold.PLP.part.nonpolar>
-41.2560

> <Gold.PLP.part.repulsive>
0.0488

> <Gold.PLP.ligand.clash>
0.0000

> <Gold.PLP.ligand.torsion>
0.6241

> <Gold.PLP.Chemscore.Hbond>
0.9913

> <Gold.PLP.Chemscore.CHOScore>
0.0000

> <Gold.PLP.Chemscore.Metal>
0.0000

> <Gold.PLP.Chemscore.Internal.Correction>
0.0660

> <Gold.Rescore>
     Score         DG    S(hbond)    S(metal)    S(lipo)     H(rot)  DE(clash)    DE(int)     intcor
     15.59     -16.38       0.00        0.00     133.91       1.86       0.09       0.70       ----

> <Gold.Chemscore.Fitness>
15.5874

> <Gold.Chemscore.DG>
-16.3813

> <Gold.Chemscore.ZeroCoef>
-5.4800

> <Gold.Chemscore.Hbond>
0.0011

> <Gold.Chemscore.Metal>
0.0000

> <Gold.Chemscore.Lipo>
133.9068

> <Gold.Chemscore.Internal_Hbond>
0.0000

> <Gold.Chemscore.DEClash>
0.0923

> <Gold.Chemscore.DEInternal>
0.7015

> <Gold.Chemscore.Rot>
1.8631

> <Gold.Chemscore.Internal.Correction>
   9.000000E+99

> <Gold.Chemscore.Hbond.Weighted>
-0.0038

> <Gold.Chemscore.Metal.Weighted>
-0.0000

> <Gold.Chemscore.Lipo.Weighted>
-15.6671

> <Gold.Chemscore.Internal_Hbond.Weighted>
0.0000

> <Gold.Chemscore.DEClash.Weighted>
0.0923

> <Gold.Chemscore.DEInternal.Weighted>
0.7015

> <Gold.Chemscore.Rot.Weighted>
4.7697

> <Gold.Chemscore.Internal.Correction.Weighted>
   9.000000E+99

> <Gold.Protein.RotatedTorsions>
[ 6907 6896 6895 6894 ] final   69.33 input  -60.11 | X-H torsion
[ 7974 7965 7964 7962 ] final    6.56 input  175.53 | X-H torsion
[ 8008 7997 7996 7995 ] final  -89.74 input   59.86 | X-H torsion
[ 10167 10162 10161 10158 ] final   61.29 input  -65.29 | X-H torsion
[ 10718 10713 10712 10709 ] final  -89.59 input   66.30 | X-H torsion
[ 10763 10752 10751 10750 ] final  -42.30 input  -60.55 | X-H torsion
[ 11005 11000 10999 10996 ] final  -41.38 input  -57.11 | X-H torsion

> <Gold.Protein.ActiveResidues>
 VAL166  LYS551  ARG553  GLY616  TRP617  ASP618  TYR619  PRO620  LYS621  CYS622 
 ASP623  PHE694  ASN695  SER759  ASP760  ASP761  ALA762  ILE779  LEU786  VAL792 
 PHE793  MET794  SER795  GLU796  ALA797  LYS798  CYS799  TRP800  GLU811  SER814 

> <Gold.Protein.RotatedAtoms>
  152.4679  134.5032  159.9730 H   0  0  0  0  0  0  0  0  0  0  0  0  # atno 6907 bound_to 6896
  151.5065  133.3487  159.2885 H   0  0  0  0  0  0  0  0  0  0  0  0  # atno 6908 bound_to 6896
  150.8673  134.8067  159.7190 H   0  0  0  0  0  0  0  0  0  0  0  0  # atno 6909 bound_to 6896
  146.2434  140.0215  142.8397 H   0  0  0  0  0  0  0  0  0  0  0  0  # atno 7974 bound_to 7965
  154.6902  140.0538  157.0355 H   0  0  0  0  0  0  0  0  0  0  0  0  # atno 8008 bound_to 7997
  155.0828  140.3211  155.4577 H   0  0  0  0  0  0  0  0  0  0  0  0  # atno 8009 bound_to 7997
  156.2725  140.2062  156.5956 H   0  0  0  0  0  0  0  0  0  0  0  0  # atno 8010 bound_to 7997
  140.1564  144.4413  150.6732 H   0  0  0  0  0  0  0  0  0  0  0  0  # atno 10167 bound_to 10162
  155.9985  130.4878  150.5194 H   0  0  0  0  0  0  0  0  0  0  0  0  # atno 10718 bound_to 10713
  153.9767  135.6722  153.4748 H   0  0  0  0  0  0  0  0  0  0  0  0  # atno 10763 bound_to 10752
  153.0767  135.4945  154.8416 H   0  0  0  0  0  0  0  0  0  0  0  0  # atno 10764 bound_to 10752
  154.7188  135.3112  154.9042 H   0  0  0  0  0  0  0  0  0  0  0  0  # atno 10765 bound_to 10752
  141.0242  133.6849  156.2449 H   0  0  0  0  0  0  0  0  0  0  0  0  # atno 11005 bound_to 11000
  145.1236  140.9477  143.4585 LP  0  0  0  0  0  0  0  0  0  0  0  0  # atno 17320 bound_to 7965
  145.0456  139.3223  143.5954 LP  0  0  0  0  0  0  0  0  0  0  0  0  # atno 17321 bound_to 7965
  140.6671  143.2272  151.5717 LP  0  0  0  0  0  0  0  0  0  0  0  0  # atno 17342 bound_to 10162
  139.5402  144.2670  152.1334 LP  0  0  0  0  0  0  0  0  0  0  0  0  # atno 17343 bound_to 10162
  157.3158  131.0672  151.1968 LP  0  0  0  0  0  0  0  0  0  0  0  0  # atno 17370 bound_to 10713
  157.2899  130.6791  149.6108 LP  0  0  0  0  0  0  0  0  0  0  0  0  # atno 17371 bound_to 10713
  140.6521  134.5056  157.5578 LP  0  0  0  0  0  0  0  0  0  0  0  0  # atno 17394 bound_to 11000
  139.9165  134.8236  156.1350 LP  0  0  0  0  0  0  0  0  0  0  0  0  # atno 17395 bound_to 11000

$$$$
