AV-unprocessed.smi:1019|AV-procd|sdf|4444|dock10
  -GOLD-   22720 2403D 1   1.00000     0.00000
 Structure written by MMmdl.
 44 46  0  0  0  0  0  0  0  0  2 V2000
  147.2159  142.4815  156.4172 C   0  0  0  0  0  0  0  0  0  0  0  0
  147.8218  142.3606  155.0671 N   0  3  2  0  0  0  0  0  0  0  0  0
  146.8183  142.4719  153.9777 C   0  0  0  0  0  0  0  0  0  0  0  0
  146.2669  143.8807  153.8451 C   0  0  0  0  0  0  0  0  0  0  0  0
  146.4664  144.6049  152.6507 C   0  0  0  0  0  0  0  0  0  0  0  0
  145.9594  145.9126  152.5229 C   0  0  0  0  0  0  0  0  0  0  0  0
  145.2489  146.5001  153.5873 C   0  0  0  0  0  0  0  0  0  0  0  0
  145.0450  145.7792  154.7799 C   0  0  0  0  0  0  0  0  0  0  0  0
  145.5522  144.4716  154.9091 C   0  0  0  0  0  0  0  0  0  0  0  0
  148.6690  141.1477  154.9285 C   0  0  0  0  0  0  0  0  0  0  0  0
  150.0135  141.2719  155.6823 C   0  0  2  0  0  0  0  0  0  0  0  0
  150.8972  140.2689  155.2225 O   0  0  0  0  0  0  0  0  0  0  0  0
  149.8806  141.1081  157.2104 C   0  0  0  0  0  0  0  0  0  0  0  0
  150.9385  141.7838  157.9402 N   0  0  0  0  0  0  0  0  0  0  0  0
  151.2668  143.0886  157.8701 C   0  0  0  0  0  0  0  0  0  0  0  0
  152.2880  143.5007  158.6152 N   0  0  0  0  0  0  0  0  0  0  0  0
  152.6572  142.3308  159.2561 C   0  0  0  0  0  0  0  0  0  0  0  0
  153.6872  142.0833  160.1914 C   0  0  0  0  0  0  0  0  0  0  0  0
  153.8781  140.7889  160.7182 C   0  0  0  0  0  0  0  0  0  0  0  0
  153.0426  139.7249  160.3211 C   0  0  0  0  0  0  0  0  0  0  0  0
  152.0103  139.9466  159.3894 C   0  0  0  0  0  0  0  0  0  0  0  0
  151.8262  141.2386  158.8622 C   0  0  0  0  0  0  0  0  0  0  0  0
  146.4900  141.6860  156.5909 H   0  0  0  0  0  0  0  0  0  0  0  0
  146.7059  143.4372  156.5367 H   0  0  0  0  0  0  0  0  0  0  0  0
  147.9679  142.4263  157.2031 H   0  0  0  0  0  0  0  0  0  0  0  0
  147.2738  142.2132  153.0207 H   0  0  0  0  0  0  0  0  0  0  0  0
  146.0092  141.7575  154.1396 H   0  0  0  0  0  0  0  0  0  0  0  0
  147.0100  144.1601  151.8301 H   0  0  0  0  0  0  0  0  0  0  0  0
  146.1151  146.4651  151.6078 H   0  0  0  0  0  0  0  0  0  0  0  0
  144.8592  147.5026  153.4884 H   0  0  0  0  0  0  0  0  0  0  0  0
  144.4984  146.2297  155.5955 H   0  0  0  0  0  0  0  0  0  0  0  0
  145.3920  143.9258  155.8276 H   0  0  0  0  0  0  0  0  0  0  0  0
  148.0935  140.2901  155.2790 H   0  0  0  0  0  0  0  0  0  0  0  0
  148.8870  140.9497  153.8779 H   0  0  0  0  0  0  0  0  0  0  0  0
  150.4758  142.2369  155.4820 H   0  0  0  0  0  0  0  0  0  0  0  0
  150.6800  139.4503  155.6409 H   0  0  0  0  0  0  0  0  0  0  0  0
  148.9211  141.5012  157.5505 H   0  0  0  0  0  0  0  0  0  0  0  0
  149.8997  140.0520  157.4828 H   0  0  0  0  0  0  0  0  0  0  0  0
  150.7338  143.7733  157.2264 H   0  0  0  0  0  0  0  0  0  0  0  0
  154.3314  142.8913  160.5058 H   0  0  0  0  0  0  0  0  0  0  0  0
  154.6684  140.6124  161.4333 H   0  0  0  0  0  0  0  0  0  0  0  0
  153.1942  138.7381  160.7338 H   0  0  0  0  0  0  0  0  0  0  0  0
  151.3684  139.1331  159.0864 H   0  0  0  0  0  0  0  0  0  0  0  0
  148.4421  143.1485  154.9477 H   0  0  0  0  0  0  0  0  0  0  0  0
  1  2  1  0  0  0  0
  1 23  1  0  0  0  0
  1 24  1  0  0  0  0
  1 25  1  0  0  0  0
  2  3  1  0  0  0  0
  2 10  1  0  0  0  0
  2 44  1  0  0  0  0
  3  4  1  0  0  0  0
  3 26  1  0  0  0  0
  3 27  1  0  0  0  0
  4  9  1  0  0  0  0
  4  5  2  0  0  0  0
  5  6  1  0  0  0  0
  5 28  1  0  0  0  0
  6  7  2  0  0  0  0
  6 29  1  0  0  0  0
  7  8  1  0  0  0  0
  7 30  1  0  0  0  0
  8  9  2  0  0  0  0
  8 31  1  0  0  0  0
  9 32  1  0  0  0  0
 10 11  1  0  0  0  0
 10 33  1  0  0  0  0
 10 34  1  0  0  0  0
 11 12  1  0  0  0  0
 11 13  1  0  0  0  0
 11 35  1  0  0  0  0
 12 36  1  0  0  0  0
 13 14  1  0  0  0  0
 13 37  1  0  0  0  0
 13 38  1  0  0  0  0
 14 22  1  0  0  0  0
 14 15  1  0  0  0  0
 15 16  2  0  0  0  0
 15 39  1  0  0  0  0
 16 17  1  0  0  0  0
 17 22  2  0  0  0  0
 17 18  1  0  0  0  0
 18 19  2  0  0  0  0
 18 40  1  0  0  0  0
 19 20  1  0  0  0  0
 19 41  1  0  0  0  0
 20 21  2  0  0  0  0
 20 42  1  0  0  0  0
 21 22  1  0  0  0  0
 21 43  1  0  0  0  0
M  CHG  1   2   1
M  END
> <s_m_source_file>
AV-unprocessed.smi

> <i_m_source_file_index>
1019

> <i_lp_mmshare_version>
43012

> <i_f3d_flags>
0

> <s_epik_input>
W2NIXTFbY0hdW2NIXVtjSF1bY0hdYzFbQ0gyXU4oW0NIM10pW0NIMl1bQ0BIXShbT0hdKVtDSDJdbihbY0hdbjIpYyhjMjMpW2NIXVtjSF1bY0hdW2NIXTM=

> <s_epik_cmdline>
J2VwaWtfcHl0aG9uJywgJy1waCcsICc3LjAnLCAnLXRuJywgJzgnLCAnLW1hJywgJzIwMCcsICctbWV0YWxfYmluZGluZycsICctaW1hZScsICc8aW5maWxlLm1hZT4nLCAnLW9tYWUnLCAnPG91dGZpbGUubWFlPic=

> <r_epik_Ionization_Penalty>
0.0996557

> <r_epik_Ionization_Penalty_Charging>
0.0475377

> <r_epik_Ionization_Penalty_Neutral>
0.0521179

> <r_epik_State_Penalty>
0.0851777

> <r_epik_Charging_Adjusted_Penalty>
0.132715

> <i_epik_Tot_Q>
1

> <i_epik_Tot_abs_Q>
1

> <r_epik_Metal_State_Penalty>
0.0423478

> <b_epik_Metal_Only>
0

> <s_lp_Force_Field>
OPLS_2005

> <r_lp_Energy>
17.6047

> <b_lp_Chiralities_Consistent>
1

> <s_lp_Variant>
AV-unprocessed.smi:1019-2

> <Gold.Version>
5.8.1

> <Gold.Id.Protein>
6NUR|6NUR_protein|mol2

> <Gold.PLP.Fitness>
60.7154

> <Gold.PLP.PLP>
-50.3367

> <Gold.PLP.part.hbond>
-2.0000

> <Gold.PLP.part.metal>
0.0000

> <Gold.PLP.part.buried>
-5.8829

> <Gold.PLP.part.nonpolar>
-43.4506

> <Gold.PLP.part.repulsive>
0.1468

> <Gold.PLP.ligand.clash>
0.0000

> <Gold.PLP.ligand.torsion>
0.6808

> <Gold.PLP.Chemscore.Hbond>
2.8160

> <Gold.PLP.Chemscore.CHOScore>
1.0000

> <Gold.PLP.Chemscore.Metal>
0.0000

> <Gold.Chemscore.Hbonds>
donor molecule, donor type, donor heavy atom, donor atom, acceptor molecule, acceptor atom, score
      L1  H     2    44       P1  8028  1.70
      P1  H  7989  7998       L1    12  1.00
      L1  C    15    39       P1  8028  0.87

> <Gold.PLP.Chemscore.Internal.Correction>
0.2924

> <Gold.Rescore>
     Score         DG    S(hbond)    S(metal)    S(lipo)     H(rot)  DE(clash)    DE(int)     intcor
     16.28     -17.34       1.05        0.00     122.94       2.36       0.18       0.88       ----

> <Gold.Chemscore.Fitness>
16.2833

> <Gold.Chemscore.DG>
-17.3384

> <Gold.Chemscore.ZeroCoef>
-5.4800

> <Gold.Chemscore.Hbond>
1.0540

> <Gold.Chemscore.Metal>
0.0000

> <Gold.Chemscore.Lipo>
122.9378

> <Gold.Chemscore.Internal_Hbond>
0.0000

> <Gold.Chemscore.DEClash>
0.1773

> <Gold.Chemscore.DEInternal>
0.8778

> <Gold.Chemscore.Rot>
2.3616

> <Gold.Chemscore.Internal.Correction>
   9.000000E+99

> <Gold.Chemscore.Hbonds>
donor molecule, donor type, donor heavy atom, donor atom, acceptor molecule, acceptor atom, score
      L1  H     2    44       P1  8028  0.85
      P1  H  7989  7998       L1    12  0.58

> <Gold.Chemscore.Hbond.Weighted>
-3.5204

> <Gold.Chemscore.Metal.Weighted>
-0.0000

> <Gold.Chemscore.Lipo.Weighted>
-14.3837

> <Gold.Chemscore.Internal_Hbond.Weighted>
0.0000

> <Gold.Chemscore.DEClash.Weighted>
0.1773

> <Gold.Chemscore.DEInternal.Weighted>
0.8778

> <Gold.Chemscore.Rot.Weighted>
6.0457

> <Gold.Chemscore.Internal.Correction.Weighted>
   9.000000E+99

> <Gold.Protein.RotatedTorsions>
[ 6907 6896 6895 6894 ] final   11.89 input  -60.11 | X-H torsion
[ 7974 7965 7964 7962 ] final -134.29 input  175.53 | X-H torsion
[ 8008 7997 7996 7995 ] final   32.19 input   59.86 | X-H torsion
[ 10167 10162 10161 10158 ] final  173.71 input  -65.29 | X-H torsion
[ 10718 10713 10712 10709 ] final   25.12 input   66.30 | X-H torsion
[ 10763 10752 10751 10750 ] final -117.80 input  -60.55 | X-H torsion
[ 11005 11000 10999 10996 ] final  143.98 input  -57.11 | X-H torsion

> <Gold.Protein.ActiveResidues>
 VAL166  LYS551  ARG553  GLY616  TRP617  ASP618  TYR619  PRO620  LYS621  CYS622 
 ASP623  PHE694  ASN695  SER759  ASP760  ASP761  ALA762  ILE779  LEU786  VAL792 
 PHE793  MET794  SER795  GLU796  ALA797  LYS798  CYS799  TRP800  GLU811  SER814 

> <Gold.Protein.RotatedAtoms>
  151.7615  135.0809  160.0346 H   0  0  0  0  0  0  0  0  0  0  0  0  # atno 6907 bound_to 6896
  152.3350  133.5997  159.5844 H   0  0  0  0  0  0  0  0  0  0  0  0  # atno 6908 bound_to 6896
  150.7445  133.9726  159.3592 H   0  0  0  0  0  0  0  0  0  0  0  0  # atno 6909 bound_to 6896
  144.9116  140.6901  143.5022 H   0  0  0  0  0  0  0  0  0  0  0  0  # atno 7974 bound_to 7965
  155.1184  140.3246  155.4503 H   0  0  0  0  0  0  0  0  0  0  0  0  # atno 8008 bound_to 7997
  156.2670  140.2031  156.6255 H   0  0  0  0  0  0  0  0  0  0  0  0  # atno 8009 bound_to 7997
  154.6702  140.0537  157.0144 H   0  0  0  0  0  0  0  0  0  0  0  0  # atno 8010 bound_to 7997
  139.5117  144.3229  152.0185 H   0  0  0  0  0  0  0  0  0  0  0  0  # atno 10167 bound_to 10162
  157.1890  130.6837  149.6142 H   0  0  0  0  0  0  0  0  0  0  0  0  # atno 10718 bound_to 10713
  154.8567  135.4296  154.2038 H   0  0  0  0  0  0  0  0  0  0  0  0  # atno 10763 bound_to 10752
  153.3078  135.6973  153.7149 H   0  0  0  0  0  0  0  0  0  0  0  0  # atno 10764 bound_to 10752
  153.6253  135.3494  155.2998 H   0  0  0  0  0  0  0  0  0  0  0  0  # atno 10765 bound_to 10752
  140.0596  134.9212  157.1161 H   0  0  0  0  0  0  0  0  0  0  0  0  # atno 11005 bound_to 11000
  145.3445  139.1723  143.4467 LP  0  0  0  0  0  0  0  0  0  0  0  0  # atno 17320 bound_to 7965
  146.3161  140.3490  142.8654 LP  0  0  0  0  0  0  0  0  0  0  0  0  # atno 17321 bound_to 7965
  140.2671  144.4005  150.6164 LP  0  0  0  0  0  0  0  0  0  0  0  0  # atno 17342 bound_to 10162
  140.6115  143.2170  151.6876 LP  0  0  0  0  0  0  0  0  0  0  0  0  # atno 17343 bound_to 10162
  155.9714  130.4621  150.6133 LP  0  0  0  0  0  0  0  0  0  0  0  0  # atno 17370 bound_to 10713
  157.3879  131.0791  151.1420 LP  0  0  0  0  0  0  0  0  0  0  0  0  # atno 17371 bound_to 10713
  140.3790  134.2307  155.7172 LP  0  0  0  0  0  0  0  0  0  0  0  0  # atno 17394 bound_to 11000
  141.1967  133.8075  157.0659 LP  0  0  0  0  0  0  0  0  0  0  0  0  # atno 17395 bound_to 11000

$$$$
