AV-unprocessed.smi:1830|AV-procd|sdf|7455|dock4
  -GOLD-   22720 9143D 1   1.00000     0.00000
 Structure written by MMmdl.
 53 56  0  0  0  0  0  0  0  0  2 V2000
  148.6683  136.8665  156.3452 O   0  0  0  0  0  0  0  0  0  0  0  0
  148.6621  136.5152  155.1657 C   0  0  0  0  0  0  0  0  0  0  0  0
  149.6364  136.8123  154.2949 N   0  0  0  0  0  0  0  0  0  0  0  0
  150.8483  137.5680  154.6017 C   0  0  0  0  0  0  0  0  0  0  0  0
  150.5717  138.7565  155.5400 C   0  0  1  0  0  0  0  0  0  0  0  0
  151.7029  139.0294  156.5620 C   0  0  0  0  0  0  0  0  0  0  0  0
  151.3883  140.2139  157.3365 N   0  0  0  0  0  0  0  0  0  0  0  0
  152.3838  140.6580  158.2843 C   0  0  0  0  0  0  0  0  0  0  0  0
  151.9702  142.1016  158.6202 C   0  0  0  0  0  0  0  0  0  0  0  0
  151.0676  142.5284  157.4414 C   0  0  0  0  0  0  0  0  0  0  0  0
  151.1926  141.3491  156.4751 C   0  0  2  0  0  0  0  0  0  0  0  0
  150.0311  141.1003  155.5016 C   0  0  0  0  0  0  0  0  0  0  0  0
  150.3289  139.9241  154.7444 O   0  0  0  0  0  0  0  0  0  0  0  0
  147.6884  135.7997  154.5787 N   0  0  0  0  0  0  0  0  0  0  0  0
  146.4682  135.3452  155.1543 C   0  0  0  0  0  0  0  0  0  0  0  0
  145.9663  135.9123  156.3542 C   0  0  0  0  0  0  0  0  0  0  0  0
  144.7936  135.3981  156.9384 C   0  0  0  0  0  0  0  0  0  0  0  0
  144.1478  134.3118  156.3239 C   0  0  0  0  0  0  0  0  0  0  0  0
  144.6574  133.7849  155.1915 N   0  3  0  0  0  0  0  0  0  0  0  0
  145.7737  134.2449  154.5726 C   0  0  0  0  0  0  0  0  0  0  0  0
  146.1833  133.5981  153.3842 N   0  0  0  0  0  0  0  0  0  0  0  0
  146.1268  132.1448  153.2769 C   0  0  0  0  0  0  0  0  0  0  0  0
  146.2917  131.8514  151.7884 C   0  0  0  0  0  0  0  0  0  0  0  0
  145.5663  133.0268  151.1403 C   0  0  0  0  0  0  0  0  0  0  0  0
  145.8340  134.1932  152.0977 C   0  0  0  0  0  0  0  0  0  0  0  0
  149.5467  136.4781  153.3466 H   0  0  0  0  0  0  0  0  0  0  0  0
  151.5553  136.8875  155.0767 H   0  0  0  0  0  0  0  0  0  0  0  0
  151.3350  137.9186  153.6902 H   0  0  0  0  0  0  0  0  0  0  0  0
  149.6551  138.5381  156.0910 H   0  0  0  0  0  0  0  0  0  0  0  0
  151.8276  138.1724  157.2246 H   0  0  0  0  0  0  0  0  0  0  0  0
  152.6533  139.1731  156.0470 H   0  0  0  0  0  0  0  0  0  0  0  0
  152.4178  140.0146  159.1639 H   0  0  0  0  0  0  0  0  0  0  0  0
  153.3724  140.6535  157.8222 H   0  0  0  0  0  0  0  0  0  0  0  0
  151.4141  142.1407  159.5574 H   0  0  0  0  0  0  0  0  0  0  0  0
  152.8436  142.7465  158.7215 H   0  0  0  0  0  0  0  0  0  0  0  0
  150.0368  142.6435  157.7795 H   0  0  0  0  0  0  0  0  0  0  0  0
  151.3837  143.4681  156.9876 H   0  0  0  0  0  0  0  0  0  0  0  0
  152.0981  141.5023  155.8839 H   0  0  0  0  0  0  0  0  0  0  0  0
  149.0890  140.9698  156.0363 H   0  0  0  0  0  0  0  0  0  0  0  0
  149.9077  141.9448  154.8235 H   0  0  0  0  0  0  0  0  0  0  0  0
  147.7801  135.6592  153.5832 H   0  0  0  0  0  0  0  0  0  0  0  0
  146.4771  136.7230  156.8516 H   0  0  0  0  0  0  0  0  0  0  0  0
  144.4040  135.8235  157.8516 H   0  0  0  0  0  0  0  0  0  0  0  0
  143.2488  133.8475  156.7028 H   0  0  0  0  0  0  0  0  0  0  0  0
  146.9081  131.6706  153.8718 H   0  0  0  0  0  0  0  0  0  0  0  0
  145.1594  131.7734  153.6180 H   0  0  0  0  0  0  0  0  0  0  0  0
  147.3484  131.8711  151.5179 H   0  0  0  0  0  0  0  0  0  0  0  0
  145.8837  130.8830  151.4975 H   0  0  0  0  0  0  0  0  0  0  0  0
  145.9035  133.2276  150.1231 H   0  0  0  0  0  0  0  0  0  0  0  0
  144.4958  132.8197  151.1041 H   0  0  0  0  0  0  0  0  0  0  0  0
  144.9686  134.8534  152.1704 H   0  0  0  0  0  0  0  0  0  0  0  0
  146.6807  134.7802  151.7409 H   0  0  0  0  0  0  0  0  0  0  0  0
  144.1668  132.9956  154.7706 H   0  0  0  0  0  0  0  0  0  0  0  0
  1  2  2  0  0  0  0
  2  3  1  0  0  0  0
  2 14  1  0  0  0  0
  3  4  1  0  0  0  0
  3 26  1  0  0  0  0
  4  5  1  0  0  0  0
  4 27  1  0  0  0  0
  4 28  1  0  0  0  0
  5 13  1  0  0  0  0
  5  6  1  0  0  0  0
  5 29  1  0  0  0  0
  6  7  1  0  0  0  0
  6 30  1  0  0  0  0
  6 31  1  0  0  0  0
  7 11  1  0  0  0  0
  7  8  1  0  0  0  0
  8  9  1  0  0  0  0
  8 32  1  0  0  0  0
  8 33  1  0  0  0  0
  9 10  1  0  0  0  0
  9 34  1  0  0  0  0
  9 35  1  0  0  0  0
 10 11  1  0  0  0  0
 10 36  1  0  0  0  0
 10 37  1  0  0  0  0
 11 12  1  0  0  0  0
 11 38  1  0  0  0  0
 12 13  1  0  0  0  0
 12 39  1  0  0  0  0
 12 40  1  0  0  0  0
 14 15  1  0  0  0  0
 14 41  1  0  0  0  0
 15 20  1  0  0  0  0
 15 16  2  0  0  0  0
 16 17  1  0  0  0  0
 16 42  1  0  0  0  0
 17 18  2  0  0  0  0
 17 43  1  0  0  0  0
 18 19  1  0  0  0  0
 18 44  1  0  0  0  0
 19 20  2  0  0  0  0
 19 53  1  0  0  0  0
 20 21  1  0  0  0  0
 21 25  1  0  0  0  0
 21 22  1  0  0  0  0
 22 23  1  0  0  0  0
 22 45  1  0  0  0  0
 22 46  1  0  0  0  0
 23 24  1  0  0  0  0
 23 47  1  0  0  0  0
 23 48  1  0  0  0  0
 24 25  1  0  0  0  0
 24 49  1  0  0  0  0
 24 50  1  0  0  0  0
 25 51  1  0  0  0  0
 25 52  1  0  0  0  0
M  CHG  1  19   1
M  END
> <s_m_source_file>
AV-unprocessed.smi

> <i_m_source_file_index>
1830

> <i_lp_mmshare_version>
43012

> <i_f3d_flags>
0

> <s_epik_input>
W0NIMl0xW0NIMl1bQ0gyXVtDQEhdKE4xMilbQ0gyXU9bQ0BASF0oW0NIMl0yKVtDSDJdW05IXUMoPU8pW05IXWMzW2NIXVtjSF1bY0hdbmMzTjRbQ0gyXVtDSDJdW0NIMl1bQ0gyXTQ=

> <s_epik_cmdline>
J2VwaWtfcHl0aG9uJywgJy1waCcsICc3LjAnLCAnLXRuJywgJzgnLCAnLW1hJywgJzIwMCcsICctbWV0YWxfYmluZGluZycsICctaW1hZScsICc8aW5maWxlLm1hZT4nLCAnLW9tYWUnLCAnPG91dGZpbGUubWFlPic=

> <r_epik_Ionization_Penalty>
2.19264

> <r_epik_Ionization_Penalty_Charging>
1.12452

> <r_epik_Ionization_Penalty_Neutral>
1.06812

> <r_epik_State_Penalty>
2.334

> <r_epik_Charging_Adjusted_Penalty>
3.45852

> <i_epik_Tot_Q>
1

> <i_epik_Tot_abs_Q>
1

> <r_epik_Metal_State_Penalty>
2.41144

> <b_epik_Metal_Only>
0

> <s_lp_Force_Field>
OPLS_2005

> <r_lp_Energy>
84.0052

> <b_lp_Chiralities_Consistent>
1

> <s_lp_Variant>
AV-unprocessed.smi:1830-24

> <Gold.Version>
5.8.1

> <Gold.Id.Protein>
6NUR|6NUR_protein|mol2

> <Gold.PLP.Fitness>
41.6088

> <Gold.PLP.PLP>
-29.7940

> <Gold.PLP.part.hbond>
-4.1785

> <Gold.PLP.part.metal>
0.0000

> <Gold.PLP.part.buried>
-5.4143

> <Gold.PLP.part.nonpolar>
-21.5060

> <Gold.PLP.part.repulsive>
0.2106

> <Gold.PLP.ligand.clash>
0.0000

> <Gold.PLP.ligand.torsion>
1.2460

> <Gold.PLP.Chemscore.Hbond>
4.6314

> <Gold.PLP.Chemscore.CHOScore>
0.0000

> <Gold.PLP.Chemscore.Metal>
0.0000

> <Gold.Chemscore.Hbonds>
donor molecule, donor type, donor heavy atom, donor atom, acceptor molecule, acceptor atom, score
      L1  H     3    26       P1  7948  1.00
      L1  H    14    41       P1  7948  0.60
      L1  H    19    53       P1 10957  1.98
      P1  H  7989  7998       L1    13  0.69

> <Gold.PLP.Chemscore.Internal.Correction>
0.4126

> <Gold.Rescore>
     Score         DG    S(hbond)    S(metal)    S(lipo)     H(rot)  DE(clash)    DE(int)     intcor
     16.93     -20.75       2.82        0.00      80.48       1.40       0.01       3.81       ----

> <Gold.Chemscore.Fitness>
16.9285

> <Gold.Chemscore.DG>
-20.7497

> <Gold.Chemscore.ZeroCoef>
-5.4800

> <Gold.Chemscore.Hbond>
2.8224

> <Gold.Chemscore.Metal>
0.0000

> <Gold.Chemscore.Lipo>
80.4844

> <Gold.Chemscore.Internal_Hbond>
0.0000

> <Gold.Chemscore.DEClash>
0.0098

> <Gold.Chemscore.DEInternal>
3.8114

> <Gold.Chemscore.Rot>
1.3959

> <Gold.Chemscore.Internal.Correction>
   9.000000E+99

> <Gold.Chemscore.Hbonds>
donor molecule, donor type, donor heavy atom, donor atom, acceptor molecule, acceptor atom, score
      L1  H     3    26       P1  7948  0.54
      L1  H    14    41       P1  7948  0.58
      L1  H    19    53       P1 10957  0.93
      P1  H  7989  7998       L1    13  0.07

> <Gold.Chemscore.Hbond.Weighted>
-9.4267

> <Gold.Chemscore.Metal.Weighted>
-0.0000

> <Gold.Chemscore.Lipo.Weighted>
-9.4167

> <Gold.Chemscore.Internal_Hbond.Weighted>
0.0000

> <Gold.Chemscore.DEClash.Weighted>
0.0098

> <Gold.Chemscore.DEInternal.Weighted>
3.8114

> <Gold.Chemscore.Rot.Weighted>
3.5736

> <Gold.Chemscore.Internal.Correction.Weighted>
   9.000000E+99

> <Gold.Protein.RotatedTorsions>
[ 6907 6896 6895 6894 ] final  106.27 input  -60.11 | X-H torsion
[ 7974 7965 7964 7962 ] final    0.66 input  175.53 | X-H torsion
[ 8008 7997 7996 7995 ] final   -3.65 input   59.86 | X-H torsion
[ 10167 10162 10161 10158 ] final  151.92 input  -65.29 | X-H torsion
[ 10718 10713 10712 10709 ] final  116.92 input   66.30 | X-H torsion
[ 10763 10752 10751 10750 ] final  -75.73 input  -60.55 | X-H torsion
[ 11005 11000 10999 10996 ] final  -13.44 input  -57.11 | X-H torsion

> <Gold.Protein.ActiveResidues>
 VAL166  LYS551  ARG553  GLY616  TRP617  ASP618  TYR619  PRO620  LYS621  CYS622 
 ASP623  PHE694  ASN695  SER759  ASP760  ASP761  ALA762  ILE779  LEU786  VAL792 
 PHE793  MET794  SER795  GLU796  ALA797  LYS798  CYS799  TRP800  GLU811  SER814 

> <Gold.Protein.RotatedAtoms>
  152.5200  133.9405  159.7623 H   0  0  0  0  0  0  0  0  0  0  0  0  # atno 6907 bound_to 6896
  150.9736  133.6309  159.2741 H   0  0  0  0  0  0  0  0  0  0  0  0  # atno 6908 bound_to 6896
  151.3512  135.0890  159.9456 H   0  0  0  0  0  0  0  0  0  0  0  0  # atno 6909 bound_to 6896
  146.2436  140.1104  142.8344 H   0  0  0  0  0  0  0  0  0  0  0  0  # atno 7974 bound_to 7965
  154.6227  140.2504  155.7530 H   0  0  0  0  0  0  0  0  0  0  0  0  # atno 8008 bound_to 7997
  156.2436  140.2923  156.0462 H   0  0  0  0  0  0  0  0  0  0  0  0  # atno 8009 bound_to 7997
  155.1871  140.0390  157.2883 H   0  0  0  0  0  0  0  0  0  0  0  0  # atno 8010 bound_to 7997
  139.4836  144.5401  151.7579 H   0  0  0  0  0  0  0  0  0  0  0  0  # atno 10167 bound_to 10162
  157.6130  131.1031  150.7541 H   0  0  0  0  0  0  0  0  0  0  0  0  # atno 10718 bound_to 10713
  154.4904  135.5821  153.6455 H   0  0  0  0  0  0  0  0  0  0  0  0  # atno 10763 bound_to 10752
  152.9861  135.6111  154.3132 H   0  0  0  0  0  0  0  0  0  0  0  0  # atno 10764 bound_to 10752
  154.3031  135.2846  155.2581 H   0  0  0  0  0  0  0  0  0  0  0  0  # atno 10765 bound_to 10752
  140.7761  133.8400  155.9250 H   0  0  0  0  0  0  0  0  0  0  0  0  # atno 11005 bound_to 11000
  145.0492  140.9004  143.5006 LP  0  0  0  0  0  0  0  0  0  0  0  0  # atno 17320 bound_to 7965
  145.1199  139.2700  143.5594 LP  0  0  0  0  0  0  0  0  0  0  0  0  # atno 17321 bound_to 7965
  140.4939  144.1270  150.5956 LP  0  0  0  0  0  0  0  0  0  0  0  0  # atno 17342 bound_to 10162
  140.4140  143.2643  151.9798 LP  0  0  0  0  0  0  0  0  0  0  0  0  # atno 17343 bound_to 10162
  156.7914  130.4891  149.5384 LP  0  0  0  0  0  0  0  0  0  0  0  0  # atno 17370 bound_to 10713
  156.1240  130.6130  151.0236 LP  0  0  0  0  0  0  0  0  0  0  0  0  # atno 17371 bound_to 10713
  140.9527  134.1757  157.4715 LP  0  0  0  0  0  0  0  0  0  0  0  0  # atno 17394 bound_to 11000
  139.8749  134.9915  156.5553 LP  0  0  0  0  0  0  0  0  0  0  0  0  # atno 17395 bound_to 11000

$$$$
