AV-unprocessed.smi:1821|AV-procd|sdf|7387|dock7
  -GOLD-   22720 9 53D 1   1.00000     0.00000
 Structure written by MMmdl.
 35 37  0  0  0  0  0  0  0  0  1 V2000
  151.8173  139.0871  155.6942 C   0  0  0  0  0  0  0  0  0  0  0  0
  151.9241  140.2142  156.6723 C   0  0  0  0  0  0  0  0  0  0  0  0
  152.7816  140.1914  157.6925 N   0  0  0  0  0  0  0  0  0  0  0  0
  152.5453  141.4028  158.3136 C   0  0  0  0  0  0  0  0  0  0  0  0
  153.1371  141.9773  159.4614 C   0  0  0  0  0  0  0  0  0  0  0  0
  152.7266  143.2475  159.9164 C   0  0  0  0  0  0  0  0  0  0  0  0
  151.7205  143.9601  159.2322 C   0  0  0  0  0  0  0  0  0  0  0  0
  151.1176  143.4059  158.0867 C   0  0  0  0  0  0  0  0  0  0  0  0
  151.5314  142.1379  157.6360 C   0  0  0  0  0  0  0  0  0  0  0  0
  151.1530  141.3245  156.5722 N   0  0  0  0  0  0  0  0  0  0  0  0
  150.1371  141.6228  155.5721 C   0  0  0  0  0  0  0  0  0  0  0  0
  148.7340  141.1275  155.9796 C   0  0  1  0  0  0  0  0  0  0  0  0
  147.9388  142.2118  156.4213 O   0  0  0  0  0  0  0  0  0  0  0  0
  148.0724  140.3408  154.8533 C   0  0  0  0  0  0  0  0  0  0  0  0
  148.0425  138.9254  154.8793 C   0  0  0  0  0  0  0  0  0  0  0  0
  148.5997  138.2423  155.9082 F   0  0  0  0  0  0  0  0  0  0  0  0
  147.4262  138.2085  153.8354 C   0  0  0  0  0  0  0  0  0  0  0  0
  146.8296  138.8949  152.7620 C   0  0  0  0  0  0  0  0  0  0  0  0
  146.8465  140.3016  152.7339 C   0  0  0  0  0  0  0  0  0  0  0  0
  147.4631  141.0233  153.7744 C   0  0  0  0  0  0  0  0  0  0  0  0
  147.4615  142.3775  153.7288 F   0  0  0  0  0  0  0  0  0  0  0  0
  152.5135  138.2892  155.9546 H   0  0  0  0  0  0  0  0  0  0  0  0
  152.0559  139.4346  154.6889 H   0  0  0  0  0  0  0  0  0  0  0  0
  150.8089  138.6741  155.6970 H   0  0  0  0  0  0  0  0  0  0  0  0
  153.9082  141.4390  159.9925 H   0  0  0  0  0  0  0  0  0  0  0  0
  153.1854  143.6767  160.7952 H   0  0  0  0  0  0  0  0  0  0  0  0
  151.4108  144.9318  159.5880 H   0  0  0  0  0  0  0  0  0  0  0  0
  150.3437  143.9468  157.5626 H   0  0  0  0  0  0  0  0  0  0  0  0
  150.1276  142.7000  155.4013 H   0  0  0  0  0  0  0  0  0  0  0  0
  150.4351  141.1720  154.6251 H   0  0  0  0  0  0  0  0  0  0  0  0
  148.8383  140.4743  156.8451 H   0  0  0  0  0  0  0  0  0  0  0  0
  148.4224  143.0129  156.2889 H   0  0  0  0  0  0  0  0  0  0  0  0
  147.4094  137.1289  153.8603 H   0  0  0  0  0  0  0  0  0  0  0  0
  146.3565  138.3431  151.9631 H   0  0  0  0  0  0  0  0  0  0  0  0
  146.3841  140.8291  151.9127 H   0  0  0  0  0  0  0  0  0  0  0  0
  1  2  1  0  0  0  0
  1 22  1  0  0  0  0
  1 23  1  0  0  0  0
  1 24  1  0  0  0  0
  2 10  1  0  0  0  0
  2  3  2  0  0  0  0
  3  4  1  0  0  0  0
  4  9  2  0  0  0  0
  4  5  1  0  0  0  0
  5  6  2  0  0  0  0
  5 25  1  0  0  0  0
  6  7  1  0  0  0  0
  6 26  1  0  0  0  0
  7  8  2  0  0  0  0
  7 27  1  0  0  0  0
  8  9  1  0  0  0  0
  8 28  1  0  0  0  0
  9 10  1  0  0  0  0
 10 11  1  0  0  0  0
 11 12  1  0  0  0  0
 11 29  1  0  0  0  0
 11 30  1  0  0  0  0
 12 13  1  0  0  0  0
 12 14  1  0  0  0  0
 12 31  1  0  0  0  0
 13 32  1  0  0  0  0
 14 20  1  0  0  0  0
 14 15  2  0  0  0  0
 15 16  1  0  0  0  0
 15 17  1  0  0  0  0
 17 18  2  0  0  0  0
 17 33  1  0  0  0  0
 18 19  1  0  0  0  0
 18 34  1  0  0  0  0
 19 20  2  0  0  0  0
 19 35  1  0  0  0  0
 20 21  1  0  0  0  0
M  END
> <s_m_source_file>
AV-unprocessed.smi

> <i_m_source_file_index>
1821

> <i_lp_mmshare_version>
43012

> <i_f3d_flags>
0

> <s_epik_input>
W2NIXTFbY0hdW2NIXVtjSF1jKGMxMiluKGMobjIpW0NIM10pW0NIMl1bQ0BIXShbT0hdKWMzYyhGKVtjSF1bY0hdW2NIXWMzRg==

> <s_epik_cmdline>
J2VwaWtfcHl0aG9uJywgJy1waCcsICc3LjAnLCAnLXRuJywgJzgnLCAnLW1hJywgJzIwMCcsICctbWV0YWxfYmluZGluZycsICctaW1hZScsICc8aW5maWxlLm1hZT4nLCAnLW9tYWUnLCAnPG91dGZpbGUubWFlPic=

> <r_epik_Ionization_Penalty>
0.129663

> <r_epik_Ionization_Penalty_Charging>
0

> <r_epik_Ionization_Penalty_Neutral>
0.129663

> <r_epik_State_Penalty>
0.119073

> <r_epik_Charging_Adjusted_Penalty>
0.119073

> <i_epik_Tot_Q>
0

> <i_epik_Tot_abs_Q>
0

> <r_epik_Metal_State_Penalty>
0.000131867

> <b_epik_Metal_Only>
0

> <s_lp_Force_Field>
OPLS_2005

> <r_lp_Energy>
13.032

> <b_lp_Chiralities_Consistent>
1

> <s_lp_Variant>
AV-unprocessed.smi:1821-2

> <Gold.Version>
5.8.1

> <Gold.Id.Protein>
6NUR|6NUR_protein|mol2

> <Gold.PLP.Fitness>
42.9960

> <Gold.PLP.PLP>
-39.9101

> <Gold.PLP.part.hbond>
-2.0000

> <Gold.PLP.part.metal>
0.0000

> <Gold.PLP.part.buried>
-0.5960

> <Gold.PLP.part.nonpolar>
-34.5591

> <Gold.PLP.part.repulsive>
0.0000

> <Gold.PLP.ligand.clash>
0.0000

> <Gold.PLP.ligand.torsion>
1.4726

> <Gold.PLP.Chemscore.Hbond>
2.0000

> <Gold.PLP.Chemscore.CHOScore>
0.0000

> <Gold.PLP.Chemscore.Metal>
0.0000

> <Gold.Chemscore.Hbonds>
donor molecule, donor type, donor heavy atom, donor atom, acceptor molecule, acceptor atom, score
      L1  H    13    32       P1  8028  1.00
      P1  H  7997  8009       L1     3  1.00

> <Gold.PLP.Chemscore.Internal.Correction>
0.0312

> <Gold.Rescore>
     Score         DG    S(hbond)    S(metal)    S(lipo)     H(rot)  DE(clash)    DE(int)     intcor
     14.64     -18.05       1.22        0.00     113.89       1.88       0.43       2.98       ----

> <Gold.Chemscore.Fitness>
14.6389

> <Gold.Chemscore.DG>
-18.0481

> <Gold.Chemscore.ZeroCoef>
-5.4800

> <Gold.Chemscore.Hbond>
1.2173

> <Gold.Chemscore.Metal>
0.0000

> <Gold.Chemscore.Lipo>
113.8901

> <Gold.Chemscore.Internal_Hbond>
0.0000

> <Gold.Chemscore.DEClash>
0.4295

> <Gold.Chemscore.DEInternal>
2.9798

> <Gold.Chemscore.Rot>
1.8839

> <Gold.Chemscore.Internal.Correction>
   9.000000E+99

> <Gold.Chemscore.Hbonds>
donor molecule, donor type, donor heavy atom, donor atom, acceptor molecule, acceptor atom, score
      L1  H    13    32       P1  8028  0.85
      P1  H  7997  8009       L1     3  0.37

> <Gold.Chemscore.Hbond.Weighted>
-4.0658

> <Gold.Chemscore.Metal.Weighted>
-0.0000

> <Gold.Chemscore.Lipo.Weighted>
-13.3251

> <Gold.Chemscore.Internal_Hbond.Weighted>
0.0000

> <Gold.Chemscore.DEClash.Weighted>
0.4295

> <Gold.Chemscore.DEInternal.Weighted>
2.9798

> <Gold.Chemscore.Rot.Weighted>
4.8227

> <Gold.Chemscore.Internal.Correction.Weighted>
   9.000000E+99

> <Gold.Protein.RotatedTorsions>
[ 6907 6896 6895 6894 ] final  -23.42 input  -60.11 | X-H torsion
[ 7974 7965 7964 7962 ] final  142.99 input  175.53 | X-H torsion
[ 8008 7997 7996 7995 ] final  166.97 input   59.86 | X-H torsion
[ 10167 10162 10161 10158 ] final  133.29 input  -65.29 | X-H torsion
[ 10718 10713 10712 10709 ] final   34.36 input   66.30 | X-H torsion
[ 10763 10752 10751 10750 ] final -167.87 input  -60.55 | X-H torsion
[ 11005 11000 10999 10996 ] final  -54.91 input  -57.11 | X-H torsion

> <Gold.Protein.ActiveResidues>
 VAL166  LYS551  ARG553  GLY616  TRP617  ASP618  TYR619  PRO620  LYS621  CYS622 
 ASP623  PHE694  ASN695  SER759  ASP760  ASP761  ALA762  ILE779  LEU786  VAL792 
 PHE793  MET794  SER795  GLU796  ALA797  LYS798  CYS799  TRP800  GLU811  SER814 

> <Gold.Protein.RotatedAtoms>
  151.2042  135.0455  159.8884 H   0  0  0  0  0  0  0  0  0  0  0  0  # atno 6907 bound_to 6896
  152.5430  134.0816  159.8248 H   0  0  0  0  0  0  0  0  0  0  0  0  # atno 6908 bound_to 6896
  151.0961  133.5231  159.2644 H   0  0  0  0  0  0  0  0  0  0  0  0  # atno 6909 bound_to 6896
  144.8959  139.5491  143.5776 H   0  0  0  0  0  0  0  0  0  0  0  0  # atno 7974 bound_to 7965
  156.1673  140.1629  156.8508 H   0  0  0  0  0  0  0  0  0  0  0  0  # atno 8008 bound_to 7997
  154.5221  140.0776  156.8225 H   0  0  0  0  0  0  0  0  0  0  0  0  # atno 8009 bound_to 7997
  155.3584  140.3394  155.4242 H   0  0  0  0  0  0  0  0  0  0  0  0  # atno 8010 bound_to 7997
  139.5303  144.6623  151.4974 H   0  0  0  0  0  0  0  0  0  0  0  0  # atno 10167 bound_to 10162
  157.3093  130.7391  149.6715 H   0  0  0  0  0  0  0  0  0  0  0  0  # atno 10718 bound_to 10713
  154.6687  135.2936  154.9771 H   0  0  0  0  0  0  0  0  0  0  0  0  # atno 10763 bound_to 10752
  154.0805  135.6605  153.4841 H   0  0  0  0  0  0  0  0  0  0  0  0  # atno 10764 bound_to 10752
  153.0473  135.5196  154.7673 H   0  0  0  0  0  0  0  0  0  0  0  0  # atno 10765 bound_to 10752
  141.1049  133.6614  156.4391 H   0  0  0  0  0  0  0  0  0  0  0  0  # atno 11005 bound_to 11000
  146.3081  139.7649  142.9041 LP  0  0  0  0  0  0  0  0  0  0  0  0  # atno 17320 bound_to 7965
  145.3701  141.0341  143.3236 LP  0  0  0  0  0  0  0  0  0  0  0  0  # atno 17321 bound_to 7965
  140.6477  143.8761  150.6753 LP  0  0  0  0  0  0  0  0  0  0  0  0  # atno 17342 bound_to 10162
  140.2116  143.3879  152.1714 LP  0  0  0  0  0  0  0  0  0  0  0  0  # atno 17343 bound_to 10162
  155.9676  130.4256  150.4661 LP  0  0  0  0  0  0  0  0  0  0  0  0  # atno 17370 bound_to 10713
  157.2657  131.0576  151.2292 LP  0  0  0  0  0  0  0  0  0  0  0  0  # atno 17371 bound_to 10713
  140.4929  134.6558  157.5218 LP  0  0  0  0  0  0  0  0  0  0  0  0  # atno 17394 bound_to 11000
  139.9914  134.6979  155.9683 LP  0  0  0  0  0  0  0  0  0  0  0  0  # atno 17395 bound_to 11000

$$$$
