AV-unprocessed.smi:6|AV-procd|sdf|39|dock7
  -GOLD-   2262015153D 1   1.00000     0.00000
 Structure written by MMmdl.
 37 38  0  0  0  0  0  0  0  0  1 V2000
  152.3945  143.6346  161.8646 C   0  0  0  0  0  0  0  0  0  0  0  0
  152.6384  142.7299  160.6470 C   0  0  0  0  0  0  0  0  0  0  0  0
  154.0757  142.1920  160.5743 C   0  0  0  0  0  0  0  0  0  0  0  0
  152.2108  143.3961  159.3454 C   0  0  0  0  0  0  0  0  0  0  0  0
  152.8276  144.5352  159.0112 N   0  0  0  0  0  0  0  0  0  0  0  0
  152.4427  145.1230  157.8584 C   0  0  0  0  0  0  0  0  0  0  0  0
  151.4400  144.5662  157.0391 C   0  0  0  0  0  0  0  0  0  0  0  0
  150.8591  143.3608  157.4842 C   0  0  0  0  0  0  0  0  0  0  0  0
  149.8562  142.7548  156.7155 N   0  0  0  0  0  0  0  0  0  0  0  0
  149.4262  141.3981  157.0300 C   0  0  0  0  0  0  0  0  0  0  0  0
  150.3318  140.3334  156.4316 C   0  0  0  0  0  0  0  0  0  0  0  0
  151.1727  139.5957  157.2005 C   0  0  0  0  0  0  0  0  0  0  0  0
  151.9935  138.5986  156.6977 N   0  0  0  0  0  0  0  0  0  0  0  0
  152.8861  137.8264  157.5179 C   0  0  0  0  0  0  0  0  0  0  0  0
  151.9710  138.2992  155.3196 C   0  0  0  0  0  0  0  0  0  0  0  0
  152.6724  137.4256  154.8088 O   0  0  0  0  0  0  0  0  0  0  0  0
  151.0983  139.0481  154.5314 N   0  0  0  0  0  0  0  0  0  0  0  0
  150.2545  140.0642  154.9907 C   0  0  0  0  0  0  0  0  0  0  0  0
  149.5244  140.6510  154.1938 O   0  0  0  0  0  0  0  0  0  0  0  0
  151.2523  142.7821  158.6435 N   0  0  0  0  0  0  0  0  0  0  0  0
  151.0726  138.8374  153.5441 H   0  0  0  0  0  0  0  0  0  0  0  0
  151.3485  143.9371  161.9234 H   0  0  0  0  0  0  0  0  0  0  0  0
  153.0013  144.5395  161.8174 H   0  0  0  0  0  0  0  0  0  0  0  0
  152.6418  143.1182  162.7923 H   0  0  0  0  0  0  0  0  0  0  0  0
  151.9967  141.8579  160.7865 H   0  0  0  0  0  0  0  0  0  0  0  0
  154.1885  141.4892  159.7482 H   0  0  0  0  0  0  0  0  0  0  0  0
  154.3452  141.6689  161.4919 H   0  0  0  0  0  0  0  0  0  0  0  0
  154.7961  142.9974  160.4282 H   0  0  0  0  0  0  0  0  0  0  0  0
  152.9375  146.0438  157.5875 H   0  0  0  0  0  0  0  0  0  0  0  0
  151.1367  145.0426  156.1185 H   0  0  0  0  0  0  0  0  0  0  0  0
  149.6867  143.1059  155.7842 H   0  0  0  0  0  0  0  0  0  0  0  0
  149.3902  141.2833  158.1141 H   0  0  0  0  0  0  0  0  0  0  0  0
  148.4121  141.2367  156.6619 H   0  0  0  0  0  0  0  0  0  0  0  0
  151.2033  139.7996  158.2615 H   0  0  0  0  0  0  0  0  0  0  0  0
  153.9005  137.9832  157.1455 H   0  0  0  0  0  0  0  0  0  0  0  0
  152.5786  136.7809  157.4485 H   0  0  0  0  0  0  0  0  0  0  0  0
  152.8019  138.1795  158.5463 H   0  0  0  0  0  0  0  0  0  0  0  0
  1  2  1  0  0  0  0
  1 22  1  0  0  0  0
  1 23  1  0  0  0  0
  1 24  1  0  0  0  0
  2  3  1  0  0  0  0
  2  4  1  0  0  0  0
  2 25  1  0  0  0  0
  3 26  1  0  0  0  0
  3 27  1  0  0  0  0
  3 28  1  0  0  0  0
  4 20  1  0  0  0  0
  4  5  2  0  0  0  0
  5  6  1  0  0  0  0
  6  7  2  0  0  0  0
  6 29  1  0  0  0  0
  7  8  1  0  0  0  0
  7 30  1  0  0  0  0
  8  9  1  0  0  0  0
  8 20  2  0  0  0  0
  9 10  1  0  0  0  0
  9 31  1  0  0  0  0
 10 11  1  0  0  0  0
 10 32  1  0  0  0  0
 10 33  1  0  0  0  0
 11 18  1  0  0  0  0
 11 12  2  0  0  0  0
 12 13  1  0  0  0  0
 12 34  1  0  0  0  0
 13 14  1  0  0  0  0
 13 15  1  0  0  0  0
 14 35  1  0  0  0  0
 14 36  1  0  0  0  0
 14 37  1  0  0  0  0
 15 16  2  0  0  0  0
 15 17  1  0  0  0  0
 17 21  1  0  0  0  0
 17 18  1  0  0  0  0
 18 19  2  0  0  0  0
M  END
> <s_m_source_file>
AV-unprocessed.smi

> <i_m_source_file_index>
6

> <i_lp_mmshare_version>
43012

> <i_f3d_flags>
0

> <s_epik_input>
W0NIM11bQ0hdKFtDSDNdKWMxbltjSF1bY0hdYyhuMSlbTkhdW0NIMl1jMltjSF1uKFtDSDNdKWMoPU8pW25IXWMyPU8=

> <s_epik_cmdline>
J2VwaWtfcHl0aG9uJywgJy1waCcsICc3LjAnLCAnLXRuJywgJzgnLCAnLW1hJywgJzIwMCcsICctbWV0YWxfYmluZGluZycsICctaW1hZScsICc8aW5maWxlLm1hZT4nLCAnLW9tYWUnLCAnPG91dGZpbGUubWFlPic=

> <r_lp_tautomer_probability>
0.999537

> <r_epik_Ionization_Penalty>
0.308056

> <r_epik_Ionization_Penalty_Charging>
0.000755917

> <r_epik_Ionization_Penalty_Neutral>
0.3073

> <r_epik_State_Penalty>
0.300752

> <r_epik_Charging_Adjusted_Penalty>
0.301508

> <i_epik_Tot_Q>
0

> <i_epik_Tot_abs_Q>
0

> <r_epik_Metal_State_Penalty>
0.395738

> <b_epik_Metal_Only>
0

> <s_lp_Force_Field>
OPLS_2005

> <r_lp_Energy>
3.35028

> <b_lp_Chiralities_Consistent>
1

> <s_lp_Variant>
AV-unprocessed.smi:6-1

> <Gold.Version>
5.8.1

> <Gold.Id.Protein>
6NUR|6NUR_protein|mol2

> <Gold.PLP.Fitness>
47.1004

> <Gold.PLP.PLP>
-41.2984

> <Gold.PLP.part.hbond>
-4.0959

> <Gold.PLP.part.metal>
0.0000

> <Gold.PLP.part.buried>
-4.1173

> <Gold.PLP.part.nonpolar>
-35.5924

> <Gold.PLP.part.repulsive>
2.2558

> <Gold.PLP.ligand.clash>
0.0000

> <Gold.PLP.ligand.torsion>
0.4021

> <Gold.PLP.Chemscore.Hbond>
2.1766

> <Gold.PLP.Chemscore.CHOScore>
0.0000

> <Gold.PLP.Chemscore.Metal>
0.0000

> <Gold.Chemscore.Hbonds>
donor molecule, donor type, donor heavy atom, donor atom, acceptor molecule, acceptor atom, score
      L1  H     9    31       P1  8028  0.34
      P1  H 10752 10764       L1    16  0.42

> <Gold.PLP.Chemscore.Internal.Correction>
0.0762

> <Gold.Rescore>
     Score         DG    S(hbond)    S(metal)    S(lipo)     H(rot)  DE(clash)    DE(int)     intcor
     15.64     -17.05       1.99        0.00      78.19       1.65       0.69       0.72       ----

> <Gold.Chemscore.Fitness>
15.6385

> <Gold.Chemscore.DG>
-17.0500

> <Gold.Chemscore.ZeroCoef>
-5.4800

> <Gold.Chemscore.Hbond>
1.9906

> <Gold.Chemscore.Metal>
0.0000

> <Gold.Chemscore.Lipo>
78.1949

> <Gold.Chemscore.Internal_Hbond>
0.0000

> <Gold.Chemscore.DEClash>
0.6884

> <Gold.Chemscore.DEInternal>
0.7231

> <Gold.Chemscore.Rot>
1.6514

> <Gold.Chemscore.Internal.Correction>
   9.000000E+99

> <Gold.Chemscore.Hbonds>
donor molecule, donor type, donor heavy atom, donor atom, acceptor molecule, acceptor atom, score
      L1  H     9    31       P1  8028  0.34
      P1  H 10752 10764       L1    16  0.42

> <Gold.Chemscore.Hbond.Weighted>
-6.6487

> <Gold.Chemscore.Metal.Weighted>
-0.0000

> <Gold.Chemscore.Lipo.Weighted>
-9.1488

> <Gold.Chemscore.Internal_Hbond.Weighted>
0.0000

> <Gold.Chemscore.DEClash.Weighted>
0.6884

> <Gold.Chemscore.DEInternal.Weighted>
0.7231

> <Gold.Chemscore.Rot.Weighted>
4.2275

> <Gold.Chemscore.Internal.Correction.Weighted>
   9.000000E+99

> <Gold.Protein.RotatedTorsions>
[ 6907 6896 6895 6894 ] final -111.28 input  -60.11 | X-H torsion
[ 7974 7965 7964 7962 ] final   81.00 input  175.53 | X-H torsion
[ 8008 7997 7996 7995 ] final  -65.80 input   59.86 | X-H torsion
[ 10167 10162 10161 10158 ] final   58.31 input  -65.29 | X-H torsion
[ 10718 10713 10712 10709 ] final -167.83 input   66.30 | X-H torsion
[ 10763 10752 10751 10750 ] final  -88.57 input  -60.55 | X-H torsion
[ 11005 11000 10999 10996 ] final  151.86 input  -57.11 | X-H torsion

> <Gold.Protein.ActiveResidues>
 VAL166  LYS551  ARG553  GLY616  TRP617  ASP618  TYR619  PRO620  LYS621  CYS622 
 ASP623  PHE694  ASN695  SER759  ASP760  ASP761  ALA762  ILE779  LEU786  VAL792 
 PHE793  MET794  SER795  GLU796  ALA797  LYS798  CYS799  TRP800  GLU811  SER814 

> <Gold.Protein.RotatedAtoms>
  150.7680  133.9258  159.3411 H   0  0  0  0  0  0  0  0  0  0  0  0  # atno 6907 bound_to 6896
  151.7151  135.0903  160.0284 H   0  0  0  0  0  0  0  0  0  0  0  0  # atno 6908 bound_to 6896
  152.3685  133.6350  159.6104 H   0  0  0  0  0  0  0  0  0  0  0  0  # atno 6909 bound_to 6896
  145.6438  139.2431  143.2015 H   0  0  0  0  0  0  0  0  0  0  0  0  # atno 7974 bound_to 7965
  154.4694  140.0925  156.7106 H   0  0  0  0  0  0  0  0  0  0  0  0  # atno 8008 bound_to 7997
  155.4765  140.3466  155.4315 H   0  0  0  0  0  0  0  0  0  0  0  0  # atno 8009 bound_to 7997
  156.1013  140.1423  156.9451 H   0  0  0  0  0  0  0  0  0  0  0  0  # atno 8010 bound_to 7997
  140.1886  144.4109  150.6581 H   0  0  0  0  0  0  0  0  0  0  0  0  # atno 10167 bound_to 10162
  156.6881  130.9148  151.3065 H   0  0  0  0  0  0  0  0  0  0  0  0  # atno 10718 bound_to 10713
  154.6459  135.5372  153.7844 H   0  0  0  0  0  0  0  0  0  0  0  0  # atno 10763 bound_to 10752
  153.0359  135.6470  154.1090 H   0  0  0  0  0  0  0  0  0  0  0  0  # atno 10764 bound_to 10752
  154.1011  135.2933  155.3231 H   0  0  0  0  0  0  0  0  0  0  0  0  # atno 10765 bound_to 10752
  140.1256  134.8835  157.2133 H   0  0  0  0  0  0  0  0  0  0  0  0  # atno 11005 bound_to 11000
  146.1259  140.7249  142.9435 LP  0  0  0  0  0  0  0  0  0  0  0  0  # atno 17320 bound_to 7965
  144.7147  140.4168  143.7053 LP  0  0  0  0  0  0  0  0  0  0  0  0  # atno 17321 bound_to 7965
  140.6471  143.2216  151.6161 LP  0  0  0  0  0  0  0  0  0  0  0  0  # atno 17342 bound_to 10162
  139.5265  144.3043  152.1047 LP  0  0  0  0  0  0  0  0  0  0  0  0  # atno 17343 bound_to 10162
  157.7019  130.9342  150.0811 LP  0  0  0  0  0  0  0  0  0  0  0  0  # atno 17370 bound_to 10713
  156.1818  130.3650  149.9025 LP  0  0  0  0  0  0  0  0  0  0  0  0  # atno 17371 bound_to 10713
  140.2908  134.3243  155.7316 LP  0  0  0  0  0  0  0  0  0  0  0  0  # atno 17394 bound_to 11000
  141.2160  133.7533  156.9500 LP  0  0  0  0  0  0  0  0  0  0  0  0  # atno 17395 bound_to 11000

$$$$
