AV-unprocessed.smi:1978|AV-procd|sdf|7999|dock1
  -GOLD-   2272010183D 1   1.00000     0.00000
 Structure written by MMmdl.
 45 46  0  0  0  0  0  0  0  0  2 V2000
  154.0610  137.4985  156.2347 C   0  0  0  0  0  0  0  0  0  0  0  0
  153.0641  138.2008  155.3780 C   0  0  0  0  0  0  0  0  0  0  0  0
  151.8171  137.8624  154.9326 C   0  0  0  0  0  0  0  0  0  0  0  0
  151.4347  138.9933  154.1634 C   0  0  0  0  0  0  0  0  0  0  0  0
  150.1747  139.0392  153.5140 N   0  0  0  0  0  0  0  0  0  0  0  0
  148.9904  138.6268  153.9963 C   0  0  0  0  0  0  0  0  0  0  0  0
  148.8097  138.1250  155.1062 O   0  0  0  0  0  0  0  0  0  0  0  0
  148.0041  138.8293  153.1104 N   0  0  0  0  0  0  0  0  0  0  0  0
  146.6030  138.4793  153.3290 C   0  0  0  0  0  0  0  0  0  0  0  0
  145.9381  137.7842  152.1037 C   0  0  1  0  0  0  0  0  0  0  0  0
  146.4225  138.4602  150.7966 C   0  0  0  0  0  0  0  0  0  0  0  0
  146.1755  136.2976  152.0785 N   0  3  2  0  0  0  0  0  0  0  0  0
  145.4735  135.5942  150.9606 C   0  0  0  0  0  0  0  0  0  0  0  0
  145.8984  134.1209  150.8452 C   0  0  0  0  0  0  0  0  0  0  0  0
  145.6745  133.3708  152.1584 C   0  0  0  0  0  0  0  0  0  0  0  0
  146.4005  134.1057  153.2886 C   0  0  0  0  0  0  0  0  0  0  0  0
  145.9786  135.5870  153.3877 C   0  0  2  0  0  0  0  0  0  0  0  0
  144.5542  135.7466  153.9656 C   0  0  0  0  0  0  0  0  0  0  0  0
  152.3642  139.9360  154.1393 N   0  0  0  0  0  0  0  0  0  0  0  0
  153.4133  139.4331  154.9181 O   0  0  0  0  0  0  0  0  0  0  0  0
  153.7217  136.4928  156.4831 H   0  0  0  0  0  0  0  0  0  0  0  0
  154.2197  138.0418  157.1664 H   0  0  0  0  0  0  0  0  0  0  0  0
  155.0202  137.4146  155.7234 H   0  0  0  0  0  0  0  0  0  0  0  0
  151.2696  136.9524  155.1286 H   0  0  0  0  0  0  0  0  0  0  0  0
  150.1773  139.4263  152.5819 H   0  0  0  0  0  0  0  0  0  0  0  0
  148.2387  139.2445  152.2204 H   0  0  0  0  0  0  0  0  0  0  0  0
  146.5495  137.8269  154.2011 H   0  0  0  0  0  0  0  0  0  0  0  0
  146.0977  139.4048  153.6020 H   0  0  0  0  0  0  0  0  0  0  0  0
  144.8606  137.9401  152.1678 H   0  0  0  0  0  0  0  0  0  0  0  0
  146.3506  139.5461  150.8427 H   0  0  0  0  0  0  0  0  0  0  0  0
  145.8215  138.1786  149.9336 H   0  0  0  0  0  0  0  0  0  0  0  0
  147.4630  138.2128  150.5844 H   0  0  0  0  0  0  0  0  0  0  0  0
  144.3935  135.6705  151.0907 H   0  0  0  0  0  0  0  0  0  0  0  0
  145.7012  136.0507  150.0007 H   0  0  0  0  0  0  0  0  0  0  0  0
  145.3433  133.6358  150.0416 H   0  0  0  0  0  0  0  0  0  0  0  0
  146.9523  134.0652  150.5680 H   0  0  0  0  0  0  0  0  0  0  0  0
  144.6080  133.2999  152.3739 H   0  0  0  0  0  0  0  0  0  0  0  0
  146.0432  132.3480  152.0757 H   0  0  0  0  0  0  0  0  0  0  0  0
  146.2237  133.5977  154.2375 H   0  0  0  0  0  0  0  0  0  0  0  0
  147.4761  134.0501  153.1146 H   0  0  0  0  0  0  0  0  0  0  0  0
  146.6726  136.0064  154.1135 H   0  0  0  0  0  0  0  0  0  0  0  0
  144.4630  135.2185  154.9150 H   0  0  0  0  0  0  0  0  0  0  0  0
  143.7891  135.3478  153.3004 H   0  0  0  0  0  0  0  0  0  0  0  0
  144.3068  136.7892  154.1622 H   0  0  0  0  0  0  0  0  0  0  0  0
  147.1598  136.1960  151.8767 H   0  0  0  0  0  0  0  0  0  0  0  0
  1  2  1  0  0  0  0
  1 21  1  0  0  0  0
  1 22  1  0  0  0  0
  1 23  1  0  0  0  0
  2 20  1  0  0  0  0
  2  3  2  0  0  0  0
  3  4  1  0  0  0  0
  3 24  1  0  0  0  0
  4  5  1  0  0  0  0
  4 19  2  0  0  0  0
  5  6  1  0  0  0  0
  5 25  1  0  0  0  0
  6  7  2  0  0  0  0
  6  8  1  0  0  0  0
  8  9  1  0  0  0  0
  8 26  1  0  0  0  0
  9 10  1  0  0  0  0
  9 27  1  0  0  0  0
  9 28  1  0  0  0  0
 10 11  1  0  0  0  0
 10 12  1  0  0  0  0
 10 29  1  0  0  0  0
 11 30  1  0  0  0  0
 11 31  1  0  0  0  0
 11 32  1  0  0  0  0
 12 17  1  0  0  0  0
 12 13  1  0  0  0  0
 12 45  1  0  0  0  0
 13 14  1  0  0  0  0
 13 33  1  0  0  0  0
 13 34  1  0  0  0  0
 14 15  1  0  0  0  0
 14 35  1  0  0  0  0
 14 36  1  0  0  0  0
 15 16  1  0  0  0  0
 15 37  1  0  0  0  0
 15 38  1  0  0  0  0
 16 17  1  0  0  0  0
 16 39  1  0  0  0  0
 16 40  1  0  0  0  0
 17 18  1  0  0  0  0
 17 41  1  0  0  0  0
 18 42  1  0  0  0  0
 18 43  1  0  0  0  0
 18 44  1  0  0  0  0
 19 20  1  0  0  0  0
M  CHG  1  12   1
M  END
> <s_m_source_file>
AV-unprocessed.smi

> <i_m_source_file_index>
1978

> <i_lp_mmshare_version>
43012

> <i_f3d_flags>
0

> <s_epik_input>
W0NIM11jMVtjSF1jKG5vMSlbTkhdQyg9TylbTkhdW0NIMl1bQ0BIXShbQ0gzXSlOMltDSDJdW0NIMl1bQ0gyXVtDSDJdW0NASF0yW0NIM10=

> <s_epik_cmdline>
J2VwaWtfcHl0aG9uJywgJy1waCcsICc3LjAnLCAnLXRuJywgJzgnLCAnLW1hJywgJzIwMCcsICctbWV0YWxfYmluZGluZycsICctaW1hZScsICc8aW5maWxlLm1hZT4nLCAnLW9tYWUnLCAnPG91dGZpbGUubWFlPic=

> <r_epik_Ionization_Penalty>
0.00265971

> <r_epik_Ionization_Penalty_Charging>
0.00262393

> <r_epik_Ionization_Penalty_Neutral>
3.57846e-05

> <r_epik_State_Penalty>
0.00182566

> <r_epik_Charging_Adjusted_Penalty>
0.00444959

> <i_epik_Tot_Q>
1

> <i_epik_Tot_abs_Q>
1

> <r_epik_Metal_State_Penalty>
0.0216344

> <b_epik_Metal_Only>
0

> <s_lp_Force_Field>
OPLS_2005

> <r_lp_Energy>
22.4222

> <b_lp_Chiralities_Consistent>
1

> <s_lp_Variant>
AV-unprocessed.smi:1978-8

> <Gold.Version>
5.8.1

> <Gold.Id.Protein>
6NUR|6NUR_protein|mol2

> <Gold.PLP.Fitness>
44.9810

> <Gold.PLP.PLP>
-29.0806

> <Gold.PLP.part.hbond>
-5.4487

> <Gold.PLP.part.metal>
0.0000

> <Gold.PLP.part.buried>
0.8849

> <Gold.PLP.part.nonpolar>
-24.8941

> <Gold.PLP.part.repulsive>
0.2940

> <Gold.PLP.ligand.clash>
0.0000

> <Gold.PLP.ligand.torsion>
0.7454

> <Gold.PLP.Chemscore.Hbond>
5.7680

> <Gold.PLP.Chemscore.CHOScore>
0.0000

> <Gold.PLP.Chemscore.Metal>
0.0000

> <Gold.Chemscore.Hbonds>
donor molecule, donor type, donor heavy atom, donor atom, acceptor molecule, acceptor atom, score
      L1  H     5    25       P1  7957  1.00
      L1  H     8    26       P1  7957  0.94
      L1  H    12    45       P1  7948  2.00
      P1  H  7989  7998       L1    19  0.21
      P1  H  7997  8009       L1    20  0.74

> <Gold.PLP.Chemscore.Internal.Correction>
0.0872

> <Gold.Rescore>
     Score         DG    S(hbond)    S(metal)    S(lipo)     H(rot)  DE(clash)    DE(int)     intcor
     19.24     -23.37       4.19        0.00      67.31       1.55       2.52       1.61       ----

> <Gold.Chemscore.Fitness>
19.2392

> <Gold.Chemscore.DG>
-23.3743

> <Gold.Chemscore.ZeroCoef>
-5.4800

> <Gold.Chemscore.Hbond>
4.1858

> <Gold.Chemscore.Metal>
0.0000

> <Gold.Chemscore.Lipo>
67.3078

> <Gold.Chemscore.Internal_Hbond>
0.0000

> <Gold.Chemscore.DEClash>
2.5222

> <Gold.Chemscore.DEInternal>
1.6129

> <Gold.Chemscore.Rot>
1.5474

> <Gold.Chemscore.Internal.Correction>
   9.000000E+99

> <Gold.Chemscore.Hbonds>
donor molecule, donor type, donor heavy atom, donor atom, acceptor molecule, acceptor atom, score
      L1  H     5    25       P1  7957  0.81
      L1  H     8    26       P1  7957  0.91
      L1  H    12    45       P1  7948  1.00
      P1  H  7989  7998       L1    19  0.05
      P1  H  7997  8009       L1    20  0.33

> <Gold.Chemscore.Hbond.Weighted>
-13.9805

> <Gold.Chemscore.Metal.Weighted>
-0.0000

> <Gold.Chemscore.Lipo.Weighted>
-7.8750

> <Gold.Chemscore.Internal_Hbond.Weighted>
0.0000

> <Gold.Chemscore.DEClash.Weighted>
2.5222

> <Gold.Chemscore.DEInternal.Weighted>
1.6129

> <Gold.Chemscore.Rot.Weighted>
3.9612

> <Gold.Chemscore.Internal.Correction.Weighted>
   9.000000E+99

> <Gold.Protein.RotatedTorsions>
[ 6907 6896 6895 6894 ] final  -15.92 input  -60.11 | X-H torsion
[ 7974 7965 7964 7962 ] final  -43.25 input  175.53 | X-H torsion
[ 8008 7997 7996 7995 ] final -159.33 input   59.86 | X-H torsion
[ 10167 10162 10161 10158 ] final   13.64 input  -65.29 | X-H torsion
[ 10718 10713 10712 10709 ] final -108.96 input   66.30 | X-H torsion
[ 10763 10752 10751 10750 ] final -173.55 input  -60.55 | X-H torsion
[ 11005 11000 10999 10996 ] final -150.18 input  -57.11 | X-H torsion

> <Gold.Protein.ActiveResidues>
 VAL166  LYS551  ARG553  GLY616  TRP617  ASP618  TYR619  PRO620  LYS621  CYS622 
 ASP623  PHE694  ASN695  SER759  ASP760  ASP761  ALA762  ILE779  LEU786  VAL792 
 PHE793  MET794  SER795  GLU796  ALA797  LYS798  CYS799  TRP800  GLU811  SER814 

> <Gold.Protein.RotatedAtoms>
  151.3165  135.0808  159.9290 H   0  0  0  0  0  0  0  0  0  0  0  0  # atno 6907 bound_to 6896
  152.5266  133.9682  159.7760 H   0  0  0  0  0  0  0  0  0  0  0  0  # atno 6908 bound_to 6896
  150.9995  133.6018  159.2727 H   0  0  0  0  0  0  0  0  0  0  0  0  # atno 6909 bound_to 6896
  146.0037  140.7044  142.9258 H   0  0  0  0  0  0  0  0  0  0  0  0  # atno 7974 bound_to 7965
  155.7609  140.0839  157.2155 H   0  0  0  0  0  0  0  0  0  0  0  0  # atno 8008 bound_to 7997
  154.4003  140.1543  156.2888 H   0  0  0  0  0  0  0  0  0  0  0  0  # atno 8009 bound_to 7997
  155.8840  140.3419  155.5911 H   0  0  0  0  0  0  0  0  0  0  0  0  # atno 8010 bound_to 7997
  140.5989  143.8645  150.6945 H   0  0  0  0  0  0  0  0  0  0  0  0  # atno 10167 bound_to 10162
  156.0512  130.5740  150.8034 H   0  0  0  0  0  0  0  0  0  0  0  0  # atno 10718 bound_to 10713
  154.6065  135.2860  155.0479 H   0  0  0  0  0  0  0  0  0  0  0  0  # atno 10763 bound_to 10752
  154.1724  135.6470  153.5016 H   0  0  0  0  0  0  0  0  0  0  0  0  # atno 10764 bound_to 10752
  153.0177  135.5404  154.6803 H   0  0  0  0  0  0  0  0  0  0  0  0  # atno 10765 bound_to 10752
  140.7429  134.3494  157.5143 H   0  0  0  0  0  0  0  0  0  0  0  0  # atno 11005 bound_to 11000
  144.6928  140.3278  143.7221 LP  0  0  0  0  0  0  0  0  0  0  0  0  # atno 17320 bound_to 7965
  145.7448  139.1775  143.2355 LP  0  0  0  0  0  0  0  0  0  0  0  0  # atno 17321 bound_to 7965
  140.2186  143.3827  152.1661 LP  0  0  0  0  0  0  0  0  0  0  0  0  # atno 17342 bound_to 10162
  139.5277  144.7122  151.5168 LP  0  0  0  0  0  0  0  0  0  0  0  0  # atno 17343 bound_to 10162
  157.5440  131.0942  150.9788 LP  0  0  0  0  0  0  0  0  0  0  0  0  # atno 17370 bound_to 10713
  157.0063  130.5619  149.5316 LP  0  0  0  0  0  0  0  0  0  0  0  0  # atno 17371 bound_to 10713
  139.8802  134.9092  156.2986 LP  0  0  0  0  0  0  0  0  0  0  0  0  # atno 17394 bound_to 11000
  140.9820  133.7261  156.0686 LP  0  0  0  0  0  0  0  0  0  0  0  0  # atno 17395 bound_to 11000

$$$$
