AV-unprocessed.smi:1973|AV-procd|sdf|7977|dock6
  -GOLD-   2272010153D 1   1.00000     0.00000
 Structure written by MMmdl.
 48 50  0  0  0  0  0  0  0  0  2 V2000
  152.7258  142.9271  159.1574 C   0  0  0  0  0  0  0  0  0  0  0  0
  151.4028  142.4999  158.8852 O   0  0  0  0  0  0  0  0  0  0  0  0
  151.3649  141.3063  158.1217 C   0  0  0  0  0  0  0  0  0  0  0  0
  150.9964  141.6542  156.6719 C   0  0  0  0  0  0  0  0  0  0  0  0
  150.6690  140.4506  155.9014 N   0  0  0  0  0  0  0  0  0  0  0  0
  149.3995  140.4647  155.3486 N   0  0  0  0  0  0  0  0  0  0  0  0
  148.9787  139.4528  154.6608 C   0  0  0  0  0  0  0  0  0  0  0  0
  147.6143  139.4225  154.0646 C   0  0  0  0  0  0  0  0  0  0  0  0
  146.7811  140.2992  154.2993 O   0  0  0  0  0  0  0  0  0  0  0  0
  147.3646  138.3820  153.2492 N   0  0  0  0  0  0  0  0  0  0  0  0
  146.1160  138.1604  152.5289 C   0  0  0  0  0  0  0  0  0  0  0  0
  145.5380  136.7591  152.8032 C   0  0  1  0  0  0  0  0  0  0  0  0
  144.0386  136.7316  153.1011 C   0  0  0  0  0  0  0  0  0  0  0  0
  143.6112  135.2980  152.7625 C   0  0  0  0  0  0  0  0  0  0  0  0
  144.6794  134.7219  151.9122 N   0  3  1  0  0  0  0  0  0  0  0  0
  144.1868  134.0140  150.7116 C   0  0  0  0  0  0  0  0  0  0  0  0
  143.5890  132.6606  151.0129 C   0  0  0  0  0  0  0  0  0  0  0  0
  144.9639  132.7603  150.3883 C   0  0  0  0  0  0  0  0  0  0  0  0
  145.6480  135.7982  151.6210 C   0  0  0  0  0  0  0  0  0  0  0  0
  149.8270  138.2920  154.4493 C   0  0  0  0  0  0  0  0  0  0  0  0
  151.0606  138.2905  155.0004 C   0  0  0  0  0  0  0  0  0  0  0  0
  151.5563  139.4160  155.7943 C   0  0  0  0  0  0  0  0  0  0  0  0
  152.6673  139.4290  156.3234 O   0  0  0  0  0  0  0  0  0  0  0  0
  152.7011  143.8469  159.7415 H   0  0  0  0  0  0  0  0  0  0  0  0
  153.2735  143.1279  158.2358 H   0  0  0  0  0  0  0  0  0  0  0  0
  153.2711  142.1778  159.7328 H   0  0  0  0  0  0  0  0  0  0  0  0
  152.3358  140.8096  158.1584 H   0  0  0  0  0  0  0  0  0  0  0  0
  150.6273  140.6202  158.5415 H   0  0  0  0  0  0  0  0  0  0  0  0
  150.1451  142.3373  156.6680 H   0  0  0  0  0  0  0  0  0  0  0  0
  151.8117  142.2052  156.2000 H   0  0  0  0  0  0  0  0  0  0  0  0
  148.0997  137.7024  153.1129 H   0  0  0  0  0  0  0  0  0  0  0  0
  145.4061  138.9279  152.8389 H   0  0  0  0  0  0  0  0  0  0  0  0
  146.2744  138.3028  151.4585 H   0  0  0  0  0  0  0  0  0  0  0  0
  146.0638  136.3116  153.6487 H   0  0  0  0  0  0  0  0  0  0  0  0
  143.8085  137.0055  154.1314 H   0  0  0  0  0  0  0  0  0  0  0  0
  143.5156  137.4311  152.4472 H   0  0  0  0  0  0  0  0  0  0  0  0
  143.5265  134.6937  153.6661 H   0  0  0  0  0  0  0  0  0  0  0  0
  142.6386  135.2899  152.2677 H   0  0  0  0  0  0  0  0  0  0  0  0
  143.7798  134.6338  149.9143 H   0  0  0  0  0  0  0  0  0  0  0  0
  143.5305  132.3425  152.0524 H   0  0  0  0  0  0  0  0  0  0  0  0
  142.7764  132.3173  150.3757 H   0  0  0  0  0  0  0  0  0  0  0  0
  145.0558  132.4824  149.3402 H   0  0  0  0  0  0  0  0  0  0  0  0
  145.8193  132.5082  151.0127 H   0  0  0  0  0  0  0  0  0  0  0  0
  145.3650  136.3077  150.6980 H   0  0  0  0  0  0  0  0  0  0  0  0
  146.6565  135.4035  151.4931 H   0  0  0  0  0  0  0  0  0  0  0  0
  149.4876  137.4476  153.8674 H   0  0  0  0  0  0  0  0  0  0  0  0
  151.7021  137.4342  154.8516 H   0  0  0  0  0  0  0  0  0  0  0  0
  145.1644  134.0473  152.4867 H   0  0  0  0  0  0  0  0  0  0  0  0
  1  2  1  0  0  0  0
  1 24  1  0  0  0  0
  1 25  1  0  0  0  0
  1 26  1  0  0  0  0
  2  3  1  0  0  0  0
  3  4  1  0  0  0  0
  3 27  1  0  0  0  0
  3 28  1  0  0  0  0
  4  5  1  0  0  0  0
  4 29  1  0  0  0  0
  4 30  1  0  0  0  0
  5 22  1  0  0  0  0
  5  6  1  0  0  0  0
  6  7  2  0  0  0  0
  7  8  1  0  0  0  0
  7 20  1  0  0  0  0
  8  9  2  0  0  0  0
  8 10  1  0  0  0  0
 10 11  1  0  0  0  0
 10 31  1  0  0  0  0
 11 12  1  0  0  0  0
 11 32  1  0  0  0  0
 11 33  1  0  0  0  0
 12 19  1  0  0  0  0
 12 13  1  0  0  0  0
 12 34  1  0  0  0  0
 13 14  1  0  0  0  0
 13 35  1  0  0  0  0
 13 36  1  0  0  0  0
 14 15  1  0  0  0  0
 14 37  1  0  0  0  0
 14 38  1  0  0  0  0
 15 16  1  0  0  0  0
 15 19  1  0  0  0  0
 15 48  1  0  0  0  0
 16 18  1  0  0  0  0
 16 17  1  0  0  0  0
 16 39  1  0  0  0  0
 17 18  1  0  0  0  0
 17 40  1  0  0  0  0
 17 41  1  0  0  0  0
 18 42  1  0  0  0  0
 18 43  1  0  0  0  0
 19 44  1  0  0  0  0
 19 45  1  0  0  0  0
 20 21  2  0  0  0  0
 20 46  1  0  0  0  0
 21 22  1  0  0  0  0
 21 47  1  0  0  0  0
 22 23  2  0  0  0  0
M  CHG  1  15   1
M  END
> <s_m_source_file>
AV-unprocessed.smi

> <i_m_source_file_index>
1973

> <i_lp_mmshare_version>
43012

> <i_f3d_flags>
0

> <s_epik_input>
W0NIM11PW0NIMl1bQ0gyXW4xbmMoW2NIXVtjSF1jMT1PKUMoPU8pW05IXVtDSDJdW0NAQEhdMltDSDJdW0NIMl1OKFtDSDJdMilbQ0hdM1tDSDJdW0NIMl0z

> <s_epik_cmdline>
J2VwaWtfcHl0aG9uJywgJy1waCcsICc3LjAnLCAnLXRuJywgJzgnLCAnLW1hJywgJzIwMCcsICctbWV0YWxfYmluZGluZycsICctaW1hZScsICc8aW5maWxlLm1hZT4nLCAnLW9tYWUnLCAnPG91dGZpbGUubWFlPic=

> <r_lp_tautomer_probability>
1

> <r_epik_Ionization_Penalty>
0.000225706

> <r_epik_Ionization_Penalty_Charging>
0.000223776

> <r_epik_Ionization_Penalty_Neutral>
1.93004e-06

> <r_epik_State_Penalty>
-0

> <r_epik_Charging_Adjusted_Penalty>
0.000223776

> <i_epik_Tot_Q>
1

> <i_epik_Tot_abs_Q>
1

> <r_epik_Metal_State_Penalty>
-0

> <b_epik_Metal_Only>
0

> <s_lp_Force_Field>
OPLS_2005

> <r_lp_Energy>
57.2407

> <b_lp_Chiralities_Consistent>
1

> <s_lp_Variant>
AV-unprocessed.smi:1973-2

> <Gold.Version>
5.8.1

> <Gold.Id.Protein>
6NUR|6NUR_protein|mol2

> <Gold.PLP.Fitness>
49.4672

> <Gold.PLP.PLP>
-45.9855

> <Gold.PLP.part.hbond>
-2.8642

> <Gold.PLP.part.metal>
0.0000

> <Gold.PLP.part.buried>
-3.4791

> <Gold.PLP.part.nonpolar>
-40.6587

> <Gold.PLP.part.repulsive>
0.3360

> <Gold.PLP.ligand.clash>
0.3361

> <Gold.PLP.ligand.torsion>
1.7112

> <Gold.PLP.Chemscore.Hbond>
1.9920

> <Gold.PLP.Chemscore.CHOScore>
0.0000

> <Gold.PLP.Chemscore.Metal>
0.0000

> <Gold.Chemscore.Hbonds>
donor molecule, donor type, donor heavy atom, donor atom, acceptor molecule, acceptor atom, score
      L1  H    10    31       P1  7948  0.78
      P1  H  7997  8010       L1    23  1.00

> <Gold.PLP.Chemscore.Internal.Correction>
1.2641

> <Gold.Rescore>
     Score         DG    S(hbond)    S(metal)    S(lipo)     H(rot)  DE(clash)    DE(int)     intcor
     16.78     -18.45       1.96        0.00      97.93       1.97       0.11       1.55       ----

> <Gold.Chemscore.Fitness>
16.7838

> <Gold.Chemscore.DG>
-18.4492

> <Gold.Chemscore.ZeroCoef>
-5.4800

> <Gold.Chemscore.Hbond>
1.9632

> <Gold.Chemscore.Metal>
0.0000

> <Gold.Chemscore.Lipo>
97.9327

> <Gold.Chemscore.Internal_Hbond>
0.0000

> <Gold.Chemscore.DEClash>
0.1143

> <Gold.Chemscore.DEInternal>
1.5511

> <Gold.Chemscore.Rot>
1.9711

> <Gold.Chemscore.Internal.Correction>
   9.000000E+99

> <Gold.Chemscore.Hbonds>
donor molecule, donor type, donor heavy atom, donor atom, acceptor molecule, acceptor atom, score
      L1  H    10    31       P1  7948  0.73
      P1  H  7997  8010       L1    23  1.00

> <Gold.Chemscore.Hbond.Weighted>
-6.5571

> <Gold.Chemscore.Metal.Weighted>
-0.0000

> <Gold.Chemscore.Lipo.Weighted>
-11.4581

> <Gold.Chemscore.Internal_Hbond.Weighted>
0.0000

> <Gold.Chemscore.DEClash.Weighted>
0.1143

> <Gold.Chemscore.DEInternal.Weighted>
1.5511

> <Gold.Chemscore.Rot.Weighted>
5.0460

> <Gold.Chemscore.Internal.Correction.Weighted>
   9.000000E+99

> <Gold.Protein.RotatedTorsions>
[ 6907 6896 6895 6894 ] final -123.92 input  -60.11 | X-H torsion
[ 7974 7965 7964 7962 ] final  171.65 input  175.53 | X-H torsion
[ 8008 7997 7996 7995 ] final   86.61 input   59.86 | X-H torsion
[ 10167 10162 10161 10158 ] final -119.17 input  -65.29 | X-H torsion
[ 10718 10713 10712 10709 ] final  159.62 input   66.30 | X-H torsion
[ 10763 10752 10751 10750 ] final   50.68 input  -60.55 | X-H torsion
[ 11005 11000 10999 10996 ] final   35.54 input  -57.11 | X-H torsion

> <Gold.Protein.ActiveResidues>
 VAL166  LYS551  ARG553  GLY616  TRP617  ASP618  TYR619  PRO620  LYS621  CYS622 
 ASP623  PHE694  ASN695  SER759  ASP760  ASP761  ALA762  ILE779  LEU786  VAL792 
 PHE793  MET794  SER795  GLU796  ALA797  LYS798  CYS799  TRP800  GLU811  SER814 

> <Gold.Protein.RotatedAtoms>
  150.8718  133.7495  159.2958 H   0  0  0  0  0  0  0  0  0  0  0  0  # atno 6907 bound_to 6896
  151.5105  135.1063  159.9862 H   0  0  0  0  0  0  0  0  0  0  0  0  # atno 6908 bound_to 6896
  152.4700  133.7963  159.6985 H   0  0  0  0  0  0  0  0  0  0  0  0  # atno 6909 bound_to 6896
  144.7289  139.9382  143.6427 H   0  0  0  0  0  0  0  0  0  0  0  0  # atno 7974 bound_to 7965
  155.9650  140.3390  155.6524 H   0  0  0  0  0  0  0  0  0  0  0  0  # atno 8008 bound_to 7997
  155.6749  140.0731  157.2524 H   0  0  0  0  0  0  0  0  0  0  0  0  # atno 8009 bound_to 7997
  154.4152  140.1685  156.1906 H   0  0  0  0  0  0  0  0  0  0  0  0  # atno 8010 bound_to 7997
  140.0496  143.5073  152.2089 H   0  0  0  0  0  0  0  0  0  0  0  0  # atno 10167 bound_to 10162
  157.1617  131.0589  151.2229 H   0  0  0  0  0  0  0  0  0  0  0  0  # atno 10718 bound_to 10713
  152.9784  135.5871  154.4292 H   0  0  0  0  0  0  0  0  0  0  0  0  # atno 10763 bound_to 10752
  154.3907  135.2768  155.2158 H   0  0  0  0  0  0  0  0  0  0  0  0  # atno 10764 bound_to 10752
  154.4032  135.6099  153.5963 H   0  0  0  0  0  0  0  0  0  0  0  0  # atno 10765 bound_to 10752
  140.2416  134.3408  155.7923 H   0  0  0  0  0  0  0  0  0  0  0  0  # atno 11005 bound_to 11000
  146.0805  139.3793  143.0467 LP  0  0  0  0  0  0  0  0  0  0  0  0  # atno 17320 bound_to 7965
  145.7847  140.9841  143.1080 LP  0  0  0  0  0  0  0  0  0  0  0  0  # atno 17321 bound_to 7965
  139.5961  144.7567  151.3282 LP  0  0  0  0  0  0  0  0  0  0  0  0  # atno 17342 bound_to 10162
  140.7223  143.7102  150.7776 LP  0  0  0  0  0  0  0  0  0  0  0  0  # atno 17343 bound_to 10162
  157.4126  130.7393  149.6851 LP  0  0  0  0  0  0  0  0  0  0  0  0  # atno 17370 bound_to 10713
  155.9752  130.4091  150.3862 LP  0  0  0  0  0  0  0  0  0  0  0  0  # atno 17371 bound_to 10713
  141.2210  133.7302  156.8894 LP  0  0  0  0  0  0  0  0  0  0  0  0  # atno 17394 bound_to 11000
  140.1648  134.9141  157.2760 LP  0  0  0  0  0  0  0  0  0  0  0  0  # atno 17395 bound_to 11000

$$$$
