AV-unprocessed.smi:2100|AV-procd|sdf|8578|dock6
  -GOLD-   2272011313D 1   1.00000     0.00000
 Structure written by MMmdl.
 40 41  0  0  0  0  0  0  0  0  2 V2000
  150.1257  139.2262  154.5449 C   0  0  0  0  0  0  0  0  0  0  0  0
  149.9497  137.7302  154.8621 C   0  0  1  0  0  0  0  0  0  0  0  0
  151.1706  137.1145  155.5682 C   0  0  0  0  0  0  0  0  0  0  0  0
  151.2355  137.5217  156.9851 N   0  0  0  0  0  0  0  0  0  0  0  0
  152.7164  137.2304  157.8427 S   0  0  0  0  0  0  0  0  0  0  0  0
  152.3454  136.6843  159.1583 O   0  0  0  0  0  0  0  0  0  0  0  0
  153.5343  136.3890  156.9535 O   0  0  0  0  0  0  0  0  0  0  0  0
  153.1993  138.7740  157.9238 N   0  5  0  0  0  0  0  0  0  0  0  0
  152.4580  139.7169  158.7432 C   0  0  0  0  0  0  0  0  0  0  0  0
  151.8638  140.8353  157.8559 C   0  0  0  0  0  0  0  0  0  0  0  0
  151.9204  142.2384  158.4577 C   0  0  0  0  0  0  0  0  0  0  0  0
  152.5129  142.4551  159.7233 C   0  0  0  0  0  0  0  0  0  0  0  0
  152.5426  143.7635  160.2409 C   0  0  0  0  0  0  0  0  0  0  0  0
  151.9917  144.8083  159.4749 C   0  0  0  0  0  0  0  0  0  0  0  0
  151.4327  144.4955  158.2198 C   0  0  0  0  0  0  0  0  0  0  0  0
  151.3976  143.2440  157.7139 N   0  0  0  0  0  0  0  0  0  0  0  0
  149.9743  137.2834  157.7012 C   0  0  0  0  0  0  0  0  0  0  0  0
  148.7906  137.9205  156.9513 C   0  0  2  0  0  0  0  0  0  0  0  0
  147.4477  137.5640  157.5981 C   0  0  0  0  0  0  0  0  0  0  0  0
  148.7599  137.4671  155.6023 O   0  0  0  0  0  0  0  0  0  0  0  0
  150.9615  139.3789  153.8615 H   0  0  0  0  0  0  0  0  0  0  0  0
  150.3314  139.8160  155.4377 H   0  0  0  0  0  0  0  0  0  0  0  0
  149.2322  139.6323  154.0708 H   0  0  0  0  0  0  0  0  0  0  0  0
  149.8283  137.2193  153.9065 H   0  0  0  0  0  0  0  0  0  0  0  0
  151.1108  136.0265  155.5254 H   0  0  0  0  0  0  0  0  0  0  0  0
  152.0826  137.3940  155.0413 H   0  0  0  0  0  0  0  0  0  0  0  0
  151.6464  139.2190  159.2742 H   0  0  0  0  0  0  0  0  0  0  0  0
  153.0822  140.1707  159.5138 H   0  0  0  0  0  0  0  0  0  0  0  0
  152.3659  140.8450  156.8873 H   0  0  0  0  0  0  0  0  0  0  0  0
  150.8207  140.5989  157.6421 H   0  0  0  0  0  0  0  0  0  0  0  0
  152.9200  141.6310  160.2908 H   0  0  0  0  0  0  0  0  0  0  0  0
  152.9791  143.9615  161.2086 H   0  0  0  0  0  0  0  0  0  0  0  0
  151.9966  145.8243  159.8405 H   0  0  0  0  0  0  0  0  0  0  0  0
  151.0028  145.2719  157.6049 H   0  0  0  0  0  0  0  0  0  0  0  0
  149.8294  136.2077  157.8092 H   0  0  0  0  0  0  0  0  0  0  0  0
  150.0326  137.7023  158.7057 H   0  0  0  0  0  0  0  0  0  0  0  0
  148.8917  139.0057  156.9699 H   0  0  0  0  0  0  0  0  0  0  0  0
  147.4068  137.9085  158.6316 H   0  0  0  0  0  0  0  0  0  0  0  0
  147.2833  136.4862  157.5971 H   0  0  0  0  0  0  0  0  0  0  0  0
  146.6209  138.0280  157.0603 H   0  0  0  0  0  0  0  0  0  0  0  0
  1  2  1  0  0  0  0
  1 21  1  0  0  0  0
  1 22  1  0  0  0  0
  1 23  1  0  0  0  0
  2 20  1  0  0  0  0
  2  3  1  0  0  0  0
  2 24  1  0  0  0  0
  3  4  1  0  0  0  0
  3 25  1  0  0  0  0
  3 26  1  0  0  0  0
  4  5  1  0  0  0  0
  4 17  1  0  0  0  0
  5  6  2  0  0  0  0
  5  7  2  0  0  0  0
  5  8  1  0  0  0  0
  8  9  1  0  0  0  0
  9 10  1  0  0  0  0
  9 27  1  0  0  0  0
  9 28  1  0  0  0  0
 10 11  1  0  0  0  0
 10 29  1  0  0  0  0
 10 30  1  0  0  0  0
 11 16  1  0  0  0  0
 11 12  2  0  0  0  0
 12 13  1  0  0  0  0
 12 31  1  0  0  0  0
 13 14  2  0  0  0  0
 13 32  1  0  0  0  0
 14 15  1  0  0  0  0
 14 33  1  0  0  0  0
 15 16  2  0  0  0  0
 15 34  1  0  0  0  0
 17 18  1  0  0  0  0
 17 35  1  0  0  0  0
 17 36  1  0  0  0  0
 18 19  1  0  0  0  0
 18 20  1  0  0  0  0
 18 37  1  0  0  0  0
 19 38  1  0  0  0  0
 19 39  1  0  0  0  0
 19 40  1  0  0  0  0
M  CHG  1   8  -1
M  END
> <s_m_source_file>
AV-unprocessed.smi

> <i_m_source_file_index>
2100

> <i_lp_mmshare_version>
43012

> <i_f3d_flags>
0

> <s_epik_input>
W0NIM11bQ0BASF0xW0NIMl1OKFtDSDJdW0NASF0oTzEpW0NIM10pUyg9TykoPU8pW05IXVtDSDJdW0NIMl1jMltjSF1bY0hdW2NIXVtjSF1uMg==

> <s_epik_cmdline>
J2VwaWtfcHl0aG9uJywgJy1waCcsICc3LjAnLCAnLXRuJywgJzgnLCAnLW1hJywgJzIwMCcsICctbWV0YWxfYmluZGluZycsICctaW1hZScsICc8aW5maWxlLm1hZT4nLCAnLW9tYWUnLCAnPG91dGZpbGUubWFlPic=

> <r_epik_Ionization_Penalty>
1.27779

> <r_epik_Ionization_Penalty_Charging>
1.20871

> <r_epik_Ionization_Penalty_Neutral>
0.0690773

> <r_epik_State_Penalty>
1.64557

> <r_epik_Charging_Adjusted_Penalty>
2.85428

> <i_epik_Tot_Q>
-1

> <i_epik_Tot_abs_Q>
1

> <r_epik_Metal_State_Penalty>
0.643506

> <b_epik_Metal_Only>
0

> <s_lp_Force_Field>
OPLS_2005

> <r_lp_Energy>
10.0642

> <b_lp_Chiralities_Consistent>
1

> <s_lp_Variant>
AV-unprocessed.smi:2100-6

> <Gold.Version>
5.8.1

> <Gold.Id.Protein>
6NUR|6NUR_protein|mol2

> <Gold.PLP.Fitness>
46.6113

> <Gold.PLP.PLP>
-32.3055

> <Gold.PLP.part.hbond>
-3.0000

> <Gold.PLP.part.metal>
0.0000

> <Gold.PLP.part.buried>
-5.3696

> <Gold.PLP.part.nonpolar>
-25.1299

> <Gold.PLP.part.repulsive>
0.1645

> <Gold.PLP.ligand.clash>
0.0000

> <Gold.PLP.ligand.torsion>
1.0873

> <Gold.PLP.Chemscore.Hbond>
4.0000

> <Gold.PLP.Chemscore.CHOScore>
0.9774

> <Gold.PLP.Chemscore.Metal>
0.0000

> <Gold.Chemscore.Hbonds>
donor molecule, donor type, donor heavy atom, donor atom, acceptor molecule, acceptor atom, score
      P1  H  6896  6907       L1     6  0.96
      P1  H  7997  8010       L1     8  1.79
      P1  H 10752 10764       L1     7  0.99
      L1  C    15    34       P1  8028  0.11

> <Gold.PLP.Chemscore.Internal.Correction>
1.5480

> <Gold.Rescore>
     Score         DG    S(hbond)    S(metal)    S(lipo)     H(rot)  DE(clash)    DE(int)     intcor
     20.20     -21.37       2.55        0.00      95.33       1.47       0.03       1.14       ----

> <Gold.Chemscore.Fitness>
20.1991

> <Gold.Chemscore.DG>
-21.3713

> <Gold.Chemscore.ZeroCoef>
-5.4800

> <Gold.Chemscore.Hbond>
2.5475

> <Gold.Chemscore.Metal>
0.0000

> <Gold.Chemscore.Lipo>
95.3324

> <Gold.Chemscore.Internal_Hbond>
0.0000

> <Gold.Chemscore.DEClash>
0.0318

> <Gold.Chemscore.DEInternal>
1.1404

> <Gold.Chemscore.Rot>
1.4731

> <Gold.Chemscore.Internal.Correction>
   9.000000E+99

> <Gold.Chemscore.Hbonds>
donor molecule, donor type, donor heavy atom, donor atom, acceptor molecule, acceptor atom, score
      P1  H  6896  6907       L1     6  0.92
      P1  H  7997  8010       L1     8  0.30
      P1  H 10752 10764       L1     7  0.94

> <Gold.Chemscore.Hbond.Weighted>
-8.5086

> <Gold.Chemscore.Metal.Weighted>
-0.0000

> <Gold.Chemscore.Lipo.Weighted>
-11.1539

> <Gold.Chemscore.Internal_Hbond.Weighted>
0.0000

> <Gold.Chemscore.DEClash.Weighted>
0.0318

> <Gold.Chemscore.DEInternal.Weighted>
1.1404

> <Gold.Chemscore.Rot.Weighted>
3.7712

> <Gold.Chemscore.Internal.Correction.Weighted>
   9.000000E+99

> <Gold.Protein.RotatedTorsions>
[ 6907 6896 6895 6894 ] final   18.47 input  -60.11 | X-H torsion
[ 7974 7965 7964 7962 ] final  -52.45 input  175.53 | X-H torsion
[ 8008 7997 7996 7995 ] final   39.67 input   59.86 | X-H torsion
[ 10167 10162 10161 10158 ] final  -45.00 input  -65.29 | X-H torsion
[ 10718 10713 10712 10709 ] final    4.95 input   66.30 | X-H torsion
[ 10763 10752 10751 10750 ] final   22.37 input  -60.55 | X-H torsion
[ 11005 11000 10999 10996 ] final -126.06 input  -57.11 | X-H torsion

> <Gold.Protein.ActiveResidues>
 VAL166  LYS551  ARG553  GLY616  TRP617  ASP618  TYR619  PRO620  LYS621  CYS622 
 ASP623  PHE694  ASN695  SER759  ASP760  ASP761  ALA762  ILE779  LEU786  VAL792 
 PHE793  MET794  SER795  GLU796  ALA797  LYS798  CYS799  TRP800  GLU811  SER814 

> <Gold.Protein.RotatedAtoms>
  151.8658  135.0507  160.0473 H   0  0  0  0  0  0  0  0  0  0  0  0  # atno 6907 bound_to 6896
  152.2627  133.5307  159.5400 H   0  0  0  0  0  0  0  0  0  0  0  0  # atno 6908 bound_to 6896
  150.7122  134.0723  159.3911 H   0  0  0  0  0  0  0  0  0  0  0  0  # atno 6909 bound_to 6896
  145.9078  140.7940  142.9710 H   0  0  0  0  0  0  0  0  0  0  0  0  # atno 7974 bound_to 7965
  155.2404  140.3345  155.4293 H   0  0  0  0  0  0  0  0  0  0  0  0  # atno 8008 bound_to 7997
  156.2258  140.1828  156.7411 H   0  0  0  0  0  0  0  0  0  0  0  0  # atno 8009 bound_to 7997
  154.5897  140.0640  156.9206 H   0  0  0  0  0  0  0  0  0  0  0  0  # atno 8010 bound_to 7997
  140.6875  143.2901  151.3577 H   0  0  0  0  0  0  0  0  0  0  0  0  # atno 10167 bound_to 10162
  156.9001  130.5719  149.5648 H   0  0  0  0  0  0  0  0  0  0  0  0  # atno 10718 bound_to 10713
  153.0921  135.6649  153.9834 H   0  0  0  0  0  0  0  0  0  0  0  0  # atno 10763 bound_to 10752
  153.9428  135.2992  155.3443 H   0  0  0  0  0  0  0  0  0  0  0  0  # atno 10764 bound_to 10752
  154.7336  135.5111  153.9078 H   0  0  0  0  0  0  0  0  0  0  0  0  # atno 10765 bound_to 10752
  140.9712  134.0803  157.3867 H   0  0  0  0  0  0  0  0  0  0  0  0  # atno 11005 bound_to 11000
  144.6741  140.1778  143.7408 LP  0  0  0  0  0  0  0  0  0  0  0  0  # atno 17320 bound_to 7965
  145.8709  139.2272  143.1661 LP  0  0  0  0  0  0  0  0  0  0  0  0  # atno 17321 bound_to 7965
  139.6246  144.0839  152.2423 LP  0  0  0  0  0  0  0  0  0  0  0  0  # atno 17342 bound_to 10162
  140.0294  144.6092  150.7500 LP  0  0  0  0  0  0  0  0  0  0  0  0  # atno 17343 bound_to 10162
  156.0586  130.5643  150.9144 LP  0  0  0  0  0  0  0  0  0  0  0  0  # atno 17370 bound_to 10713
  157.6031  131.0940  150.8926 LP  0  0  0  0  0  0  0  0  0  0  0  0  # atno 17371 bound_to 10713
  139.8913  135.0117  156.6783 LP  0  0  0  0  0  0  0  0  0  0  0  0  # atno 17394 bound_to 11000
  140.7326  133.9046  155.8222 LP  0  0  0  0  0  0  0  0  0  0  0  0  # atno 17395 bound_to 11000

$$$$
