AV-unprocessed.smi:3237|AV-procd|sdf|12373|dock4
  -GOLD-   2272018233D 1   1.00000     0.00000
 Structure written by MMmdl.
 36 38  0  0  0  0  0  0  0  0  3 V2000
  147.6243  136.2502  162.7502 C   0  0  0  0  0  0  0  0  0  0  0  0
  147.4270  136.3965  161.2801 C   0  0  0  0  0  0  0  0  0  0  0  0
  148.1033  135.9056  160.1992 C   0  0  0  0  0  0  0  0  0  0  0  0
  147.3760  136.4324  159.0985 C   0  0  0  0  0  0  0  0  0  0  0  0
  147.7717  136.1447  157.7656 N   0  0  0  0  0  0  0  0  0  0  0  0
  148.9288  135.6181  157.3249 C   0  0  0  0  0  0  0  0  0  0  0  0
  149.8226  135.3146  158.1240 O   0  0  0  0  0  0  0  0  0  0  0  0
  148.9493  135.4797  155.9700 N   0  5  0  0  0  0  0  0  0  0  0  0
  148.1867  134.4772  155.2236 C   0  0  2  0  0  0  0  0  0  0  0  0
  149.1057  133.5837  154.3895 C   0  0  0  0  0  0  0  0  0  0  0  0
  148.1961  133.1153  153.2549 C   0  0  0  0  0  0  0  0  0  0  0  0
  147.3270  134.2736  152.9604 N   0  3  1  0  0  0  0  0  0  0  0  0
  146.0140  133.9134  152.3828 C   0  0  0  0  0  0  0  0  0  0  0  0
  146.0888  133.4709  150.9412 C   0  0  0  0  0  0  0  0  0  0  0  0
  145.5621  134.8473  151.2860 C   0  0  0  0  0  0  0  0  0  0  0  0
  147.2507  135.1133  154.1797 C   0  0  0  0  0  0  0  0  0  0  0  0
  146.3481  137.1786  159.4755 N   0  0  0  0  0  0  0  0  0  0  0  0
  146.3750  137.1585  160.8750 O   0  0  0  0  0  0  0  0  0  0  0  0
  148.6825  136.1492  162.9910 H   0  0  0  0  0  0  0  0  0  0  0  0
  147.1063  135.3662  163.1216 H   0  0  0  0  0  0  0  0  0  0  0  0
  147.2385  137.1187  163.2843 H   0  0  0  0  0  0  0  0  0  0  0  0
  148.9775  135.2714  160.1979 H   0  0  0  0  0  0  0  0  0  0  0  0
  147.0925  136.3655  157.0525 H   0  0  0  0  0  0  0  0  0  0  0  0
  147.5940  133.8323  155.8744 H   0  0  0  0  0  0  0  0  0  0  0  0
  149.9347  134.1602  153.9744 H   0  0  0  0  0  0  0  0  0  0  0  0
  149.5256  132.7565  154.9624 H   0  0  0  0  0  0  0  0  0  0  0  0
  148.7594  132.8124  152.3719 H   0  0  0  0  0  0  0  0  0  0  0  0
  147.5950  132.2577  153.5695 H   0  0  0  0  0  0  0  0  0  0  0  0
  145.2898  133.4689  153.0633 H   0  0  0  0  0  0  0  0  0  0  0  0
  147.0689  133.4103  150.4715 H   0  0  0  0  0  0  0  0  0  0  0  0
  145.3657  132.7303  150.6055 H   0  0  0  0  0  0  0  0  0  0  0  0
  144.4922  135.0136  151.1775 H   0  0  0  0  0  0  0  0  0  0  0  0
  146.1921  135.7020  151.0460 H   0  0  0  0  0  0  0  0  0  0  0  0
  146.2332  135.1832  154.5676 H   0  0  0  0  0  0  0  0  0  0  0  0
  147.5644  136.1224  153.9084 H   0  0  0  0  0  0  0  0  0  0  0  0
  147.8185  134.8302  152.2760 H   0  0  0  0  0  0  0  0  0  0  0  0
  1  2  1  0  0  0  0
  1 19  1  0  0  0  0
  1 20  1  0  0  0  0
  1 21  1  0  0  0  0
  2 18  1  0  0  0  0
  2  3  2  0  0  0  0
  3  4  1  0  0  0  0
  3 22  1  0  0  0  0
  4  5  1  0  0  0  0
  4 17  2  0  0  0  0
  5  6  1  0  0  0  0
  5 23  1  0  0  0  0
  6  7  2  0  0  0  0
  6  8  1  0  0  0  0
  8  9  1  0  0  0  0
  9 16  1  0  0  0  0
  9 10  1  0  0  0  0
  9 24  1  0  0  0  0
 10 11  1  0  0  0  0
 10 25  1  0  0  0  0
 10 26  1  0  0  0  0
 11 12  1  0  0  0  0
 11 27  1  0  0  0  0
 11 28  1  0  0  0  0
 12 13  1  0  0  0  0
 12 16  1  0  0  0  0
 12 36  1  0  0  0  0
 13 15  1  0  0  0  0
 13 14  1  0  0  0  0
 13 29  1  0  0  0  0
 14 15  1  0  0  0  0
 14 30  1  0  0  0  0
 14 31  1  0  0  0  0
 15 32  1  0  0  0  0
 15 33  1  0  0  0  0
 16 34  1  0  0  0  0
 16 35  1  0  0  0  0
 17 18  1  0  0  0  0
M  CHG  1   8  -1
M  CHG  1  12   1
M  END
> <s_m_source_file>
AV-unprocessed.smi

> <i_m_source_file_index>
3237

> <i_lp_mmshare_version>
43012

> <i_f3d_flags>
0

> <s_epik_input>
W0NIM11jMVtjSF1jKG5vMSlbTkhdQyg9TylbTkhdW0NAQEhdMltDSDJdW0NIMl1OKFtDSDJdMilbQ0hdM1tDSDJdW0NIMl0z

> <s_epik_cmdline>
J2VwaWtfcHl0aG9uJywgJy1waCcsICc3LjAnLCAnLXRuJywgJzgnLCAnLW1hJywgJzIwMCcsICctbWV0YWxfYmluZGluZycsICctaW1hZScsICc8aW5maWxlLm1hZT4nLCAnLW9tYWUnLCAnPG91dGZpbGUubWFlPic=

> <r_epik_Ionization_Penalty>
6.76456

> <r_epik_Ionization_Penalty_Charging>
6.76456

> <r_epik_Ionization_Penalty_Neutral>
5.76722e-06

> <r_epik_State_Penalty>
6.78919

> <r_epik_Charging_Adjusted_Penalty>
13.5538

> <i_epik_Tot_Q>
0

> <i_epik_Tot_abs_Q>
2

> <r_epik_Metal_State_Penalty>
2.728

> <b_epik_Metal_Only>
1

> <s_lp_Force_Field>
OPLS_2005

> <r_lp_Energy>
30.8833

> <b_lp_Chiralities_Consistent>
1

> <s_lp_Variant>
AV-unprocessed.smi:3237-11

> <Gold.Version>
5.8.1

> <Gold.Id.Protein>
6NUR|6NUR_protein|mol2

> <Gold.PLP.Fitness>
36.2512

> <Gold.PLP.PLP>
-26.5091

> <Gold.PLP.part.hbond>
-3.2326

> <Gold.PLP.part.metal>
0.0000

> <Gold.PLP.part.buried>
-1.8528

> <Gold.PLP.part.nonpolar>
-20.9270

> <Gold.PLP.part.repulsive>
0.0542

> <Gold.PLP.ligand.clash>
0.0000

> <Gold.PLP.ligand.torsion>
1.3765

> <Gold.PLP.Chemscore.Hbond>
3.7420

> <Gold.PLP.Chemscore.CHOScore>
0.0000

> <Gold.PLP.Chemscore.Metal>
0.0000

> <Gold.Chemscore.Hbonds>
donor molecule, donor type, donor heavy atom, donor atom, acceptor molecule, acceptor atom, score
      L1  H    12    36       P1  7948  2.00
      P1  H  6896  6907       L1     7  1.00
      P1  H  6934  6947       L1    18  0.55

> <Gold.PLP.Chemscore.Internal.Correction>
1.2691

> <Gold.Rescore>
     Score         DG    S(hbond)    S(metal)    S(lipo)     H(rot)  DE(clash)    DE(int)     intcor
     12.51     -15.34       1.96        0.00      55.62       1.25       0.02       2.81       ----

> <Gold.Chemscore.Fitness>
12.5144

> <Gold.Chemscore.DG>
-15.3442

> <Gold.Chemscore.ZeroCoef>
-5.4800

> <Gold.Chemscore.Hbond>
1.9604

> <Gold.Chemscore.Metal>
0.0000

> <Gold.Chemscore.Lipo>
55.6169

> <Gold.Chemscore.Internal_Hbond>
0.0000

> <Gold.Chemscore.DEClash>
0.0202

> <Gold.Chemscore.DEInternal>
2.8096

> <Gold.Chemscore.Rot>
1.2464

> <Gold.Chemscore.Internal.Correction>
   9.000000E+99

> <Gold.Chemscore.Hbonds>
donor molecule, donor type, donor heavy atom, donor atom, acceptor molecule, acceptor atom, score
      L1  H    12    36       P1  7948  0.72
      P1  H  6896  6907       L1     7  0.95
      P1  H  6934  6947       L1    18  0.01

> <Gold.Chemscore.Hbond.Weighted>
-6.5479

> <Gold.Chemscore.Metal.Weighted>
-0.0000

> <Gold.Chemscore.Lipo.Weighted>
-6.5072

> <Gold.Chemscore.Internal_Hbond.Weighted>
0.0000

> <Gold.Chemscore.DEClash.Weighted>
0.0202

> <Gold.Chemscore.DEInternal.Weighted>
2.8096

> <Gold.Chemscore.Rot.Weighted>
3.1909

> <Gold.Chemscore.Internal.Correction.Weighted>
   9.000000E+99

> <Gold.Protein.RotatedTorsions>
[ 6907 6896 6895 6894 ] final  -72.15 input  -60.11 | X-H torsion
[ 7974 7965 7964 7962 ] final   88.80 input  175.53 | X-H torsion
[ 8008 7997 7996 7995 ] final -135.29 input   59.86 | X-H torsion
[ 10167 10162 10161 10158 ] final  117.83 input  -65.29 | X-H torsion
[ 10718 10713 10712 10709 ] final   17.84 input   66.30 | X-H torsion
[ 10763 10752 10751 10750 ] final -131.26 input  -60.55 | X-H torsion
[ 11005 11000 10999 10996 ] final  -34.68 input  -57.11 | X-H torsion

> <Gold.Protein.ActiveResidues>
 VAL166  LYS551  ARG553  GLY616  TRP617  ASP618  TYR619  PRO620  LYS621  CYS622 
 ASP623  PHE694  ASN695  SER759  ASP760  ASP761  ALA762  ILE779  LEU786  VAL792 
 PHE793  MET794  SER795  GLU796  ALA797  LYS798  CYS799  TRP800  GLU811  SER814 

> <Gold.Protein.RotatedAtoms>
  150.7182  134.5205  159.5651 H   0  0  0  0  0  0  0  0  0  0  0  0  # atno 6907 bound_to 6896
  152.2761  134.7876  160.0414 H   0  0  0  0  0  0  0  0  0  0  0  0  # atno 6908 bound_to 6896
  151.8539  133.3409  159.3719 H   0  0  0  0  0  0  0  0  0  0  0  0  # atno 6909 bound_to 6896
  145.5408  139.2288  143.2566 H   0  0  0  0  0  0  0  0  0  0  0  0  # atno 7974 bound_to 7965
  155.3762  140.0491  157.3044 H   0  0  0  0  0  0  0  0  0  0  0  0  # atno 8008 bound_to 7997
  154.5105  140.2190  155.9128 H   0  0  0  0  0  0  0  0  0  0  0  0  # atno 8009 bound_to 7997
  156.1577  140.3123  155.8759 H   0  0  0  0  0  0  0  0  0  0  0  0  # atno 8010 bound_to 7997
  139.6152  144.7090  151.2755 H   0  0  0  0  0  0  0  0  0  0  0  0  # atno 10167 bound_to 10162
  157.0879  130.6415  149.5842 H   0  0  0  0  0  0  0  0  0  0  0  0  # atno 10718 bound_to 10713
  154.8752  135.3836  154.4217 H   0  0  0  0  0  0  0  0  0  0  0  0  # atno 10763 bound_to 10752
  153.4920  135.7030  153.5884 H   0  0  0  0  0  0  0  0  0  0  0  0  # atno 10764 bound_to 10752
  153.4254  135.3891  155.2104 H   0  0  0  0  0  0  0  0  0  0  0  0  # atno 10765 bound_to 10752
  140.9735  133.7096  156.1564 H   0  0  0  0  0  0  0  0  0  0  0  0  # atno 11005 bound_to 11000
  146.1982  140.6228  142.9114 LP  0  0  0  0  0  0  0  0  0  0  0  0  # atno 17320 bound_to 7965
  144.7578  140.5349  143.6757 LP  0  0  0  0  0  0  0  0  0  0  0  0  # atno 17321 bound_to 7965
  140.7346  143.6761  150.8040 LP  0  0  0  0  0  0  0  0  0  0  0  0  # atno 17342 bound_to 10162
  140.0362  143.5392  152.2738 LP  0  0  0  0  0  0  0  0  0  0  0  0  # atno 17343 bound_to 10162
  155.9906  130.4957  150.7263 LP  0  0  0  0  0  0  0  0  0  0  0  0  # atno 17370 bound_to 10713
  157.4746  131.0896  151.0605 LP  0  0  0  0  0  0  0  0  0  0  0  0  # atno 17371 bound_to 10713
  140.7293  134.4272  157.5567 LP  0  0  0  0  0  0  0  0  0  0  0  0  # atno 17394 bound_to 11000
  139.8921  134.8762  156.2285 LP  0  0  0  0  0  0  0  0  0  0  0  0  # atno 17395 bound_to 11000

$$$$
