AV-unprocessed.smi:1830|AV-procd|sdf|7442|dock1
  -GOLD-   22720 9133D 1   1.00000     0.00000
 Structure written by MMmdl.
 52 55  0  0  0  0  0  0  0  0  1 V2000
  150.2654  135.7923  158.4487 O   0  0  0  0  0  0  0  0  0  0  0  0
  149.5507  136.7795  158.6183 C   0  0  0  0  0  0  0  0  0  0  0  0
  148.5347  136.8205  159.4913 N   0  0  0  0  0  0  0  0  0  0  0  0
  148.0802  135.7028  160.3118 C   0  0  0  0  0  0  0  0  0  0  0  0
  147.5389  136.1990  161.6678 C   0  0  2  0  0  0  0  0  0  0  0  0
  146.8425  135.0817  162.4809 C   0  0  0  0  0  0  0  0  0  0  0  0
  145.5302  134.7911  161.9339 N   0  0  0  0  0  0  0  0  0  0  0  0
  144.7241  133.8311  162.6514 C   0  0  0  0  0  0  0  0  0  0  0  0
  143.3025  134.0421  162.1019 C   0  0  0  0  0  0  0  0  0  0  0  0
  143.3319  135.4615  161.4935 C   0  0  0  0  0  0  0  0  0  0  0  0
  144.7160  135.9751  161.8942 C   0  0  2  0  0  0  0  0  0  0  0  0
  145.3572  137.0436  161.0002 C   0  0  0  0  0  0  0  0  0  0  0  0
  146.6643  137.3281  161.5081 O   0  0  0  0  0  0  0  0  0  0  0  0
  149.6791  137.9524  157.9759 N   0  0  0  0  0  0  0  0  0  0  0  0
  150.6560  138.3435  157.0149 C   0  0  0  0  0  0  0  0  0  0  0  0
  151.1258  137.4713  156.0019 C   0  0  0  0  0  0  0  0  0  0  0  0
  152.0697  137.9422  155.0722 C   0  0  0  0  0  0  0  0  0  0  0  0
  152.5054  139.2739  155.1805 C   0  0  0  0  0  0  0  0  0  0  0  0
  152.0568  140.1212  156.1280 N   0  0  0  0  0  0  0  0  0  0  0  0
  151.1438  139.6789  157.0270 C   0  0  0  0  0  0  0  0  0  0  0  0
  150.7119  140.5850  158.0191 N   0  0  0  0  0  0  0  0  0  0  0  0
  151.7431  140.9302  158.9938 C   0  0  0  0  0  0  0  0  0  0  0  0
  151.5053  142.3927  159.3736 C   0  0  0  0  0  0  0  0  0  0  0  0
  150.8504  142.9681  158.1242 C   0  0  0  0  0  0  0  0  0  0  0  0
  149.9983  141.8008  157.6293 C   0  0  0  0  0  0  0  0  0  0  0  0
  148.0096  137.6791  159.5669 H   0  0  0  0  0  0  0  0  0  0  0  0
  147.3380  135.0970  159.7901 H   0  0  0  0  0  0  0  0  0  0  0  0
  148.9351  135.0474  160.4791 H   0  0  0  0  0  0  0  0  0  0  0  0
  148.3929  136.5481  162.2496 H   0  0  0  0  0  0  0  0  0  0  0  0
  147.4543  134.1792  162.4932 H   0  0  0  0  0  0  0  0  0  0  0  0
  146.7419  135.4043  163.5182 H   0  0  0  0  0  0  0  0  0  0  0  0
  145.0845  132.8124  162.5052 H   0  0  0  0  0  0  0  0  0  0  0  0
  144.7438  134.0477  163.7208 H   0  0  0  0  0  0  0  0  0  0  0  0
  143.0679  133.3055  161.3327 H   0  0  0  0  0  0  0  0  0  0  0  0
  142.5574  133.9508  162.8926 H   0  0  0  0  0  0  0  0  0  0  0  0
  143.2387  135.4074  160.4079 H   0  0  0  0  0  0  0  0  0  0  0  0
  142.5322  136.0986  161.8722 H   0  0  0  0  0  0  0  0  0  0  0  0
  144.6377  136.3829  162.9045 H   0  0  0  0  0  0  0  0  0  0  0  0
  145.4147  136.7065  159.9650 H   0  0  0  0  0  0  0  0  0  0  0  0
  144.7641  137.9582  161.0072 H   0  0  0  0  0  0  0  0  0  0  0  0
  149.0566  138.6888  158.2750 H   0  0  0  0  0  0  0  0  0  0  0  0
  150.7709  136.4571  155.9080 H   0  0  0  0  0  0  0  0  0  0  0  0
  152.4459  137.2984  154.2912 H   0  0  0  0  0  0  0  0  0  0  0  0
  153.2293  139.6715  154.4845 H   0  0  0  0  0  0  0  0  0  0  0  0
  151.6938  140.2813  159.8686 H   0  0  0  0  0  0  0  0  0  0  0  0
  152.7328  140.8164  158.5482 H   0  0  0  0  0  0  0  0  0  0  0  0
  150.8111  142.4499  160.2131 H   0  0  0  0  0  0  0  0  0  0  0  0
  152.4213  142.9123  159.6554 H   0  0  0  0  0  0  0  0  0  0  0  0
  150.2668  143.8676  158.3211 H   0  0  0  0  0  0  0  0  0  0  0  0
  151.6133  143.2117  157.3833 H   0  0  0  0  0  0  0  0  0  0  0  0
  149.7829  141.8812  156.5638 H   0  0  0  0  0  0  0  0  0  0  0  0
  149.0377  141.7984  158.1453 H   0  0  0  0  0  0  0  0  0  0  0  0
  1  2  2  0  0  0  0
  2  3  1  0  0  0  0
  2 14  1  0  0  0  0
  3  4  1  0  0  0  0
  3 26  1  0  0  0  0
  4  5  1  0  0  0  0
  4 27  1  0  0  0  0
  4 28  1  0  0  0  0
  5 13  1  0  0  0  0
  5  6  1  0  0  0  0
  5 29  1  0  0  0  0
  6  7  1  0  0  0  0
  6 30  1  0  0  0  0
  6 31  1  0  0  0  0
  7 11  1  0  0  0  0
  7  8  1  0  0  0  0
  8  9  1  0  0  0  0
  8 32  1  0  0  0  0
  8 33  1  0  0  0  0
  9 10  1  0  0  0  0
  9 34  1  0  0  0  0
  9 35  1  0  0  0  0
 10 11  1  0  0  0  0
 10 36  1  0  0  0  0
 10 37  1  0  0  0  0
 11 12  1  0  0  0  0
 11 38  1  0  0  0  0
 12 13  1  0  0  0  0
 12 39  1  0  0  0  0
 12 40  1  0  0  0  0
 14 15  1  0  0  0  0
 14 41  1  0  0  0  0
 15 20  1  0  0  0  0
 15 16  2  0  0  0  0
 16 17  1  0  0  0  0
 16 42  1  0  0  0  0
 17 18  2  0  0  0  0
 17 43  1  0  0  0  0
 18 19  1  0  0  0  0
 18 44  1  0  0  0  0
 19 20  2  0  0  0  0
 20 21  1  0  0  0  0
 21 25  1  0  0  0  0
 21 22  1  0  0  0  0
 22 23  1  0  0  0  0
 22 45  1  0  0  0  0
 22 46  1  0  0  0  0
 23 24  1  0  0  0  0
 23 47  1  0  0  0  0
 23 48  1  0  0  0  0
 24 25  1  0  0  0  0
 24 49  1  0  0  0  0
 24 50  1  0  0  0  0
 25 51  1  0  0  0  0
 25 52  1  0  0  0  0
M  END
> <s_m_source_file>
AV-unprocessed.smi

> <i_m_source_file_index>
1830

> <i_lp_mmshare_version>
43012

> <i_f3d_flags>
0

> <s_epik_input>
W0NIMl0xW0NIMl1bQ0gyXVtDQEhdKE4xMilbQ0gyXU9bQ0BASF0oW0NIMl0yKVtDSDJdW05IXUMoPU8pW05IXWMzW2NIXVtjSF1bY0hdbmMzTjRbQ0gyXVtDSDJdW0NIMl1bQ0gyXTQ=

> <s_epik_cmdline>
J2VwaWtfcHl0aG9uJywgJy1waCcsICc3LjAnLCAnLXRuJywgJzgnLCAnLW1hJywgJzIwMCcsICctbWV0YWxfYmluZGluZycsICctaW1hZScsICc8aW5maWxlLm1hZT4nLCAnLW9tYWUnLCAnPG91dGZpbGUubWFlPic=

> <r_lp_tautomer_probability>
1

> <r_epik_Ionization_Penalty>
1.16487

> <r_epik_Ionization_Penalty_Charging>
0

> <r_epik_Ionization_Penalty_Neutral>
1.16487

> <r_epik_State_Penalty>
1.21807

> <r_epik_Charging_Adjusted_Penalty>
1.21807

> <i_epik_Tot_Q>
0

> <i_epik_Tot_abs_Q>
0

> <r_epik_Metal_State_Penalty>
1.19922

> <b_epik_Metal_Only>
0

> <s_lp_Force_Field>
OPLS_2005

> <r_lp_Energy>
77.9026

> <b_lp_Chiralities_Consistent>
1

> <s_lp_Variant>
AV-unprocessed.smi:1830-11

> <Gold.Version>
5.8.1

> <Gold.Id.Protein>
6NUR|6NUR_protein|mol2

> <Gold.PLP.Fitness>
50.1312

> <Gold.PLP.PLP>
-45.5641

> <Gold.PLP.part.hbond>
-4.0000

> <Gold.PLP.part.metal>
0.0000

> <Gold.PLP.part.buried>
-6.0682

> <Gold.PLP.part.nonpolar>
-35.2058

> <Gold.PLP.part.repulsive>
0.3465

> <Gold.PLP.ligand.clash>
0.0000

> <Gold.PLP.ligand.torsion>
0.6346

> <Gold.PLP.Chemscore.Hbond>
1.8691

> <Gold.PLP.Chemscore.CHOScore>
0.0000

> <Gold.PLP.Chemscore.Metal>
0.0000

> <Gold.Chemscore.Hbonds>
donor molecule, donor type, donor heavy atom, donor atom, acceptor molecule, acceptor atom, score
      P1  H  6896  6909       L1     1  0.80
      P1  H  6934  6947       L1    13  1.00

> <Gold.PLP.Chemscore.Internal.Correction>
0.2291

> <Gold.Rescore>
     Score         DG    S(hbond)    S(metal)    S(lipo)     H(rot)  DE(clash)    DE(int)     intcor
     15.96     -18.04       1.07        0.00     106.78       1.37       0.24       1.84       ----

> <Gold.Chemscore.Fitness>
15.9642

> <Gold.Chemscore.DG>
-18.0405

> <Gold.Chemscore.ZeroCoef>
-5.4800

> <Gold.Chemscore.Hbond>
1.0736

> <Gold.Chemscore.Metal>
0.0000

> <Gold.Chemscore.Lipo>
106.7823

> <Gold.Chemscore.Internal_Hbond>
0.0000

> <Gold.Chemscore.DEClash>
0.2409

> <Gold.Chemscore.DEInternal>
1.8355

> <Gold.Chemscore.Rot>
1.3746

> <Gold.Chemscore.Internal.Correction>
   9.000000E+99

> <Gold.Chemscore.Hbonds>
donor molecule, donor type, donor heavy atom, donor atom, acceptor molecule, acceptor atom, score
      P1  H  6896  6909       L1     1  0.80
      P1  H  6934  6947       L1    13  0.69

> <Gold.Chemscore.Hbond.Weighted>
-3.5859

> <Gold.Chemscore.Metal.Weighted>
-0.0000

> <Gold.Chemscore.Lipo.Weighted>
-12.4935

> <Gold.Chemscore.Internal_Hbond.Weighted>
0.0000

> <Gold.Chemscore.DEClash.Weighted>
0.2409

> <Gold.Chemscore.DEInternal.Weighted>
1.8355

> <Gold.Chemscore.Rot.Weighted>
3.5189

> <Gold.Chemscore.Internal.Correction.Weighted>
   9.000000E+99

> <Gold.Protein.RotatedTorsions>
[ 6907 6896 6895 6894 ] final   47.89 input  -60.11 | X-H torsion
[ 7974 7965 7964 7962 ] final -122.54 input  175.53 | X-H torsion
[ 8008 7997 7996 7995 ] final  138.62 input   59.86 | X-H torsion
[ 10167 10162 10161 10158 ] final  -94.56 input  -65.29 | X-H torsion
[ 10718 10713 10712 10709 ] final -102.35 input   66.30 | X-H torsion
[ 10763 10752 10751 10750 ] final   47.80 input  -60.55 | X-H torsion
[ 11005 11000 10999 10996 ] final   18.41 input  -57.11 | X-H torsion

> <Gold.Protein.ActiveResidues>
 VAL166  LYS551  ARG553  GLY616  TRP617  ASP618  TYR619  PRO620  LYS621  CYS622 
 ASP623  PHE694  ASN695  SER759  ASP760  ASP761  ALA762  ILE779  LEU786  VAL792 
 PHE793  MET794  SER795  GLU796  ALA797  LYS798  CYS799  TRP800  GLU811  SER814 

> <Gold.Protein.RotatedAtoms>
  152.2733  134.7909  160.0410 H   0  0  0  0  0  0  0  0  0  0  0  0  # atno 6907 bound_to 6896
  151.8514  133.3435  159.3682 H   0  0  0  0  0  0  0  0  0  0  0  0  # atno 6908 bound_to 6896
  150.7160  134.5223  159.5704 H   0  0  0  0  0  0  0  0  0  0  0  0  # atno 6909 bound_to 6896
  145.0283  140.8046  143.4339 H   0  0  0  0  0  0  0  0  0  0  0  0  # atno 7974 bound_to 7965
  156.2996  140.2388  156.4104 H   0  0  0  0  0  0  0  0  0  0  0  0  # atno 8008 bound_to 7997
  154.8446  140.0427  157.1584 H   0  0  0  0  0  0  0  0  0  0  0  0  # atno 8009 bound_to 7997
  154.9065  140.2984  155.5293 H   0  0  0  0  0  0  0  0  0  0  0  0  # atno 8010 bound_to 7997
  140.3131  143.3093  152.0127 H   0  0  0  0  0  0  0  0  0  0  0  0  # atno 10167 bound_to 10162
  156.0225  130.5416  150.7095 H   0  0  0  0  0  0  0  0  0  0  0  0  # atno 10718 bound_to 10713
  152.9797  135.5965  154.3821 H   0  0  0  0  0  0  0  0  0  0  0  0  # atno 10763 bound_to 10752
  154.3485  135.2767  155.2387 H   0  0  0  0  0  0  0  0  0  0  0  0  # atno 10764 bound_to 10752
  154.4436  135.6007  153.6201 H   0  0  0  0  0  0  0  0  0  0  0  0  # atno 10765 bound_to 10752
  140.4251  134.1478  155.7676 H   0  0  0  0  0  0  0  0  0  0  0  0  # atno 11005 bound_to 11000
  145.1804  139.2355  143.5295 LP  0  0  0  0  0  0  0  0  0  0  0  0  # atno 17320 bound_to 7965
  146.3495  140.1576  142.8591 LP  0  0  0  0  0  0  0  0  0  0  0  0  # atno 17321 bound_to 7965
  139.4889  144.6369  151.6957 LP  0  0  0  0  0  0  0  0  0  0  0  0  # atno 17342 bound_to 10162
  140.5550  144.0363  150.6143 LP  0  0  0  0  0  0  0  0  0  0  0  0  # atno 17343 bound_to 10162
  157.4736  131.0895  151.0614 LP  0  0  0  0  0  0  0  0  0  0  0  0  # atno 17370 bound_to 10713
  157.1068  130.6004  149.5472 LP  0  0  0  0  0  0  0  0  0  0  0  0  # atno 17371 bound_to 10713
  141.1768  133.8497  157.1393 LP  0  0  0  0  0  0  0  0  0  0  0  0  # atno 17394 bound_to 11000
  140.0173  134.9962  157.0519 LP  0  0  0  0  0  0  0  0  0  0  0  0  # atno 17395 bound_to 11000

$$$$
