AV-unprocessed.smi:229|AV-procd|sdf|1749|dock9
  -GOLD-   2262020273D 1   1.00000     0.00000
 Structure written by MMmdl.
 58 62  0  0  0  0  0  0  0  0  1 V2000
  151.8084  130.0901  156.2009 C   0  0  0  0  0  0  0  0  0  0  0  0
  152.1632  131.4613  156.7916 C   0  0  0  0  0  0  0  0  0  0  0  0
  151.5770  132.6453  156.0049 C   0  0  2  0  0  0  0  0  0  0  0  0
  151.9510  134.0109  156.6089 C   0  0  0  0  0  0  0  0  0  0  0  0
  151.2687  135.0787  155.8883 N   0  0  0  0  0  0  0  0  0  0  0  0
  151.7629  136.3239  156.1076 C   0  0  0  0  0  0  0  0  0  0  0  0
  152.5100  136.9384  155.1512 N   0  0  0  0  0  0  0  0  0  0  0  0
  152.9859  138.1709  155.3529 C   0  0  0  0  0  0  0  0  0  0  0  0
  152.8396  138.9579  156.4205 N   0  0  0  0  0  0  0  0  0  0  0  0
  152.1013  138.3433  157.3880 C   0  0  0  0  0  0  0  0  0  0  0  0
  151.5321  137.0402  157.3163 C   0  0  0  0  0  0  0  0  0  0  0  0
  150.8604  136.7530  158.4995 N   0  0  0  0  0  0  0  0  0  0  0  0
  151.0113  137.8295  159.2219 C   0  0  0  0  0  0  0  0  0  0  0  0
  151.7410  138.8345  158.6295 N   0  0  0  0  0  0  0  0  0  0  0  0
  152.0556  140.1335  159.1975 C   0  0  0  0  0  0  0  0  0  0  0  0
  151.5191  141.2945  158.3371 C   0  0  1  0  0  0  0  0  0  0  0  0
  150.1257  141.4263  158.5482 O   0  0  0  0  0  0  0  0  0  0  0  0
  152.1987  142.6339  158.6748 C   0  0  2  0  0  0  0  0  0  0  0  0
  152.0734  143.0570  160.1374 C   0  0  0  0  0  0  0  0  0  0  0  0
  152.3342  144.5492  160.0719 C   0  0  0  0  0  0  0  0  0  0  0  0
  151.9067  144.9279  158.6507 C   0  0  0  0  0  0  0  0  0  0  0  0
  151.5519  143.7079  158.0082 O   0  0  0  0  0  0  0  0  0  0  0  0
  149.8196  134.9068  155.8631 C   0  0  0  0  0  0  0  0  0  0  0  0
  149.4410  133.5163  155.3027 C   0  0  1  0  0  0  0  0  0  0  0  0
  147.9506  133.2429  155.4769 C   0  0  0  0  0  0  0  0  0  0  0  0
  147.3597  133.6637  154.1402 C   0  0  0  0  0  0  0  0  0  0  0  0
  148.3224  133.1847  153.2201 O   0  0  0  0  0  0  0  0  0  0  0  0
  149.6158  133.4104  153.7692 C   0  0  0  0  0  0  0  0  0  0  0  0
  150.1553  132.5029  156.0168 O   0  0  0  0  0  0  0  0  0  0  0  0
  152.1946  129.2881  156.8302 H   0  0  0  0  0  0  0  0  0  0  0  0
  152.2336  129.9585  155.2062 H   0  0  0  0  0  0  0  0  0  0  0  0
  150.7284  129.9617  156.1254 H   0  0  0  0  0  0  0  0  0  0  0  0
  151.7894  131.5008  157.8153 H   0  0  0  0  0  0  0  0  0  0  0  0
  153.2469  131.5624  156.8609 H   0  0  0  0  0  0  0  0  0  0  0  0
  151.9422  132.5919  154.9789 H   0  0  0  0  0  0  0  0  0  0  0  0
  151.6587  134.0512  157.6591 H   0  0  0  0  0  0  0  0  0  0  0  0
  153.0310  134.1441  156.5776 H   0  0  0  0  0  0  0  0  0  0  0  0
  153.5648  138.5866  154.5414 H   0  0  0  0  0  0  0  0  0  0  0  0
  150.5876  137.9227  160.2112 H   0  0  0  0  0  0  0  0  0  0  0  0
  151.6432  140.1819  160.2064 H   0  0  0  0  0  0  0  0  0  0  0  0
  153.1390  140.2056  159.3000 H   0  0  0  0  0  0  0  0  0  0  0  0
  151.6782  141.0638  157.2826 H   0  0  0  0  0  0  0  0  0  0  0  0
  149.8269  140.6799  159.0450 H   0  0  0  0  0  0  0  0  0  0  0  0
  153.2499  142.6181  158.3802 H   0  0  0  0  0  0  0  0  0  0  0  0
  151.0599  142.8751  160.4980 H   0  0  0  0  0  0  0  0  0  0  0  0
  152.7683  142.5339  160.7948 H   0  0  0  0  0  0  0  0  0  0  0  0
  151.7833  145.0971  160.8368 H   0  0  0  0  0  0  0  0  0  0  0  0
  153.3966  144.7545  160.2092 H   0  0  0  0  0  0  0  0  0  0  0  0
  151.0564  145.6107  158.6463 H   0  0  0  0  0  0  0  0  0  0  0  0
  152.7272  145.4049  158.1134 H   0  0  0  0  0  0  0  0  0  0  0  0
  149.4414  135.0112  156.8812 H   0  0  0  0  0  0  0  0  0  0  0  0
  149.3538  135.6917  155.2655 H   0  0  0  0  0  0  0  0  0  0  0  0
  147.7782  132.1749  155.6192 H   0  0  0  0  0  0  0  0  0  0  0  0
  147.5035  133.7645  156.3239 H   0  0  0  0  0  0  0  0  0  0  0  0
  146.3762  133.2309  153.9566 H   0  0  0  0  0  0  0  0  0  0  0  0
  147.2825  134.7497  154.0662 H   0  0  0  0  0  0  0  0  0  0  0  0
  150.0309  134.3277  153.3498 H   0  0  0  0  0  0  0  0  0  0  0  0
  150.2660  132.5880  153.4717 H   0  0  0  0  0  0  0  0  0  0  0  0
  1  2  1  0  0  0  0
  1 30  1  0  0  0  0
  1 31  1  0  0  0  0
  1 32  1  0  0  0  0
  2  3  1  0  0  0  0
  2 33  1  0  0  0  0
  2 34  1  0  0  0  0
  3 29  1  0  0  0  0
  3  4  1  0  0  0  0
  3 35  1  0  0  0  0
  4  5  1  0  0  0  0
  4 36  1  0  0  0  0
  4 37  1  0  0  0  0
  5  6  1  0  0  0  0
  5 23  1  0  0  0  0
  6 11  1  0  0  0  0
  6  7  2  0  0  0  0
  7  8  1  0  0  0  0
  8  9  2  0  0  0  0
  8 38  1  0  0  0  0
  9 10  1  0  0  0  0
 10 14  1  0  0  0  0
 10 11  2  0  0  0  0
 11 12  1  0  0  0  0
 12 13  2  0  0  0  0
 13 14  1  0  0  0  0
 13 39  1  0  0  0  0
 14 15  1  0  0  0  0
 15 16  1  0  0  0  0
 15 40  1  0  0  0  0
 15 41  1  0  0  0  0
 16 17  1  0  0  0  0
 16 18  1  0  0  0  0
 16 42  1  0  0  0  0
 17 43  1  0  0  0  0
 18 22  1  0  0  0  0
 18 19  1  0  0  0  0
 18 44  1  0  0  0  0
 19 20  1  0  0  0  0
 19 45  1  0  0  0  0
 19 46  1  0  0  0  0
 20 21  1  0  0  0  0
 20 47  1  0  0  0  0
 20 48  1  0  0  0  0
 21 22  1  0  0  0  0
 21 49  1  0  0  0  0
 21 50  1  0  0  0  0
 23 24  1  0  0  0  0
 23 51  1  0  0  0  0
 23 52  1  0  0  0  0
 24 28  1  0  0  0  0
 24 25  1  0  0  0  0
 24 29  1  0  0  0  0
 25 26  1  0  0  0  0
 25 53  1  0  0  0  0
 25 54  1  0  0  0  0
 26 27  1  0  0  0  0
 26 55  1  0  0  0  0
 26 56  1  0  0  0  0
 27 28  1  0  0  0  0
 28 57  1  0  0  0  0
 28 58  1  0  0  0  0
M  END
> <s_m_source_file>
AV-unprocessed.smi

> <i_m_source_file_index>
229

> <i_lp_mmshare_version>
43012

> <i_f3d_flags>
0

> <s_epik_input>
W0NIMl0xT1tDSDJdW0NIMl1bQ0BdMTJbQ0gyXU4oW0NIMl1bQ0BIXShPMilbQ0gyXVtDSDNdKWMobltjSF1uMyljKGMzNCluW2NIXW40W0NIMl1bQ0BIXShbT0hdKVtDQEBIXTVbQ0gyXVtDSDJdW0NIMl1PNQ==

> <s_epik_cmdline>
J2VwaWtfcHl0aG9uJywgJy1waCcsICc3LjAnLCAnLXRuJywgJzgnLCAnLW1hJywgJzIwMCcsICctbWV0YWxfYmluZGluZycsICctaW1hZScsICc8aW5maWxlLm1hZT4nLCAnLW9tYWUnLCAnPG91dGZpbGUubWFlPic=

> <r_lp_tautomer_probability>
1

> <r_epik_Ionization_Penalty>
0.00318402

> <r_epik_Ionization_Penalty_Charging>
0

> <r_epik_Ionization_Penalty_Neutral>
0.00318402

> <r_epik_State_Penalty>
0.00215642

> <r_epik_Charging_Adjusted_Penalty>
0.00215642

> <i_epik_Tot_Q>
0

> <i_epik_Tot_abs_Q>
0

> <r_epik_Metal_State_Penalty>
-0

> <b_epik_Metal_Only>
0

> <s_lp_Force_Field>
OPLS_2005

> <r_lp_Energy>
54.6587

> <b_lp_Chiralities_Consistent>
1

> <s_lp_Variant>
AV-unprocessed.smi:229-3

> <Gold.Version>
5.8.1

> <Gold.Id.Protein>
6NUR|6NUR_protein|mol2

> <Gold.PLP.Fitness>
45.9327

> <Gold.PLP.PLP>
-40.7895

> <Gold.PLP.part.hbond>
-3.0431

> <Gold.PLP.part.metal>
0.0000

> <Gold.PLP.part.buried>
-6.6321

> <Gold.PLP.part.nonpolar>
-31.0820

> <Gold.PLP.part.repulsive>
0.3890

> <Gold.PLP.ligand.clash>
0.0000

> <Gold.PLP.ligand.torsion>
0.3736

> <Gold.PLP.Chemscore.Hbond>
1.8406

> <Gold.PLP.Chemscore.CHOScore>
0.0000

> <Gold.PLP.Chemscore.Metal>
0.0000

> <Gold.Chemscore.Hbonds>
donor molecule, donor type, donor heavy atom, donor atom, acceptor molecule, acceptor atom, score
      P1  H  6896  6907       L1    12  0.31
      P1  H  7997  8010       L1     9  1.00
      P1  H 10752 10763       L1     7  0.32

> <Gold.PLP.Chemscore.Internal.Correction>
0.3686

> <Gold.Rescore>
     Score         DG    S(hbond)    S(metal)    S(lipo)     H(rot)  DE(clash)    DE(int)     intcor
     14.12     -14.78       1.12        0.00     101.37       2.46       0.22       0.43       ----

> <Gold.Chemscore.Fitness>
14.1191

> <Gold.Chemscore.DG>
-14.7763

> <Gold.Chemscore.ZeroCoef>
-5.4800

> <Gold.Chemscore.Hbond>
1.1171

> <Gold.Chemscore.Metal>
0.0000

> <Gold.Chemscore.Lipo>
101.3720

> <Gold.Chemscore.Internal_Hbond>
0.0000

> <Gold.Chemscore.DEClash>
0.2246

> <Gold.Chemscore.DEInternal>
0.4327

> <Gold.Chemscore.Rot>
2.4591

> <Gold.Chemscore.Internal.Correction>
   9.000000E+99

> <Gold.Chemscore.Hbonds>
donor molecule, donor type, donor heavy atom, donor atom, acceptor molecule, acceptor atom, score
      P1  H  6896  6907       L1    12  0.28
      P1  H  7997  8010       L1     9  0.45
      P1  H 10752 10763       L1     7  0.01

> <Gold.Chemscore.Hbond.Weighted>
-3.7311

> <Gold.Chemscore.Metal.Weighted>
-0.0000

> <Gold.Chemscore.Lipo.Weighted>
-11.8605

> <Gold.Chemscore.Internal_Hbond.Weighted>
0.0000

> <Gold.Chemscore.DEClash.Weighted>
0.2246

> <Gold.Chemscore.DEInternal.Weighted>
0.4327

> <Gold.Chemscore.Rot.Weighted>
6.2953

> <Gold.Chemscore.Internal.Correction.Weighted>
   9.000000E+99

> <Gold.Protein.RotatedTorsions>
[ 6907 6896 6895 6894 ] final  -54.02 input  -60.11 | X-H torsion
[ 7974 7965 7964 7962 ] final   57.39 input  175.53 | X-H torsion
[ 8008 7997 7996 7995 ] final   76.69 input   59.86 | X-H torsion
[ 10167 10162 10161 10158 ] final   -5.38 input  -65.29 | X-H torsion
[ 10718 10713 10712 10709 ] final  -76.89 input   66.30 | X-H torsion
[ 10763 10752 10751 10750 ] final   63.38 input  -60.55 | X-H torsion
[ 11005 11000 10999 10996 ] final  -37.25 input  -57.11 | X-H torsion

> <Gold.Protein.ActiveResidues>
 VAL166  LYS551  ARG553  GLY616  TRP617  ASP618  TYR619  PRO620  LYS621  CYS622 
 ASP623  PHE694  ASN695  SER759  ASP760  ASP761  ALA762  ILE779  LEU786  VAL792 
 PHE793  MET794  SER795  GLU796  ALA797  LYS798  CYS799  TRP800  GLU811  SER814 

> <Gold.Protein.RotatedAtoms>
  150.8375  134.7654  159.6904 H   0  0  0  0  0  0  0  0  0  0  0  0  # atno 6907 bound_to 6896
  152.4469  134.5472  159.9866 H   0  0  0  0  0  0  0  0  0  0  0  0  # atno 6908 bound_to 6896
  151.5619  133.3364  159.3008 H   0  0  0  0  0  0  0  0  0  0  0  0  # atno 6909 bound_to 6896
  145.9296  139.3796  143.0429 H   0  0  0  0  0  0  0  0  0  0  0  0  # atno 7974 bound_to 7965
  155.8310  140.3466  155.5572 H   0  0  0  0  0  0  0  0  0  0  0  0  # atno 8008 bound_to 7997
  155.8242  140.0917  157.1851 H   0  0  0  0  0  0  0  0  0  0  0  0  # atno 8009 bound_to 7997
  154.4004  140.1424  156.3523 H   0  0  0  0  0  0  0  0  0  0  0  0  # atno 8010 bound_to 7997
  140.6961  143.6314  150.8519 H   0  0  0  0  0  0  0  0  0  0  0  0  # atno 10167 bound_to 10162
  156.0161  130.4477  150.3262 H   0  0  0  0  0  0  0  0  0  0  0  0  # atno 10718 bound_to 10713
  153.0016  135.5431  154.6342 H   0  0  0  0  0  0  0  0  0  0  0  0  # atno 10763 bound_to 10752
  154.5612  135.2834  155.0919 H   0  0  0  0  0  0  0  0  0  0  0  0  # atno 10764 bound_to 10752
  154.2121  135.6465  153.5171 H   0  0  0  0  0  0  0  0  0  0  0  0  # atno 10765 bound_to 10752
  140.9937  133.6991  156.1896 H   0  0  0  0  0  0  0  0  0  0  0  0  # atno 11005 bound_to 11000
  145.8443  140.9563  143.0783 LP  0  0  0  0  0  0  0  0  0  0  0  0  # atno 17320 bound_to 7965
  144.6763  140.0325  143.7482 LP  0  0  0  0  0  0  0  0  0  0  0  0  # atno 17321 bound_to 7965
  140.0032  143.5721  152.2867 LP  0  0  0  0  0  0  0  0  0  0  0  0  # atno 17342 bound_to 10162
  139.6418  144.7655  151.2323 LP  0  0  0  0  0  0  0  0  0  0  0  0  # atno 17343 bound_to 10162
  157.1361  131.0284  151.2948 LP  0  0  0  0  0  0  0  0  0  0  0  0  # atno 17370 bound_to 10713
  157.4511  130.7598  149.7152 LP  0  0  0  0  0  0  0  0  0  0  0  0  # atno 17371 bound_to 10713
  140.6999  134.4575  157.5586 LP  0  0  0  0  0  0  0  0  0  0  0  0  # atno 17394 bound_to 11000
  139.9004  134.8568  156.1919 LP  0  0  0  0  0  0  0  0  0  0  0  0  # atno 17395 bound_to 11000

$$$$
