AV-unprocessed.smi:259|AV-procd|sdf|1973|dock5
  -GOLD-   2262021143D 1   1.00000     0.00000
 Structure written by MMmdl.
 54 57  0  0  0  0  0  0  0  0  1 V2000
  146.6540  138.4187  151.3303 C   0  0  0  0  0  0  0  0  0  0  0  0
  147.2629  139.5790  151.9621 N   0  0  0  0  0  0  0  0  0  0  0  0
  147.1478  139.8756  153.2647 C   0  0  0  0  0  0  0  0  0  0  0  0
  146.5052  139.1829  154.0537 O   0  0  0  0  0  0  0  0  0  0  0  0
  147.8549  141.1562  153.7380 C   0  0  0  0  0  0  0  0  0  0  0  0
  149.1472  140.9552  154.5769 C   0  0  1  0  0  0  0  0  0  0  0  0
  150.1758  140.5235  153.7029 O   0  0  0  0  0  0  0  0  0  0  0  0
  149.5836  142.2490  155.3138 C   0  0  0  0  0  0  0  0  0  0  0  0
  150.7256  141.9985  156.3125 C   0  0  0  0  0  0  0  0  0  0  0  0
  150.3684  140.8633  157.2799 C   0  0  0  0  0  0  0  0  0  0  0  0
  150.0180  139.6638  156.5318 N   0  0  0  0  0  0  0  0  0  0  0  0
  149.9712  138.5523  157.2947 C   0  0  0  0  0  0  0  0  0  0  0  0
  151.1553  138.0305  157.6979 N   0  0  0  0  0  0  0  0  0  0  0  0
  151.1759  136.9287  158.4539 C   0  0  0  0  0  0  0  0  0  0  0  0
  150.1479  136.2110  158.9122 N   0  0  0  0  0  0  0  0  0  0  0  0
  148.9553  136.7421  158.5162 C   0  0  0  0  0  0  0  0  0  0  0  0
  148.7757  137.9034  157.7137 C   0  0  0  0  0  0  0  0  0  0  0  0
  147.4200  138.1429  157.5245 N   0  0  0  0  0  0  0  0  0  0  0  0
  146.8319  137.1744  158.1723 C   0  0  0  0  0  0  0  0  0  0  0  0
  147.6785  136.2918  158.8047 N   0  0  0  0  0  0  0  0  0  0  0  0
  147.2984  135.1298  159.5935 C   0  0  0  0  0  0  0  0  0  0  0  0
  147.0350  135.4434  161.0781 C   0  0  0  0  0  0  0  0  0  0  0  0
  146.9075  134.1137  161.8497 C   0  0  0  0  0  0  0  0  0  0  0  0
  146.7975  134.3061  163.2459 O   0  0  0  0  0  0  0  0  0  0  0  0
  147.9392  136.5090  161.7144 C   0  0  0  0  0  0  0  0  0  0  0  0
  146.8088  137.3029  162.1373 O   0  0  0  0  0  0  0  0  0  0  0  0
  145.9341  136.4834  161.3305 C   0  0  0  0  0  0  0  0  0  0  0  0
  148.9127  139.8054  155.5857 C   0  0  0  0  0  0  0  0  0  0  0  0
  146.9275  138.3839  150.2758 H   0  0  0  0  0  0  0  0  0  0  0  0
  145.5664  138.4656  151.3995 H   0  0  0  0  0  0  0  0  0  0  0  0
  146.9939  137.4956  151.8014 H   0  0  0  0  0  0  0  0  0  0  0  0
  147.8015  140.1972  151.3728 H   0  0  0  0  0  0  0  0  0  0  0  0
  148.0978  141.7553  152.8587 H   0  0  0  0  0  0  0  0  0  0  0  0
  147.1333  141.7462  154.3049 H   0  0  0  0  0  0  0  0  0  0  0  0
  149.7959  140.3572  152.8536 H   0  0  0  0  0  0  0  0  0  0  0  0
  149.8891  143.0186  154.6041 H   0  0  0  0  0  0  0  0  0  0  0  0
  148.7298  142.6566  155.8569 H   0  0  0  0  0  0  0  0  0  0  0  0
  151.6385  141.7443  155.7723 H   0  0  0  0  0  0  0  0  0  0  0  0
  150.9411  142.9101  156.8704 H   0  0  0  0  0  0  0  0  0  0  0  0
  151.2123  140.6606  157.9412 H   0  0  0  0  0  0  0  0  0  0  0  0
  149.5284  141.1564  157.9111 H   0  0  0  0  0  0  0  0  0  0  0  0
  152.1564  136.5709  158.7312 H   0  0  0  0  0  0  0  0  0  0  0  0
  145.7564  137.0793  158.2067 H   0  0  0  0  0  0  0  0  0  0  0  0
  146.4107  134.6958  159.1315 H   0  0  0  0  0  0  0  0  0  0  0  0
  148.0787  134.3741  159.4953 H   0  0  0  0  0  0  0  0  0  0  0  0
  146.0333  133.5538  161.5158 H   0  0  0  0  0  0  0  0  0  0  0  0
  147.7754  133.4758  161.6829 H   0  0  0  0  0  0  0  0  0  0  0  0
  146.2946  135.0907  163.4028 H   0  0  0  0  0  0  0  0  0  0  0  0
  148.5361  136.1477  162.5527 H   0  0  0  0  0  0  0  0  0  0  0  0
  148.5616  137.0501  161.0010 H   0  0  0  0  0  0  0  0  0  0  0  0
  145.6061  137.0082  160.4318 H   0  0  0  0  0  0  0  0  0  0  0  0
  145.0764  136.1071  161.8890 H   0  0  0  0  0  0  0  0  0  0  0  0
  148.0007  140.0098  156.1470 H   0  0  0  0  0  0  0  0  0  0  0  0
  148.7518  138.8628  155.0592 H   0  0  0  0  0  0  0  0  0  0  0  0
  1  2  1  0  0  0  0
  1 29  1  0  0  0  0
  1 30  1  0  0  0  0
  1 31  1  0  0  0  0
  2  3  1  0  0  0  0
  2 32  1  0  0  0  0
  3  4  2  0  0  0  0
  3  5  1  0  0  0  0
  5  6  1  0  0  0  0
  5 33  1  0  0  0  0
  5 34  1  0  0  0  0
  6 28  1  0  0  0  0
  6  7  1  0  0  0  0
  6  8  1  0  0  0  0
  7 35  1  0  0  0  0
  8  9  1  0  0  0  0
  8 36  1  0  0  0  0
  8 37  1  0  0  0  0
  9 10  1  0  0  0  0
  9 38  1  0  0  0  0
  9 39  1  0  0  0  0
 10 11  1  0  0  0  0
 10 40  1  0  0  0  0
 10 41  1  0  0  0  0
 11 12  1  0  0  0  0
 11 28  1  0  0  0  0
 12 17  1  0  0  0  0
 12 13  2  0  0  0  0
 13 14  1  0  0  0  0
 14 15  2  0  0  0  0
 14 42  1  0  0  0  0
 15 16  1  0  0  0  0
 16 20  1  0  0  0  0
 16 17  2  0  0  0  0
 17 18  1  0  0  0  0
 18 19  2  0  0  0  0
 19 20  1  0  0  0  0
 19 43  1  0  0  0  0
 20 21  1  0  0  0  0
 21 22  1  0  0  0  0
 21 44  1  0  0  0  0
 21 45  1  0  0  0  0
 22 27  1  0  0  0  0
 22 23  1  0  0  0  0
 22 25  1  0  0  0  0
 23 24  1  0  0  0  0
 23 46  1  0  0  0  0
 23 47  1  0  0  0  0
 24 48  1  0  0  0  0
 25 26  1  0  0  0  0
 25 49  1  0  0  0  0
 25 50  1  0  0  0  0
 26 27  1  0  0  0  0
 27 51  1  0  0  0  0
 27 52  1  0  0  0  0
 28 53  1  0  0  0  0
 28 54  1  0  0  0  0
M  END
> <s_m_source_file>
AV-unprocessed.smi

> <i_m_source_file_index>
259

> <i_lp_mmshare_version>
43012

> <i_f3d_flags>
0

> <s_epik_input>
W0NIM11bTkhdQyg9TylbQ0gyXVtDQEBdMShbT0hdKVtDSDJdW0NIMl1bQ0gyXU4oW0NIMl0xKWMobltjSF1uMiljKGMyMyluW2NIXW4zW0NIMl1DNChbQ0gyXVtPSF0pW0NIMl1PW0NIMl00

> <s_epik_cmdline>
J2VwaWtfcHl0aG9uJywgJy1waCcsICc3LjAnLCAnLXRuJywgJzgnLCAnLW1hJywgJzIwMCcsICctbWV0YWxfYmluZGluZycsICctaW1hZScsICc8aW5maWxlLm1hZT4nLCAnLW9tYWUnLCAnPG91dGZpbGUubWFlPic=

> <r_lp_tautomer_probability>
1

> <r_epik_Ionization_Penalty>
0.00366363

> <r_epik_Ionization_Penalty_Charging>
0

> <r_epik_Ionization_Penalty_Neutral>
0.00366363

> <r_epik_State_Penalty>
0.00243014

> <r_epik_Charging_Adjusted_Penalty>
0.00243014

> <i_epik_Tot_Q>
0

> <i_epik_Tot_abs_Q>
0

> <r_epik_Metal_State_Penalty>
-0

> <b_epik_Metal_Only>
0

> <s_lp_Force_Field>
OPLS_2005

> <r_lp_Energy>
40.2539

> <b_lp_Chiralities_Consistent>
1

> <s_lp_Variant>
AV-unprocessed.smi:259-1

> <Gold.Version>
5.8.1

> <Gold.Id.Protein>
6NUR|6NUR_protein|mol2

> <Gold.PLP.Fitness>
47.4989

> <Gold.PLP.PLP>
-38.9007

> <Gold.PLP.part.hbond>
-7.1494

> <Gold.PLP.part.metal>
0.0000

> <Gold.PLP.part.buried>
3.0019

> <Gold.PLP.part.nonpolar>
-34.3723

> <Gold.PLP.part.repulsive>
0.1985

> <Gold.PLP.ligand.clash>
0.0000

> <Gold.PLP.ligand.torsion>
1.5061

> <Gold.PLP.Chemscore.Hbond>
3.6528

> <Gold.PLP.Chemscore.CHOScore>
0.0000

> <Gold.PLP.Chemscore.Metal>
0.0000

> <Gold.Chemscore.Hbonds>
donor molecule, donor type, donor heavy atom, donor atom, acceptor molecule, acceptor atom, score
      L1  H     2    32       P1  7957  0.48
      L1  H     7    35       P1  7957  1.00
      P1  H  6896  6907       L1    15  1.00
      P1  H  6934  6947       L1    26  0.57
      P1  H  7989  7998       L1     7  0.56

> <Gold.PLP.Chemscore.Internal.Correction>
0.6518

> <Gold.Rescore>
     Score         DG    S(hbond)    S(metal)    S(lipo)     H(rot)  DE(clash)    DE(int)     intcor
      9.18     -14.71       3.03        0.00      81.94       4.09       1.43       4.10       ----

> <Gold.Chemscore.Fitness>
9.1782

> <Gold.Chemscore.DG>
-14.7099

> <Gold.Chemscore.ZeroCoef>
-5.4800

> <Gold.Chemscore.Hbond>
3.0284

> <Gold.Chemscore.Metal>
0.0000

> <Gold.Chemscore.Lipo>
81.9399

> <Gold.Chemscore.Internal_Hbond>
0.0000

> <Gold.Chemscore.DEClash>
1.4343

> <Gold.Chemscore.DEInternal>
4.0974

> <Gold.Chemscore.Rot>
4.0906

> <Gold.Chemscore.Internal.Correction>
   9.000000E+99

> <Gold.Chemscore.Hbonds>
donor molecule, donor type, donor heavy atom, donor atom, acceptor molecule, acceptor atom, score
      L1  H     2    32       P1  7957  0.48
      L1  H     7    35       P1  7957  1.00
      P1  H  6896  6907       L1    15  0.45
      P1  H  6934  6947       L1    26  0.06
      P1  H  7989  7998       L1     7  0.30

> <Gold.Chemscore.Hbond.Weighted>
-10.1149

> <Gold.Chemscore.Metal.Weighted>
-0.0000

> <Gold.Chemscore.Lipo.Weighted>
-9.5870

> <Gold.Chemscore.Internal_Hbond.Weighted>
0.0000

> <Gold.Chemscore.DEClash.Weighted>
1.4343

> <Gold.Chemscore.DEInternal.Weighted>
4.0974

> <Gold.Chemscore.Rot.Weighted>
10.4719

> <Gold.Chemscore.Internal.Correction.Weighted>
   9.000000E+99

> <Gold.Protein.RotatedTorsions>
[ 6907 6896 6895 6894 ] final  -46.34 input  -60.11 | X-H torsion
[ 7974 7965 7964 7962 ] final   97.22 input  175.53 | X-H torsion
[ 8008 7997 7996 7995 ] final  -29.85 input   59.86 | X-H torsion
[ 10167 10162 10161 10158 ] final   18.34 input  -65.29 | X-H torsion
[ 10718 10713 10712 10709 ] final  -55.01 input   66.30 | X-H torsion
[ 10763 10752 10751 10750 ] final  -63.30 input  -60.55 | X-H torsion
[ 11005 11000 10999 10996 ] final  128.12 input  -57.11 | X-H torsion

> <Gold.Protein.ActiveResidues>
 VAL166  LYS551  ARG553  GLY616  TRP617  ASP618  TYR619  PRO620  LYS621  CYS622 
 ASP623  PHE694  ASN695  SER759  ASP760  ASP761  ALA762  ILE779  LEU786  VAL792 
 PHE793  MET794  SER795  GLU796  ALA797  LYS798  CYS799  TRP800  GLU811  SER814 

> <Gold.Protein.RotatedAtoms>
  150.9123  134.8540  159.7433 H   0  0  0  0  0  0  0  0  0  0  0  0  # atno 6907 bound_to 6896
  152.4950  134.4341  159.9532 H   0  0  0  0  0  0  0  0  0  0  0  0  # atno 6908 bound_to 6896
  151.4382  133.3611  159.2813 H   0  0  0  0  0  0  0  0  0  0  0  0  # atno 6909 bound_to 6896
  145.4284  139.2313  143.3157 H   0  0  0  0  0  0  0  0  0  0  0  0  # atno 7974 bound_to 7965
  154.4273  140.1807  156.1313 H   0  0  0  0  0  0  0  0  0  0  0  0  # atno 8008 bound_to 7997
  156.0065  140.3355  155.6873 H   0  0  0  0  0  0  0  0  0  0  0  0  # atno 8009 bound_to 7997
  155.6170  140.0656  157.2680 H   0  0  0  0  0  0  0  0  0  0  0  0  # atno 8010 bound_to 7997
  140.5660  143.9250  150.6677 H   0  0  0  0  0  0  0  0  0  0  0  0  # atno 10167 bound_to 10162
  156.1404  130.4155  150.0114 H   0  0  0  0  0  0  0  0  0  0  0  0  # atno 10718 bound_to 10713
  154.3129  135.6212  153.5473 H   0  0  0  0  0  0  0  0  0  0  0  0  # atno 10763 bound_to 10752
  152.9827  135.5705  154.5156 H   0  0  0  0  0  0  0  0  0  0  0  0  # atno 10764 bound_to 10752
  154.4810  135.2863  155.1547 H   0  0  0  0  0  0  0  0  0  0  0  0  # atno 10765 bound_to 10752
  139.9543  134.9616  156.8955 H   0  0  0  0  0  0  0  0  0  0  0  0  # atno 11005 bound_to 11000
  146.2620  140.5018  142.8849 LP  0  0  0  0  0  0  0  0  0  0  0  0  # atno 17320 bound_to 7965
  144.8199  140.6531  143.6360 LP  0  0  0  0  0  0  0  0  0  0  0  0  # atno 17321 bound_to 7965
  140.2713  143.3454  152.1235 LP  0  0  0  0  0  0  0  0  0  0  0  0  # atno 17342 bound_to 10162
  139.5093  144.6865  151.5873 LP  0  0  0  0  0  0  0  0  0  0  0  0  # atno 17343 bound_to 10162
  156.8001  130.9287  151.3646 LP  0  0  0  0  0  0  0  0  0  0  0  0  # atno 17370 bound_to 10713
  157.6570  130.8933  149.9750 LP  0  0  0  0  0  0  0  0  0  0  0  0  # atno 17371 bound_to 10713
  140.5645  134.0503  155.7409 LP  0  0  0  0  0  0  0  0  0  0  0  0  # atno 17394 bound_to 11000
  141.1212  133.9458  157.2725 LP  0  0  0  0  0  0  0  0  0  0  0  0  # atno 17395 bound_to 11000

$$$$
