AV-unprocessed.smi:2620|AV-procd|sdf|10223|dock5
  -GOLD-   2272014233D 1   1.00000     0.00000
 Structure written by MMmdl.
 36 37  0  0  0  0  0  0  0  0  1 V2000
  151.4403  145.5202  160.2004 C   0  0  0  0  0  0  0  0  0  0  0  0
  151.9435  144.2599  160.6074 O   0  0  0  0  0  0  0  0  0  0  0  0
  151.8817  143.2910  159.5748 C   0  0  0  0  0  0  0  0  0  0  0  0
  153.0060  142.2660  159.7871 C   0  0  0  0  0  0  0  0  0  0  0  0
  152.7309  141.0124  159.0727 N   0  0  0  0  0  0  0  0  0  0  0  0
  152.0352  141.1157  157.8523 C   0  0  0  0  0  0  0  0  0  0  0  0
  151.7150  140.0355  157.1158 C   0  0  0  0  0  0  0  0  0  0  0  0
  150.9741  140.1860  155.8402 C   0  0  0  0  0  0  0  0  0  0  0  0
  151.4643  139.8144  154.7729 O   0  0  0  0  0  0  0  0  0  0  0  0
  149.6056  140.7801  155.8763 C   0  0  0  0  0  0  0  0  0  0  0  0
  148.9608  140.8791  157.1304 C   0  0  0  0  0  0  0  0  0  0  0  0
  147.6744  141.4410  157.2348 C   0  0  0  0  0  0  0  0  0  0  0  0
  147.0141  141.9044  156.0828 C   0  0  0  0  0  0  0  0  0  0  0  0
  147.6383  141.7977  154.8264 C   0  0  0  0  0  0  0  0  0  0  0  0
  148.9259  141.2346  154.7134 C   0  0  0  0  0  0  0  0  0  0  0  0
  149.4703  141.1183  153.4643 O   0  0  0  0  0  0  0  0  0  0  0  0
  152.1253  138.7365  157.6120 C   0  0  0  0  0  0  0  0  0  0  0  0
  152.7832  138.6305  158.7833 C   0  0  0  0  0  0  0  0  0  0  0  0
  153.1907  137.3624  159.2910 C   0  0  0  0  0  0  0  0  0  0  0  0
  153.5462  136.3420  159.7057 N   0  0  0  0  0  0  0  0  0  0  0  0
  153.1157  139.8089  159.5961 C   0  0  0  0  0  0  0  0  0  0  0  0
  153.7016  139.7274  160.6771 O   0  0  0  0  0  0  0  0  0  0  0  0
  151.5160  146.2287  161.0250 H   0  0  0  0  0  0  0  0  0  0  0  0
  150.3910  145.4505  159.9120 H   0  0  0  0  0  0  0  0  0  0  0  0
  152.0088  145.9205  159.3601 H   0  0  0  0  0  0  0  0  0  0  0  0
  150.9095  142.7957  159.5868 H   0  0  0  0  0  0  0  0  0  0  0  0
  151.9932  143.7758  158.6034 H   0  0  0  0  0  0  0  0  0  0  0  0
  153.9529  142.6896  159.4494 H   0  0  0  0  0  0  0  0  0  0  0  0
  153.1449  142.0807  160.8537 H   0  0  0  0  0  0  0  0  0  0  0  0
  151.7705  142.1251  157.5694 H   0  0  0  0  0  0  0  0  0  0  0  0
  149.4549  140.5328  158.0271 H   0  0  0  0  0  0  0  0  0  0  0  0
  147.1950  141.5171  158.1996 H   0  0  0  0  0  0  0  0  0  0  0  0
  146.0268  142.3350  156.1614 H   0  0  0  0  0  0  0  0  0  0  0  0
  147.1200  142.1446  153.9443 H   0  0  0  0  0  0  0  0  0  0  0  0
  149.1954  140.3352  153.0122 H   0  0  0  0  0  0  0  0  0  0  0  0
  151.9103  137.8416  157.0460 H   0  0  0  0  0  0  0  0  0  0  0  0
  1  2  1  0  0  0  0
  1 23  1  0  0  0  0
  1 24  1  0  0  0  0
  1 25  1  0  0  0  0
  2  3  1  0  0  0  0
  3  4  1  0  0  0  0
  3 26  1  0  0  0  0
  3 27  1  0  0  0  0
  4  5  1  0  0  0  0
  4 28  1  0  0  0  0
  4 29  1  0  0  0  0
  5 21  1  0  0  0  0
  5  6  1  0  0  0  0
  6  7  2  0  0  0  0
  6 30  1  0  0  0  0
  7  8  1  0  0  0  0
  7 17  1  0  0  0  0
  8  9  2  0  0  0  0
  8 10  1  0  0  0  0
 10 15  1  0  0  0  0
 10 11  2  0  0  0  0
 11 12  1  0  0  0  0
 11 31  1  0  0  0  0
 12 13  2  0  0  0  0
 12 32  1  0  0  0  0
 13 14  1  0  0  0  0
 13 33  1  0  0  0  0
 14 15  2  0  0  0  0
 14 34  1  0  0  0  0
 15 16  1  0  0  0  0
 16 35  1  0  0  0  0
 17 18  2  0  0  0  0
 17 36  1  0  0  0  0
 18 19  1  0  0  0  0
 18 21  1  0  0  0  0
 19 20  3  0  0  0  0
 21 22  2  0  0  0  0
M  END
> <s_m_source_file>
AV-unprocessed.smi

> <i_m_source_file_index>
2620

> <i_lp_mmshare_version>
43012

> <i_f3d_flags>
0

> <s_epik_input>
W0NIM11PW0NIMl1bQ0gyXW4xW2NIXWMoW2NIXWMoQyNOKWMxPU8pQyg9TyljMltjSF1bY0hdW2NIXVtjSF1jMltPSF0=

> <s_epik_cmdline>
J2VwaWtfcHl0aG9uJywgJy1waCcsICc3LjAnLCAnLXRuJywgJzgnLCAnLW1hJywgJzIwMCcsICctbWV0YWxfYmluZGluZycsICctaW1hZScsICc8aW5maWxlLm1hZT4nLCAnLW9tYWUnLCAnPG91dGZpbGUubWFlPic=

> <r_epik_Ionization_Penalty>
0.219503

> <r_epik_Ionization_Penalty_Charging>
5.62591e-11

> <r_epik_Ionization_Penalty_Neutral>
0.219503

> <r_epik_State_Penalty>
0.209817

> <r_epik_Charging_Adjusted_Penalty>
0.209817

> <i_epik_Tot_Q>
0

> <i_epik_Tot_abs_Q>
0

> <r_epik_Metal_State_Penalty>
0.209817

> <b_epik_Metal_Only>
0

> <s_lp_Force_Field>
OPLS_2005

> <r_lp_Energy>
23.6774

> <b_lp_Chiralities_Consistent>
1

> <s_lp_Variant>
AV-unprocessed.smi:2620-1

> <Gold.Version>
5.8.1

> <Gold.Id.Protein>
6NUR|6NUR_protein|mol2

> <Gold.PLP.Fitness>
50.7676

> <Gold.PLP.PLP>
-42.5742

> <Gold.PLP.part.hbond>
-4.8175

> <Gold.PLP.part.metal>
0.0000

> <Gold.PLP.part.buried>
-6.4867

> <Gold.PLP.part.nonpolar>
-31.1544

> <Gold.PLP.part.repulsive>
0.1538

> <Gold.PLP.ligand.clash>
0.0000

> <Gold.PLP.ligand.torsion>
1.8730

> <Gold.PLP.Chemscore.Hbond>
3.4000

> <Gold.PLP.Chemscore.CHOScore>
0.0000

> <Gold.PLP.Chemscore.Metal>
0.0000

> <Gold.Chemscore.Hbonds>
donor molecule, donor type, donor heavy atom, donor atom, acceptor molecule, acceptor atom, score
      L1  H    16    35       P1  7957  0.43
      P1  H  6896  6908       L1    20  1.00
      P1  H  7989  7998       L1     9  1.00
      P1  H  8011  8017       L1    16  1.00

> <Gold.PLP.Chemscore.Internal.Correction>
1.7393

> <Gold.Rescore>
     Score         DG    S(hbond)    S(metal)    S(lipo)     H(rot)  DE(clash)    DE(int)     intcor
     19.16     -21.18       3.27        0.00      84.12       1.98       0.05       1.97       ----

> <Gold.Chemscore.Fitness>
19.1588

> <Gold.Chemscore.DG>
-21.1751

> <Gold.Chemscore.ZeroCoef>
-5.4800

> <Gold.Chemscore.Hbond>
3.2727

> <Gold.Chemscore.Metal>
0.0000

> <Gold.Chemscore.Lipo>
84.1228

> <Gold.Chemscore.Internal_Hbond>
0.0000

> <Gold.Chemscore.DEClash>
0.0460

> <Gold.Chemscore.DEInternal>
1.9702

> <Gold.Chemscore.Rot>
1.9836

> <Gold.Chemscore.Internal.Correction>
   9.000000E+99

> <Gold.Chemscore.Hbonds>
donor molecule, donor type, donor heavy atom, donor atom, acceptor molecule, acceptor atom, score
      L1  H    16    35       P1  7957  0.42
      P1  H  6896  6908       L1    20  0.93
      P1  H  7989  7998       L1     9  0.98
      P1  H  8011  8017       L1    16  0.76

> <Gold.Chemscore.Hbond.Weighted>
-10.9308

> <Gold.Chemscore.Metal.Weighted>
-0.0000

> <Gold.Chemscore.Lipo.Weighted>
-9.8424

> <Gold.Chemscore.Internal_Hbond.Weighted>
0.0000

> <Gold.Chemscore.DEClash.Weighted>
0.0460

> <Gold.Chemscore.DEInternal.Weighted>
1.9702

> <Gold.Chemscore.Rot.Weighted>
5.0780

> <Gold.Chemscore.Internal.Correction.Weighted>
   9.000000E+99

> <Gold.Protein.RotatedTorsions>
[ 6907 6896 6895 6894 ] final  -60.02 input  -60.11 | X-H torsion
[ 7974 7965 7964 7962 ] final -137.44 input  175.53 | X-H torsion
[ 8008 7997 7996 7995 ] final  -51.26 input   59.86 | X-H torsion
[ 10167 10162 10161 10158 ] final   80.40 input  -65.29 | X-H torsion
[ 10718 10713 10712 10709 ] final -161.89 input   66.30 | X-H torsion
[ 10763 10752 10751 10750 ] final   42.27 input  -60.55 | X-H torsion
[ 11005 11000 10999 10996 ] final   44.84 input  -57.11 | X-H torsion

> <Gold.Protein.ActiveResidues>
 VAL166  LYS551  ARG553  GLY616  TRP617  ASP618  TYR619  PRO620  LYS621  CYS622 
 ASP623  PHE694  ASN695  SER759  ASP760  ASP761  ALA762  ILE779  LEU786  VAL792 
 PHE793  MET794  SER795  GLU796  ALA797  LYS798  CYS799  TRP800  GLU811  SER814 

> <Gold.Protein.RotatedAtoms>
  150.7887  134.6893  159.6487 H   0  0  0  0  0  0  0  0  0  0  0  0  # atno 6907 bound_to 6896
  152.3988  134.6317  160.0087 H   0  0  0  0  0  0  0  0  0  0  0  0  # atno 6908 bound_to 6896
  151.6594  133.3281  159.3207 H   0  0  0  0  0  0  0  0  0  0  0  0  # atno 6909 bound_to 6896
  144.8842  140.6551  143.5186 H   0  0  0  0  0  0  0  0  0  0  0  0  # atno 7974 bound_to 7965
  154.4079  140.1252  156.4799 H   0  0  0  0  0  0  0  0  0  0  0  0  # atno 8008 bound_to 7997
  155.7095  140.3494  155.4948 H   0  0  0  0  0  0  0  0  0  0  0  0  # atno 8009 bound_to 7997
  155.9313  140.1070  157.1120 H   0  0  0  0  0  0  0  0  0  0  0  0  # atno 8010 bound_to 7997
  139.9501  144.6031  150.8169 H   0  0  0  0  0  0  0  0  0  0  0  0  # atno 10167 bound_to 10162
  156.6026  130.8817  151.2917 H   0  0  0  0  0  0  0  0  0  0  0  0  # atno 10718 bound_to 10713
  152.9887  135.6137  154.2921 H   0  0  0  0  0  0  0  0  0  0  0  0  # atno 10763 bound_to 10752
  154.2646  135.2781  155.2765 H   0  0  0  0  0  0  0  0  0  0  0  0  # atno 10764 bound_to 10752
  154.5176  135.5824  153.6711 H   0  0  0  0  0  0  0  0  0  0  0  0  # atno 10765 bound_to 10752
  140.1514  134.4457  155.8379 H   0  0  0  0  0  0  0  0  0  0  0  0  # atno 11005 bound_to 11000
  145.3899  139.1619  143.4234 LP  0  0  0  0  0  0  0  0  0  0  0  0  # atno 17320 bound_to 7965
  146.3014  140.3987  142.8703 LP  0  0  0  0  0  0  0  0  0  0  0  0  # atno 17321 bound_to 7965
  140.7585  143.3109  151.2847 LP  0  0  0  0  0  0  0  0  0  0  0  0  # atno 17342 bound_to 10162
  139.6635  144.0147  152.2708 LP  0  0  0  0  0  0  0  0  0  0  0  0  # atno 17343 bound_to 10162
  157.7275  130.9644  150.1704 LP  0  0  0  0  0  0  0  0  0  0  0  0  # atno 17370 bound_to 10713
  156.2456  130.3695  149.8288 LP  0  0  0  0  0  0  0  0  0  0  0  0  # atno 17371 bound_to 10713
  141.2199  133.6874  156.7429 LP  0  0  0  0  0  0  0  0  0  0  0  0  # atno 17394 bound_to 11000
  140.2600  134.8474  157.3749 LP  0  0  0  0  0  0  0  0  0  0  0  0  # atno 17395 bound_to 11000

$$$$
