AV-unprocessed.smi:2442|AV-procd|sdf|9627|dock6
  -GOLD-   2272013263D 1   1.00000     0.00000
 Structure written by MMmdl.
 47 48  0  0  0  0  0  0  0  0  2 V2000
  144.9163  134.2701  150.6814 C   0  0  0  0  0  0  0  0  0  0  0  0
  145.4884  134.1443  151.9736 O   0  0  0  0  0  0  0  0  0  0  0  0
  146.4014  133.0608  152.1086 C   0  0  2  0  0  0  0  0  0  0  0  0
  145.6531  131.7225  151.9294 C   0  0  0  0  0  0  0  0  0  0  0  0
  146.5643  130.5188  152.2112 C   0  0  0  0  0  0  0  0  0  0  0  0
  147.1778  130.6102  153.6148 C   0  0  0  0  0  0  0  0  0  0  0  0
  147.9426  131.9296  153.7948 C   0  0  0  0  0  0  0  0  0  0  0  0
  147.0474  133.1517  153.5107 C   0  0  1  0  0  0  0  0  0  0  0  0
  147.8595  134.3623  153.6116 N   0  0  0  0  0  0  0  0  0  0  0  0
  148.4052  134.8425  154.7375 C   0  0  0  0  0  0  0  0  0  0  0  0
  148.3079  134.3058  155.8414 O   0  0  0  0  0  0  0  0  0  0  0  0
  149.0672  135.9872  154.5187 N   0  0  0  0  0  0  0  0  0  0  0  0
  149.7667  136.7492  155.5463 C   0  0  0  0  0  0  0  0  0  0  0  0
  150.7649  137.7474  154.9339 C   0  0  0  0  0  0  0  0  0  0  0  0
  150.3209  139.1898  155.1203 C   0  0  0  0  0  0  0  0  0  0  0  0
  149.2111  139.6694  154.3887 C   0  0  0  0  0  0  0  0  0  0  0  0
  148.7964  141.0059  154.5523 C   0  0  0  0  0  0  0  0  0  0  0  0
  149.4612  141.8150  155.4036 N   0  3  0  0  0  0  0  0  0  0  0  0
  150.5269  141.4021  156.1225 C   0  0  0  0  0  0  0  0  0  0  0  0
  150.9935  140.0745  156.0040 C   0  0  0  0  0  0  0  0  0  0  0  0
  152.1934  139.6322  156.8234 C   0  0  0  0  0  0  0  0  0  0  0  0
  144.2494  135.1318  150.6635 H   0  0  0  0  0  0  0  0  0  0  0  0
  144.3308  133.3929  150.4070 H   0  0  0  0  0  0  0  0  0  0  0  0
  145.6856  134.4288  149.9247 H   0  0  0  0  0  0  0  0  0  0  0  0
  147.1911  133.1385  151.3583 H   0  0  0  0  0  0  0  0  0  0  0  0
  144.7956  131.6920  152.6031 H   0  0  0  0  0  0  0  0  0  0  0  0
  145.2539  131.6377  150.9191 H   0  0  0  0  0  0  0  0  0  0  0  0
  145.9973  129.5928  152.1130 H   0  0  0  0  0  0  0  0  0  0  0  0
  147.3588  130.4770  151.4650 H   0  0  0  0  0  0  0  0  0  0  0  0
  146.3897  130.5376  154.3654 H   0  0  0  0  0  0  0  0  0  0  0  0
  147.8471  129.7664  153.7848 H   0  0  0  0  0  0  0  0  0  0  0  0
  148.3399  131.9860  154.8092 H   0  0  0  0  0  0  0  0  0  0  0  0
  148.8043  131.9379  153.1255 H   0  0  0  0  0  0  0  0  0  0  0  0
  146.2556  133.1659  154.2625 H   0  0  0  0  0  0  0  0  0  0  0  0
  148.0008  134.8822  152.7582 H   0  0  0  0  0  0  0  0  0  0  0  0
  149.0928  136.3526  153.5779 H   0  0  0  0  0  0  0  0  0  0  0  0
  149.0403  137.2645  156.1761 H   0  0  0  0  0  0  0  0  0  0  0  0
  150.2925  136.0469  156.1940 H   0  0  0  0  0  0  0  0  0  0  0  0
  151.7439  137.6159  155.3970 H   0  0  0  0  0  0  0  0  0  0  0  0
  150.9147  137.5443  153.8734 H   0  0  0  0  0  0  0  0  0  0  0  0
  148.6813  139.0203  153.7066 H   0  0  0  0  0  0  0  0  0  0  0  0
  147.9598  141.4484  154.0318 H   0  0  0  0  0  0  0  0  0  0  0  0
  150.9723  142.1450  156.7682 H   0  0  0  0  0  0  0  0  0  0  0  0
  152.6484  140.4764  157.3423 H   0  0  0  0  0  0  0  0  0  0  0  0
  152.9567  139.1835  156.1877 H   0  0  0  0  0  0  0  0  0  0  0  0
  151.8929  138.8999  157.5731 H   0  0  0  0  0  0  0  0  0  0  0  0
  149.1452  142.7796  155.5085 H   0  0  0  0  0  0  0  0  0  0  0  0
  1  2  1  0  0  0  0
  1 22  1  0  0  0  0
  1 23  1  0  0  0  0
  1 24  1  0  0  0  0
  2  3  1  0  0  0  0
  3  8  1  0  0  0  0
  3  4  1  0  0  0  0
  3 25  1  0  0  0  0
  4  5  1  0  0  0  0
  4 26  1  0  0  0  0
  4 27  1  0  0  0  0
  5  6  1  0  0  0  0
  5 28  1  0  0  0  0
  5 29  1  0  0  0  0
  6  7  1  0  0  0  0
  6 30  1  0  0  0  0
  6 31  1  0  0  0  0
  7  8  1  0  0  0  0
  7 32  1  0  0  0  0
  7 33  1  0  0  0  0
  8  9  1  0  0  0  0
  8 34  1  0  0  0  0
  9 10  1  0  0  0  0
  9 35  1  0  0  0  0
 10 11  2  0  0  0  0
 10 12  1  0  0  0  0
 12 13  1  0  0  0  0
 12 36  1  0  0  0  0
 13 14  1  0  0  0  0
 13 37  1  0  0  0  0
 13 38  1  0  0  0  0
 14 15  1  0  0  0  0
 14 39  1  0  0  0  0
 14 40  1  0  0  0  0
 15 20  1  0  0  0  0
 15 16  2  0  0  0  0
 16 17  1  0  0  0  0
 16 41  1  0  0  0  0
 17 18  2  0  0  0  0
 17 42  1  0  0  0  0
 18 19  1  0  0  0  0
 18 47  1  0  0  0  0
 19 20  2  0  0  0  0
 19 43  1  0  0  0  0
 20 21  1  0  0  0  0
 21 44  1  0  0  0  0
 21 45  1  0  0  0  0
 21 46  1  0  0  0  0
M  CHG  1  18   1
M  END
> <s_m_source_file>
AV-unprocessed.smi

> <i_m_source_file_index>
2442

> <i_lp_mmshare_version>
43012

> <i_f3d_flags>
0

> <s_epik_input>
W0NIM11PW0NAQEhdMVtDSDJdW0NIMl1bQ0gyXVtDSDJdW0NASF0xW05IXUMoPU8pW05IXVtDSDJdW0NIMl1jMltjSF1bY0hdbltjSF1jMltDSDNd

> <s_epik_cmdline>
J2VwaWtfcHl0aG9uJywgJy1waCcsICc3LjAnLCAnLXRuJywgJzgnLCAnLW1hJywgJzIwMCcsICctbWV0YWxfYmluZGluZycsICctaW1hZScsICc8aW5maWxlLm1hZT4nLCAnLW9tYWUnLCAnPG91dGZpbGUubWFlPic=

> <r_epik_Ionization_Penalty>
1.07145

> <r_epik_Ionization_Penalty_Charging>
1.0714

> <r_epik_Ionization_Penalty_Neutral>
4.9109e-05

> <r_epik_State_Penalty>
1.12601

> <r_epik_Charging_Adjusted_Penalty>
2.19741

> <i_epik_Tot_Q>
1

> <i_epik_Tot_abs_Q>
1

> <r_epik_Metal_State_Penalty>
1.2173

> <b_epik_Metal_Only>
0

> <s_lp_Force_Field>
OPLS_2005

> <r_lp_Energy>
14.7728

> <b_lp_Chiralities_Consistent>
1

> <s_lp_Variant>
AV-unprocessed.smi:2442-5

> <Gold.Version>
5.8.1

> <Gold.Id.Protein>
6NUR|6NUR_protein|mol2

> <Gold.PLP.Fitness>
44.8909

> <Gold.PLP.PLP>
-34.5492

> <Gold.PLP.part.hbond>
-3.0000

> <Gold.PLP.part.metal>
0.0000

> <Gold.PLP.part.buried>
-2.5112

> <Gold.PLP.part.nonpolar>
-29.5530

> <Gold.PLP.part.repulsive>
0.3142

> <Gold.PLP.ligand.clash>
0.0000

> <Gold.PLP.ligand.torsion>
0.6608

> <Gold.PLP.Chemscore.Hbond>
3.8800

> <Gold.PLP.Chemscore.CHOScore>
0.0000

> <Gold.PLP.Chemscore.Metal>
0.0000

> <Gold.Chemscore.Hbonds>
donor molecule, donor type, donor heavy atom, donor atom, acceptor molecule, acceptor atom, score
      L1  H     9    35       P1  7948  0.96
      L1  H    12    36       P1  7948  1.00
      L1  H    18    47       P1  8028  2.00

> <Gold.PLP.Chemscore.Internal.Correction>
0.0233

> <Gold.Rescore>
     Score         DG    S(hbond)    S(metal)    S(lipo)     H(rot)  DE(clash)    DE(int)     intcor
     20.06     -20.75       2.78        0.00      88.83       1.72       0.05       0.64       ----

> <Gold.Chemscore.Fitness>
20.0649

> <Gold.Chemscore.DG>
-20.7506

> <Gold.Chemscore.ZeroCoef>
-5.4800

> <Gold.Chemscore.Hbond>
2.7820

> <Gold.Chemscore.Metal>
0.0000

> <Gold.Chemscore.Lipo>
88.8316

> <Gold.Chemscore.Internal_Hbond>
0.0000

> <Gold.Chemscore.DEClash>
0.0453

> <Gold.Chemscore.DEInternal>
0.6404

> <Gold.Chemscore.Rot>
1.7244

> <Gold.Chemscore.Internal.Correction>
   9.000000E+99

> <Gold.Chemscore.Hbonds>
donor molecule, donor type, donor heavy atom, donor atom, acceptor molecule, acceptor atom, score
      L1  H     9    35       P1  7948  0.81
      L1  H    12    36       P1  7948  0.95
      L1  H    18    47       P1  8028  0.99

> <Gold.Chemscore.Hbond.Weighted>
-9.2918

> <Gold.Chemscore.Metal.Weighted>
-0.0000

> <Gold.Chemscore.Lipo.Weighted>
-10.3933

> <Gold.Chemscore.Internal_Hbond.Weighted>
0.0000

> <Gold.Chemscore.DEClash.Weighted>
0.0453

> <Gold.Chemscore.DEInternal.Weighted>
0.6404

> <Gold.Chemscore.Rot.Weighted>
4.4145

> <Gold.Chemscore.Internal.Correction.Weighted>
   9.000000E+99

> <Gold.Protein.RotatedTorsions>
[ 6907 6896 6895 6894 ] final  -18.45 input  -60.11 | X-H torsion
[ 7974 7965 7964 7962 ] final  111.07 input  175.53 | X-H torsion
[ 8008 7997 7996 7995 ] final  105.92 input   59.86 | X-H torsion
[ 10167 10162 10161 10158 ] final -131.70 input  -65.29 | X-H torsion
[ 10718 10713 10712 10709 ] final -120.18 input   66.30 | X-H torsion
[ 10763 10752 10751 10750 ] final  -51.96 input  -60.55 | X-H torsion
[ 11005 11000 10999 10996 ] final   43.65 input  -57.11 | X-H torsion

> <Gold.Protein.ActiveResidues>
 VAL166  LYS551  ARG553  GLY616  TRP617  ASP618  TYR619  PRO620  LYS621  CYS622 
 ASP623  PHE694  ASN695  SER759  ASP760  ASP761  ALA762  ILE779  LEU786  VAL792 
 PHE793  MET794  SER795  GLU796  ALA797  LYS798  CYS799  TRP800  GLU811  SER814 

> <Gold.Protein.RotatedAtoms>
  151.2780  135.0705  159.9158 H   0  0  0  0  0  0  0  0  0  0  0  0  # atno 6907 bound_to 6896
  152.5339  134.0061  159.7927 H   0  0  0  0  0  0  0  0  0  0  0  0  # atno 6908 bound_to 6896
  151.0310  133.5740  159.2691 H   0  0  0  0  0  0  0  0  0  0  0  0  # atno 6909 bound_to 6896
  145.2470  139.2755  143.4088 H   0  0  0  0  0  0  0  0  0  0  0  0  # atno 7974 bound_to 7965
  156.1700  140.3122  155.8957 H   0  0  0  0  0  0  0  0  0  0  0  0  # atno 8008 bound_to 7997
  155.3606  140.0476  157.3063 H   0  0  0  0  0  0  0  0  0  0  0  0  # atno 8009 bound_to 7997
  154.5231  140.2205  155.8950 H   0  0  0  0  0  0  0  0  0  0  0  0  # atno 8010 bound_to 7997
  139.9162  143.6436  152.2564 H   0  0  0  0  0  0  0  0  0  0  0  0  # atno 10167 bound_to 10162
  156.1238  130.6343  150.9508 H   0  0  0  0  0  0  0  0  0  0  0  0  # atno 10718 bound_to 10713
  154.1350  135.6514  153.4930 H   0  0  0  0  0  0  0  0  0  0  0  0  # atno 10763 bound_to 10752
  153.0183  135.5302  154.6962 H   0  0  0  0  0  0  0  0  0  0  0  0  # atno 10764 bound_to 10752
  154.6208  135.2964  155.0299 H   0  0  0  0  0  0  0  0  0  0  0  0  # atno 10765 bound_to 10752
  140.1625  134.4324  155.8309 H   0  0  0  0  0  0  0  0  0  0  0  0  # atno 11005 bound_to 11000
  146.3313  140.2849  142.8612 LP  0  0  0  0  0  0  0  0  0  0  0  0  # atno 17320 bound_to 7965
  144.9537  140.8205  143.5556 LP  0  0  0  0  0  0  0  0  0  0  0  0  # atno 17321 bound_to 7965
  139.6901  144.7648  151.1454 LP  0  0  0  0  0  0  0  0  0  0  0  0  # atno 17342 bound_to 10162
  140.7673  143.5602  150.9108 LP  0  0  0  0  0  0  0  0  0  0  0  0  # atno 17343 bound_to 10162
  157.6420  131.0909  150.8231 LP  0  0  0  0  0  0  0  0  0  0  0  0  # atno 17370 bound_to 10713
  156.8324  130.5020  149.5330 LP  0  0  0  0  0  0  0  0  0  0  0  0  # atno 17371 bound_to 10713
  141.2210  133.6919  156.7619 LP  0  0  0  0  0  0  0  0  0  0  0  0  # atno 17394 bound_to 11000
  140.2473  134.8567  157.3633 LP  0  0  0  0  0  0  0  0  0  0  0  0  # atno 17395 bound_to 11000

$$$$
