AV-unprocessed.smi:3318|AV-procd|sdf|12764|dock10
  -GOLD-   2272019103D 1   1.00000     0.00000
 Structure written by MMmdl.
 44 45  0  0  0  0  0  0  0  0  2 V2000
  151.9862  140.9596  158.9379 C   0  0  0  0  0  0  0  0  0  0  0  0
  152.0028  139.4635  159.2786 C   0  0  0  0  0  0  0  0  0  0  0  0
  152.3407  138.5683  158.0703 C   0  0  0  0  0  0  0  0  0  0  0  0
  151.3088  138.5957  157.0324 N   0  0  0  0  0  0  0  0  0  0  0  0
  151.4618  137.4124  156.1829 C   0  0  0  0  0  0  0  0  0  0  0  0
  150.3288  137.3514  155.1443 C   0  0  0  0  0  0  0  0  0  0  0  0
  150.3243  138.6050  154.2574 C   0  0  0  0  0  0  0  0  0  0  0  0
  149.1751  138.5646  153.3263 N   0  3  0  0  0  0  0  0  0  0  0  0
  147.8707  138.9287  153.9173 C   0  0  0  0  0  0  0  0  0  0  0  0
  146.8547  139.2873  152.8241 C   0  0  0  0  0  0  0  0  0  0  0  0
  146.2206  138.0577  152.2013 C   0  0  0  0  0  0  0  0  0  0  0  0
  145.3203  137.2585  152.9378 C   0  0  0  0  0  0  0  0  0  0  0  0
  144.7622  136.1266  152.3122 C   0  0  0  0  0  0  0  0  0  0  0  0
  145.1253  135.8387  150.9825 C   0  0  0  0  0  0  0  0  0  0  0  0
  146.0334  136.6991  150.3339 C   0  0  0  0  0  0  0  0  0  0  0  0
  146.5746  137.7867  150.9248 N   0  0  0  0  0  0  0  0  0  0  0  0
  150.2876  139.8472  155.1650 C   0  0  0  0  0  0  0  0  0  0  0  0
  151.4178  139.8045  156.2088 C   0  0  0  0  0  0  0  0  0  0  0  0
  151.6906  141.5511  159.8047 H   0  0  0  0  0  0  0  0  0  0  0  0
  151.2815  141.1730  158.1339 H   0  0  0  0  0  0  0  0  0  0  0  0
  152.9708  141.3059  158.6226 H   0  0  0  0  0  0  0  0  0  0  0  0
  152.6780  139.2800  160.1133 H   0  0  0  0  0  0  0  0  0  0  0  0
  151.0128  139.1857  159.6411 H   0  0  0  0  0  0  0  0  0  0  0  0
  153.3025  138.8554  157.6424 H   0  0  0  0  0  0  0  0  0  0  0  0
  152.4606  137.5474  158.4361 H   0  0  0  0  0  0  0  0  0  0  0  0
  152.4345  137.4248  155.6883 H   0  0  0  0  0  0  0  0  0  0  0  0
  151.4272  136.5120  156.7980 H   0  0  0  0  0  0  0  0  0  0  0  0
  150.4448  136.4587  154.5286 H   0  0  0  0  0  0  0  0  0  0  0  0
  149.3716  137.2505  155.6587 H   0  0  0  0  0  0  0  0  0  0  0  0
  151.2453  138.6119  153.6724 H   0  0  0  0  0  0  0  0  0  0  0  0
  149.3622  139.2212  152.5819 H   0  0  0  0  0  0  0  0  0  0  0  0
  147.4922  138.0979  154.5126 H   0  0  0  0  0  0  0  0  0  0  0  0
  148.0033  139.7765  154.5907 H   0  0  0  0  0  0  0  0  0  0  0  0
  146.0709  139.9238  153.2373 H   0  0  0  0  0  0  0  0  0  0  0  0
  147.3394  139.8690  152.0384 H   0  0  0  0  0  0  0  0  0  0  0  0
  145.0610  137.5037  153.9574 H   0  0  0  0  0  0  0  0  0  0  0  0
  144.0683  135.4911  152.8424 H   0  0  0  0  0  0  0  0  0  0  0  0
  144.7170  134.9792  150.4712 H   0  0  0  0  0  0  0  0  0  0  0  0
  146.3338  136.5079  149.3143 H   0  0  0  0  0  0  0  0  0  0  0  0
  150.3870  140.7574  154.5736 H   0  0  0  0  0  0  0  0  0  0  0  0
  149.3249  139.9121  155.6747 H   0  0  0  0  0  0  0  0  0  0  0  0
  151.3469  140.6966  156.8291 H   0  0  0  0  0  0  0  0  0  0  0  0
  152.3904  139.8369  155.7149 H   0  0  0  0  0  0  0  0  0  0  0  0
  149.1125  137.6387  152.9274 H   0  0  0  0  0  0  0  0  0  0  0  0
  1  2  1  0  0  0  0
  1 19  1  0  0  0  0
  1 20  1  0  0  0  0
  1 21  1  0  0  0  0
  2  3  1  0  0  0  0
  2 22  1  0  0  0  0
  2 23  1  0  0  0  0
  3  4  1  0  0  0  0
  3 24  1  0  0  0  0
  3 25  1  0  0  0  0
  4 18  1  0  0  0  0
  4  5  1  0  0  0  0
  5  6  1  0  0  0  0
  5 26  1  0  0  0  0
  5 27  1  0  0  0  0
  6  7  1  0  0  0  0
  6 28  1  0  0  0  0
  6 29  1  0  0  0  0
  7  8  1  0  0  0  0
  7 17  1  0  0  0  0
  7 30  1  0  0  0  0
  8  9  1  0  0  0  0
  8 31  1  0  0  0  0
  8 44  1  0  0  0  0
  9 10  1  0  0  0  0
  9 32  1  0  0  0  0
  9 33  1  0  0  0  0
 10 11  1  0  0  0  0
 10 34  1  0  0  0  0
 10 35  1  0  0  0  0
 11 16  1  0  0  0  0
 11 12  2  0  0  0  0
 12 13  1  0  0  0  0
 12 36  1  0  0  0  0
 13 14  2  0  0  0  0
 13 37  1  0  0  0  0
 14 15  1  0  0  0  0
 14 38  1  0  0  0  0
 15 16  2  0  0  0  0
 15 39  1  0  0  0  0
 17 18  1  0  0  0  0
 17 40  1  0  0  0  0
 17 41  1  0  0  0  0
 18 42  1  0  0  0  0
 18 43  1  0  0  0  0
M  CHG  1   8   1
M  END
> <s_m_source_file>
AV-unprocessed.smi

> <i_m_source_file_index>
3318

> <i_lp_mmshare_version>
43012

> <i_f3d_flags>
0

> <s_epik_input>
W0NIM11bQ0gyXVtDSDJdTjFbQ0gyXVtDSDJdW0NIXShbQ0gyXVtDSDJdMSlbTkhdW0NIMl1bQ0gyXWMyW2NIXVtjSF1bY0hdW2NIXW4y

> <s_epik_cmdline>
J2VwaWtfcHl0aG9uJywgJy1waCcsICc3LjAnLCAnLXRuJywgJzgnLCAnLW1hJywgJzIwMCcsICctbWV0YWxfYmluZGluZycsICctaW1hZScsICc8aW5maWxlLm1hZT4nLCAnLW9tYWUnLCAnPG91dGZpbGUubWFlPic=

> <r_epik_Ionization_Penalty>
1.50803

> <r_epik_Ionization_Penalty_Charging>
0.000531593

> <r_epik_Ionization_Penalty_Neutral>
1.5075

> <r_epik_State_Penalty>
1.60727

> <r_epik_Charging_Adjusted_Penalty>
1.6078

> <i_epik_Tot_Q>
1

> <i_epik_Tot_abs_Q>
1

> <r_epik_Metal_State_Penalty>
1.6087

> <b_epik_Metal_Only>
0

> <s_lp_Force_Field>
OPLS_2005

> <r_lp_Energy>
19.6285

> <b_lp_Chiralities_Consistent>
1

> <s_lp_Variant>
AV-unprocessed.smi:3318-3

> <Gold.Version>
5.8.1

> <Gold.Id.Protein>
6NUR|6NUR_protein|mol2

> <Gold.PLP.Fitness>
44.4028

> <Gold.PLP.PLP>
-30.5796

> <Gold.PLP.part.hbond>
-3.0000

> <Gold.PLP.part.metal>
0.0000

> <Gold.PLP.part.buried>
-1.8731

> <Gold.PLP.part.nonpolar>
-28.7426

> <Gold.PLP.part.repulsive>
2.2913

> <Gold.PLP.ligand.clash>
0.0000

> <Gold.PLP.ligand.torsion>
0.6102

> <Gold.PLP.Chemscore.Hbond>
4.0000

> <Gold.PLP.Chemscore.CHOScore>
1.0000

> <Gold.PLP.Chemscore.Metal>
0.0000

> <Gold.Chemscore.Hbonds>
donor molecule, donor type, donor heavy atom, donor atom, acceptor molecule, acceptor atom, score
      L1  H     8    31       P1  7957  1.00
      L1  H     8    44       P1  7948  2.00
      P1  H  7954  7966       L1    16  0.85
      L1  C    15    39       P1  7921  1.00

> <Gold.PLP.Chemscore.Internal.Correction>
0.0435

> <Gold.Rescore>
     Score         DG    S(hbond)    S(metal)    S(lipo)     H(rot)  DE(clash)    DE(int)     intcor
     18.56     -21.01       2.52        0.00      93.19       1.48       1.71       0.75       ----

> <Gold.Chemscore.Fitness>
18.5551

> <Gold.Chemscore.DG>
-21.0124

> <Gold.Chemscore.ZeroCoef>
-5.4800

> <Gold.Chemscore.Hbond>
2.5236

> <Gold.Chemscore.Metal>
0.0000

> <Gold.Chemscore.Lipo>
93.1851

> <Gold.Chemscore.Internal_Hbond>
0.0000

> <Gold.Chemscore.DEClash>
1.7056

> <Gold.Chemscore.DEInternal>
0.7517

> <Gold.Chemscore.Rot>
1.4840

> <Gold.Chemscore.Internal.Correction>
   9.000000E+99

> <Gold.Chemscore.Hbonds>
donor molecule, donor type, donor heavy atom, donor atom, acceptor molecule, acceptor atom, score
      L1  H     8    31       P1  7957  0.99
      L1  H     8    44       P1  7948  0.99
      P1  H  7954  7966       L1    16  0.15

> <Gold.Chemscore.Hbond.Weighted>
-8.4288

> <Gold.Chemscore.Metal.Weighted>
-0.0000

> <Gold.Chemscore.Lipo.Weighted>
-10.9027

> <Gold.Chemscore.Internal_Hbond.Weighted>
0.0000

> <Gold.Chemscore.DEClash.Weighted>
1.7056

> <Gold.Chemscore.DEInternal.Weighted>
0.7517

> <Gold.Chemscore.Rot.Weighted>
3.7991

> <Gold.Chemscore.Internal.Correction.Weighted>
   9.000000E+99

> <Gold.Protein.RotatedTorsions>
[ 6907 6896 6895 6894 ] final   36.82 input  -60.11 | X-H torsion
[ 7974 7965 7964 7962 ] final  -55.13 input  175.53 | X-H torsion
[ 8008 7997 7996 7995 ] final   22.94 input   59.86 | X-H torsion
[ 10167 10162 10161 10158 ] final   30.54 input  -65.29 | X-H torsion
[ 10718 10713 10712 10709 ] final   78.40 input   66.30 | X-H torsion
[ 10763 10752 10751 10750 ] final   63.66 input  -60.55 | X-H torsion
[ 11005 11000 10999 10996 ] final  164.61 input  -57.11 | X-H torsion

> <Gold.Protein.ActiveResidues>
 VAL166  LYS551  ARG553  GLY616  TRP617  ASP618  TYR619  PRO620  LYS621  CYS622 
 ASP623  PHE694  ASN695  SER759  ASP760  ASP761  ALA762  ILE779  LEU786  VAL792 
 PHE793  MET794  SER795  GLU796  ALA797  LYS798  CYS799  TRP800  GLU811  SER814 

> <Gold.Protein.RotatedAtoms>
  152.1349  134.9107  160.0556 H   0  0  0  0  0  0  0  0  0  0  0  0  # atno 6907 bound_to 6896
  152.0197  133.3889  159.4261 H   0  0  0  0  0  0  0  0  0  0  0  0  # atno 6908 bound_to 6896
  150.6859  134.3561  159.4974 H   0  0  0  0  0  0  0  0  0  0  0  0  # atno 6909 bound_to 6896
  145.8777  140.8168  142.9856 H   0  0  0  0  0  0  0  0  0  0  0  0  # atno 7974 bound_to 7965
  154.9733  140.3093  155.4978 H   0  0  0  0  0  0  0  0  0  0  0  0  # atno 8008 bound_to 7997
  156.2963  140.2280  156.4766 H   0  0  0  0  0  0  0  0  0  0  0  0  # atno 8009 bound_to 7997
  154.7856  140.0443  157.1150 H   0  0  0  0  0  0  0  0  0  0  0  0  # atno 8010 bound_to 7997
  140.4668  144.0823  150.6226 H   0  0  0  0  0  0  0  0  0  0  0  0  # atno 10167 bound_to 10162
  157.6743  130.9866  150.1781 H   0  0  0  0  0  0  0  0  0  0  0  0  # atno 10718 bound_to 10713
  153.0026  135.5421  154.6387 H   0  0  0  0  0  0  0  0  0  0  0  0  # atno 10763 bound_to 10752
  154.5647  135.2836  155.0887 H   0  0  0  0  0  0  0  0  0  0  0  0  # atno 10764 bound_to 10752
  154.2076  135.6473  153.5158 H   0  0  0  0  0  0  0  0  0  0  0  0  # atno 10765 bound_to 10752
  140.2476  134.8002  157.3471 H   0  0  0  0  0  0  0  0  0  0  0  0  # atno 11005 bound_to 11000
  144.6726  140.1336  143.7442 LP  0  0  0  0  0  0  0  0  0  0  0  0  # atno 17320 bound_to 7965
  145.9061  139.2459  143.1465 LP  0  0  0  0  0  0  0  0  0  0  0  0  # atno 17321 bound_to 7965
  140.4026  143.2696  151.9930 LP  0  0  0  0  0  0  0  0  0  0  0  0  # atno 17342 bound_to 10162
  139.4813  144.5985  151.7648 LP  0  0  0  0  0  0  0  0  0  0  0  0  # atno 17343 bound_to 10162
  156.2520  130.3701  149.8222 LP  0  0  0  0  0  0  0  0  0  0  0  0  # atno 17370 bound_to 10713
  156.5992  130.8539  151.3427 LP  0  0  0  0  0  0  0  0  0  0  0  0  # atno 17371 bound_to 10713
  140.1590  134.4753  155.7908 LP  0  0  0  0  0  0  0  0  0  0  0  0  # atno 17394 bound_to 11000
  141.2204  133.6893  156.7511 LP  0  0  0  0  0  0  0  0  0  0  0  0  # atno 17395 bound_to 11000

$$$$
