AV-unprocessed.smi:3126|AV-procd|sdf|11913|dock9
  -GOLD-   2272017293D 1   1.00000     0.00000
 Structure written by MMmdl.
 42 43  0  0  0  0  0  0  0  0  2 V2000
  153.9727  141.4313  161.7800 C   0  0  0  0  0  0  0  0  0  0  0  0
  154.0297  142.0116  160.3603 C   0  0  0  0  0  0  0  0  0  0  0  0
  152.7628  142.7868  159.9444 C   0  0  1  0  0  0  0  0  0  0  0  0
  152.2099  143.6681  161.0846 C   0  0  0  0  0  0  0  0  0  0  0  0
  150.9630  144.4519  160.6461 C   0  0  0  0  0  0  0  0  0  0  0  0
  151.2442  145.3062  159.3993 C   0  0  0  0  0  0  0  0  0  0  0  0
  151.8164  144.4690  158.2404 C   0  0  2  0  0  0  0  0  0  0  0  0
  150.7788  143.5835  157.6647 N   0  3  0  0  0  0  0  0  0  0  0  0
  151.2901  142.5234  156.7739 C   0  0  0  0  0  0  0  0  0  0  0  0
  150.1392  141.6987  156.1837 C   0  0  0  0  0  0  0  0  0  0  0  0
  150.6356  140.4481  155.4857 C   0  0  0  0  0  0  0  0  0  0  0  0
  151.9593  139.9963  155.6659 C   0  0  0  0  0  0  0  0  0  0  0  0
  152.3769  138.8326  154.9926 C   0  0  0  0  0  0  0  0  0  0  0  0
  151.4506  138.1680  154.1643 C   0  0  0  0  0  0  0  0  0  0  0  0
  150.1812  138.5922  153.9833 N   0  0  0  0  0  0  0  0  0  0  0  0
  149.7881  139.7080  154.6338 C   0  0  0  0  0  0  0  0  0  0  0  0
  153.0415  143.6524  158.6959 C   0  0  0  0  0  0  0  0  0  0  0  0
  154.8624  140.8361  161.9868 H   0  0  0  0  0  0  0  0  0  0  0  0
  153.1056  140.7828  161.9072 H   0  0  0  0  0  0  0  0  0  0  0  0
  153.9236  142.2148  162.5357 H   0  0  0  0  0  0  0  0  0  0  0  0
  154.9072  142.6521  160.2625 H   0  0  0  0  0  0  0  0  0  0  0  0
  154.1844  141.1840  159.6671 H   0  0  0  0  0  0  0  0  0  0  0  0
  151.9990  142.0538  159.6798 H   0  0  0  0  0  0  0  0  0  0  0  0
  151.9539  143.0569  161.9495 H   0  0  0  0  0  0  0  0  0  0  0  0
  152.9795  144.3659  161.4179 H   0  0  0  0  0  0  0  0  0  0  0  0
  150.1470  143.7575  160.4431 H   0  0  0  0  0  0  0  0  0  0  0  0
  150.6243  145.0914  161.4618 H   0  0  0  0  0  0  0  0  0  0  0  0
  150.3368  145.8227  159.0836 H   0  0  0  0  0  0  0  0  0  0  0  0
  151.9604  146.0863  159.6613 H   0  0  0  0  0  0  0  0  0  0  0  0
  152.1518  145.1594  157.4646 H   0  0  0  0  0  0  0  0  0  0  0  0
  150.2833  143.1432  158.4268 H   0  0  0  0  0  0  0  0  0  0  0  0
  151.8756  142.9771  155.9726 H   0  0  0  0  0  0  0  0  0  0  0  0
  151.9604  141.8754  157.3407 H   0  0  0  0  0  0  0  0  0  0  0  0
  149.4412  141.4112  156.9714 H   0  0  0  0  0  0  0  0  0  0  0  0
  149.5714  142.3008  155.4727 H   0  0  0  0  0  0  0  0  0  0  0  0
  152.6443  140.5316  156.3071 H   0  0  0  0  0  0  0  0  0  0  0  0
  153.3831  138.4571  155.1077 H   0  0  0  0  0  0  0  0  0  0  0  0
  151.7374  137.2726  153.6330 H   0  0  0  0  0  0  0  0  0  0  0  0
  148.7680  140.0207  154.4663 H   0  0  0  0  0  0  0  0  0  0  0  0
  153.8600  144.3394  158.9166 H   0  0  0  0  0  0  0  0  0  0  0  0
  153.3908  143.0264  157.8734 H   0  0  0  0  0  0  0  0  0  0  0  0
  150.1252  144.1541  157.1473 H   0  0  0  0  0  0  0  0  0  0  0  0
  1  2  1  0  0  0  0
  1 18  1  0  0  0  0
  1 19  1  0  0  0  0
  1 20  1  0  0  0  0
  2  3  1  0  0  0  0
  2 21  1  0  0  0  0
  2 22  1  0  0  0  0
  3 17  1  0  0  0  0
  3  4  1  0  0  0  0
  3 23  1  0  0  0  0
  4  5  1  0  0  0  0
  4 24  1  0  0  0  0
  4 25  1  0  0  0  0
  5  6  1  0  0  0  0
  5 26  1  0  0  0  0
  5 27  1  0  0  0  0
  6  7  1  0  0  0  0
  6 28  1  0  0  0  0
  6 29  1  0  0  0  0
  7  8  1  0  0  0  0
  7 17  1  0  0  0  0
  7 30  1  0  0  0  0
  8  9  1  0  0  0  0
  8 31  1  0  0  0  0
  8 42  1  0  0  0  0
  9 10  1  0  0  0  0
  9 32  1  0  0  0  0
  9 33  1  0  0  0  0
 10 11  1  0  0  0  0
 10 34  1  0  0  0  0
 10 35  1  0  0  0  0
 11 16  1  0  0  0  0
 11 12  2  0  0  0  0
 12 13  1  0  0  0  0
 12 36  1  0  0  0  0
 13 14  2  0  0  0  0
 13 37  1  0  0  0  0
 14 15  1  0  0  0  0
 14 38  1  0  0  0  0
 15 16  2  0  0  0  0
 16 39  1  0  0  0  0
 17 40  1  0  0  0  0
 17 41  1  0  0  0  0
M  CHG  1   8   1
M  END
> <s_m_source_file>
AV-unprocessed.smi

> <i_m_source_file_index>
3126

> <i_lp_mmshare_version>
43012

> <i_f3d_flags>
0

> <s_epik_input>
W0NIM11bQ0gyXVtDQEBIXTFbQ0gyXVtDSDJdW0NIMl1bQ0BIXShbQ0gyXTEpW05IXVtDSDJdW0NIMl1jMltjSF1bY0hdW2NIXW5bY0hdMg==

> <s_epik_cmdline>
J2VwaWtfcHl0aG9uJywgJy1waCcsICc3LjAnLCAnLXRuJywgJzgnLCAnLW1hJywgJzIwMCcsICctbWV0YWxfYmluZGluZycsICctaW1hZScsICc8aW5maWxlLm1hZT4nLCAnLW9tYWUnLCAnPG91dGZpbGUubWFlPic=

> <r_lp_tautomer_probability>
1

> <r_epik_Ionization_Penalty>
0.000947364

> <r_epik_Ionization_Penalty_Charging>
0.000286103

> <r_epik_Ionization_Penalty_Neutral>
0.000661261

> <r_epik_State_Penalty>
-0

> <r_epik_Charging_Adjusted_Penalty>
0.000286103

> <i_epik_Tot_Q>
1

> <i_epik_Tot_abs_Q>
1

> <r_epik_Metal_State_Penalty>
-0

> <b_epik_Metal_Only>
0

> <s_lp_Force_Field>
OPLS_2005

> <r_lp_Energy>
19.3892

> <b_lp_Chiralities_Consistent>
1

> <s_lp_Variant>
AV-unprocessed.smi:3126-4

> <Gold.Version>
5.8.1

> <Gold.Id.Protein>
6NUR|6NUR_protein|mol2

> <Gold.PLP.Fitness>
58.2096

> <Gold.PLP.PLP>
-50.0853

> <Gold.PLP.part.hbond>
-1.0000

> <Gold.PLP.part.metal>
0.0000

> <Gold.PLP.part.buried>
-5.2223

> <Gold.PLP.part.nonpolar>
-43.2909

> <Gold.PLP.part.repulsive>
0.2551

> <Gold.PLP.ligand.clash>
0.0000

> <Gold.PLP.ligand.torsion>
0.4574

> <Gold.PLP.Chemscore.Hbond>
2.0000

> <Gold.PLP.Chemscore.CHOScore>
1.0000

> <Gold.PLP.Chemscore.Metal>
0.0000

> <Gold.Chemscore.Hbonds>
donor molecule, donor type, donor heavy atom, donor atom, acceptor molecule, acceptor atom, score
      L1  H     8    42       P1  8028  2.00
      L1  C    14    38       P1  7949  0.93

> <Gold.PLP.Chemscore.Internal.Correction>
0.0392

> <Gold.Rescore>
     Score         DG    S(hbond)    S(metal)    S(lipo)     H(rot)  DE(clash)    DE(int)     intcor
     22.00     -22.68       0.97        0.00     148.88       1.35       0.22       0.45       ----

> <Gold.Chemscore.Fitness>
22.0041

> <Gold.Chemscore.DG>
-22.6760

> <Gold.Chemscore.ZeroCoef>
-5.4800

> <Gold.Chemscore.Hbond>
0.9687

> <Gold.Chemscore.Metal>
0.0000

> <Gold.Chemscore.Lipo>
148.8763

> <Gold.Chemscore.Internal_Hbond>
0.0000

> <Gold.Chemscore.DEClash>
0.2175

> <Gold.Chemscore.DEInternal>
0.4545

> <Gold.Chemscore.Rot>
1.3507

> <Gold.Chemscore.Internal.Correction>
   9.000000E+99

> <Gold.Chemscore.Hbonds>
donor molecule, donor type, donor heavy atom, donor atom, acceptor molecule, acceptor atom, score
      L1  H     8    42       P1  8028  0.79

> <Gold.Chemscore.Hbond.Weighted>
-3.2353

> <Gold.Chemscore.Metal.Weighted>
-0.0000

> <Gold.Chemscore.Lipo.Weighted>
-17.4185

> <Gold.Chemscore.Internal_Hbond.Weighted>
0.0000

> <Gold.Chemscore.DEClash.Weighted>
0.2175

> <Gold.Chemscore.DEInternal.Weighted>
0.4545

> <Gold.Chemscore.Rot.Weighted>
3.4579

> <Gold.Chemscore.Internal.Correction.Weighted>
   9.000000E+99

> <Gold.Protein.RotatedTorsions>
[ 6907 6896 6895 6894 ] final  -86.45 input  -60.11 | X-H torsion
[ 7974 7965 7964 7962 ] final   19.40 input  175.53 | X-H torsion
[ 8008 7997 7996 7995 ] final  -55.70 input   59.86 | X-H torsion
[ 10167 10162 10161 10158 ] final   45.92 input  -65.29 | X-H torsion
[ 10718 10713 10712 10709 ] final  137.96 input   66.30 | X-H torsion
[ 10763 10752 10751 10750 ] final   90.32 input  -60.55 | X-H torsion
[ 11005 11000 10999 10996 ] final  -77.11 input  -57.11 | X-H torsion

> <Gold.Protein.ActiveResidues>
 VAL166  LYS551  ARG553  GLY616  TRP617  ASP618  TYR619  PRO620  LYS621  CYS622 
 ASP623  PHE694  ASN695  SER759  ASP760  ASP761  ALA762  ILE779  LEU786  VAL792 
 PHE793  MET794  SER795  GLU796  ALA797  LYS798  CYS799  TRP800  GLU811  SER814 

> <Gold.Protein.RotatedAtoms>
  150.6867  134.3048  159.4721 H   0  0  0  0  0  0  0  0  0  0  0  0  # atno 6907 bound_to 6896
  152.0940  134.9385  160.0580 H   0  0  0  0  0  0  0  0  0  0  0  0  # atno 6908 bound_to 6896
  152.0690  133.4063  159.4488 H   0  0  0  0  0  0  0  0  0  0  0  0  # atno 6909 bound_to 6896
  146.2150  139.8318  142.8658 H   0  0  0  0  0  0  0  0  0  0  0  0  # atno 7974 bound_to 7965
  154.4204  140.1147  156.5518 H   0  0  0  0  0  0  0  0  0  0  0  0  # atno 8008 bound_to 7997
  155.6402  140.3496  155.4693 H   0  0  0  0  0  0  0  0  0  0  0  0  # atno 8009 bound_to 7997
  155.9877  140.1173  157.0657 H   0  0  0  0  0  0  0  0  0  0  0  0  # atno 8010 bound_to 7997
  140.3192  144.2726  150.6186 H   0  0  0  0  0  0  0  0  0  0  0  0  # atno 10167 bound_to 10162
  157.4305  131.1048  151.0255 H   0  0  0  0  0  0  0  0  0  0  0  0  # atno 10718 bound_to 10713
  153.1964  135.4438  155.0212 H   0  0  0  0  0  0  0  0  0  0  0  0  # atno 10763 bound_to 10752
  154.8121  135.3299  154.7280 H   0  0  0  0  0  0  0  0  0  0  0  0  # atno 10764 bound_to 10752
  153.7729  135.6983  153.4958 H   0  0  0  0  0  0  0  0  0  0  0  0  # atno 10765 bound_to 10752
  141.1658  133.7009  156.7770 H   0  0  0  0  0  0  0  0  0  0  0  0  # atno 11005 bound_to 11000
  145.2989  141.0188  143.3620 LP  0  0  0  0  0  0  0  0  0  0  0  0  # atno 17320 bound_to 7965
  144.9021  139.4636  143.6627 LP  0  0  0  0  0  0  0  0  0  0  0  0  # atno 17321 bound_to 7965
  140.5499  143.2208  151.7945 LP  0  0  0  0  0  0  0  0  0  0  0  0  # atno 17342 bound_to 10162
  139.4878  144.4490  151.9676 LP  0  0  0  0  0  0  0  0  0  0  0  0  # atno 17343 bound_to 10162
  157.1154  130.6039  149.5492 LP  0  0  0  0  0  0  0  0  0  0  0  0  # atno 17370 bound_to 10713
  155.9911  130.4965  150.7287 LP  0  0  0  0  0  0  0  0  0  0  0  0  # atno 17371 bound_to 10713
  140.2422  134.8605  157.3585 LP  0  0  0  0  0  0  0  0  0  0  0  0  # atno 17394 bound_to 11000
  140.1785  134.4520  155.7787 LP  0  0  0  0  0  0  0  0  0  0  0  0  # atno 17395 bound_to 11000

$$$$
