AV-unprocessed.smi:1762|AV-procd|sdf|7103|dock4
  -GOLD-   22720 8323D 1   1.00000     0.00000
 Structure written by MMmdl.
 52 53  0  0  0  0  0  0  0  0  1 V2000
  151.8744  139.3153  156.5603 C   0  0  0  0  0  0  0  0  0  0  0  0
  151.6570  139.0596  155.0584 C   0  0  1  0  0  0  0  0  0  0  0  0
  151.1358  137.6421  154.7480 C   0  0  0  0  0  0  0  0  0  0  0  0
  149.7256  137.4461  155.1068 N   0  0  0  0  0  0  0  0  0  0  0  0
  149.2400  136.0646  154.8294 C   0  0  2  0  0  0  0  0  0  0  0  0
  147.6984  135.9370  154.8819 C   0  0  0  0  0  0  0  0  0  0  0  0
  147.0966  136.0848  155.9463 O   0  0  0  0  0  0  0  0  0  0  0  0
  147.0743  135.6860  153.7201 N   0  0  0  0  0  0  0  0  0  0  0  0
  145.6295  135.5623  153.5554 C   0  0  0  0  0  0  0  0  0  0  0  0
  145.1354  134.1063  153.6654 C   0  0  0  0  0  0  0  0  0  0  0  0
  144.9615  133.4183  152.3211 C   0  0  0  0  0  0  0  0  0  0  0  0
  143.6737  133.0888  151.8472 C   0  0  0  0  0  0  0  0  0  0  0  0
  143.5623  132.4353  150.6046 C   0  0  0  0  0  0  0  0  0  0  0  0
  144.7366  132.1367  149.8869 C   0  0  0  0  0  0  0  0  0  0  0  0
  145.9753  132.5065  150.4467 C   0  0  0  0  0  0  0  0  0  0  0  0
  146.0924  133.1328  151.6371 N   0  0  0  0  0  0  0  0  0  0  0  0
  149.9161  134.9430  155.6882 C   0  0  0  0  0  0  0  0  0  0  0  0
  149.6052  133.5154  155.1944 C   0  0  0  0  0  0  0  0  0  0  0  0
  149.6354  135.0613  157.1993 C   0  0  0  0  0  0  0  0  0  0  0  0
  148.9319  138.5065  154.4652 C   0  0  0  0  0  0  0  0  0  0  0  0
  149.4307  139.9211  154.8100 C   0  0  2  0  0  0  0  0  0  0  0  0
  148.6607  141.0060  154.0485 C   0  0  0  0  0  0  0  0  0  0  0  0
  150.8078  140.0414  154.4695 O   0  0  0  0  0  0  0  0  0  0  0  0
  152.6208  138.6322  156.9663 H   0  0  0  0  0  0  0  0  0  0  0  0
  150.9608  139.1755  157.1379 H   0  0  0  0  0  0  0  0  0  0  0  0
  152.2289  140.3313  156.7344 H   0  0  0  0  0  0  0  0  0  0  0  0
  152.6283  139.1711  154.5757 H   0  0  0  0  0  0  0  0  0  0  0  0
  151.2718  137.4399  153.6843 H   0  0  0  0  0  0  0  0  0  0  0  0
  151.7789  136.9433  155.2788 H   0  0  0  0  0  0  0  0  0  0  0  0
  149.5131  135.8445  153.7951 H   0  0  0  0  0  0  0  0  0  0  0  0
  147.6398  135.5885  152.8894 H   0  0  0  0  0  0  0  0  0  0  0  0
  145.1532  136.1671  154.3275 H   0  0  0  0  0  0  0  0  0  0  0  0
  145.3234  135.9916  152.6001 H   0  0  0  0  0  0  0  0  0  0  0  0
  145.8381  133.5284  154.2667 H   0  0  0  0  0  0  0  0  0  0  0  0
  144.1875  134.0778  154.2050 H   0  0  0  0  0  0  0  0  0  0  0  0
  142.7917  133.3269  152.4232 H   0  0  0  0  0  0  0  0  0  0  0  0
  142.5937  132.1662  150.2100 H   0  0  0  0  0  0  0  0  0  0  0  0
  144.6893  131.6364  148.9310 H   0  0  0  0  0  0  0  0  0  0  0  0
  146.8969  132.2922  149.9263 H   0  0  0  0  0  0  0  0  0  0  0  0
  150.9933  135.0312  155.5588 H   0  0  0  0  0  0  0  0  0  0  0  0
  148.5641  133.2387  155.3629 H   0  0  0  0  0  0  0  0  0  0  0  0
  150.2213  132.7820  155.7155 H   0  0  0  0  0  0  0  0  0  0  0  0
  149.8114  133.4141  154.1286 H   0  0  0  0  0  0  0  0  0  0  0  0
  148.5865  134.8822  157.4340 H   0  0  0  0  0  0  0  0  0  0  0  0
  149.8984  136.0483  157.5802 H   0  0  0  0  0  0  0  0  0  0  0  0
  150.2219  134.3333  157.7604 H   0  0  0  0  0  0  0  0  0  0  0  0
  148.9437  138.3677  153.3827 H   0  0  0  0  0  0  0  0  0  0  0  0
  147.8886  138.4656  154.7753 H   0  0  0  0  0  0  0  0  0  0  0  0
  149.3023  140.0997  155.8778 H   0  0  0  0  0  0  0  0  0  0  0  0
  147.5936  140.9568  154.2670 H   0  0  0  0  0  0  0  0  0  0  0  0
  148.7875  140.8973  152.9713 H   0  0  0  0  0  0  0  0  0  0  0  0
  149.0117  142.0003  154.3257 H   0  0  0  0  0  0  0  0  0  0  0  0
  1  2  1  0  0  0  0
  1 24  1  0  0  0  0
  1 25  1  0  0  0  0
  1 26  1  0  0  0  0
  2 23  1  0  0  0  0
  2  3  1  0  0  0  0
  2 27  1  0  0  0  0
  3  4  1  0  0  0  0
  3 28  1  0  0  0  0
  3 29  1  0  0  0  0
  4  5  1  0  0  0  0
  4 20  1  0  0  0  0
  5  6  1  0  0  0  0
  5 17  1  0  0  0  0
  5 30  1  0  0  0  0
  6  7  2  0  0  0  0
  6  8  1  0  0  0  0
  8  9  1  0  0  0  0
  8 31  1  0  0  0  0
  9 10  1  0  0  0  0
  9 32  1  0  0  0  0
  9 33  1  0  0  0  0
 10 11  1  0  0  0  0
 10 34  1  0  0  0  0
 10 35  1  0  0  0  0
 11 16  1  0  0  0  0
 11 12  2  0  0  0  0
 12 13  1  0  0  0  0
 12 36  1  0  0  0  0
 13 14  2  0  0  0  0
 13 37  1  0  0  0  0
 14 15  1  0  0  0  0
 14 38  1  0  0  0  0
 15 16  2  0  0  0  0
 15 39  1  0  0  0  0
 17 18  1  0  0  0  0
 17 19  1  0  0  0  0
 17 40  1  0  0  0  0
 18 41  1  0  0  0  0
 18 42  1  0  0  0  0
 18 43  1  0  0  0  0
 19 44  1  0  0  0  0
 19 45  1  0  0  0  0
 19 46  1  0  0  0  0
 20 21  1  0  0  0  0
 20 47  1  0  0  0  0
 20 48  1  0  0  0  0
 21 22  1  0  0  0  0
 21 23  1  0  0  0  0
 21 49  1  0  0  0  0
 22 50  1  0  0  0  0
 22 51  1  0  0  0  0
 22 52  1  0  0  0  0
M  END
> <s_m_source_file>
AV-unprocessed.smi

> <i_m_source_file_index>
1762

> <i_lp_mmshare_version>
43012

> <i_f3d_flags>
0

> <s_epik_input>
W0NIM11bQ0BASF0xW0NIMl1OKFtDSDJdW0NASF0oTzEpW0NIM10pW0NAQEhdKFtDSF0oW0NIM10pW0NIM10pQyg9TylbTkhdW0NIMl1bQ0gyXWMyW2NIXVtjSF1bY0hdW2NIXW4y

> <s_epik_cmdline>
J2VwaWtfcHl0aG9uJywgJy1waCcsICc3LjAnLCAnLXRuJywgJzgnLCAnLW1hJywgJzIwMCcsICctbWV0YWxfYmluZGluZycsICctaW1hZScsICc8aW5maWxlLm1hZT4nLCAnLW9tYWUnLCAnPG91dGZpbGUubWFlPic=

> <r_epik_Ionization_Penalty>
0.0399736

> <r_epik_Ionization_Penalty_Charging>
0

> <r_epik_Ionization_Penalty_Neutral>
0.0399736

> <r_epik_State_Penalty>
0.0317634

> <r_epik_Charging_Adjusted_Penalty>
0.0317634

> <i_epik_Tot_Q>
0

> <i_epik_Tot_abs_Q>
0

> <r_epik_Metal_State_Penalty>
0.0307795

> <b_epik_Metal_Only>
0

> <s_lp_Force_Field>
OPLS_2005

> <r_lp_Energy>
29.7417

> <b_lp_Chiralities_Consistent>
1

> <s_lp_Variant>
AV-unprocessed.smi:1762-5

> <Gold.Version>
5.8.1

> <Gold.Id.Protein>
6NUR|6NUR_protein|mol2

> <Gold.PLP.Fitness>
44.0462

> <Gold.PLP.PLP>
-36.2995

> <Gold.PLP.part.hbond>
-1.9730

> <Gold.PLP.part.metal>
0.0000

> <Gold.PLP.part.buried>
-3.2396

> <Gold.PLP.part.nonpolar>
-32.1878

> <Gold.PLP.part.repulsive>
0.4297

> <Gold.PLP.ligand.clash>
0.0000

> <Gold.PLP.ligand.torsion>
0.7814

> <Gold.PLP.Chemscore.Hbond>
1.9913

> <Gold.PLP.Chemscore.CHOScore>
0.9958

> <Gold.PLP.Chemscore.Metal>
0.0000

> <Gold.Chemscore.Hbonds>
donor molecule, donor type, donor heavy atom, donor atom, acceptor molecule, acceptor atom, score
      L1  H     8    31       P1  7948  0.99
      P1  H  7989  7998       L1    23  0.98
      L1  C    15    39       P1 10747  0.98

> <Gold.PLP.Chemscore.Internal.Correction>
0.3485

> <Gold.Rescore>
     Score         DG    S(hbond)    S(metal)    S(lipo)     H(rot)  DE(clash)    DE(int)     intcor
     16.93     -19.88       1.88        0.00     104.43       1.60       0.96       1.98       ----

> <Gold.Chemscore.Fitness>
16.9322

> <Gold.Chemscore.DG>
-19.8782

> <Gold.Chemscore.ZeroCoef>
-5.4800

> <Gold.Chemscore.Hbond>
1.8785

> <Gold.Chemscore.Metal>
0.0000

> <Gold.Chemscore.Lipo>
104.4290

> <Gold.Chemscore.Internal_Hbond>
0.0000

> <Gold.Chemscore.DEClash>
0.9644

> <Gold.Chemscore.DEInternal>
1.9816

> <Gold.Chemscore.Rot>
1.5993

> <Gold.Chemscore.Internal.Correction>
   9.000000E+99

> <Gold.Chemscore.Hbonds>
donor molecule, donor type, donor heavy atom, donor atom, acceptor molecule, acceptor atom, score
      L1  H     8    31       P1  7948  0.93
      P1  H  7989  7998       L1    23  0.64

> <Gold.Chemscore.Hbond.Weighted>
-6.2741

> <Gold.Chemscore.Metal.Weighted>
-0.0000

> <Gold.Chemscore.Lipo.Weighted>
-12.2182

> <Gold.Chemscore.Internal_Hbond.Weighted>
0.0000

> <Gold.Chemscore.DEClash.Weighted>
0.9644

> <Gold.Chemscore.DEInternal.Weighted>
1.9816

> <Gold.Chemscore.Rot.Weighted>
4.0941

> <Gold.Chemscore.Internal.Correction.Weighted>
   9.000000E+99

> <Gold.Protein.RotatedTorsions>
[ 6907 6896 6895 6894 ] final -115.49 input  -60.11 | X-H torsion
[ 7974 7965 7964 7962 ] final   24.50 input  175.53 | X-H torsion
[ 8008 7997 7996 7995 ] final  -79.59 input   59.86 | X-H torsion
[ 10167 10162 10161 10158 ] final  -22.21 input  -65.29 | X-H torsion
[ 10718 10713 10712 10709 ] final    6.21 input   66.30 | X-H torsion
[ 10763 10752 10751 10750 ] final  171.37 input  -60.55 | X-H torsion
[ 11005 11000 10999 10996 ] final  171.41 input  -57.11 | X-H torsion

> <Gold.Protein.ActiveResidues>
 VAL166  LYS551  ARG553  GLY616  TRP617  ASP618  TYR619  PRO620  LYS621  CYS622 
 ASP623  PHE694  ASN695  SER759  ASP760  ASP761  ALA762  ILE779  LEU786  VAL792 
 PHE793  MET794  SER795  GLU796  ALA797  LYS798  CYS799  TRP800  GLU811  SER814 

> <Gold.Protein.RotatedAtoms>
  150.7982  133.8651  159.3242 H   0  0  0  0  0  0  0  0  0  0  0  0  # atno 6907 bound_to 6896
  151.6470  135.1004  160.0162 H   0  0  0  0  0  0  0  0  0  0  0  0  # atno 6908 bound_to 6896
  152.4066  133.6859  159.6397 H   0  0  0  0  0  0  0  0  0  0  0  0  # atno 6909 bound_to 6896
  146.1934  139.7595  142.8815 H   0  0  0  0  0  0  0  0  0  0  0  0  # atno 7974 bound_to 7965
  154.5799  140.0676  156.9089 H   0  0  0  0  0  0  0  0  0  0  0  0  # atno 8008 bound_to 7997
  155.2481  140.3349  155.4267 H   0  0  0  0  0  0  0  0  0  0  0  0  # atno 8009 bound_to 7997
  156.2182  140.1787  156.7525 H   0  0  0  0  0  0  0  0  0  0  0  0  # atno 8010 bound_to 7997
  140.7285  143.4555  151.0454 H   0  0  0  0  0  0  0  0  0  0  0  0  # atno 10167 bound_to 10162
  156.9189  130.5783  149.5647 H   0  0  0  0  0  0  0  0  0  0  0  0  # atno 10718 bound_to 10713
  154.4109  135.2756  155.2037 H   0  0  0  0  0  0  0  0  0  0  0  0  # atno 10763 bound_to 10752
  154.4023  135.6041  153.5908 H   0  0  0  0  0  0  0  0  0  0  0  0  # atno 10764 bound_to 10752
  152.9831  135.5929  154.4391 H   0  0  0  0  0  0  0  0  0  0  0  0  # atno 10765 bound_to 10752
  140.3187  134.7455  157.4047 H   0  0  0  0  0  0  0  0  0  0  0  0  # atno 11005 bound_to 11000
  145.3720  141.0344  143.3225 LP  0  0  0  0  0  0  0  0  0  0  0  0  # atno 17320 bound_to 7965
  144.8532  139.5290  143.6847 LP  0  0  0  0  0  0  0  0  0  0  0  0  # atno 17321 bound_to 7965
  139.8236  143.7787  152.3178 LP  0  0  0  0  0  0  0  0  0  0  0  0  # atno 17342 bound_to 10162
  139.7878  144.7421  150.9998 LP  0  0  0  0  0  0  0  0  0  0  0  0  # atno 17343 bound_to 10162
  156.0500  130.5571  150.8969 LP  0  0  0  0  0  0  0  0  0  0  0  0  # atno 17370 bound_to 10713
  157.5920  131.0944  150.9102 LP  0  0  0  0  0  0  0  0  0  0  0  0  # atno 17371 bound_to 10713
  140.0961  134.5536  155.8397 LP  0  0  0  0  0  0  0  0  0  0  0  0  # atno 17394 bound_to 11000
  141.2091  133.6681  156.6419 LP  0  0  0  0  0  0  0  0  0  0  0  0  # atno 17395 bound_to 11000

$$$$
