AV-unprocessed.smi:2400|AV-procd|sdf|9501|dock5
  -GOLD-   2272013133D 1   1.00000     0.00000
 Structure written by MMmdl.
 44 45  0  0  0  0  0  0  0  0  1 V2000
  149.7141  138.3610  154.7571 C   0  0  0  0  0  0  0  0  0  0  0  0
  148.6877  138.6073  155.7029 O   0  0  0  0  0  0  0  0  0  0  0  0
  147.7770  139.5134  155.2877 C   0  0  0  0  0  0  0  0  0  0  0  0
  147.6861  140.8666  155.4632 C   0  0  0  0  0  0  0  0  0  0  0  0
  148.5461  141.7520  156.1614 N   0  0  0  0  0  0  0  0  0  0  0  0
  149.7883  141.4958  156.6008 C   0  0  0  0  0  0  0  0  0  0  0  0
  150.3936  140.4385  156.4263 O   0  0  0  0  0  0  0  0  0  0  0  0
  150.3056  142.5536  157.2411 N   0  0  0  0  0  0  0  0  0  0  0  0
  151.6466  142.6176  157.8231 C   0  0  2  0  0  0  0  0  0  0  0  0
  152.0069  141.2749  158.4905 C   0  0  0  0  0  0  0  0  0  0  0  0
  152.2920  141.5808  159.9598 C   0  0  0  0  0  0  0  0  0  0  0  0
  152.7046  143.0493  159.9671 C   0  0  0  0  0  0  0  0  0  0  0  0
  151.8139  143.7247  158.9093 C   0  0  0  0  0  0  0  0  0  0  0  0
  152.4999  144.9774  158.3326 C   0  0  0  0  0  0  0  0  0  0  0  0
  150.4789  144.1506  159.5678 C   0  0  0  0  0  0  0  0  0  0  0  0
  146.4664  141.2392  154.8331 C   0  0  0  0  0  0  0  0  0  0  0  0
  145.8252  142.5930  154.7260 C   0  0  0  0  0  0  0  0  0  0  0  0
  145.8781  140.1898  154.2695 N   0  0  0  0  0  0  0  0  0  0  0  0
  146.6832  139.1331  154.5388 N   0  0  0  0  0  0  0  0  0  0  0  0
  146.3151  137.8136  154.0685 C   0  0  0  0  0  0  0  0  0  0  0  0
  150.4221  137.6405  155.1658 H   0  0  0  0  0  0  0  0  0  0  0  0
  150.2605  139.2762  154.5258 H   0  0  0  0  0  0  0  0  0  0  0  0
  149.3164  137.9497  153.8289 H   0  0  0  0  0  0  0  0  0  0  0  0
  148.2104  142.6973  156.2729 H   0  0  0  0  0  0  0  0  0  0  0  0
  149.7351  143.3816  157.3283 H   0  0  0  0  0  0  0  0  0  0  0  0
  152.3745  142.7754  157.0245 H   0  0  0  0  0  0  0  0  0  0  0  0
  151.2249  140.5209  158.3904 H   0  0  0  0  0  0  0  0  0  0  0  0
  152.9028  140.8662  158.0212 H   0  0  0  0  0  0  0  0  0  0  0  0
  151.3843  141.4470  160.5491 H   0  0  0  0  0  0  0  0  0  0  0  0
  153.0577  140.9289  160.3808 H   0  0  0  0  0  0  0  0  0  0  0  0
  152.6162  143.5006  160.9561 H   0  0  0  0  0  0  0  0  0  0  0  0
  153.7537  143.1197  159.6751 H   0  0  0  0  0  0  0  0  0  0  0  0
  152.6809  145.7217  159.1086 H   0  0  0  0  0  0  0  0  0  0  0  0
  151.8840  145.4451  157.5640 H   0  0  0  0  0  0  0  0  0  0  0  0
  153.4619  144.7364  157.8793 H   0  0  0  0  0  0  0  0  0  0  0  0
  150.6515  144.8377  160.3970 H   0  0  0  0  0  0  0  0  0  0  0  0
  149.9286  143.2963  159.9629 H   0  0  0  0  0  0  0  0  0  0  0  0
  149.8267  144.6657  158.8616 H   0  0  0  0  0  0  0  0  0  0  0  0
  146.4255  143.3596  155.2159 H   0  0  0  0  0  0  0  0  0  0  0  0
  144.8397  142.5976  155.1917 H   0  0  0  0  0  0  0  0  0  0  0  0
  145.7034  142.8869  153.6834 H   0  0  0  0  0  0  0  0  0  0  0  0
  147.2050  137.1922  153.9656 H   0  0  0  0  0  0  0  0  0  0  0  0
  145.8226  137.8835  153.0980 H   0  0  0  0  0  0  0  0  0  0  0  0
  145.6361  137.3478  154.7829 H   0  0  0  0  0  0  0  0  0  0  0  0
  1  2  1  0  0  0  0
  1 21  1  0  0  0  0
  1 22  1  0  0  0  0
  1 23  1  0  0  0  0
  2  3  1  0  0  0  0
  3 19  1  0  0  0  0
  3  4  2  0  0  0  0
  4  5  1  0  0  0  0
  4 16  1  0  0  0  0
  5  6  1  0  0  0  0
  5 24  1  0  0  0  0
  6  7  2  0  0  0  0
  6  8  1  0  0  0  0
  8  9  1  0  0  0  0
  8 25  1  0  0  0  0
  9 13  1  0  0  0  0
  9 10  1  0  0  0  0
  9 26  1  0  0  0  0
 10 11  1  0  0  0  0
 10 27  1  0  0  0  0
 10 28  1  0  0  0  0
 11 12  1  0  0  0  0
 11 29  1  0  0  0  0
 11 30  1  0  0  0  0
 12 13  1  0  0  0  0
 12 31  1  0  0  0  0
 12 32  1  0  0  0  0
 13 14  1  0  0  0  0
 13 15  1  0  0  0  0
 14 33  1  0  0  0  0
 14 34  1  0  0  0  0
 14 35  1  0  0  0  0
 15 36  1  0  0  0  0
 15 37  1  0  0  0  0
 15 38  1  0  0  0  0
 16 17  1  0  0  0  0
 16 18  2  0  0  0  0
 17 39  1  0  0  0  0
 17 40  1  0  0  0  0
 17 41  1  0  0  0  0
 18 19  1  0  0  0  0
 19 20  1  0  0  0  0
 20 42  1  0  0  0  0
 20 43  1  0  0  0  0
 20 44  1  0  0  0  0
M  END
> <s_m_source_file>
AV-unprocessed.smi

> <i_m_source_file_index>
2400

> <i_lp_mmshare_version>
43012

> <i_f3d_flags>
0

> <s_epik_input>
W0NIM11uMW5jKFtDSDNdKWMoYzFPW0NIM10pW05IXUMoPU8pW05IXVtDQEBIXShDMihbQ0gzXSlbQ0gzXSlbQ0gyXVtDSDJdW0NIMl0y

> <s_epik_cmdline>
J2VwaWtfcHl0aG9uJywgJy1waCcsICc3LjAnLCAnLXRuJywgJzgnLCAnLW1hJywgJzIwMCcsICctbWV0YWxfYmluZGluZycsICctaW1hZScsICc8aW5maWxlLm1hZT4nLCAnLW9tYWUnLCAnPG91dGZpbGUubWFlPic=

> <r_lp_tautomer_probability>
1

> <r_epik_Ionization_Penalty>
0.000423583

> <r_epik_Ionization_Penalty_Charging>
0

> <r_epik_Ionization_Penalty_Neutral>
0.000423583

> <r_epik_State_Penalty>
-0

> <r_epik_Charging_Adjusted_Penalty>
0

> <i_epik_Tot_Q>
0

> <i_epik_Tot_abs_Q>
0

> <r_epik_Metal_State_Penalty>
-0

> <b_epik_Metal_Only>
0

> <s_lp_Force_Field>
OPLS_2005

> <r_lp_Energy>
29.9339

> <b_lp_Chiralities_Consistent>
1

> <s_lp_Variant>
AV-unprocessed.smi:2400-1

> <Gold.Version>
5.8.1

> <Gold.Id.Protein>
6NUR|6NUR_protein|mol2

> <Gold.PLP.Fitness>
42.9501

> <Gold.PLP.PLP>
-39.2928

> <Gold.PLP.part.hbond>
-2.0000

> <Gold.PLP.part.metal>
0.0000

> <Gold.PLP.part.buried>
-4.5051

> <Gold.PLP.part.nonpolar>
-34.3705

> <Gold.PLP.part.repulsive>
1.6819

> <Gold.PLP.ligand.clash>
0.0000

> <Gold.PLP.ligand.torsion>
0.6874

> <Gold.PLP.Chemscore.Hbond>
1.6740

> <Gold.PLP.Chemscore.CHOScore>
0.0000

> <Gold.PLP.Chemscore.Metal>
0.0000

> <Gold.Chemscore.Hbonds>
donor molecule, donor type, donor heavy atom, donor atom, acceptor molecule, acceptor atom, score
      L1  H     5    24       P1  8028  0.42
      L1  H     8    25       P1  8028  0.21

> <Gold.PLP.Chemscore.Internal.Correction>
0.0101

> <Gold.Rescore>
     Score         DG    S(hbond)    S(metal)    S(lipo)     H(rot)  DE(clash)    DE(int)     intcor
     12.72     -17.62       1.05        0.00     100.19       1.21       1.71       3.19       ----

> <Gold.Chemscore.Fitness>
12.7213

> <Gold.Chemscore.DG>
-17.6212

> <Gold.Chemscore.ZeroCoef>
-5.4800

> <Gold.Chemscore.Hbond>
1.0542

> <Gold.Chemscore.Metal>
0.0000

> <Gold.Chemscore.Lipo>
100.1927

> <Gold.Chemscore.Internal_Hbond>
0.0000

> <Gold.Chemscore.DEClash>
1.7142

> <Gold.Chemscore.DEInternal>
3.1858

> <Gold.Chemscore.Rot>
1.2119

> <Gold.Chemscore.Internal.Correction>
   9.000000E+99

> <Gold.Chemscore.Hbonds>
donor molecule, donor type, donor heavy atom, donor atom, acceptor molecule, acceptor atom, score
      L1  H     5    24       P1  8028  0.34
      L1  H     8    25       P1  8028  0.19

> <Gold.Chemscore.Hbond.Weighted>
-3.5210

> <Gold.Chemscore.Metal.Weighted>
-0.0000

> <Gold.Chemscore.Lipo.Weighted>
-11.7225

> <Gold.Chemscore.Internal_Hbond.Weighted>
0.0000

> <Gold.Chemscore.DEClash.Weighted>
1.7142

> <Gold.Chemscore.DEInternal.Weighted>
3.1858

> <Gold.Chemscore.Rot.Weighted>
3.1024

> <Gold.Chemscore.Internal.Correction.Weighted>
   9.000000E+99

> <Gold.Protein.RotatedTorsions>
[ 6907 6896 6895 6894 ] final   29.36 input  -60.11 | X-H torsion
[ 7974 7965 7964 7962 ] final  162.19 input  175.53 | X-H torsion
[ 8008 7997 7996 7995 ] final  121.33 input   59.86 | X-H torsion
[ 10167 10162 10161 10158 ] final  -55.36 input  -65.29 | X-H torsion
[ 10718 10713 10712 10709 ] final  -62.60 input   66.30 | X-H torsion
[ 10763 10752 10751 10750 ] final -101.05 input  -60.55 | X-H torsion
[ 11005 11000 10999 10996 ] final   86.10 input  -57.11 | X-H torsion

> <Gold.Protein.ActiveResidues>
 VAL166  LYS551  ARG553  GLY616  TRP617  ASP618  TYR619  PRO620  LYS621  CYS622 
 ASP623  PHE694  ASN695  SER759  ASP760  ASP761  ALA762  ILE779  LEU786  VAL792 
 PHE793  MET794  SER795  GLU796  ALA797  LYS798  CYS799  TRP800  GLU811  SER814 

> <Gold.Protein.RotatedAtoms>
  152.0303  134.9771  160.0572 H   0  0  0  0  0  0  0  0  0  0  0  0  # atno 6907 bound_to 6896
  152.1250  133.4370  159.4702 H   0  0  0  0  0  0  0  0  0  0  0  0  # atno 6908 bound_to 6896
  150.6852  134.2407  159.4514 H   0  0  0  0  0  0  0  0  0  0  0  0  # atno 6909 bound_to 6896
  144.7648  139.8005  143.6319 H   0  0  0  0  0  0  0  0  0  0  0  0  # atno 7974 bound_to 7965
  156.2682  140.2811  156.1291 H   0  0  0  0  0  0  0  0  0  0  0  0  # atno 8008 bound_to 7997
  155.1073  140.0390  157.2732 H   0  0  0  0  0  0  0  0  0  0  0  0  # atno 8009 bound_to 7997
  154.6769  140.2600  155.6954 H   0  0  0  0  0  0  0  0  0  0  0  0  # atno 8010 bound_to 7997
  140.6379  143.2492  151.5068 H   0  0  0  0  0  0  0  0  0  0  0  0  # atno 10167 bound_to 10162
  156.0845  130.4211  150.1158 H   0  0  0  0  0  0  0  0  0  0  0  0  # atno 10718 bound_to 10713
  154.7627  135.4912  153.9496 H   0  0  0  0  0  0  0  0  0  0  0  0  # atno 10763 bound_to 10752
  153.1271  135.6744  153.9247 H   0  0  0  0  0  0  0  0  0  0  0  0  # atno 10764 bound_to 10752
  153.8961  135.3115  155.3427 H   0  0  0  0  0  0  0  0  0  0  0  0  # atno 10765 bound_to 10752
  139.8953  134.8332  156.2673 H   0  0  0  0  0  0  0  0  0  0  0  0  # atno 11005 bound_to 11000
  146.1746  139.4911  142.9905 LP  0  0  0  0  0  0  0  0  0  0  0  0  # atno 17320 bound_to 7965
  145.6503  141.0264  143.1764 LP  0  0  0  0  0  0  0  0  0  0  0  0  # atno 17321 bound_to 7965
  139.5589  144.2206  152.1658 LP  0  0  0  0  0  0  0  0  0  0  0  0  # atno 17342 bound_to 10162
  140.1468  144.5151  150.6711 LP  0  0  0  0  0  0  0  0  0  0  0  0  # atno 17343 bound_to 10162
  156.9182  130.9674  151.3553 LP  0  0  0  0  0  0  0  0  0  0  0  0  # atno 17370 bound_to 10713
  157.5974  130.8487  149.8750 LP  0  0  0  0  0  0  0  0  0  0  0  0  # atno 17371 bound_to 10713
  141.0123  133.7088  156.1132 LP  0  0  0  0  0  0  0  0  0  0  0  0  # atno 17394 bound_to 11000
  140.7350  134.4213  157.5561 LP  0  0  0  0  0  0  0  0  0  0  0  0  # atno 17395 bound_to 11000

$$$$
