AV-unprocessed.smi:2930|AV-procd|sdf|11240|dock3
  -GOLD-   2272016133D 1   1.00000     0.00000
 Structure written by MMmdl.
 40 41  0  0  0  0  0  0  0  0  1 V2000
  152.6724  144.7913  157.9833 C   0  0  0  0  0  0  0  0  0  0  0  0
  152.1951  143.3345  158.0599 C   0  0  2  0  0  0  0  0  0  0  0  0
  150.9998  143.1775  157.2348 N   0  0  0  0  0  0  0  0  0  0  0  0
  150.6566  142.0731  156.5564 C   0  0  0  0  0  0  0  0  0  0  0  0
  151.3308  141.0436  156.5433 O   0  0  0  0  0  0  0  0  0  0  0  0
  149.5015  142.2525  155.8938 N   0  0  0  0  0  0  0  0  0  0  0  0
  148.7905  141.3218  155.0899 C   0  0  0  0  0  0  0  0  0  0  0  0
  149.3557  140.1904  154.4544 C   0  0  0  0  0  0  0  0  0  0  0  0
  148.6048  139.3415  153.7207 N   0  0  0  0  0  0  0  0  0  0  0  0
  147.2949  139.5997  153.6118 C   0  0  0  0  0  0  0  0  0  0  0  0
  146.5258  138.7164  152.8489 N   0  0  0  0  0  0  0  0  0  0  0  0
  145.5596  137.8192  153.4760 C   0  0  0  0  0  0  0  0  0  0  0  0
  146.6693  138.6492  151.3975 C   0  0  0  0  0  0  0  0  0  0  0  0
  146.6632  140.6351  154.1806 N   0  0  0  0  0  0  0  0  0  0  0  0
  147.4022  141.4901  154.9181 C   0  0  0  0  0  0  0  0  0  0  0  0
  151.9022  142.9011  159.4978 C   0  0  0  0  0  0  0  0  0  0  0  0
  151.5763  143.9565  160.5660 C   0  0  0  0  0  0  0  0  0  0  0  0
  152.2992  143.0774  161.5902 C   0  0  0  0  0  0  0  0  0  0  0  0
  153.0439  142.4368  160.4163 C   0  0  0  0  0  0  0  0  0  0  0  0
  153.5859  144.9367  158.5605 H   0  0  0  0  0  0  0  0  0  0  0  0
  151.9201  145.4774  158.3741 H   0  0  0  0  0  0  0  0  0  0  0  0
  152.8861  145.0806  156.9539 H   0  0  0  0  0  0  0  0  0  0  0  0
  152.9958  142.7136  157.6542 H   0  0  0  0  0  0  0  0  0  0  0  0
  150.3830  143.9746  157.1809 H   0  0  0  0  0  0  0  0  0  0  0  0
  149.1009  143.1779  155.9421 H   0  0  0  0  0  0  0  0  0  0  0  0
  150.4000  139.9331  154.5352 H   0  0  0  0  0  0  0  0  0  0  0  0
  144.8011  138.3915  154.0110 H   0  0  0  0  0  0  0  0  0  0  0  0
  146.0588  137.1601  154.1868 H   0  0  0  0  0  0  0  0  0  0  0  0
  145.0491  137.1929  152.7446 H   0  0  0  0  0  0  0  0  0  0  0  0
  147.6856  138.3579  151.1306 H   0  0  0  0  0  0  0  0  0  0  0  0
  146.4606  139.6207  150.9485 H   0  0  0  0  0  0  0  0  0  0  0  0
  145.9871  137.9247  150.9525 H   0  0  0  0  0  0  0  0  0  0  0  0
  146.8778  142.3179  155.3729 H   0  0  0  0  0  0  0  0  0  0  0  0
  151.1157  142.1433  159.5171 H   0  0  0  0  0  0  0  0  0  0  0  0
  152.0855  144.9062  160.3932 H   0  0  0  0  0  0  0  0  0  0  0  0
  150.5122  144.1001  160.7561 H   0  0  0  0  0  0  0  0  0  0  0  0
  152.9336  143.6192  162.2921 H   0  0  0  0  0  0  0  0  0  0  0  0
  151.6306  142.3809  162.0985 H   0  0  0  0  0  0  0  0  0  0  0  0
  153.1629  141.3550  160.4835 H   0  0  0  0  0  0  0  0  0  0  0  0
  153.9917  142.9326  160.2002 H   0  0  0  0  0  0  0  0  0  0  0  0
  1  2  1  0  0  0  0
  1 20  1  0  0  0  0
  1 21  1  0  0  0  0
  1 22  1  0  0  0  0
  2  3  1  0  0  0  0
  2 16  1  0  0  0  0
  2 23  1  0  0  0  0
  3  4  1  0  0  0  0
  3 24  1  0  0  0  0
  4  5  2  0  0  0  0
  4  6  1  0  0  0  0
  6  7  1  0  0  0  0
  6 25  1  0  0  0  0
  7 15  1  0  0  0  0
  7  8  2  0  0  0  0
  8  9  1  0  0  0  0
  8 26  1  0  0  0  0
  9 10  2  0  0  0  0
 10 11  1  0  0  0  0
 10 14  1  0  0  0  0
 11 12  1  0  0  0  0
 11 13  1  0  0  0  0
 12 27  1  0  0  0  0
 12 28  1  0  0  0  0
 12 29  1  0  0  0  0
 13 30  1  0  0  0  0
 13 31  1  0  0  0  0
 13 32  1  0  0  0  0
 14 15  2  0  0  0  0
 15 33  1  0  0  0  0
 16 19  1  0  0  0  0
 16 17  1  0  0  0  0
 16 34  1  0  0  0  0
 17 18  1  0  0  0  0
 17 35  1  0  0  0  0
 17 36  1  0  0  0  0
 18 19  1  0  0  0  0
 18 37  1  0  0  0  0
 18 38  1  0  0  0  0
 19 39  1  0  0  0  0
 19 40  1  0  0  0  0
M  END
> <s_m_source_file>
AV-unprocessed.smi

> <i_m_source_file_index>
2930

> <i_lp_mmshare_version>
43012

> <i_f3d_flags>
0

> <s_epik_input>
W0NIMl0xW0NIMl1bQ0gyXVtDSF0xW0NASF0oW0NIM10pW05IXUMoPU8pW05IXWMyW2NIXW5jKE4oW0NIM10pW0NIM10pbltjSF0y

> <s_epik_cmdline>
J2VwaWtfcHl0aG9uJywgJy1waCcsICc3LjAnLCAnLXRuJywgJzgnLCAnLW1hJywgJzIwMCcsICctbWV0YWxfYmluZGluZycsICctaW1hZScsICc8aW5maWxlLm1hZT4nLCAnLW9tYWUnLCAnPG91dGZpbGUubWFlPic=

> <r_lp_tautomer_probability>
1

> <r_epik_Ionization_Penalty>
0.000323856

> <r_epik_Ionization_Penalty_Charging>
0

> <r_epik_Ionization_Penalty_Neutral>
0.000323856

> <r_epik_State_Penalty>
-0

> <r_epik_Charging_Adjusted_Penalty>
0

> <i_epik_Tot_Q>
0

> <i_epik_Tot_abs_Q>
0

> <r_epik_Metal_State_Penalty>
-0

> <b_epik_Metal_Only>
0

> <s_lp_Force_Field>
OPLS_2005

> <r_lp_Energy>
8.18879

> <b_lp_Chiralities_Consistent>
1

> <s_lp_Variant>
AV-unprocessed.smi:2930-1

> <Gold.Version>
5.8.1

> <Gold.Id.Protein>
6NUR|6NUR_protein|mol2

> <Gold.PLP.Fitness>
41.1326

> <Gold.PLP.PLP>
-41.9351

> <Gold.PLP.part.hbond>
-1.9810

> <Gold.PLP.part.metal>
0.0000

> <Gold.PLP.part.buried>
-5.2492

> <Gold.PLP.part.nonpolar>
-37.7240

> <Gold.PLP.part.repulsive>
1.8393

> <Gold.PLP.ligand.clash>
0.0000

> <Gold.PLP.ligand.torsion>
2.5927

> <Gold.PLP.Chemscore.Hbond>
1.4186

> <Gold.PLP.Chemscore.CHOScore>
0.0000

> <Gold.PLP.Chemscore.Metal>
0.0000

> <Gold.Chemscore.Hbonds>
donor molecule, donor type, donor heavy atom, donor atom, acceptor molecule, acceptor atom, score
      L1  H     3    24       P1  8028  0.34
      L1  H     6    25       P1  8028  1.00

> <Gold.PLP.Chemscore.Internal.Correction>
0.1271

> <Gold.Rescore>
     Score         DG    S(hbond)    S(metal)    S(lipo)     H(rot)  DE(clash)    DE(int)     intcor
     16.06     -19.64       1.53        0.00     103.35       1.19       0.90       2.68       ----

> <Gold.Chemscore.Fitness>
16.0620

> <Gold.Chemscore.DG>
-19.6378

> <Gold.Chemscore.ZeroCoef>
-5.4800

> <Gold.Chemscore.Hbond>
1.5345

> <Gold.Chemscore.Metal>
0.0000

> <Gold.Chemscore.Lipo>
103.3455

> <Gold.Chemscore.Internal_Hbond>
0.0000

> <Gold.Chemscore.DEClash>
0.8982

> <Gold.Chemscore.DEInternal>
2.6776

> <Gold.Chemscore.Rot>
1.1949

> <Gold.Chemscore.Internal.Correction>
   9.000000E+99

> <Gold.Chemscore.Hbonds>
donor molecule, donor type, donor heavy atom, donor atom, acceptor molecule, acceptor atom, score
      L1  H     3    24       P1  8028  0.33
      L1  H     6    25       P1  8028  0.97

> <Gold.Chemscore.Hbond.Weighted>
-5.1253

> <Gold.Chemscore.Metal.Weighted>
-0.0000

> <Gold.Chemscore.Lipo.Weighted>
-12.0914

> <Gold.Chemscore.Internal_Hbond.Weighted>
0.0000

> <Gold.Chemscore.DEClash.Weighted>
0.8982

> <Gold.Chemscore.DEInternal.Weighted>
2.6776

> <Gold.Chemscore.Rot.Weighted>
3.0590

> <Gold.Chemscore.Internal.Correction.Weighted>
   9.000000E+99

> <Gold.Protein.RotatedTorsions>
[ 6907 6896 6895 6894 ] final -144.45 input  -60.11 | X-H torsion
[ 7974 7965 7964 7962 ] final  149.25 input  175.53 | X-H torsion
[ 8008 7997 7996 7995 ] final  -65.38 input   59.86 | X-H torsion
[ 10167 10162 10161 10158 ] final -125.97 input  -65.29 | X-H torsion
[ 10718 10713 10712 10709 ] final  -64.30 input   66.30 | X-H torsion
[ 10763 10752 10751 10750 ] final -168.15 input  -60.55 | X-H torsion
[ 11005 11000 10999 10996 ] final   62.91 input  -57.11 | X-H torsion

> <Gold.Protein.ActiveResidues>
 VAL166  LYS551  ARG553  GLY616  TRP617  ASP618  TYR619  PRO620  LYS621  CYS622 
 ASP623  PHE694  ASN695  SER759  ASP760  ASP761  ALA762  ILE779  LEU786  VAL792 
 PHE793  MET794  SER795  GLU796  ALA797  LYS798  CYS799  TRP800  GLU811  SER814 

> <Gold.Protein.RotatedAtoms>
  151.1142  133.5151  159.2604 H   0  0  0  0  0  0  0  0  0  0  0  0  # atno 6907 bound_to 6896
  151.1933  135.0411  159.8851 H   0  0  0  0  0  0  0  0  0  0  0  0  # atno 6908 bound_to 6896
  152.5452  134.0980  159.8359 H   0  0  0  0  0  0  0  0  0  0  0  0  # atno 6909 bound_to 6896
  144.8452  139.6257  143.5998 H   0  0  0  0  0  0  0  0  0  0  0  0  # atno 7974 bound_to 7965
  154.4668  140.0934  156.7042 H   0  0  0  0  0  0  0  0  0  0  0  0  # atno 8008 bound_to 7997
  155.4835  140.3468  155.4325 H   0  0  0  0  0  0  0  0  0  0  0  0  # atno 8009 bound_to 7997
  156.0971  140.1412  156.9505 H   0  0  0  0  0  0  0  0  0  0  0  0  # atno 8010 bound_to 7997
  139.9765  143.5789  152.2394 H   0  0  0  0  0  0  0  0  0  0  0  0  # atno 10167 bound_to 10162
  156.0738  130.4231  150.1400 H   0  0  0  0  0  0  0  0  0  0  0  0  # atno 10718 bound_to 10713
  154.6658  135.2932  154.9807 H   0  0  0  0  0  0  0  0  0  0  0  0  # atno 10763 bound_to 10752
  154.0851  135.6599  153.4847 H   0  0  0  0  0  0  0  0  0  0  0  0  # atno 10764 bound_to 10752
  153.0457  135.5206  154.7631 H   0  0  0  0  0  0  0  0  0  0  0  0  # atno 10765 bound_to 10752
  140.0060  134.6369  155.9854 H   0  0  0  0  0  0  0  0  0  0  0  0  # atno 11005 bound_to 11000
  146.2738  139.6700  142.9277 LP  0  0  0  0  0  0  0  0  0  0  0  0  # atno 17320 bound_to 7965
  145.4612  141.0433  143.2750 LP  0  0  0  0  0  0  0  0  0  0  0  0  # atno 17321 bound_to 7965
  139.6442  144.7657  151.2277 LP  0  0  0  0  0  0  0  0  0  0  0  0  # atno 17342 bound_to 10162
  140.7504  143.6267  150.8462 LP  0  0  0  0  0  0  0  0  0  0  0  0  # atno 17343 bound_to 10162
  156.9445  130.9755  151.3510 LP  0  0  0  0  0  0  0  0  0  0  0  0  # atno 17370 bound_to 10713
  157.5822  130.8385  149.8539 LP  0  0  0  0  0  0  0  0  0  0  0  0  # atno 17371 bound_to 10713
  141.1677  133.6537  156.4539 LP  0  0  0  0  0  0  0  0  0  0  0  0  # atno 17394 bound_to 11000
  140.4640  134.6815  157.5099 LP  0  0  0  0  0  0  0  0  0  0  0  0  # atno 17395 bound_to 11000

$$$$
