AV-unprocessed.smi:484|AV-procd|sdf|2690|dock6
  -GOLD-   2262023123D 1   1.00000     0.00000
 Structure written by MMmdl.
 47 49  0  0  0  0  0  0  0  0  2 V2000
  134.2441  137.9245  155.2445 C   0  0  0  0  0  0  0  0  0  0  0  0
  134.9887  139.1530  154.7104 C   0  0  0  0  0  0  0  0  0  0  0  0
  136.4297  138.8408  154.3543 C   0  0  0  0  0  0  0  0  0  0  0  0
  137.2732  139.8524  153.8535 C   0  0  0  0  0  0  0  0  0  0  0  0
  138.6113  139.5595  153.5275 C   0  0  0  0  0  0  0  0  0  0  0  0
  139.1272  138.2582  153.6947 C   0  0  0  0  0  0  0  0  0  0  0  0
  140.4444  138.0591  153.3420 O   0  0  0  0  0  0  0  0  0  0  0  0
  141.1077  136.9042  153.8379 C   0  0  0  0  0  0  0  0  0  0  0  0
  142.4469  136.7463  153.0994 C   0  0  1  0  0  0  0  0  0  0  0  0
  143.1941  137.9300  153.2904 O   0  0  0  0  0  0  0  0  0  0  0  0
  143.2789  135.5134  153.5282 C   0  0  0  0  0  0  0  0  0  0  0  0
  144.4561  135.2393  152.6798 N   0  0  0  0  0  0  0  0  0  0  0  0
  145.6510  135.8962  152.5725 C   0  0  0  0  0  0  0  0  0  0  0  0
  146.0921  137.1197  153.3120 C   0  0  0  0  0  0  0  0  0  0  0  0
  147.3028  137.6506  152.8179 O   0  0  0  0  0  0  0  0  0  0  0  0
  146.3932  135.2317  151.6421 N   0  3  0  0  0  0  0  0  0  0  0  0
  145.6828  134.1330  151.1623 C   0  0  0  0  0  0  0  0  0  0  0  0
  146.0279  133.1678  150.2210 C   0  0  0  0  0  0  0  0  0  0  0  0
  145.0699  132.1666  149.9610 C   0  0  0  0  0  0  0  0  0  0  0  0
  143.8274  132.1503  150.6267 C   0  0  0  0  0  0  0  0  0  0  0  0
  143.4900  133.1347  151.5790 C   0  0  0  0  0  0  0  0  0  0  0  0
  144.4403  134.1254  151.8285 C   0  0  0  0  0  0  0  0  0  0  0  0
  138.2747  137.2451  154.2014 C   0  0  0  0  0  0  0  0  0  0  0  0
  136.9362  137.5373  154.5278 C   0  0  0  0  0  0  0  0  0  0  0  0
  133.2126  138.1740  155.4942 H   0  0  0  0  0  0  0  0  0  0  0  0
  134.7203  137.5356  156.1451 H   0  0  0  0  0  0  0  0  0  0  0  0
  134.2226  137.1241  154.5041 H   0  0  0  0  0  0  0  0  0  0  0  0
  134.4781  139.5405  153.8279 H   0  0  0  0  0  0  0  0  0  0  0  0
  134.9653  139.9516  155.4531 H   0  0  0  0  0  0  0  0  0  0  0  0
  136.8979  140.8564  153.7190 H   0  0  0  0  0  0  0  0  0  0  0  0
  139.2484  140.3425  153.1431 H   0  0  0  0  0  0  0  0  0  0  0  0
  141.2933  137.0308  154.9061 H   0  0  0  0  0  0  0  0  0  0  0  0
  140.4934  136.0115  153.7121 H   0  0  0  0  0  0  0  0  0  0  0  0
  142.2444  136.6715  152.0305 H   0  0  0  0  0  0  0  0  0  0  0  0
  142.8694  138.5889  152.6960 H   0  0  0  0  0  0  0  0  0  0  0  0
  143.6362  135.6515  154.5482 H   0  0  0  0  0  0  0  0  0  0  0  0
  142.6546  134.6202  153.5628 H   0  0  0  0  0  0  0  0  0  0  0  0
  145.3170  137.8815  153.2299 H   0  0  0  0  0  0  0  0  0  0  0  0
  146.2202  136.8970  154.3706 H   0  0  0  0  0  0  0  0  0  0  0  0
  147.6986  137.0114  152.2447 H   0  0  0  0  0  0  0  0  0  0  0  0
  146.9808  133.1773  149.7124 H   0  0  0  0  0  0  0  0  0  0  0  0
  145.2928  131.3949  149.2379 H   0  0  0  0  0  0  0  0  0  0  0  0
  143.1181  131.3667  150.4026 H   0  0  0  0  0  0  0  0  0  0  0  0
  142.5342  133.1103  152.0805 H   0  0  0  0  0  0  0  0  0  0  0  0
  138.6234  136.2346  154.3505 H   0  0  0  0  0  0  0  0  0  0  0  0
  136.2983  136.7560  154.9149 H   0  0  0  0  0  0  0  0  0  0  0  0
  147.3263  135.5107  151.3672 H   0  0  0  0  0  0  0  0  0  0  0  0
  1  2  1  0  0  0  0
  1 25  1  0  0  0  0
  1 26  1  0  0  0  0
  1 27  1  0  0  0  0
  2  3  1  0  0  0  0
  2 28  1  0  0  0  0
  2 29  1  0  0  0  0
  3 24  1  0  0  0  0
  3  4  2  0  0  0  0
  4  5  1  0  0  0  0
  4 30  1  0  0  0  0
  5  6  2  0  0  0  0
  5 31  1  0  0  0  0
  6  7  1  0  0  0  0
  6 23  1  0  0  0  0
  7  8  1  0  0  0  0
  8  9  1  0  0  0  0
  8 32  1  0  0  0  0
  8 33  1  0  0  0  0
  9 10  1  0  0  0  0
  9 11  1  0  0  0  0
  9 34  1  0  0  0  0
 10 35  1  0  0  0  0
 11 12  1  0  0  0  0
 11 36  1  0  0  0  0
 11 37  1  0  0  0  0
 12 22  1  0  0  0  0
 12 13  1  0  0  0  0
 13 14  1  0  0  0  0
 13 16  2  0  0  0  0
 14 15  1  0  0  0  0
 14 38  1  0  0  0  0
 14 39  1  0  0  0  0
 15 40  1  0  0  0  0
 16 17  1  0  0  0  0
 16 47  1  0  0  0  0
 17 22  2  0  0  0  0
 17 18  1  0  0  0  0
 18 19  2  0  0  0  0
 18 41  1  0  0  0  0
 19 20  1  0  0  0  0
 19 42  1  0  0  0  0
 20 21  2  0  0  0  0
 20 43  1  0  0  0  0
 21 22  1  0  0  0  0
 21 44  1  0  0  0  0
 23 24  2  0  0  0  0
 23 45  1  0  0  0  0
 24 46  1  0  0  0  0
M  CHG  1  16   1
M  END
> <s_m_source_file>
AV-unprocessed.smi

> <i_m_source_file_index>
484

> <i_lp_mmshare_version>
43012

> <i_f3d_flags>
0

> <s_epik_input>
W0NIM11bQ0gyXWMxW2NIXVtjSF1jKFtjSF1bY0hdMSlPW0NIMl1bQ0BIXShbT0hdKVtDSDJdbihjKG4yKVtDSDJdW09IXSljKGMyMylbY0hdW2NIXVtjSF1bY0hdMw==

> <s_epik_cmdline>
J2VwaWtfcHl0aG9uJywgJy1waCcsICc3LjAnLCAnLXRuJywgJzgnLCAnLW1hJywgJzIwMCcsICctbWV0YWxfYmluZGluZycsICctaW1hZScsICc8aW5maWxlLm1hZT4nLCAnLW9tYWUnLCAnPG91dGZpbGUubWFlPic=

> <r_lp_tautomer_probability>
1

> <r_epik_Ionization_Penalty>
1.43166

> <r_epik_Ionization_Penalty_Charging>
1.43081

> <r_epik_Ionization_Penalty_Neutral>
0.000858184

> <r_epik_State_Penalty>
1.51538

> <r_epik_Charging_Adjusted_Penalty>
2.94618

> <i_epik_Tot_Q>
1

> <i_epik_Tot_abs_Q>
1

> <r_epik_Metal_State_Penalty>
5.56039

> <b_epik_Metal_Only>
0

> <s_lp_Force_Field>
OPLS_2005

> <r_lp_Energy>
17.0937

> <b_lp_Chiralities_Consistent>
1

> <s_lp_Variant>
AV-unprocessed.smi:484-4

> <Gold.Version>
5.8.1

> <Gold.Id.Protein>
6NUR|6NUR_protein|mol2

> <Gold.PLP.Fitness>
53.2122

> <Gold.PLP.PLP>
-43.4132

> <Gold.PLP.part.hbond>
-2.6136

> <Gold.PLP.part.metal>
0.0000

> <Gold.PLP.part.buried>
-7.3666

> <Gold.PLP.part.nonpolar>
-33.6498

> <Gold.PLP.part.repulsive>
0.2546

> <Gold.PLP.ligand.clash>
0.0000

> <Gold.PLP.ligand.torsion>
0.5091

> <Gold.PLP.Chemscore.Hbond>
3.5280

> <Gold.PLP.Chemscore.CHOScore>
0.0000

> <Gold.PLP.Chemscore.Metal>
0.0000

> <Gold.Chemscore.Hbonds>
donor molecule, donor type, donor heavy atom, donor atom, acceptor molecule, acceptor atom, score
      L1  H    10    35       P1 10175  0.53
      L1  H    15    40       P1  7948  0.92
      L1  H    16    47       P1  7948  1.98

> <Gold.PLP.Chemscore.Internal.Correction>
0.2332

> <Gold.Rescore>
     Score         DG    S(hbond)    S(metal)    S(lipo)     H(rot)  DE(clash)    DE(int)     intcor
     17.67     -18.38       2.23        0.00     116.08       3.18       0.22       0.49       ----

> <Gold.Chemscore.Fitness>
17.6685

> <Gold.Chemscore.DG>
-18.3807

> <Gold.Chemscore.ZeroCoef>
-5.4800

> <Gold.Chemscore.Hbond>
2.2337

> <Gold.Chemscore.Metal>
0.0000

> <Gold.Chemscore.Lipo>
116.0768

> <Gold.Chemscore.Internal_Hbond>
0.0000

> <Gold.Chemscore.DEClash>
0.2198

> <Gold.Chemscore.DEInternal>
0.4924

> <Gold.Chemscore.Rot>
3.1801

> <Gold.Chemscore.Internal.Correction>
   9.000000E+99

> <Gold.Chemscore.Hbonds>
donor molecule, donor type, donor heavy atom, donor atom, acceptor molecule, acceptor atom, score
      L1  H    10    35       P1 10175  0.52
      L1  H    15    40       P1  7948  0.84
      L1  H    16    47       P1  7948  0.88

> <Gold.Chemscore.Hbond.Weighted>
-7.4607

> <Gold.Chemscore.Metal.Weighted>
-0.0000

> <Gold.Chemscore.Lipo.Weighted>
-13.5810

> <Gold.Chemscore.Internal_Hbond.Weighted>
0.0000

> <Gold.Chemscore.DEClash.Weighted>
0.2198

> <Gold.Chemscore.DEInternal.Weighted>
0.4924

> <Gold.Chemscore.Rot.Weighted>
8.1410

> <Gold.Chemscore.Internal.Correction.Weighted>
   9.000000E+99

> <Gold.Protein.RotatedTorsions>
[ 6907 6896 6895 6894 ] final  165.65 input  -60.11 | X-H torsion
[ 7974 7965 7964 7962 ] final   14.11 input  175.53 | X-H torsion
[ 8008 7997 7996 7995 ] final   99.36 input   59.86 | X-H torsion
[ 10167 10162 10161 10158 ] final   48.72 input  -65.29 | X-H torsion
[ 10718 10713 10712 10709 ] final  160.38 input   66.30 | X-H torsion
[ 10763 10752 10751 10750 ] final  -76.40 input  -60.55 | X-H torsion
[ 11005 11000 10999 10996 ] final   28.71 input  -57.11 | X-H torsion

> <Gold.Protein.ActiveResidues>
 VAL166  LYS551  ARG553  GLY616  TRP617  ASP618  TYR619  PRO620  LYS621  CYS622 
 ASP623  PHE694  ASN695  SER759  ASP760  ASP761  ALA762  ILE779  LEU786  VAL792 
 PHE793  MET794  SER795  GLU796  ALA797  LYS798  CYS799  TRP800  GLU811  SER814 

> <Gold.Protein.RotatedAtoms>
  151.8912  133.3516  159.3798 H   0  0  0  0  0  0  0  0  0  0  0  0  # atno 6907 bound_to 6896
  150.7103  134.4922  159.5530 H   0  0  0  0  0  0  0  0  0  0  0  0  # atno 6908 bound_to 6896
  152.2492  134.8150  160.0499 H   0  0  0  0  0  0  0  0  0  0  0  0  # atno 6909 bound_to 6896
  146.2313  139.9089  142.8527 H   0  0  0  0  0  0  0  0  0  0  0  0  # atno 7974 bound_to 7965
  156.1097  140.3230  155.8056 H   0  0  0  0  0  0  0  0  0  0  0  0  # atno 8008 bound_to 7997
  155.4693  140.0545  157.2998 H   0  0  0  0  0  0  0  0  0  0  0  0  # atno 8009 bound_to 7997
  154.4752  140.2029  155.9911 H   0  0  0  0  0  0  0  0  0  0  0  0  # atno 8010 bound_to 7997
  140.2904  144.3053  150.6242 H   0  0  0  0  0  0  0  0  0  0  0  0  # atno 10167 bound_to 10162
  157.1512  131.0564  151.2279 H   0  0  0  0  0  0  0  0  0  0  0  0  # atno 10718 bound_to 10713
  154.4993  135.5799  153.6519 H   0  0  0  0  0  0  0  0  0  0  0  0  # atno 10763 bound_to 10752
  152.9876  135.6132  154.3023 H   0  0  0  0  0  0  0  0  0  0  0  0  # atno 10764 bound_to 10752
  154.2929  135.2848  155.2626 H   0  0  0  0  0  0  0  0  0  0  0  0  # atno 10765 bound_to 10752
  140.3127  134.2631  155.7731 H   0  0  0  0  0  0  0  0  0  0  0  0  # atno 11005 bound_to 11000
  145.2249  140.9950  143.4024 LP  0  0  0  0  0  0  0  0  0  0  0  0  # atno 17320 bound_to 7965
  144.9579  139.4011  143.6370 LP  0  0  0  0  0  0  0  0  0  0  0  0  # atno 17321 bound_to 7965
  140.5737  143.2178  151.7553 LP  0  0  0  0  0  0  0  0  0  0  0  0  # atno 17342 bound_to 10162
  139.4939  144.4180  152.0009 LP  0  0  0  0  0  0  0  0  0  0  0  0  # atno 17343 bound_to 10162
  157.4218  130.7442  149.6920 LP  0  0  0  0  0  0  0  0  0  0  0  0  # atno 17370 bound_to 10713
  155.9770  130.4068  150.3741 LP  0  0  0  0  0  0  0  0  0  0  0  0  # atno 17371 bound_to 10713
  141.2104  133.7719  156.9931 LP  0  0  0  0  0  0  0  0  0  0  0  0  # atno 17394 bound_to 11000
  140.1010  134.9535  157.1923 LP  0  0  0  0  0  0  0  0  0  0  0  0  # atno 17395 bound_to 11000

$$$$
