AV-unprocessed.smi:1242|AV-procd|sdf|5217|dock3
  -GOLD-   22720 4313D 1   1.00000     0.00000
 Structure written by MMmdl.
 39 40  0  0  0  0  0  0  0  0  1 V2000
  150.5051  139.0937  158.2440 O   0  0  0  0  0  0  0  0  0  0  0  0
  151.4075  139.6103  157.5839 C   0  0  0  0  0  0  0  0  0  0  0  0
  152.8103  139.7904  158.1797 C   0  0  0  0  0  0  0  0  0  0  0  0
  152.8717  140.8556  159.1942 N   0  0  0  0  0  0  0  0  0  0  0  0
  152.3644  142.1192  158.8325 C   0  0  0  0  0  0  0  0  0  0  0  0
  152.3464  143.1702  159.6747 C   0  0  0  0  0  0  0  0  0  0  0  0
  151.8378  144.5359  159.2404 C   0  0  0  0  0  0  0  0  0  0  0  0
  150.5536  144.4793  158.8865 F   0  0  0  0  0  0  0  0  0  0  0  0
  151.9625  145.4314  160.2208 F   0  0  0  0  0  0  0  0  0  0  0  0
  152.5383  144.9677  158.1927 F   0  0  0  0  0  0  0  0  0  0  0  0
  152.9160  142.9526  160.9899 C   0  0  0  0  0  0  0  0  0  0  0  0
  153.4102  141.7521  161.3499 C   0  0  0  0  0  0  0  0  0  0  0  0
  153.3993  140.6116  160.4313 C   0  0  0  0  0  0  0  0  0  0  0  0
  153.8392  139.5073  160.7524 O   0  0  0  0  0  0  0  0  0  0  0  0
  151.2367  140.0609  156.3307 N   0  0  0  0  0  0  0  0  0  0  0  0
  149.9954  139.9747  155.5580 C   0  0  1  0  0  0  0  0  0  0  0  0
  149.7151  141.3753  154.9669 C   0  0  0  0  0  0  0  0  0  0  0  0
  148.2397  141.6102  154.5985 C   0  0  0  0  0  0  0  0  0  0  0  0
  147.7036  140.7213  153.4662 C   0  0  0  0  0  0  0  0  0  0  0  0
  147.7218  139.2195  153.7976 C   0  0  0  0  0  0  0  0  0  0  0  0
  149.0555  138.6466  153.6721 N   0  0  0  0  0  0  0  0  0  0  0  0
  150.1371  138.9541  154.4041 C   0  0  0  0  0  0  0  0  0  0  0  0
  151.2241  138.4330  154.1550 O   0  0  0  0  0  0  0  0  0  0  0  0
  153.1509  138.8457  158.6083 H   0  0  0  0  0  0  0  0  0  0  0  0
  153.5014  139.9969  157.3614 H   0  0  0  0  0  0  0  0  0  0  0  0
  151.9832  142.1784  157.8233 H   0  0  0  0  0  0  0  0  0  0  0  0
  152.9419  143.7646  161.7014 H   0  0  0  0  0  0  0  0  0  0  0  0
  153.8239  141.6253  162.3396 H   0  0  0  0  0  0  0  0  0  0  0  0
  152.0332  140.4686  155.8632 H   0  0  0  0  0  0  0  0  0  0  0  0
  149.1826  139.6780  156.2234 H   0  0  0  0  0  0  0  0  0  0  0  0
  149.9820  142.1327  155.7058 H   0  0  0  0  0  0  0  0  0  0  0  0
  150.3558  141.5719  154.1054 H   0  0  0  0  0  0  0  0  0  0  0  0
  147.6202  141.4791  155.4864 H   0  0  0  0  0  0  0  0  0  0  0  0
  148.1180  142.6532  154.3047 H   0  0  0  0  0  0  0  0  0  0  0  0
  146.6736  141.0169  153.2639 H   0  0  0  0  0  0  0  0  0  0  0  0
  148.2547  140.9109  152.5443 H   0  0  0  0  0  0  0  0  0  0  0  0
  147.3135  139.0281  154.7908 H   0  0  0  0  0  0  0  0  0  0  0  0
  147.0785  138.6897  153.0947 H   0  0  0  0  0  0  0  0  0  0  0  0
  149.1803  137.9678  152.9350 H   0  0  0  0  0  0  0  0  0  0  0  0
  1  2  2  0  0  0  0
  2  3  1  0  0  0  0
  2 15  1  0  0  0  0
  3  4  1  0  0  0  0
  3 24  1  0  0  0  0
  3 25  1  0  0  0  0
  4 13  1  0  0  0  0
  4  5  1  0  0  0  0
  5  6  2  0  0  0  0
  5 26  1  0  0  0  0
  6  7  1  0  0  0  0
  6 11  1  0  0  0  0
  7  8  1  0  0  0  0
  7  9  1  0  0  0  0
  7 10  1  0  0  0  0
 11 12  2  0  0  0  0
 11 27  1  0  0  0  0
 12 13  1  0  0  0  0
 12 28  1  0  0  0  0
 13 14  2  0  0  0  0
 15 16  1  0  0  0  0
 15 29  1  0  0  0  0
 16 22  1  0  0  0  0
 16 17  1  0  0  0  0
 16 30  1  0  0  0  0
 17 18  1  0  0  0  0
 17 31  1  0  0  0  0
 17 32  1  0  0  0  0
 18 19  1  0  0  0  0
 18 33  1  0  0  0  0
 18 34  1  0  0  0  0
 19 20  1  0  0  0  0
 19 35  1  0  0  0  0
 19 36  1  0  0  0  0
 20 21  1  0  0  0  0
 20 37  1  0  0  0  0
 20 38  1  0  0  0  0
 21 22  1  0  0  0  0
 21 39  1  0  0  0  0
 22 23  2  0  0  0  0
M  END
> <s_m_source_file>
AV-unprocessed.smi

> <i_m_source_file_index>
1242

> <i_lp_mmshare_version>
43012

> <i_f3d_flags>
0

> <s_epik_input>
Tz1jMVtjSF1bY0hdYyhDKEYpKEYpRilbY0hdbjFbQ0gyXUMoPU8pW05IXVtDQEBIXTJbQ0gyXVtDSDJdW0NIMl1bQ0gyXVtOSF1DMj1P

> <s_epik_cmdline>
J2VwaWtfcHl0aG9uJywgJy1waCcsICc3LjAnLCAnLXRuJywgJzgnLCAnLW1hJywgJzIwMCcsICctbWV0YWxfYmluZGluZycsICctaW1hZScsICc8aW5maWxlLm1hZT4nLCAnLW9tYWUnLCAnPG91dGZpbGUubWFlPic=

> <r_lp_tautomer_probability>
1

> <r_epik_Ionization_Penalty>
6.92876e-08

> <r_epik_Ionization_Penalty_Charging>
1.59659e-08

> <r_epik_Ionization_Penalty_Neutral>
5.33217e-08

> <r_epik_State_Penalty>
-0

> <r_epik_Charging_Adjusted_Penalty>
1.59659e-08

> <i_epik_Tot_Q>
0

> <i_epik_Tot_abs_Q>
0

> <r_epik_Metal_State_Penalty>
-0

> <b_epik_Metal_Only>
0

> <s_lp_Force_Field>
OPLS_2005

> <r_lp_Energy>
23.3592

> <b_lp_Chiralities_Consistent>
1

> <s_lp_Variant>
AV-unprocessed.smi:1242-2

> <Gold.Version>
5.8.1

> <Gold.Id.Protein>
6NUR|6NUR_protein|mol2

> <Gold.PLP.Fitness>
54.9450

> <Gold.PLP.PLP>
-52.5625

> <Gold.PLP.part.hbond>
-2.0000

> <Gold.PLP.part.metal>
0.0000

> <Gold.PLP.part.buried>
-4.0868

> <Gold.PLP.part.nonpolar>
-46.9582

> <Gold.PLP.part.repulsive>
0.3632

> <Gold.PLP.ligand.clash>
0.0000

> <Gold.PLP.ligand.torsion>
0.3260

> <Gold.PLP.Chemscore.Hbond>
1.0000

> <Gold.PLP.Chemscore.CHOScore>
0.0000

> <Gold.PLP.Chemscore.Metal>
0.0000

> <Gold.Chemscore.Hbonds>
donor molecule, donor type, donor heavy atom, donor atom, acceptor molecule, acceptor atom, score
      L1  H    21    39       P1  7948  1.00

> <Gold.PLP.Chemscore.Internal.Correction>
0.0345

> <Gold.Rescore>
     Score         DG    S(hbond)    S(metal)    S(lipo)     H(rot)  DE(clash)    DE(int)     intcor
     15.27     -15.54       0.99        0.00      95.48       1.72       0.08       0.19       ----

> <Gold.Chemscore.Fitness>
15.2702

> <Gold.Chemscore.DG>
-15.5362

> <Gold.Chemscore.ZeroCoef>
-5.4800

> <Gold.Chemscore.Hbond>
0.9855

> <Gold.Chemscore.Metal>
0.0000

> <Gold.Chemscore.Lipo>
95.4773

> <Gold.Chemscore.Internal_Hbond>
0.0000

> <Gold.Chemscore.DEClash>
0.0809

> <Gold.Chemscore.DEInternal>
0.1851

> <Gold.Chemscore.Rot>
1.7212

> <Gold.Chemscore.Internal.Correction>
   9.000000E+99

> <Gold.Chemscore.Hbonds>
donor molecule, donor type, donor heavy atom, donor atom, acceptor molecule, acceptor atom, score
      L1  H    21    39       P1  7948  0.93

> <Gold.Chemscore.Hbond.Weighted>
-3.2916

> <Gold.Chemscore.Metal.Weighted>
-0.0000

> <Gold.Chemscore.Lipo.Weighted>
-11.1708

> <Gold.Chemscore.Internal_Hbond.Weighted>
0.0000

> <Gold.Chemscore.DEClash.Weighted>
0.0809

> <Gold.Chemscore.DEInternal.Weighted>
0.1851

> <Gold.Chemscore.Rot.Weighted>
4.4062

> <Gold.Chemscore.Internal.Correction.Weighted>
   9.000000E+99

> <Gold.Protein.RotatedTorsions>
[ 6907 6896 6895 6894 ] final  164.07 input  -60.11 | X-H torsion
[ 7974 7965 7964 7962 ] final -166.01 input  175.53 | X-H torsion
[ 8008 7997 7996 7995 ] final -136.77 input   59.86 | X-H torsion
[ 10167 10162 10161 10158 ] final  148.41 input  -65.29 | X-H torsion
[ 10718 10713 10712 10709 ] final   83.32 input   66.30 | X-H torsion
[ 10763 10752 10751 10750 ] final  126.61 input  -60.55 | X-H torsion
[ 11005 11000 10999 10996 ] final   99.31 input  -57.11 | X-H torsion

> <Gold.Protein.ActiveResidues>
 VAL166  LYS551  ARG553  GLY616  TRP617  ASP618  TYR619  PRO620  LYS621  CYS622 
 ASP623  PHE694  ASN695  SER759  ASP760  ASP761  ALA762  ILE779  LEU786  VAL792 
 PHE793  MET794  SER795  GLU796  ALA797  LYS798  CYS799  TRP800  GLU811  SER814 

> <Gold.Protein.RotatedAtoms>
  151.9155  133.3572  159.3878 H   0  0  0  0  0  0  0  0  0  0  0  0  # atno 6907 bound_to 6896
  150.7048  134.4688  159.5425 H   0  0  0  0  0  0  0  0  0  0  0  0  # atno 6908 bound_to 6896
  152.2302  134.8329  160.0525 H   0  0  0  0  0  0  0  0  0  0  0  0  # atno 6909 bound_to 6896
  144.7255  140.2729  143.6248 H   0  0  0  0  0  0  0  0  0  0  0  0  # atno 7974 bound_to 7965
  155.4008  140.0506  157.3037 H   0  0  0  0  0  0  0  0  0  0  0  0  # atno 8008 bound_to 7997
  154.4992  140.2150  155.9344 H   0  0  0  0  0  0  0  0  0  0  0  0  # atno 8009 bound_to 7997
  156.1445  140.3148  155.8553 H   0  0  0  0  0  0  0  0  0  0  0  0  # atno 8010 bound_to 7997
  139.4875  144.5681  151.7106 H   0  0  0  0  0  0  0  0  0  0  0  0  # atno 10167 bound_to 10162
  157.6876  131.0086  150.2506 H   0  0  0  0  0  0  0  0  0  0  0  0  # atno 10718 bound_to 10713
  153.6961  135.3291  155.3214 H   0  0  0  0  0  0  0  0  0  0  0  0  # atno 10763 bound_to 10752
  154.8426  135.4443  154.1458 H   0  0  0  0  0  0  0  0  0  0  0  0  # atno 10764 bound_to 10752
  153.2513  135.6981  153.7754 H   0  0  0  0  0  0  0  0  0  0  0  0  # atno 10765 bound_to 10752
  139.8771  134.9089  156.4586 H   0  0  0  0  0  0  0  0  0  0  0  0  # atno 11005 bound_to 11000
  145.8025  139.1970  143.2040 LP  0  0  0  0  0  0  0  0  0  0  0  0  # atno 17320 bound_to 7965
  146.0664  140.7915  142.9709 LP  0  0  0  0  0  0  0  0  0  0  0  0  # atno 17321 bound_to 7965
  140.5264  144.0800  150.6039 LP  0  0  0  0  0  0  0  0  0  0  0  0  # atno 17342 bound_to 10162
  140.3775  143.2821  152.0208 LP  0  0  0  0  0  0  0  0  0  0  0  0  # atno 17343 bound_to 10162
  156.3103  130.3771  149.7668 LP  0  0  0  0  0  0  0  0  0  0  0  0  # atno 17370 bound_to 10713
  156.5270  130.8240  151.3224 LP  0  0  0  0  0  0  0  0  0  0  0  0  # atno 17371 bound_to 10713
  140.8880  133.7869  155.9540 LP  0  0  0  0  0  0  0  0  0  0  0  0  # atno 17394 bound_to 11000
  140.8784  134.2642  157.5156 LP  0  0  0  0  0  0  0  0  0  0  0  0  # atno 17395 bound_to 11000

$$$$
