AV-unprocessed.smi:15|AV-procd|sdf|82|dock10
  -GOLD-   2262015213D 1   1.00000     0.00000
 Structure written by MMmdl.
 53 56  0  0  0  0  0  0  0  0  1 V2000
  152.3294  138.3456  159.5131 C   0  0  0  0  0  0  0  0  0  0  0  0
  152.7458  139.7328  159.0068 C   0  0  0  0  0  0  0  0  0  0  0  0
  152.0302  140.1296  157.7945 N   0  0  0  0  0  0  0  0  0  0  0  0
  150.8366  140.9724  157.8894 C   0  0  0  0  0  0  0  0  0  0  0  0
  150.9614  142.0894  158.9441 C   0  0  1  0  0  0  0  0  0  0  0  0
  151.9175  143.2083  158.5374 C   0  0  0  0  0  0  0  0  0  0  0  0
  151.4223  144.4089  159.3299 C   0  0  0  0  0  0  0  0  0  0  0  0
  150.0238  143.9961  159.7967 C   0  0  0  0  0  0  0  0  0  0  0  0
  149.7401  142.7983  159.0895 O   0  0  0  0  0  0  0  0  0  0  0  0
  151.9928  139.2333  156.7794 C   0  0  0  0  0  0  0  0  0  0  0  0
  152.8876  139.3925  155.7711 N   0  0  0  0  0  0  0  0  0  0  0  0
  152.8763  138.5614  154.7253 C   0  0  0  0  0  0  0  0  0  0  0  0
  152.0612  137.5328  154.4854 N   0  0  0  0  0  0  0  0  0  0  0  0
  151.1504  137.3772  155.4885 C   0  0  0  0  0  0  0  0  0  0  0  0
  151.0514  138.1689  156.6677 C   0  0  0  0  0  0  0  0  0  0  0  0
  149.9955  137.7164  157.4507 N   0  0  0  0  0  0  0  0  0  0  0  0
  149.4998  136.7173  156.7743 C   0  0  0  0  0  0  0  0  0  0  0  0
  150.1218  136.4549  155.5749 N   0  0  0  0  0  0  0  0  0  0  0  0
  149.7562  135.4276  154.6121 C   0  0  0  0  0  0  0  0  0  0  0  0
  149.5034  134.0429  155.2587 C   0  0  2  0  0  0  0  0  0  0  0  0
  148.2520  134.0843  155.9248 O   0  0  0  0  0  0  0  0  0  0  0  0
  150.5788  133.6805  156.2885 C   0  0  0  0  0  0  0  0  0  0  0  0
  151.3226  132.5111  155.6536 C   0  0  0  0  0  0  0  0  0  0  0  0
  150.3096  131.8571  154.9104 O   0  0  0  0  0  0  0  0  0  0  0  0
  149.5668  132.8687  154.2465 C   0  0  1  0  0  0  0  0  0  0  0  0
  148.2293  132.3129  153.7295 C   0  0  0  0  0  0  0  0  0  0  0  0
  152.8276  138.1172  160.4554 H   0  0  0  0  0  0  0  0  0  0  0  0
  152.5950  137.5589  158.8073 H   0  0  0  0  0  0  0  0  0  0  0  0
  151.2541  138.2964  159.6868 H   0  0  0  0  0  0  0  0  0  0  0  0
  152.5499  140.4581  159.7980 H   0  0  0  0  0  0  0  0  0  0  0  0
  153.8203  139.7511  158.8256 H   0  0  0  0  0  0  0  0  0  0  0  0
  150.6566  141.4224  156.9140 H   0  0  0  0  0  0  0  0  0  0  0  0
  149.9566  140.3615  158.0943 H   0  0  0  0  0  0  0  0  0  0  0  0
  151.2658  141.6873  159.9116 H   0  0  0  0  0  0  0  0  0  0  0  0
  152.9603  142.9645  158.7424 H   0  0  0  0  0  0  0  0  0  0  0  0
  151.8238  143.4135  157.4701 H   0  0  0  0  0  0  0  0  0  0  0  0
  152.0659  144.6174  160.1851 H   0  0  0  0  0  0  0  0  0  0  0  0
  151.3927  145.3021  158.7052 H   0  0  0  0  0  0  0  0  0  0  0  0
  150.0202  143.7889  160.8680 H   0  0  0  0  0  0  0  0  0  0  0  0
  149.2712  144.7585  159.5947 H   0  0  0  0  0  0  0  0  0  0  0  0
  153.6232  138.7523  153.9689 H   0  0  0  0  0  0  0  0  0  0  0  0
  148.6496  136.1511  157.1256 H   0  0  0  0  0  0  0  0  0  0  0  0
  148.8641  135.7597  154.0792 H   0  0  0  0  0  0  0  0  0  0  0  0
  150.5491  135.3606  153.8658 H   0  0  0  0  0  0  0  0  0  0  0  0
  147.8120  134.8848  155.6821 H   0  0  0  0  0  0  0  0  0  0  0  0
  151.2476  134.5080  156.5281 H   0  0  0  0  0  0  0  0  0  0  0  0
  150.1307  133.3465  157.2258 H   0  0  0  0  0  0  0  0  0  0  0  0
  152.1052  132.8639  154.9798 H   0  0  0  0  0  0  0  0  0  0  0  0
  151.7746  131.8484  156.3915 H   0  0  0  0  0  0  0  0  0  0  0  0
  150.1706  133.1663  153.3886 H   0  0  0  0  0  0  0  0  0  0  0  0
  147.6369  133.0920  153.2498 H   0  0  0  0  0  0  0  0  0  0  0  0
  147.6335  131.8831  154.5348 H   0  0  0  0  0  0  0  0  0  0  0  0
  148.3975  131.5284  152.9916 H   0  0  0  0  0  0  0  0  0  0  0  0
  1  2  1  0  0  0  0
  1 27  1  0  0  0  0
  1 28  1  0  0  0  0
  1 29  1  0  0  0  0
  2  3  1  0  0  0  0
  2 30  1  0  0  0  0
  2 31  1  0  0  0  0
  3  4  1  0  0  0  0
  3 10  1  0  0  0  0
  4  5  1  0  0  0  0
  4 32  1  0  0  0  0
  4 33  1  0  0  0  0
  5  9  1  0  0  0  0
  5  6  1  0  0  0  0
  5 34  1  0  0  0  0
  6  7  1  0  0  0  0
  6 35  1  0  0  0  0
  6 36  1  0  0  0  0
  7  8  1  0  0  0  0
  7 37  1  0  0  0  0
  7 38  1  0  0  0  0
  8  9  1  0  0  0  0
  8 39  1  0  0  0  0
  8 40  1  0  0  0  0
 10 15  1  0  0  0  0
 10 11  2  0  0  0  0
 11 12  1  0  0  0  0
 12 13  2  0  0  0  0
 12 41  1  0  0  0  0
 13 14  1  0  0  0  0
 14 18  1  0  0  0  0
 14 15  2  0  0  0  0
 15 16  1  0  0  0  0
 16 17  2  0  0  0  0
 17 18  1  0  0  0  0
 17 42  1  0  0  0  0
 18 19  1  0  0  0  0
 19 20  1  0  0  0  0
 19 43  1  0  0  0  0
 19 44  1  0  0  0  0
 20 25  1  0  0  0  0
 20 21  1  0  0  0  0
 20 22  1  0  0  0  0
 21 45  1  0  0  0  0
 22 23  1  0  0  0  0
 22 46  1  0  0  0  0
 22 47  1  0  0  0  0
 23 24  1  0  0  0  0
 23 48  1  0  0  0  0
 23 49  1  0  0  0  0
 24 25  1  0  0  0  0
 25 26  1  0  0  0  0
 25 50  1  0  0  0  0
 26 51  1  0  0  0  0
 26 52  1  0  0  0  0
 26 53  1  0  0  0  0
M  END
> <s_m_source_file>
AV-unprocessed.smi

> <i_m_source_file_index>
15

> <i_lp_mmshare_version>
43012

> <i_f3d_flags>
0

> <s_epik_input>
TzFbQ0gyXVtDSDJdW0NIMl1bQ0BIXTFbQ0gyXU4oW0NIMl1bQ0gzXSljKG5bY0hdbjIpYyhjMjMpbltjSF1uM1tDSDJdW0NAQF00KFtPSF0pW0NIMl1bQ0gyXU9bQ0BIXTRbQ0gzXQ==

> <s_epik_cmdline>
J2VwaWtfcHl0aG9uJywgJy1waCcsICc3LjAnLCAnLXRuJywgJzgnLCAnLW1hJywgJzIwMCcsICctbWV0YWxfYmluZGluZycsICctaW1hZScsICc8aW5maWxlLm1hZT4nLCAnLW9tYWUnLCAnPG91dGZpbGUubWFlPic=

> <r_lp_tautomer_probability>
1

> <r_epik_Ionization_Penalty>
0.00360814

> <r_epik_Ionization_Penalty_Charging>
0

> <r_epik_Ionization_Penalty_Neutral>
0.00360814

> <r_epik_State_Penalty>
0.00237482

> <r_epik_Charging_Adjusted_Penalty>
0.00237482

> <i_epik_Tot_Q>
0

> <i_epik_Tot_abs_Q>
0

> <r_epik_Metal_State_Penalty>
-0

> <b_epik_Metal_Only>
0

> <s_lp_Force_Field>
OPLS_2005

> <r_lp_Energy>
44.887

> <b_lp_Chiralities_Consistent>
1

> <s_lp_Variant>
AV-unprocessed.smi:15-4

> <Gold.Version>
5.8.1

> <Gold.Id.Protein>
6NUR|6NUR_protein|mol2

> <Gold.PLP.Fitness>
43.1183

> <Gold.PLP.PLP>
-41.0094

> <Gold.PLP.part.hbond>
-2.0062

> <Gold.PLP.part.metal>
0.0000

> <Gold.PLP.part.buried>
-6.5081

> <Gold.PLP.part.nonpolar>
-32.8606

> <Gold.PLP.part.repulsive>
0.2355

> <Gold.PLP.ligand.clash>
0.0000

> <Gold.PLP.ligand.torsion>
2.1178

> <Gold.PLP.Chemscore.Hbond>
1.8000

> <Gold.PLP.Chemscore.CHOScore>
0.0000

> <Gold.PLP.Chemscore.Metal>
0.0000

> <Gold.Chemscore.Hbonds>
donor molecule, donor type, donor heavy atom, donor atom, acceptor molecule, acceptor atom, score
      P1  H  7997  8008       L1    11  1.00
      P1  H 10752 10765       L1    13  0.77

> <Gold.PLP.Chemscore.Internal.Correction>
0.9446

> <Gold.Rescore>
     Score         DG    S(hbond)    S(metal)    S(lipo)     H(rot)  DE(clash)    DE(int)     intcor
     13.16     -15.30       1.58        0.00      92.44       2.44       0.00       2.15       ----

> <Gold.Chemscore.Fitness>
13.1552

> <Gold.Chemscore.DG>
-15.3029

> <Gold.Chemscore.ZeroCoef>
-5.4800

> <Gold.Chemscore.Hbond>
1.5753

> <Gold.Chemscore.Metal>
0.0000

> <Gold.Chemscore.Lipo>
92.4421

> <Gold.Chemscore.Internal_Hbond>
0.0000

> <Gold.Chemscore.DEClash>
0.0015

> <Gold.Chemscore.DEInternal>
2.1462

> <Gold.Chemscore.Rot>
2.4431

> <Gold.Chemscore.Internal.Correction>
   9.000000E+99

> <Gold.Chemscore.Hbonds>
donor molecule, donor type, donor heavy atom, donor atom, acceptor molecule, acceptor atom, score
      P1  H  7997  8008       L1    11  0.66
      P1  H 10752 10765       L1    13  0.34

> <Gold.Chemscore.Hbond.Weighted>
-5.2616

> <Gold.Chemscore.Metal.Weighted>
-0.0000

> <Gold.Chemscore.Lipo.Weighted>
-10.8157

> <Gold.Chemscore.Internal_Hbond.Weighted>
0.0000

> <Gold.Chemscore.DEClash.Weighted>
0.0015

> <Gold.Chemscore.DEInternal.Weighted>
2.1462

> <Gold.Chemscore.Rot.Weighted>
6.2544

> <Gold.Chemscore.Internal.Correction.Weighted>
   9.000000E+99

> <Gold.Protein.RotatedTorsions>
[ 6907 6896 6895 6894 ] final -178.62 input  -60.11 | X-H torsion
[ 7974 7965 7964 7962 ] final -176.89 input  175.53 | X-H torsion
[ 8008 7997 7996 7995 ] final  -12.87 input   59.86 | X-H torsion
[ 10167 10162 10161 10158 ] final  -89.54 input  -65.29 | X-H torsion
[ 10718 10713 10712 10709 ] final  153.34 input   66.30 | X-H torsion
[ 10763 10752 10751 10750 ] final  161.62 input  -60.55 | X-H torsion
[ 11005 11000 10999 10996 ] final  143.82 input  -57.11 | X-H torsion

> <Gold.Protein.ActiveResidues>
 VAL166  LYS551  ARG553  GLY616  TRP617  ASP618  TYR619  PRO620  LYS621  CYS622 
 ASP623  PHE694  ASN695  SER759  ASP760  ASP761  ALA762  ILE779  LEU786  VAL792 
 PHE793  MET794  SER795  GLU796  ALA797  LYS798  CYS799  TRP800  GLU811  SER814 

> <Gold.Protein.RotatedAtoms>
  151.6402  133.3326  159.3128 H   0  0  0  0  0  0  0  0  0  0  0  0  # atno 6907 bound_to 6896
  150.8012  134.7110  159.6613 H   0  0  0  0  0  0  0  0  0  0  0  0  # atno 6908 bound_to 6896
  152.4104  134.6138  160.0084 H   0  0  0  0  0  0  0  0  0  0  0  0  # atno 6909 bound_to 6896
  144.7127  140.1102  143.6411 H   0  0  0  0  0  0  0  0  0  0  0  0  # atno 7974 bound_to 7965
  154.5340  140.2264  155.8754 H   0  0  0  0  0  0  0  0  0  0  0  0  # atno 8008 bound_to 7997
  156.1793  140.3104  155.9081 H   0  0  0  0  0  0  0  0  0  0  0  0  # atno 8009 bound_to 7997
  155.3392  140.0449  157.3035 H   0  0  0  0  0  0  0  0  0  0  0  0  # atno 8010 bound_to 7997
  140.3638  143.2828  151.9582 H   0  0  0  0  0  0  0  0  0  0  0  0  # atno 10167 bound_to 10162
  157.2460  131.0769  151.1761 H   0  0  0  0  0  0  0  0  0  0  0  0  # atno 10718 bound_to 10713
  154.2658  135.2767  155.2759 H   0  0  0  0  0  0  0  0  0  0  0  0  # atno 10763 bound_to 10752
  154.5344  135.5720  153.6790 H   0  0  0  0  0  0  0  0  0  0  0  0  # atno 10764 bound_to 10752
  152.9954  135.6236  154.2810 H   0  0  0  0  0  0  0  0  0  0  0  0  # atno 10765 bound_to 10752
  140.0583  134.9218  157.1140 H   0  0  0  0  0  0  0  0  0  0  0  0  # atno 11005 bound_to 11000
  145.9461  139.2702  143.1240 LP  0  0  0  0  0  0  0  0  0  0  0  0  # atno 17320 bound_to 7965
  145.9372  140.9006  143.0326 LP  0  0  0  0  0  0  0  0  0  0  0  0  # atno 17321 bound_to 7965
  139.4811  144.5969  151.7675 LP  0  0  0  0  0  0  0  0  0  0  0  0  # atno 17342 bound_to 10162
  140.5101  144.1039  150.5993 LP  0  0  0  0  0  0  0  0  0  0  0  0  # atno 17343 bound_to 10162
  157.3328  130.6994  149.6335 LP  0  0  0  0  0  0  0  0  0  0  0  0  # atno 17370 bound_to 10713
  155.9668  130.4302  150.4867 LP  0  0  0  0  0  0  0  0  0  0  0  0  # atno 17371 bound_to 10713
  140.3809  134.2288  155.7171 LP  0  0  0  0  0  0  0  0  0  0  0  0  # atno 17394 bound_to 11000
  141.1962  133.8088  157.0682 LP  0  0  0  0  0  0  0  0  0  0  0  0  # atno 17395 bound_to 11000

$$$$
