AV-unprocessed.smi:740|AV-procd|sdf|3552|dock9
  -GOLD-   22720 0553D 1   1.00000     0.00000
 Structure written by MMmdl.
 45 47  0  0  0  0  0  0  0  0  2 V2000
  152.6090  143.2196  161.8663 C   0  0  0  0  0  0  0  0  0  0  0  0
  152.3652  142.6372  160.4844 C   0  0  0  0  0  0  0  0  0  0  0  0
  151.4797  143.3126  159.6150 C   0  0  0  0  0  0  0  0  0  0  0  0
  151.2754  142.7546  158.3588 C   0  0  0  0  0  0  0  0  0  0  0  0
  150.4742  143.1716  157.2942 N   0  3  0  0  0  0  0  0  0  0  0  0
  150.5981  142.2933  156.2613 C   0  0  0  0  0  0  0  0  0  0  0  0
  151.4693  141.3228  156.6491 N   0  0  0  0  0  0  0  0  0  0  0  0
  151.9446  140.1456  155.9083 C   0  0  0  0  0  0  0  0  0  0  0  0
  150.9772  138.9497  156.0054 C   0  0  2  0  0  0  0  0  0  0  0  0
  151.7117  137.7533  155.8339 O   0  0  0  0  0  0  0  0  0  0  0  0
  149.8785  139.0198  154.9244 C   0  0  0  0  0  0  0  0  0  0  0  0
  148.8545  140.0218  155.2419 N   0  0  0  0  0  0  0  0  0  0  0  0
  148.0916  139.9929  156.3431 C   0  0  0  0  0  0  0  0  0  0  0  0
  148.1355  139.1483  157.2372 O   0  0  0  0  0  0  0  0  0  0  0  0
  147.1190  141.1637  156.3645 C   0  0  0  0  0  0  0  0  0  0  0  0
  147.4287  141.9047  155.0550 C   0  0  2  0  0  0  0  0  0  0  0  0
  146.2225  142.0193  154.1082 C   0  0  0  0  0  0  0  0  0  0  0  0
  148.5467  141.0582  154.4492 C   0  0  0  0  0  0  0  0  0  0  0  0
  149.0702  141.3236  153.3669 O   0  0  0  0  0  0  0  0  0  0  0  0
  151.9180  141.5686  157.9526 C   0  0  0  0  0  0  0  0  0  0  0  0
  152.7946  140.8914  158.7975 C   0  0  0  0  0  0  0  0  0  0  0  0
  153.0129  141.4409  160.0813 C   0  0  0  0  0  0  0  0  0  0  0  0
  153.9601  140.7201  161.0257 C   0  0  0  0  0  0  0  0  0  0  0  0
  152.0737  144.1596  162.0030 H   0  0  0  0  0  0  0  0  0  0  0  0
  153.6704  143.4165  162.0192 H   0  0  0  0  0  0  0  0  0  0  0  0
  152.2698  142.5273  162.6373 H   0  0  0  0  0  0  0  0  0  0  0  0
  150.9812  144.2227  159.9152 H   0  0  0  0  0  0  0  0  0  0  0  0
  150.0962  142.3552  155.3065 H   0  0  0  0  0  0  0  0  0  0  0  0
  152.0471  140.4522  154.8666 H   0  0  0  0  0  0  0  0  0  0  0  0
  152.9463  139.8802  156.2472 H   0  0  0  0  0  0  0  0  0  0  0  0
  150.5280  138.9427  156.9995 H   0  0  0  0  0  0  0  0  0  0  0  0
  152.6269  137.9386  155.9795 H   0  0  0  0  0  0  0  0  0  0  0  0
  150.3272  139.2918  153.9673 H   0  0  0  0  0  0  0  0  0  0  0  0
  149.4356  138.0357  154.7600 H   0  0  0  0  0  0  0  0  0  0  0  0
  146.0923  140.7976  156.4055 H   0  0  0  0  0  0  0  0  0  0  0  0
  147.2986  141.7921  157.2375 H   0  0  0  0  0  0  0  0  0  0  0  0
  147.8210  142.8986  155.2744 H   0  0  0  0  0  0  0  0  0  0  0  0
  146.4786  142.5825  153.2103 H   0  0  0  0  0  0  0  0  0  0  0  0
  145.3952  142.5368  154.5944 H   0  0  0  0  0  0  0  0  0  0  0  0
  145.8617  141.0384  153.7957 H   0  0  0  0  0  0  0  0  0  0  0  0
  153.2861  139.9794  158.4938 H   0  0  0  0  0  0  0  0  0  0  0  0
  154.3318  139.7930  160.5883 H   0  0  0  0  0  0  0  0  0  0  0  0
  153.4550  140.4670  161.9581 H   0  0  0  0  0  0  0  0  0  0  0  0
  154.8204  141.3488  161.2565 H   0  0  0  0  0  0  0  0  0  0  0  0
  149.8849  143.9942  157.2717 H   0  0  0  0  0  0  0  0  0  0  0  0
  1  2  1  0  0  0  0
  1 24  1  0  0  0  0
  1 25  1  0  0  0  0
  1 26  1  0  0  0  0
  2 22  1  0  0  0  0
  2  3  2  0  0  0  0
  3  4  1  0  0  0  0
  3 27  1  0  0  0  0
  4 20  2  0  0  0  0
  4  5  1  0  0  0  0
  5  6  2  0  0  0  0
  5 45  1  0  0  0  0
  6  7  1  0  0  0  0
  6 28  1  0  0  0  0
  7  8  1  0  0  0  0
  7 20  1  0  0  0  0
  8  9  1  0  0  0  0
  8 29  1  0  0  0  0
  8 30  1  0  0  0  0
  9 10  1  0  0  0  0
  9 11  1  0  0  0  0
  9 31  1  0  0  0  0
 10 32  1  0  0  0  0
 11 12  1  0  0  0  0
 11 33  1  0  0  0  0
 11 34  1  0  0  0  0
 12 18  1  0  0  0  0
 12 13  1  0  0  0  0
 13 14  2  0  0  0  0
 13 15  1  0  0  0  0
 15 16  1  0  0  0  0
 15 35  1  0  0  0  0
 15 36  1  0  0  0  0
 16 17  1  0  0  0  0
 16 18  1  0  0  0  0
 16 37  1  0  0  0  0
 17 38  1  0  0  0  0
 17 39  1  0  0  0  0
 17 40  1  0  0  0  0
 18 19  2  0  0  0  0
 20 21  1  0  0  0  0
 21 22  2  0  0  0  0
 21 41  1  0  0  0  0
 22 23  1  0  0  0  0
 23 42  1  0  0  0  0
 23 43  1  0  0  0  0
 23 44  1  0  0  0  0
M  CHG  1   5   1
M  END
> <s_m_source_file>
AV-unprocessed.smi

> <i_m_source_file_index>
740

> <i_lp_mmshare_version>
43012

> <i_f3d_flags>
0

> <s_epik_input>
W0NIM11jKFtjSF0xKWMoW0NIM10pW2NIXWMoYzEyKW4oW2NIXW4yKVtDSDJdW0NASF0oW09IXSlbQ0gyXU4zQyg9TylbQ0gyXVtDQEBIXShbQ0gzXSlDMz1P

> <s_epik_cmdline>
J2VwaWtfcHl0aG9uJywgJy1waCcsICc3LjAnLCAnLXRuJywgJzgnLCAnLW1hJywgJzIwMCcsICctbWV0YWxfYmluZGluZycsICctaW1hZScsICc8aW5maWxlLm1hZT4nLCAnLW9tYWUnLCAnPG91dGZpbGUubWFlPic=

> <r_lp_tautomer_probability>
1

> <r_epik_Ionization_Penalty>
1.08202

> <r_epik_Ionization_Penalty_Charging>
1.08202

> <r_epik_Ionization_Penalty_Neutral>
1.16605e-06

> <r_epik_State_Penalty>
1.13754

> <r_epik_Charging_Adjusted_Penalty>
2.21956

> <i_epik_Tot_Q>
1

> <i_epik_Tot_abs_Q>
1

> <r_epik_Metal_State_Penalty>
5.13645

> <b_epik_Metal_Only>
0

> <s_lp_Force_Field>
OPLS_2005

> <r_lp_Energy>
22.2654

> <b_lp_Chiralities_Consistent>
1

> <s_lp_Variant>
AV-unprocessed.smi:740-7

> <Gold.Version>
5.8.1

> <Gold.Id.Protein>
6NUR|6NUR_protein|mol2

> <Gold.PLP.Fitness>
46.9149

> <Gold.PLP.PLP>
-41.3051

> <Gold.PLP.part.hbond>
-2.9376

> <Gold.PLP.part.metal>
0.0000

> <Gold.PLP.part.buried>
-4.3666

> <Gold.PLP.part.nonpolar>
-37.0729

> <Gold.PLP.part.repulsive>
3.8728

> <Gold.PLP.ligand.clash>
0.0000

> <Gold.PLP.ligand.torsion>
0.7607

> <Gold.PLP.Chemscore.Hbond>
2.2054

> <Gold.PLP.Chemscore.CHOScore>
0.1675

> <Gold.PLP.Chemscore.Metal>
0.0000

> <Gold.Chemscore.Hbonds>
donor molecule, donor type, donor heavy atom, donor atom, acceptor molecule, acceptor atom, score
      L1  H     5    45       P1  8028  1.12
      P1  H  8011  8017       L1    19  0.98
      L1  C     6    28       P1  8028  0.24

> <Gold.PLP.Chemscore.Internal.Correction>
0.0128

> <Gold.Rescore>
     Score         DG    S(hbond)    S(metal)    S(lipo)     H(rot)  DE(clash)    DE(int)     intcor
     15.45     -18.49       1.95        0.00     107.54       2.37       2.10       0.93       ----

> <Gold.Chemscore.Fitness>
15.4519

> <Gold.Chemscore.DG>
-18.4861

> <Gold.Chemscore.ZeroCoef>
-5.4800

> <Gold.Chemscore.Hbond>
1.9451

> <Gold.Chemscore.Metal>
0.0000

> <Gold.Chemscore.Lipo>
107.5450

> <Gold.Chemscore.Internal_Hbond>
0.0000

> <Gold.Chemscore.DEClash>
2.1037

> <Gold.Chemscore.DEInternal>
0.9306

> <Gold.Chemscore.Rot>
2.3724

> <Gold.Chemscore.Internal.Correction>
   9.000000E+99

> <Gold.Chemscore.Hbonds>
donor molecule, donor type, donor heavy atom, donor atom, acceptor molecule, acceptor atom, score
      L1  H     5    45       P1  8028  0.40
      P1  H  8011  8017       L1    19  0.93

> <Gold.Chemscore.Hbond.Weighted>
-6.4968

> <Gold.Chemscore.Metal.Weighted>
-0.0000

> <Gold.Chemscore.Lipo.Weighted>
-12.5828

> <Gold.Chemscore.Internal_Hbond.Weighted>
0.0000

> <Gold.Chemscore.DEClash.Weighted>
2.1037

> <Gold.Chemscore.DEInternal.Weighted>
0.9306

> <Gold.Chemscore.Rot.Weighted>
6.0734

> <Gold.Chemscore.Internal.Correction.Weighted>
   9.000000E+99

> <Gold.Protein.RotatedTorsions>
[ 6907 6896 6895 6894 ] final  115.31 input  -60.11 | X-H torsion
[ 7974 7965 7964 7962 ] final  164.14 input  175.53 | X-H torsion
[ 8008 7997 7996 7995 ] final -120.23 input   59.86 | X-H torsion
[ 10167 10162 10161 10158 ] final  -29.97 input  -65.29 | X-H torsion
[ 10718 10713 10712 10709 ] final   59.60 input   66.30 | X-H torsion
[ 10763 10752 10751 10750 ] final  -53.75 input  -60.55 | X-H torsion
[ 11005 11000 10999 10996 ] final   95.75 input  -57.11 | X-H torsion

> <Gold.Protein.ActiveResidues>
 VAL166  LYS551  ARG553  GLY616  TRP617  ASP618  TYR619  PRO620  LYS621  CYS622 
 ASP623  PHE694  ASN695  SER759  ASP760  ASP761  ALA762  ILE779  LEU786  VAL792 
 PHE793  MET794  SER795  GLU796  ALA797  LYS798  CYS799  TRP800  GLU811  SER814 

> <Gold.Protein.RotatedAtoms>
  152.4750  133.8116  159.7006 H   0  0  0  0  0  0  0  0  0  0  0  0  # atno 6907 bound_to 6896
  150.8761  133.7428  159.2953 H   0  0  0  0  0  0  0  0  0  0  0  0  # atno 6908 bound_to 6896
  151.4947  135.1062  159.9865 H   0  0  0  0  0  0  0  0  0  0  0  0  # atno 6909 bound_to 6896
  144.7558  139.8283  143.6350 H   0  0  0  0  0  0  0  0  0  0  0  0  # atno 7974 bound_to 7965
  155.1284  140.0400  157.2768 H   0  0  0  0  0  0  0  0  0  0  0  0  # atno 8008 bound_to 7997
  154.6561  140.2580  155.7134 H   0  0  0  0  0  0  0  0  0  0  0  0  # atno 8009 bound_to 7997
  156.2599  140.2826  156.1014 H   0  0  0  0  0  0  0  0  0  0  0  0  # atno 8010 bound_to 7997
  140.7254  143.3885  151.1471 H   0  0  0  0  0  0  0  0  0  0  0  0  # atno 10167 bound_to 10162
  157.5688  130.8891  149.9232 H   0  0  0  0  0  0  0  0  0  0  0  0  # atno 10718 bound_to 10713
  154.1638  135.6470  153.4992 H   0  0  0  0  0  0  0  0  0  0  0  0  # atno 10763 bound_to 10752
  153.0103  135.5367  154.6683 H   0  0  0  0  0  0  0  0  0  0  0  0  # atno 10764 bound_to 10752
  154.6004  135.2943  155.0513 H   0  0  0  0  0  0  0  0  0  0  0  0  # atno 10765 bound_to 10752
  139.8786  134.8915  156.4058 H   0  0  0  0  0  0  0  0  0  0  0  0  # atno 11005 bound_to 11000
  146.1566  139.4666  143.0015 LP  0  0  0  0  0  0  0  0  0  0  0  0  # atno 17320 bound_to 7965
  145.6784  141.0198  143.1619 LP  0  0  0  0  0  0  0  0  0  0  0  0  # atno 17321 bound_to 7965
  139.7487  143.8813  152.3070 LP  0  0  0  0  0  0  0  0  0  0  0  0  # atno 17342 bound_to 10162
  139.8659  144.7093  150.9045 LP  0  0  0  0  0  0  0  0  0  0  0  0  # atno 17343 bound_to 10162
  156.0734  130.3682  150.0727 LP  0  0  0  0  0  0  0  0  0  0  0  0  # atno 17370 bound_to 10713
  156.8883  130.9580  151.3591 LP  0  0  0  0  0  0  0  0  0  0  0  0  # atno 17371 bound_to 10713
  140.9235  133.7628  155.9936 LP  0  0  0  0  0  0  0  0  0  0  0  0  # atno 17394 bound_to 11000
  140.8412  134.3064  157.5312 LP  0  0  0  0  0  0  0  0  0  0  0  0  # atno 17395 bound_to 11000

$$$$
