AV-unprocessed.smi:2893|AV-procd|sdf|11123|dock10
  -GOLD-   2272015593D 1   1.00000     0.00000
 Structure written by MMmdl.
 37 39  0  0  0  0  0  0  0  0  1 V2000
  144.6010  134.6995  162.7929 C   0  0  0  0  0  0  0  0  0  0  0  0
  146.0486  134.1919  162.7616 C   0  0  0  0  0  0  0  0  0  0  0  0
  146.7703  134.7014  161.6020 N   0  0  0  0  0  0  0  0  0  0  0  0
  147.1284  135.9831  161.4116 C   0  0  0  0  0  0  0  0  0  0  0  0
  146.8634  136.8835  162.2092 O   0  0  0  0  0  0  0  0  0  0  0  0
  147.8481  136.2791  160.1231 C   0  0  0  0  0  0  0  0  0  0  0  0
  148.2648  135.2223  159.2849 C   0  0  0  0  0  0  0  0  0  0  0  0
  148.9201  135.5540  158.0867 C   0  0  0  0  0  0  0  0  0  0  0  0
  149.1103  136.9190  157.8004 C   0  0  0  0  0  0  0  0  0  0  0  0
  149.7613  137.2774  156.6116 N   0  0  0  0  0  0  0  0  0  0  0  0
  149.9517  138.6810  156.2582 C   0  0  1  0  0  0  0  0  0  0  0  0
  151.2002  139.2966  156.8944 C   0  0  0  0  0  0  0  0  0  0  0  0
  151.9238  139.8786  155.6714 C   0  0  1  0  0  0  0  0  0  0  0  0
  152.5879  138.7782  154.8339 C   0  0  0  0  0  0  0  0  0  0  0  0
  151.3778  138.1111  154.1834 C   0  0  0  0  0  0  0  0  0  0  0  0
  150.2118  138.9335  154.7592 C   0  0  2  0  0  0  0  0  0  0  0  0
  150.8255  140.2091  154.8375 O   0  0  0  0  0  0  0  0  0  0  0  0
  148.6852  137.8908  158.6440 N   0  0  0  0  0  0  0  0  0  0  0  0
  148.0612  137.5759  159.7838 N   0  0  0  0  0  0  0  0  0  0  0  0
  144.0840  134.3388  163.6823 H   0  0  0  0  0  0  0  0  0  0  0  0
  144.0403  134.3561  161.9230 H   0  0  0  0  0  0  0  0  0  0  0  0
  144.5656  135.7891  162.8067 H   0  0  0  0  0  0  0  0  0  0  0  0
  146.5723  134.5206  163.6594 H   0  0  0  0  0  0  0  0  0  0  0  0
  146.0693  133.1009  162.7720 H   0  0  0  0  0  0  0  0  0  0  0  0
  147.0210  134.0331  160.8871 H   0  0  0  0  0  0  0  0  0  0  0  0
  148.0929  134.1881  159.5458 H   0  0  0  0  0  0  0  0  0  0  0  0
  149.2608  134.7836  157.4106 H   0  0  0  0  0  0  0  0  0  0  0  0
  149.8498  136.5877  155.8795 H   0  0  0  0  0  0  0  0  0  0  0  0
  149.0819  139.2561  156.5792 H   0  0  0  0  0  0  0  0  0  0  0  0
  150.9179  140.0857  157.5921 H   0  0  0  0  0  0  0  0  0  0  0  0
  151.8215  138.5783  157.4318 H   0  0  0  0  0  0  0  0  0  0  0  0
  152.5821  140.7163  155.9029 H   0  0  0  0  0  0  0  0  0  0  0  0
  153.2420  139.2078  154.0741 H   0  0  0  0  0  0  0  0  0  0  0  0
  153.1758  138.0901  155.4423 H   0  0  0  0  0  0  0  0  0  0  0  0
  151.4240  138.2201  153.0993 H   0  0  0  0  0  0  0  0  0  0  0  0
  151.3050  137.0471  154.4095 H   0  0  0  0  0  0  0  0  0  0  0  0
  149.3123  138.9118  154.1433 H   0  0  0  0  0  0  0  0  0  0  0  0
  1  2  1  0  0  0  0
  1 20  1  0  0  0  0
  1 21  1  0  0  0  0
  1 22  1  0  0  0  0
  2  3  1  0  0  0  0
  2 23  1  0  0  0  0
  2 24  1  0  0  0  0
  3  4  1  0  0  0  0
  3 25  1  0  0  0  0
  4  5  2  0  0  0  0
  4  6  1  0  0  0  0
  6 19  1  0  0  0  0
  6  7  2  0  0  0  0
  7  8  1  0  0  0  0
  7 26  1  0  0  0  0
  8  9  2  0  0  0  0
  8 27  1  0  0  0  0
  9 10  1  0  0  0  0
  9 18  1  0  0  0  0
 10 11  1  0  0  0  0
 10 28  1  0  0  0  0
 11 16  1  0  0  0  0
 11 12  1  0  0  0  0
 11 29  1  0  0  0  0
 12 13  1  0  0  0  0
 12 30  1  0  0  0  0
 12 31  1  0  0  0  0
 13 17  1  0  0  0  0
 13 14  1  0  0  0  0
 13 32  1  0  0  0  0
 14 15  1  0  0  0  0
 14 33  1  0  0  0  0
 14 34  1  0  0  0  0
 15 16  1  0  0  0  0
 15 35  1  0  0  0  0
 15 36  1  0  0  0  0
 16 17  1  0  0  0  0
 16 37  1  0  0  0  0
 18 19  2  0  0  0  0
M  END
> <s_m_source_file>
AV-unprocessed.smi

> <i_m_source_file_index>
2893

> <i_lp_mmshare_version>
43012

> <i_f3d_flags>
0

> <s_epik_input>
W0NIM11bQ0gyXVtOSF1DKD1PKWMxW2NIXVtjSF1jKG5uMSlbTkhdW0NASF0oW0NIMl1bQ0BASF0yMylbQ0BASF0oTzMpW0NIMl1bQ0gyXTI=

> <s_epik_cmdline>
J2VwaWtfcHl0aG9uJywgJy1waCcsICc3LjAnLCAnLXRuJywgJzgnLCAnLW1hJywgJzIwMCcsICctbWV0YWxfYmluZGluZycsICctaW1hZScsICc8aW5maWxlLm1hZT4nLCAnLW9tYWUnLCAnPG91dGZpbGUubWFlPic=

> <r_lp_tautomer_probability>
1

> <r_epik_Ionization_Penalty>
0.00432031

> <r_epik_Ionization_Penalty_Charging>
0

> <r_epik_Ionization_Penalty_Neutral>
0.00432031

> <r_epik_State_Penalty>
-0

> <r_epik_Charging_Adjusted_Penalty>
0

> <i_epik_Tot_Q>
0

> <i_epik_Tot_abs_Q>
0

> <r_epik_Metal_State_Penalty>
-0

> <b_epik_Metal_Only>
0

> <s_lp_Force_Field>
OPLS_2005

> <r_lp_Energy>
51.8171

> <b_lp_Chiralities_Consistent>
1

> <s_lp_Variant>
AV-unprocessed.smi:2893-2

> <Gold.Version>
5.8.1

> <Gold.Id.Protein>
6NUR|6NUR_protein|mol2

> <Gold.PLP.Fitness>
34.1679

> <Gold.PLP.PLP>
-30.1255

> <Gold.PLP.part.hbond>
-3.0000

> <Gold.PLP.part.metal>
0.0000

> <Gold.PLP.part.buried>
-4.4489

> <Gold.PLP.part.nonpolar>
-23.2755

> <Gold.PLP.part.repulsive>
0.0913

> <Gold.PLP.ligand.clash>
0.0000

> <Gold.PLP.ligand.torsion>
0.3864

> <Gold.PLP.Chemscore.Hbond>
1.6002

> <Gold.PLP.Chemscore.CHOScore>
0.0000

> <Gold.PLP.Chemscore.Metal>
0.0000

> <Gold.Chemscore.Hbonds>
donor molecule, donor type, donor heavy atom, donor atom, acceptor molecule, acceptor atom, score
      P1  H  6931  6943       L1    19  0.02
      P1  H  6934  6947       L1    19  0.56
      P1  H  7989  7998       L1    17  1.00

> <Gold.PLP.Chemscore.Internal.Correction>
0.0145

> <Gold.Rescore>
     Score         DG    S(hbond)    S(metal)    S(lipo)     H(rot)  DE(clash)    DE(int)     intcor
     15.30     -15.84       1.81        0.00      63.20       1.21       0.15       0.40       ----

> <Gold.Chemscore.Fitness>
15.2975

> <Gold.Chemscore.DG>
-15.8396

> <Gold.Chemscore.ZeroCoef>
-5.4800

> <Gold.Chemscore.Hbond>
1.8123

> <Gold.Chemscore.Metal>
0.0000

> <Gold.Chemscore.Lipo>
63.1969

> <Gold.Chemscore.Internal_Hbond>
0.0000

> <Gold.Chemscore.DEClash>
0.1462

> <Gold.Chemscore.DEInternal>
0.3959

> <Gold.Chemscore.Rot>
1.2061

> <Gold.Chemscore.Internal.Correction>
   9.000000E+99

> <Gold.Chemscore.Hbonds>
donor molecule, donor type, donor heavy atom, donor atom, acceptor molecule, acceptor atom, score
      P1  H  6931  6943       L1    19  0.01
      P1  H  6934  6947       L1    19  0.50
      P1  H  7989  7998       L1    17  0.29

> <Gold.Chemscore.Hbond.Weighted>
-6.0531

> <Gold.Chemscore.Metal.Weighted>
-0.0000

> <Gold.Chemscore.Lipo.Weighted>
-7.3940

> <Gold.Chemscore.Internal_Hbond.Weighted>
0.0000

> <Gold.Chemscore.DEClash.Weighted>
0.1462

> <Gold.Chemscore.DEInternal.Weighted>
0.3959

> <Gold.Chemscore.Rot.Weighted>
3.0876

> <Gold.Chemscore.Internal.Correction.Weighted>
   9.000000E+99

> <Gold.Protein.RotatedTorsions>
[ 6907 6896 6895 6894 ] final   83.29 input  -60.11 | X-H torsion
[ 7974 7965 7964 7962 ] final  -32.86 input  175.53 | X-H torsion
[ 8008 7997 7996 7995 ] final  -80.48 input   59.86 | X-H torsion
[ 10167 10162 10161 10158 ] final  171.26 input  -65.29 | X-H torsion
[ 10718 10713 10712 10709 ] final  -75.87 input   66.30 | X-H torsion
[ 10763 10752 10751 10750 ] final  -84.51 input  -60.55 | X-H torsion
[ 11005 11000 10999 10996 ] final   42.51 input  -57.11 | X-H torsion

> <Gold.Protein.ActiveResidues>
 VAL166  LYS551  ARG553  GLY616  TRP617  ASP618  TYR619  PRO620  LYS621  CYS622 
 ASP623  PHE694  ASN695  SER759  ASP760  ASP761  ALA762  ILE779  LEU786  VAL792 
 PHE793  MET794  SER795  GLU796  ALA797  LYS798  CYS799  TRP800  GLU811  SER814 

> <Gold.Protein.RotatedAtoms>
  152.5323  134.2919  159.9045 H   0  0  0  0  0  0  0  0  0  0  0  0  # atno 6907 bound_to 6896
  151.2871  133.4176  159.2638 H   0  0  0  0  0  0  0  0  0  0  0  0  # atno 6908 bound_to 6896
  151.0233  134.9501  159.8128 H   0  0  0  0  0  0  0  0  0  0  0  0  # atno 6909 bound_to 6896
  146.0956  140.5845  142.8844 H   0  0  0  0  0  0  0  0  0  0  0  0  # atno 7974 bound_to 7965
  154.5887  140.0662  156.9208 H   0  0  0  0  0  0  0  0  0  0  0  0  # atno 8008 bound_to 7997
  155.2333  140.3339  155.4282 H   0  0  0  0  0  0  0  0  0  0  0  0  # atno 8009 bound_to 7997
  156.2241  140.1811  156.7391 H   0  0  0  0  0  0  0  0  0  0  0  0  # atno 8010 bound_to 7997
  139.5041  144.3505  151.9927 H   0  0  0  0  0  0  0  0  0  0  0  0  # atno 10167 bound_to 10162
  156.0193  130.4451  150.3108 H   0  0  0  0  0  0  0  0  0  0  0  0  # atno 10718 bound_to 10713
  154.6004  135.5518  153.7368 H   0  0  0  0  0  0  0  0  0  0  0  0  # atno 10763 bound_to 10752
  153.0152  135.6365  154.1723 H   0  0  0  0  0  0  0  0  0  0  0  0  # atno 10764 bound_to 10752
  154.1663  135.2894  155.3074 H   0  0  0  0  0  0  0  0  0  0  0  0  # atno 10765 bound_to 10752
  140.1732  134.4196  155.8244 H   0  0  0  0  0  0  0  0  0  0  0  0  # atno 11005 bound_to 11000
  144.7393  140.4897  143.6881 LP  0  0  0  0  0  0  0  0  0  0  0  0  # atno 17320 bound_to 7965
  145.5954  139.1499  143.3159 LP  0  0  0  0  0  0  0  0  0  0  0  0  # atno 17321 bound_to 7965
  140.2942  144.3719  150.6079 LP  0  0  0  0  0  0  0  0  0  0  0  0  # atno 17342 bound_to 10162
  140.5923  143.2167  151.7230 LP  0  0  0  0  0  0  0  0  0  0  0  0  # atno 17343 bound_to 10162
  157.1210  131.0246  151.3009 LP  0  0  0  0  0  0  0  0  0  0  0  0  # atno 17370 bound_to 10713
  157.4628  130.7663  149.7252 LP  0  0  0  0  0  0  0  0  0  0  0  0  # atno 17371 bound_to 10713
  141.2219  133.6965  156.7800 LP  0  0  0  0  0  0  0  0  0  0  0  0  # atno 17394 bound_to 11000
  140.2353  134.8655  157.3518 LP  0  0  0  0  0  0  0  0  0  0  0  0  # atno 17395 bound_to 11000

$$$$
