AV-unprocessed.smi:3111|AV-procd|sdf|11834|dock2
  -GOLD-   2272017203D 1   1.00000     0.00000
 Structure written by MMmdl.
 30 30  0  0  0  0  0  0  0  0  2 V2000
  147.0920  145.1333  160.7492 C   0  0  0  0  0  0  0  0  0  0  0  0
  147.1214  144.4711  159.4542 N   0  0  0  0  0  0  0  0  0  0  0  0
  146.7051  143.2153  159.2401 C   0  0  0  0  0  0  0  0  0  0  0  0
  146.2429  142.4985  160.1292 O   0  0  0  0  0  0  0  0  0  0  0  0
  146.8105  142.7058  157.7969 C   0  0  0  0  0  0  0  0  0  0  0  0
  148.1716  142.7728  157.2699 N   0  0  0  0  0  0  0  0  0  0  0  0
  149.1812  141.9660  157.6341 C   0  0  0  0  0  0  0  0  0  0  0  0
  149.0664  141.0889  158.4909 O   0  0  0  0  0  0  0  0  0  0  0  0
  150.5263  142.1915  156.9268 C   0  0  2  0  0  0  0  0  0  0  0  0
  151.2415  140.8709  156.5833 C   0  0  0  0  0  0  0  0  0  0  0  0
  151.3864  143.0886  157.7163 N   0  0  0  0  0  0  0  0  0  0  0  0
  151.6380  144.4150  157.4700 C   0  0  0  0  0  0  0  0  0  0  0  0
  152.4803  144.8474  158.4617 C   0  0  0  0  0  0  0  0  0  0  0  0
  152.7064  143.7700  159.2752 N   0  3  0  0  0  0  0  0  0  0  0  0
  152.0405  142.7028  158.8228 C   0  0  0  0  0  0  0  0  0  0  0  0
  147.5351  146.1263  160.6698 H   0  0  0  0  0  0  0  0  0  0  0  0
  147.6572  144.5667  161.4904 H   0  0  0  0  0  0  0  0  0  0  0  0
  146.0662  145.2447  161.1032 H   0  0  0  0  0  0  0  0  0  0  0  0
  147.4835  144.9990  158.6732 H   0  0  0  0  0  0  0  0  0  0  0  0
  146.4846  141.6659  157.7733 H   0  0  0  0  0  0  0  0  0  0  0  0
  146.1287  143.2626  157.1512 H   0  0  0  0  0  0  0  0  0  0  0  0
  148.3471  143.4637  156.5549 H   0  0  0  0  0  0  0  0  0  0  0  0
  150.3219  142.7038  155.9849 H   0  0  0  0  0  0  0  0  0  0  0  0
  150.6077  140.2298  155.9692 H   0  0  0  0  0  0  0  0  0  0  0  0
  151.5142  140.3067  157.4759 H   0  0  0  0  0  0  0  0  0  0  0  0
  152.1561  141.0594  156.0203 H   0  0  0  0  0  0  0  0  0  0  0  0
  151.2107  144.9406  156.6282 H   0  0  0  0  0  0  0  0  0  0  0  0
  152.9228  145.8157  158.6451 H   0  0  0  0  0  0  0  0  0  0  0  0
  152.0308  141.7225  159.2659 H   0  0  0  0  0  0  0  0  0  0  0  0
  153.2910  143.7771  160.1017 H   0  0  0  0  0  0  0  0  0  0  0  0
  1  2  1  0  0  0  0
  1 16  1  0  0  0  0
  1 17  1  0  0  0  0
  1 18  1  0  0  0  0
  2  3  1  0  0  0  0
  2 19  1  0  0  0  0
  3  4  2  0  0  0  0
  3  5  1  0  0  0  0
  5  6  1  0  0  0  0
  5 20  1  0  0  0  0
  5 21  1  0  0  0  0
  6  7  1  0  0  0  0
  6 22  1  0  0  0  0
  7  8  2  0  0  0  0
  7  9  1  0  0  0  0
  9 10  1  0  0  0  0
  9 11  1  0  0  0  0
  9 23  1  0  0  0  0
 10 24  1  0  0  0  0
 10 25  1  0  0  0  0
 10 26  1  0  0  0  0
 11 15  1  0  0  0  0
 11 12  1  0  0  0  0
 12 13  2  0  0  0  0
 12 27  1  0  0  0  0
 13 14  1  0  0  0  0
 13 28  1  0  0  0  0
 14 15  2  0  0  0  0
 14 30  1  0  0  0  0
 15 29  1  0  0  0  0
M  CHG  1  14   1
M  END
> <s_m_source_file>
AV-unprocessed.smi

> <i_m_source_file_index>
3111

> <i_lp_mmshare_version>
43012

> <i_f3d_flags>
0

> <s_epik_input>
W0NIM11bTkhdQyg9TylbQ0gyXVtOSF1DKD1PKVtDQEhdKFtDSDNdKW4xW2NIXVtjSF1uW2NIXTE=

> <s_epik_cmdline>
J2VwaWtfcHl0aG9uJywgJy1waCcsICc3LjAnLCAnLXRuJywgJzgnLCAnLW1hJywgJzIwMCcsICctbWV0YWxfYmluZGluZycsICctaW1hZScsICc8aW5maWxlLm1hZT4nLCAnLW9tYWUnLCAnPG91dGZpbGUubWFlPic=

> <r_lp_tautomer_probability>
1

> <r_epik_Ionization_Penalty>
0.581414

> <r_epik_Ionization_Penalty_Charging>
0

> <r_epik_Ionization_Penalty_Neutral>
0.581414

> <r_epik_State_Penalty>
0.594207

> <r_epik_Charging_Adjusted_Penalty>
0.594207

> <i_epik_Tot_Q>
1

> <i_epik_Tot_abs_Q>
1

> <r_epik_Metal_State_Penalty>
0.784638

> <b_epik_Metal_Only>
0

> <s_lp_Force_Field>
OPLS_2005

> <r_lp_Energy>
6.41512

> <b_lp_Chiralities_Consistent>
1

> <s_lp_Variant>
AV-unprocessed.smi:3111-3

> <Gold.Version>
5.8.1

> <Gold.Id.Protein>
6NUR|6NUR_protein|mol2

> <Gold.PLP.Fitness>
39.8385

> <Gold.PLP.PLP>
-29.7880

> <Gold.PLP.part.hbond>
-4.1895

> <Gold.PLP.part.metal>
0.0000

> <Gold.PLP.part.buried>
-3.0608

> <Gold.PLP.part.nonpolar>
-22.8400

> <Gold.PLP.part.repulsive>
0.1423

> <Gold.PLP.ligand.clash>
0.0000

> <Gold.PLP.ligand.torsion>
1.0161

> <Gold.PLP.Chemscore.Hbond>
3.0000

> <Gold.PLP.Chemscore.CHOScore>
0.9955

> <Gold.PLP.Chemscore.Metal>
0.0000

> <Gold.Chemscore.Hbonds>
donor molecule, donor type, donor heavy atom, donor atom, acceptor molecule, acceptor atom, score
      L1  H     2    19       P1  8029  1.00
      L1  H     6    22       P1  8028  1.00
      P1  H  6934  6946       L1     4  1.00
      L1  C    12    27       P1  8028  0.99

> <Gold.PLP.Chemscore.Internal.Correction>
0.0961

> <Gold.Rescore>
     Score         DG    S(hbond)    S(metal)    S(lipo)     H(rot)  DE(clash)    DE(int)     intcor
     13.92     -14.68       2.86        0.00      47.86       2.33       0.00       0.76       ----

> <Gold.Chemscore.Fitness>
13.9199

> <Gold.Chemscore.DG>
-14.6779

> <Gold.Chemscore.ZeroCoef>
-5.4800

> <Gold.Chemscore.Hbond>
2.8642

> <Gold.Chemscore.Metal>
0.0000

> <Gold.Chemscore.Lipo>
47.8553

> <Gold.Chemscore.Internal_Hbond>
0.0000

> <Gold.Chemscore.DEClash>
0.0004

> <Gold.Chemscore.DEInternal>
0.7576

> <Gold.Chemscore.Rot>
2.3311

> <Gold.Chemscore.Internal.Correction>
   9.000000E+99

> <Gold.Chemscore.Hbonds>
donor molecule, donor type, donor heavy atom, donor atom, acceptor molecule, acceptor atom, score
      L1  H     2    19       P1  8029  1.00
      L1  H     6    22       P1  8028  0.30
      P1  H  6934  6946       L1     4  1.00

> <Gold.Chemscore.Hbond.Weighted>
-9.5664

> <Gold.Chemscore.Metal.Weighted>
-0.0000

> <Gold.Chemscore.Lipo.Weighted>
-5.5991

> <Gold.Chemscore.Internal_Hbond.Weighted>
0.0000

> <Gold.Chemscore.DEClash.Weighted>
0.0004

> <Gold.Chemscore.DEInternal.Weighted>
0.7576

> <Gold.Chemscore.Rot.Weighted>
5.9676

> <Gold.Chemscore.Internal.Correction.Weighted>
   9.000000E+99

> <Gold.Protein.RotatedTorsions>
[ 6907 6896 6895 6894 ] final   21.20 input  -60.11 | X-H torsion
[ 7974 7965 7964 7962 ] final   31.22 input  175.53 | X-H torsion
[ 8008 7997 7996 7995 ] final -167.36 input   59.86 | X-H torsion
[ 10167 10162 10161 10158 ] final   78.34 input  -65.29 | X-H torsion
[ 10718 10713 10712 10709 ] final  100.82 input   66.30 | X-H torsion
[ 10763 10752 10751 10750 ] final  -53.87 input  -60.55 | X-H torsion
[ 11005 11000 10999 10996 ] final  169.99 input  -57.11 | X-H torsion

> <Gold.Protein.ActiveResidues>
 VAL166  LYS551  ARG553  GLY616  TRP617  ASP618  TYR619  PRO620  LYS621  CYS622 
 ASP623  PHE694  ASN695  SER759  ASP760  ASP761  ALA762  ILE779  LEU786  VAL792 
 PHE793  MET794  SER795  GLU796  ALA797  LYS798  CYS799  TRP800  GLU811  SER814 

> <Gold.Protein.RotatedAtoms>
  151.9082  135.0350  160.0511 H   0  0  0  0  0  0  0  0  0  0  0  0  # atno 6907 bound_to 6896
  152.2302  133.5047  159.5219 H   0  0  0  0  0  0  0  0  0  0  0  0  # atno 6908 bound_to 6896
  150.7023  134.1143  159.4054 H   0  0  0  0  0  0  0  0  0  0  0  0  # atno 6909 bound_to 6896
  146.1564  139.6685  142.9064 H   0  0  0  0  0  0  0  0  0  0  0  0  # atno 7974 bound_to 7965
  155.8766  140.1002  157.1514 H   0  0  0  0  0  0  0  0  0  0  0  0  # atno 8008 bound_to 7997
  154.4001  140.1337  156.4208 H   0  0  0  0  0  0  0  0  0  0  0  0  # atno 8009 bound_to 7997
  155.7690  140.3461  155.5239 H   0  0  0  0  0  0  0  0  0  0  0  0  # atno 8010 bound_to 7997
  139.9720  144.5887  150.7977 H   0  0  0  0  0  0  0  0  0  0  0  0  # atno 10167 bound_to 10162
  157.6844  131.0709  150.5159 H   0  0  0  0  0  0  0  0  0  0  0  0  # atno 10718 bound_to 10713
  154.1657  135.6467  153.4997 H   0  0  0  0  0  0  0  0  0  0  0  0  # atno 10763 bound_to 10752
  153.0098  135.5371  154.6665 H   0  0  0  0  0  0  0  0  0  0  0  0  # atno 10764 bound_to 10752
  154.5990  135.2942  155.0527 H   0  0  0  0  0  0  0  0  0  0  0  0  # atno 10765 bound_to 10752
  140.3036  134.7575  157.3935 H   0  0  0  0  0  0  0  0  0  0  0  0  # atno 11005 bound_to 11000
  145.4698  141.0435  143.2705 LP  0  0  0  0  0  0  0  0  0  0  0  0  # atno 17320 bound_to 7965
  144.7968  139.6218  143.7089 LP  0  0  0  0  0  0  0  0  0  0  0  0  # atno 17321 bound_to 7965
  140.7518  143.2980  151.3154 LP  0  0  0  0  0  0  0  0  0  0  0  0  # atno 17342 bound_to 10162
  139.6474  144.0426  152.2601 LP  0  0  0  0  0  0  0  0  0  0  0  0  # atno 17343 bound_to 10162
  156.5474  130.4223  149.6124 LP  0  0  0  0  0  0  0  0  0  0  0  0  # atno 17370 bound_to 10713
  156.2932  130.7136  151.1989 LP  0  0  0  0  0  0  0  0  0  0  0  0  # atno 17371 bound_to 10713
  140.1087  134.5374  155.8285 LP  0  0  0  0  0  0  0  0  0  0  0  0  # atno 17394 bound_to 11000
  141.2123  133.6717  156.6649 LP  0  0  0  0  0  0  0  0  0  0  0  0  # atno 17395 bound_to 11000

$$$$
