AV-unprocessed.smi:265|AV-procd|sdf|2022|dock5
  -GOLD-   2262021223D 1   1.00000     0.00000
 Structure written by MMmdl.
 52 56  0  0  0  0  0  0  0  0  1 V2000
  141.2699  144.2227  155.1830 C   0  0  0  0  0  0  0  0  0  0  0  0
  142.4316  145.0126  154.5603 C   0  0  1  0  0  0  0  0  0  0  0  0
  142.3675  146.3388  155.0811 O   0  0  0  0  0  0  0  0  0  0  0  0
  143.6813  146.8544  155.2036 C   0  0  0  0  0  0  0  0  0  0  0  0
  144.4653  145.6449  155.6884 C   0  0  0  0  0  0  0  0  0  0  0  0
  143.8678  144.5034  154.8713 C   0  0  2  0  0  0  0  0  0  0  0  0
  144.5736  144.4338  153.6432 O   0  0  0  0  0  0  0  0  0  0  0  0
  143.9744  143.1171  155.5598 C   0  0  0  0  0  0  0  0  0  0  0  0
  145.3419  142.7281  155.8714 N   0  0  0  0  0  0  0  0  0  0  0  0
  145.9393  142.7422  157.1117 C   0  0  0  0  0  0  0  0  0  0  0  0
  147.1826  142.3470  157.1353 N   0  0  0  0  0  0  0  0  0  0  0  0
  147.4680  142.0408  155.8096 C   0  0  0  0  0  0  0  0  0  0  0  0
  148.6252  141.5666  155.1283 C   0  0  0  0  0  0  0  0  0  0  0  0
  149.7886  141.2818  155.7674 N   0  0  0  0  0  0  0  0  0  0  0  0
  149.8777  141.7953  157.1325 C   0  0  0  0  0  0  0  0  0  0  0  0
  151.3385  141.8294  157.6055 C   0  0  0  0  0  0  0  0  0  0  0  0
  152.0229  140.4618  157.4465 C   0  0  1  0  0  0  0  0  0  0  0  0
  151.4618  139.5218  158.3537 O   0  0  0  0  0  0  0  0  0  0  0  0
  152.1611  138.2767  158.3993 C   0  0  0  0  0  0  0  0  0  0  0  0
  152.4229  137.6997  156.9954 C   0  0  0  0  0  0  0  0  0  0  0  0
  152.7467  136.5211  156.8681 O   0  0  0  0  0  0  0  0  0  0  0  0
  152.3278  138.5282  155.9430 N   0  0  0  0  0  0  0  0  0  0  0  0
  151.8386  139.9010  156.0195 C   0  0  1  0  0  0  0  0  0  0  0  0
  150.3619  139.9491  155.5761 C   0  0  0  0  0  0  0  0  0  0  0  0
  148.5327  141.4031  153.7810 N   0  0  0  0  0  0  0  0  0  0  0  0
  147.3905  141.6757  153.1436 C   0  0  0  0  0  0  0  0  0  0  0  0
  146.2376  142.1163  153.6499 N   0  0  0  0  0  0  0  0  0  0  0  0
  146.3230  142.2871  154.9999 C   0  0  0  0  0  0  0  0  0  0  0  0
  153.0847  140.5772  157.6726 H   0  0  0  0  0  0  0  0  0  0  0  0
  152.4280  140.5052  155.3288 H   0  0  0  0  0  0  0  0  0  0  0  0
  141.2458  143.1948  154.8211 H   0  0  0  0  0  0  0  0  0  0  0  0
  140.3142  144.6795  154.9255 H   0  0  0  0  0  0  0  0  0  0  0  0
  141.3386  144.2020  156.2708 H   0  0  0  0  0  0  0  0  0  0  0  0
  142.2711  145.0680  153.4819 H   0  0  0  0  0  0  0  0  0  0  0  0
  144.0383  147.1924  154.2295 H   0  0  0  0  0  0  0  0  0  0  0  0
  143.7223  147.6927  155.8991 H   0  0  0  0  0  0  0  0  0  0  0  0
  145.5444  145.7559  155.5734 H   0  0  0  0  0  0  0  0  0  0  0  0
  144.2569  145.4967  156.7485 H   0  0  0  0  0  0  0  0  0  0  0  0
  144.0912  143.8755  153.0530 H   0  0  0  0  0  0  0  0  0  0  0  0
  143.4067  143.1062  156.4905 H   0  0  0  0  0  0  0  0  0  0  0  0
  143.5404  142.3438  154.9246 H   0  0  0  0  0  0  0  0  0  0  0  0
  145.4185  143.0544  158.0055 H   0  0  0  0  0  0  0  0  0  0  0  0
  149.4494  142.7935  157.2160 H   0  0  0  0  0  0  0  0  0  0  0  0
  149.2899  141.1503  157.7872 H   0  0  0  0  0  0  0  0  0  0  0  0
  151.8834  142.5716  157.0208 H   0  0  0  0  0  0  0  0  0  0  0  0
  151.3896  142.1574  158.6441 H   0  0  0  0  0  0  0  0  0  0  0  0
  153.1159  138.4148  158.9079 H   0  0  0  0  0  0  0  0  0  0  0  0
  151.5816  137.5656  158.9884 H   0  0  0  0  0  0  0  0  0  0  0  0
  152.5354  138.1616  155.0255 H   0  0  0  0  0  0  0  0  0  0  0  0
  149.7744  139.2292  156.1486 H   0  0  0  0  0  0  0  0  0  0  0  0
  150.2908  139.6585  154.5267 H   0  0  0  0  0  0  0  0  0  0  0  0
  147.4020  141.5175  152.0752 H   0  0  0  0  0  0  0  0  0  0  0  0
  1  2  1  0  0  0  0
  1 31  1  0  0  0  0
  1 32  1  0  0  0  0
  1 33  1  0  0  0  0
  2  6  1  0  0  0  0
  2  3  1  0  0  0  0
  2 34  1  0  0  0  0
  3  4  1  0  0  0  0
  4  5  1  0  0  0  0
  4 35  1  0  0  0  0
  4 36  1  0  0  0  0
  5  6  1  0  0  0  0
  5 37  1  0  0  0  0
  5 38  1  0  0  0  0
  6  7  1  0  0  0  0
  6  8  1  0  0  0  0
  7 39  1  0  0  0  0
  8  9  1  0  0  0  0
  8 40  1  0  0  0  0
  8 41  1  0  0  0  0
  9 28  1  0  0  0  0
  9 10  1  0  0  0  0
 10 11  2  0  0  0  0
 10 42  1  0  0  0  0
 11 12  1  0  0  0  0
 12 28  2  0  0  0  0
 12 13  1  0  0  0  0
 13 14  1  0  0  0  0
 13 25  2  0  0  0  0
 14 24  1  0  0  0  0
 14 15  1  0  0  0  0
 15 16  1  0  0  0  0
 15 43  1  0  0  0  0
 15 44  1  0  0  0  0
 16 17  1  0  0  0  0
 16 45  1  0  0  0  0
 16 46  1  0  0  0  0
 17 29  1  0  0  0  0
 17 23  1  0  0  0  0
 17 18  1  0  0  0  0
 18 19  1  0  0  0  0
 19 20  1  0  0  0  0
 19 47  1  0  0  0  0
 19 48  1  0  0  0  0
 20 21  2  0  0  0  0
 20 22  1  0  0  0  0
 22 23  1  0  0  0  0
 22 49  1  0  0  0  0
 23 30  1  0  0  0  0
 23 24  1  0  0  0  0
 24 50  1  0  0  0  0
 24 51  1  0  0  0  0
 25 26  1  0  0  0  0
 26 27  2  0  0  0  0
 26 52  1  0  0  0  0
 27 28  1  0  0  0  0
M  END
> <s_m_source_file>
AV-unprocessed.smi

> <i_m_source_file_index>
265

> <i_lp_mmshare_version>
43012

> <i_f3d_flags>
0

> <s_epik_input>
W0NIMl0xW0NIMl1PW0NAQEhdKFtDSDNdKVtDQEBdMShbT0hdKVtDSDJdbihbY0hdbjIpYyhjMjMpbltjSF1uYzNOKFtDSDJdW0NIMl00KVtDSDJdW0NAQEhdKFtDQEhdNDUpW05IXUMoPU8pW0NIMl1PNQ==

> <s_epik_cmdline>
J2VwaWtfcHl0aG9uJywgJy1waCcsICc3LjAnLCAnLXRuJywgJzgnLCAnLW1hJywgJzIwMCcsICctbWV0YWxfYmluZGluZycsICctaW1hZScsICc8aW5maWxlLm1hZT4nLCAnLW9tYWUnLCAnPG91dGZpbGUubWFlPic=

> <r_lp_tautomer_probability>
1

> <r_epik_Ionization_Penalty>
0.00221504

> <r_epik_Ionization_Penalty_Charging>
0

> <r_epik_Ionization_Penalty_Neutral>
0.00221504

> <r_epik_State_Penalty>
-0

> <r_epik_Charging_Adjusted_Penalty>
0

> <i_epik_Tot_Q>
0

> <i_epik_Tot_abs_Q>
0

> <r_epik_Metal_State_Penalty>
-0

> <b_epik_Metal_Only>
0

> <s_lp_Force_Field>
OPLS_2005

> <r_lp_Energy>
44.6863

> <b_lp_Chiralities_Consistent>
1

> <s_lp_Variant>
AV-unprocessed.smi:265-8

> <Gold.Version>
5.8.1

> <Gold.Id.Protein>
6NUR|6NUR_protein|mol2

> <Gold.PLP.Fitness>
40.5987

> <Gold.PLP.PLP>
-33.0859

> <Gold.PLP.part.hbond>
-3.0000

> <Gold.PLP.part.metal>
0.0000

> <Gold.PLP.part.buried>
-8.9225

> <Gold.PLP.part.nonpolar>
-23.5072

> <Gold.PLP.part.repulsive>
0.7917

> <Gold.PLP.ligand.clash>
0.0000

> <Gold.PLP.ligand.torsion>
0.3942

> <Gold.PLP.Chemscore.Hbond>
2.3588

> <Gold.PLP.Chemscore.CHOScore>
0.2865

> <Gold.PLP.Chemscore.Metal>
0.0000

> <Gold.Chemscore.Hbonds>
donor molecule, donor type, donor heavy atom, donor atom, acceptor molecule, acceptor atom, score
      L1  H     7    39       P1 10174  0.65
      P1  H  8011  8017       L1    25  0.33
      P1  H 10752 10764       L1    21  0.89
      L1  C    26    52       P1  7957  0.28

> <Gold.PLP.Chemscore.Internal.Correction>
0.3651

> <Gold.Rescore>
     Score         DG    S(hbond)    S(metal)    S(lipo)     H(rot)  DE(clash)    DE(int)     intcor
     10.36     -14.02       2.07        0.00      62.98       2.25       1.52       2.14       ----

> <Gold.Chemscore.Fitness>
10.3564

> <Gold.Chemscore.DG>
-14.0170

> <Gold.Chemscore.ZeroCoef>
-5.4800

> <Gold.Chemscore.Hbond>
2.0708

> <Gold.Chemscore.Metal>
0.0000

> <Gold.Chemscore.Lipo>
62.9774

> <Gold.Chemscore.Internal_Hbond>
0.0000

> <Gold.Chemscore.DEClash>
1.5209

> <Gold.Chemscore.DEInternal>
2.1398

> <Gold.Chemscore.Rot>
2.2453

> <Gold.Chemscore.Internal.Correction>
   9.000000E+99

> <Gold.Chemscore.Hbonds>
donor molecule, donor type, donor heavy atom, donor atom, acceptor molecule, acceptor atom, score
      L1  H     7    39       P1 10174  0.36
      P1  H  8011  8017       L1    25  0.03
      P1  H 10752 10764       L1    21  0.85

> <Gold.Chemscore.Hbond.Weighted>
-6.9166

> <Gold.Chemscore.Metal.Weighted>
-0.0000

> <Gold.Chemscore.Lipo.Weighted>
-7.3684

> <Gold.Chemscore.Internal_Hbond.Weighted>
0.0000

> <Gold.Chemscore.DEClash.Weighted>
1.5209

> <Gold.Chemscore.DEInternal.Weighted>
2.1398

> <Gold.Chemscore.Rot.Weighted>
5.7479

> <Gold.Chemscore.Internal.Correction.Weighted>
   9.000000E+99

> <Gold.Protein.RotatedTorsions>
[ 6907 6896 6895 6894 ] final  129.26 input  -60.11 | X-H torsion
[ 7974 7965 7964 7962 ] final -162.54 input  175.53 | X-H torsion
[ 8008 7997 7996 7995 ] final  -87.33 input   59.86 | X-H torsion
[ 10167 10162 10161 10158 ] final -146.67 input  -65.29 | X-H torsion
[ 10718 10713 10712 10709 ] final   73.10 input   66.30 | X-H torsion
[ 10763 10752 10751 10750 ] final    1.18 input  -60.55 | X-H torsion
[ 11005 11000 10999 10996 ] final  111.12 input  -57.11 | X-H torsion

> <Gold.Protein.ActiveResidues>
 VAL166  LYS551  ARG553  GLY616  TRP617  ASP618  TYR619  PRO620  LYS621  CYS622 
 ASP623  PHE694  ASN695  SER759  ASP760  ASP761  ALA762  ILE779  LEU786  VAL792 
 PHE793  MET794  SER795  GLU796  ALA797  LYS798  CYS799  TRP800  GLU811  SER814 

> <Gold.Protein.RotatedAtoms>
  152.3641  133.6334  159.6036 H   0  0  0  0  0  0  0  0  0  0  0  0  # atno 6907 bound_to 6896
  150.7621  133.9377  159.3455 H   0  0  0  0  0  0  0  0  0  0  0  0  # atno 6908 bound_to 6896
  151.7210  135.0895  160.0335 H   0  0  0  0  0  0  0  0  0  0  0  0  # atno 6909 bound_to 6896
  144.7354  140.3238  143.6166 H   0  0  0  0  0  0  0  0  0  0  0  0  # atno 7974 bound_to 7965
  154.6620  140.0567  157.0073 H   0  0  0  0  0  0  0  0  0  0  0  0  # atno 8008 bound_to 7997
  155.1214  140.3248  155.4478 H   0  0  0  0  0  0  0  0  0  0  0  0  # atno 8009 bound_to 7997
  156.2622  140.1997  156.6336 H   0  0  0  0  0  0  0  0  0  0  0  0  # atno 8010 bound_to 7997
  139.7692  143.8263  152.2621 H   0  0  0  0  0  0  0  0  0  0  0  0  # atno 10167 bound_to 10162
  157.6532  130.9612  150.1022 H   0  0  0  0  0  0  0  0  0  0  0  0  # atno 10718 bound_to 10713
  153.3113  135.6963  153.7113 H   0  0  0  0  0  0  0  0  0  0  0  0  # atno 10763 bound_to 10752
  153.5989  135.3466  155.2939 H   0  0  0  0  0  0  0  0  0  0  0  0  # atno 10764 bound_to 10752
  154.8576  135.4336  154.2252 H   0  0  0  0  0  0  0  0  0  0  0  0  # atno 10765 bound_to 10752
  139.8897  134.9500  156.6384 H   0  0  0  0  0  0  0  0  0  0  0  0  # atno 11005 bound_to 11000
  145.7541  139.1803  143.2304 LP  0  0  0  0  0  0  0  0  0  0  0  0  # atno 17320 bound_to 7965
  146.1038  140.7512  142.9536 LP  0  0  0  0  0  0  0  0  0  0  0  0  # atno 17321 bound_to 7965
  139.8292  144.7261  150.9472 LP  0  0  0  0  0  0  0  0  0  0  0  0  # atno 17342 bound_to 10162
  140.7813  143.4086  151.1030 LP  0  0  0  0  0  0  0  0  0  0  0  0  # atno 17343 bound_to 10162
  156.1941  130.3656  149.8871 LP  0  0  0  0  0  0  0  0  0  0  0  0  # atno 17370 bound_to 10713
  156.6792  130.8851  151.3573 LP  0  0  0  0  0  0  0  0  0  0  0  0  # atno 17371 bound_to 10713
  140.7612  133.8815  155.8420 LP  0  0  0  0  0  0  0  0  0  0  0  0  # atno 17394 bound_to 11000
  140.9920  134.1266  157.4399 LP  0  0  0  0  0  0  0  0  0  0  0  0  # atno 17395 bound_to 11000

$$$$
