AV-unprocessed.smi:3030|AV-procd|sdf|11534|dock10
  -GOLD-   2272016483D 1   1.00000     0.00000
 Structure written by MMmdl.
 52 53  0  0  0  0  0  0  0  0  1 V2000
  145.1150  131.2217  151.6132 C   0  0  0  0  0  0  0  0  0  0  0  0
  144.2140  132.2505  150.9211 C   0  0  0  0  0  0  0  0  0  0  0  0
  144.1674  133.5074  151.6545 N   0  0  0  0  0  0  0  0  0  0  0  0
  142.9575  134.0636  152.0568 C   0  0  0  0  0  0  0  0  0  0  0  0
  142.8435  135.2499  152.6846 C   0  0  0  0  0  0  0  0  0  0  0  0
  144.0600  136.0356  152.9739 C   0  0  0  0  0  0  0  0  0  0  0  0
  143.9922  137.1253  153.5426 O   0  0  0  0  0  0  0  0  0  0  0  0
  145.3531  135.4423  152.5428 C   0  0  0  0  0  0  0  0  0  0  0  0
  146.5051  136.2010  152.8055 N   0  0  0  0  0  0  0  0  0  0  0  0
  146.8192  136.9140  153.9022 C   0  0  0  0  0  0  0  0  0  0  0  0
  146.1009  137.0724  154.8890 O   0  0  0  0  0  0  0  0  0  0  0  0
  148.0364  137.4631  153.7815 N   0  0  0  0  0  0  0  0  0  0  0  0
  148.6837  138.3185  154.7717 C   0  0  1  0  0  0  0  0  0  0  0  0
  150.1779  138.5070  154.4487 C   0  0  0  0  0  0  0  0  0  0  0  0
  150.9044  139.2296  155.6015 C   0  0  1  0  0  0  0  0  0  0  0  0
  152.3842  139.4699  155.2715 C   0  0  0  0  0  0  0  0  0  0  0  0
  150.1871  140.5433  155.9748 C   0  0  0  0  0  0  0  0  0  0  0  0
  148.6836  140.3224  156.2323 C   0  0  0  0  0  0  0  0  0  0  0  0
  147.9706  139.6839  155.0133 C   0  0  1  0  0  0  0  0  0  0  0  0
  147.8676  140.6530  153.7824 C   0  0  0  0  0  0  0  0  0  0  0  0
  147.2416  142.0127  154.1541 C   0  0  0  0  0  0  0  0  0  0  0  0
  147.0770  140.0765  152.5912 C   0  0  0  0  0  0  0  0  0  0  0  0
  145.3245  134.2394  151.9139 C   0  0  0  0  0  0  0  0  0  0  0  0
  145.1371  130.2872  151.0525 H   0  0  0  0  0  0  0  0  0  0  0  0
  144.7579  130.9979  152.6188 H   0  0  0  0  0  0  0  0  0  0  0  0
  146.1396  131.5865  151.6940 H   0  0  0  0  0  0  0  0  0  0  0  0
  144.5716  132.4327  149.9068 H   0  0  0  0  0  0  0  0  0  0  0  0
  143.2042  131.8504  150.8212 H   0  0  0  0  0  0  0  0  0  0  0  0
  142.0917  133.4583  151.8296 H   0  0  0  0  0  0  0  0  0  0  0  0
  141.8816  135.6405  152.9822 H   0  0  0  0  0  0  0  0  0  0  0  0
  147.1751  136.2201  152.0504 H   0  0  0  0  0  0  0  0  0  0  0  0
  148.5539  137.2839  152.9335 H   0  0  0  0  0  0  0  0  0  0  0  0
  148.6469  137.7594  155.7093 H   0  0  0  0  0  0  0  0  0  0  0  0
  150.6433  137.5337  154.2866 H   0  0  0  0  0  0  0  0  0  0  0  0
  150.2991  139.0591  153.5164 H   0  0  0  0  0  0  0  0  0  0  0  0
  150.8678  138.5766  156.4748 H   0  0  0  0  0  0  0  0  0  0  0  0
  152.4962  140.1149  154.3995 H   0  0  0  0  0  0  0  0  0  0  0  0
  152.8968  138.5313  155.0591 H   0  0  0  0  0  0  0  0  0  0  0  0
  152.9003  139.9452  156.1060 H   0  0  0  0  0  0  0  0  0  0  0  0
  150.6473  140.9716  156.8656 H   0  0  0  0  0  0  0  0  0  0  0  0
  150.3220  141.2804  155.1829 H   0  0  0  0  0  0  0  0  0  0  0  0
  148.5714  139.6638  157.0949 H   0  0  0  0  0  0  0  0  0  0  0  0
  148.2089  141.2532  156.5381 H   0  0  0  0  0  0  0  0  0  0  0  0
  146.9485  139.4695  155.3294 H   0  0  0  0  0  0  0  0  0  0  0  0
  148.8708  140.8676  153.4164 H   0  0  0  0  0  0  0  0  0  0  0  0
  146.2693  141.8853  154.6309 H   0  0  0  0  0  0  0  0  0  0  0  0
  147.0961  142.6368  153.2718 H   0  0  0  0  0  0  0  0  0  0  0  0
  147.8780  142.5878  154.8254 H   0  0  0  0  0  0  0  0  0  0  0  0
  146.1137  139.6752  152.9075 H   0  0  0  0  0  0  0  0  0  0  0  0
  147.6275  139.2902  152.0783 H   0  0  0  0  0  0  0  0  0  0  0  0
  146.8824  140.8393  151.8369 H   0  0  0  0  0  0  0  0  0  0  0  0
  146.2121  133.7476  151.5488 H   0  0  0  0  0  0  0  0  0  0  0  0
  1  2  1  0  0  0  0
  1 24  1  0  0  0  0
  1 25  1  0  0  0  0
  1 26  1  0  0  0  0
  2  3  1  0  0  0  0
  2 27  1  0  0  0  0
  2 28  1  0  0  0  0
  3 23  1  0  0  0  0
  3  4  1  0  0  0  0
  4  5  2  0  0  0  0
  4 29  1  0  0  0  0
  5  6  1  0  0  0  0
  5 30  1  0  0  0  0
  6  7  2  0  0  0  0
  6  8  1  0  0  0  0
  8  9  1  0  0  0  0
  8 23  2  0  0  0  0
  9 10  1  0  0  0  0
  9 31  1  0  0  0  0
 10 11  2  0  0  0  0
 10 12  1  0  0  0  0
 12 13  1  0  0  0  0
 12 32  1  0  0  0  0
 13 19  1  0  0  0  0
 13 14  1  0  0  0  0
 13 33  1  0  0  0  0
 14 15  1  0  0  0  0
 14 34  1  0  0  0  0
 14 35  1  0  0  0  0
 15 16  1  0  0  0  0
 15 17  1  0  0  0  0
 15 36  1  0  0  0  0
 16 37  1  0  0  0  0
 16 38  1  0  0  0  0
 16 39  1  0  0  0  0
 17 18  1  0  0  0  0
 17 40  1  0  0  0  0
 17 41  1  0  0  0  0
 18 19  1  0  0  0  0
 18 42  1  0  0  0  0
 18 43  1  0  0  0  0
 19 20  1  0  0  0  0
 19 44  1  0  0  0  0
 20 21  1  0  0  0  0
 20 22  1  0  0  0  0
 20 45  1  0  0  0  0
 21 46  1  0  0  0  0
 21 47  1  0  0  0  0
 21 48  1  0  0  0  0
 22 49  1  0  0  0  0
 22 50  1  0  0  0  0
 22 51  1  0  0  0  0
 23 52  1  0  0  0  0
M  END
> <s_m_source_file>
AV-unprocessed.smi

> <i_m_source_file_index>
3030

> <i_lp_mmshare_version>
43012

> <i_f3d_flags>
0

> <s_epik_input>
W0NIM11bQ0gyXW4xW2NIXVtjSF1jKD1PKWMoW2NIXTEpW05IXUMoPU8pW05IXVtDQEBIXTJbQ0gyXVtDQEBIXShbQ0gzXSlbQ0gyXVtDSDJdW0NASF0yW0NIXShbQ0gzXSlbQ0gzXQ==

> <s_epik_cmdline>
J2VwaWtfcHl0aG9uJywgJy1waCcsICc3LjAnLCAnLXRuJywgJzgnLCAnLW1hJywgJzIwMCcsICctbWV0YWxfYmluZGluZycsICctaW1hZScsICc8aW5maWxlLm1hZT4nLCAnLW9tYWUnLCAnPG91dGZpbGUubWFlPic=

> <r_lp_tautomer_probability>
1

> <r_epik_Ionization_Penalty>
0.00147933

> <r_epik_Ionization_Penalty_Charging>
0.00145753

> <r_epik_Ionization_Penalty_Neutral>
2.17987e-05

> <r_epik_State_Penalty>
0.00097457

> <r_epik_Charging_Adjusted_Penalty>
0.0024321

> <i_epik_Tot_Q>
0

> <i_epik_Tot_abs_Q>
0

> <r_epik_Metal_State_Penalty>
-0

> <b_epik_Metal_Only>
0

> <s_lp_Force_Field>
OPLS_2005

> <r_lp_Energy>
13.818

> <b_lp_Chiralities_Consistent>
1

> <s_lp_Variant>
AV-unprocessed.smi:3030-2

> <Gold.Version>
5.8.1

> <Gold.Id.Protein>
6NUR|6NUR_protein|mol2

> <Gold.PLP.Fitness>
40.4057

> <Gold.PLP.PLP>
-34.7598

> <Gold.PLP.part.hbond>
-1.7509

> <Gold.PLP.part.metal>
0.0000

> <Gold.PLP.part.buried>
-0.6851

> <Gold.PLP.part.nonpolar>
-32.6758

> <Gold.PLP.part.repulsive>
0.2087

> <Gold.PLP.ligand.clash>
0.0000

> <Gold.PLP.ligand.torsion>
0.4356

> <Gold.PLP.Chemscore.Hbond>
1.7440

> <Gold.PLP.Chemscore.CHOScore>
0.4063

> <Gold.PLP.Chemscore.Metal>
0.0000

> <Gold.Chemscore.Hbonds>
donor molecule, donor type, donor heavy atom, donor atom, acceptor molecule, acceptor atom, score
      L1  H     9    31       P1  7948  0.78
      L1  H    12    32       P1  7948  0.94
      L1  C     4    29       P1 10186  0.30

> <Gold.PLP.Chemscore.Internal.Correction>
0.0661

> <Gold.Rescore>
     Score         DG    S(hbond)    S(metal)    S(lipo)     H(rot)  DE(clash)    DE(int)     intcor
     14.58     -18.75       1.81        0.00      89.42       1.27       0.26       3.92       ----

> <Gold.Chemscore.Fitness>
14.5771

> <Gold.Chemscore.DG>
-18.7544

> <Gold.Chemscore.ZeroCoef>
-5.4800

> <Gold.Chemscore.Hbond>
1.8143

> <Gold.Chemscore.Metal>
0.0000

> <Gold.Chemscore.Lipo>
89.4187

> <Gold.Chemscore.Internal_Hbond>
0.0000

> <Gold.Chemscore.DEClash>
0.2587

> <Gold.Chemscore.DEInternal>
3.9186

> <Gold.Chemscore.Rot>
1.2685

> <Gold.Chemscore.Internal.Correction>
   9.000000E+99

> <Gold.Chemscore.Hbonds>
donor molecule, donor type, donor heavy atom, donor atom, acceptor molecule, acceptor atom, score
      L1  H     9    31       P1  7948  0.78
      L1  H    12    32       P1  7948  0.87

> <Gold.Chemscore.Hbond.Weighted>
-6.0598

> <Gold.Chemscore.Metal.Weighted>
-0.0000

> <Gold.Chemscore.Lipo.Weighted>
-10.4620

> <Gold.Chemscore.Internal_Hbond.Weighted>
0.0000

> <Gold.Chemscore.DEClash.Weighted>
0.2587

> <Gold.Chemscore.DEInternal.Weighted>
3.9186

> <Gold.Chemscore.Rot.Weighted>
3.2474

> <Gold.Chemscore.Internal.Correction.Weighted>
   9.000000E+99

> <Gold.Protein.RotatedTorsions>
[ 6907 6896 6895 6894 ] final   95.83 input  -60.11 | X-H torsion
[ 7974 7965 7964 7962 ] final  146.50 input  175.53 | X-H torsion
[ 8008 7997 7996 7995 ] final -156.02 input   59.86 | X-H torsion
[ 10167 10162 10161 10158 ] final  -88.49 input  -65.29 | X-H torsion
[ 10718 10713 10712 10709 ] final  -53.22 input   66.30 | X-H torsion
[ 10763 10752 10751 10750 ] final   51.15 input  -60.55 | X-H torsion
[ 11005 11000 10999 10996 ] final   53.58 input  -57.11 | X-H torsion

> <Gold.Protein.ActiveResidues>
 VAL166  LYS551  ARG553  GLY616  TRP617  ASP618  TYR619  PRO620  LYS621  CYS622 
 ASP623  PHE694  ASN695  SER759  ASP760  ASP761  ALA762  ILE779  LEU786  VAL792 
 PHE793  MET794  SER795  GLU796  ALA797  LYS798  CYS799  TRP800  GLU811  SER814 

> <Gold.Protein.RotatedAtoms>
  152.5440  134.0979  159.8304 H   0  0  0  0  0  0  0  0  0  0  0  0  # atno 6907 bound_to 6896
  151.1061  133.5200  159.2615 H   0  0  0  0  0  0  0  0  0  0  0  0  # atno 6908 bound_to 6896
  151.1937  135.0422  159.8897 H   0  0  0  0  0  0  0  0  0  0  0  0  # atno 6909 bound_to 6896
  144.8666  139.5912  143.5906 H   0  0  0  0  0  0  0  0  0  0  0  0  # atno 7974 bound_to 7965
  155.7107  140.0778  157.2372 H   0  0  0  0  0  0  0  0  0  0  0  0  # atno 8008 bound_to 7997
  154.4059  140.1630  156.2347 H   0  0  0  0  0  0  0  0  0  0  0  0  # atno 8009 bound_to 7997
  155.9285  140.3393  155.6232 H   0  0  0  0  0  0  0  0  0  0  0  0  # atno 8010 bound_to 7997
  140.3742  143.2779  151.9463 H   0  0  0  0  0  0  0  0  0  0  0  0  # atno 10167 bound_to 10162
  156.1554  130.4150  149.9878 H   0  0  0  0  0  0  0  0  0  0  0  0  # atno 10718 bound_to 10713
  152.9785  135.5855  154.4368 H   0  0  0  0  0  0  0  0  0  0  0  0  # atno 10763 bound_to 10752
  154.3974  135.2768  155.2119 H   0  0  0  0  0  0  0  0  0  0  0  0  # atno 10764 bound_to 10752
  154.3965  135.6113  153.5927 H   0  0  0  0  0  0  0  0  0  0  0  0  # atno 10765 bound_to 10752
  140.0756  134.5410  155.9000 H   0  0  0  0  0  0  0  0  0  0  0  0  # atno 11005 bound_to 11000
  146.2900  139.7113  142.9167 LP  0  0  0  0  0  0  0  0  0  0  0  0  # atno 17320 bound_to 7965
  145.4209  141.0406  143.2964 LP  0  0  0  0  0  0  0  0  0  0  0  0  # atno 17321 bound_to 7965
  139.4801  144.5879  151.7822 LP  0  0  0  0  0  0  0  0  0  0  0  0  # atno 17342 bound_to 10162
  140.5003  144.1179  150.5969 LP  0  0  0  0  0  0  0  0  0  0  0  0  # atno 17343 bound_to 10162
  156.7723  130.9191  151.3644 LP  0  0  0  0  0  0  0  0  0  0  0  0  # atno 17370 bound_to 10713
  157.6690  130.9034  149.9998 LP  0  0  0  0  0  0  0  0  0  0  0  0  # atno 17371 bound_to 10713
  141.2028  133.6627  156.6027 LP  0  0  0  0  0  0  0  0  0  0  0  0  # atno 17394 bound_to 11000
  140.3563  134.7725  157.4502 LP  0  0  0  0  0  0  0  0  0  0  0  0  # atno 17395 bound_to 11000

$$$$
