AV-unprocessed.smi:844|AV-procd|sdf|3923|dock4
  -GOLD-   22720 1383D 1   1.00000     0.00000
 Structure written by MMmdl.
 32 34  0  0  0  0  0  0  0  0  1 V2000
  150.6746  143.9502  157.7207 O   0  0  0  0  0  0  0  0  0  0  0  0
  151.3011  142.7483  158.1213 C   0  0  2  0  0  0  0  0  0  0  0  0
  150.2709  141.6083  158.0016 C   0  0  0  0  0  0  0  0  0  0  0  0
  150.0023  141.2559  156.6193 N   0  0  0  0  0  0  0  0  0  0  0  0
  150.8516  140.6791  155.7472 C   0  0  0  0  0  0  0  0  0  0  0  0
  150.4007  140.4536  154.5165 N   0  0  0  0  0  0  0  0  0  0  0  0
  149.1063  140.9374  154.6004 C   0  0  0  0  0  0  0  0  0  0  0  0
  148.0834  140.9954  153.6267 C   0  0  0  0  0  0  0  0  0  0  0  0
  146.8229  141.5417  153.9463 C   0  0  0  0  0  0  0  0  0  0  0  0
  146.5656  142.0376  155.2412 C   0  0  0  0  0  0  0  0  0  0  0  0
  147.5689  141.9906  156.2281 C   0  0  0  0  0  0  0  0  0  0  0  0
  148.8250  141.4446  155.9048 C   0  0  0  0  0  0  0  0  0  0  0  0
  151.8941  142.8447  159.5229 C   0  0  0  0  0  0  0  0  0  0  0  0
  151.6766  143.9980  160.3097 C   0  0  0  0  0  0  0  0  0  0  0  0
  152.2064  144.0827  161.6116 C   0  0  0  0  0  0  0  0  0  0  0  0
  152.9552  143.0134  162.1380 C   0  0  0  0  0  0  0  0  0  0  0  0
  153.4635  143.0941  163.3903 F   0  0  0  0  0  0  0  0  0  0  0  0
  153.1725  141.8591  161.3618 C   0  0  0  0  0  0  0  0  0  0  0  0
  152.6437  141.7723  160.0591 C   0  0  0  0  0  0  0  0  0  0  0  0
  152.8533  140.6489  159.3311 F   0  0  0  0  0  0  0  0  0  0  0  0
  150.1259  143.7671  156.9733 H   0  0  0  0  0  0  0  0  0  0  0  0
  152.1048  142.5762  157.4046 H   0  0  0  0  0  0  0  0  0  0  0  0
  150.6119  140.7191  158.5342 H   0  0  0  0  0  0  0  0  0  0  0  0
  149.3258  141.9035  158.4595 H   0  0  0  0  0  0  0  0  0  0  0  0
  151.8610  140.4177  156.0296 H   0  0  0  0  0  0  0  0  0  0  0  0
  148.2694  140.6188  152.6318 H   0  0  0  0  0  0  0  0  0  0  0  0
  146.0488  141.5810  153.1939 H   0  0  0  0  0  0  0  0  0  0  0  0
  145.5970  142.4540  155.4764 H   0  0  0  0  0  0  0  0  0  0  0  0
  147.3765  142.3698  157.2207 H   0  0  0  0  0  0  0  0  0  0  0  0
  151.0974  144.8218  159.9190 H   0  0  0  0  0  0  0  0  0  0  0  0
  152.0359  144.9676  162.2071 H   0  0  0  0  0  0  0  0  0  0  0  0
  153.7436  141.0370  161.7674 H   0  0  0  0  0  0  0  0  0  0  0  0
  1  2  1  0  0  0  0
  1 21  1  0  0  0  0
  2  3  1  0  0  0  0
  2 13  1  0  0  0  0
  2 22  1  0  0  0  0
  3  4  1  0  0  0  0
  3 23  1  0  0  0  0
  3 24  1  0  0  0  0
  4 12  1  0  0  0  0
  4  5  1  0  0  0  0
  5  6  2  0  0  0  0
  5 25  1  0  0  0  0
  6  7  1  0  0  0  0
  7 12  2  0  0  0  0
  7  8  1  0  0  0  0
  8  9  2  0  0  0  0
  8 26  1  0  0  0  0
  9 10  1  0  0  0  0
  9 27  1  0  0  0  0
 10 11  2  0  0  0  0
 10 28  1  0  0  0  0
 11 12  1  0  0  0  0
 11 29  1  0  0  0  0
 13 19  1  0  0  0  0
 13 14  2  0  0  0  0
 14 15  1  0  0  0  0
 14 30  1  0  0  0  0
 15 16  2  0  0  0  0
 15 31  1  0  0  0  0
 16 17  1  0  0  0  0
 16 18  1  0  0  0  0
 18 19  2  0  0  0  0
 18 32  1  0  0  0  0
 19 20  1  0  0  0  0
M  END
> <s_m_source_file>
AV-unprocessed.smi

> <i_m_source_file_index>
844

> <i_lp_mmshare_version>
43012

> <i_f3d_flags>
0

> <s_epik_input>
RmMxW2NIXWMoRilbY0hdW2NIXWMxW0NASF0oW09IXSlbQ0gyXW4oW2NIXW4yKWMoYzIzKVtjSF1bY0hdW2NIXVtjSF0z

> <s_epik_cmdline>
J2VwaWtfcHl0aG9uJywgJy1waCcsICc3LjAnLCAnLXRuJywgJzgnLCAnLW1hJywgJzIwMCcsICctbWV0YWxfYmluZGluZycsICctaW1hZScsICc8aW5maWxlLm1hZT4nLCAnLW9tYWUnLCAnPG91dGZpbGUubWFlPic=

> <r_epik_Ionization_Penalty>
0.0696514

> <r_epik_Ionization_Penalty_Charging>
0

> <r_epik_Ionization_Penalty_Neutral>
0.0696514

> <r_epik_State_Penalty>
0.0610247

> <r_epik_Charging_Adjusted_Penalty>
0.0610247

> <i_epik_Tot_Q>
0

> <i_epik_Tot_abs_Q>
0

> <r_epik_Metal_State_Penalty>
6.42746e-05

> <b_epik_Metal_Only>
0

> <s_lp_Force_Field>
OPLS_2005

> <r_lp_Energy>
12.41

> <b_lp_Chiralities_Consistent>
1

> <s_lp_Variant>
AV-unprocessed.smi:844-1

> <Gold.Version>
5.8.1

> <Gold.Id.Protein>
6NUR|6NUR_protein|mol2

> <Gold.PLP.Fitness>
55.9044

> <Gold.PLP.PLP>
-50.9478

> <Gold.PLP.part.hbond>
-2.0000

> <Gold.PLP.part.metal>
0.0000

> <Gold.PLP.part.buried>
-3.9942

> <Gold.PLP.part.nonpolar>
-44.6079

> <Gold.PLP.part.repulsive>
0.1078

> <Gold.PLP.ligand.clash>
0.0000

> <Gold.PLP.ligand.torsion>
0.2037

> <Gold.PLP.Chemscore.Hbond>
1.7840

> <Gold.PLP.Chemscore.CHOScore>
0.0000

> <Gold.PLP.Chemscore.Metal>
0.0000

> <Gold.Chemscore.Hbonds>
donor molecule, donor type, donor heavy atom, donor atom, acceptor molecule, acceptor atom, score
      L1  H     1    21       P1  8028  0.78
      P1  H  7989  7998       L1     6  1.00

> <Gold.PLP.Chemscore.Internal.Correction>
0.0120

> <Gold.Rescore>
     Score         DG    S(hbond)    S(metal)    S(lipo)     H(rot)  DE(clash)    DE(int)     intcor
     18.11     -18.81       1.48        0.00     115.56       2.00       0.38       0.32       ----

> <Gold.Chemscore.Fitness>
18.1126

> <Gold.Chemscore.DG>
-18.8104

> <Gold.Chemscore.ZeroCoef>
-5.4800

> <Gold.Chemscore.Hbond>
1.4791

> <Gold.Chemscore.Metal>
0.0000

> <Gold.Chemscore.Lipo>
115.5589

> <Gold.Chemscore.Internal_Hbond>
0.0000

> <Gold.Chemscore.DEClash>
0.3762

> <Gold.Chemscore.DEInternal>
0.3217

> <Gold.Chemscore.Rot>
2.0040

> <Gold.Chemscore.Internal.Correction>
   9.000000E+99

> <Gold.Chemscore.Hbonds>
donor molecule, donor type, donor heavy atom, donor atom, acceptor molecule, acceptor atom, score
      L1  H     1    21       P1  8028  0.72
      P1  H  7989  7998       L1     6  0.52

> <Gold.Chemscore.Hbond.Weighted>
-4.9403

> <Gold.Chemscore.Metal.Weighted>
-0.0000

> <Gold.Chemscore.Lipo.Weighted>
-13.5204

> <Gold.Chemscore.Internal_Hbond.Weighted>
0.0000

> <Gold.Chemscore.DEClash.Weighted>
0.3762

> <Gold.Chemscore.DEInternal.Weighted>
0.3217

> <Gold.Chemscore.Rot.Weighted>
5.1303

> <Gold.Chemscore.Internal.Correction.Weighted>
   9.000000E+99

> <Gold.Protein.RotatedTorsions>
[ 6907 6896 6895 6894 ] final   -9.93 input  -60.11 | X-H torsion
[ 7974 7965 7964 7962 ] final   18.53 input  175.53 | X-H torsion
[ 8008 7997 7996 7995 ] final  -63.65 input   59.86 | X-H torsion
[ 10167 10162 10161 10158 ] final -151.73 input  -65.29 | X-H torsion
[ 10718 10713 10712 10709 ] final   14.13 input   66.30 | X-H torsion
[ 10763 10752 10751 10750 ] final   99.49 input  -60.55 | X-H torsion
[ 11005 11000 10999 10996 ] final  -58.86 input  -57.11 | X-H torsion

> <Gold.Protein.ActiveResidues>
 VAL166  LYS551  ARG553  GLY616  TRP617  ASP618  TYR619  PRO620  LYS621  CYS622 
 ASP623  PHE694  ASN695  SER759  ASP760  ASP761  ALA762  ILE779  LEU786  VAL792 
 PHE793  MET794  SER795  GLU796  ALA797  LYS798  CYS799  TRP800  GLU811  SER814 

> <Gold.Protein.RotatedAtoms>
  151.4100  135.0983  159.9581 H   0  0  0  0  0  0  0  0  0  0  0  0  # atno 6907 bound_to 6896
  152.5023  133.8807  159.7355 H   0  0  0  0  0  0  0  0  0  0  0  0  # atno 6908 bound_to 6896
  150.9299  133.6722  159.2841 H   0  0  0  0  0  0  0  0  0  0  0  0  # atno 6909 bound_to 6896
  146.2181  139.8443  142.8635 H   0  0  0  0  0  0  0  0  0  0  0  0  # atno 7974 bound_to 7965
  154.4567  140.0970  156.6776 H   0  0  0  0  0  0  0  0  0  0  0  0  # atno 8008 bound_to 7997
  155.5118  140.3476  155.4371 H   0  0  0  0  0  0  0  0  0  0  0  0  # atno 8009 bound_to 7997
  156.0790  140.1368  156.9724 H   0  0  0  0  0  0  0  0  0  0  0  0  # atno 8010 bound_to 7997
  139.7242  143.8909  152.2513 H   0  0  0  0  0  0  0  0  0  0  0  0  # atno 10167 bound_to 10162
  157.0346  130.6206  149.5741 H   0  0  0  0  0  0  0  0  0  0  0  0  # atno 10718 bound_to 10713
  153.3020  135.4112  155.1261 H   0  0  0  0  0  0  0  0  0  0  0  0  # atno 10763 bound_to 10752
  154.8552  135.3544  154.5839 H   0  0  0  0  0  0  0  0  0  0  0  0  # atno 10764 bound_to 10752
  153.6264  135.7062  153.5350 H   0  0  0  0  0  0  0  0  0  0  0  0  # atno 10765 bound_to 10752
  141.1225  133.6614  156.4985 H   0  0  0  0  0  0  0  0  0  0  0  0  # atno 11005 bound_to 11000
  145.2866  141.0155  143.3687 LP  0  0  0  0  0  0  0  0  0  0  0  0  # atno 17320 bound_to 7965
  144.9109  139.4530  143.6587 LP  0  0  0  0  0  0  0  0  0  0  0  0  # atno 17321 bound_to 7965
  139.8814  144.7015  150.8874 LP  0  0  0  0  0  0  0  0  0  0  0  0  # atno 17342 bound_to 10162
  140.7759  143.3658  151.1741 LP  0  0  0  0  0  0  0  0  0  0  0  0  # atno 17343 bound_to 10162
  156.0058  130.5144  150.7824 LP  0  0  0  0  0  0  0  0  0  0  0  0  # atno 17370 bound_to 10713
  157.5151  131.0928  151.0149 LP  0  0  0  0  0  0  0  0  0  0  0  0  # atno 17371 bound_to 10713
  140.4465  134.6967  157.5018 LP  0  0  0  0  0  0  0  0  0  0  0  0  # atno 17394 bound_to 11000
  140.0194  134.6570  155.9262 LP  0  0  0  0  0  0  0  0  0  0  0  0  # atno 17395 bound_to 11000

$$$$
