AV-unprocessed.smi:1033|AV-procd|sdf|4513|dock7
  -GOLD-   22720 2523D 1   1.00000     0.00000
 Structure written by MMmdl.
 57 59  0  0  0  0  0  0  0  0  3 V2000
  152.0329  129.7725  154.9716 C   0  0  0  0  0  0  0  0  0  0  0  0
  150.8236  130.5982  155.3742 C   0  0  0  0  0  0  0  0  0  0  0  0
  150.9638  131.5720  156.3884 C   0  0  0  0  0  0  0  0  0  0  0  0
  149.8642  132.3599  156.7929 C   0  0  0  0  0  0  0  0  0  0  0  0
  149.7763  133.3572  157.7490 N   0  0  0  0  0  0  0  0  0  0  0  0
  148.4961  133.7044  157.6578 C   0  0  0  0  0  0  0  0  0  0  0  0
  147.7434  133.0532  156.7503 N   0  0  0  0  0  0  0  0  0  0  0  0
  146.3333  133.2626  156.4734 C   0  0  0  0  0  0  0  0  0  0  0  0
  146.0525  133.4757  154.9735 C   0  0  1  0  0  0  0  0  0  0  0  0
  144.7011  133.8566  154.7979 O   0  0  0  0  0  0  0  0  0  0  0  0
  146.9516  134.5756  154.3751 C   0  0  0  0  0  0  0  0  0  0  0  0
  146.7883  134.7088  152.9042 N   0  3  2  0  0  0  0  0  0  0  0  0
  145.6437  135.5694  152.5093 C   0  0  0  0  0  0  0  0  0  0  0  0
  145.5895  135.7473  150.9799 C   0  0  0  0  0  0  0  0  0  0  0  0
  145.5301  134.4432  150.2725 N   0  3  2  0  0  0  0  0  0  0  0  0
  144.1868  133.8040  150.3154 C   0  0  0  0  0  0  0  0  0  0  0  0
  144.1805  132.3855  149.7101 C   0  0  1  0  0  0  0  0  0  0  0  0
  144.5403  131.3206  150.7543 C   0  0  0  0  0  0  0  0  0  0  0  0
  142.8885  132.0893  149.2194 O   0  0  0  0  0  0  0  0  0  0  0  0
  146.6523  133.5597  150.6867 C   0  0  0  0  0  0  0  0  0  0  0  0
  146.7334  133.3936  152.2186 C   0  0  0  0  0  0  0  0  0  0  0  0
  148.6099  132.1455  156.1498 C   0  0  0  0  0  0  0  0  0  0  0  0
  148.4582  131.1805  155.1384 C   0  0  0  0  0  0  0  0  0  0  0  0
  149.5670  130.4013  154.7472 C   0  0  0  0  0  0  0  0  0  0  0  0
  149.3929  129.3612  153.6546 C   0  0  0  0  0  0  0  0  0  0  0  0
  152.9272  130.0874  155.5099 H   0  0  0  0  0  0  0  0  0  0  0  0
  152.2313  129.8779  153.9050 H   0  0  0  0  0  0  0  0  0  0  0  0
  151.8638  128.7179  155.1905 H   0  0  0  0  0  0  0  0  0  0  0  0
  151.9210  131.7222  156.8661 H   0  0  0  0  0  0  0  0  0  0  0  0
  148.0814  134.4795  158.2857 H   0  0  0  0  0  0  0  0  0  0  0  0
  145.7721  132.4073  156.8523 H   0  0  0  0  0  0  0  0  0  0  0  0
  146.0005  134.1297  157.0455 H   0  0  0  0  0  0  0  0  0  0  0  0
  146.2095  132.5297  154.4558 H   0  0  0  0  0  0  0  0  0  0  0  0
  144.1540  133.0966  154.9335 H   0  0  0  0  0  0  0  0  0  0  0  0
  146.7035  135.5216  154.8596 H   0  0  0  0  0  0  0  0  0  0  0  0
  148.0004  134.3839  154.6068 H   0  0  0  0  0  0  0  0  0  0  0  0
  144.7126  135.1317  152.8729 H   0  0  0  0  0  0  0  0  0  0  0  0
  145.7299  136.5505  152.9751 H   0  0  0  0  0  0  0  0  0  0  0  0
  144.7449  136.3756  150.6942 H   0  0  0  0  0  0  0  0  0  0  0  0
  146.4833  136.2766  150.6469 H   0  0  0  0  0  0  0  0  0  0  0  0
  143.8235  133.7769  151.3427 H   0  0  0  0  0  0  0  0  0  0  0  0
  143.4696  134.4141  149.7635 H   0  0  0  0  0  0  0  0  0  0  0  0
  144.8882  132.3065  148.8858 H   0  0  0  0  0  0  0  0  0  0  0  0
  145.5412  131.4869  151.1536 H   0  0  0  0  0  0  0  0  0  0  0  0
  144.5234  130.3209  150.3186 H   0  0  0  0  0  0  0  0  0  0  0  0
  143.8421  131.3301  151.5923 H   0  0  0  0  0  0  0  0  0  0  0  0
  142.3516  132.8650  149.2698 H   0  0  0  0  0  0  0  0  0  0  0  0
  146.5841  132.5855  150.2040 H   0  0  0  0  0  0  0  0  0  0  0  0
  147.5805  134.0066  150.3277 H   0  0  0  0  0  0  0  0  0  0  0  0
  147.6257  132.8168  152.4656 H   0  0  0  0  0  0  0  0  0  0  0  0
  145.8817  132.8229  152.5913 H   0  0  0  0  0  0  0  0  0  0  0  0
  147.4967  131.0410  154.6671 H   0  0  0  0  0  0  0  0  0  0  0  0
  148.3552  129.3005  153.3249 H   0  0  0  0  0  0  0  0  0  0  0  0
  149.6868  128.3745  154.0129 H   0  0  0  0  0  0  0  0  0  0  0  0
  150.0056  129.6125  152.7887 H   0  0  0  0  0  0  0  0  0  0  0  0
  145.6797  134.6597  149.2970 H   0  0  0  0  0  0  0  0  0  0  0  0
  147.6290  135.1622  152.5740 H   0  0  0  0  0  0  0  0  0  0  0  0
  1  2  1  0  0  0  0
  1 26  1  0  0  0  0
  1 27  1  0  0  0  0
  1 28  1  0  0  0  0
  2 24  1  0  0  0  0
  2  3  2  0  0  0  0
  3  4  1  0  0  0  0
  3 29  1  0  0  0  0
  4 22  2  0  0  0  0
  4  5  1  0  0  0  0
  5  6  2  0  0  0  0
  6  7  1  0  0  0  0
  6 30  1  0  0  0  0
  7  8  1  0  0  0  0
  7 22  1  0  0  0  0
  8  9  1  0  0  0  0
  8 31  1  0  0  0  0
  8 32  1  0  0  0  0
  9 10  1  0  0  0  0
  9 11  1  0  0  0  0
  9 33  1  0  0  0  0
 10 34  1  0  0  0  0
 11 12  1  0  0  0  0
 11 35  1  0  0  0  0
 11 36  1  0  0  0  0
 12 21  1  0  0  0  0
 12 13  1  0  0  0  0
 12 57  1  0  0  0  0
 13 14  1  0  0  0  0
 13 37  1  0  0  0  0
 13 38  1  0  0  0  0
 14 15  1  0  0  0  0
 14 39  1  0  0  0  0
 14 40  1  0  0  0  0
 15 16  1  0  0  0  0
 15 20  1  0  0  0  0
 15 56  1  0  0  0  0
 16 17  1  0  0  0  0
 16 41  1  0  0  0  0
 16 42  1  0  0  0  0
 17 18  1  0  0  0  0
 17 19  1  0  0  0  0
 17 43  1  0  0  0  0
 18 44  1  0  0  0  0
 18 45  1  0  0  0  0
 18 46  1  0  0  0  0
 19 47  1  0  0  0  0
 20 21  1  0  0  0  0
 20 48  1  0  0  0  0
 20 49  1  0  0  0  0
 21 50  1  0  0  0  0
 21 51  1  0  0  0  0
 22 23  1  0  0  0  0
 23 24  2  0  0  0  0
 23 52  1  0  0  0  0
 24 25  1  0  0  0  0
 25 53  1  0  0  0  0
 25 54  1  0  0  0  0
 25 55  1  0  0  0  0
M  CHG  1  12   1
M  CHG  1  15   1
M  END
> <s_m_source_file>
AV-unprocessed.smi

> <i_m_source_file_index>
1033

> <i_lp_mmshare_version>
43012

> <i_f3d_flags>
0

> <s_epik_input>
W0NIM11jKFtjSF0xKWMoW0NIM10pW2NIXWMoYzEyKW4oW2NIXW4yKVtDSDJdW0NASF0oW09IXSlbQ0gyXU4zW0NIMl1bQ0gyXU4oW0NIMl1bQ0gyXTMpW0NIMl1bQ0BIXShbQ0gzXSlbT0hd

> <s_epik_cmdline>
J2VwaWtfcHl0aG9uJywgJy1waCcsICc3LjAnLCAnLXRuJywgJzgnLCAnLW1hJywgJzIwMCcsICctbWV0YWxfYmluZGluZycsICctaW1hZScsICc8aW5maWxlLm1hZT4nLCAnLW9tYWUnLCAnPG91dGZpbGUubWFlPic=

> <r_epik_Ionization_Penalty>
3.16016

> <r_epik_Ionization_Penalty_Charging>
3.07679

> <r_epik_Ionization_Penalty_Neutral>
0.083365

> <r_epik_State_Penalty>
2.09701

> <r_epik_Charging_Adjusted_Penalty>
5.1738

> <i_epik_Tot_Q>
2

> <i_epik_Tot_abs_Q>
2

> <r_epik_Metal_State_Penalty>
2.02534

> <b_epik_Metal_Only>
0

> <s_lp_Force_Field>
OPLS_2005

> <r_lp_Energy>
29.7728

> <b_lp_Chiralities_Consistent>
1

> <s_lp_Variant>
AV-unprocessed.smi:1033-24

> <Gold.Version>
5.8.1

> <Gold.Id.Protein>
6NUR|6NUR_protein|mol2

> <Gold.PLP.Fitness>
58.7531

> <Gold.PLP.PLP>
-39.3358

> <Gold.PLP.part.hbond>
-7.0000

> <Gold.PLP.part.metal>
0.0000

> <Gold.PLP.part.buried>
-7.2966

> <Gold.PLP.part.nonpolar>
-25.9906

> <Gold.PLP.part.repulsive>
0.0787

> <Gold.PLP.ligand.clash>
0.0000

> <Gold.PLP.ligand.torsion>
0.6985

> <Gold.PLP.Chemscore.Hbond>
6.8754

> <Gold.PLP.Chemscore.CHOScore>
0.0000

> <Gold.PLP.Chemscore.Metal>
0.0000

> <Gold.Chemscore.Hbonds>
donor molecule, donor type, donor heavy atom, donor atom, acceptor molecule, acceptor atom, score
      L1  H    10    34       P1 10957  1.00
      L1  H    12    57       P1  7948  2.00
      L1  H    15    56       P1  7921  1.00
      L1  H    19    47       P1 10186  0.91
      P1  H  6896  6909       L1     5  1.00
      P1  H 10785 10796       L1    19  0.95

> <Gold.PLP.Chemscore.Internal.Correction>
0.1881

> <Gold.Rescore>
     Score         DG    S(hbond)    S(metal)    S(lipo)     H(rot)  DE(clash)    DE(int)     intcor
     23.79     -24.76       4.93        0.00      92.84       3.14       0.06       0.90       ----

> <Gold.Chemscore.Fitness>
23.7931

> <Gold.Chemscore.DG>
-24.7612

> <Gold.Chemscore.ZeroCoef>
-5.4800

> <Gold.Chemscore.Hbond>
4.9258

> <Gold.Chemscore.Metal>
0.0000

> <Gold.Chemscore.Lipo>
92.8388

> <Gold.Chemscore.Internal_Hbond>
0.0000

> <Gold.Chemscore.DEClash>
0.0646

> <Gold.Chemscore.DEInternal>
0.9035

> <Gold.Chemscore.Rot>
3.1380

> <Gold.Chemscore.Internal.Correction>
   9.000000E+99

> <Gold.Chemscore.Hbonds>
donor molecule, donor type, donor heavy atom, donor atom, acceptor molecule, acceptor atom, score
      L1  H    10    34       P1 10957  0.97
      L1  H    12    57       P1  7948  1.00
      L1  H    15    56       P1  7921  0.94
      L1  H    19    47       P1 10186  0.87
      P1  H  6896  6909       L1     5  0.99
      P1  H 10785 10796       L1    19  0.20

> <Gold.Chemscore.Hbond.Weighted>
-16.4523

> <Gold.Chemscore.Metal.Weighted>
-0.0000

> <Gold.Chemscore.Lipo.Weighted>
-10.8621

> <Gold.Chemscore.Internal_Hbond.Weighted>
0.0000

> <Gold.Chemscore.DEClash.Weighted>
0.0646

> <Gold.Chemscore.DEInternal.Weighted>
0.9035

> <Gold.Chemscore.Rot.Weighted>
8.0332

> <Gold.Chemscore.Internal.Correction.Weighted>
   9.000000E+99

> <Gold.Protein.RotatedTorsions>
[ 6907 6896 6895 6894 ] final   -4.22 input  -60.11 | X-H torsion
[ 7974 7965 7964 7962 ] final   55.17 input  175.53 | X-H torsion
[ 8008 7997 7996 7995 ] final -148.86 input   59.86 | X-H torsion
[ 10167 10162 10161 10158 ] final  -47.46 input  -65.29 | X-H torsion
[ 10718 10713 10712 10709 ] final   52.70 input   66.30 | X-H torsion
[ 10763 10752 10751 10750 ] final  -30.03 input  -60.55 | X-H torsion
[ 11005 11000 10999 10996 ] final   12.60 input  -57.11 | X-H torsion

> <Gold.Protein.ActiveResidues>
 VAL166  LYS551  ARG553  GLY616  TRP617  ASP618  TYR619  PRO620  LYS621  CYS622 
 ASP623  PHE694  ASN695  SER759  ASP760  ASP761  ALA762  ILE779  LEU786  VAL792 
 PHE793  MET794  SER795  GLU796  ALA797  LYS798  CYS799  TRP800  GLU811  SER814 

> <Gold.Protein.RotatedAtoms>
  151.5012  135.1062  159.9829 H   0  0  0  0  0  0  0  0  0  0  0  0  # atno 6907 bound_to 6896
  152.4701  133.8006  159.6961 H   0  0  0  0  0  0  0  0  0  0  0  0  # atno 6908 bound_to 6896
  150.8705  133.7449  159.2988 H   0  0  0  0  0  0  0  0  0  0  0  0  # atno 6909 bound_to 6896
  145.9532  139.3991  143.0293 H   0  0  0  0  0  0  0  0  0  0  0  0  # atno 7974 bound_to 7965
  155.5983  140.0659  157.2740 H   0  0  0  0  0  0  0  0  0  0  0  0  # atno 8008 bound_to 7997
  154.4286  140.1823  156.1194 H   0  0  0  0  0  0  0  0  0  0  0  0  # atno 8009 bound_to 7997
  156.0179  140.3320  155.7011 H   0  0  0  0  0  0  0  0  0  0  0  0  # atno 8010 bound_to 7997
  140.6774  143.2783  151.3930 H   0  0  0  0  0  0  0  0  0  0  0  0  # atno 10167 bound_to 10162
  157.5099  130.8494  149.8422 H   0  0  0  0  0  0  0  0  0  0  0  0  # atno 10718 bound_to 10713
  153.7743  135.6910  153.4900 H   0  0  0  0  0  0  0  0  0  0  0  0  # atno 10763 bound_to 10752
  153.1854  135.4491  155.0080 H   0  0  0  0  0  0  0  0  0  0  0  0  # atno 10764 bound_to 10752
  154.8106  135.3376  154.7250 H   0  0  0  0  0  0  0  0  0  0  0  0  # atno 10765 bound_to 10752
  140.4902  134.0848  155.7769 H   0  0  0  0  0  0  0  0  0  0  0  0  # atno 11005 bound_to 11000
  145.8142  140.9711  143.0932 LP  0  0  0  0  0  0  0  0  0  0  0  0  # atno 17320 bound_to 7965
  144.6800  139.9960  143.7484 LP  0  0  0  0  0  0  0  0  0  0  0  0  # atno 17321 bound_to 7965
  139.6074  144.1168  152.2263 LP  0  0  0  0  0  0  0  0  0  0  0  0  # atno 17342 bound_to 10162
  140.0572  144.5886  150.7291 LP  0  0  0  0  0  0  0  0  0  0  0  0  # atno 17343 bound_to 10162
  156.0282  130.3772  150.1761 LP  0  0  0  0  0  0  0  0  0  0  0  0  # atno 17370 bound_to 10713
  156.9951  130.9905  151.3405 LP  0  0  0  0  0  0  0  0  0  0  0  0  # atno 17371 bound_to 10713
  141.1488  133.9007  157.2150 LP  0  0  0  0  0  0  0  0  0  0  0  0  # atno 17394 bound_to 11000
  139.9774  135.0109  156.9664 LP  0  0  0  0  0  0  0  0  0  0  0  0  # atno 17395 bound_to 11000

$$$$
