AV-unprocessed.smi:2318|AV-procd|sdf|9276|dock2
  -GOLD-   2272012503D 1   1.00000     0.00000
 Structure written by MMmdl.
 37 38  0  0  0  0  0  0  0  0  1 V2000
  146.4880  142.8121  154.0467 C   0  0  0  0  0  0  0  0  0  0  0  0
  147.3019  141.6165  154.0950 N   0  0  0  0  0  0  0  0  0  0  0  0
  148.5983  141.4745  154.5477 C   0  0  0  0  0  0  0  0  0  0  0  0
  148.9440  140.1617  154.3939 C   0  0  0  0  0  0  0  0  0  0  0  0
  147.7741  139.5788  153.8334 C   0  0  0  0  0  0  0  0  0  0  0  0
  147.7337  138.1957  153.5228 N   0  0  0  0  0  0  0  0  0  0  0  0
  146.7706  137.3124  153.8366 C   0  0  0  0  0  0  0  0  0  0  0  0
  145.7472  137.5741  154.4694 O   0  0  0  0  0  0  0  0  0  0  0  0
  147.0629  136.0912  153.3659 N   0  0  0  0  0  0  0  0  0  0  0  0
  146.2498  134.8851  153.5360 C   0  0  1  0  0  0  0  0  0  0  0  0
  145.8014  134.3574  152.1481 C   0  0  0  0  0  0  0  0  0  0  0  0
  145.1386  135.4122  151.2526 C   0  0  0  0  0  0  0  0  0  0  0  0
  144.4161  134.6069  150.1729 C   0  0  0  0  0  0  0  0  0  0  0  0
  144.0283  133.2785  150.8340 C   0  0  0  0  0  0  0  0  0  0  0  0
  144.7492  133.2400  152.1886 C   0  0  0  0  0  0  0  0  0  0  0  0
  147.0576  133.8598  154.3643 C   0  0  0  0  0  0  0  0  0  0  0  0
  146.2553  132.8743  154.7692 F   0  0  0  0  0  0  0  0  0  0  0  0
  148.0320  133.3158  153.6364 F   0  0  0  0  0  0  0  0  0  0  0  0
  147.5931  134.4419  155.4380 F   0  0  0  0  0  0  0  0  0  0  0  0
  146.7901  140.4490  153.6517 N   0  0  0  0  0  0  0  0  0  0  0  0
  146.9899  143.6280  154.5677 H   0  0  0  0  0  0  0  0  0  0  0  0
  145.5258  142.6256  154.5248 H   0  0  0  0  0  0  0  0  0  0  0  0
  146.3225  143.1017  153.0086 H   0  0  0  0  0  0  0  0  0  0  0  0
  149.1607  142.3102  154.9373 H   0  0  0  0  0  0  0  0  0  0  0  0
  149.8848  139.6939  154.6441 H   0  0  0  0  0  0  0  0  0  0  0  0
  148.5231  137.8412  153.0036 H   0  0  0  0  0  0  0  0  0  0  0  0
  147.9279  135.9778  152.8580 H   0  0  0  0  0  0  0  0  0  0  0  0
  145.3542  135.1287  154.1104 H   0  0  0  0  0  0  0  0  0  0  0  0
  146.6747  133.9766  151.6160 H   0  0  0  0  0  0  0  0  0  0  0  0
  144.4110  135.9860  151.8287 H   0  0  0  0  0  0  0  0  0  0  0  0
  145.8542  136.1168  150.8276 H   0  0  0  0  0  0  0  0  0  0  0  0
  143.5533  135.1400  149.7723 H   0  0  0  0  0  0  0  0  0  0  0  0
  145.0978  134.4156  149.3432 H   0  0  0  0  0  0  0  0  0  0  0  0
  142.9491  133.2056  150.9732 H   0  0  0  0  0  0  0  0  0  0  0  0
  144.3324  132.4408  150.2051 H   0  0  0  0  0  0  0  0  0  0  0  0
  145.1924  132.2626  152.3817 H   0  0  0  0  0  0  0  0  0  0  0  0
  144.0284  133.4364  152.9837 H   0  0  0  0  0  0  0  0  0  0  0  0
  1  2  1  0  0  0  0
  1 21  1  0  0  0  0
  1 22  1  0  0  0  0
  1 23  1  0  0  0  0
  2 20  1  0  0  0  0
  2  3  1  0  0  0  0
  3  4  2  0  0  0  0
  3 24  1  0  0  0  0
  4  5  1  0  0  0  0
  4 25  1  0  0  0  0
  5  6  1  0  0  0  0
  5 20  2  0  0  0  0
  6  7  1  0  0  0  0
  6 26  1  0  0  0  0
  7  8  2  0  0  0  0
  7  9  1  0  0  0  0
  9 10  1  0  0  0  0
  9 27  1  0  0  0  0
 10 11  1  0  0  0  0
 10 16  1  0  0  0  0
 10 28  1  0  0  0  0
 11 15  1  0  0  0  0
 11 12  1  0  0  0  0
 11 29  1  0  0  0  0
 12 13  1  0  0  0  0
 12 30  1  0  0  0  0
 12 31  1  0  0  0  0
 13 14  1  0  0  0  0
 13 32  1  0  0  0  0
 13 33  1  0  0  0  0
 14 15  1  0  0  0  0
 14 34  1  0  0  0  0
 14 35  1  0  0  0  0
 15 36  1  0  0  0  0
 15 37  1  0  0  0  0
 16 17  1  0  0  0  0
 16 18  1  0  0  0  0
 16 19  1  0  0  0  0
M  END
> <s_m_source_file>
AV-unprocessed.smi

> <i_m_source_file_index>
2318

> <i_lp_mmshare_version>
43012

> <i_f3d_flags>
0

> <s_epik_input>
W0NIM11uMVtjSF1bY0hdYyhuMSlbTkhdQyg9TylbTkhdW0NAQEhdKEMoRikoRilGKVtDSF0yW0NIMl1bQ0gyXVtDSDJdW0NIMl0y

> <s_epik_cmdline>
J2VwaWtfcHl0aG9uJywgJy1waCcsICc3LjAnLCAnLXRuJywgJzgnLCAnLW1hJywgJzIwMCcsICctbWV0YWxfYmluZGluZycsICctaW1hZScsICc8aW5maWxlLm1hZT4nLCAnLW9tYWUnLCAnPG91dGZpbGUubWFlPic=

> <r_lp_tautomer_probability>
1

> <r_epik_Ionization_Penalty>
2.39546e-05

> <r_epik_Ionization_Penalty_Charging>
0

> <r_epik_Ionization_Penalty_Neutral>
2.39546e-05

> <r_epik_State_Penalty>
-0

> <r_epik_Charging_Adjusted_Penalty>
0

> <i_epik_Tot_Q>
0

> <i_epik_Tot_abs_Q>
0

> <r_epik_Metal_State_Penalty>
-0

> <b_epik_Metal_Only>
0

> <s_lp_Force_Field>
OPLS_2005

> <r_lp_Energy>
23.5829

> <b_lp_Chiralities_Consistent>
1

> <s_lp_Variant>
AV-unprocessed.smi:2318-2

> <Gold.Version>
5.8.1

> <Gold.Id.Protein>
6NUR|6NUR_protein|mol2

> <Gold.PLP.Fitness>
38.1609

> <Gold.PLP.PLP>
-31.4312

> <Gold.PLP.part.hbond>
-1.6432

> <Gold.PLP.part.metal>
0.0000

> <Gold.PLP.part.buried>
-3.6034

> <Gold.PLP.part.nonpolar>
-27.1841

> <Gold.PLP.part.repulsive>
0.2611

> <Gold.PLP.ligand.clash>
0.0000

> <Gold.PLP.ligand.torsion>
0.7023

> <Gold.PLP.Chemscore.Hbond>
1.5965

> <Gold.PLP.Chemscore.CHOScore>
1.0000

> <Gold.PLP.Chemscore.Metal>
0.0000

> <Gold.Chemscore.Hbonds>
donor molecule, donor type, donor heavy atom, donor atom, acceptor molecule, acceptor atom, score
      L1  H     6    26       P1  7948  0.77
      L1  H     9    27       P1  7948  0.80
      L1  C     3    24       P1  8028  1.00

> <Gold.PLP.Chemscore.Internal.Correction>
0.3448

> <Gold.Rescore>
     Score         DG    S(hbond)    S(metal)    S(lipo)     H(rot)  DE(clash)    DE(int)     intcor
     13.00     -14.84       1.87        0.00      55.03       1.30       0.11       1.72       ----

> <Gold.Chemscore.Fitness>
13.0039

> <Gold.Chemscore.DG>
-14.8416

> <Gold.Chemscore.ZeroCoef>
-5.4800

> <Gold.Chemscore.Hbond>
1.8720

> <Gold.Chemscore.Metal>
0.0000

> <Gold.Chemscore.Lipo>
55.0250

> <Gold.Chemscore.Internal_Hbond>
0.0000

> <Gold.Chemscore.DEClash>
0.1132

> <Gold.Chemscore.DEInternal>
1.7245

> <Gold.Chemscore.Rot>
1.3003

> <Gold.Chemscore.Internal.Correction>
   9.000000E+99

> <Gold.Chemscore.Hbonds>
donor molecule, donor type, donor heavy atom, donor atom, acceptor molecule, acceptor atom, score
      L1  H     6    26       P1  7948  0.75
      L1  H     9    27       P1  7948  0.78

> <Gold.Chemscore.Hbond.Weighted>
-6.2525

> <Gold.Chemscore.Metal.Weighted>
-0.0000

> <Gold.Chemscore.Lipo.Weighted>
-6.4379

> <Gold.Chemscore.Internal_Hbond.Weighted>
0.0000

> <Gold.Chemscore.DEClash.Weighted>
0.1132

> <Gold.Chemscore.DEInternal.Weighted>
1.7245

> <Gold.Chemscore.Rot.Weighted>
3.3287

> <Gold.Chemscore.Internal.Correction.Weighted>
   9.000000E+99

> <Gold.Protein.RotatedTorsions>
[ 6907 6896 6895 6894 ] final   -8.54 input  -60.11 | X-H torsion
[ 7974 7965 7964 7962 ] final -139.05 input  175.53 | X-H torsion
[ 8008 7997 7996 7995 ] final  170.34 input   59.86 | X-H torsion
[ 10167 10162 10161 10158 ] final -172.12 input  -65.29 | X-H torsion
[ 10718 10713 10712 10709 ] final   81.49 input   66.30 | X-H torsion
[ 10763 10752 10751 10750 ] final   18.71 input  -60.55 | X-H torsion
[ 11005 11000 10999 10996 ] final  144.08 input  -57.11 | X-H torsion

> <Gold.Protein.ActiveResidues>
 VAL166  LYS551  ARG553  GLY616  TRP617  ASP618  TYR619  PRO620  LYS621  CYS622 
 ASP623  PHE694  ASN695  SER759  ASP760  ASP761  ALA762  ILE779  LEU786  VAL792 
 PHE793  MET794  SER795  GLU796  ALA797  LYS798  CYS799  TRP800  GLU811  SER814 

> <Gold.Protein.RotatedAtoms>
  151.4320  135.1010  159.9644 H   0  0  0  0  0  0  0  0  0  0  0  0  # atno 6907 bound_to 6896
  152.4953  133.8609  159.7260 H   0  0  0  0  0  0  0  0  0  0  0  0  # atno 6908 bound_to 6896
  150.9148  133.6894  159.2873 H   0  0  0  0  0  0  0  0  0  0  0  0  # atno 6909 bound_to 6896
  144.8708  140.6364  143.5268 H   0  0  0  0  0  0  0  0  0  0  0  0  # atno 7974 bound_to 7965
  156.1374  140.1540  156.8973 H   0  0  0  0  0  0  0  0  0  0  0  0  # atno 8008 bound_to 7997
  154.4958  140.0838  156.7733 H   0  0  0  0  0  0  0  0  0  0  0  0  # atno 8009 bound_to 7997
  155.4143  140.3420  155.4268 H   0  0  0  0  0  0  0  0  0  0  0  0  # atno 8010 bound_to 7997
  139.5763  144.1526  152.1454 H   0  0  0  0  0  0  0  0  0  0  0  0  # atno 10167 bound_to 10162
  157.6834  131.0006  150.2235 H   0  0  0  0  0  0  0  0  0  0  0  0  # atno 10718 bound_to 10713
  153.1226  135.6722  153.9311 H   0  0  0  0  0  0  0  0  0  0  0  0  # atno 10763 bound_to 10752
  153.8821  135.3057  155.3447 H   0  0  0  0  0  0  0  0  0  0  0  0  # atno 10764 bound_to 10752
  154.7635  135.4976  153.9589 H   0  0  0  0  0  0  0  0  0  0  0  0  # atno 10765 bound_to 10752
  140.0604  134.9207  157.1174 H   0  0  0  0  0  0  0  0  0  0  0  0  # atno 11005 bound_to 11000
  145.4134  139.1576  143.4113 LP  0  0  0  0  0  0  0  0  0  0  0  0  # atno 17320 bound_to 7965
  146.2929  140.4239  142.8733 LP  0  0  0  0  0  0  0  0  0  0  0  0  # atno 17321 bound_to 7965
  140.1069  144.5491  150.6951 LP  0  0  0  0  0  0  0  0  0  0  0  0  # atno 17342 bound_to 10162
  140.7045  143.2458  151.4767 LP  0  0  0  0  0  0  0  0  0  0  0  0  # atno 17343 bound_to 10162
  156.2881  130.3742  149.7868 LP  0  0  0  0  0  0  0  0  0  0  0  0  # atno 17370 bound_to 10713
  156.5536  130.8352  151.3307 LP  0  0  0  0  0  0  0  0  0  0  0  0  # atno 17371 bound_to 10713
  140.3778  134.2319  155.7173 LP  0  0  0  0  0  0  0  0  0  0  0  0  # atno 17394 bound_to 11000
  141.1971  133.8068  157.0644 LP  0  0  0  0  0  0  0  0  0  0  0  0  # atno 17395 bound_to 11000

$$$$
