AV-unprocessed.smi:2597|AV-procd|sdf|10172|dock5
  -GOLD-   2272014183D 1   1.00000     0.00000
 Structure written by MMmdl.
 31 32  0  0  0  0  0  0  0  0  2 V2000
  150.0049  142.4786  156.8451 N   0  3  0  0  0  0  0  0  0  0  0  0
  151.2787  142.5109  157.5883 C   0  0  1  0  0  0  0  0  0  0  0  0
  151.1997  143.5458  158.7269 C   0  0  0  0  0  0  0  0  0  0  0  0
  152.5008  143.5873  159.5436 C   0  0  0  0  0  0  0  0  0  0  0  0
  152.8522  142.1986  160.0971 C   0  0  0  0  0  0  0  0  0  0  0  0
  152.9424  141.1598  158.9691 C   0  0  0  0  0  0  0  0  0  0  0  0
  151.6414  141.1079  158.1410 C   0  0  2  0  0  0  0  0  0  0  0  0
  151.7451  140.1016  157.0915 N   0  0  0  0  0  0  0  0  0  0  0  0
  150.7464  139.6284  156.2655 C   0  0  0  0  0  0  0  0  0  0  0  0
  151.3797  138.6886  155.5023 C   0  0  0  0  0  0  0  0  0  0  0  0
  150.8260  137.8166  154.4173 C   0  0  0  0  0  0  0  0  0  0  0  0
  151.8188  136.8582  154.1220 O   0  0  0  0  0  0  0  0  0  0  0  0
  152.7171  138.6271  155.8898 N   0  0  0  0  0  0  0  0  0  0  0  0
  152.9211  139.4684  156.8529 N   0  0  0  0  0  0  0  0  0  0  0  0
  152.0506  142.8357  156.8892 H   0  0  0  0  0  0  0  0  0  0  0  0
  150.8374  140.7893  158.8072 H   0  0  0  0  0  0  0  0  0  0  0  0
  150.0011  141.6909  156.2130 H   0  0  0  0  0  0  0  0  0  0  0  0
  149.9032  143.3339  156.3169 H   0  0  0  0  0  0  0  0  0  0  0  0
  150.9942  144.5364  158.3193 H   0  0  0  0  0  0  0  0  0  0  0  0
  150.3670  143.3055  159.3895 H   0  0  0  0  0  0  0  0  0  0  0  0
  153.3168  143.9487  158.9163 H   0  0  0  0  0  0  0  0  0  0  0  0
  152.4031  144.2992  160.3638 H   0  0  0  0  0  0  0  0  0  0  0  0
  153.7981  142.2423  160.6379 H   0  0  0  0  0  0  0  0  0  0  0  0
  152.0964  141.8896  160.8202 H   0  0  0  0  0  0  0  0  0  0  0  0
  153.7871  141.4041  158.3234 H   0  0  0  0  0  0  0  0  0  0  0  0
  153.1544  140.1775  159.3932 H   0  0  0  0  0  0  0  0  0  0  0  0
  149.7240  139.9752  156.2938 H   0  0  0  0  0  0  0  0  0  0  0  0
  149.9149  137.3130  154.7402 H   0  0  0  0  0  0  0  0  0  0  0  0
  150.5918  138.3885  153.5189 H   0  0  0  0  0  0  0  0  0  0  0  0
  151.7212  136.5928  153.2203 H   0  0  0  0  0  0  0  0  0  0  0  0
  149.2367  142.3921  157.4952 H   0  0  0  0  0  0  0  0  0  0  0  0
  1  2  1  0  0  0  0
  1 17  1  0  0  0  0
  1 18  1  0  0  0  0
  1 31  1  0  0  0  0
  2 15  1  0  0  0  0
  2  7  1  0  0  0  0
  2  3  1  0  0  0  0
  3  4  1  0  0  0  0
  3 19  1  0  0  0  0
  3 20  1  0  0  0  0
  4  5  1  0  0  0  0
  4 21  1  0  0  0  0
  4 22  1  0  0  0  0
  5  6  1  0  0  0  0
  5 23  1  0  0  0  0
  5 24  1  0  0  0  0
  6  7  1  0  0  0  0
  6 25  1  0  0  0  0
  6 26  1  0  0  0  0
  7 16  1  0  0  0  0
  7  8  1  0  0  0  0
  8 14  1  0  0  0  0
  8  9  1  0  0  0  0
  9 10  2  0  0  0  0
  9 27  1  0  0  0  0
 10 11  1  0  0  0  0
 10 13  1  0  0  0  0
 11 12  1  0  0  0  0
 11 28  1  0  0  0  0
 11 29  1  0  0  0  0
 12 30  1  0  0  0  0
 13 14  2  0  0  0  0
M  CHG  1   1   1
M  END
> <s_m_source_file>
AV-unprocessed.smi

> <i_m_source_file_index>
2597

> <i_lp_mmshare_version>
43012

> <i_f3d_flags>
0

> <s_epik_input>
W05IMl1bQ0BIXTFbQ0gyXVtDSDJdW0NIMl1bQ0gyXVtDQEhdMW4yW2NIXWMobm4yKVtDSDJdW09IXQ==

> <s_epik_cmdline>
J2VwaWtfcHl0aG9uJywgJy1waCcsICc3LjAnLCAnLXRuJywgJzgnLCAnLW1hJywgJzIwMCcsICctbWV0YWxfYmluZGluZycsICctaW1hZScsICc8aW5maWxlLm1hZT4nLCAnLW9tYWUnLCAnPG91dGZpbGUubWFlPic=

> <r_lp_tautomer_probability>
1

> <r_epik_Ionization_Penalty>
0.014346

> <r_epik_Ionization_Penalty_Charging>
0.014316

> <r_epik_Ionization_Penalty_Neutral>
3.00097e-05

> <r_epik_State_Penalty>
0.0111909

> <r_epik_Charging_Adjusted_Penalty>
0.0255069

> <i_epik_Tot_Q>
1

> <i_epik_Tot_abs_Q>
1

> <r_epik_Metal_State_Penalty>
0.011192

> <b_epik_Metal_Only>
0

> <s_lp_Force_Field>
OPLS_2005

> <r_lp_Energy>
13.7949

> <b_lp_Chiralities_Consistent>
1

> <s_lp_Variant>
AV-unprocessed.smi:2597-3

> <Gold.Version>
5.8.1

> <Gold.Id.Protein>
6NUR|6NUR_protein|mol2

> <Gold.PLP.Fitness>
46.2886

> <Gold.PLP.PLP>
-31.7510

> <Gold.PLP.part.hbond>
-4.6319

> <Gold.PLP.part.metal>
0.0000

> <Gold.PLP.part.buried>
-5.0862

> <Gold.PLP.part.nonpolar>
-23.0640

> <Gold.PLP.part.repulsive>
0.0256

> <Gold.PLP.ligand.clash>
0.0000

> <Gold.PLP.ligand.torsion>
0.1852

> <Gold.PLP.Chemscore.Hbond>
4.9600

> <Gold.PLP.Chemscore.CHOScore>
0.0000

> <Gold.PLP.Chemscore.Metal>
0.0000

> <Gold.Chemscore.Hbonds>
donor molecule, donor type, donor heavy atom, donor atom, acceptor molecule, acceptor atom, score
      L1  H     1    18       P1  8028  2.00
      L1  H    12    30       P1  7949  1.00
      P1  H  7997  8010       L1    14  1.00
      P1  H 10752 10765       L1    12  0.50

> <Gold.PLP.Chemscore.Internal.Correction>
0.0279

> <Gold.Rescore>
     Score         DG    S(hbond)    S(metal)    S(lipo)     H(rot)  DE(clash)    DE(int)     intcor
     18.99     -20.45       3.21        0.00      76.96       1.86       0.01       1.45       ----

> <Gold.Chemscore.Fitness>
18.9897

> <Gold.Chemscore.DG>
-20.4477

> <Gold.Chemscore.ZeroCoef>
-5.4800

> <Gold.Chemscore.Hbond>
3.2072

> <Gold.Chemscore.Metal>
0.0000

> <Gold.Chemscore.Lipo>
76.9614

> <Gold.Chemscore.Internal_Hbond>
0.0000

> <Gold.Chemscore.DEClash>
0.0098

> <Gold.Chemscore.DEInternal>
1.4483

> <Gold.Chemscore.Rot>
1.8551

> <Gold.Chemscore.Internal.Correction>
   9.000000E+99

> <Gold.Chemscore.Hbonds>
donor molecule, donor type, donor heavy atom, donor atom, acceptor molecule, acceptor atom, score
      L1  H     1    18       P1  8028  0.96
      L1  H    12    30       P1  7949  0.98
      P1  H  7997  8010       L1    14  0.25
      P1  H 10752 10765       L1    12  0.02

> <Gold.Chemscore.Hbond.Weighted>
-10.7122

> <Gold.Chemscore.Metal.Weighted>
-0.0000

> <Gold.Chemscore.Lipo.Weighted>
-9.0045

> <Gold.Chemscore.Internal_Hbond.Weighted>
0.0000

> <Gold.Chemscore.DEClash.Weighted>
0.0098

> <Gold.Chemscore.DEInternal.Weighted>
1.4483

> <Gold.Chemscore.Rot.Weighted>
4.7489

> <Gold.Chemscore.Internal.Correction.Weighted>
   9.000000E+99

> <Gold.Protein.RotatedTorsions>
[ 6907 6896 6895 6894 ] final   99.60 input  -60.11 | X-H torsion
[ 7974 7965 7964 7962 ] final -137.00 input  175.53 | X-H torsion
[ 8008 7997 7996 7995 ] final   76.92 input   59.86 | X-H torsion
[ 10167 10162 10161 10158 ] final  110.15 input  -65.29 | X-H torsion
[ 10718 10713 10712 10709 ] final  -13.61 input   66.30 | X-H torsion
[ 10763 10752 10751 10750 ] final  166.53 input  -60.55 | X-H torsion
[ 11005 11000 10999 10996 ] final  -93.83 input  -57.11 | X-H torsion

> <Gold.Protein.ActiveResidues>
 VAL166  LYS551  ARG553  GLY616  TRP617  ASP618  TYR619  PRO620  LYS621  CYS622 
 ASP623  PHE694  ASN695  SER759  ASP760  ASP761  ALA762  ILE779  LEU786  VAL792 
 PHE793  MET794  SER795  GLU796  ALA797  LYS798  CYS799  TRP800  GLU811  SER814 

> <Gold.Protein.RotatedAtoms>
  152.5389  134.0404  159.8064 H   0  0  0  0  0  0  0  0  0  0  0  0  # atno 6907 bound_to 6896
  151.0561  133.5576  159.2645 H   0  0  0  0  0  0  0  0  0  0  0  0  # atno 6908 bound_to 6896
  151.2492  135.0624  159.9109 H   0  0  0  0  0  0  0  0  0  0  0  0  # atno 6909 bound_to 6896
  144.8879  140.6600  143.5164 H   0  0  0  0  0  0  0  0  0  0  0  0  # atno 7974 bound_to 7965
  155.8342  140.3465  155.5591 H   0  0  0  0  0  0  0  0  0  0  0  0  # atno 8008 bound_to 7997
  155.8210  140.0913  157.1869 H   0  0  0  0  0  0  0  0  0  0  0  0  # atno 8009 bound_to 7997
  154.4004  140.1430  156.3487 H   0  0  0  0  0  0  0  0  0  0  0  0  # atno 8010 bound_to 7997
  139.6711  144.7125  151.1687 H   0  0  0  0  0  0  0  0  0  0  0  0  # atno 10167 bound_to 10162
  156.6277  130.4893  149.6140 H   0  0  0  0  0  0  0  0  0  0  0  0  # atno 10718 bound_to 10713
  154.3404  135.2754  155.2426 H   0  0  0  0  0  0  0  0  0  0  0  0  # atno 10763 bound_to 10752
  154.4699  135.5885  153.6317 H   0  0  0  0  0  0  0  0  0  0  0  0  # atno 10764 bound_to 10752
  152.9858  135.6085  154.3604 H   0  0  0  0  0  0  0  0  0  0  0  0  # atno 10765 bound_to 10752
  141.1487  133.7914  157.0213 H   0  0  0  0  0  0  0  0  0  0  0  0  # atno 11005 bound_to 11000
  145.3836  139.1631  143.4267 LP  0  0  0  0  0  0  0  0  0  0  0  0  # atno 17320 bound_to 7965
  146.3035  140.3919  142.8695 LP  0  0  0  0  0  0  0  0  0  0  0  0  # atno 17321 bound_to 7965
  140.7618  143.5843  150.8862 LP  0  0  0  0  0  0  0  0  0  0  0  0  # atno 17342 bound_to 10162
  139.9509  143.6273  152.3029 LP  0  0  0  0  0  0  0  0  0  0  0  0  # atno 17343 bound_to 10162
  156.2260  130.6766  151.1416 LP  0  0  0  0  0  0  0  0  0  0  0  0  # atno 17370 bound_to 10713
  157.7209  131.0682  150.6139 LP  0  0  0  0  0  0  0  0  0  0  0  0  # atno 17371 bound_to 10713
  140.0813  134.9646  157.1629 LP  0  0  0  0  0  0  0  0  0  0  0  0  # atno 17394 bound_to 11000
  140.3572  134.2534  155.7191 LP  0  0  0  0  0  0  0  0  0  0  0  0  # atno 17395 bound_to 11000

$$$$
