AV-unprocessed.smi:224|AV-procd|sdf|1707|dock2
  -GOLD-   2262020173D 1   1.00000     0.00000
 Structure written by MMmdl.
 56 59  0  0  0  0  0  0  0  0  2 V2000
  151.9579  145.4213  159.1164 C   0  0  0  0  0  0  0  0  0  0  0  0
  150.7039  144.9038  158.3961 C   0  0  2  0  0  0  0  0  0  0  0  0
  149.5777  145.5507  158.9508 O   0  0  0  0  0  0  0  0  0  0  0  0
  150.5110  143.3795  158.5409 C   0  0  0  0  0  0  0  0  0  0  0  0
  149.4707  142.8376  157.6197 N   0  3  2  0  0  0  0  0  0  0  0  0
  148.1223  142.8534  158.2562 C   0  0  0  0  0  0  0  0  0  0  0  0
  147.0260  142.3651  157.2992 C   0  0  0  0  0  0  0  0  0  0  0  0
  147.3542  141.0411  156.7911 N   0  0  0  0  0  0  0  0  0  0  0  0
  146.9311  139.9824  157.5328 C   0  0  0  0  0  0  0  0  0  0  0  0
  145.6045  139.6914  157.5996 N   0  0  0  0  0  0  0  0  0  0  0  0
  145.1738  138.6491  158.3157 C   0  0  0  0  0  0  0  0  0  0  0  0
  145.8860  137.7815  159.0355 N   0  0  0  0  0  0  0  0  0  0  0  0
  147.2169  138.0732  158.9869 C   0  0  0  0  0  0  0  0  0  0  0  0
  147.8195  139.1433  158.2657 C   0  0  0  0  0  0  0  0  0  0  0  0
  149.1954  139.1274  158.4644 N   0  0  0  0  0  0  0  0  0  0  0  0
  149.3946  138.1034  159.2486 C   0  0  0  0  0  0  0  0  0  0  0  0
  148.2599  137.4169  159.6171 N   0  0  0  0  0  0  0  0  0  0  0  0
  148.1918  136.2495  160.4829 C   0  0  0  0  0  0  0  0  0  0  0  0
  147.2965  136.4600  161.7260 C   0  0  1  0  0  0  0  0  0  0  0  0
  147.5016  137.7715  162.2232 O   0  0  0  0  0  0  0  0  0  0  0  0
  145.8058  136.2692  161.4622 C   0  0  0  0  0  0  0  0  0  0  0  0
  145.2924  135.7368  162.7923 C   0  0  0  0  0  0  0  0  0  0  0  0
  146.3314  134.8606  163.1943 O   0  0  0  0  0  0  0  0  0  0  0  0
  147.5809  135.4586  162.8636 C   0  0  0  0  0  0  0  0  0  0  0  0
  148.6550  140.9818  156.1315 C   0  0  0  0  0  0  0  0  0  0  0  0
  149.8056  141.5012  157.0290 C   0  0  1  0  0  0  0  0  0  0  0  0
  151.0959  141.5215  156.1840 C   0  0  0  0  0  0  0  0  0  0  0  0
  152.8640  144.9848  158.6955 H   0  0  0  0  0  0  0  0  0  0  0  0
  151.9362  145.1806  160.1799 H   0  0  0  0  0  0  0  0  0  0  0  0
  152.0455  146.5043  159.0220 H   0  0  0  0  0  0  0  0  0  0  0  0
  150.7438  145.1935  157.3469 H   0  0  0  0  0  0  0  0  0  0  0  0
  148.8597  145.4940  158.3386 H   0  0  0  0  0  0  0  0  0  0  0  0
  151.4796  142.9185  158.3651 H   0  0  0  0  0  0  0  0  0  0  0  0
  150.2472  143.1226  159.5684 H   0  0  0  0  0  0  0  0  0  0  0  0
  148.1360  142.2233  159.1473 H   0  0  0  0  0  0  0  0  0  0  0  0
  147.8645  143.8579  158.5876 H   0  0  0  0  0  0  0  0  0  0  0  0
  146.0630  142.3817  157.8073 H   0  0  0  0  0  0  0  0  0  0  0  0
  146.9377  143.0486  156.4541 H   0  0  0  0  0  0  0  0  0  0  0  0
  144.1058  138.4878  158.3124 H   0  0  0  0  0  0  0  0  0  0  0  0
  150.3809  137.8224  159.5895 H   0  0  0  0  0  0  0  0  0  0  0  0
  147.8226  135.4087  159.8943 H   0  0  0  0  0  0  0  0  0  0  0  0
  149.2062  135.9867  160.7865 H   0  0  0  0  0  0  0  0  0  0  0  0
  147.1890  137.8055  163.1145 H   0  0  0  0  0  0  0  0  0  0  0  0
  145.2954  137.1747  161.1319 H   0  0  0  0  0  0  0  0  0  0  0  0
  145.6522  135.5042  160.7004 H   0  0  0  0  0  0  0  0  0  0  0  0
  145.1826  136.5403  163.5223 H   0  0  0  0  0  0  0  0  0  0  0  0
  144.3385  135.2170  162.7010 H   0  0  0  0  0  0  0  0  0  0  0  0
  148.2804  134.6772  162.5648 H   0  0  0  0  0  0  0  0  0  0  0  0
  147.9970  135.9464  163.7468 H   0  0  0  0  0  0  0  0  0  0  0  0
  148.8623  139.9681  155.7853 H   0  0  0  0  0  0  0  0  0  0  0  0
  148.5919  141.5940  155.2310 H   0  0  0  0  0  0  0  0  0  0  0  0
  149.9478  140.8013  157.8537 H   0  0  0  0  0  0  0  0  0  0  0  0
  151.2129  140.5854  155.6370 H   0  0  0  0  0  0  0  0  0  0  0  0
  151.9969  141.6285  156.7858 H   0  0  0  0  0  0  0  0  0  0  0  0
  151.0778  142.3279  155.4500 H   0  0  0  0  0  0  0  0  0  0  0  0
  149.4256  143.4743  156.8370 H   0  0  0  0  0  0  0  0  0  0  0  0
  1  2  1  0  0  0  0
  1 28  1  0  0  0  0
  1 29  1  0  0  0  0
  1 30  1  0  0  0  0
  2  3  1  0  0  0  0
  2  4  1  0  0  0  0
  2 31  1  0  0  0  0
  3 32  1  0  0  0  0
  4  5  1  0  0  0  0
  4 33  1  0  0  0  0
  4 34  1  0  0  0  0
  5 26  1  0  0  0  0
  5  6  1  0  0  0  0
  5 56  1  0  0  0  0
  6  7  1  0  0  0  0
  6 35  1  0  0  0  0
  6 36  1  0  0  0  0
  7  8  1  0  0  0  0
  7 37  1  0  0  0  0
  7 38  1  0  0  0  0
  8  9  1  0  0  0  0
  8 25  1  0  0  0  0
  9 14  1  0  0  0  0
  9 10  2  0  0  0  0
 10 11  1  0  0  0  0
 11 12  2  0  0  0  0
 11 39  1  0  0  0  0
 12 13  1  0  0  0  0
 13 17  1  0  0  0  0
 13 14  2  0  0  0  0
 14 15  1  0  0  0  0
 15 16  2  0  0  0  0
 16 17  1  0  0  0  0
 16 40  1  0  0  0  0
 17 18  1  0  0  0  0
 18 19  1  0  0  0  0
 18 41  1  0  0  0  0
 18 42  1  0  0  0  0
 19 24  1  0  0  0  0
 19 20  1  0  0  0  0
 19 21  1  0  0  0  0
 20 43  1  0  0  0  0
 21 22  1  0  0  0  0
 21 44  1  0  0  0  0
 21 45  1  0  0  0  0
 22 23  1  0  0  0  0
 22 46  1  0  0  0  0
 22 47  1  0  0  0  0
 23 24  1  0  0  0  0
 24 48  1  0  0  0  0
 24 49  1  0  0  0  0
 25 26  1  0  0  0  0
 25 50  1  0  0  0  0
 25 51  1  0  0  0  0
 26 27  1  0  0  0  0
 26 52  1  0  0  0  0
 27 53  1  0  0  0  0
 27 54  1  0  0  0  0
 27 55  1  0  0  0  0
M  CHG  1   5   1
M  END
> <s_m_source_file>
AV-unprocessed.smi

> <i_m_source_file_index>
224

> <i_lp_mmshare_version>
43012

> <i_f3d_flags>
0

> <s_epik_input>
W0NIM11bQ0BIXShbT0hdKVtDSDJdTjFbQ0gyXVtDSDJdTihbQ0gyXVtDQEhdMVtDSDNdKWMobltjSF1uMiljKGMyMyluW2NIXW4zW0NIMl1bQ0BAXTQoW09IXSlbQ0gyXVtDSDJdT1tDSDJdNA==

> <s_epik_cmdline>
J2VwaWtfcHl0aG9uJywgJy1waCcsICc3LjAnLCAnLXRuJywgJzgnLCAnLW1hJywgJzIwMCcsICctbWV0YWxfYmluZGluZycsICctaW1hZScsICc8aW5maWxlLm1hZT4nLCAnLW9tYWUnLCAnPG91dGZpbGUubWFlPic=

> <r_lp_tautomer_probability>
1

> <r_epik_Ionization_Penalty>
0.00516958

> <r_epik_Ionization_Penalty_Charging>
0.00509693

> <r_epik_Ionization_Penalty_Neutral>
7.26542e-05

> <r_epik_State_Penalty>
-0

> <r_epik_Charging_Adjusted_Penalty>
0.00509693

> <i_epik_Tot_Q>
1

> <i_epik_Tot_abs_Q>
1

> <r_epik_Metal_State_Penalty>
-0

> <b_epik_Metal_Only>
0

> <s_lp_Force_Field>
OPLS_2005

> <r_lp_Energy>
50.3284

> <b_lp_Chiralities_Consistent>
1

> <s_lp_Variant>
AV-unprocessed.smi:224-1

> <Gold.Version>
5.8.1

> <Gold.Id.Protein>
6NUR|6NUR_protein|mol2

> <Gold.PLP.Fitness>
49.5807

> <Gold.PLP.PLP>
-37.6130

> <Gold.PLP.part.hbond>
-4.0862

> <Gold.PLP.part.metal>
0.0000

> <Gold.PLP.part.buried>
-5.7563

> <Gold.PLP.part.nonpolar>
-27.4587

> <Gold.PLP.part.repulsive>
0.0871

> <Gold.PLP.ligand.clash>
0.0000

> <Gold.PLP.ligand.torsion>
1.2950

> <Gold.PLP.Chemscore.Hbond>
4.6417

> <Gold.PLP.Chemscore.CHOScore>
0.0000

> <Gold.PLP.Chemscore.Metal>
0.0000

> <Gold.Chemscore.Hbonds>
donor molecule, donor type, donor heavy atom, donor atom, acceptor molecule, acceptor atom, score
      L1  H     3    32       P1  8029  0.93
      L1  H     5    56       P1  8028  2.00
      P1  H  6931  6943       L1    20  0.58
      P1  H  6934  6947       L1    20  0.42

> <Gold.PLP.Chemscore.Internal.Correction>
0.6326

> <Gold.Rescore>
     Score         DG    S(hbond)    S(metal)    S(lipo)     H(rot)  DE(clash)    DE(int)     intcor
     11.26     -16.31       3.07        0.00      78.45       3.36       0.09       4.96       ----

> <Gold.Chemscore.Fitness>
11.2642

> <Gold.Chemscore.DG>
-16.3136

> <Gold.Chemscore.ZeroCoef>
-5.4800

> <Gold.Chemscore.Hbond>
3.0718

> <Gold.Chemscore.Metal>
0.0000

> <Gold.Chemscore.Lipo>
78.4463

> <Gold.Chemscore.Internal_Hbond>
0.0000

> <Gold.Chemscore.DEClash>
0.0871

> <Gold.Chemscore.DEInternal>
4.9623

> <Gold.Chemscore.Rot>
3.3611

> <Gold.Chemscore.Internal.Correction>
   9.000000E+99

> <Gold.Chemscore.Hbonds>
donor molecule, donor type, donor heavy atom, donor atom, acceptor molecule, acceptor atom, score
      L1  H     3    32       P1  8029  0.86
      L1  H     5    56       P1  8028  0.97
      P1  H  6931  6943       L1    20  0.43
      P1  H  6934  6947       L1    20  0.36

> <Gold.Chemscore.Hbond.Weighted>
-10.2599

> <Gold.Chemscore.Metal.Weighted>
-0.0000

> <Gold.Chemscore.Lipo.Weighted>
-9.1782

> <Gold.Chemscore.Internal_Hbond.Weighted>
0.0000

> <Gold.Chemscore.DEClash.Weighted>
0.0871

> <Gold.Chemscore.DEInternal.Weighted>
4.9623

> <Gold.Chemscore.Rot.Weighted>
8.6045

> <Gold.Chemscore.Internal.Correction.Weighted>
   9.000000E+99

> <Gold.Protein.RotatedTorsions>
[ 6907 6896 6895 6894 ] final -117.46 input  -60.11 | X-H torsion
[ 7974 7965 7964 7962 ] final   22.18 input  175.53 | X-H torsion
[ 8008 7997 7996 7995 ] final  -30.51 input   59.86 | X-H torsion
[ 10167 10162 10161 10158 ] final  -65.68 input  -65.29 | X-H torsion
[ 10718 10713 10712 10709 ] final  -64.68 input   66.30 | X-H torsion
[ 10763 10752 10751 10750 ] final -150.07 input  -60.55 | X-H torsion
[ 11005 11000 10999 10996 ] final  -15.86 input  -57.11 | X-H torsion

> <Gold.Protein.ActiveResidues>
 VAL166  LYS551  ARG553  GLY616  TRP617  ASP618  TYR619  PRO620  LYS621  CYS622 
 ASP623  PHE694  ASN695  SER759  ASP760  ASP761  ALA762  ILE779  LEU786  VAL792 
 PHE793  MET794  SER795  GLU796  ALA797  LYS798  CYS799  TRP800  GLU811  SER814 

> <Gold.Protein.RotatedAtoms>
  150.8138  133.8373  159.3169 H   0  0  0  0  0  0  0  0  0  0  0  0  # atno 6907 bound_to 6896
  151.6151  135.1035  160.0099 H   0  0  0  0  0  0  0  0  0  0  0  0  # atno 6908 bound_to 6896
  152.4230  133.7108  159.6534 H   0  0  0  0  0  0  0  0  0  0  0  0  # atno 6909 bound_to 6896
  146.2040  139.7922  142.8740 H   0  0  0  0  0  0  0  0  0  0  0  0  # atno 7974 bound_to 7965
  154.4248  140.1789  156.1418 H   0  0  0  0  0  0  0  0  0  0  0  0  # atno 8008 bound_to 7997
  155.9985  140.3362  155.6798 H   0  0  0  0  0  0  0  0  0  0  0  0  # atno 8009 bound_to 7997
  155.6275  140.0666  157.2650 H   0  0  0  0  0  0  0  0  0  0  0  0  # atno 8010 bound_to 7997
  140.5712  143.2318  151.6534 H   0  0  0  0  0  0  0  0  0  0  0  0  # atno 10167 bound_to 10162
  156.0715  130.4237  150.1454 H   0  0  0  0  0  0  0  0  0  0  0  0  # atno 10718 bound_to 10713
  154.8140  135.3293  154.7226 H   0  0  0  0  0  0  0  0  0  0  0  0  # atno 10763 bound_to 10752
  153.7870  135.6914  153.4882 H   0  0  0  0  0  0  0  0  0  0  0  0  # atno 10764 bound_to 10752
  153.1942  135.4540  155.0134 H   0  0  0  0  0  0  0  0  0  0  0  0  # atno 10765 bound_to 10752
  140.8009  133.8215  155.9469 H   0  0  0  0  0  0  0  0  0  0  0  0  # atno 11005 bound_to 11000
  145.3385  141.0282  143.3406 LP  0  0  0  0  0  0  0  0  0  0  0  0  # atno 17320 bound_to 7965
  144.8748  139.4986  143.6750 LP  0  0  0  0  0  0  0  0  0  0  0  0  # atno 17321 bound_to 7965
  139.5118  144.3495  152.0665 LP  0  0  0  0  0  0  0  0  0  0  0  0  # atno 17342 bound_to 10162
  140.2633  144.4044  150.6177 LP  0  0  0  0  0  0  0  0  0  0  0  0  # atno 17343 bound_to 10162
  156.9504  130.9773  151.3499 LP  0  0  0  0  0  0  0  0  0  0  0  0  # atno 17370 bound_to 10713
  157.5788  130.8361  149.8493 LP  0  0  0  0  0  0  0  0  0  0  0  0  # atno 17371 bound_to 10713
  140.9296  134.2039  157.4873 LP  0  0  0  0  0  0  0  0  0  0  0  0  # atno 17394 bound_to 11000
  139.8722  134.9827  156.5167 LP  0  0  0  0  0  0  0  0  0  0  0  0  # atno 17395 bound_to 11000

$$$$
