AV-unprocessed.smi:2489|AV-procd|sdf|9796|dock2
  -GOLD-   2272013433D 1   1.00000     0.00000
 Structure written by MMmdl.
 33 34  0  0  0  0  0  0  0  0  1 V2000
  154.0132  141.7115  160.9903 C   0  0  0  0  0  0  0  0  0  0  0  0
  152.8659  141.3073  160.2578 O   0  0  0  0  0  0  0  0  0  0  0  0
  152.3585  142.1806  159.3203 C   0  0  0  0  0  0  0  0  0  0  0  0
  152.6164  143.5525  159.4990 C   0  0  0  0  0  0  0  0  0  0  0  0
  152.1116  144.4658  158.5562 C   0  0  0  0  0  0  0  0  0  0  0  0
  151.3872  144.0926  157.4821 N   0  0  0  0  0  0  0  0  0  0  0  0
  151.1258  142.7767  157.2896 C   0  0  0  0  0  0  0  0  0  0  0  0
  150.3747  142.2757  156.1936 N   0  0  0  0  0  0  0  0  0  0  0  0
  150.4597  141.0703  155.5983 C   0  0  0  0  0  0  0  0  0  0  0  0
  151.2604  140.1922  155.9204 O   0  0  0  0  0  0  0  0  0  0  0  0
  149.4981  140.8162  154.4271 C   0  0  1  0  0  0  0  0  0  0  0  0
  148.4883  139.6786  154.6738 C   0  0  0  0  0  0  0  0  0  0  0  0
  147.1358  140.3606  154.5738 C   0  0  0  0  0  0  0  0  0  0  0  0
  147.4391  141.5683  153.6944 C   0  0  1  0  0  0  0  0  0  0  0  0
  146.4207  142.7067  153.8167 C   0  0  0  0  0  0  0  0  0  0  0  0
  148.7081  141.9792  154.1749 O   0  0  0  0  0  0  0  0  0  0  0  0
  151.5966  141.7936  158.1895 C   0  0  0  0  0  0  0  0  0  0  0  0
  154.2928  140.9210  161.6865 H   0  0  0  0  0  0  0  0  0  0  0  0
  153.8160  142.6111  161.5749 H   0  0  0  0  0  0  0  0  0  0  0  0
  154.8649  141.8876  160.3317 H   0  0  0  0  0  0  0  0  0  0  0  0
  153.1919  143.8997  160.3445 H   0  0  0  0  0  0  0  0  0  0  0  0
  152.2942  145.5243  158.6671 H   0  0  0  0  0  0  0  0  0  0  0  0
  149.6780  142.9031  155.8187 H   0  0  0  0  0  0  0  0  0  0  0  0
  150.0857  140.5971  153.5344 H   0  0  0  0  0  0  0  0  0  0  0  0
  148.5885  138.9214  153.8953 H   0  0  0  0  0  0  0  0  0  0  0  0
  148.6058  139.1763  155.6351 H   0  0  0  0  0  0  0  0  0  0  0  0
  146.3617  139.7144  154.1585 H   0  0  0  0  0  0  0  0  0  0  0  0
  146.8135  140.6854  155.5644 H   0  0  0  0  0  0  0  0  0  0  0  0
  147.5383  141.2584  152.6525 H   0  0  0  0  0  0  0  0  0  0  0  0
  145.4332  142.3849  153.4854 H   0  0  0  0  0  0  0  0  0  0  0  0
  146.7161  143.5600  153.2057 H   0  0  0  0  0  0  0  0  0  0  0  0
  146.3334  143.0501  154.8478 H   0  0  0  0  0  0  0  0  0  0  0  0
  151.3656  140.7565  157.9971 H   0  0  0  0  0  0  0  0  0  0  0  0
  1  2  1  0  0  0  0
  1 18  1  0  0  0  0
  1 19  1  0  0  0  0
  1 20  1  0  0  0  0
  2  3  1  0  0  0  0
  3 17  1  0  0  0  0
  3  4  2  0  0  0  0
  4  5  1  0  0  0  0
  4 21  1  0  0  0  0
  5  6  2  0  0  0  0
  5 22  1  0  0  0  0
  6  7  1  0  0  0  0
  7  8  1  0  0  0  0
  7 17  2  0  0  0  0
  8  9  1  0  0  0  0
  8 23  1  0  0  0  0
  9 10  2  0  0  0  0
  9 11  1  0  0  0  0
 11 16  1  0  0  0  0
 11 12  1  0  0  0  0
 11 24  1  0  0  0  0
 12 13  1  0  0  0  0
 12 25  1  0  0  0  0
 12 26  1  0  0  0  0
 13 14  1  0  0  0  0
 13 27  1  0  0  0  0
 13 28  1  0  0  0  0
 14 15  1  0  0  0  0
 14 16  1  0  0  0  0
 14 29  1  0  0  0  0
 15 30  1  0  0  0  0
 15 31  1  0  0  0  0
 15 32  1  0  0  0  0
 17 33  1  0  0  0  0
M  END
> <s_m_source_file>
AV-unprocessed.smi

> <i_m_source_file_index>
2489

> <i_lp_mmshare_version>
43012

> <i_f3d_flags>
0

> <s_epik_input>
W0NIM11PYzFbY0hdW2NIXW5jKFtjSF0xKVtOSF1DKD1PKVtDQEBIXTJbQ0gyXVtDSDJdW0NASF0oTzIpW0NIM10=

> <s_epik_cmdline>
J2VwaWtfcHl0aG9uJywgJy1waCcsICc3LjAnLCAnLXRuJywgJzgnLCAnLW1hJywgJzIwMCcsICctbWV0YWxfYmluZGluZycsICctaW1hZScsICc8aW5maWxlLm1hZT4nLCAnLW9tYWUnLCAnPG91dGZpbGUubWFlPic=

> <r_epik_Ionization_Penalty>
0.0871917

> <r_epik_Ionization_Penalty_Charging>
0

> <r_epik_Ionization_Penalty_Neutral>
0.0871917

> <r_epik_State_Penalty>
0.146479

> <r_epik_Charging_Adjusted_Penalty>
0.146479

> <i_epik_Tot_Q>
0

> <i_epik_Tot_abs_Q>
0

> <r_epik_Metal_State_Penalty>
0.067489

> <b_epik_Metal_Only>
0

> <s_lp_Force_Field>
OPLS_2005

> <r_lp_Energy>
22.1586

> <b_lp_Chiralities_Consistent>
1

> <s_lp_Variant>
AV-unprocessed.smi:2489-2

> <Gold.Version>
5.8.1

> <Gold.Id.Protein>
6NUR|6NUR_protein|mol2

> <Gold.PLP.Fitness>
41.0769

> <Gold.PLP.PLP>
-38.6433

> <Gold.PLP.part.hbond>
-2.0000

> <Gold.PLP.part.metal>
0.0000

> <Gold.PLP.part.buried>
-5.8780

> <Gold.PLP.part.nonpolar>
-30.5965

> <Gold.PLP.part.repulsive>
0.7246

> <Gold.PLP.ligand.clash>
0.0000

> <Gold.PLP.ligand.torsion>
0.5397

> <Gold.PLP.Chemscore.Hbond>
1.1690

> <Gold.PLP.Chemscore.CHOScore>
0.0000

> <Gold.PLP.Chemscore.Metal>
0.0000

> <Gold.Chemscore.Hbonds>
donor molecule, donor type, donor heavy atom, donor atom, acceptor molecule, acceptor atom, score
      L1  H     8    23       P1  8028  1.00
      P1  H  8011  8017       L1    16  0.16

> <Gold.PLP.Chemscore.Internal.Correction>
0.0061

> <Gold.Rescore>
     Score         DG    S(hbond)    S(metal)    S(lipo)     H(rot)  DE(clash)    DE(int)     intcor
     13.65     -15.48       0.95        0.00      85.07       1.23       0.16       1.67       ----

> <Gold.Chemscore.Fitness>
13.6503

> <Gold.Chemscore.DG>
-15.4777

> <Gold.Chemscore.ZeroCoef>
-5.4800

> <Gold.Chemscore.Hbond>
0.9533

> <Gold.Chemscore.Metal>
0.0000

> <Gold.Chemscore.Lipo>
85.0710

> <Gold.Chemscore.Internal_Hbond>
0.0000

> <Gold.Chemscore.DEClash>
0.1596

> <Gold.Chemscore.DEInternal>
1.6677

> <Gold.Chemscore.Rot>
1.2264

> <Gold.Chemscore.Internal.Correction>
   9.000000E+99

> <Gold.Chemscore.Hbonds>
donor molecule, donor type, donor heavy atom, donor atom, acceptor molecule, acceptor atom, score
      L1  H     8    23       P1  8028  0.93
      P1  H  8011  8017       L1    16  0.01

> <Gold.Chemscore.Hbond.Weighted>
-3.1839

> <Gold.Chemscore.Metal.Weighted>
-0.0000

> <Gold.Chemscore.Lipo.Weighted>
-9.9533

> <Gold.Chemscore.Internal_Hbond.Weighted>
0.0000

> <Gold.Chemscore.DEClash.Weighted>
0.1596

> <Gold.Chemscore.DEInternal.Weighted>
1.6677

> <Gold.Chemscore.Rot.Weighted>
3.1396

> <Gold.Chemscore.Internal.Correction.Weighted>
   9.000000E+99

> <Gold.Protein.RotatedTorsions>
[ 6907 6896 6895 6894 ] final -128.18 input  -60.11 | X-H torsion
[ 7974 7965 7964 7962 ] final -122.27 input  175.53 | X-H torsion
[ 8008 7997 7996 7995 ] final  141.45 input   59.86 | X-H torsion
[ 10167 10162 10161 10158 ] final  104.96 input  -65.29 | X-H torsion
[ 10718 10713 10712 10709 ] final  142.27 input   66.30 | X-H torsion
[ 10763 10752 10751 10750 ] final  121.37 input  -60.55 | X-H torsion
[ 11005 11000 10999 10996 ] final  -52.19 input  -57.11 | X-H torsion

> <Gold.Protein.ActiveResidues>
 VAL166  LYS551  ARG553  GLY616  TRP617  ASP618  TYR619  PRO620  LYS621  CYS622 
 ASP623  PHE694  ASN695  SER759  ASP760  ASP761  ALA762  ILE779  LEU786  VAL792 
 PHE793  MET794  SER795  GLU796  ALA797  LYS798  CYS799  TRP800  GLU811  SER814 

> <Gold.Protein.RotatedAtoms>
  150.9152  133.6948  159.2844 H   0  0  0  0  0  0  0  0  0  0  0  0  # atno 6907 bound_to 6896
  151.4422  135.1020  159.9683 H   0  0  0  0  0  0  0  0  0  0  0  0  # atno 6908 bound_to 6896
  152.4951  133.8557  159.7280 H   0  0  0  0  0  0  0  0  0  0  0  0  # atno 6909 bound_to 6896
  145.0313  140.8070  143.4322 H   0  0  0  0  0  0  0  0  0  0  0  0  # atno 7974 bound_to 7965
  156.2965  140.2315  156.4567 H   0  0  0  0  0  0  0  0  0  0  0  0  # atno 8008 bound_to 7997
  154.8054  140.0446  157.1324 H   0  0  0  0  0  0  0  0  0  0  0  0  # atno 8009 bound_to 7997
  154.9485  140.3039  155.5090 H   0  0  0  0  0  0  0  0  0  0  0  0  # atno 8010 bound_to 7997
  139.7133  144.7073  151.0992 H   0  0  0  0  0  0  0  0  0  0  0  0  # atno 10167 bound_to 10162
  157.3824  131.0994  151.0725 H   0  0  0  0  0  0  0  0  0  0  0  0  # atno 10718 bound_to 10713
  153.6130  135.3427  155.2985 H   0  0  0  0  0  0  0  0  0  0  0  0  # atno 10763 bound_to 10752
  154.8615  135.4254  154.2290 H   0  0  0  0  0  0  0  0  0  0  0  0  # atno 10764 bound_to 10752
  153.3144  135.7034  153.7158 H   0  0  0  0  0  0  0  0  0  0  0  0  # atno 10765 bound_to 10752
  141.0911  133.6632  156.3988 H   0  0  0  0  0  0  0  0  0  0  0  0  # atno 11005 bound_to 11000
  145.1767  139.2374  143.5314 LP  0  0  0  0  0  0  0  0  0  0  0  0  # atno 17320 bound_to 7965
  146.3499  140.1531  142.8592 LP  0  0  0  0  0  0  0  0  0  0  0  0  # atno 17321 bound_to 7965
  140.7738  143.5264  150.9475 LP  0  0  0  0  0  0  0  0  0  0  0  0  # atno 17342 bound_to 10162
  139.8949  143.6907  152.3140 LP  0  0  0  0  0  0  0  0  0  0  0  0  # atno 17343 bound_to 10162
  157.1789  130.6300  149.5665 LP  0  0  0  0  0  0  0  0  0  0  0  0  # atno 17370 bound_to 10713
  155.9779  130.4760  150.6621 LP  0  0  0  0  0  0  0  0  0  0  0  0  # atno 17371 bound_to 10713
  140.5249  134.6268  157.5331 LP  0  0  0  0  0  0  0  0  0  0  0  0  # atno 17394 bound_to 11000
  139.9737  134.7250  155.9991 LP  0  0  0  0  0  0  0  0  0  0  0  0  # atno 17395 bound_to 11000

$$$$
