AV-unprocessed.smi:3088|AV-procd|sdf|11768|dock2
  -GOLD-   2272017153D 1   1.00000     0.00000
 Structure written by MMmdl.
 29 30  0  0  0  0  0  0  0  0  2 V2000
  150.5299  137.0254  154.4426 N   0  3  0  0  0  0  0  0  0  0  0  0
  151.6162  137.9688  154.1293 C   0  0  0  0  0  0  0  0  0  0  0  0
  152.4431  138.3053  155.3780 C   0  0  0  0  0  0  0  0  0  0  0  0
  151.9850  139.5707  156.0374 C   0  0  0  0  0  0  0  0  0  0  0  0
  151.0265  140.4397  155.5776 C   0  0  0  0  0  0  0  0  0  0  0  0
  150.7998  141.7894  156.6562 S   0  0  0  0  0  0  0  0  0  0  0  0
  152.0373  141.1108  157.7096 C   0  0  0  0  0  0  0  0  0  0  0  0
  152.4203  141.7312  158.8951 N   0  0  0  0  0  0  0  0  0  0  0  0
  153.4119  141.2498  159.8526 C   0  0  0  0  0  0  0  0  0  0  0  0
  153.2912  142.0984  161.1159 C   0  0  0  0  0  0  0  0  0  0  0  0
  152.8085  143.4267  160.5665 C   0  0  0  0  0  0  0  0  0  0  0  0
  151.9001  142.9901  159.4200 C   0  0  0  0  0  0  0  0  0  0  0  0
  152.5509  139.9649  157.2538 N   0  0  0  0  0  0  0  0  0  0  0  0
  150.1399  136.6644  153.5836 H   0  0  0  0  0  0  0  0  0  0  0  0
  149.8084  137.5026  154.9640 H   0  0  0  0  0  0  0  0  0  0  0  0
  152.2523  137.5279  153.3611 H   0  0  0  0  0  0  0  0  0  0  0  0
  151.1799  138.8741  153.7057 H   0  0  0  0  0  0  0  0  0  0  0  0
  152.3852  137.4787  156.0874 H   0  0  0  0  0  0  0  0  0  0  0  0
  153.4956  138.3912  155.1047 H   0  0  0  0  0  0  0  0  0  0  0  0
  150.4409  140.3704  154.6728 H   0  0  0  0  0  0  0  0  0  0  0  0
  153.2656  140.1922  160.0745 H   0  0  0  0  0  0  0  0  0  0  0  0
  154.4027  141.3634  159.4112 H   0  0  0  0  0  0  0  0  0  0  0  0
  152.5362  141.6747  161.7798 H   0  0  0  0  0  0  0  0  0  0  0  0
  154.2278  142.1757  161.6688 H   0  0  0  0  0  0  0  0  0  0  0  0
  152.2938  144.0377  161.3082 H   0  0  0  0  0  0  0  0  0  0  0  0
  153.6526  143.9985  160.1784 H   0  0  0  0  0  0  0  0  0  0  0  0
  151.8518  143.7520  158.6415 H   0  0  0  0  0  0  0  0  0  0  0  0
  150.8857  142.8193  159.7818 H   0  0  0  0  0  0  0  0  0  0  0  0
  150.8939  136.2612  154.9936 H   0  0  0  0  0  0  0  0  0  0  0  0
  1  2  1  0  0  0  0
  1 14  1  0  0  0  0
  1 15  1  0  0  0  0
  1 29  1  0  0  0  0
  2  3  1  0  0  0  0
  2 16  1  0  0  0  0
  2 17  1  0  0  0  0
  3  4  1  0  0  0  0
  3 18  1  0  0  0  0
  3 19  1  0  0  0  0
  4 13  1  0  0  0  0
  4  5  2  0  0  0  0
  5  6  1  0  0  0  0
  5 20  1  0  0  0  0
  6  7  1  0  0  0  0
  7  8  1  0  0  0  0
  7 13  2  0  0  0  0
  8 12  1  0  0  0  0
  8  9  1  0  0  0  0
  9 10  1  0  0  0  0
  9 21  1  0  0  0  0
  9 22  1  0  0  0  0
 10 11  1  0  0  0  0
 10 23  1  0  0  0  0
 10 24  1  0  0  0  0
 11 12  1  0  0  0  0
 11 25  1  0  0  0  0
 11 26  1  0  0  0  0
 12 27  1  0  0  0  0
 12 28  1  0  0  0  0
M  CHG  1   1   1
M  END
> <s_m_source_file>
AV-unprocessed.smi

> <i_m_source_file_index>
3088

> <i_lp_mmshare_version>
43012

> <i_f3d_flags>
0

> <s_epik_input>
W05IMl1bQ0gyXVtDSDJdYzFbY0hdc2MobjEpTjJbQ0gyXVtDSDJdW0NIMl1bQ0gyXTI=

> <s_epik_cmdline>
J2VwaWtfcHl0aG9uJywgJy1waCcsICc3LjAnLCAnLXRuJywgJzgnLCAnLW1hJywgJzIwMCcsICctbWV0YWxfYmluZGluZycsICctaW1hZScsICc8aW5maWxlLm1hZT4nLCAnLW9tYWUnLCAnPG91dGZpbGUubWFlPic=

> <r_epik_Ionization_Penalty>
0.0059221

> <r_epik_Ionization_Penalty_Charging>
0.00199846

> <r_epik_Ionization_Penalty_Neutral>
0.00392364

> <r_epik_State_Penalty>
0.00774005

> <r_epik_Charging_Adjusted_Penalty>
0.00973852

> <i_epik_Tot_Q>
1

> <i_epik_Tot_abs_Q>
1

> <r_epik_Metal_State_Penalty>
7.11937e-06

> <b_epik_Metal_Only>
0

> <s_lp_Force_Field>
OPLS_2005

> <r_lp_Energy>
15.4389

> <b_lp_Chiralities_Consistent>
1

> <s_lp_Variant>
AV-unprocessed.smi:3088-1

> <Gold.Version>
5.8.1

> <Gold.Id.Protein>
6NUR|6NUR_protein|mol2

> <Gold.PLP.Fitness>
42.1846

> <Gold.PLP.PLP>
-33.7252

> <Gold.PLP.part.hbond>
-2.3269

> <Gold.PLP.part.metal>
0.0000

> <Gold.PLP.part.buried>
-3.5509

> <Gold.PLP.part.nonpolar>
-27.5918

> <Gold.PLP.part.repulsive>
0.0552

> <Gold.PLP.ligand.clash>
0.0000

> <Gold.PLP.ligand.torsion>
0.2714

> <Gold.PLP.Chemscore.Hbond>
3.0000

> <Gold.PLP.Chemscore.CHOScore>
0.0000

> <Gold.PLP.Chemscore.Metal>
0.0000

> <Gold.Chemscore.Hbonds>
donor molecule, donor type, donor heavy atom, donor atom, acceptor molecule, acceptor atom, score
      L1  H     1    14       P1  7948  1.29
      P1  H  7997  8010       L1    13  1.00

> <Gold.PLP.Chemscore.Internal.Correction>
0.0022

> <Gold.Rescore>
     Score         DG    S(hbond)    S(metal)    S(lipo)     H(rot)  DE(clash)    DE(int)     intcor
     16.45     -16.70       1.62        0.00      78.60       1.32       0.03       0.23       ----

> <Gold.Chemscore.Fitness>
16.4457

> <Gold.Chemscore.DG>
-16.7029

> <Gold.Chemscore.ZeroCoef>
-5.4800

> <Gold.Chemscore.Hbond>
1.6157

> <Gold.Chemscore.Metal>
0.0000

> <Gold.Chemscore.Lipo>
78.6031

> <Gold.Chemscore.Internal_Hbond>
0.0000

> <Gold.Chemscore.DEClash>
0.0270

> <Gold.Chemscore.DEInternal>
0.2302

> <Gold.Chemscore.Rot>
1.3164

> <Gold.Chemscore.Internal.Correction>
   9.000000E+99

> <Gold.Chemscore.Hbonds>
donor molecule, donor type, donor heavy atom, donor atom, acceptor molecule, acceptor atom, score
      L1  H     1    14       P1  7948  0.08
      P1  H  7997  8010       L1    13  0.34

> <Gold.Chemscore.Hbond.Weighted>
-5.3963

> <Gold.Chemscore.Metal.Weighted>
-0.0000

> <Gold.Chemscore.Lipo.Weighted>
-9.1966

> <Gold.Chemscore.Internal_Hbond.Weighted>
0.0000

> <Gold.Chemscore.DEClash.Weighted>
0.0270

> <Gold.Chemscore.DEInternal.Weighted>
0.2302

> <Gold.Chemscore.Rot.Weighted>
3.3700

> <Gold.Chemscore.Internal.Correction.Weighted>
   9.000000E+99

> <Gold.Protein.RotatedTorsions>
[ 6907 6896 6895 6894 ] final  -43.06 input  -60.11 | X-H torsion
[ 7974 7965 7964 7962 ] final  -59.39 input  175.53 | X-H torsion
[ 8008 7997 7996 7995 ] final   47.35 input   59.86 | X-H torsion
[ 10167 10162 10161 10158 ] final -132.60 input  -65.29 | X-H torsion
[ 10718 10713 10712 10709 ] final   46.79 input   66.30 | X-H torsion
[ 10763 10752 10751 10750 ] final -147.61 input  -60.55 | X-H torsion
[ 11005 11000 10999 10996 ] final  113.18 input  -57.11 | X-H torsion

> <Gold.Protein.ActiveResidues>
 VAL166  LYS551  ARG553  GLY616  TRP617  ASP618  TYR619  PRO620  LYS621  CYS622 
 ASP623  PHE694  ASN695  SER759  ASP760  ASP761  ALA762  ILE779  LEU786  VAL792 
 PHE793  MET794  SER795  GLU796  ALA797  LYS798  CYS799  TRP800  GLU811  SER814 

> <Gold.Protein.RotatedAtoms>
  150.9481  134.8884  159.7654 H   0  0  0  0  0  0  0  0  0  0  0  0  # atno 6907 bound_to 6896
  152.5108  134.3845  159.9372 H   0  0  0  0  0  0  0  0  0  0  0  0  # atno 6908 bound_to 6896
  151.3862  133.3764  159.2750 H   0  0  0  0  0  0  0  0  0  0  0  0  # atno 6909 bound_to 6896
  145.8281  140.8498  143.0098 H   0  0  0  0  0  0  0  0  0  0  0  0  # atno 7974 bound_to 7965
  155.3676  140.3422  155.4242 H   0  0  0  0  0  0  0  0  0  0  0  0  # atno 8008 bound_to 7997
  156.1680  140.1622  156.8532 H   0  0  0  0  0  0  0  0  0  0  0  0  # atno 8009 bound_to 7997
  154.5204  140.0768  156.8144 H   0  0  0  0  0  0  0  0  0  0  0  0  # atno 8010 bound_to 7997
  139.9069  143.6541  152.2583 H   0  0  0  0  0  0  0  0  0  0  0  0  # atno 10167 bound_to 10162
  157.4518  130.8143  149.7796 H   0  0  0  0  0  0  0  0  0  0  0  0  # atno 10718 bound_to 10713
  154.8277  135.3356  154.6845 H   0  0  0  0  0  0  0  0  0  0  0  0  # atno 10763 bound_to 10752
  153.7469  135.6942  153.4959 H   0  0  0  0  0  0  0  0  0  0  0  0  # atno 10764 bound_to 10752
  153.2204  135.4451  155.0433 H   0  0  0  0  0  0  0  0  0  0  0  0  # atno 10765 bound_to 10752
  139.8946  134.9545  156.6700 H   0  0  0  0  0  0  0  0  0  0  0  0  # atno 11005 bound_to 11000
  144.6742  140.0631  143.7475 LP  0  0  0  0  0  0  0  0  0  0  0  0  # atno 17320 bound_to 7965
  145.9602  139.2795  143.1160 LP  0  0  0  0  0  0  0  0  0  0  0  0  # atno 17321 bound_to 7965
  139.6977  144.7639  151.1328 LP  0  0  0  0  0  0  0  0  0  0  0  0  # atno 17342 bound_to 10162
  140.7694  143.5501  150.9214 LP  0  0  0  0  0  0  0  0  0  0  0  0  # atno 17343 bound_to 10162
  155.9990  130.3891  150.2679 LP  0  0  0  0  0  0  0  0  0  0  0  0  # atno 17370 bound_to 10713
  157.0852  131.0154  151.3142 LP  0  0  0  0  0  0  0  0  0  0  0  0  # atno 17371 bound_to 10713
  140.7381  133.9001  155.8258 LP  0  0  0  0  0  0  0  0  0  0  0  0  # atno 17394 bound_to 11000
  141.0100  134.1034  157.4231 LP  0  0  0  0  0  0  0  0  0  0  0  0  # atno 17395 bound_to 11000

$$$$
