AV-unprocessed.smi:1508|AV-procd|sdf|6089|dock9
  -GOLD-   22720 6213D 1   1.00000     0.00000
 Structure written by MMmdl.
 37 38  0  0  0  0  0  0  0  0  3 V2000
  149.0231  132.4070  154.5730 C   0  0  0  0  0  0  0  0  0  0  0  0
  148.2401  133.0371  153.4100 C   0  0  0  0  0  0  0  0  0  0  0  0
  147.2213  134.1321  153.8289 C   0  0  1  0  0  0  0  0  0  0  0  0
  147.7930  135.1117  154.8877 C   0  0  0  0  0  0  0  0  0  0  0  0
  149.1678  135.5041  154.5885 N   0  0  0  0  0  0  0  0  0  0  0  0
  150.1332  135.7787  155.4772 C   0  0  0  0  0  0  0  0  0  0  0  0
  149.9103  135.6792  156.6855 O   0  0  0  0  0  0  0  0  0  0  0  0
  151.2979  136.1599  154.9075 N   0  5  0  0  0  0  0  0  0  0  0  0
  151.6823  137.4458  154.9634 C   0  0  0  0  0  0  0  0  0  0  0  0
  152.9753  137.8080  154.9608 N   0  0  0  0  0  0  0  0  0  0  0  0
  153.1572  139.1828  155.0253 N   0  0  0  0  0  0  0  0  0  0  0  0
  151.9907  139.8249  155.0826 C   0  0  0  0  0  0  0  0  0  0  0  0
  150.5646  138.8089  155.0676 S   0  0  0  0  0  0  0  0  0  0  0  0
  146.6896  134.8531  152.6347 N   0  3  0  0  0  0  0  0  0  0  0  0
  146.1245  133.9863  151.5692 C   0  0  0  0  0  0  0  0  0  0  0  0
  144.9262  134.7306  150.9631 C   0  0  0  0  0  0  0  0  0  0  0  0
  144.9858  136.1290  151.5668 C   0  0  0  0  0  0  0  0  0  0  0  0
  145.6798  135.8992  152.9042 C   0  0  0  0  0  0  0  0  0  0  0  0
  149.7110  131.6466  154.2026 H   0  0  0  0  0  0  0  0  0  0  0  0
  148.3631  131.9236  155.2917 H   0  0  0  0  0  0  0  0  0  0  0  0
  149.6140  133.1495  155.1088 H   0  0  0  0  0  0  0  0  0  0  0  0
  148.9526  133.4440  152.6927 H   0  0  0  0  0  0  0  0  0  0  0  0
  147.7278  132.2451  152.8634 H   0  0  0  0  0  0  0  0  0  0  0  0
  146.3747  133.6237  154.2936 H   0  0  0  0  0  0  0  0  0  0  0  0
  147.1393  135.9779  154.9988 H   0  0  0  0  0  0  0  0  0  0  0  0
  147.8285  134.6377  155.8681 H   0  0  0  0  0  0  0  0  0  0  0  0
  149.4097  135.5970  153.6125 H   0  0  0  0  0  0  0  0  0  0  0  0
  151.9701  140.9029  155.1383 H   0  0  0  0  0  0  0  0  0  0  0  0
  146.8913  133.7874  150.8198 H   0  0  0  0  0  0  0  0  0  0  0  0
  145.7917  133.0266  151.9674 H   0  0  0  0  0  0  0  0  0  0  0  0
  144.9520  134.7484  149.8730 H   0  0  0  0  0  0  0  0  0  0  0  0
  143.9998  134.2392  151.2635 H   0  0  0  0  0  0  0  0  0  0  0  0
  145.5980  136.7786  150.9393 H   0  0  0  0  0  0  0  0  0  0  0  0
  144.0029  136.5897  151.6714 H   0  0  0  0  0  0  0  0  0  0  0  0
  144.9574  135.5351  153.6370 H   0  0  0  0  0  0  0  0  0  0  0  0
  146.1304  136.8140  153.2903 H   0  0  0  0  0  0  0  0  0  0  0  0
  147.4725  135.3339  152.2148 H   0  0  0  0  0  0  0  0  0  0  0  0
  1  2  1  0  0  0  0
  1 19  1  0  0  0  0
  1 20  1  0  0  0  0
  1 21  1  0  0  0  0
  2  3  1  0  0  0  0
  2 22  1  0  0  0  0
  2 23  1  0  0  0  0
  3  4  1  0  0  0  0
  3 14  1  0  0  0  0
  3 24  1  0  0  0  0
  4  5  1  0  0  0  0
  4 25  1  0  0  0  0
  4 26  1  0  0  0  0
  5  6  1  0  0  0  0
  5 27  1  0  0  0  0
  6  7  2  0  0  0  0
  6  8  1  0  0  0  0
  8  9  1  0  0  0  0
  9 13  1  0  0  0  0
  9 10  2  0  0  0  0
 10 11  1  0  0  0  0
 11 12  2  0  0  0  0
 12 13  1  0  0  0  0
 12 28  1  0  0  0  0
 14 18  1  0  0  0  0
 14 15  1  0  0  0  0
 14 37  1  0  0  0  0
 15 16  1  0  0  0  0
 15 29  1  0  0  0  0
 15 30  1  0  0  0  0
 16 17  1  0  0  0  0
 16 31  1  0  0  0  0
 16 32  1  0  0  0  0
 17 18  1  0  0  0  0
 17 33  1  0  0  0  0
 17 34  1  0  0  0  0
 18 35  1  0  0  0  0
 18 36  1  0  0  0  0
M  CHG  1   8  -1
M  CHG  1  14   1
M  END
> <s_m_source_file>
AV-unprocessed.smi

> <i_m_source_file_index>
1508

> <i_lp_mmshare_version>
43012

> <i_f3d_flags>
0

> <s_epik_input>
W0NIMl0xW0NIMl1bQ0gyXVtDSDJdTjFbQ0BIXShbQ0gyXVtDSDNdKVtDSDJdW05IXUMoPU8pW05IXWMybm5bY0hdczI=

> <s_epik_cmdline>
J2VwaWtfcHl0aG9uJywgJy1waCcsICc3LjAnLCAnLXRuJywgJzgnLCAnLW1hJywgJzIwMCcsICctbWV0YWxfYmluZGluZycsICctaW1hZScsICc8aW5maWxlLm1hZT4nLCAnLW9tYWUnLCAnPG91dGZpbGUubWFlPic=

> <r_lp_tautomer_probability>
1

> <r_epik_Ionization_Penalty>
3.98086

> <r_epik_Ionization_Penalty_Charging>
3.94833

> <r_epik_Ionization_Penalty_Neutral>
0.032525

> <r_epik_State_Penalty>
3.94643

> <r_epik_Charging_Adjusted_Penalty>
7.89477

> <i_epik_Tot_Q>
0

> <i_epik_Tot_abs_Q>
2

> <r_epik_Metal_State_Penalty>
0.605555

> <b_epik_Metal_Only>
1

> <s_lp_Force_Field>
OPLS_2005

> <r_lp_Energy>
25.5937

> <b_lp_Chiralities_Consistent>
1

> <s_lp_Variant>
AV-unprocessed.smi:1508-4

> <Gold.Version>
5.8.1

> <Gold.Id.Protein>
6NUR|6NUR_protein|mol2

> <Gold.PLP.Fitness>
46.6847

> <Gold.PLP.PLP>
-31.2314

> <Gold.PLP.part.hbond>
-4.9680

> <Gold.PLP.part.metal>
0.0000

> <Gold.PLP.part.buried>
-4.3660

> <Gold.PLP.part.nonpolar>
-22.7324

> <Gold.PLP.part.repulsive>
0.2137

> <Gold.PLP.ligand.clash>
0.0000

> <Gold.PLP.ligand.torsion>
1.3506

> <Gold.PLP.Chemscore.Hbond>
6.0000

> <Gold.PLP.Chemscore.CHOScore>
0.0000

> <Gold.PLP.Chemscore.Metal>
0.0000

> <Gold.Chemscore.Hbonds>
donor molecule, donor type, donor heavy atom, donor atom, acceptor molecule, acceptor atom, score
      L1  H     5    27       P1  7948  1.00
      L1  H    14    37       P1  7948  2.00
      P1  H  7997  8010       L1    11  0.85
      P1  H 10752 10764       L1     8  1.30

> <Gold.PLP.Chemscore.Internal.Correction>
0.1546

> <Gold.Rescore>
     Score         DG    S(hbond)    S(metal)    S(lipo)     H(rot)  DE(clash)    DE(int)     intcor
     16.58     -17.66       3.42        0.00      47.00       1.86       0.03       1.05       ----

> <Gold.Chemscore.Fitness>
16.5787

> <Gold.Chemscore.DG>
-17.6623

> <Gold.Chemscore.ZeroCoef>
-5.4800

> <Gold.Chemscore.Hbond>
3.4248

> <Gold.Chemscore.Metal>
0.0000

> <Gold.Chemscore.Lipo>
46.9951

> <Gold.Chemscore.Internal_Hbond>
0.0000

> <Gold.Chemscore.DEClash>
0.0343

> <Gold.Chemscore.DEInternal>
1.0492

> <Gold.Chemscore.Rot>
1.8575

> <Gold.Chemscore.Internal.Correction>
   9.000000E+99

> <Gold.Chemscore.Hbonds>
donor molecule, donor type, donor heavy atom, donor atom, acceptor molecule, acceptor atom, score
      L1  H     5    27       P1  7948  0.33
      L1  H    14    37       P1  7948  1.00
      P1  H  7997  8010       L1    11  0.46
      P1  H 10752 10764       L1     8  0.06

> <Gold.Chemscore.Hbond.Weighted>
-11.4390

> <Gold.Chemscore.Metal.Weighted>
-0.0000

> <Gold.Chemscore.Lipo.Weighted>
-5.4984

> <Gold.Chemscore.Internal_Hbond.Weighted>
0.0000

> <Gold.Chemscore.DEClash.Weighted>
0.0343

> <Gold.Chemscore.DEInternal.Weighted>
1.0492

> <Gold.Chemscore.Rot.Weighted>
4.7551

> <Gold.Chemscore.Internal.Correction.Weighted>
   9.000000E+99

> <Gold.Protein.RotatedTorsions>
[ 6907 6896 6895 6894 ] final -158.35 input  -60.11 | X-H torsion
[ 7974 7965 7964 7962 ] final  -81.23 input  175.53 | X-H torsion
[ 8008 7997 7996 7995 ] final   78.32 input   59.86 | X-H torsion
[ 10167 10162 10161 10158 ] final   78.04 input  -65.29 | X-H torsion
[ 10718 10713 10712 10709 ] final  164.82 input   66.30 | X-H torsion
[ 10763 10752 10751 10750 ] final  -58.15 input  -60.55 | X-H torsion
[ 11005 11000 10999 10996 ] final  -21.73 input  -57.11 | X-H torsion

> <Gold.Protein.ActiveResidues>
 VAL166  LYS551  ARG553  GLY616  TRP617  ASP618  TYR619  PRO620  LYS621  CYS622 
 ASP623  PHE694  ASN695  SER759  ASP760  ASP761  ALA762  ILE779  LEU786  VAL792 
 PHE793  MET794  SER795  GLU796  ALA797  LYS798  CYS799  TRP800  GLU811  SER814 

> <Gold.Protein.RotatedAtoms>
  151.3169  133.4056  159.2651 H   0  0  0  0  0  0  0  0  0  0  0  0  # atno 6907 bound_to 6896
  151.0067  134.9366  159.7995 H   0  0  0  0  0  0  0  0  0  0  0  0  # atno 6908 bound_to 6896
  152.5290  134.3133  159.9174 H   0  0  0  0  0  0  0  0  0  0  0  0  # atno 6909 bound_to 6896
  145.5494  140.9498  143.1507 H   0  0  0  0  0  0  0  0  0  0  0  0  # atno 7974 bound_to 7965
  155.8540  140.3457  155.5712 H   0  0  0  0  0  0  0  0  0  0  0  0  # atno 8008 bound_to 7997
  155.8006  140.0884  157.1978 H   0  0  0  0  0  0  0  0  0  0  0  0  # atno 8009 bound_to 7997
  154.4009  140.1466  156.3258 H   0  0  0  0  0  0  0  0  0  0  0  0  # atno 8010 bound_to 7997
  139.9752  144.5866  150.7949 H   0  0  0  0  0  0  0  0  0  0  0  0  # atno 10167 bound_to 10162
  157.0889  131.0412  151.2545 H   0  0  0  0  0  0  0  0  0  0  0  0  # atno 10718 bound_to 10713
  154.2336  135.6356  153.5183 H   0  0  0  0  0  0  0  0  0  0  0  0  # atno 10763 bound_to 10752
  152.9944  135.5525  154.5986 H   0  0  0  0  0  0  0  0  0  0  0  0  # atno 10764 bound_to 10752
  154.5475  135.2899  155.1014 H   0  0  0  0  0  0  0  0  0  0  0  0  # atno 10765 bound_to 10752
  140.8589  133.7802  156.0052 H   0  0  0  0  0  0  0  0  0  0  0  0  # atno 11005 bound_to 11000
  144.7537  139.7129  143.7263 LP  0  0  0  0  0  0  0  0  0  0  0  0  # atno 17320 bound_to 7965
  146.1927  139.5176  142.9795 LP  0  0  0  0  0  0  0  0  0  0  0  0  # atno 17321 bound_to 7965
  140.7508  143.2962  151.3199 LP  0  0  0  0  0  0  0  0  0  0  0  0  # atno 17342 bound_to 10162
  139.6451  144.0466  152.2584 LP  0  0  0  0  0  0  0  0  0  0  0  0  # atno 17343 bound_to 10162
  157.4737  130.7724  149.7348 LP  0  0  0  0  0  0  0  0  0  0  0  0  # atno 17370 bound_to 10713
  155.9903  130.3945  150.3034 LP  0  0  0  0  0  0  0  0  0  0  0  0  # atno 17371 bound_to 10713
  140.8705  134.2732  157.5193 LP  0  0  0  0  0  0  0  0  0  0  0  0  # atno 17394 bound_to 11000
  139.8706  134.9565  156.4239 LP  0  0  0  0  0  0  0  0  0  0  0  0  # atno 17395 bound_to 11000

$$$$
