AV-unprocessed.smi:2448|AV-procd|sdf|9654|dock2
  -GOLD-   2272013283D 1   1.00000     0.00000
 Structure written by MMmdl.
 37 38  0  0  0  0  0  0  0  0  1 V2000
  151.2213  140.5216  155.4470 O   0  0  0  0  0  0  0  0  0  0  0  0
  149.8973  140.4260  155.9425 C   0  0  2  0  0  0  0  0  0  0  0  0
  149.8959  140.8753  157.4174 C   0  0  0  0  0  0  0  0  0  0  0  0
  150.6926  139.9840  158.2657 N   0  0  0  0  0  0  0  0  0  0  0  0
  152.0635  140.4294  158.5547 C   0  0  1  0  0  0  0  0  0  0  0  0
  152.1338  141.3538  159.7978 C   0  0  0  0  0  0  0  0  0  0  0  0
  151.9075  142.8291  159.5203 C   0  0  0  0  0  0  0  0  0  0  0  0
  151.5072  143.2684  158.2416 C   0  0  0  0  0  0  0  0  0  0  0  0
  151.3013  144.6479  158.0387 C   0  0  0  0  0  0  0  0  0  0  0  0
  151.4691  145.5732  159.0078 N   0  0  0  0  0  0  0  0  0  0  0  0
  151.8590  145.1463  160.2282 C   0  0  0  0  0  0  0  0  0  0  0  0
  152.0937  143.7913  160.5355 C   0  0  0  0  0  0  0  0  0  0  0  0
  152.9761  139.1980  158.7363 C   0  0  0  0  0  0  0  0  0  0  0  0
  152.4421  138.3675  159.6326 F   0  0  0  0  0  0  0  0  0  0  0  0
  153.0988  138.5388  157.5840 F   0  0  0  0  0  0  0  0  0  0  0  0
  154.1878  139.5635  159.1572 F   0  0  0  0  0  0  0  0  0  0  0  0
  149.3587  139.0001  155.7275 C   0  0  0  0  0  0  0  0  0  0  0  0
  149.0787  138.8232  154.2320 C   0  0  0  0  0  0  0  0  0  0  0  0
  148.5393  140.4236  153.5809 S   0  0  0  0  0  0  0  0  0  0  0  0
  149.0066  141.3344  155.0772 C   0  0  0  0  0  0  0  0  0  0  0  0
  151.8197  140.4245  156.1717 H   0  0  0  0  0  0  0  0  0  0  0  0
  150.2726  141.8963  157.4918 H   0  0  0  0  0  0  0  0  0  0  0  0
  148.8654  140.9088  157.7595 H   0  0  0  0  0  0  0  0  0  0  0  0
  150.7271  139.0647  157.8366 H   0  0  0  0  0  0  0  0  0  0  0  0
  152.4524  140.9721  157.6919 H   0  0  0  0  0  0  0  0  0  0  0  0
  151.4263  141.0118  160.5545 H   0  0  0  0  0  0  0  0  0  0  0  0
  153.1182  141.2731  160.2587 H   0  0  0  0  0  0  0  0  0  0  0  0
  151.3574  142.5669  157.4339 H   0  0  0  0  0  0  0  0  0  0  0  0
  150.9926  145.0173  157.0721 H   0  0  0  0  0  0  0  0  0  0  0  0
  151.9867  145.9072  160.9838 H   0  0  0  0  0  0  0  0  0  0  0  0
  152.3990  143.5010  161.5301 H   0  0  0  0  0  0  0  0  0  0  0  0
  150.0418  138.2349  156.0980 H   0  0  0  0  0  0  0  0  0  0  0  0
  148.4239  138.8835  156.2781 H   0  0  0  0  0  0  0  0  0  0  0  0
  149.9929  138.5367  153.7115 H   0  0  0  0  0  0  0  0  0  0  0  0
  148.3330  138.0510  154.0422 H   0  0  0  0  0  0  0  0  0  0  0  0
  148.0824  141.5675  155.6078 H   0  0  0  0  0  0  0  0  0  0  0  0
  149.4832  142.2836  154.8290 H   0  0  0  0  0  0  0  0  0  0  0  0
  1  2  1  0  0  0  0
  1 21  1  0  0  0  0
  2 20  1  0  0  0  0
  2  3  1  0  0  0  0
  2 17  1  0  0  0  0
  3  4  1  0  0  0  0
  3 22  1  0  0  0  0
  3 23  1  0  0  0  0
  4  5  1  0  0  0  0
  4 24  1  0  0  0  0
  5  6  1  0  0  0  0
  5 13  1  0  0  0  0
  5 25  1  0  0  0  0
  6  7  1  0  0  0  0
  6 26  1  0  0  0  0
  6 27  1  0  0  0  0
  7 12  1  0  0  0  0
  7  8  2  0  0  0  0
  8  9  1  0  0  0  0
  8 28  1  0  0  0  0
  9 10  2  0  0  0  0
  9 29  1  0  0  0  0
 10 11  1  0  0  0  0
 11 12  2  0  0  0  0
 11 30  1  0  0  0  0
 12 31  1  0  0  0  0
 13 14  1  0  0  0  0
 13 15  1  0  0  0  0
 13 16  1  0  0  0  0
 17 18  1  0  0  0  0
 17 32  1  0  0  0  0
 17 33  1  0  0  0  0
 18 19  1  0  0  0  0
 18 34  1  0  0  0  0
 18 35  1  0  0  0  0
 19 20  1  0  0  0  0
 20 36  1  0  0  0  0
 20 37  1  0  0  0  0
M  END
> <s_m_source_file>
AV-unprocessed.smi

> <i_m_source_file_index>
2448

> <i_lp_mmshare_version>
43012

> <i_f3d_flags>
0

> <s_epik_input>
W0NIMl0xU1tDSDJdW0NIMl1bQ0BAXTEoW09IXSlbQ0gyXVtOSF1bQ0BASF0oQyhGKShGKUYpW0NIMl1jMltjSF1bY0hdbltjSF1bY0hdMg==

> <s_epik_cmdline>
J2VwaWtfcHl0aG9uJywgJy1waCcsICc3LjAnLCAnLXRuJywgJzgnLCAnLW1hJywgJzIwMCcsICctbWV0YWxfYmluZGluZycsICctaW1hZScsICc8aW5maWxlLm1hZT4nLCAnLW9tYWUnLCAnPG91dGZpbGUubWFlPic=

> <r_epik_Ionization_Penalty>
0.187708

> <r_epik_Ionization_Penalty_Charging>
0

> <r_epik_Ionization_Penalty_Neutral>
0.187708

> <r_epik_State_Penalty>
0.22769

> <r_epik_Charging_Adjusted_Penalty>
0.22769

> <i_epik_Tot_Q>
0

> <i_epik_Tot_abs_Q>
0

> <r_epik_Metal_State_Penalty>
0.176206

> <b_epik_Metal_Only>
0

> <s_lp_Force_Field>
OPLS_2005

> <r_lp_Energy>
32.1686

> <b_lp_Chiralities_Consistent>
1

> <s_lp_Variant>
AV-unprocessed.smi:2448-4

> <Gold.Version>
5.8.1

> <Gold.Id.Protein>
6NUR|6NUR_protein|mol2

> <Gold.PLP.Fitness>
39.5802

> <Gold.PLP.PLP>
-35.6051

> <Gold.PLP.part.hbond>
-2.0000

> <Gold.PLP.part.metal>
0.0000

> <Gold.PLP.part.buried>
0.1361

> <Gold.PLP.part.nonpolar>
-33.8706

> <Gold.PLP.part.repulsive>
0.1349

> <Gold.PLP.ligand.clash>
0.0000

> <Gold.PLP.ligand.torsion>
1.1619

> <Gold.PLP.Chemscore.Hbond>
0.8960

> <Gold.PLP.Chemscore.CHOScore>
0.9938

> <Gold.PLP.Chemscore.Metal>
0.0000

> <Gold.Chemscore.Hbonds>
donor molecule, donor type, donor heavy atom, donor atom, acceptor molecule, acceptor atom, score
      P1  H  7989  7998       L1     1  0.90
      L1  C     9    29       P1  8028  1.00

> <Gold.PLP.Chemscore.Internal.Correction>
0.6297

> <Gold.Rescore>
     Score         DG    S(hbond)    S(metal)    S(lipo)     H(rot)  DE(clash)    DE(int)     intcor
     11.61     -15.24       0.78        0.00     111.79       2.31       1.43       2.20       ----

> <Gold.Chemscore.Fitness>
11.6124

> <Gold.Chemscore.DG>
-15.2422

> <Gold.Chemscore.ZeroCoef>
-5.4800

> <Gold.Chemscore.Hbond>
0.7782

> <Gold.Chemscore.Metal>
0.0000

> <Gold.Chemscore.Lipo>
111.7895

> <Gold.Chemscore.Internal_Hbond>
0.0000

> <Gold.Chemscore.DEClash>
1.4322

> <Gold.Chemscore.DEInternal>
2.1976

> <Gold.Chemscore.Rot>
2.3111

> <Gold.Chemscore.Internal.Correction>
   9.000000E+99

> <Gold.Chemscore.Hbonds>
donor molecule, donor type, donor heavy atom, donor atom, acceptor molecule, acceptor atom, score
      P1  H  7989  7998       L1     1  0.83

> <Gold.Chemscore.Hbond.Weighted>
-2.5992

> <Gold.Chemscore.Metal.Weighted>
-0.0000

> <Gold.Chemscore.Lipo.Weighted>
-13.0794

> <Gold.Chemscore.Internal_Hbond.Weighted>
0.0000

> <Gold.Chemscore.DEClash.Weighted>
1.4322

> <Gold.Chemscore.DEInternal.Weighted>
2.1976

> <Gold.Chemscore.Rot.Weighted>
5.9164

> <Gold.Chemscore.Internal.Correction.Weighted>
   9.000000E+99

> <Gold.Protein.RotatedTorsions>
[ 6907 6896 6895 6894 ] final    3.37 input  -60.11 | X-H torsion
[ 7974 7965 7964 7962 ] final   -5.53 input  175.53 | X-H torsion
[ 8008 7997 7996 7995 ] final -163.85 input   59.86 | X-H torsion
[ 10167 10162 10161 10158 ] final -114.66 input  -65.29 | X-H torsion
[ 10718 10713 10712 10709 ] final -129.96 input   66.30 | X-H torsion
[ 10763 10752 10751 10750 ] final -129.40 input  -60.55 | X-H torsion
[ 11005 11000 10999 10996 ] final  -79.69 input  -57.11 | X-H torsion

> <Gold.Protein.ActiveResidues>
 VAL166  LYS551  ARG553  GLY616  TRP617  ASP618  TYR619  PRO620  LYS621  CYS622 
 ASP623  PHE694  ASN695  SER759  ASP760  ASP761  ALA762  ILE779  LEU786  VAL792 
 PHE793  MET794  SER795  GLU796  ALA797  LYS798  CYS799  TRP800  GLU811  SER814 

> <Gold.Protein.RotatedAtoms>
  151.6240  135.1029  160.0107 H   0  0  0  0  0  0  0  0  0  0  0  0  # atno 6907 bound_to 6896
  152.4142  133.7008  159.6433 H   0  0  0  0  0  0  0  0  0  0  0  0  # atno 6908 bound_to 6896
  150.8031  133.8486  159.3240 H   0  0  0  0  0  0  0  0  0  0  0  0  # atno 6909 bound_to 6896
  146.2351  140.2035  142.8334 H   0  0  0  0  0  0  0  0  0  0  0  0  # atno 7974 bound_to 7965
  155.8272  140.0928  157.1814 H   0  0  0  0  0  0  0  0  0  0  0  0  # atno 8008 bound_to 7997
  154.3979  140.1425  156.3631 H   0  0  0  0  0  0  0  0  0  0  0  0  # atno 8009 bound_to 7997
  155.8204  140.3446  155.5513 H   0  0  0  0  0  0  0  0  0  0  0  0  # atno 8010 bound_to 7997
  140.0986  143.4634  152.1826 H   0  0  0  0  0  0  0  0  0  0  0  0  # atno 10167 bound_to 10162
  156.2098  130.6911  151.0636 H   0  0  0  0  0  0  0  0  0  0  0  0  # atno 10718 bound_to 10713
  154.8757  135.3897  154.3913 H   0  0  0  0  0  0  0  0  0  0  0  0  # atno 10763 bound_to 10752
  153.4648  135.7029  153.6033 H   0  0  0  0  0  0  0  0  0  0  0  0  # atno 10764 bound_to 10752
  153.4516  135.3832  155.2255 H   0  0  0  0  0  0  0  0  0  0  0  0  # atno 10765 bound_to 10752
  141.1667  133.7117  156.8161 H   0  0  0  0  0  0  0  0  0  0  0  0  # atno 11005 bound_to 11000
  144.9763  140.8417  143.5424 LP  0  0  0  0  0  0  0  0  0  0  0  0  # atno 17320 bound_to 7965
  145.2022  139.2246  143.5187 LP  0  0  0  0  0  0  0  0  0  0  0  0  # atno 17321 bound_to 7965
  139.5684  144.7448  151.3958 LP  0  0  0  0  0  0  0  0  0  0  0  0  # atno 17342 bound_to 10162
  140.6990  143.7678  150.7372 LP  0  0  0  0  0  0  0  0  0  0  0  0  # atno 17343 bound_to 10162
  157.7032  131.0767  150.6752 LP  0  0  0  0  0  0  0  0  0  0  0  0  # atno 17370 bound_to 10713
  156.6812  130.4567  149.5627 LP  0  0  0  0  0  0  0  0  0  0  0  0  # atno 17371 bound_to 10713
  140.2153  134.8797  157.3318 LP  0  0  0  0  0  0  0  0  0  0  0  0  # atno 17394 bound_to 11000
  140.2044  134.4215  155.7645 LP  0  0  0  0  0  0  0  0  0  0  0  0  # atno 17395 bound_to 11000

$$$$
