AV-unprocessed.smi:2032|AV-procd|sdf|8234|dock4
  -GOLD-   2272010503D 1   1.00000     0.00000
 Structure written by MMmdl.
 42 43  0  0  0  0  0  0  0  0  1 V2000
  153.3966  138.6672  154.6210 C   0  0  0  0  0  0  0  0  0  0  0  0
  151.9136  138.4099  154.3330 C   0  0  1  0  0  0  0  0  0  0  0  0
  151.3667  137.2103  155.1302 C   0  0  0  0  0  0  0  0  0  0  0  0
  149.9298  136.9934  154.9277 N   0  0  0  0  0  0  0  0  0  0  0  0
  149.4050  135.8592  155.7242 C   0  0  1  0  0  0  0  0  0  0  0  0
  149.5195  136.0964  157.2516 C   0  0  0  0  0  0  0  0  0  0  0  0
  147.9300  135.4953  155.3856 C   0  0  0  0  0  0  0  0  0  0  0  0
  147.7150  135.1968  153.9721 N   0  0  0  0  0  0  0  0  0  0  0  0
  146.7630  134.3814  153.4953 C   0  0  0  0  0  0  0  0  0  0  0  0
  145.9505  133.7957  154.2117 O   0  0  0  0  0  0  0  0  0  0  0  0
  146.8213  134.2961  152.1548 N   0  0  0  0  0  0  0  0  0  0  0  0
  146.0030  133.5251  151.2879 C   0  0  0  0  0  0  0  0  0  0  0  0
  146.4387  132.9227  150.1752 N   0  0  0  0  0  0  0  0  0  0  0  0
  145.4160  132.2361  149.5158 C   0  0  0  0  0  0  0  0  0  0  0  0
  144.1993  132.3270  150.1446 C   0  0  0  0  0  0  0  0  0  0  0  0
  144.2906  133.2825  151.6000 S   0  0  0  0  0  0  0  0  0  0  0  0
  149.2387  138.2525  155.2274 C   0  0  0  0  0  0  0  0  0  0  0  0
  149.7902  139.4492  154.4294 C   0  0  1  0  0  0  0  0  0  0  0  0
  149.1089  140.7654  154.8181 C   0  0  0  0  0  0  0  0  0  0  0  0
  151.1829  139.5775  154.6846 O   0  0  0  0  0  0  0  0  0  0  0  0
  154.0047  137.8038  154.3502 H   0  0  0  0  0  0  0  0  0  0  0  0
  153.5628  138.8760  155.6782 H   0  0  0  0  0  0  0  0  0  0  0  0
  153.7612  139.5221  154.0510 H   0  0  0  0  0  0  0  0  0  0  0  0
  151.7929  138.2238  153.2644 H   0  0  0  0  0  0  0  0  0  0  0  0
  151.9349  136.3392  154.8117 H   0  0  0  0  0  0  0  0  0  0  0  0
  151.5714  137.3531  156.1926 H   0  0  0  0  0  0  0  0  0  0  0  0
  150.0131  134.9832  155.4933 H   0  0  0  0  0  0  0  0  0  0  0  0
  149.0815  135.2860  157.8330 H   0  0  0  0  0  0  0  0  0  0  0  0
  149.0169  137.0184  157.5456 H   0  0  0  0  0  0  0  0  0  0  0  0
  150.5547  136.1555  157.5847 H   0  0  0  0  0  0  0  0  0  0  0  0
  147.6191  134.6272  155.9676 H   0  0  0  0  0  0  0  0  0  0  0  0
  147.2394  136.2977  155.6401 H   0  0  0  0  0  0  0  0  0  0  0  0
  148.3391  135.6397  153.3139 H   0  0  0  0  0  0  0  0  0  0  0  0
  147.5434  134.8363  151.7018 H   0  0  0  0  0  0  0  0  0  0  0  0
  145.6427  131.7083  148.6012 H   0  0  0  0  0  0  0  0  0  0  0  0
  143.2589  131.8915  149.8412 H   0  0  0  0  0  0  0  0  0  0  0  0
  148.1798  138.1721  154.9884 H   0  0  0  0  0  0  0  0  0  0  0  0
  149.3077  138.4645  156.2955 H   0  0  0  0  0  0  0  0  0  0  0  0
  149.6384  139.2787  153.3621 H   0  0  0  0  0  0  0  0  0  0  0  0
  148.0353  140.7208  154.6334 H   0  0  0  0  0  0  0  0  0  0  0  0
  149.5110  141.5978  154.2405 H   0  0  0  0  0  0  0  0  0  0  0  0
  149.2582  140.9903  155.8745 H   0  0  0  0  0  0  0  0  0  0  0  0
  1  2  1  0  0  0  0
  1 21  1  0  0  0  0
  1 22  1  0  0  0  0
  1 23  1  0  0  0  0
  2 20  1  0  0  0  0
  2  3  1  0  0  0  0
  2 24  1  0  0  0  0
  3  4  1  0  0  0  0
  3 25  1  0  0  0  0
  3 26  1  0  0  0  0
  4  5  1  0  0  0  0
  4 17  1  0  0  0  0
  5  6  1  0  0  0  0
  5  7  1  0  0  0  0
  5 27  1  0  0  0  0
  6 28  1  0  0  0  0
  6 29  1  0  0  0  0
  6 30  1  0  0  0  0
  7  8  1  0  0  0  0
  7 31  1  0  0  0  0
  7 32  1  0  0  0  0
  8  9  1  0  0  0  0
  8 33  1  0  0  0  0
  9 10  2  0  0  0  0
  9 11  1  0  0  0  0
 11 12  1  0  0  0  0
 11 34  1  0  0  0  0
 12 16  1  0  0  0  0
 12 13  2  0  0  0  0
 13 14  1  0  0  0  0
 14 15  2  0  0  0  0
 14 35  1  0  0  0  0
 15 16  1  0  0  0  0
 15 36  1  0  0  0  0
 17 18  1  0  0  0  0
 17 37  1  0  0  0  0
 17 38  1  0  0  0  0
 18 19  1  0  0  0  0
 18 20  1  0  0  0  0
 18 39  1  0  0  0  0
 19 40  1  0  0  0  0
 19 41  1  0  0  0  0
 19 42  1  0  0  0  0
M  END
> <s_m_source_file>
AV-unprocessed.smi

> <i_m_source_file_index>
2032

> <i_lp_mmshare_version>
43012

> <i_f3d_flags>
0

> <s_epik_input>
W0NIM11bQ0BASF0xW0NIMl1OKFtDSDJdW0NASF0oTzEpW0NIM10pW0NASF0oW0NIM10pW0NIMl1bTkhdQyg9TylbTkhdYzJuW2NIXVtjSF1zMg==

> <s_epik_cmdline>
J2VwaWtfcHl0aG9uJywgJy1waCcsICc3LjAnLCAnLXRuJywgJzgnLCAnLW1hJywgJzIwMCcsICctbWV0YWxfYmluZGluZycsICctaW1hZScsICc8aW5maWxlLm1hZT4nLCAnLW9tYWUnLCAnPG91dGZpbGUubWFlPic=

> <r_lp_tautomer_probability>
0.999

> <r_epik_Ionization_Penalty>
0.219202

> <r_epik_Ionization_Penalty_Charging>
0

> <r_epik_Ionization_Penalty_Neutral>
0.219202

> <r_epik_State_Penalty>
0.209349

> <r_epik_Charging_Adjusted_Penalty>
0.209349

> <i_epik_Tot_Q>
0

> <i_epik_Tot_abs_Q>
0

> <r_epik_Metal_State_Penalty>
0.247737

> <b_epik_Metal_Only>
0

> <s_lp_Force_Field>
OPLS_2005

> <r_lp_Energy>
24.906

> <b_lp_Chiralities_Consistent>
1

> <s_lp_Variant>
AV-unprocessed.smi:2032-4

> <Gold.Version>
5.8.1

> <Gold.Id.Protein>
6NUR|6NUR_protein|mol2

> <Gold.PLP.Fitness>
41.3010

> <Gold.PLP.PLP>
-32.4046

> <Gold.PLP.part.hbond>
-3.0000

> <Gold.PLP.part.metal>
0.0000

> <Gold.PLP.part.buried>
-6.3674

> <Gold.PLP.part.nonpolar>
-24.3517

> <Gold.PLP.part.repulsive>
0.5586

> <Gold.PLP.ligand.clash>
0.0000

> <Gold.PLP.ligand.torsion>
0.4805

> <Gold.PLP.Chemscore.Hbond>
2.9913

> <Gold.PLP.Chemscore.CHOScore>
0.2838

> <Gold.PLP.Chemscore.Metal>
0.0000

> <Gold.Chemscore.Hbonds>
donor molecule, donor type, donor heavy atom, donor atom, acceptor molecule, acceptor atom, score
      L1  H     8    33       P1  7948  1.00
      L1  H    11    34       P1  7948  0.99
      P1  H  7989  7998       L1    20  1.00
      L1  C    15    36       P1 10952  0.08

> <Gold.PLP.Chemscore.Internal.Correction>
0.0322

> <Gold.Rescore>
     Score         DG    S(hbond)    S(metal)    S(lipo)     H(rot)  DE(clash)    DE(int)     intcor
     16.45     -17.06       2.07        0.00      74.30       1.57       0.09       0.52       ----

> <Gold.Chemscore.Fitness>
16.4542

> <Gold.Chemscore.DG>
-17.0628

> <Gold.Chemscore.ZeroCoef>
-5.4800

> <Gold.Chemscore.Hbond>
2.0723

> <Gold.Chemscore.Metal>
0.0000

> <Gold.Chemscore.Lipo>
74.3003

> <Gold.Chemscore.Internal_Hbond>
0.0000

> <Gold.Chemscore.DEClash>
0.0917

> <Gold.Chemscore.DEInternal>
0.5168

> <Gold.Chemscore.Rot>
1.5750

> <Gold.Chemscore.Internal.Correction>
   9.000000E+99

> <Gold.Chemscore.Hbonds>
donor molecule, donor type, donor heavy atom, donor atom, acceptor molecule, acceptor atom, score
      L1  H     8    33       P1  7948  0.99
      L1  H    11    34       P1  7948  0.52
      P1  H  7989  7998       L1    20  0.18

> <Gold.Chemscore.Hbond.Weighted>
-6.9215

> <Gold.Chemscore.Metal.Weighted>
-0.0000

> <Gold.Chemscore.Lipo.Weighted>
-8.6931

> <Gold.Chemscore.Internal_Hbond.Weighted>
0.0000

> <Gold.Chemscore.DEClash.Weighted>
0.0917

> <Gold.Chemscore.DEInternal.Weighted>
0.5168

> <Gold.Chemscore.Rot.Weighted>
4.0319

> <Gold.Chemscore.Internal.Correction.Weighted>
   9.000000E+99

> <Gold.Protein.RotatedTorsions>
[ 6907 6896 6895 6894 ] final  -30.73 input  -60.11 | X-H torsion
[ 7974 7965 7964 7962 ] final -158.93 input  175.53 | X-H torsion
[ 8008 7997 7996 7995 ] final -126.72 input   59.86 | X-H torsion
[ 10167 10162 10161 10158 ] final   65.89 input  -65.29 | X-H torsion
[ 10718 10713 10712 10709 ] final   18.03 input   66.30 | X-H torsion
[ 10763 10752 10751 10750 ] final   78.22 input  -60.55 | X-H torsion
[ 11005 11000 10999 10996 ] final   -7.17 input  -57.11 | X-H torsion

> <Gold.Protein.ActiveResidues>
 VAL166  LYS551  ARG553  GLY616  TRP617  ASP618  TYR619  PRO620  LYS621  CYS622 
 ASP623  PHE694  ASN695  SER759  ASP760  ASP761  ALA762  ILE779  LEU786  VAL792 
 PHE793  MET794  SER795  GLU796  ALA797  LYS798  CYS799  TRP800  GLU811  SER814 

> <Gold.Protein.RotatedAtoms>
  151.1017  134.9976  159.8451 H   0  0  0  0  0  0  0  0  0  0  0  0  # atno 6907 bound_to 6896
  152.5437  134.1942  159.8696 H   0  0  0  0  0  0  0  0  0  0  0  0  # atno 6908 bound_to 6896
  151.1986  133.4580  159.2629 H   0  0  0  0  0  0  0  0  0  0  0  0  # atno 6909 bound_to 6896
  144.7485  140.3757  143.6066 H   0  0  0  0  0  0  0  0  0  0  0  0  # atno 7974 bound_to 7965
  155.2344  140.0426  157.2966 H   0  0  0  0  0  0  0  0  0  0  0  0  # atno 8008 bound_to 7997
  154.5868  140.2416  155.7946 H   0  0  0  0  0  0  0  0  0  0  0  0  # atno 8009 bound_to 7997
  156.2232  140.2963  156.0010 H   0  0  0  0  0  0  0  0  0  0  0  0  # atno 8010 bound_to 7997
  140.1064  144.4858  150.7005 H   0  0  0  0  0  0  0  0  0  0  0  0  # atno 10167 bound_to 10162
  157.0906  130.6426  149.5848 H   0  0  0  0  0  0  0  0  0  0  0  0  # atno 10718 bound_to 10713
  153.0857  135.4885  154.8592 H   0  0  0  0  0  0  0  0  0  0  0  0  # atno 10763 bound_to 10752
  154.7208  135.3039  154.9053 H   0  0  0  0  0  0  0  0  0  0  0  0  # atno 10764 bound_to 10752
  153.9718  135.6800  153.4800 H   0  0  0  0  0  0  0  0  0  0  0  0  # atno 10765 bound_to 10752
  140.7098  133.8918  155.8743 H   0  0  0  0  0  0  0  0  0  0  0  0  # atno 11005 bound_to 11000
  145.7030  139.1666  143.2582 LP  0  0  0  0  0  0  0  0  0  0  0  0  # atno 17320 bound_to 7965
  146.1402  140.7068  142.9371 LP  0  0  0  0  0  0  0  0  0  0  0  0  # atno 17321 bound_to 7965
  140.6950  143.2398  151.5026 LP  0  0  0  0  0  0  0  0  0  0  0  0  # atno 17342 bound_to 10162
  139.5643  144.2080  152.1741 LP  0  0  0  0  0  0  0  0  0  0  0  0  # atno 17343 bound_to 10162
  155.9899  130.4948  150.7234 LP  0  0  0  0  0  0  0  0  0  0  0  0  # atno 17370 bound_to 10713
  157.4724  131.0894  151.0627 LP  0  0  0  0  0  0  0  0  0  0  0  0  # atno 17371 bound_to 10713
  141.0094  134.1042  157.4237 LP  0  0  0  0  0  0  0  0  0  0  0  0  # atno 17394 bound_to 11000
  139.8874  135.0090  156.6561 LP  0  0  0  0  0  0  0  0  0  0  0  0  # atno 17395 bound_to 11000

$$$$
