AV-unprocessed.smi:100|AV-procd|sdf|905|dock2
  -GOLD-   2262017403D 1   1.00000     0.00000
 Structure written by MMmdl.
 31 33  0  0  0  0  0  0  0  0  1 V2000
  151.2562  137.8035  153.4458 N   0  0  0  0  0  0  0  0  0  0  0  0
  151.3781  137.7503  154.7792 C   0  0  0  0  0  0  0  0  0  0  0  0
  151.5446  136.5401  155.3634 N   0  0  0  0  0  0  0  0  0  0  0  0
  151.6700  136.4613  156.6928 C   0  0  0  0  0  0  0  0  0  0  0  0
  151.6564  137.4477  157.5945 N   0  0  0  0  0  0  0  0  0  0  0  0
  151.4869  138.6648  157.0000 C   0  0  0  0  0  0  0  0  0  0  0  0
  151.3424  138.9013  155.6059 C   0  0  0  0  0  0  0  0  0  0  0  0
  151.1946  140.2617  155.3710 N   0  0  0  0  0  0  0  0  0  0  0  0
  151.2510  140.7949  156.5628 C   0  0  0  0  0  0  0  0  0  0  0  0
  151.4283  139.9028  157.6006 N   0  0  0  0  0  0  0  0  0  0  0  0
  151.5323  140.1638  159.0733 C   0  0  2  0  0  0  0  0  0  0  0  0
  151.2958  141.5240  159.2973 O   0  0  0  0  0  0  0  0  0  0  0  0
  152.5293  142.1894  159.5495 C   0  0  1  0  0  0  0  0  0  0  0  0
  152.2837  143.5096  160.2934 C   0  0  0  0  0  0  0  0  0  0  0  0
  151.6299  143.2547  161.5181 O   0  0  0  0  0  0  0  0  0  0  0  0
  153.2517  141.1362  160.3843 C   0  0  2  0  0  0  0  0  0  0  0  0
  154.5582  141.3629  160.5339 F   0  0  0  0  0  0  0  0  0  0  0  0
  152.9413  139.8502  159.6340 C   0  0  2  0  0  0  0  0  0  0  0  0
  153.9151  139.5957  158.6334 O   0  0  0  0  0  0  0  0  0  0  0  0
  151.1323  138.6958  152.9889 H   0  0  0  0  0  0  0  0  0  0  0  0
  151.2905  136.9540  152.9013 H   0  0  0  0  0  0  0  0  0  0  0  0
  151.8004  135.4657  157.0908 H   0  0  0  0  0  0  0  0  0  0  0  0
  151.1628  141.8611  156.7124 H   0  0  0  0  0  0  0  0  0  0  0  0
  150.7353  139.5677  159.5199 H   0  0  0  0  0  0  0  0  0  0  0  0
  153.0715  142.3558  158.6166 H   0  0  0  0  0  0  0  0  0  0  0  0
  153.2157  144.0494  160.4643 H   0  0  0  0  0  0  0  0  0  0  0  0
  151.6349  144.1578  159.7036 H   0  0  0  0  0  0  0  0  0  0  0  0
  152.2637  143.3176  162.2164 H   0  0  0  0  0  0  0  0  0  0  0  0
  152.8189  141.0933  161.3850 H   0  0  0  0  0  0  0  0  0  0  0  0
  152.8909  138.9926  160.3056 H   0  0  0  0  0  0  0  0  0  0  0  0
  154.4744  138.8950  158.9331 H   0  0  0  0  0  0  0  0  0  0  0  0
  1  2  1  0  0  0  0
  1 20  1  0  0  0  0
  1 21  1  0  0  0  0
  2  7  1  0  0  0  0
  2  3  2  0  0  0  0
  3  4  1  0  0  0  0
  4  5  2  0  0  0  0
  4 22  1  0  0  0  0
  5  6  1  0  0  0  0
  6 10  1  0  0  0  0
  6  7  2  0  0  0  0
  7  8  1  0  0  0  0
  8  9  2  0  0  0  0
  9 10  1  0  0  0  0
  9 23  1  0  0  0  0
 10 11  1  0  0  0  0
 11 18  1  0  0  0  0
 11 12  1  0  0  0  0
 11 24  1  0  0  0  0
 12 13  1  0  0  0  0
 13 14  1  0  0  0  0
 13 16  1  0  0  0  0
 13 25  1  0  0  0  0
 14 15  1  0  0  0  0
 14 26  1  0  0  0  0
 14 27  1  0  0  0  0
 15 28  1  0  0  0  0
 16 17  1  0  0  0  0
 16 18  1  0  0  0  0
 16 29  1  0  0  0  0
 18 19  1  0  0  0  0
 18 30  1  0  0  0  0
 19 31  1  0  0  0  0
M  END
> <s_m_source_file>
AV-unprocessed.smi

> <i_m_source_file_index>
100

> <i_lp_mmshare_version>
43012

> <i_f3d_flags>
0

> <s_epik_input>
bjFbY0hdbmMoW05IMl0pYyhjMTIpbltjSF1uMltDQEBIXTNPW0NAQEhdKFtDSDJdW09IXSlbQ0BIXShGKVtDQEhdM1tPSF0=

> <s_epik_cmdline>
J2VwaWtfcHl0aG9uJywgJy1waCcsICc3LjAnLCAnLXRuJywgJzgnLCAnLW1hJywgJzIwMCcsICctbWV0YWxfYmluZGluZycsICctaW1hZScsICc8aW5maWxlLm1hZT4nLCAnLW9tYWUnLCAnPG91dGZpbGUubWFlPic=

> <r_lp_tautomer_probability>
1

> <r_epik_Ionization_Penalty>
0.000750324

> <r_epik_Ionization_Penalty_Charging>
0

> <r_epik_Ionization_Penalty_Neutral>
0.000750324

> <r_epik_State_Penalty>
-0

> <r_epik_Charging_Adjusted_Penalty>
0

> <i_epik_Tot_Q>
0

> <i_epik_Tot_abs_Q>
0

> <r_epik_Metal_State_Penalty>
-0

> <b_epik_Metal_Only>
0

> <s_epik_Chemistry_Notes>
This compound contains an acetal/aminal-like group ( X-CH(R)-Y where X, Y are N, S, or O) that may be acid/base labile, releasing an aldehyde.

> <s_lp_Force_Field>
OPLS_2005

> <r_lp_Energy>
36.1234

> <b_lp_Chiralities_Consistent>
1

> <s_lp_Variant>
AV-unprocessed.smi:100-9

> <Gold.Version>
5.8.1

> <Gold.Id.Protein>
6NUR|6NUR_protein|mol2

> <Gold.PLP.Fitness>
45.7394

> <Gold.PLP.PLP>
-33.3100

> <Gold.PLP.part.hbond>
-6.1864

> <Gold.PLP.part.metal>
0.0000

> <Gold.PLP.part.buried>
-2.9765

> <Gold.PLP.part.nonpolar>
-24.5153

> <Gold.PLP.part.repulsive>
0.2399

> <Gold.PLP.ligand.clash>
0.0000

> <Gold.PLP.ligand.torsion>
0.0974

> <Gold.PLP.Chemscore.Hbond>
4.1973

> <Gold.PLP.Chemscore.CHOScore>
0.0000

> <Gold.PLP.Chemscore.Metal>
0.0000

> <Gold.Chemscore.Hbonds>
donor molecule, donor type, donor heavy atom, donor atom, acceptor molecule, acceptor atom, score
      L1  H     1    21       P1  7949  1.00
      P1  H  6933  6945       L1    15  0.19
      P1  H  7989  7998       L1     8  1.00
      P1  H  7997  8009       L1    19  1.00
      P1  H 10752 10763       L1     3  1.00

> <Gold.PLP.Chemscore.Internal.Correction>
0.0321

> <Gold.Rescore>
     Score         DG    S(hbond)    S(metal)    S(lipo)     H(rot)  DE(clash)    DE(int)     intcor
     12.03     -12.99       3.19        0.00      42.86       3.19       0.18       0.79       ----

> <Gold.Chemscore.Fitness>
12.0278

> <Gold.Chemscore.DG>
-12.9925

> <Gold.Chemscore.ZeroCoef>
-5.4800

> <Gold.Chemscore.Hbond>
3.1929

> <Gold.Chemscore.Metal>
0.0000

> <Gold.Chemscore.Lipo>
42.8625

> <Gold.Chemscore.Internal_Hbond>
0.0000

> <Gold.Chemscore.DEClash>
0.1757

> <Gold.Chemscore.DEInternal>
0.7891

> <Gold.Chemscore.Rot>
3.1901

> <Gold.Chemscore.Internal.Correction>
   9.000000E+99

> <Gold.Chemscore.Hbonds>
donor molecule, donor type, donor heavy atom, donor atom, acceptor molecule, acceptor atom, score
      L1  H     1    21       P1  7949  0.69
      P1  H  6933  6945       L1    15  0.11
      P1  H  7989  7998       L1     8  0.85
      P1  H  7997  8009       L1    19  0.39
      P1  H 10752 10763       L1     3  0.44

> <Gold.Chemscore.Hbond.Weighted>
-10.6643

> <Gold.Chemscore.Metal.Weighted>
-0.0000

> <Gold.Chemscore.Lipo.Weighted>
-5.0149

> <Gold.Chemscore.Internal_Hbond.Weighted>
0.0000

> <Gold.Chemscore.DEClash.Weighted>
0.1757

> <Gold.Chemscore.DEInternal.Weighted>
0.7891

> <Gold.Chemscore.Rot.Weighted>
8.1667

> <Gold.Chemscore.Internal.Correction.Weighted>
   9.000000E+99

> <Gold.Protein.RotatedTorsions>
[ 6907 6896 6895 6894 ] final   85.47 input  -60.11 | X-H torsion
[ 7974 7965 7964 7962 ] final  -56.10 input  175.53 | X-H torsion
[ 8008 7997 7996 7995 ] final  151.88 input   59.86 | X-H torsion
[ 10167 10162 10161 10158 ] final   15.99 input  -65.29 | X-H torsion
[ 10718 10713 10712 10709 ] final  -90.19 input   66.30 | X-H torsion
[ 10763 10752 10751 10750 ] final   65.90 input  -60.55 | X-H torsion
[ 11005 11000 10999 10996 ] final  -17.15 input  -57.11 | X-H torsion

> <Gold.Protein.ActiveResidues>
 VAL166  LYS551  ARG553  GLY616  TRP617  ASP618  TYR619  PRO620  LYS621  CYS622 
 ASP623  PHE694  ASN695  SER759  ASP760  ASP761  ALA762  ILE779  LEU786  VAL792 
 PHE793  MET794  SER795  GLU796  ALA797  LYS798  CYS799  TRP800  GLU811  SER814 

> <Gold.Protein.RotatedAtoms>
  152.5375  134.2581  159.8924 H   0  0  0  0  0  0  0  0  0  0  0  0  # atno 6907 bound_to 6896
  151.2542  133.4328  159.2620 H   0  0  0  0  0  0  0  0  0  0  0  0  # atno 6908 bound_to 6896
  151.0512  134.9688  159.8268 H   0  0  0  0  0  0  0  0  0  0  0  0  # atno 6909 bound_to 6896
  145.8666  140.8247  142.9909 H   0  0  0  0  0  0  0  0  0  0  0  0  # atno 7974 bound_to 7965
  156.2654  140.2036  156.6245 H   0  0  0  0  0  0  0  0  0  0  0  0  # atno 8008 bound_to 7997
  154.6731  140.0548  157.0211 H   0  0  0  0  0  0  0  0  0  0  0  0  # atno 8009 bound_to 7997
  155.1108  140.3215  155.4525 H   0  0  0  0  0  0  0  0  0  0  0  0  # atno 8010 bound_to 7997
  140.5829  143.8946  150.6805 H   0  0  0  0  0  0  0  0  0  0  0  0  # atno 10167 bound_to 10162
  155.9987  130.4900  150.5285 H   0  0  0  0  0  0  0  0  0  0  0  0  # atno 10718 bound_to 10713
  153.0116  135.5340  154.6739 H   0  0  0  0  0  0  0  0  0  0  0  0  # atno 10763 bound_to 10752
  154.5917  135.2859  155.0631 H   0  0  0  0  0  0  0  0  0  0  0  0  # atno 10764 bound_to 10752
  154.1721  135.6530  153.5065 H   0  0  0  0  0  0  0  0  0  0  0  0  # atno 10765 bound_to 10752
  140.8140  133.8119  155.9592 H   0  0  0  0  0  0  0  0  0  0  0  0  # atno 11005 bound_to 11000
  144.6726  140.1176  143.7452 LP  0  0  0  0  0  0  0  0  0  0  0  0  # atno 17320 bound_to 7965
  145.9186  139.2531  143.1395 LP  0  0  0  0  0  0  0  0  0  0  0  0  # atno 17321 bound_to 7965
  140.2450  143.3635  152.1454 LP  0  0  0  0  0  0  0  0  0  0  0  0  # atno 17342 bound_to 10162
  139.5180  144.7000  151.5521 LP  0  0  0  0  0  0  0  0  0  0  0  0  # atno 17343 bound_to 10162
  157.3237  131.0687  151.1912 LP  0  0  0  0  0  0  0  0  0  0  0  0  # atno 17370 bound_to 10713
  157.2817  130.6753  149.6069 LP  0  0  0  0  0  0  0  0  0  0  0  0  # atno 17371 bound_to 10713
  140.9168  134.2191  157.4951 LP  0  0  0  0  0  0  0  0  0  0  0  0  # atno 17394 bound_to 11000
  139.8712  134.9775  156.4960 LP  0  0  0  0  0  0  0  0  0  0  0  0  # atno 17395 bound_to 11000

$$$$
