AV-unprocessed.smi:1801|AV-procd|sdf|7267|dock7
  -GOLD-   22720 8523D 1   1.00000     0.00000
 Structure written by MMmdl.
 38 39  0  0  0  0  0  0  0  0  2 V2000
  149.4457  131.0069  152.6697 C   0  0  0  0  0  0  0  0  0  0  0  0
  149.3972  132.5221  152.4096 C   0  0  2  0  0  0  0  0  0  0  0  0
  150.2534  133.2646  153.4623 C   0  0  0  0  0  0  0  0  0  0  0  0
  150.0835  134.7156  153.4388 N   0  0  0  0  0  0  0  0  0  0  0  0
  150.8355  135.5987  154.1119 C   0  0  0  0  0  0  0  0  0  0  0  0
  151.7794  135.2754  154.8331 O   0  0  0  0  0  0  0  0  0  0  0  0
  150.4215  136.8586  153.8902 N   0  0  0  0  0  0  0  0  0  0  0  0
  150.9870  138.0680  154.3743 C   0  0  0  0  0  0  0  0  0  0  0  0
  150.3902  139.2652  154.2625 N   0  0  0  0  0  0  0  0  0  0  0  0
  151.1532  140.2802  154.8253 N   0  0  0  0  0  0  0  0  0  0  0  0
  152.2926  139.8093  155.3399 C   0  0  0  0  0  0  0  0  0  0  0  0
  152.5434  138.0784  155.1913 S   0  0  0  0  0  0  0  0  0  0  0  0
  147.9397  133.0386  152.3633 C   0  0  0  0  0  0  0  0  0  0  0  0
  147.1926  132.5247  151.1906 N   0  3  0  0  0  0  0  0  0  0  0  0
  146.4075  131.3042  151.4614 C   0  0  0  0  0  0  0  0  0  0  0  0
  145.3371  131.2780  150.3758 C   0  0  0  0  0  0  0  0  0  0  0  0
  144.9861  132.7531  150.2091 C   0  0  0  0  0  0  0  0  0  0  0  0
  146.2846  133.5016  150.5405 C   0  0  0  0  0  0  0  0  0  0  0  0
  148.9930  130.7537  153.6289 H   0  0  0  0  0  0  0  0  0  0  0  0
  150.4743  130.6450  152.6833 H   0  0  0  0  0  0  0  0  0  0  0  0
  148.9183  130.4501  151.8950 H   0  0  0  0  0  0  0  0  0  0  0  0
  149.8577  132.6927  151.4365 H   0  0  0  0  0  0  0  0  0  0  0  0
  149.9937  132.9164  154.4626 H   0  0  0  0  0  0  0  0  0  0  0  0
  151.3102  133.0314  153.3220 H   0  0  0  0  0  0  0  0  0  0  0  0
  149.3237  135.0724  152.8779 H   0  0  0  0  0  0  0  0  0  0  0  0
  149.6108  136.9676  153.2988 H   0  0  0  0  0  0  0  0  0  0  0  0
  152.9894  140.4856  155.8124 H   0  0  0  0  0  0  0  0  0  0  0  0
  147.4234  132.7385  153.2764 H   0  0  0  0  0  0  0  0  0  0  0  0
  147.9062  134.1282  152.3363 H   0  0  0  0  0  0  0  0  0  0  0  0
  147.0343  130.4122  151.4559 H   0  0  0  0  0  0  0  0  0  0  0  0
  145.9330  131.3798  152.4415 H   0  0  0  0  0  0  0  0  0  0  0  0
  145.7580  130.8881  149.4477 H   0  0  0  0  0  0  0  0  0  0  0  0
  144.4764  130.6634  150.6415 H   0  0  0  0  0  0  0  0  0  0  0  0
  144.6104  132.9838  149.2116 H   0  0  0  0  0  0  0  0  0  0  0  0
  144.2114  133.0281  150.9266 H   0  0  0  0  0  0  0  0  0  0  0  0
  146.0747  134.3583  151.1831 H   0  0  0  0  0  0  0  0  0  0  0  0
  146.7643  133.8779  149.6365 H   0  0  0  0  0  0  0  0  0  0  0  0
  147.8744  132.2649  150.4919 H   0  0  0  0  0  0  0  0  0  0  0  0
  1  2  1  0  0  0  0
  1 19  1  0  0  0  0
  1 20  1  0  0  0  0
  1 21  1  0  0  0  0
  2  3  1  0  0  0  0
  2 13  1  0  0  0  0
  2 22  1  0  0  0  0
  3  4  1  0  0  0  0
  3 23  1  0  0  0  0
  3 24  1  0  0  0  0
  4  5  1  0  0  0  0
  4 25  1  0  0  0  0
  5  6  2  0  0  0  0
  5  7  1  0  0  0  0
  7  8  1  0  0  0  0
  7 26  1  0  0  0  0
  8 12  1  0  0  0  0
  8  9  2  0  0  0  0
  9 10  1  0  0  0  0
 10 11  2  0  0  0  0
 11 12  1  0  0  0  0
 11 27  1  0  0  0  0
 13 14  1  0  0  0  0
 13 28  1  0  0  0  0
 13 29  1  0  0  0  0
 14 18  1  0  0  0  0
 14 15  1  0  0  0  0
 14 38  1  0  0  0  0
 15 16  1  0  0  0  0
 15 30  1  0  0  0  0
 15 31  1  0  0  0  0
 16 17  1  0  0  0  0
 16 32  1  0  0  0  0
 16 33  1  0  0  0  0
 17 18  1  0  0  0  0
 17 34  1  0  0  0  0
 17 35  1  0  0  0  0
 18 36  1  0  0  0  0
 18 37  1  0  0  0  0
M  CHG  1  14   1
M  END
> <s_m_source_file>
AV-unprocessed.smi

> <i_m_source_file_index>
1801

> <i_lp_mmshare_version>
43012

> <i_f3d_flags>
0

> <s_epik_input>
W0NIMl0xW0NIMl1bQ0gyXVtDSDJdTjFbQ0gyXVtDQEhdKFtDSDNdKVtDSDJdW05IXUMoPU8pW05IXWMybm5bY0hdczI=

> <s_epik_cmdline>
J2VwaWtfcHl0aG9uJywgJy1waCcsICc3LjAnLCAnLXRuJywgJzgnLCAnLW1hJywgJzIwMCcsICctbWV0YWxfYmluZGluZycsICctaW1hZScsICc8aW5maWxlLm1hZT4nLCAnLW9tYWUnLCAnPG91dGZpbGUubWFlPic=

> <r_lp_tautomer_probability>
1

> <r_epik_Ionization_Penalty>
0.00281598

> <r_epik_Ionization_Penalty_Charging>
0.000371708

> <r_epik_Ionization_Penalty_Neutral>
0.00244427

> <r_epik_State_Penalty>
-0

> <r_epik_Charging_Adjusted_Penalty>
0.000371708

> <i_epik_Tot_Q>
1

> <i_epik_Tot_abs_Q>
1

> <r_epik_Metal_State_Penalty>
0.350595

> <b_epik_Metal_Only>
0

> <s_lp_Force_Field>
OPLS_2005

> <r_lp_Energy>
28.9171

> <b_lp_Chiralities_Consistent>
1

> <s_lp_Variant>
AV-unprocessed.smi:1801-1

> <Gold.Version>
5.8.1

> <Gold.Id.Protein>
6NUR|6NUR_protein|mol2

> <Gold.PLP.Fitness>
48.4818

> <Gold.PLP.PLP>
-35.8717

> <Gold.PLP.part.hbond>
-6.5184

> <Gold.PLP.part.metal>
0.0000

> <Gold.PLP.part.buried>
-4.0358

> <Gold.PLP.part.nonpolar>
-26.1464

> <Gold.PLP.part.repulsive>
0.4150

> <Gold.PLP.ligand.clash>
0.0000

> <Gold.PLP.ligand.torsion>
0.6917

> <Gold.PLP.Chemscore.Hbond>
4.6516

> <Gold.PLP.Chemscore.CHOScore>
0.0000

> <Gold.PLP.Chemscore.Metal>
0.0000

> <Gold.Chemscore.Hbonds>
donor molecule, donor type, donor heavy atom, donor atom, acceptor molecule, acceptor atom, score
      L1  H     4    25       P1  7948  0.24
      L1  H     7    26       P1  7948  0.72
      L1  H    14    38       P1 10747  0.70
      P1  H  7989  7998       L1    10  0.79
      P1  H 10752 10763       L1     6  0.23

> <Gold.PLP.Chemscore.Internal.Correction>
0.0387

> <Gold.Rescore>
     Score         DG    S(hbond)    S(metal)    S(lipo)     H(rot)  DE(clash)    DE(int)     intcor
     17.06     -19.11       3.08        0.00      71.53       1.97       0.10       1.95       ----

> <Gold.Chemscore.Fitness>
17.0625

> <Gold.Chemscore.DG>
-19.1058

> <Gold.Chemscore.ZeroCoef>
-5.4800

> <Gold.Chemscore.Hbond>
3.0812

> <Gold.Chemscore.Metal>
0.0000

> <Gold.Chemscore.Lipo>
71.5324

> <Gold.Chemscore.Internal_Hbond>
0.0000

> <Gold.Chemscore.DEClash>
0.0978

> <Gold.Chemscore.DEInternal>
1.9455

> <Gold.Chemscore.Rot>
1.9667

> <Gold.Chemscore.Internal.Correction>
   9.000000E+99

> <Gold.Chemscore.Hbonds>
donor molecule, donor type, donor heavy atom, donor atom, acceptor molecule, acceptor atom, score
      L1  H     7    26       P1  7948  0.50
      L1  H    14    38       P1 10747  0.70
      P1  H  7989  7998       L1    10  0.03
      P1  H 10752 10763       L1     6  0.24

> <Gold.Chemscore.Hbond.Weighted>
-10.2913

> <Gold.Chemscore.Metal.Weighted>
-0.0000

> <Gold.Chemscore.Lipo.Weighted>
-8.3693

> <Gold.Chemscore.Internal_Hbond.Weighted>
0.0000

> <Gold.Chemscore.DEClash.Weighted>
0.0978

> <Gold.Chemscore.DEInternal.Weighted>
1.9455

> <Gold.Chemscore.Rot.Weighted>
5.0348

> <Gold.Chemscore.Internal.Correction.Weighted>
   9.000000E+99

> <Gold.Protein.RotatedTorsions>
[ 6907 6896 6895 6894 ] final -124.89 input  -60.11 | X-H torsion
[ 7974 7965 7964 7962 ] final  -45.39 input  175.53 | X-H torsion
[ 8008 7997 7996 7995 ] final  -32.22 input   59.86 | X-H torsion
[ 10167 10162 10161 10158 ] final   48.25 input  -65.29 | X-H torsion
[ 10718 10713 10712 10709 ] final -120.69 input   66.30 | X-H torsion
[ 10763 10752 10751 10750 ] final   78.80 input  -60.55 | X-H torsion
[ 11005 11000 10999 10996 ] final  113.46 input  -57.11 | X-H torsion

> <Gold.Protein.ActiveResidues>
 VAL166  LYS551  ARG553  GLY616  TRP617  ASP618  TYR619  PRO620  LYS621  CYS622 
 ASP623  PHE694  ASN695  SER759  ASP760  ASP761  ALA762  ILE779  LEU786  VAL792 
 PHE793  MET794  SER795  GLU796  ALA797  LYS798  CYS799  TRP800  GLU811  SER814 

> <Gold.Protein.RotatedAtoms>
  150.8813  133.7369  159.2931 H   0  0  0  0  0  0  0  0  0  0  0  0  # atno 6907 bound_to 6896
  151.4949  135.1058  159.9823 H   0  0  0  0  0  0  0  0  0  0  0  0  # atno 6908 bound_to 6896
  152.4761  133.8096  159.7052 H   0  0  0  0  0  0  0  0  0  0  0  0  # atno 6909 bound_to 6896
  145.9825  140.7268  142.9356 H   0  0  0  0  0  0  0  0  0  0  0  0  # atno 7974 bound_to 7965
  154.4187  140.1743  156.1692 H   0  0  0  0  0  0  0  0  0  0  0  0  # atno 8008 bound_to 7997
  155.9774  140.3380  155.6607 H   0  0  0  0  0  0  0  0  0  0  0  0  # atno 8009 bound_to 7997
  155.6545  140.0694  157.2566 H   0  0  0  0  0  0  0  0  0  0  0  0  # atno 8010 bound_to 7997
  140.2952  144.2999  150.6231 H   0  0  0  0  0  0  0  0  0  0  0  0  # atno 10167 bound_to 10162
  156.1278  130.6372  150.9571 H   0  0  0  0  0  0  0  0  0  0  0  0  # atno 10718 bound_to 10713
  153.0902  135.4863  154.8675 H   0  0  0  0  0  0  0  0  0  0  0  0  # atno 10763 bound_to 10752
  154.7260  135.3049  154.8972 H   0  0  0  0  0  0  0  0  0  0  0  0  # atno 10764 bound_to 10752
  153.9622  135.6811  153.4798 H   0  0  0  0  0  0  0  0  0  0  0  0  # atno 10765 bound_to 10752
  139.8954  134.9550  156.6743 H   0  0  0  0  0  0  0  0  0  0  0  0  # atno 11005 bound_to 11000
  144.6865  140.2932  143.7275 LP  0  0  0  0  0  0  0  0  0  0  0  0  # atno 17320 bound_to 7965
  145.7749  139.1870  143.2191 LP  0  0  0  0  0  0  0  0  0  0  0  0  # atno 17321 bound_to 7965
  140.5698  143.2182  151.7619 LP  0  0  0  0  0  0  0  0  0  0  0  0  # atno 17342 bound_to 10162
  139.4928  144.4233  151.9954 LP  0  0  0  0  0  0  0  0  0  0  0  0  # atno 17343 bound_to 10162
  157.6458  131.0904  150.8156 LP  0  0  0  0  0  0  0  0  0  0  0  0  # atno 17370 bound_to 10713
  156.8244  130.4995  149.5339 LP  0  0  0  0  0  0  0  0  0  0  0  0  # atno 17371 bound_to 10713
  140.7349  133.9027  155.8237 LP  0  0  0  0  0  0  0  0  0  0  0  0  # atno 17394 bound_to 11000
  141.0124  134.1002  157.4208 LP  0  0  0  0  0  0  0  0  0  0  0  0  # atno 17395 bound_to 11000

$$$$
