AV-unprocessed.smi:2083|AV-procd|sdf|8490|dock3
  -GOLD-   2272011193D 1   1.00000     0.00000
 Structure written by MMmdl.
 45 46  0  0  0  0  0  0  0  0  2 V2000
  152.2162  144.0283  161.3247 C   0  0  0  0  0  0  0  0  0  0  0  0
  151.8836  143.4320  160.0000 C   0  0  0  0  0  0  0  0  0  0  0  0
  150.9520  143.7400  159.0490 C   0  0  0  0  0  0  0  0  0  0  0  0
  151.1847  142.7627  158.0454 C   0  0  0  0  0  0  0  0  0  0  0  0
  150.4021  142.7344  156.8631 N   0  0  0  0  0  0  0  0  0  0  0  0
  150.0482  141.6579  156.1412 C   0  0  0  0  0  0  0  0  0  0  0  0
  150.3717  140.4961  156.3901 O   0  0  0  0  0  0  0  0  0  0  0  0
  149.2872  142.0028  155.0924 N   0  0  0  0  0  0  0  0  0  0  0  0
  148.7277  141.0660  154.1220 C   0  0  0  0  0  0  0  0  0  0  0  0
  147.2171  141.3053  153.8396 C   0  0  2  0  0  0  0  0  0  0  0  0
  146.5068  141.8037  155.1186 C   0  0  0  0  0  0  0  0  0  0  0  0
  146.4953  140.1101  153.2892 N   0  3  1  0  0  0  0  0  0  0  0  0
  147.1591  139.5710  152.0677 C   0  0  0  0  0  0  0  0  0  0  0  0
  146.3079  138.4855  151.3935 C   0  0  0  0  0  0  0  0  0  0  0  0
  146.0246  137.3397  152.3688 C   0  0  0  0  0  0  0  0  0  0  0  0
  145.3563  137.8896  153.6368 C   0  0  1  0  0  0  0  0  0  0  0  0
  145.0731  136.7709  154.6498 C   0  0  0  0  0  0  0  0  0  0  0  0
  146.2114  139.0123  154.2610 C   0  0  0  0  0  0  0  0  0  0  0  0
  152.1709  141.9348  158.3535 N   0  0  0  0  0  0  0  0  0  0  0  0
  152.6236  142.3592  159.6085 O   0  0  0  0  0  0  0  0  0  0  0  0
  151.6661  144.9563  161.4830 H   0  0  0  0  0  0  0  0  0  0  0  0
  153.2811  144.2509  161.3935 H   0  0  0  0  0  0  0  0  0  0  0  0
  151.9603  143.3417  162.1316 H   0  0  0  0  0  0  0  0  0  0  0  0
  150.2223  144.5356  159.0721 H   0  0  0  0  0  0  0  0  0  0  0  0
  150.0679  143.6297  156.5387 H   0  0  0  0  0  0  0  0  0  0  0  0
  149.0687  142.9800  154.9621 H   0  0  0  0  0  0  0  0  0  0  0  0
  149.3220  141.1517  153.2110 H   0  0  0  0  0  0  0  0  0  0  0  0
  148.8823  140.0577  154.5080 H   0  0  0  0  0  0  0  0  0  0  0  0
  147.1557  142.0932  153.0871 H   0  0  0  0  0  0  0  0  0  0  0  0
  146.9641  142.7138  155.5067 H   0  0  0  0  0  0  0  0  0  0  0  0
  146.5492  141.0530  155.9082 H   0  0  0  0  0  0  0  0  0  0  0  0
  145.4582  142.0429  154.9508 H   0  0  0  0  0  0  0  0  0  0  0  0
  147.3439  140.3606  151.3416 H   0  0  0  0  0  0  0  0  0  0  0  0
  148.1352  139.1630  152.3357 H   0  0  0  0  0  0  0  0  0  0  0  0
  145.3688  138.9164  151.0436 H   0  0  0  0  0  0  0  0  0  0  0  0
  146.8214  138.1034  150.5106 H   0  0  0  0  0  0  0  0  0  0  0  0
  145.3846  136.5957  151.8931 H   0  0  0  0  0  0  0  0  0  0  0  0
  146.9570  136.8343  152.6252 H   0  0  0  0  0  0  0  0  0  0  0  0
  144.3958  138.3207  153.3494 H   0  0  0  0  0  0  0  0  0  0  0  0
  145.9961  136.2983  154.9873 H   0  0  0  0  0  0  0  0  0  0  0  0
  144.4427  135.9957  154.2132 H   0  0  0  0  0  0  0  0  0  0  0  0
  144.5563  137.1570  155.5290 H   0  0  0  0  0  0  0  0  0  0  0  0
  147.1520  138.6107  154.6420 H   0  0  0  0  0  0  0  0  0  0  0  0
  145.6503  139.3941  155.1130 H   0  0  0  0  0  0  0  0  0  0  0  0
  145.5891  140.4493  152.9999 H   0  0  0  0  0  0  0  0  0  0  0  0
  1  2  1  0  0  0  0
  1 21  1  0  0  0  0
  1 22  1  0  0  0  0
  1 23  1  0  0  0  0
  2 20  1  0  0  0  0
  2  3  2  0  0  0  0
  3  4  1  0  0  0  0
  3 24  1  0  0  0  0
  4  5  1  0  0  0  0
  4 19  2  0  0  0  0
  5  6  1  0  0  0  0
  5 25  1  0  0  0  0
  6  7  2  0  0  0  0
  6  8  1  0  0  0  0
  8  9  1  0  0  0  0
  8 26  1  0  0  0  0
  9 10  1  0  0  0  0
  9 27  1  0  0  0  0
  9 28  1  0  0  0  0
 10 11  1  0  0  0  0
 10 12  1  0  0  0  0
 10 29  1  0  0  0  0
 11 30  1  0  0  0  0
 11 31  1  0  0  0  0
 11 32  1  0  0  0  0
 12 18  1  0  0  0  0
 12 13  1  0  0  0  0
 12 45  1  0  0  0  0
 13 14  1  0  0  0  0
 13 33  1  0  0  0  0
 13 34  1  0  0  0  0
 14 15  1  0  0  0  0
 14 35  1  0  0  0  0
 14 36  1  0  0  0  0
 15 16  1  0  0  0  0
 15 37  1  0  0  0  0
 15 38  1  0  0  0  0
 16 17  1  0  0  0  0
 16 18  1  0  0  0  0
 16 39  1  0  0  0  0
 17 40  1  0  0  0  0
 17 41  1  0  0  0  0
 17 42  1  0  0  0  0
 18 43  1  0  0  0  0
 18 44  1  0  0  0  0
 19 20  1  0  0  0  0
M  CHG  1  12   1
M  END
> <s_m_source_file>
AV-unprocessed.smi

> <i_m_source_file_index>
2083

> <i_lp_mmshare_version>
43012

> <i_f3d_flags>
0

> <s_epik_input>
W0NIM11jMVtjSF1jKG5vMSlbTkhdQyg9TylbTkhdW0NIMl1bQ0BIXShbQ0gzXSlOMltDSDJdW0NIMl1bQ0gyXVtDQEBIXShbQ0gzXSlbQ0gyXTI=

> <s_epik_cmdline>
J2VwaWtfcHl0aG9uJywgJy1waCcsICc3LjAnLCAnLXRuJywgJzgnLCAnLW1hJywgJzIwMCcsICctbWV0YWxfYmluZGluZycsICctaW1hZScsICc8aW5maWxlLm1hZT4nLCAnLW9tYWUnLCAnPG91dGZpbGUubWFlPic=

> <r_epik_Ionization_Penalty>
0.00216453

> <r_epik_Ionization_Penalty_Charging>
0.00212879

> <r_epik_Ionization_Penalty_Neutral>
3.57418e-05

> <r_epik_State_Penalty>
0.00146033

> <r_epik_Charging_Adjusted_Penalty>
0.00358912

> <i_epik_Tot_Q>
1

> <i_epik_Tot_abs_Q>
1

> <r_epik_Metal_State_Penalty>
0.0215827

> <b_epik_Metal_Only>
0

> <s_lp_Force_Field>
OPLS_2005

> <r_lp_Energy>
19.0311

> <b_lp_Chiralities_Consistent>
1

> <s_lp_Variant>
AV-unprocessed.smi:2083-1

> <Gold.Version>
5.8.1

> <Gold.Id.Protein>
6NUR|6NUR_protein|mol2

> <Gold.PLP.Fitness>
44.7660

> <Gold.PLP.PLP>
-33.9731

> <Gold.PLP.part.hbond>
-3.0000

> <Gold.PLP.part.metal>
0.0000

> <Gold.PLP.part.buried>
1.1411

> <Gold.PLP.part.nonpolar>
-32.9015

> <Gold.PLP.part.repulsive>
0.2718

> <Gold.PLP.ligand.clash>
0.0000

> <Gold.PLP.ligand.torsion>
0.6221

> <Gold.PLP.Chemscore.Hbond>
3.9920

> <Gold.PLP.Chemscore.CHOScore>
0.0000

> <Gold.PLP.Chemscore.Metal>
0.0000

> <Gold.Chemscore.Hbonds>
donor molecule, donor type, donor heavy atom, donor atom, acceptor molecule, acceptor atom, score
      L1  H     5    25       P1  8028  1.00
      L1  H     8    26       P1  8028  1.00
      L1  H    12    45       P1 10175  2.00

> <Gold.PLP.Chemscore.Internal.Correction>
0.0610

> <Gold.Rescore>
     Score         DG    S(hbond)    S(metal)    S(lipo)     H(rot)  DE(clash)    DE(int)     intcor
     17.62     -20.70       2.86        0.00      82.45       1.55       1.62       1.47       ----

> <Gold.Chemscore.Fitness>
17.6160

> <Gold.Chemscore.DG>
-20.7047

> <Gold.Chemscore.ZeroCoef>
-5.4800

> <Gold.Chemscore.Hbond>
2.8561

> <Gold.Chemscore.Metal>
0.0000

> <Gold.Chemscore.Lipo>
82.4500

> <Gold.Chemscore.Internal_Hbond>
0.0000

> <Gold.Chemscore.DEClash>
1.6183

> <Gold.Chemscore.DEInternal>
1.4704

> <Gold.Chemscore.Rot>
1.5474

> <Gold.Chemscore.Internal.Correction>
   9.000000E+99

> <Gold.Chemscore.Hbonds>
donor molecule, donor type, donor heavy atom, donor atom, acceptor molecule, acceptor atom, score
      L1  H     5    25       P1  8028  0.98
      L1  H     8    26       P1  8028  0.95
      L1  H    12    45       P1 10175  0.86

> <Gold.Chemscore.Hbond.Weighted>
-9.5393

> <Gold.Chemscore.Metal.Weighted>
-0.0000

> <Gold.Chemscore.Lipo.Weighted>
-9.6466

> <Gold.Chemscore.Internal_Hbond.Weighted>
0.0000

> <Gold.Chemscore.DEClash.Weighted>
1.6183

> <Gold.Chemscore.DEInternal.Weighted>
1.4704

> <Gold.Chemscore.Rot.Weighted>
3.9612

> <Gold.Chemscore.Internal.Correction.Weighted>
   9.000000E+99

> <Gold.Protein.RotatedTorsions>
[ 6907 6896 6895 6894 ] final -104.25 input  -60.11 | X-H torsion
[ 7974 7965 7964 7962 ] final  157.98 input  175.53 | X-H torsion
[ 8008 7997 7996 7995 ] final  -87.86 input   59.86 | X-H torsion
[ 10167 10162 10161 10158 ] final  165.89 input  -65.29 | X-H torsion
[ 10718 10713 10712 10709 ] final   55.86 input   66.30 | X-H torsion
[ 10763 10752 10751 10750 ] final  -28.52 input  -60.55 | X-H torsion
[ 11005 11000 10999 10996 ] final  109.07 input  -57.11 | X-H torsion

> <Gold.Protein.ActiveResidues>
 VAL166  LYS551  ARG553  GLY616  TRP617  ASP618  TYR619  PRO620  LYS621  CYS622 
 ASP623  PHE694  ASN695  SER759  ASP760  ASP761  ALA762  ILE779  LEU786  VAL792 
 PHE793  MET794  SER795  GLU796  ALA797  LYS798  CYS799  TRP800  GLU811  SER814 

> <Gold.Protein.RotatedAtoms>
  150.7278  134.0306  159.3731 H   0  0  0  0  0  0  0  0  0  0  0  0  # atno 6907 bound_to 6896
  151.8275  135.0630  160.0442 H   0  0  0  0  0  0  0  0  0  0  0  0  # atno 6908 bound_to 6896
  152.2958  133.5570  159.5623 H   0  0  0  0  0  0  0  0  0  0  0  0  # atno 6909 bound_to 6896
  144.7872  139.7414  143.6236 H   0  0  0  0  0  0  0  0  0  0  0  0  # atno 7974 bound_to 7965
  154.6681  140.0560  157.0136 H   0  0  0  0  0  0  0  0  0  0  0  0  # atno 8008 bound_to 7997
  155.1129  140.3240  155.4498 H   0  0  0  0  0  0  0  0  0  0  0  0  # atno 8009 bound_to 7997
  156.2646  140.2011  156.6253 H   0  0  0  0  0  0  0  0  0  0  0  0  # atno 8010 bound_to 7997
  139.4914  144.4085  151.9327 H   0  0  0  0  0  0  0  0  0  0  0  0  # atno 10167 bound_to 10162
  157.5381  130.8678  149.8783 H   0  0  0  0  0  0  0  0  0  0  0  0  # atno 10718 bound_to 10713
  153.7496  135.6927  153.4948 H   0  0  0  0  0  0  0  0  0  0  0  0  # atno 10763 bound_to 10752
  153.2012  135.4436  155.0267 H   0  0  0  0  0  0  0  0  0  0  0  0  # atno 10764 bound_to 10752
  154.8192  135.3413  154.7018 H   0  0  0  0  0  0  0  0  0  0  0  0  # atno 10765 bound_to 10752
  139.8855  134.9448  156.6069 H   0  0  0  0  0  0  0  0  0  0  0  0  # atno 11005 bound_to 11000
  146.2109  139.5465  142.9682 LP  0  0  0  0  0  0  0  0  0  0  0  0  # atno 17320 bound_to 7965
  145.5890  141.0372  143.2080 LP  0  0  0  0  0  0  0  0  0  0  0  0  # atno 17321 bound_to 7965
  140.3525  144.3071  150.5947 LP  0  0  0  0  0  0  0  0  0  0  0  0  # atno 17342 bound_to 10162
  140.5472  143.2212  151.7987 LP  0  0  0  0  0  0  0  0  0  0  0  0  # atno 17343 bound_to 10162
  156.0475  130.3725  150.1282 LP  0  0  0  0  0  0  0  0  0  0  0  0  # atno 17370 bound_to 10713
  156.9463  130.9760  151.3506 LP  0  0  0  0  0  0  0  0  0  0  0  0  # atno 17371 bound_to 10713
  140.7841  133.8636  155.8591 LP  0  0  0  0  0  0  0  0  0  0  0  0  # atno 17394 bound_to 11000
  140.9735  134.1500  157.4556 LP  0  0  0  0  0  0  0  0  0  0  0  0  # atno 17395 bound_to 11000

$$$$
