AV-unprocessed.smi:1742|AV-procd|sdf|7021|dock7
  -GOLD-   22720 8243D 1   1.00000     0.00000
 Structure written by MMmdl.
 34 35  0  0  0  0  0  0  0  0  1 V2000
  145.5723  132.0288  150.0283 C   0  0  0  0  0  0  0  0  0  0  0  0
  144.1369  132.5601  150.1154 C   0  0  0  0  0  0  0  0  0  0  0  0
  144.0659  133.7862  150.8857 N   0  0  0  0  0  0  0  0  0  0  0  0
  144.7797  134.9527  150.6973 C   0  0  0  0  0  0  0  0  0  0  0  0
  144.3509  135.8100  151.6709 C   0  0  0  0  0  0  0  0  0  0  0  0
  144.7539  137.1428  151.9371 N   0  0  0  0  0  0  0  0  0  0  0  0
  145.9667  137.5666  152.3411 C   0  0  0  0  0  0  0  0  0  0  0  0
  146.9309  136.8300  152.5390 O   0  0  0  0  0  0  0  0  0  0  0  0
  146.0616  138.8971  152.5140 N   0  0  0  0  0  0  0  0  0  0  0  0
  147.2233  139.6778  152.9418 C   0  0  1  0  0  0  0  0  0  0  0  0
  146.8049  141.1033  153.3484 C   0  0  0  0  0  0  0  0  0  0  0  0
  147.9557  141.7566  154.1239 C   0  0  0  0  0  0  0  0  0  0  0  0
  148.8371  140.3929  154.9746 S   0  0  0  0  0  0  0  0  0  0  0  0
  150.2392  140.3838  154.5306 O   0  0  0  0  0  0  0  0  0  0  0  0
  148.4951  140.3987  156.4050 O   0  0  0  0  0  0  0  0  0  0  0  0
  147.9289  139.0346  154.1468 C   0  0  0  0  0  0  0  0  0  0  0  0
  143.3752  135.0952  152.4133 C   0  0  0  0  0  0  0  0  0  0  0  0
  143.2068  133.8731  151.9313 N   0  0  0  0  0  0  0  0  0  0  0  0
  145.6072  131.0983  149.4617 H   0  0  0  0  0  0  0  0  0  0  0  0
  145.9792  131.8302  151.0202 H   0  0  0  0  0  0  0  0  0  0  0  0
  146.2287  132.7450  149.5333 H   0  0  0  0  0  0  0  0  0  0  0  0
  143.7387  132.7448  149.1166 H   0  0  0  0  0  0  0  0  0  0  0  0
  143.4886  131.8181  150.5830 H   0  0  0  0  0  0  0  0  0  0  0  0
  145.5065  135.0574  149.9054 H   0  0  0  0  0  0  0  0  0  0  0  0
  144.0462  137.8504  151.8050 H   0  0  0  0  0  0  0  0  0  0  0  0
  145.2291  139.4315  152.3110 H   0  0  0  0  0  0  0  0  0  0  0  0
  147.9372  139.7694  152.1210 H   0  0  0  0  0  0  0  0  0  0  0  0
  146.5144  141.7029  152.4852 H   0  0  0  0  0  0  0  0  0  0  0  0
  145.9339  141.0484  154.0033 H   0  0  0  0  0  0  0  0  0  0  0  0
  148.6583  142.2375  153.4431 H   0  0  0  0  0  0  0  0  0  0  0  0
  147.6131  142.4951  154.8490 H   0  0  0  0  0  0  0  0  0  0  0  0
  147.2062  138.6361  154.8597 H   0  0  0  0  0  0  0  0  0  0  0  0
  148.6185  138.2374  153.8692 H   0  0  0  0  0  0  0  0  0  0  0  0
  142.7955  135.4147  153.2667 H   0  0  0  0  0  0  0  0  0  0  0  0
  1  2  1  0  0  0  0
  1 19  1  0  0  0  0
  1 20  1  0  0  0  0
  1 21  1  0  0  0  0
  2  3  1  0  0  0  0
  2 22  1  0  0  0  0
  2 23  1  0  0  0  0
  3 18  1  0  0  0  0
  3  4  1  0  0  0  0
  4  5  2  0  0  0  0
  4 24  1  0  0  0  0
  5  6  1  0  0  0  0
  5 17  1  0  0  0  0
  6  7  1  0  0  0  0
  6 25  1  0  0  0  0
  7  8  2  0  0  0  0
  7  9  1  0  0  0  0
  9 10  1  0  0  0  0
  9 26  1  0  0  0  0
 10 16  1  0  0  0  0
 10 11  1  0  0  0  0
 10 27  1  0  0  0  0
 11 12  1  0  0  0  0
 11 28  1  0  0  0  0
 11 29  1  0  0  0  0
 12 13  1  0  0  0  0
 12 30  1  0  0  0  0
 12 31  1  0  0  0  0
 13 14  2  0  0  0  0
 13 15  2  0  0  0  0
 13 16  1  0  0  0  0
 16 32  1  0  0  0  0
 16 33  1  0  0  0  0
 17 18  2  0  0  0  0
 17 34  1  0  0  0  0
M  END
> <s_m_source_file>
AV-unprocessed.smi

> <i_m_source_file_index>
1742

> <i_lp_mmshare_version>
43012

> <i_f3d_flags>
0

> <s_epik_input>
W0NIM11bQ0gyXW4xW2NIXWMoW2NIXW4xKVtOSF1DKD1PKVtOSF1bQ0BASF0oW0NIMl0yKVtDSDJdW0NIMl1TMig9Tyk9Tw==

> <s_epik_cmdline>
J2VwaWtfcHl0aG9uJywgJy1waCcsICc3LjAnLCAnLXRuJywgJzgnLCAnLW1hJywgJzIwMCcsICctbWV0YWxfYmluZGluZycsICctaW1hZScsICc8aW5maWxlLm1hZT4nLCAnLW9tYWUnLCAnPG91dGZpbGUubWFlPic=

> <r_lp_tautomer_probability>
1

> <r_epik_Ionization_Penalty>
0.000152028

> <r_epik_Ionization_Penalty_Charging>
0

> <r_epik_Ionization_Penalty_Neutral>
0.000152028

> <r_epik_State_Penalty>
-0

> <r_epik_Charging_Adjusted_Penalty>
0

> <i_epik_Tot_Q>
0

> <i_epik_Tot_abs_Q>
0

> <r_epik_Metal_State_Penalty>
-0

> <b_epik_Metal_Only>
0

> <s_lp_Force_Field>
OPLS_2005

> <r_lp_Energy>
18.8672

> <b_lp_Chiralities_Consistent>
1

> <s_lp_Variant>
AV-unprocessed.smi:1742-2

> <Gold.Version>
5.8.1

> <Gold.Id.Protein>
6NUR|6NUR_protein|mol2

> <Gold.PLP.Fitness>
36.2170

> <Gold.PLP.PLP>
-28.3888

> <Gold.PLP.part.hbond>
-3.0000

> <Gold.PLP.part.metal>
0.0000

> <Gold.PLP.part.buried>
-5.5631

> <Gold.PLP.part.nonpolar>
-27.1438

> <Gold.PLP.part.repulsive>
6.5202

> <Gold.PLP.ligand.clash>
0.0000

> <Gold.PLP.ligand.torsion>
0.8270

> <Gold.PLP.Chemscore.Hbond>
2.1597

> <Gold.PLP.Chemscore.CHOScore>
1.0000

> <Gold.PLP.Chemscore.Metal>
0.0000

> <Gold.Chemscore.Hbonds>
donor molecule, donor type, donor heavy atom, donor atom, acceptor molecule, acceptor atom, score
      L1  H     6    25       P1 10171  0.24
      L1  H     9    26       P1 10175  1.00
      P1  H  7989  7998       L1    14  0.99
      L1  C     4    24       P1  7921  1.00

> <Gold.PLP.Chemscore.Internal.Correction>
0.0031

> <Gold.Rescore>
     Score         DG    S(hbond)    S(metal)    S(lipo)     H(rot)  DE(clash)    DE(int)     intcor
     12.44     -16.61       2.06        0.00      63.84       1.26       2.21       1.95       ----

> <Gold.Chemscore.Fitness>
12.4374

> <Gold.Chemscore.DG>
-16.6052

> <Gold.Chemscore.ZeroCoef>
-5.4800

> <Gold.Chemscore.Hbond>
2.0567

> <Gold.Chemscore.Metal>
0.0000

> <Gold.Chemscore.Lipo>
63.8438

> <Gold.Chemscore.Internal_Hbond>
0.0000

> <Gold.Chemscore.DEClash>
2.2136

> <Gold.Chemscore.DEInternal>
1.9542

> <Gold.Chemscore.Rot>
1.2554

> <Gold.Chemscore.Internal.Correction>
   9.000000E+99

> <Gold.Chemscore.Hbonds>
donor molecule, donor type, donor heavy atom, donor atom, acceptor molecule, acceptor atom, score
      L1  H     6    25       P1 10171  0.24
      L1  H     9    26       P1 10175  1.00
      P1  H  7989  7998       L1    14  0.94

> <Gold.Chemscore.Hbond.Weighted>
-6.8693

> <Gold.Chemscore.Metal.Weighted>
-0.0000

> <Gold.Chemscore.Lipo.Weighted>
-7.4697

> <Gold.Chemscore.Internal_Hbond.Weighted>
0.0000

> <Gold.Chemscore.DEClash.Weighted>
2.2136

> <Gold.Chemscore.DEInternal.Weighted>
1.9542

> <Gold.Chemscore.Rot.Weighted>
3.2139

> <Gold.Chemscore.Internal.Correction.Weighted>
   9.000000E+99

> <Gold.Protein.RotatedTorsions>
[ 6907 6896 6895 6894 ] final  -26.53 input  -60.11 | X-H torsion
[ 7974 7965 7964 7962 ] final  -23.62 input  175.53 | X-H torsion
[ 8008 7997 7996 7995 ] final  100.90 input   59.86 | X-H torsion
[ 10167 10162 10161 10158 ] final  130.13 input  -65.29 | X-H torsion
[ 10718 10713 10712 10709 ] final  -63.30 input   66.30 | X-H torsion
[ 10763 10752 10751 10750 ] final   92.31 input  -60.55 | X-H torsion
[ 11005 11000 10999 10996 ] final -120.44 input  -57.11 | X-H torsion

> <Gold.Protein.ActiveResidues>
 VAL166  LYS551  ARG553  GLY616  TRP617  ASP618  TYR619  PRO620  LYS621  CYS622 
 ASP623  PHE694  ASN695  SER759  ASP760  ASP761  ALA762  ILE779  LEU786  VAL792 
 PHE793  MET794  SER795  GLU796  ALA797  LYS798  CYS799  TRP800  GLU811  SER814 

> <Gold.Protein.RotatedAtoms>
  151.1597  135.0267  159.8704 H   0  0  0  0  0  0  0  0  0  0  0  0  # atno 6907 bound_to 6896
  152.5451  134.1293  159.8442 H   0  0  0  0  0  0  0  0  0  0  0  0  # atno 6908 bound_to 6896
  151.1387  133.4940  159.2630 H   0  0  0  0  0  0  0  0  0  0  0  0  # atno 6909 bound_to 6896
  146.1605  140.4641  142.8573 H   0  0  0  0  0  0  0  0  0  0  0  0  # atno 7974 bound_to 7965
  156.1248  140.3206  155.8261 H   0  0  0  0  0  0  0  0  0  0  0  0  # atno 8008 bound_to 7997
  155.4440  140.0527  157.3025 H   0  0  0  0  0  0  0  0  0  0  0  0  # atno 8009 bound_to 7997
  154.4854  140.2070  155.9681 H   0  0  0  0  0  0  0  0  0  0  0  0  # atno 8010 bound_to 7997
  139.5445  144.6760  151.4518 H   0  0  0  0  0  0  0  0  0  0  0  0  # atno 10167 bound_to 10162
  156.0800  130.4219  150.1257 H   0  0  0  0  0  0  0  0  0  0  0  0  # atno 10718 bound_to 10713
  153.2177  135.4366  155.0453 H   0  0  0  0  0  0  0  0  0  0  0  0  # atno 10763 bound_to 10752
  154.8234  135.3348  154.6973 H   0  0  0  0  0  0  0  0  0  0  0  0  # atno 10764 bound_to 10752
  153.7407  135.7005  153.5023 H   0  0  0  0  0  0  0  0  0  0  0  0  # atno 10765 bound_to 10752
  141.0143  134.0218  157.3371 H   0  0  0  0  0  0  0  0  0  0  0  0  # atno 11005 bound_to 11000
  144.8020  140.6230  143.6472 LP  0  0  0  0  0  0  0  0  0  0  0  0  # atno 17320 bound_to 7965
  145.4601  139.1514  143.3871 LP  0  0  0  0  0  0  0  0  0  0  0  0  # atno 17321 bound_to 7965
  140.6687  143.8340  150.6973 LP  0  0  0  0  0  0  0  0  0  0  0  0  # atno 17342 bound_to 10162
  140.1758  143.4156  152.1968 LP  0  0  0  0  0  0  0  0  0  0  0  0  # atno 17343 bound_to 10162
  156.9290  130.9707  151.3536 LP  0  0  0  0  0  0  0  0  0  0  0  0  # atno 17370 bound_to 10713
  157.5913  130.8445  149.8663 LP  0  0  0  0  0  0  0  0  0  0  0  0  # atno 17371 bound_to 10713
  139.9108  135.0189  156.7682 LP  0  0  0  0  0  0  0  0  0  0  0  0  # atno 17394 bound_to 11000
  140.6681  133.9584  155.7841 LP  0  0  0  0  0  0  0  0  0  0  0  0  # atno 17395 bound_to 11000

$$$$
