AV-unprocessed.smi:1116|AV-procd|sdf|4807|dock3
  -GOLD-   22720 3353D 1   1.00000     0.00000
 Structure written by MMmdl.
 36 37  0  0  0  0  0  0  0  0  1 V2000
  151.8445  145.3442  159.0001 C   0  0  0  0  0  0  0  0  0  0  0  0
  152.3235  144.1350  159.7277 C   0  0  0  0  0  0  0  0  0  0  0  0
  152.8388  143.0621  159.1218 N   0  0  0  0  0  0  0  0  0  0  0  0
  153.2074  142.0590  160.0241 C   0  0  0  0  0  0  0  0  0  0  0  0
  153.7948  140.7755  159.5205 C   0  0  0  0  0  0  0  0  0  0  0  0
  152.7247  139.8418  158.9300 C   0  0  0  0  0  0  0  0  0  0  0  0
  152.1176  140.4004  157.7273 N   0  0  0  0  0  0  0  0  0  0  0  0
  150.8093  140.3633  157.4316 C   0  0  0  0  0  0  0  0  0  0  0  0
  149.9659  139.8450  158.1629 O   0  0  0  0  0  0  0  0  0  0  0  0
  150.3933  141.0029  156.1042 C   0  0  0  0  0  0  0  0  0  0  0  0
  148.8998  140.7931  155.7893 C   0  0  0  0  0  0  0  0  0  0  0  0
  148.5033  141.2824  154.3824 C   0  0  2  0  0  0  0  0  0  0  0  0
  147.8390  142.5748  154.4012 N   0  0  0  0  0  0  0  0  0  0  0  0
  146.6026  142.5237  153.8880 C   0  0  0  0  0  0  0  0  0  0  0  0
  145.8262  143.4698  153.7808 O   0  0  0  0  0  0  0  0  0  0  0  0
  146.3629  141.2623  153.5143 N   0  0  0  0  0  0  0  0  0  0  0  0
  147.3919  140.4539  153.7624 C   0  0  0  0  0  0  0  0  0  0  0  0
  147.4548  139.2462  153.5405 O   0  0  0  0  0  0  0  0  0  0  0  0
  152.9683  142.3952  161.3334 C   0  0  0  0  0  0  0  0  0  0  0  0
  152.2647  143.9822  161.4792 S   0  0  0  0  0  0  0  0  0  0  0  0
  151.8585  145.1761  157.9228 H   0  0  0  0  0  0  0  0  0  0  0  0
  152.4858  146.1952  159.2304 H   0  0  0  0  0  0  0  0  0  0  0  0
  150.8245  145.5815  159.3031 H   0  0  0  0  0  0  0  0  0  0  0  0
  154.5555  140.9892  158.7688 H   0  0  0  0  0  0  0  0  0  0  0  0
  154.3135  140.2636  160.3320 H   0  0  0  0  0  0  0  0  0  0  0  0
  153.1766  138.8865  158.6617 H   0  0  0  0  0  0  0  0  0  0  0  0
  151.9535  139.6235  159.6708 H   0  0  0  0  0  0  0  0  0  0  0  0
  152.7402  140.8431  157.0671 H   0  0  0  0  0  0  0  0  0  0  0  0
  150.6236  142.0690  156.1277 H   0  0  0  0  0  0  0  0  0  0  0  0
  151.0036  140.5701  155.3110 H   0  0  0  0  0  0  0  0  0  0  0  0
  148.6570  139.7324  155.8718 H   0  0  0  0  0  0  0  0  0  0  0  0
  148.2949  141.3018  156.5425 H   0  0  0  0  0  0  0  0  0  0  0  0
  149.3643  141.3141  153.7135 H   0  0  0  0  0  0  0  0  0  0  0  0
  148.2764  143.4127  154.7563 H   0  0  0  0  0  0  0  0  0  0  0  0
  145.4951  140.9558  153.0991 H   0  0  0  0  0  0  0  0  0  0  0  0
  153.1607  141.8068  162.2182 H   0  0  0  0  0  0  0  0  0  0  0  0
  1  2  1  0  0  0  0
  1 21  1  0  0  0  0
  1 22  1  0  0  0  0
  1 23  1  0  0  0  0
  2 20  1  0  0  0  0
  2  3  2  0  0  0  0
  3  4  1  0  0  0  0
  4  5  1  0  0  0  0
  4 19  2  0  0  0  0
  5  6  1  0  0  0  0
  5 24  1  0  0  0  0
  5 25  1  0  0  0  0
  6  7  1  0  0  0  0
  6 26  1  0  0  0  0
  6 27  1  0  0  0  0
  7  8  1  0  0  0  0
  7 28  1  0  0  0  0
  8  9  2  0  0  0  0
  8 10  1  0  0  0  0
 10 11  1  0  0  0  0
 10 29  1  0  0  0  0
 10 30  1  0  0  0  0
 11 12  1  0  0  0  0
 11 31  1  0  0  0  0
 11 32  1  0  0  0  0
 12 17  1  0  0  0  0
 12 13  1  0  0  0  0
 12 33  1  0  0  0  0
 13 14  1  0  0  0  0
 13 34  1  0  0  0  0
 14 15  2  0  0  0  0
 14 16  1  0  0  0  0
 16 17  1  0  0  0  0
 16 35  1  0  0  0  0
 17 18  2  0  0  0  0
 19 20  1  0  0  0  0
 19 36  1  0  0  0  0
M  END
> <s_m_source_file>
AV-unprocessed.smi

> <i_m_source_file_index>
1116

> <i_lp_mmshare_version>
43012

> <i_f3d_flags>
0

> <s_epik_input>
W0NIM11jMW5jKFtjSF1zMSlbQ0gyXVtDSDJdW05IXUMoPU8pW0NIMl1bQ0gyXVtDQEBIXTJbTkhdQyg9TylbTkhdQzI9Tw==

> <s_epik_cmdline>
J2VwaWtfcHl0aG9uJywgJy1waCcsICc3LjAnLCAnLXRuJywgJzgnLCAnLW1hJywgJzIwMCcsICctbWV0YWxfYmluZGluZycsICctaW1hZScsICc8aW5maWxlLm1hZT4nLCAnLW9tYWUnLCAnPG91dGZpbGUubWFlPic=

> <r_lp_tautomer_probability>
1

> <r_epik_Ionization_Penalty>
0.00889251

> <r_epik_Ionization_Penalty_Charging>
0

> <r_epik_Ionization_Penalty_Neutral>
0.00889251

> <r_epik_State_Penalty>
0.00583796

> <r_epik_Charging_Adjusted_Penalty>
0.00583796

> <i_epik_Tot_Q>
0

> <i_epik_Tot_abs_Q>
0

> <r_epik_Metal_State_Penalty>
0.408839

> <b_epik_Metal_Only>
0

> <s_lp_Force_Field>
OPLS_2005

> <r_lp_Energy>
12.4074

> <b_lp_Chiralities_Consistent>
1

> <s_lp_Variant>
AV-unprocessed.smi:1116-1

> <Gold.Version>
5.8.1

> <Gold.Id.Protein>
6NUR|6NUR_protein|mol2

> <Gold.PLP.Fitness>
48.4201

> <Gold.PLP.PLP>
-44.1510

> <Gold.PLP.part.hbond>
-2.0000

> <Gold.PLP.part.metal>
0.0000

> <Gold.PLP.part.buried>
-9.2496

> <Gold.PLP.part.nonpolar>
-34.9938

> <Gold.PLP.part.repulsive>
0.7597

> <Gold.PLP.ligand.clash>
0.0000

> <Gold.PLP.ligand.torsion>
0.9008

> <Gold.PLP.Chemscore.Hbond>
2.0000

> <Gold.PLP.Chemscore.CHOScore>
0.0000

> <Gold.PLP.Chemscore.Metal>
0.0000

> <Gold.Chemscore.Hbonds>
donor molecule, donor type, donor heavy atom, donor atom, acceptor molecule, acceptor atom, score
      L1  H    13    34       P1  8028  1.00
      L1  H    16    35       P1 10175  1.00

> <Gold.PLP.Chemscore.Internal.Correction>
0.0708

> <Gold.Rescore>
     Score         DG    S(hbond)    S(metal)    S(lipo)     H(rot)  DE(clash)    DE(int)     intcor
     14.93     -15.76       1.93        0.00      94.60       2.83       0.05       0.78       ----

> <Gold.Chemscore.Fitness>
14.9277

> <Gold.Chemscore.DG>
-15.7564

> <Gold.Chemscore.ZeroCoef>
-5.4800

> <Gold.Chemscore.Hbond>
1.9339

> <Gold.Chemscore.Metal>
0.0000

> <Gold.Chemscore.Lipo>
94.6009

> <Gold.Chemscore.Internal_Hbond>
0.0000

> <Gold.Chemscore.DEClash>
0.0465

> <Gold.Chemscore.DEInternal>
0.7822

> <Gold.Chemscore.Rot>
2.8324

> <Gold.Chemscore.Internal.Correction>
   9.000000E+99

> <Gold.Chemscore.Hbonds>
donor molecule, donor type, donor heavy atom, donor atom, acceptor molecule, acceptor atom, score
      L1  H    13    34       P1  8028  0.98
      L1  H    16    35       P1 10175  0.44

> <Gold.Chemscore.Hbond.Weighted>
-6.4591

> <Gold.Chemscore.Metal.Weighted>
-0.0000

> <Gold.Chemscore.Lipo.Weighted>
-11.0683

> <Gold.Chemscore.Internal_Hbond.Weighted>
0.0000

> <Gold.Chemscore.DEClash.Weighted>
0.0465

> <Gold.Chemscore.DEInternal.Weighted>
0.7822

> <Gold.Chemscore.Rot.Weighted>
7.2510

> <Gold.Chemscore.Internal.Correction.Weighted>
   9.000000E+99

> <Gold.Protein.RotatedTorsions>
[ 6907 6896 6895 6894 ] final  106.78 input  -60.11 | X-H torsion
[ 7974 7965 7964 7962 ] final   91.93 input  175.53 | X-H torsion
[ 8008 7997 7996 7995 ] final -152.44 input   59.86 | X-H torsion
[ 10167 10162 10161 10158 ] final    8.08 input  -65.29 | X-H torsion
[ 10718 10713 10712 10709 ] final -110.76 input   66.30 | X-H torsion
[ 10763 10752 10751 10750 ] final   98.86 input  -60.55 | X-H torsion
[ 11005 11000 10999 10996 ] final  135.20 input  -57.11 | X-H torsion

> <Gold.Protein.ActiveResidues>
 VAL166  LYS551  ARG553  GLY616  TRP617  ASP618  TYR619  PRO620  LYS621  CYS622 
 ASP623  PHE694  ASN695  SER759  ASP760  ASP761  ALA762  ILE779  LEU786  VAL792 
 PHE793  MET794  SER795  GLU796  ALA797  LYS798  CYS799  TRP800  GLU811  SER814 

> <Gold.Protein.RotatedAtoms>
  152.5180  133.9331  159.7589 H   0  0  0  0  0  0  0  0  0  0  0  0  # atno 6907 bound_to 6896
  150.9677  133.6369  159.2750 H   0  0  0  0  0  0  0  0  0  0  0  0  # atno 6908 bound_to 6896
  151.3591  135.0906  159.9481 H   0  0  0  0  0  0  0  0  0  0  0  0  # atno 6909 bound_to 6896
  145.4990  139.2276  143.2787 H   0  0  0  0  0  0  0  0  0  0  0  0  # atno 7974 bound_to 7965
  155.6551  140.0716  157.2573 H   0  0  0  0  0  0  0  0  0  0  0  0  # atno 8008 bound_to 7997
  154.4154  140.1726  156.1766 H   0  0  0  0  0  0  0  0  0  0  0  0  # atno 8009 bound_to 7997
  155.9744  140.3359  155.6608 H   0  0  0  0  0  0  0  0  0  0  0  0  # atno 8010 bound_to 7997
  140.6335  143.7940  150.7327 H   0  0  0  0  0  0  0  0  0  0  0  0  # atno 10167 bound_to 10162
  156.0609  130.5832  150.8281 H   0  0  0  0  0  0  0  0  0  0  0  0  # atno 10718 bound_to 10713
  153.2943  135.4133  155.1195 H   0  0  0  0  0  0  0  0  0  0  0  0  # atno 10763 bound_to 10752
  154.8530  135.3526  154.5939 H   0  0  0  0  0  0  0  0  0  0  0  0  # atno 10764 bound_to 10752
  153.6362  135.7059  153.5316 H   0  0  0  0  0  0  0  0  0  0  0  0  # atno 10765 bound_to 10752
  139.9964  134.9495  156.9974 H   0  0  0  0  0  0  0  0  0  0  0  0  # atno 11005 bound_to 11000
  146.2237  140.5790  142.9006 LP  0  0  0  0  0  0  0  0  0  0  0  0  # atno 17320 bound_to 7965
  144.7790  140.5801  143.6618 LP  0  0  0  0  0  0  0  0  0  0  0  0  # atno 17321 bound_to 7965
  140.1557  143.4319  152.2101 LP  0  0  0  0  0  0  0  0  0  0  0  0  # atno 17342 bound_to 10162
  139.5547  144.7364  151.4331 LP  0  0  0  0  0  0  0  0  0  0  0  0  # atno 17343 bound_to 10162
  157.5616  131.0946  150.9550 LP  0  0  0  0  0  0  0  0  0  0  0  0  # atno 17370 bound_to 10713
  156.9786  130.5518  149.5295 LP  0  0  0  0  0  0  0  0  0  0  0  0  # atno 17371 bound_to 10713
  140.4810  134.1290  155.7217 LP  0  0  0  0  0  0  0  0  0  0  0  0  # atno 17394 bound_to 11000
  141.1608  133.8797  157.1853 LP  0  0  0  0  0  0  0  0  0  0  0  0  # atno 17395 bound_to 11000

$$$$
