AV-unprocessed.smi:2177|AV-procd|sdf|8849|dock1
  -GOLD-   2272012 43D 1   1.00000     0.00000
 Structure written by MMmdl.
 42 43  0  0  0  0  0  0  0  0  1 V2000
  153.3170  137.9785  156.0311 C   0  0  0  0  0  0  0  0  0  0  0  0
  152.2259  138.9939  155.8454 C   0  0  0  0  0  0  0  0  0  0  0  0
  152.2922  140.1462  156.4912 N   0  0  0  0  0  0  0  0  0  0  0  0
  151.1803  140.8124  156.1214 N   0  0  0  0  0  0  0  0  0  0  0  0
  150.9359  142.1364  156.6598 C   0  0  0  0  0  0  0  0  0  0  0  0
  150.4132  140.0825  155.2340 C   0  0  0  0  0  0  0  0  0  0  0  0
  149.1272  140.6034  154.6773 C   0  0  0  0  0  0  0  0  0  0  0  0
  151.0599  138.8921  155.0314 C   0  0  0  0  0  0  0  0  0  0  0  0
  150.6525  137.7278  154.1634 C   0  0  0  0  0  0  0  0  0  0  0  0
  150.5345  136.4631  155.0141 C   0  0  0  0  0  0  0  0  0  0  0  0
  151.0503  136.4233  156.1308 O   0  0  0  0  0  0  0  0  0  0  0  0
  149.8527  135.4415  154.4716 N   0  0  0  0  0  0  0  0  0  0  0  0
  149.5934  134.1523  155.1061 C   0  0  1  0  0  0  0  0  0  0  0  0
  148.5081  134.3491  156.1754 C   0  0  0  0  0  0  0  0  0  0  0  0
  149.1841  133.1161  154.0394 C   0  0  2  0  0  0  0  0  0  0  0  0
  147.9254  133.4753  153.2480 C   0  0  0  0  0  0  0  0  0  0  0  0
  147.3931  132.1280  152.7852 C   0  0  0  0  0  0  0  0  0  0  0  0
  148.1380  131.1132  153.6561 C   0  0  0  0  0  0  0  0  0  0  0  0
  148.8026  131.8890  154.6426 O   0  0  0  0  0  0  0  0  0  0  0  0
  152.9035  137.0110  156.3164 H   0  0  0  0  0  0  0  0  0  0  0  0
  154.0222  138.2777  156.8073 H   0  0  0  0  0  0  0  0  0  0  0  0
  153.8793  137.8391  155.1078 H   0  0  0  0  0  0  0  0  0  0  0  0
  151.1684  142.8862  155.9035 H   0  0  0  0  0  0  0  0  0  0  0  0
  151.5567  142.3136  157.5390 H   0  0  0  0  0  0  0  0  0  0  0  0
  149.8889  142.2321  156.9481 H   0  0  0  0  0  0  0  0  0  0  0  0
  148.7533  139.9654  153.8773 H   0  0  0  0  0  0  0  0  0  0  0  0
  149.2567  141.6059  154.2693 H   0  0  0  0  0  0  0  0  0  0  0  0
  148.3626  140.6486  155.4529 H   0  0  0  0  0  0  0  0  0  0  0  0
  149.7012  137.9090  153.6625 H   0  0  0  0  0  0  0  0  0  0  0  0
  151.3793  137.5559  153.3687 H   0  0  0  0  0  0  0  0  0  0  0  0
  149.4699  135.5744  153.5471 H   0  0  0  0  0  0  0  0  0  0  0  0
  150.4956  133.8018  155.6107 H   0  0  0  0  0  0  0  0  0  0  0  0
  148.3156  133.4264  156.7228 H   0  0  0  0  0  0  0  0  0  0  0  0
  147.5671  134.6755  155.7312 H   0  0  0  0  0  0  0  0  0  0  0  0
  148.8100  135.1013  156.9048 H   0  0  0  0  0  0  0  0  0  0  0  0
  150.0122  132.9278  153.3528 H   0  0  0  0  0  0  0  0  0  0  0  0
  147.1923  133.9492  153.9018 H   0  0  0  0  0  0  0  0  0  0  0  0
  148.1277  134.1559  152.4208 H   0  0  0  0  0  0  0  0  0  0  0  0
  146.3137  132.0666  152.9258 H   0  0  0  0  0  0  0  0  0  0  0  0
  147.6048  131.9554  151.7295 H   0  0  0  0  0  0  0  0  0  0  0  0
  147.4704  130.3839  154.1154 H   0  0  0  0  0  0  0  0  0  0  0  0
  148.8791  130.5725  153.0661 H   0  0  0  0  0  0  0  0  0  0  0  0
  1  2  1  0  0  0  0
  1 20  1  0  0  0  0
  1 21  1  0  0  0  0
  1 22  1  0  0  0  0
  2  8  1  0  0  0  0
  2  3  2  0  0  0  0
  3  4  1  0  0  0  0
  4  5  1  0  0  0  0
  4  6  1  0  0  0  0
  5 23  1  0  0  0  0
  5 24  1  0  0  0  0
  5 25  1  0  0  0  0
  6  7  1  0  0  0  0
  6  8  2  0  0  0  0
  7 26  1  0  0  0  0
  7 27  1  0  0  0  0
  7 28  1  0  0  0  0
  8  9  1  0  0  0  0
  9 10  1  0  0  0  0
  9 29  1  0  0  0  0
  9 30  1  0  0  0  0
 10 11  2  0  0  0  0
 10 12  1  0  0  0  0
 12 13  1  0  0  0  0
 12 31  1  0  0  0  0
 13 14  1  0  0  0  0
 13 15  1  0  0  0  0
 13 32  1  0  0  0  0
 14 33  1  0  0  0  0
 14 34  1  0  0  0  0
 14 35  1  0  0  0  0
 15 19  1  0  0  0  0
 15 16  1  0  0  0  0
 15 36  1  0  0  0  0
 16 17  1  0  0  0  0
 16 37  1  0  0  0  0
 16 38  1  0  0  0  0
 17 18  1  0  0  0  0
 17 39  1  0  0  0  0
 17 40  1  0  0  0  0
 18 19  1  0  0  0  0
 18 41  1  0  0  0  0
 18 42  1  0  0  0  0
M  END
> <s_m_source_file>
AV-unprocessed.smi

> <i_m_source_file_index>
2177

> <i_lp_mmshare_version>
43012

> <i_f3d_flags>
0

> <s_epik_input>
W0NIM11jMW5uKFtDSDNdKWMoW0NIM10pYzFbQ0gyXUMoPU8pW05IXVtDQEhdKFtDSDNdKVtDQEBIXTJbQ0gyXVtDSDJdW0NIMl1PMg==

> <s_epik_cmdline>
J2VwaWtfcHl0aG9uJywgJy1waCcsICc3LjAnLCAnLXRuJywgJzgnLCAnLW1hJywgJzIwMCcsICctbWV0YWxfYmluZGluZycsICctaW1hZScsICc8aW5maWxlLm1hZT4nLCAnLW9tYWUnLCAnPG91dGZpbGUubWFlPic=

> <r_lp_tautomer_probability>
1

> <r_epik_Ionization_Penalty>
0.00310467

> <r_epik_Ionization_Penalty_Charging>
0

> <r_epik_Ionization_Penalty_Neutral>
0.00310467

> <r_epik_State_Penalty>
0.00218493

> <r_epik_Charging_Adjusted_Penalty>
0.00218493

> <i_epik_Tot_Q>
0

> <i_epik_Tot_abs_Q>
0

> <r_epik_Metal_State_Penalty>
-0

> <b_epik_Metal_Only>
0

> <s_lp_Force_Field>
OPLS_2005

> <r_lp_Energy>
13.1065

> <b_lp_Chiralities_Consistent>
1

> <s_lp_Variant>
AV-unprocessed.smi:2177-2

> <Gold.Version>
5.8.1

> <Gold.Id.Protein>
6NUR|6NUR_protein|mol2

> <Gold.PLP.Fitness>
37.0972

> <Gold.PLP.PLP>
-33.2652

> <Gold.PLP.part.hbond>
-2.2384

> <Gold.PLP.part.metal>
0.0000

> <Gold.PLP.part.buried>
2.1535

> <Gold.PLP.part.nonpolar>
-32.8825

> <Gold.PLP.part.repulsive>
0.1081

> <Gold.PLP.ligand.clash>
0.0000

> <Gold.PLP.ligand.torsion>
0.4541

> <Gold.PLP.Chemscore.Hbond>
1.5500

> <Gold.PLP.Chemscore.CHOScore>
0.0000

> <Gold.PLP.Chemscore.Metal>
0.0000

> <Gold.Chemscore.Hbonds>
donor molecule, donor type, donor heavy atom, donor atom, acceptor molecule, acceptor atom, score
      L1  H    12    31       P1  7948  0.95
      P1  H  7997  8008       L1     3  0.47

> <Gold.PLP.Chemscore.Internal.Correction>
0.0902

> <Gold.Rescore>
     Score         DG    S(hbond)    S(metal)    S(lipo)     H(rot)  DE(clash)    DE(int)     intcor
     13.92     -18.54       2.33        0.00      77.25       1.46       1.41       3.21       ----

> <Gold.Chemscore.Fitness>
13.9199

> <Gold.Chemscore.DG>
-18.5437

> <Gold.Chemscore.ZeroCoef>
-5.4800

> <Gold.Chemscore.Hbond>
2.3263

> <Gold.Chemscore.Metal>
0.0000

> <Gold.Chemscore.Lipo>
77.2500

> <Gold.Chemscore.Internal_Hbond>
0.0000

> <Gold.Chemscore.DEClash>
1.4118

> <Gold.Chemscore.DEInternal>
3.2121

> <Gold.Chemscore.Rot>
1.4627

> <Gold.Chemscore.Internal.Correction>
   9.000000E+99

> <Gold.Chemscore.Hbonds>
donor molecule, donor type, donor heavy atom, donor atom, acceptor molecule, acceptor atom, score
      L1  H    12    31       P1  7948  0.22
      P1  H  7997  8008       L1     3  0.02

> <Gold.Chemscore.Hbond.Weighted>
-7.7699

> <Gold.Chemscore.Metal.Weighted>
-0.0000

> <Gold.Chemscore.Lipo.Weighted>
-9.0383

> <Gold.Chemscore.Internal_Hbond.Weighted>
0.0000

> <Gold.Chemscore.DEClash.Weighted>
1.4118

> <Gold.Chemscore.DEInternal.Weighted>
3.2121

> <Gold.Chemscore.Rot.Weighted>
3.7445

> <Gold.Chemscore.Internal.Correction.Weighted>
   9.000000E+99

> <Gold.Protein.RotatedTorsions>
[ 6907 6896 6895 6894 ] final  -51.66 input  -60.11 | X-H torsion
[ 7974 7965 7964 7962 ] final   23.07 input  175.53 | X-H torsion
[ 8008 7997 7996 7995 ] final  -39.29 input   59.86 | X-H torsion
[ 10167 10162 10161 10158 ] final  133.05 input  -65.29 | X-H torsion
[ 10718 10713 10712 10709 ] final  -73.75 input   66.30 | X-H torsion
[ 10763 10752 10751 10750 ] final   96.02 input  -60.55 | X-H torsion
[ 11005 11000 10999 10996 ] final  -19.26 input  -57.11 | X-H torsion

> <Gold.Protein.ActiveResidues>
 VAL166  LYS551  ARG553  GLY616  TRP617  ASP618  TYR619  PRO620  LYS621  CYS622 
 ASP623  PHE694  ASN695  SER759  ASP760  ASP761  ALA762  ILE779  LEU786  VAL792 
 PHE793  MET794  SER795  GLU796  ALA797  LYS798  CYS799  TRP800  GLU811  SER814 

> <Gold.Protein.RotatedAtoms>
  150.8590  134.7937  159.7067 H   0  0  0  0  0  0  0  0  0  0  0  0  # atno 6907 bound_to 6896
  152.4633  134.5131  159.9769 H   0  0  0  0  0  0  0  0  0  0  0  0  # atno 6908 bound_to 6896
  151.5238  133.3423  159.2941 H   0  0  0  0  0  0  0  0  0  0  0  0  # atno 6909 bound_to 6896
  146.2001  139.7796  142.8768 H   0  0  0  0  0  0  0  0  0  0  0  0  # atno 7974 bound_to 7965
  154.4025  140.1555  156.2839 H   0  0  0  0  0  0  0  0  0  0  0  0  # atno 8008 bound_to 7997
  155.8846  140.3442  155.5890 H   0  0  0  0  0  0  0  0  0  0  0  0  # atno 8009 bound_to 7997
  155.7629  140.0820  157.2137 H   0  0  0  0  0  0  0  0  0  0  0  0  # atno 8010 bound_to 7997
  139.5313  144.6634  151.4939 H   0  0  0  0  0  0  0  0  0  0  0  0  # atno 10167 bound_to 10162
  156.0268  130.4401  150.2790 H   0  0  0  0  0  0  0  0  0  0  0  0  # atno 10718 bound_to 10713
  153.2601  135.4233  155.0885 H   0  0  0  0  0  0  0  0  0  0  0  0  # atno 10763 bound_to 10752
  154.8416  135.3447  154.6390 H   0  0  0  0  0  0  0  0  0  0  0  0  # atno 10764 bound_to 10752
  153.6811  135.7039  153.5175 H   0  0  0  0  0  0  0  0  0  0  0  0  # atno 10765 bound_to 10752
  140.8349  133.7969  155.9798 H   0  0  0  0  0  0  0  0  0  0  0  0  # atno 11005 bound_to 11000
  145.3514  141.0308  143.3336 LP  0  0  0  0  0  0  0  0  0  0  0  0  # atno 17320 bound_to 7965
  144.8664  139.5102  143.6788 LP  0  0  0  0  0  0  0  0  0  0  0  0  # atno 17321 bound_to 7965
  140.6493  143.8729  150.6769 LP  0  0  0  0  0  0  0  0  0  0  0  0  # atno 17342 bound_to 10162
  140.2089  143.3900  152.1734 LP  0  0  0  0  0  0  0  0  0  0  0  0  # atno 17343 bound_to 10162
  157.0893  131.0165  151.3127 LP  0  0  0  0  0  0  0  0  0  0  0  0  # atno 17370 bound_to 10713
  157.4867  130.7797  149.7467 LP  0  0  0  0  0  0  0  0  0  0  0  0  # atno 17371 bound_to 10713
  140.8958  134.2439  157.5069 LP  0  0  0  0  0  0  0  0  0  0  0  0  # atno 17394 bound_to 11000
  139.8704  134.9683  156.4627 LP  0  0  0  0  0  0  0  0  0  0  0  0  # atno 17395 bound_to 11000

$$$$
