AV-unprocessed.smi:2881|AV-procd|sdf|11058|dock6
  -GOLD-   2272015533D 1   1.00000     0.00000
 Structure written by MMmdl.
 40 42  0  0  0  0  0  0  0  0  1 V2000
  146.9161  134.0476  162.5575 C   0  0  0  0  0  0  0  0  0  0  0  0
  147.3689  135.0626  161.5633 C   0  0  0  0  0  0  0  0  0  0  0  0
  147.9377  134.9228  160.3291 C   0  0  0  0  0  0  0  0  0  0  0  0
  148.1283  136.2613  159.8734 C   0  0  0  0  0  0  0  0  0  0  0  0
  148.6961  136.7183  158.5545 C   0  0  0  0  0  0  0  0  0  0  0  0
  148.5176  138.2301  158.4014 C   0  0  0  0  0  0  0  0  0  0  0  0
  147.3950  138.7297  158.4676 O   0  0  0  0  0  0  0  0  0  0  0  0
  149.6338  138.9407  158.1748 N   0  0  0  0  0  0  0  0  0  0  0  0
  149.6913  140.3702  157.8747 C   0  0  1  0  0  0  0  0  0  0  0  0
  150.8910  141.0152  158.6013 C   0  0  2  0  0  0  0  0  0  0  0  0
  150.7315  142.5462  158.5775 C   0  0  0  0  0  0  0  0  0  0  0  0
  151.0144  142.8884  157.1022 C   0  0  0  0  0  0  0  0  0  0  0  0
  151.2954  141.5076  156.4769 C   0  0  1  0  0  0  0  0  0  0  0  0
  152.0311  140.8066  157.6118 C   0  0  0  0  0  0  0  0  0  0  0  0
  149.9722  140.7088  156.3779 C   0  0  1  0  0  0  0  0  0  0  0  0
  150.0553  139.5056  155.4087 C   0  0  0  0  0  0  0  0  0  0  0  0
  150.2029  139.9514  154.0771 O   0  0  0  0  0  0  0  0  0  0  0  0
  147.7190  137.1583  160.7600 N   0  0  0  0  0  0  0  0  0  0  0  0
  147.2568  136.4163  161.7830 N   0  0  0  0  0  0  0  0  0  0  0  0
  146.8739  136.8418  162.6153 H   0  0  0  0  0  0  0  0  0  0  0  0
  146.1079  133.4420  162.1472 H   0  0  0  0  0  0  0  0  0  0  0  0
  146.5524  134.5207  163.4701 H   0  0  0  0  0  0  0  0  0  0  0  0
  147.7347  133.3802  162.8275 H   0  0  0  0  0  0  0  0  0  0  0  0
  148.1744  134.0003  159.8198 H   0  0  0  0  0  0  0  0  0  0  0  0
  149.7542  136.4636  158.4795 H   0  0  0  0  0  0  0  0  0  0  0  0
  148.1946  136.2153  157.7271 H   0  0  0  0  0  0  0  0  0  0  0  0
  150.5103  138.4399  158.1473 H   0  0  0  0  0  0  0  0  0  0  0  0
  148.7639  140.8420  158.2058 H   0  0  0  0  0  0  0  0  0  0  0  0
  151.0702  140.6188  159.6017 H   0  0  0  0  0  0  0  0  0  0  0  0
  149.7404  142.8679  158.8988 H   0  0  0  0  0  0  0  0  0  0  0  0
  151.4650  143.0232  159.2286 H   0  0  0  0  0  0  0  0  0  0  0  0
  150.1785  143.4003  156.6245 H   0  0  0  0  0  0  0  0  0  0  0  0
  151.8893  143.5348  157.0219 H   0  0  0  0  0  0  0  0  0  0  0  0
  151.8520  141.5691  155.5414 H   0  0  0  0  0  0  0  0  0  0  0  0
  152.9546  141.3090  157.9043 H   0  0  0  0  0  0  0  0  0  0  0  0
  152.2472  139.7563  157.4107 H   0  0  0  0  0  0  0  0  0  0  0  0
  149.1789  141.3627  156.0119 H   0  0  0  0  0  0  0  0  0  0  0  0
  150.8859  138.8443  155.6567 H   0  0  0  0  0  0  0  0  0  0  0  0
  149.1423  138.9117  155.4555 H   0  0  0  0  0  0  0  0  0  0  0  0
  149.9202  139.2610  153.4969 H   0  0  0  0  0  0  0  0  0  0  0  0
  1  2  1  0  0  0  0
  1 21  1  0  0  0  0
  1 22  1  0  0  0  0
  1 23  1  0  0  0  0
  2 19  1  0  0  0  0
  2  3  2  0  0  0  0
  3  4  1  0  0  0  0
  3 24  1  0  0  0  0
  4  5  1  0  0  0  0
  4 18  2  0  0  0  0
  5  6  1  0  0  0  0
  5 25  1  0  0  0  0
  5 26  1  0  0  0  0
  6  7  2  0  0  0  0
  6  8  1  0  0  0  0
  8  9  1  0  0  0  0
  8 27  1  0  0  0  0
  9 15  1  0  0  0  0
  9 10  1  0  0  0  0
  9 28  1  0  0  0  0
 10 14  1  0  0  0  0
 10 11  1  0  0  0  0
 10 29  1  0  0  0  0
 11 12  1  0  0  0  0
 11 30  1  0  0  0  0
 11 31  1  0  0  0  0
 12 13  1  0  0  0  0
 12 32  1  0  0  0  0
 12 33  1  0  0  0  0
 13 14  1  0  0  0  0
 13 15  1  0  0  0  0
 13 34  1  0  0  0  0
 14 35  1  0  0  0  0
 14 36  1  0  0  0  0
 15 16  1  0  0  0  0
 15 37  1  0  0  0  0
 16 17  1  0  0  0  0
 16 38  1  0  0  0  0
 16 39  1  0  0  0  0
 17 40  1  0  0  0  0
 18 19  1  0  0  0  0
 19 20  1  0  0  0  0
M  END
> <s_m_source_file>
AV-unprocessed.smi

> <i_m_source_file_index>
2881

> <i_lp_mmshare_version>
43012

> <i_f3d_flags>
0

> <s_epik_input>
W0NIM11jMVtjSF1jKG5bbkhdMSlbQ0gyXUMoPU8pW05IXVtDQEhdKFtDQEBIXTIzKVtDQEhdKFtDSDJdW09IXSlbQ0BASF0oW0NIMl0zKVtDSDJdW0NIMl0y

> <s_epik_cmdline>
J2VwaWtfcHl0aG9uJywgJy1waCcsICc3LjAnLCAnLXRuJywgJzgnLCAnLW1hJywgJzIwMCcsICctbWV0YWxfYmluZGluZycsICctaW1hZScsICc8aW5maWxlLm1hZT4nLCAnLW9tYWUnLCAnPG91dGZpbGUubWFlPic=

> <r_lp_tautomer_probability>
0.5

> <r_epik_Ionization_Penalty>
9.4349e-05

> <r_epik_Ionization_Penalty_Charging>
0

> <r_epik_Ionization_Penalty_Neutral>
9.4349e-05

> <r_epik_State_Penalty>
0.41068

> <r_epik_Charging_Adjusted_Penalty>
0.41068

> <i_epik_Tot_Q>
0

> <i_epik_Tot_abs_Q>
0

> <r_epik_Metal_State_Penalty>
0.4107

> <b_epik_Metal_Only>
0

> <s_lp_Force_Field>
OPLS_2005

> <r_lp_Energy>
47.5678

> <b_lp_Chiralities_Consistent>
1

> <s_lp_Variant>
AV-unprocessed.smi:2881-4

> <Gold.Version>
5.8.1

> <Gold.Id.Protein>
6NUR|6NUR_protein|mol2

> <Gold.PLP.Fitness>
37.7025

> <Gold.PLP.PLP>
-30.6460

> <Gold.PLP.part.hbond>
-5.0000

> <Gold.PLP.part.metal>
0.0000

> <Gold.PLP.part.buried>
-4.9901

> <Gold.PLP.part.nonpolar>
-21.4409

> <Gold.PLP.part.repulsive>
0.3129

> <Gold.PLP.ligand.clash>
0.0000

> <Gold.PLP.ligand.torsion>
0.3420

> <Gold.PLP.Chemscore.Hbond>
2.5734

> <Gold.PLP.Chemscore.CHOScore>
0.0000

> <Gold.PLP.Chemscore.Metal>
0.0000

> <Gold.Chemscore.Hbonds>
donor molecule, donor type, donor heavy atom, donor atom, acceptor molecule, acceptor atom, score
      P1  H  6931  6943       L1    18  0.64
      P1  H  6934  6947       L1    18  0.91
      P1  H  7989  7998       L1    17  1.00

> <Gold.PLP.Chemscore.Internal.Correction>
0.0202

> <Gold.Rescore>
     Score         DG    S(hbond)    S(metal)    S(lipo)     H(rot)  DE(clash)    DE(int)     intcor
     13.65     -15.49       1.95        0.00      79.65       2.28       0.05       1.79       ----

> <Gold.Chemscore.Fitness>
13.6454

> <Gold.Chemscore.DG>
-15.4862

> <Gold.Chemscore.ZeroCoef>
-5.4800

> <Gold.Chemscore.Hbond>
1.9496

> <Gold.Chemscore.Metal>
0.0000

> <Gold.Chemscore.Lipo>
79.6549

> <Gold.Chemscore.Internal_Hbond>
0.0000

> <Gold.Chemscore.DEClash>
0.0529

> <Gold.Chemscore.DEInternal>
1.7878

> <Gold.Chemscore.Rot>
2.2755

> <Gold.Chemscore.Internal.Correction>
   9.000000E+99

> <Gold.Chemscore.Hbonds>
donor molecule, donor type, donor heavy atom, donor atom, acceptor molecule, acceptor atom, score
      L1  H    17    40       P1  7957  0.01
      P1  H  6931  6943       L1    18  0.09
      P1  H  6934  6947       L1    18  0.73
      P1  H  7989  7998       L1    17  0.84

> <Gold.Chemscore.Hbond.Weighted>
-6.5118

> <Gold.Chemscore.Metal.Weighted>
-0.0000

> <Gold.Chemscore.Lipo.Weighted>
-9.3196

> <Gold.Chemscore.Internal_Hbond.Weighted>
0.0000

> <Gold.Chemscore.DEClash.Weighted>
0.0529

> <Gold.Chemscore.DEInternal.Weighted>
1.7878

> <Gold.Chemscore.Rot.Weighted>
5.8252

> <Gold.Chemscore.Internal.Correction.Weighted>
   9.000000E+99

> <Gold.Protein.RotatedTorsions>
[ 6907 6896 6895 6894 ] final  153.80 input  -60.11 | X-H torsion
[ 7974 7965 7964 7962 ] final -105.83 input  175.53 | X-H torsion
[ 8008 7997 7996 7995 ] final   47.75 input   59.86 | X-H torsion
[ 10167 10162 10161 10158 ] final -148.75 input  -65.29 | X-H torsion
[ 10718 10713 10712 10709 ] final   89.26 input   66.30 | X-H torsion
[ 10763 10752 10751 10750 ] final   -3.50 input  -60.55 | X-H torsion
[ 11005 11000 10999 10996 ] final  -49.14 input  -57.11 | X-H torsion

> <Gold.Protein.ActiveResidues>
 VAL166  LYS551  ARG553  GLY616  TRP617  ASP618  TYR619  PRO620  LYS621  CYS622 
 ASP623  PHE694  ASN695  SER759  ASP760  ASP761  ALA762  ILE779  LEU786  VAL792 
 PHE793  MET794  SER795  GLU796  ALA797  LYS798  CYS799  TRP800  GLU811  SER814 

> <Gold.Protein.RotatedAtoms>
  152.0676  133.4091  159.4444 H   0  0  0  0  0  0  0  0  0  0  0  0  # atno 6907 bound_to 6896
  150.6864  134.3129  159.4763 H   0  0  0  0  0  0  0  0  0  0  0  0  # atno 6908 bound_to 6896
  152.0957  134.9376  160.0621 H   0  0  0  0  0  0  0  0  0  0  0  0  # atno 6909 bound_to 6896
  145.2255  140.9150  143.3235 H   0  0  0  0  0  0  0  0  0  0  0  0  # atno 7974 bound_to 7965
  155.3742  140.3425  155.4244 H   0  0  0  0  0  0  0  0  0  0  0  0  # atno 8008 bound_to 7997
  156.1646  140.1612  156.8587 H   0  0  0  0  0  0  0  0  0  0  0  0  # atno 8009 bound_to 7997
  154.5172  140.0775  156.8086 H   0  0  0  0  0  0  0  0  0  0  0  0  # atno 8010 bound_to 7997
  139.7504  143.8527  152.2585 H   0  0  0  0  0  0  0  0  0  0  0  0  # atno 10167 bound_to 10162
  157.6954  131.0326  150.3399 H   0  0  0  0  0  0  0  0  0  0  0  0  # atno 10718 bound_to 10713
  153.3721  135.6995  153.6629 H   0  0  0  0  0  0  0  0  0  0  0  0  # atno 10763 bound_to 10752
  153.5275  135.3599  155.2661 H   0  0  0  0  0  0  0  0  0  0  0  0  # atno 10764 bound_to 10752
  154.8682  135.4172  154.3002 H   0  0  0  0  0  0  0  0  0  0  0  0  # atno 10765 bound_to 10752
  141.0742  133.6670  156.3543 H   0  0  0  0  0  0  0  0  0  0  0  0  # atno 11005 bound_to 11000
  144.9726  139.3865  143.6302 LP  0  0  0  0  0  0  0  0  0  0  0  0  # atno 17320 bound_to 7965
  146.3366  139.8830  142.8821 LP  0  0  0  0  0  0  0  0  0  0  0  0  # atno 17321 bound_to 7965
  139.8504  144.7167  150.9221 LP  0  0  0  0  0  0  0  0  0  0  0  0  # atno 17342 bound_to 10162
  140.7797  143.3904  151.1320 LP  0  0  0  0  0  0  0  0  0  0  0  0  # atno 17343 bound_to 10162
  156.3861  130.3889  149.7065 LP  0  0  0  0  0  0  0  0  0  0  0  0  # atno 17370 bound_to 10713
  156.4430  130.7870  151.2892 LP  0  0  0  0  0  0  0  0  0  0  0  0  # atno 17371 bound_to 10713
  140.5609  134.5935  157.5433 LP  0  0  0  0  0  0  0  0  0  0  0  0  # atno 17394 bound_to 11000
  139.9554  134.7543  156.0353 LP  0  0  0  0  0  0  0  0  0  0  0  0  # atno 17395 bound_to 11000

$$$$
