AV-unprocessed.smi:126|AV-procd|sdf|1151|dock9
  -GOLD-   2262018283D 1   1.00000     0.00000
 Structure written by MMmdl.
 40 42  0  0  0  0  0  0  0  0  1 V2000
  150.4583  140.2564  156.3964 O   0  0  0  0  0  0  0  0  0  0  0  0
  149.8549  141.2752  156.0566 C   0  0  0  0  0  0  0  0  0  0  0  0
  148.7092  141.1971  155.0353 C   0  0  0  0  0  0  0  0  0  0  0  0
  147.4249  141.7228  155.5477 N   0  0  0  0  0  0  0  0  0  0  0  0
  146.6806  142.6178  154.7398 C   0  0  0  0  0  0  0  0  0  0  0  0
  147.0871  142.9668  153.6307 O   0  0  0  0  0  0  0  0  0  0  0  0
  145.4189  143.0785  155.3084 C   0  0  0  0  0  0  0  0  0  0  0  0
  144.6502  143.9355  154.6150 F   0  0  0  0  0  0  0  0  0  0  0  0
  145.0083  142.6580  156.5227 C   0  0  0  0  0  0  0  0  0  0  0  0
  145.7407  141.7753  157.2959 N   0  0  0  0  0  0  0  0  0  0  0  0
  145.2580  141.3018  158.6495 C   0  0  2  0  0  0  0  0  0  0  0  0
  143.8779  141.9022  158.9705 C   0  0  0  0  0  0  0  0  0  0  0  0
  144.0710  142.4415  160.3733 C   0  0  0  0  0  0  0  0  0  0  0  0
  145.5476  142.8079  160.3659 C   0  0  0  0  0  0  0  0  0  0  0  0
  146.1400  141.7337  159.6468 O   0  0  0  0  0  0  0  0  0  0  0  0
  146.9738  141.2847  156.8154 C   0  0  0  0  0  0  0  0  0  0  0  0
  147.6355  140.4871  157.4836 O   0  0  0  0  0  0  0  0  0  0  0  0
  150.1446  142.5140  156.4947 N   0  0  0  0  0  0  0  0  0  0  0  0
  151.1243  142.9136  157.4434 C   0  0  0  0  0  0  0  0  0  0  0  0
  151.5374  144.2625  157.4167 C   0  0  0  0  0  0  0  0  0  0  0  0
  152.4907  144.7363  158.3386 C   0  0  0  0  0  0  0  0  0  0  0  0
  153.0311  143.8656  159.3033 C   0  0  0  0  0  0  0  0  0  0  0  0
  152.6124  142.5226  159.3490 C   0  0  0  0  0  0  0  0  0  0  0  0
  151.6591  142.0467  158.4277 C   0  0  0  0  0  0  0  0  0  0  0  0
  149.0047  141.7314  154.1304 H   0  0  0  0  0  0  0  0  0  0  0  0
  148.6140  140.1604  154.7091 H   0  0  0  0  0  0  0  0  0  0  0  0
  144.0660  143.0374  156.8866 H   0  0  0  0  0  0  0  0  0  0  0  0
  145.2726  140.2112  158.6099 H   0  0  0  0  0  0  0  0  0  0  0  0
  143.6508  142.7151  158.2788 H   0  0  0  0  0  0  0  0  0  0  0  0
  143.0948  141.1468  158.9002 H   0  0  0  0  0  0  0  0  0  0  0  0
  143.4212  143.2868  160.6001 H   0  0  0  0  0  0  0  0  0  0  0  0
  143.8838  141.6565  161.1071 H   0  0  0  0  0  0  0  0  0  0  0  0
  145.7101  143.7489  159.8389 H   0  0  0  0  0  0  0  0  0  0  0  0
  145.9661  142.8979  161.3686 H   0  0  0  0  0  0  0  0  0  0  0  0
  149.6379  143.2671  156.0526 H   0  0  0  0  0  0  0  0  0  0  0  0
  151.1273  144.9407  156.6826 H   0  0  0  0  0  0  0  0  0  0  0  0
  152.8058  145.7688  158.3066 H   0  0  0  0  0  0  0  0  0  0  0  0
  153.7609  144.2288  160.0118 H   0  0  0  0  0  0  0  0  0  0  0  0
  153.0184  141.8566  160.0960 H   0  0  0  0  0  0  0  0  0  0  0  0
  151.3429  141.0179  158.5048 H   0  0  0  0  0  0  0  0  0  0  0  0
  1  2  2  0  0  0  0
  2  3  1  0  0  0  0
  2 18  1  0  0  0  0
  3  4  1  0  0  0  0
  3 25  1  0  0  0  0
  3 26  1  0  0  0  0
  4 16  1  0  0  0  0
  4  5  1  0  0  0  0
  5  6  2  0  0  0  0
  5  7  1  0  0  0  0
  7  8  1  0  0  0  0
  7  9  2  0  0  0  0
  9 10  1  0  0  0  0
  9 27  1  0  0  0  0
 10 11  1  0  0  0  0
 10 16  1  0  0  0  0
 11 15  1  0  0  0  0
 11 12  1  0  0  0  0
 11 28  1  0  0  0  0
 12 13  1  0  0  0  0
 12 29  1  0  0  0  0
 12 30  1  0  0  0  0
 13 14  1  0  0  0  0
 13 31  1  0  0  0  0
 13 32  1  0  0  0  0
 14 15  1  0  0  0  0
 14 33  1  0  0  0  0
 14 34  1  0  0  0  0
 16 17  2  0  0  0  0
 18 19  1  0  0  0  0
 18 35  1  0  0  0  0
 19 24  1  0  0  0  0
 19 20  2  0  0  0  0
 20 21  1  0  0  0  0
 20 36  1  0  0  0  0
 21 22  2  0  0  0  0
 21 37  1  0  0  0  0
 22 23  1  0  0  0  0
 22 38  1  0  0  0  0
 23 24  2  0  0  0  0
 23 39  1  0  0  0  0
 24 40  1  0  0  0  0
M  END
> <s_m_source_file>
AV-unprocessed.smi

> <i_m_source_file_index>
126

> <i_lp_mmshare_version>
43012

> <i_f3d_flags>
0

> <s_epik_input>
W2NIXTFbY0hdW2NIXVtjSF1bY0hdYzFbTkhdQyg9TylbQ0gyXW4yYyg9TyljKEYpW2NIXW4oYzI9TylbQ0BASF0zW0NIMl1bQ0gyXVtDSDJdTzM=

> <s_epik_cmdline>
J2VwaWtfcHl0aG9uJywgJy1waCcsICc3LjAnLCAnLXRuJywgJzgnLCAnLW1hJywgJzIwMCcsICctbWV0YWxfYmluZGluZycsICctaW1hZScsICc8aW5maWxlLm1hZT4nLCAnLW9tYWUnLCAnPG91dGZpbGUubWFlPic=

> <r_lp_tautomer_probability>
1

> <r_epik_Ionization_Penalty>
1.86934e-06

> <r_epik_Ionization_Penalty_Charging>
3.88729e-08

> <r_epik_Ionization_Penalty_Neutral>
1.83046e-06

> <r_epik_State_Penalty>
-0

> <r_epik_Charging_Adjusted_Penalty>
3.88729e-08

> <i_epik_Tot_Q>
0

> <i_epik_Tot_abs_Q>
0

> <r_epik_Metal_State_Penalty>
-0

> <b_epik_Metal_Only>
0

> <s_epik_Chemistry_Notes>
This compound contains an acetal/aminal-like group ( X-CH(R)-Y where X, Y are N, S, or O) that may be acid/base labile, releasing an aldehyde.

> <s_lp_Force_Field>
OPLS_2005

> <r_lp_Energy>
33.0924

> <b_lp_Chiralities_Consistent>
1

> <s_lp_Variant>
AV-unprocessed.smi:126-1

> <Gold.Version>
5.8.1

> <Gold.Id.Protein>
6NUR|6NUR_protein|mol2

> <Gold.PLP.Fitness>
45.3879

> <Gold.PLP.PLP>
-39.3759

> <Gold.PLP.part.hbond>
-3.2395

> <Gold.PLP.part.metal>
0.0000

> <Gold.PLP.part.buried>
-2.0705

> <Gold.PLP.part.nonpolar>
-34.6581

> <Gold.PLP.part.repulsive>
0.2870

> <Gold.PLP.ligand.clash>
0.0000

> <Gold.PLP.ligand.torsion>
0.2551

> <Gold.PLP.Chemscore.Hbond>
2.1690

> <Gold.PLP.Chemscore.CHOScore>
0.0000

> <Gold.PLP.Chemscore.Metal>
0.0000

> <Gold.Chemscore.Hbonds>
donor molecule, donor type, donor heavy atom, donor atom, acceptor molecule, acceptor atom, score
      L1  H    18    35       P1  8028  1.00
      P1  H  6934  6946       L1    15  1.00
      P1  H  8022  8030       L1     6  0.11

> <Gold.PLP.Chemscore.Internal.Correction>
0.0153

> <Gold.Rescore>
     Score         DG    S(hbond)    S(metal)    S(lipo)     H(rot)  DE(clash)    DE(int)     intcor
     15.46     -18.81       2.10        0.00      90.36       1.66       1.22       2.12       ----

> <Gold.Chemscore.Fitness>
15.4616

> <Gold.Chemscore.DG>
-18.8074

> <Gold.Chemscore.ZeroCoef>
-5.4800

> <Gold.Chemscore.Hbond>
2.0990

> <Gold.Chemscore.Metal>
0.0000

> <Gold.Chemscore.Lipo>
90.3562

> <Gold.Chemscore.Internal_Hbond>
0.0000

> <Gold.Chemscore.DEClash>
1.2246

> <Gold.Chemscore.DEInternal>
2.1212

> <Gold.Chemscore.Rot>
1.6621

> <Gold.Chemscore.Internal.Correction>
   9.000000E+99

> <Gold.Chemscore.Hbonds>
donor molecule, donor type, donor heavy atom, donor atom, acceptor molecule, acceptor atom, score
      L1  H    18    35       P1  8028  1.00
      P1  H  6934  6946       L1    15  0.58
      P1  H  8022  8030       L1     6  0.11

> <Gold.Chemscore.Hbond.Weighted>
-7.0107

> <Gold.Chemscore.Metal.Weighted>
-0.0000

> <Gold.Chemscore.Lipo.Weighted>
-10.5717

> <Gold.Chemscore.Internal_Hbond.Weighted>
0.0000

> <Gold.Chemscore.DEClash.Weighted>
1.2246

> <Gold.Chemscore.DEInternal.Weighted>
2.1212

> <Gold.Chemscore.Rot.Weighted>
4.2550

> <Gold.Chemscore.Internal.Correction.Weighted>
   9.000000E+99

> <Gold.Protein.RotatedTorsions>
[ 6907 6896 6895 6894 ] final  -87.82 input  -60.11 | X-H torsion
[ 7974 7965 7964 7962 ] final   13.00 input  175.53 | X-H torsion
[ 8008 7997 7996 7995 ] final -169.42 input   59.86 | X-H torsion
[ 10167 10162 10161 10158 ] final -178.44 input  -65.29 | X-H torsion
[ 10718 10713 10712 10709 ] final   60.70 input   66.30 | X-H torsion
[ 10763 10752 10751 10750 ] final   -3.32 input  -60.55 | X-H torsion
[ 11005 11000 10999 10996 ] final  -66.26 input  -57.11 | X-H torsion

> <Gold.Protein.ActiveResidues>
 VAL166  LYS551  ARG553  GLY616  TRP617  ASP618  TYR619  PRO620  LYS621  CYS622 
 ASP623  PHE694  ASN695  SER759  ASP760  ASP761  ALA762  ILE779  LEU786  VAL792 
 PHE793  MET794  SER795  GLU796  ALA797  LYS798  CYS799  TRP800  GLU811  SER814 

> <Gold.Protein.RotatedAtoms>
  150.6867  134.2837  159.4637 H   0  0  0  0  0  0  0  0  0  0  0  0  # atno 6907 bound_to 6896
  152.0748  134.9507  160.0583 H   0  0  0  0  0  0  0  0  0  0  0  0  # atno 6908 bound_to 6896
  152.0883  133.4152  159.4569 H   0  0  0  0  0  0  0  0  0  0  0  0  # atno 6909 bound_to 6896
  146.2339  139.9253  142.8504 H   0  0  0  0  0  0  0  0  0  0  0  0  # atno 7974 bound_to 7965
  155.9048  140.1047  157.1323 H   0  0  0  0  0  0  0  0  0  0  0  0  # atno 8008 bound_to 7997
  154.4031  140.1285  156.4546 H   0  0  0  0  0  0  0  0  0  0  0  0  # atno 8009 bound_to 7997
  155.7381  140.3467  155.5093 H   0  0  0  0  0  0  0  0  0  0  0  0  # atno 8010 bound_to 7997
  139.5432  144.2306  152.0937 H   0  0  0  0  0  0  0  0  0  0  0  0  # atno 10167 bound_to 10162
  157.5773  130.8954  149.9369 H   0  0  0  0  0  0  0  0  0  0  0  0  # atno 10718 bound_to 10713
  153.3698  135.6994  153.6647 H   0  0  0  0  0  0  0  0  0  0  0  0  # atno 10763 bound_to 10752
  153.5301  135.3594  155.2672 H   0  0  0  0  0  0  0  0  0  0  0  0  # atno 10764 bound_to 10752
  154.8679  135.4179  154.2973 H   0  0  0  0  0  0  0  0  0  0  0  0  # atno 10765 bound_to 10752
  141.1477  133.6696  156.6113 H   0  0  0  0  0  0  0  0  0  0  0  0  # atno 11005 bound_to 11000
  145.2097  140.9890  143.4108 LP  0  0  0  0  0  0  0  0  0  0  0  0  # atno 17320 bound_to 7965
  144.9702  139.3888  143.6313 LP  0  0  0  0  0  0  0  0  0  0  0  0  # atno 17321 bound_to 7965
  140.1788  144.4865  150.6540 LP  0  0  0  0  0  0  0  0  0  0  0  0  # atno 17342 bound_to 10162
  140.6671  143.2272  151.5717 LP  0  0  0  0  0  0  0  0  0  0  0  0  # atno 17343 bound_to 10162
  156.0818  130.3672  150.0566 LP  0  0  0  0  0  0  0  0  0  0  0  0  # atno 17370 bound_to 10713
  156.8710  130.9524  151.3609 LP  0  0  0  0  0  0  0  0  0  0  0  0  # atno 17371 bound_to 10713
  140.3612  134.7686  157.4535 LP  0  0  0  0  0  0  0  0  0  0  0  0  # atno 17394 bound_to 11000
  140.0783  134.5766  155.8567 LP  0  0  0  0  0  0  0  0  0  0  0  0  # atno 17395 bound_to 11000

$$$$
