AV-unprocessed.smi:877|AV-procd|sdf|4027|dock4
  -GOLD-   22720 1513D 1   1.00000     0.00000
 Structure written by MMmdl.
 43 45  0  0  0  0  0  0  0  0  1 V2000
  153.5170  142.2176  160.2607 C   0  0  0  0  0  0  0  0  0  0  0  0
  153.7318  140.8638  159.8901 O   0  0  0  0  0  0  0  0  0  0  0  0
  152.6540  140.1387  159.4291 C   0  0  0  0  0  0  0  0  0  0  0  0
  151.4805  140.7161  158.8817 C   0  0  0  0  0  0  0  0  0  0  0  0
  150.4257  139.8984  158.4322 C   0  0  0  0  0  0  0  0  0  0  0  0
  150.5243  138.4953  158.5225 C   0  0  0  0  0  0  0  0  0  0  0  0
  149.3870  137.6126  158.0381 C   0  0  0  0  0  0  0  0  0  0  0  0
  148.8069  136.7482  159.1236 C   0  0  0  0  0  0  0  0  0  0  0  0
  148.6213  137.2084  160.3627 N   0  0  0  0  0  0  0  0  0  0  0  0
  148.0823  136.1198  161.0184 C   0  0  0  0  0  0  0  0  0  0  0  0
  147.6602  135.9717  162.3590 C   0  0  0  0  0  0  0  0  0  0  0  0
  147.1306  134.7446  162.8092 C   0  0  0  0  0  0  0  0  0  0  0  0
  147.0165  133.6506  161.9274 C   0  0  0  0  0  0  0  0  0  0  0  0
  147.4333  133.7768  160.5883 C   0  0  0  0  0  0  0  0  0  0  0  0
  147.9608  135.0041  160.1435 C   0  0  0  0  0  0  0  0  0  0  0  0
  148.4497  135.4534  158.9199 N   0  0  0  0  0  0  0  0  0  0  0  0
  148.5481  134.6656  157.6974 C   0  0  0  0  0  0  0  0  0  0  0  0
  147.9531  135.3861  156.4710 C   0  0  2  0  0  0  0  0  0  0  0  0
  146.6036  135.7177  156.7374 O   0  0  0  0  0  0  0  0  0  0  0  0
  148.0042  134.5031  155.2130 C   0  0  0  0  0  0  0  0  0  0  0  0
  147.4986  135.2097  154.1004 O   0  0  0  0  0  0  0  0  0  0  0  0
  151.6877  137.9161  159.0676 C   0  0  0  0  0  0  0  0  0  0  0  0
  152.7423  138.7343  159.5152 C   0  0  0  0  0  0  0  0  0  0  0  0
  154.4587  142.6524  160.5957 H   0  0  0  0  0  0  0  0  0  0  0  0
  152.8055  142.2977  161.0838 H   0  0  0  0  0  0  0  0  0  0  0  0
  153.1622  142.8102  159.4164 H   0  0  0  0  0  0  0  0  0  0  0  0
  151.3650  141.7857  158.7945 H   0  0  0  0  0  0  0  0  0  0  0  0
  149.5399  140.3553  158.0155 H   0  0  0  0  0  0  0  0  0  0  0  0
  148.6290  138.2609  157.6024 H   0  0  0  0  0  0  0  0  0  0  0  0
  149.7351  136.9646  157.2332 H   0  0  0  0  0  0  0  0  0  0  0  0
  147.7430  136.8042  163.0419 H   0  0  0  0  0  0  0  0  0  0  0  0
  146.8100  134.6428  163.8357 H   0  0  0  0  0  0  0  0  0  0  0  0
  146.6088  132.7140  162.2792 H   0  0  0  0  0  0  0  0  0  0  0  0
  147.3452  132.9401  159.9111 H   0  0  0  0  0  0  0  0  0  0  0  0
  149.5946  134.4115  157.5271 H   0  0  0  0  0  0  0  0  0  0  0  0
  148.0384  133.7144  157.8557 H   0  0  0  0  0  0  0  0  0  0  0  0
  148.5078  136.3072  156.2912 H   0  0  0  0  0  0  0  0  0  0  0  0
  146.4387  136.5883  156.4083 H   0  0  0  0  0  0  0  0  0  0  0  0
  149.0349  134.2286  154.9864 H   0  0  0  0  0  0  0  0  0  0  0  0
  147.4476  133.5756  155.3534 H   0  0  0  0  0  0  0  0  0  0  0  0
  148.2103  135.3581  153.4961 H   0  0  0  0  0  0  0  0  0  0  0  0
  151.7776  136.8424  159.1402 H   0  0  0  0  0  0  0  0  0  0  0  0
  153.6300  138.2786  159.9287 H   0  0  0  0  0  0  0  0  0  0  0  0
  1  2  1  0  0  0  0
  1 24  1  0  0  0  0
  1 25  1  0  0  0  0
  1 26  1  0  0  0  0
  2  3  1  0  0  0  0
  3 23  1  0  0  0  0
  3  4  2  0  0  0  0
  4  5  1  0  0  0  0
  4 27  1  0  0  0  0
  5  6  2  0  0  0  0
  5 28  1  0  0  0  0
  6  7  1  0  0  0  0
  6 22  1  0  0  0  0
  7  8  1  0  0  0  0
  7 29  1  0  0  0  0
  7 30  1  0  0  0  0
  8 16  1  0  0  0  0
  8  9  2  0  0  0  0
  9 10  1  0  0  0  0
 10 15  2  0  0  0  0
 10 11  1  0  0  0  0
 11 12  2  0  0  0  0
 11 31  1  0  0  0  0
 12 13  1  0  0  0  0
 12 32  1  0  0  0  0
 13 14  2  0  0  0  0
 13 33  1  0  0  0  0
 14 15  1  0  0  0  0
 14 34  1  0  0  0  0
 15 16  1  0  0  0  0
 16 17  1  0  0  0  0
 17 18  1  0  0  0  0
 17 35  1  0  0  0  0
 17 36  1  0  0  0  0
 18 19  1  0  0  0  0
 18 20  1  0  0  0  0
 18 37  1  0  0  0  0
 19 38  1  0  0  0  0
 20 21  1  0  0  0  0
 20 39  1  0  0  0  0
 20 40  1  0  0  0  0
 21 41  1  0  0  0  0
 22 23  2  0  0  0  0
 22 42  1  0  0  0  0
 23 43  1  0  0  0  0
M  END
> <s_m_source_file>
AV-unprocessed.smi

> <i_m_source_file_index>
877

> <i_lp_mmshare_version>
43012

> <i_f3d_flags>
0

> <s_epik_input>
W0NIM11PYzFbY0hdW2NIXWMoW2NIXVtjSF0xKVtDSDJdYyhuMiluKFtDSDJdW0NASF0oW09IXSlbQ0gyXVtPSF0pYyhjMjMpW2NIXVtjSF1bY0hdW2NIXTM=

> <s_epik_cmdline>
J2VwaWtfcHl0aG9uJywgJy1waCcsICc3LjAnLCAnLXRuJywgJzgnLCAnLW1hJywgJzIwMCcsICctbWV0YWxfYmluZGluZycsICctaW1hZScsICc8aW5maWxlLm1hZT4nLCAnLW9tYWUnLCAnPG91dGZpbGUubWFlPic=

> <r_lp_tautomer_probability>
1

> <r_epik_Ionization_Penalty>
0.0616669

> <r_epik_Ionization_Penalty_Charging>
0

> <r_epik_Ionization_Penalty_Neutral>
0.0616669

> <r_epik_State_Penalty>
0.0535415

> <r_epik_Charging_Adjusted_Penalty>
0.0535415

> <i_epik_Tot_Q>
0

> <i_epik_Tot_abs_Q>
0

> <r_epik_Metal_State_Penalty>
5.60326e-05

> <b_epik_Metal_Only>
0

> <s_lp_Force_Field>
OPLS_2005

> <r_lp_Energy>
20.6154

> <b_lp_Chiralities_Consistent>
1

> <s_lp_Variant>
AV-unprocessed.smi:877-1

> <Gold.Version>
5.8.1

> <Gold.Id.Protein>
6NUR|6NUR_protein|mol2

> <Gold.PLP.Fitness>
43.5304

> <Gold.PLP.PLP>
-39.7136

> <Gold.PLP.part.hbond>
-2.9827

> <Gold.PLP.part.metal>
0.0000

> <Gold.PLP.part.buried>
-5.8262

> <Gold.PLP.part.nonpolar>
-31.2327

> <Gold.PLP.part.repulsive>
0.0000

> <Gold.PLP.ligand.clash>
0.0000

> <Gold.PLP.ligand.torsion>
0.6933

> <Gold.PLP.Chemscore.Hbond>
1.7200

> <Gold.PLP.Chemscore.CHOScore>
0.0000

> <Gold.PLP.Chemscore.Metal>
0.0000

> <Gold.Chemscore.Hbonds>
donor molecule, donor type, donor heavy atom, donor atom, acceptor molecule, acceptor atom, score
      L1  H    21    41       P1  7948  1.00
      P1  H  6931  6943       L1     9  0.62
      P1  H  6934  6947       L1     9  0.08

> <Gold.PLP.Chemscore.Internal.Correction>
0.0434

> <Gold.Rescore>
     Score         DG    S(hbond)    S(metal)    S(lipo)     H(rot)  DE(clash)    DE(int)     intcor
     13.52     -14.13       1.65        0.00      95.59       3.15       0.02       0.59       ----

> <Gold.Chemscore.Fitness>
13.5205

> <Gold.Chemscore.DG>
-14.1250

> <Gold.Chemscore.ZeroCoef>
-5.4800

> <Gold.Chemscore.Hbond>
1.6531

> <Gold.Chemscore.Metal>
0.0000

> <Gold.Chemscore.Lipo>
95.5934

> <Gold.Chemscore.Internal_Hbond>
0.0000

> <Gold.Chemscore.DEClash>
0.0174

> <Gold.Chemscore.DEInternal>
0.5872

> <Gold.Chemscore.Rot>
3.1488

> <Gold.Chemscore.Internal.Correction>
   9.000000E+99

> <Gold.Chemscore.Hbonds>
donor molecule, donor type, donor heavy atom, donor atom, acceptor molecule, acceptor atom, score
      L1  H    21    41       P1  7948  0.94
      P1  H  6931  6943       L1     9  0.14
      P1  H  6934  6947       L1     9  0.04

> <Gold.Chemscore.Hbond.Weighted>
-5.5215

> <Gold.Chemscore.Metal.Weighted>
-0.0000

> <Gold.Chemscore.Lipo.Weighted>
-11.1844

> <Gold.Chemscore.Internal_Hbond.Weighted>
0.0000

> <Gold.Chemscore.DEClash.Weighted>
0.0174

> <Gold.Chemscore.DEInternal.Weighted>
0.5872

> <Gold.Chemscore.Rot.Weighted>
8.0608

> <Gold.Chemscore.Internal.Correction.Weighted>
   9.000000E+99

> <Gold.Protein.RotatedTorsions>
[ 6907 6896 6895 6894 ] final   -4.91 input  -60.11 | X-H torsion
[ 7974 7965 7964 7962 ] final  106.17 input  175.53 | X-H torsion
[ 8008 7997 7996 7995 ] final -115.86 input   59.86 | X-H torsion
[ 10167 10162 10161 10158 ] final  -20.57 input  -65.29 | X-H torsion
[ 10718 10713 10712 10709 ] final  128.91 input   66.30 | X-H torsion
[ 10763 10752 10751 10750 ] final -148.75 input  -60.55 | X-H torsion
[ 11005 11000 10999 10996 ] final  155.55 input  -57.11 | X-H torsion

> <Gold.Protein.ActiveResidues>
 VAL166  LYS551  ARG553  GLY616  TRP617  ASP618  TYR619  PRO620  LYS621  CYS622 
 ASP623  PHE694  ASN695  SER759  ASP760  ASP761  ALA762  ILE779  LEU786  VAL792 
 PHE793  MET794  SER795  GLU796  ALA797  LYS798  CYS799  TRP800  GLU811  SER814 

> <Gold.Protein.RotatedAtoms>
  151.4901  135.1057  159.9800 H   0  0  0  0  0  0  0  0  0  0  0  0  # atno 6907 bound_to 6896
  152.4744  133.8100  159.7009 H   0  0  0  0  0  0  0  0  0  0  0  0  # atno 6908 bound_to 6896
  150.8773  133.7359  159.2969 H   0  0  0  0  0  0  0  0  0  0  0  0  # atno 6909 bound_to 6896
  145.3102  139.2543  143.3767 H   0  0  0  0  0  0  0  0  0  0  0  0  # atno 7974 bound_to 7965
  155.0587  140.0393  157.2569 H   0  0  0  0  0  0  0  0  0  0  0  0  # atno 8008 bound_to 7997
  154.7077  140.2686  155.6634 H   0  0  0  0  0  0  0  0  0  0  0  0  # atno 8009 bound_to 7997
  156.2780  140.2728  156.1709 H   0  0  0  0  0  0  0  0  0  0  0  0  # atno 8010 bound_to 7997
  140.7277  143.4710  151.0247 H   0  0  0  0  0  0  0  0  0  0  0  0  # atno 10167 bound_to 10162
  157.5202  131.1098  150.9165 H   0  0  0  0  0  0  0  0  0  0  0  0  # atno 10718 bound_to 10713
  154.8216  135.3326  154.7022 H   0  0  0  0  0  0  0  0  0  0  0  0  # atno 10763 bound_to 10752
  153.7654  135.6929  153.4921 H   0  0  0  0  0  0  0  0  0  0  0  0  # atno 10764 bound_to 10752
  153.2081  135.4492  155.0296 H   0  0  0  0  0  0  0  0  0  0  0  0  # atno 10765 bound_to 10752
  140.1592  134.8621  157.2553 H   0  0  0  0  0  0  0  0  0  0  0  0  # atno 11005 bound_to 11000
  146.3121  140.3636  142.8667 LP  0  0  0  0  0  0  0  0  0  0  0  0  # atno 17320 bound_to 7965
  144.9022  140.7656  143.5860 LP  0  0  0  0  0  0  0  0  0  0  0  0  # atno 17321 bound_to 7965
  139.8402  143.7574  152.3180 LP  0  0  0  0  0  0  0  0  0  0  0  0  # atno 17342 bound_to 10162
  139.7720  144.7473  151.0210 LP  0  0  0  0  0  0  0  0  0  0  0  0  # atno 17343 bound_to 10162
  156.9778  130.5515  149.5294 LP  0  0  0  0  0  0  0  0  0  0  0  0  # atno 17370 bound_to 10713
  156.0348  130.5436  150.8626 LP  0  0  0  0  0  0  0  0  0  0  0  0  # atno 17371 bound_to 10713
  140.2510  134.3682  155.7442 LP  0  0  0  0  0  0  0  0  0  0  0  0  # atno 17394 bound_to 11000
  141.2207  133.7317  156.8936 LP  0  0  0  0  0  0  0  0  0  0  0  0  # atno 17395 bound_to 11000

$$$$
