AV-unprocessed.smi:3330|AV-procd|sdf|12806|dock3
  -GOLD-   2272019173D 1   1.00000     0.00000
 Structure written by MMmdl.
 38 39  0  0  0  0  0  0  0  0  1 V2000
  145.7714  137.8444  155.2743 C   0  0  0  0  0  0  0  0  0  0  0  0
  146.1538  137.7511  153.7808 C   0  0  1  0  0  0  0  0  0  0  0  0
  147.6079  137.7049  153.6703 N   0  0  0  0  0  0  0  0  0  0  0  0
  148.1980  139.0364  153.6562 C   0  0  0  0  0  0  0  0  0  0  0  0
  149.6446  138.9816  154.1789 C   0  0  0  0  0  0  0  0  0  0  0  0
  149.9827  140.1603  154.9851 N   0  0  0  0  0  0  0  0  0  0  0  0
  150.7719  140.1364  156.0676 C   0  0  0  0  0  0  0  0  0  0  0  0
  151.3473  139.1642  156.5559 O   0  0  0  0  0  0  0  0  0  0  0  0
  150.8539  141.5378  156.6325 C   0  0  0  0  0  0  0  0  0  0  0  0
  150.0052  142.2240  155.6825 N   0  0  0  0  0  0  0  0  0  0  0  0
  149.5162  141.4001  154.7465 C   0  0  0  0  0  0  0  0  0  0  0  0
  148.7661  141.7353  153.8311 O   0  0  0  0  0  0  0  0  0  0  0  0
  145.5717  136.4966  153.0753 C   0  0  2  0  0  0  0  0  0  0  0  0
  145.9222  136.4481  151.5749 C   0  0  0  0  0  0  0  0  0  0  0  0
  144.1291  136.3837  153.2563 N   0  0  0  0  0  0  0  0  0  0  0  0
  143.1340  137.1245  152.6518 C   0  0  0  0  0  0  0  0  0  0  0  0
  141.9374  136.6601  153.1176 C   0  0  0  0  0  0  0  0  0  0  0  0
  142.3054  135.6197  154.0152 C   0  0  0  0  0  0  0  0  0  0  0  0
  143.6157  135.4559  154.0965 N   0  0  0  0  0  0  0  0  0  0  0  0
  144.6939  137.9387  155.4072 H   0  0  0  0  0  0  0  0  0  0  0  0
  146.2189  138.7109  155.7596 H   0  0  0  0  0  0  0  0  0  0  0  0
  146.0958  136.9576  155.8198 H   0  0  0  0  0  0  0  0  0  0  0  0
  145.7794  138.6354  153.2627 H   0  0  0  0  0  0  0  0  0  0  0  0
  147.8622  137.2308  152.8152 H   0  0  0  0  0  0  0  0  0  0  0  0
  148.1972  139.4074  152.6307 H   0  0  0  0  0  0  0  0  0  0  0  0
  147.6099  139.7365  154.2486 H   0  0  0  0  0  0  0  0  0  0  0  0
  149.8116  138.0607  154.7407 H   0  0  0  0  0  0  0  0  0  0  0  0
  150.3290  138.9300  153.3306 H   0  0  0  0  0  0  0  0  0  0  0  0
  150.4493  141.5891  157.6437 H   0  0  0  0  0  0  0  0  0  0  0  0
  151.8742  141.9220  156.6124 H   0  0  0  0  0  0  0  0  0  0  0  0
  149.8077  143.2129  155.7346 H   0  0  0  0  0  0  0  0  0  0  0  0
  146.0087  135.6125  153.5431 H   0  0  0  0  0  0  0  0  0  0  0  0
  146.9997  136.4014  151.4166 H   0  0  0  0  0  0  0  0  0  0  0  0
  145.5496  137.3267  151.0474 H   0  0  0  0  0  0  0  0  0  0  0  0
  145.4880  135.5672  151.1011 H   0  0  0  0  0  0  0  0  0  0  0  0
  143.3577  137.9107  151.9457 H   0  0  0  0  0  0  0  0  0  0  0  0
  140.9498  137.0096  152.8558 H   0  0  0  0  0  0  0  0  0  0  0  0
  141.6638  134.9822  154.6053 H   0  0  0  0  0  0  0  0  0  0  0  0
  1  2  1  0  0  0  0
  1 20  1  0  0  0  0
  1 21  1  0  0  0  0
  1 22  1  0  0  0  0
  2  3  1  0  0  0  0
  2 13  1  0  0  0  0
  2 23  1  0  0  0  0
  3  4  1  0  0  0  0
  3 24  1  0  0  0  0
  4  5  1  0  0  0  0
  4 25  1  0  0  0  0
  4 26  1  0  0  0  0
  5  6  1  0  0  0  0
  5 27  1  0  0  0  0
  5 28  1  0  0  0  0
  6 11  1  0  0  0  0
  6  7  1  0  0  0  0
  7  8  2  0  0  0  0
  7  9  1  0  0  0  0
  9 10  1  0  0  0  0
  9 29  1  0  0  0  0
  9 30  1  0  0  0  0
 10 11  1  0  0  0  0
 10 31  1  0  0  0  0
 11 12  2  0  0  0  0
 13 14  1  0  0  0  0
 13 15  1  0  0  0  0
 13 32  1  0  0  0  0
 14 33  1  0  0  0  0
 14 34  1  0  0  0  0
 14 35  1  0  0  0  0
 15 19  1  0  0  0  0
 15 16  1  0  0  0  0
 16 17  2  0  0  0  0
 16 36  1  0  0  0  0
 17 18  1  0  0  0  0
 17 37  1  0  0  0  0
 18 19  2  0  0  0  0
 18 38  1  0  0  0  0
M  END
> <s_m_source_file>
AV-unprocessed.smi

> <i_m_source_file_index>
3330

> <i_lp_mmshare_version>
43012

> <i_f3d_flags>
0

> <s_epik_input>
bjFbY0hdW2NIXVtjSF1uMVtDQEBIXShbQ0gzXSlbQ0BIXShbQ0gzXSlbTkhdW0NIMl1bQ0gyXU4yQyg9TylbQ0gyXVtOSF1DMj1P

> <s_epik_cmdline>
J2VwaWtfcHl0aG9uJywgJy1waCcsICc3LjAnLCAnLXRuJywgJzgnLCAnLW1hJywgJzIwMCcsICctbWV0YWxfYmluZGluZycsICctaW1hZScsICc8aW5maWxlLm1hZT4nLCAnLW9tYWUnLCAnPG91dGZpbGUubWFlPic=

> <r_lp_tautomer_probability>
1

> <r_epik_Ionization_Penalty>
2.2997

> <r_epik_Ionization_Penalty_Charging>
0

> <r_epik_Ionization_Penalty_Neutral>
2.2997

> <r_epik_State_Penalty>
2.44917

> <r_epik_Charging_Adjusted_Penalty>
2.44917

> <i_epik_Tot_Q>
0

> <i_epik_Tot_abs_Q>
0

> <r_epik_Metal_State_Penalty>
2.52438

> <b_epik_Metal_Only>
0

> <s_lp_Force_Field>
OPLS_2005

> <r_lp_Energy>
29.8527

> <b_lp_Chiralities_Consistent>
1

> <s_lp_Variant>
AV-unprocessed.smi:3330-6

> <Gold.Version>
5.8.1

> <Gold.Id.Protein>
6NUR|6NUR_protein|mol2

> <Gold.PLP.Fitness>
41.9297

> <Gold.PLP.PLP>
-27.7297

> <Gold.PLP.part.hbond>
-3.0000

> <Gold.PLP.part.metal>
0.0000

> <Gold.PLP.part.buried>
-0.9379

> <Gold.PLP.part.nonpolar>
-23.4894

> <Gold.PLP.part.repulsive>
0.4089

> <Gold.PLP.ligand.clash>
0.0000

> <Gold.PLP.ligand.torsion>
1.3215

> <Gold.PLP.Chemscore.Hbond>
2.5520

> <Gold.PLP.Chemscore.CHOScore>
3.0000

> <Gold.PLP.Chemscore.Metal>
0.0000

> <Gold.Chemscore.Hbonds>
donor molecule, donor type, donor heavy atom, donor atom, acceptor molecule, acceptor atom, score
      L1  H     3    24       P1  7948  1.00
      L1  H    10    31       P1  8028  1.00
      P1  H  8011  8017       L1    12  0.59
      L1  C    16    36       P1 10171  1.00
      L1  C    16    36       P1 10175  0.83
      L1  C    18    38       P1 11000  0.88

> <Gold.PLP.Chemscore.Internal.Correction>
0.1870

> <Gold.Rescore>
     Score         DG    S(hbond)    S(metal)    S(lipo)     H(rot)  DE(clash)    DE(int)     intcor
      8.78     -11.87       2.32        0.00      45.09       2.60       0.56       2.52       ----

> <Gold.Chemscore.Fitness>
8.7846

> <Gold.Chemscore.DG>
-11.8671

> <Gold.Chemscore.ZeroCoef>
-5.4800

> <Gold.Chemscore.Hbond>
2.3219

> <Gold.Chemscore.Metal>
0.0000

> <Gold.Chemscore.Lipo>
45.0906

> <Gold.Chemscore.Internal_Hbond>
0.0000

> <Gold.Chemscore.DEClash>
0.5625

> <Gold.Chemscore.DEInternal>
2.5200

> <Gold.Chemscore.Rot>
2.5952

> <Gold.Chemscore.Internal.Correction>
   9.000000E+99

> <Gold.Chemscore.Hbonds>
donor molecule, donor type, donor heavy atom, donor atom, acceptor molecule, acceptor atom, score
      L1  H     3    24       P1  7948  0.96
      L1  H    10    31       P1  8028  0.99
      P1  H  8011  8017       L1    12  0.45

> <Gold.Chemscore.Hbond.Weighted>
-7.7552

> <Gold.Chemscore.Metal.Weighted>
-0.0000

> <Gold.Chemscore.Lipo.Weighted>
-5.2756

> <Gold.Chemscore.Internal_Hbond.Weighted>
0.0000

> <Gold.Chemscore.DEClash.Weighted>
0.5625

> <Gold.Chemscore.DEInternal.Weighted>
2.5200

> <Gold.Chemscore.Rot.Weighted>
6.6437

> <Gold.Chemscore.Internal.Correction.Weighted>
   9.000000E+99

> <Gold.Protein.RotatedTorsions>
[ 6907 6896 6895 6894 ] final  -47.07 input  -60.11 | X-H torsion
[ 7974 7965 7964 7962 ] final   63.62 input  175.53 | X-H torsion
[ 8008 7997 7996 7995 ] final -173.07 input   59.86 | X-H torsion
[ 10167 10162 10161 10158 ] final   84.36 input  -65.29 | X-H torsion
[ 10718 10713 10712 10709 ] final -179.84 input   66.30 | X-H torsion
[ 10763 10752 10751 10750 ] final   20.56 input  -60.55 | X-H torsion
[ 11005 11000 10999 10996 ] final -146.99 input  -57.11 | X-H torsion

> <Gold.Protein.ActiveResidues>
 VAL166  LYS551  ARG553  GLY616  TRP617  ASP618  TYR619  PRO620  LYS621  CYS622 
 ASP623  PHE694  ASN695  SER759  ASP760  ASP761  ALA762  ILE779  LEU786  VAL792 
 PHE793  MET794  SER795  GLU796  ALA797  LYS798  CYS799  TRP800  GLU811  SER814 

> <Gold.Protein.RotatedAtoms>
  150.9046  134.8460  159.7383 H   0  0  0  0  0  0  0  0  0  0  0  0  # atno 6907 bound_to 6896
  152.4911  134.4451  159.9566 H   0  0  0  0  0  0  0  0  0  0  0  0  # atno 6908 bound_to 6896
  151.4499  133.3581  159.2829 H   0  0  0  0  0  0  0  0  0  0  0  0  # atno 6909 bound_to 6896
  145.8597  139.3307  143.0826 H   0  0  0  0  0  0  0  0  0  0  0  0  # atno 7974 bound_to 7965
  155.9527  140.1129  157.0963 H   0  0  0  0  0  0  0  0  0  0  0  0  # atno 8008 bound_to 7997
  154.4113  140.1197  156.5141 H   0  0  0  0  0  0  0  0  0  0  0  0  # atno 8009 bound_to 7997
  155.6821  140.3473  155.4862 H   0  0  0  0  0  0  0  0  0  0  0  0  # atno 8010 bound_to 7997
  139.9089  144.6284  150.8558 H   0  0  0  0  0  0  0  0  0  0  0  0  # atno 10167 bound_to 10162
  156.8651  130.9765  151.3079 H   0  0  0  0  0  0  0  0  0  0  0  0  # atno 10718 bound_to 10713
  153.1067  135.6686  153.9573 H   0  0  0  0  0  0  0  0  0  0  0  0  # atno 10763 bound_to 10752
  153.9128  135.3023  155.3450 H   0  0  0  0  0  0  0  0  0  0  0  0  # atno 10764 bound_to 10752
  154.7488  135.5044  153.9328 H   0  0  0  0  0  0  0  0  0  0  0  0  # atno 10765 bound_to 10752
  140.7763  134.3131  157.5059 H   0  0  0  0  0  0  0  0  0  0  0  0  # atno 11005 bound_to 11000
  145.9262  140.9081  143.0380 LP  0  0  0  0  0  0  0  0  0  0  0  0  # atno 17320 bound_to 7965
  144.6727  140.1356  143.7440 LP  0  0  0  0  0  0  0  0  0  0  0  0  # atno 17321 bound_to 7965
  140.7690  143.3381  151.2267 LP  0  0  0  0  0  0  0  0  0  0  0  0  # atno 17342 bound_to 10162
  139.6960  143.9612  152.2883 LP  0  0  0  0  0  0  0  0  0  0  0  0  # atno 17343 bound_to 10162
  157.6228  130.8668  149.9137 LP  0  0  0  0  0  0  0  0  0  0  0  0  # atno 17370 bound_to 10713
  156.0756  130.3679  150.0685 LP  0  0  0  0  0  0  0  0  0  0  0  0  # atno 17371 bound_to 10713
  139.8748  134.9291  156.3468 LP  0  0  0  0  0  0  0  0  0  0  0  0  # atno 17394 bound_to 11000
  140.9526  133.7441  156.0292 LP  0  0  0  0  0  0  0  0  0  0  0  0  # atno 17395 bound_to 11000

$$$$
