AV-unprocessed.smi:2300|AV-procd|sdf|9233|dock9
  -GOLD-   2272012453D 1   1.00000     0.00000
 Structure written by MMmdl.
 51 52  0  0  0  0  0  0  0  0  1 V2000
  146.6809  138.7547  151.7077 C   0  0  0  0  0  0  0  0  0  0  0  0
  147.0205  139.4114  153.0421 C   0  0  0  0  0  0  0  0  0  0  0  0
  146.3654  139.1340  154.0461 O   0  0  0  0  0  0  0  0  0  0  0  0
  148.0409  140.2827  153.0409 N   0  0  0  0  0  0  0  0  0  0  0  0
  148.5113  141.0244  154.2058 C   0  0  0  0  0  0  0  0  0  0  0  0
  149.9397  140.6152  154.6029 C   0  0  1  0  0  0  0  0  0  0  0  0
  150.2362  140.9334  156.0804 C   0  0  0  0  0  0  0  0  0  0  0  0
  151.5633  140.4462  156.4511 N   0  0  0  0  0  0  0  0  0  0  0  0
  152.1101  140.8866  157.6750 C   0  0  0  0  0  0  0  0  0  0  0  0
  151.6859  142.0999  158.2664 C   0  0  0  0  0  0  0  0  0  0  0  0
  152.2834  142.4582  159.4935 C   0  0  0  0  0  0  0  0  0  0  0  0
  151.8935  143.7395  160.2169 C   0  0  0  0  0  0  0  0  0  0  0  0
  152.1833  144.9861  159.3670 C   0  0  0  0  0  0  0  0  0  0  0  0
  152.5300  143.8225  161.6131 C   0  0  0  0  0  0  0  0  0  0  0  0
  153.2200  141.6790  160.0787 N   0  0  0  0  0  0  0  0  0  0  0  0
  153.5510  140.5510  159.4457 C   0  0  0  0  0  0  0  0  0  0  0  0
  154.6081  139.6766  160.1074 C   0  0  0  0  0  0  0  0  0  0  0  0
  154.1087  138.2403  160.3279 C   0  0  0  0  0  0  0  0  0  0  0  0
  155.1708  140.3203  161.3844 C   0  0  0  0  0  0  0  0  0  0  0  0
  153.0471  140.1203  158.2849 N   0  0  0  0  0  0  0  0  0  0  0  0
  151.7774  139.0386  156.1275 C   0  0  0  0  0  0  0  0  0  0  0  0
  151.4110  138.7657  154.6587 C   0  0  0  0  0  0  0  0  0  0  0  0
  150.0834  139.2109  154.4011 O   0  0  0  0  0  0  0  0  0  0  0  0
  147.4661  138.9204  150.9690 H   0  0  0  0  0  0  0  0  0  0  0  0
  145.7492  139.1629  151.3152 H   0  0  0  0  0  0  0  0  0  0  0  0
  146.5571  137.6789  151.8355 H   0  0  0  0  0  0  0  0  0  0  0  0
  148.5187  140.4544  152.1681 H   0  0  0  0  0  0  0  0  0  0  0  0
  148.4667  142.0957  154.0017 H   0  0  0  0  0  0  0  0  0  0  0  0
  147.8253  140.8398  155.0330 H   0  0  0  0  0  0  0  0  0  0  0  0
  150.6546  141.1474  153.9722 H   0  0  0  0  0  0  0  0  0  0  0  0
  150.1762  142.0114  156.2356 H   0  0  0  0  0  0  0  0  0  0  0  0
  149.4890  140.4684  156.7252 H   0  0  0  0  0  0  0  0  0  0  0  0
  150.9273  142.7227  157.8166 H   0  0  0  0  0  0  0  0  0  0  0  0
  150.8135  143.7066  160.3665 H   0  0  0  0  0  0  0  0  0  0  0  0
  151.6705  144.9321  158.4061 H   0  0  0  0  0  0  0  0  0  0  0  0
  153.2500  145.0968  159.1696 H   0  0  0  0  0  0  0  0  0  0  0  0
  151.8447  145.8915  159.8713 H   0  0  0  0  0  0  0  0  0  0  0  0
  152.2564  142.9586  162.2195 H   0  0  0  0  0  0  0  0  0  0  0  0
  152.1982  144.7158  162.1428 H   0  0  0  0  0  0  0  0  0  0  0  0
  153.6184  143.8575  161.5549 H   0  0  0  0  0  0  0  0  0  0  0  0
  155.4460  139.6031  159.4114 H   0  0  0  0  0  0  0  0  0  0  0  0
  153.7886  137.7892  159.3883 H   0  0  0  0  0  0  0  0  0  0  0  0
  153.2632  138.2129  161.0160 H   0  0  0  0  0  0  0  0  0  0  0  0
  154.8958  137.6117  160.7447 H   0  0  0  0  0  0  0  0  0  0  0  0
  155.5814  141.3088  161.1762 H   0  0  0  0  0  0  0  0  0  0  0  0
  155.9697  139.7130  161.8101 H   0  0  0  0  0  0  0  0  0  0  0  0
  154.3993  140.4337  162.1469 H   0  0  0  0  0  0  0  0  0  0  0  0
  152.8103  138.7376  156.2961 H   0  0  0  0  0  0  0  0  0  0  0  0
  151.1571  138.4292  156.7859 H   0  0  0  0  0  0  0  0  0  0  0  0
  152.1102  139.2628  153.9841 H   0  0  0  0  0  0  0  0  0  0  0  0
  151.4732  137.6977  154.4494 H   0  0  0  0  0  0  0  0  0  0  0  0
  1  2  1  0  0  0  0
  1 24  1  0  0  0  0
  1 25  1  0  0  0  0
  1 26  1  0  0  0  0
  2  3  2  0  0  0  0
  2  4  1  0  0  0  0
  4  5  1  0  0  0  0
  4 27  1  0  0  0  0
  5  6  1  0  0  0  0
  5 28  1  0  0  0  0
  5 29  1  0  0  0  0
  6 23  1  0  0  0  0
  6  7  1  0  0  0  0
  6 30  1  0  0  0  0
  7  8  1  0  0  0  0
  7 31  1  0  0  0  0
  7 32  1  0  0  0  0
  8  9  1  0  0  0  0
  8 21  1  0  0  0  0
  9 20  1  0  0  0  0
  9 10  2  0  0  0  0
 10 11  1  0  0  0  0
 10 33  1  0  0  0  0
 11 12  1  0  0  0  0
 11 15  2  0  0  0  0
 12 13  1  0  0  0  0
 12 14  1  0  0  0  0
 12 34  1  0  0  0  0
 13 35  1  0  0  0  0
 13 36  1  0  0  0  0
 13 37  1  0  0  0  0
 14 38  1  0  0  0  0
 14 39  1  0  0  0  0
 14 40  1  0  0  0  0
 15 16  1  0  0  0  0
 16 17  1  0  0  0  0
 16 20  2  0  0  0  0
 17 18  1  0  0  0  0
 17 19  1  0  0  0  0
 17 41  1  0  0  0  0
 18 42  1  0  0  0  0
 18 43  1  0  0  0  0
 18 44  1  0  0  0  0
 19 45  1  0  0  0  0
 19 46  1  0  0  0  0
 19 47  1  0  0  0  0
 21 22  1  0  0  0  0
 21 48  1  0  0  0  0
 21 49  1  0  0  0  0
 22 23  1  0  0  0  0
 22 50  1  0  0  0  0
 22 51  1  0  0  0  0
M  END
> <s_m_source_file>
AV-unprocessed.smi

> <i_m_source_file_index>
2300

> <i_lp_mmshare_version>
43012

> <i_f3d_flags>
0

> <s_epik_input>
W0NIM11DKD1PKVtOSF1bQ0gyXVtDQEBIXTFbQ0gyXU4oW0NIMl1bQ0gyXU8xKWMyW2NIXWMoW0NIXShbQ0gzXSlbQ0gzXSluYyhuMilbQ0hdKFtDSDNdKVtDSDNd

> <s_epik_cmdline>
J2VwaWtfcHl0aG9uJywgJy1waCcsICc3LjAnLCAnLXRuJywgJzgnLCAnLW1hJywgJzIwMCcsICctbWV0YWxfYmluZGluZycsICctaW1hZScsICc8aW5maWxlLm1hZT4nLCAnLW9tYWUnLCAnPG91dGZpbGUubWFlPic=

> <r_lp_tautomer_probability>
1

> <r_epik_Ionization_Penalty>
0.0035465

> <r_epik_Ionization_Penalty_Charging>
0

> <r_epik_Ionization_Penalty_Neutral>
0.0035465

> <r_epik_State_Penalty>
0.00247846

> <r_epik_Charging_Adjusted_Penalty>
0.00247846

> <i_epik_Tot_Q>
0

> <i_epik_Tot_abs_Q>
0

> <r_epik_Metal_State_Penalty>
-0

> <b_epik_Metal_Only>
0

> <s_lp_Force_Field>
OPLS_2005

> <r_lp_Energy>
1.47364

> <b_lp_Chiralities_Consistent>
1

> <s_lp_Variant>
AV-unprocessed.smi:2300-2

> <Gold.Version>
5.8.1

> <Gold.Id.Protein>
6NUR|6NUR_protein|mol2

> <Gold.PLP.Fitness>
52.8718

> <Gold.PLP.PLP>
-48.1931

> <Gold.PLP.part.hbond>
-1.7835

> <Gold.PLP.part.metal>
0.0000

> <Gold.PLP.part.buried>
-3.9294

> <Gold.PLP.part.nonpolar>
-41.5201

> <Gold.PLP.part.repulsive>
0.4205

> <Gold.PLP.ligand.clash>
0.0000

> <Gold.PLP.ligand.torsion>
0.8980

> <Gold.PLP.Chemscore.Hbond>
2.0000

> <Gold.PLP.Chemscore.CHOScore>
0.0000

> <Gold.PLP.Chemscore.Metal>
0.0000

> <Gold.Chemscore.Hbonds>
donor molecule, donor type, donor heavy atom, donor atom, acceptor molecule, acceptor atom, score
      L1  H     4    27       P1  7957  0.98
      P1  H  7997  8010       L1    20  1.00

> <Gold.PLP.Chemscore.Internal.Correction>
0.4747

> <Gold.Rescore>
     Score         DG    S(hbond)    S(metal)    S(lipo)     H(rot)  DE(clash)    DE(int)     intcor
     17.86     -19.26       1.22        0.00     122.60       1.82       0.50       0.91       ----

> <Gold.Chemscore.Fitness>
17.8554

> <Gold.Chemscore.DG>
-19.2570

> <Gold.Chemscore.ZeroCoef>
-5.4800

> <Gold.Chemscore.Hbond>
1.2217

> <Gold.Chemscore.Metal>
0.0000

> <Gold.Chemscore.Lipo>
122.6032

> <Gold.Chemscore.Internal_Hbond>
0.0000

> <Gold.Chemscore.DEClash>
0.4964

> <Gold.Chemscore.DEInternal>
0.9053

> <Gold.Chemscore.Rot>
1.8156

> <Gold.Chemscore.Internal.Correction>
   9.000000E+99

> <Gold.Chemscore.Hbonds>
donor molecule, donor type, donor heavy atom, donor atom, acceptor molecule, acceptor atom, score
      L1  H     4    27       P1  7957  0.87
      P1  H  7997  8010       L1    20  0.25

> <Gold.Chemscore.Hbond.Weighted>
-4.0805

> <Gold.Chemscore.Metal.Weighted>
-0.0000

> <Gold.Chemscore.Lipo.Weighted>
-14.3446

> <Gold.Chemscore.Internal_Hbond.Weighted>
0.0000

> <Gold.Chemscore.DEClash.Weighted>
0.4964

> <Gold.Chemscore.DEInternal.Weighted>
0.9053

> <Gold.Chemscore.Rot.Weighted>
4.6481

> <Gold.Chemscore.Internal.Correction.Weighted>
   9.000000E+99

> <Gold.Protein.RotatedTorsions>
[ 6907 6896 6895 6894 ] final  -90.13 input  -60.11 | X-H torsion
[ 7974 7965 7964 7962 ] final   14.31 input  175.53 | X-H torsion
[ 8008 7997 7996 7995 ] final   34.51 input   59.86 | X-H torsion
[ 10167 10162 10161 10158 ] final  -62.72 input  -65.29 | X-H torsion
[ 10718 10713 10712 10709 ] final  150.03 input   66.30 | X-H torsion
[ 10763 10752 10751 10750 ] final  -61.53 input  -60.55 | X-H torsion
[ 11005 11000 10999 10996 ] final  -43.65 input  -57.11 | X-H torsion

> <Gold.Protein.ActiveResidues>
 VAL166  LYS551  ARG553  GLY616  TRP617  ASP618  TYR619  PRO620  LYS621  CYS622 
 ASP623  PHE694  ASN695  SER759  ASP760  ASP761  ALA762  ILE779  LEU786  VAL792 
 PHE793  MET794  SER795  GLU796  ALA797  LYS798  CYS799  TRP800  GLU811  SER814 

> <Gold.Protein.RotatedAtoms>
  150.6879  134.2480  159.4498 H   0  0  0  0  0  0  0  0  0  0  0  0  # atno 6907 bound_to 6896
  152.0419  134.9703  160.0583 H   0  0  0  0  0  0  0  0  0  0  0  0  # atno 6908 bound_to 6896
  152.1202  133.4314  159.4708 H   0  0  0  0  0  0  0  0  0  0  0  0  # atno 6909 bound_to 6896
  146.2308  139.9060  142.8532 H   0  0  0  0  0  0  0  0  0  0  0  0  # atno 7974 bound_to 7965
  155.1559  140.3279  155.4421 H   0  0  0  0  0  0  0  0  0  0  0  0  # atno 8008 bound_to 7997
  156.2559  140.1968  156.6619 H   0  0  0  0  0  0  0  0  0  0  0  0  # atno 8009 bound_to 7997
  154.6439  140.0567  156.9864 H   0  0  0  0  0  0  0  0  0  0  0  0  # atno 8010 bound_to 7997
  140.5920  143.2343  151.6118 H   0  0  0  0  0  0  0  0  0  0  0  0  # atno 10167 bound_to 10162
  157.2886  131.0849  151.1479 H   0  0  0  0  0  0  0  0  0  0  0  0  # atno 10718 bound_to 10713
  154.2860  135.6262  153.5366 H   0  0  0  0  0  0  0  0  0  0  0  0  # atno 10763 bound_to 10752
  152.9859  135.5644  154.5442 H   0  0  0  0  0  0  0  0  0  0  0  0  # atno 10764 bound_to 10752
  154.5043  135.2873  155.1371 H   0  0  0  0  0  0  0  0  0  0  0  0  # atno 10765 bound_to 10752
  141.0398  133.6784  156.2763 H   0  0  0  0  0  0  0  0  0  0  0  0  # atno 11005 bound_to 11000
  145.2276  140.9960  143.4009 LP  0  0  0  0  0  0  0  0  0  0  0  0  # atno 17320 bound_to 7965
  144.9557  139.4034  143.6380 LP  0  0  0  0  0  0  0  0  0  0  0  0  # atno 17321 bound_to 7965
  139.5233  144.3135  152.0972 LP  0  0  0  0  0  0  0  0  0  0  0  0  # atno 17342 bound_to 10162
  140.2302  144.4377  150.6303 LP  0  0  0  0  0  0  0  0  0  0  0  0  # atno 17343 bound_to 10162
  157.2884  130.6784  149.6101 LP  0  0  0  0  0  0  0  0  0  0  0  0  # atno 17370 bound_to 10713
  155.9666  130.4428  150.5396 LP  0  0  0  0  0  0  0  0  0  0  0  0  # atno 17371 bound_to 10713
  140.6255  134.5318  157.5553 LP  0  0  0  0  0  0  0  0  0  0  0  0  # atno 17394 bound_to 11000
  139.9267  134.8042  156.1047 LP  0  0  0  0  0  0  0  0  0  0  0  0  # atno 17395 bound_to 11000

$$$$
