AV-unprocessed.smi:1608|AV-procd|sdf|6468|dock9
  -GOLD-   22720 7123D 1   1.00000     0.00000
 Structure written by MMmdl.
 42 43  0  0  0  0  0  0  0  0  1 V2000
  146.1506  131.5486  148.7078 C   0  0  0  0  0  0  0  0  0  0  0  0
  145.6732  132.3143  149.8619 N   0  0  0  0  0  0  0  0  0  0  0  0
  146.6328  132.9626  150.6618 C   0  0  0  0  0  0  0  0  0  0  0  0
  146.3042  133.6816  151.7503 C   0  0  0  0  0  0  0  0  0  0  0  0
  147.3411  134.2834  152.4769 N   0  0  0  0  0  0  0  0  0  0  0  0
  147.7420  134.0390  153.7379 C   0  0  0  0  0  0  0  0  0  0  0  0
  147.2779  133.1820  154.4894 O   0  0  0  0  0  0  0  0  0  0  0  0
  148.7517  134.8503  154.0849 N   0  0  0  0  0  0  0  0  0  0  0  0
  149.4431  134.8341  155.3706 C   0  0  1  0  0  0  0  0  0  0  0  0
  150.3781  133.6171  155.4682 C   0  0  0  0  0  0  0  0  0  0  0  0
  151.1379  133.6509  156.7988 C   0  0  0  0  0  0  0  0  0  0  0  0
  151.9055  134.9731  156.9703 C   0  0  0  0  0  0  0  0  0  0  0  0
  151.0209  136.1435  156.7985 N   0  0  0  0  0  0  0  0  0  0  0  0
  150.4365  137.0039  158.1939 S   0  0  0  0  0  0  0  0  0  0  0  0
  151.9640  137.5685  159.0495 C   0  0  0  0  0  0  0  0  0  0  0  0
  149.7128  138.1923  157.7173 O   0  0  0  0  0  0  0  0  0  0  0  0
  149.7534  136.0361  159.0658 O   0  0  0  0  0  0  0  0  0  0  0  0
  150.2355  136.1445  155.5478 C   0  0  0  0  0  0  0  0  0  0  0  0
  144.8868  133.7864  152.0652 C   0  0  0  0  0  0  0  0  0  0  0  0
  143.9627  133.1715  151.3010 C   0  0  0  0  0  0  0  0  0  0  0  0
  144.3370  132.3761  150.1290 C   0  0  0  0  0  0  0  0  0  0  0  0
  143.5021  131.8035  149.4285 O   0  0  0  0  0  0  0  0  0  0  0  0
  147.2378  131.5456  148.6236 H   0  0  0  0  0  0  0  0  0  0  0  0
  145.7527  131.9661  147.7819 H   0  0  0  0  0  0  0  0  0  0  0  0
  145.8289  130.5084  148.7771 H   0  0  0  0  0  0  0  0  0  0  0  0
  147.6555  132.8298  150.3384 H   0  0  0  0  0  0  0  0  0  0  0  0
  147.8569  134.9890  151.9720 H   0  0  0  0  0  0  0  0  0  0  0  0
  149.0724  135.5257  153.4067 H   0  0  0  0  0  0  0  0  0  0  0  0
  148.6992  134.7699  156.1648 H   0  0  0  0  0  0  0  0  0  0  0  0
  149.8093  132.6898  155.3912 H   0  0  0  0  0  0  0  0  0  0  0  0
  151.0871  133.6206  154.6391 H   0  0  0  0  0  0  0  0  0  0  0  0
  150.4386  133.5123  157.6222 H   0  0  0  0  0  0  0  0  0  0  0  0
  151.8336  132.8130  156.8482 H   0  0  0  0  0  0  0  0  0  0  0  0
  152.3944  135.0050  157.9436 H   0  0  0  0  0  0  0  0  0  0  0  0
  152.7001  135.0313  156.2257 H   0  0  0  0  0  0  0  0  0  0  0  0
  151.6848  138.1350  159.9375 H   0  0  0  0  0  0  0  0  0  0  0  0
  152.5436  138.2115  158.3895 H   0  0  0  0  0  0  0  0  0  0  0  0
  152.5600  136.7098  159.3533 H   0  0  0  0  0  0  0  0  0  0  0  0
  150.9257  136.2757  154.7132 H   0  0  0  0  0  0  0  0  0  0  0  0
  149.5635  137.0025  155.5268 H   0  0  0  0  0  0  0  0  0  0  0  0
  144.5337  134.3691  152.9003 H   0  0  0  0  0  0  0  0  0  0  0  0
  142.9173  133.2725  151.5533 H   0  0  0  0  0  0  0  0  0  0  0  0
  1  2  1  0  0  0  0
  1 23  1  0  0  0  0
  1 24  1  0  0  0  0
  1 25  1  0  0  0  0
  2 21  1  0  0  0  0
  2  3  1  0  0  0  0
  3  4  2  0  0  0  0
  3 26  1  0  0  0  0
  4  5  1  0  0  0  0
  4 19  1  0  0  0  0
  5  6  1  0  0  0  0
  5 27  1  0  0  0  0
  6  7  2  0  0  0  0
  6  8  1  0  0  0  0
  8  9  1  0  0  0  0
  8 28  1  0  0  0  0
  9 18  1  0  0  0  0
  9 10  1  0  0  0  0
  9 29  1  0  0  0  0
 10 11  1  0  0  0  0
 10 30  1  0  0  0  0
 10 31  1  0  0  0  0
 11 12  1  0  0  0  0
 11 32  1  0  0  0  0
 11 33  1  0  0  0  0
 12 13  1  0  0  0  0
 12 34  1  0  0  0  0
 12 35  1  0  0  0  0
 13 14  1  0  0  0  0
 13 18  1  0  0  0  0
 14 15  1  0  0  0  0
 14 16  2  0  0  0  0
 14 17  2  0  0  0  0
 15 36  1  0  0  0  0
 15 37  1  0  0  0  0
 15 38  1  0  0  0  0
 18 39  1  0  0  0  0
 18 40  1  0  0  0  0
 19 20  2  0  0  0  0
 19 41  1  0  0  0  0
 20 21  1  0  0  0  0
 20 42  1  0  0  0  0
 21 22  2  0  0  0  0
M  END
> <s_m_source_file>
AV-unprocessed.smi

> <i_m_source_file_index>
1608

> <i_lp_mmshare_version>
43012

> <i_f3d_flags>
0

> <s_epik_input>
Tz1jMVtjSF1bY0hdYyhbY0hdbjFbQ0gzXSlbTkhdQyg9TylbTkhdW0NAQEhdMltDSDJdW0NIMl1bQ0gyXU4oW0NIMl0yKVMoPU8pKD1PKVtDSDNd

> <s_epik_cmdline>
J2VwaWtfcHl0aG9uJywgJy1waCcsICc3LjAnLCAnLXRuJywgJzgnLCAnLW1hJywgJzIwMCcsICctbWV0YWxfYmluZGluZycsICctaW1hZScsICc8aW5maWxlLm1hZT4nLCAnLW9tYWUnLCAnPG91dGZpbGUubWFlPic=

> <r_lp_tautomer_probability>
1

> <r_epik_Ionization_Penalty>
2.44111e-05

> <r_epik_Ionization_Penalty_Charging>
5.7429e-06

> <r_epik_Ionization_Penalty_Neutral>
1.86682e-05

> <r_epik_State_Penalty>
-0

> <r_epik_Charging_Adjusted_Penalty>
5.7429e-06

> <i_epik_Tot_Q>
0

> <i_epik_Tot_abs_Q>
0

> <r_epik_Metal_State_Penalty>
-0

> <b_epik_Metal_Only>
0

> <s_lp_Force_Field>
OPLS_2005

> <r_lp_Energy>
11.6091

> <b_lp_Chiralities_Consistent>
1

> <s_lp_Variant>
AV-unprocessed.smi:1608-2

> <Gold.Version>
5.8.1

> <Gold.Id.Protein>
6NUR|6NUR_protein|mol2

> <Gold.PLP.Fitness>
43.1443

> <Gold.PLP.PLP>
-29.9849

> <Gold.PLP.part.hbond>
-4.0000

> <Gold.PLP.part.metal>
0.0000

> <Gold.PLP.part.buried>
1.0557

> <Gold.PLP.part.nonpolar>
-27.3983

> <Gold.PLP.part.repulsive>
0.7532

> <Gold.PLP.ligand.clash>
0.0000

> <Gold.PLP.ligand.torsion>
1.9356

> <Gold.PLP.Chemscore.Hbond>
3.9920

> <Gold.PLP.Chemscore.CHOScore>
1.0000

> <Gold.PLP.Chemscore.Metal>
0.0000

> <Gold.Chemscore.Hbonds>
donor molecule, donor type, donor heavy atom, donor atom, acceptor molecule, acceptor atom, score
      L1  H     5    27       P1  7948  1.00
      L1  H     8    28       P1  7948  1.00
      P1  H  6896  6909       L1    17  1.00
      P1  H 10785 10796       L1    22  0.99
      L1  C     3    26       P1 10747  1.00

> <Gold.PLP.Chemscore.Internal.Correction>
2.0546

> <Gold.Rescore>
     Score         DG    S(hbond)    S(metal)    S(lipo)     H(rot)  DE(clash)    DE(int)     intcor
     19.98     -23.18       3.81        0.00      64.33       1.00       1.28       1.93       ----

> <Gold.Chemscore.Fitness>
19.9789

> <Gold.Chemscore.DG>
-23.1846

> <Gold.Chemscore.ZeroCoef>
-5.4800

> <Gold.Chemscore.Hbond>
3.8139

> <Gold.Chemscore.Metal>
0.0000

> <Gold.Chemscore.Lipo>
64.3251

> <Gold.Chemscore.Internal_Hbond>
0.0000

> <Gold.Chemscore.DEClash>
1.2794

> <Gold.Chemscore.DEInternal>
1.9263

> <Gold.Chemscore.Rot>
1.0000

> <Gold.Chemscore.Internal.Correction>
   9.000000E+99

> <Gold.Chemscore.Hbonds>
donor molecule, donor type, donor heavy atom, donor atom, acceptor molecule, acceptor atom, score
      L1  H     5    27       P1  7948  0.63
      L1  H     8    28       P1  7948  0.57
      P1  H  6896  6909       L1    17  0.85
      P1  H 10785 10796       L1    22  0.94

> <Gold.Chemscore.Hbond.Weighted>
-12.7385

> <Gold.Chemscore.Metal.Weighted>
-0.0000

> <Gold.Chemscore.Lipo.Weighted>
-7.5260

> <Gold.Chemscore.Internal_Hbond.Weighted>
0.0000

> <Gold.Chemscore.DEClash.Weighted>
1.2794

> <Gold.Chemscore.DEInternal.Weighted>
1.9263

> <Gold.Chemscore.Rot.Weighted>
2.5600

> <Gold.Chemscore.Internal.Correction.Weighted>
   9.000000E+99

> <Gold.Protein.RotatedTorsions>
[ 6907 6896 6895 6894 ] final   66.19 input  -60.11 | X-H torsion
[ 7974 7965 7964 7962 ] final -110.93 input  175.53 | X-H torsion
[ 8008 7997 7996 7995 ] final   62.51 input   59.86 | X-H torsion
[ 10167 10162 10161 10158 ] final  -97.44 input  -65.29 | X-H torsion
[ 10718 10713 10712 10709 ] final  -58.51 input   66.30 | X-H torsion
[ 10763 10752 10751 10750 ] final   32.22 input  -60.55 | X-H torsion
[ 11005 11000 10999 10996 ] final   77.60 input  -57.11 | X-H torsion

> <Gold.Protein.ActiveResidues>
 VAL166  LYS551  ARG553  GLY616  TRP617  ASP618  TYR619  PRO620  LYS621  CYS622 
 ASP623  PHE694  ASN695  SER759  ASP760  ASP761  ALA762  ILE779  LEU786  VAL792 
 PHE793  MET794  SER795  GLU796  ALA797  LYS798  CYS799  TRP800  GLU811  SER814 

> <Gold.Protein.RotatedAtoms>
  152.4463  134.5487  159.9860 H   0  0  0  0  0  0  0  0  0  0  0  0  # atno 6907 bound_to 6896
  151.5572  133.3403  159.2972 H   0  0  0  0  0  0  0  0  0  0  0  0  # atno 6908 bound_to 6896
  150.8380  134.7694  159.6972 H   0  0  0  0  0  0  0  0  0  0  0  0  # atno 6909 bound_to 6896
  145.1622  140.8884  143.3584 H   0  0  0  0  0  0  0  0  0  0  0  0  # atno 7974 bound_to 7965
  155.6155  140.3495  155.4635 H   0  0  0  0  0  0  0  0  0  0  0  0  # atno 8008 bound_to 7997
  156.0121  140.1235  157.0467 H   0  0  0  0  0  0  0  0  0  0  0  0  # atno 8009 bound_to 7997
  154.4284  140.1079  156.5830 H   0  0  0  0  0  0  0  0  0  0  0  0  # atno 8010 bound_to 7997
  140.2834  143.3267  152.0418 H   0  0  0  0  0  0  0  0  0  0  0  0  # atno 10167 bound_to 10162
  156.1130  130.4173  150.0587 H   0  0  0  0  0  0  0  0  0  0  0  0  # atno 10718 bound_to 10713
  153.0274  135.6419  154.1320 H   0  0  0  0  0  0  0  0  0  0  0  0  # atno 10763 bound_to 10752
  154.1047  135.2857  155.3245 H   0  0  0  0  0  0  0  0  0  0  0  0  # atno 10764 bound_to 10752
  154.6373  135.5472  153.7812 H   0  0  0  0  0  0  0  0  0  0  0  0  # atno 10765 bound_to 10752
  139.9248  134.7696  156.1542 H   0  0  0  0  0  0  0  0  0  0  0  0  # atno 11005 bound_to 11000
  145.0319  139.3333  143.6020 LP  0  0  0  0  0  0  0  0  0  0  0  0  # atno 17320 bound_to 7965
  146.3481  139.9660  142.8712 LP  0  0  0  0  0  0  0  0  0  0  0  0  # atno 17321 bound_to 7965
  139.4956  144.6576  151.6538 LP  0  0  0  0  0  0  0  0  0  0  0  0  # atno 17342 bound_to 10162
  140.5793  143.9974  150.6259 LP  0  0  0  0  0  0  0  0  0  0  0  0  # atno 17343 bound_to 10162
  156.8546  130.9470  151.3623 LP  0  0  0  0  0  0  0  0  0  0  0  0  # atno 17370 bound_to 10713
  157.6312  130.8730  149.9277 LP  0  0  0  0  0  0  0  0  0  0  0  0  # atno 17371 bound_to 10713
  141.0797  133.6760  156.2310 LP  0  0  0  0  0  0  0  0  0  0  0  0  # atno 17394 bound_to 11000
  140.6369  134.5206  157.5565 LP  0  0  0  0  0  0  0  0  0  0  0  0  # atno 17395 bound_to 11000

$$$$
