AV-unprocessed.smi:2746|AV-procd|sdf|10572|dock7
  -GOLD-   2272015 23D 1   1.00000     0.00000
 Structure written by MMmdl.
 38 39  0  0  0  0  0  0  0  0  1 V2000
  152.3175  145.1727  158.6848 C   0  0  0  0  0  0  0  0  0  0  0  0
  152.2942  144.1192  159.5148 C   0  0  0  0  0  0  0  0  0  0  0  0
  152.6308  142.6967  159.1071 C   0  0  1  0  0  0  0  0  0  0  0  0
  152.5539  141.7445  160.3074 C   0  0  0  0  0  0  0  0  0  0  0  0
  151.7175  142.2385  158.0661 N   0  0  0  0  0  0  0  0  0  0  0  0
  151.7400  141.0267  157.4843 C   0  0  0  0  0  0  0  0  0  0  0  0
  152.5659  140.1572  157.7659 O   0  0  0  0  0  0  0  0  0  0  0  0
  150.7064  140.7956  156.4145 C   0  0  0  0  0  0  0  0  0  0  0  0
  149.4525  141.4451  156.4957 C   0  0  0  0  0  0  0  0  0  0  0  0
  148.4991  141.2301  155.4754 C   0  0  0  0  0  0  0  0  0  0  0  0
  147.2383  141.8420  155.4919 N   0  0  0  0  0  0  0  0  0  0  0  0
  146.9588  142.5764  156.7192 C   0  0  0  0  0  0  0  0  0  0  0  0
  145.5150  143.1083  156.6958 C   0  0  0  0  0  0  0  0  0  0  0  0
  145.3168  143.9032  155.5298 O   0  0  0  0  0  0  0  0  0  0  0  0
  145.5216  143.1574  154.3330 C   0  0  0  0  0  0  0  0  0  0  0  0
  146.9660  142.6284  154.2959 C   0  0  0  0  0  0  0  0  0  0  0  0
  148.8399  140.3760  154.4089 C   0  0  0  0  0  0  0  0  0  0  0  0
  150.1126  139.7753  154.4096 C   0  0  0  0  0  0  0  0  0  0  0  0
  151.0261  139.9768  155.3820 N   0  0  0  0  0  0  0  0  0  0  0  0
  152.5856  145.0606  157.6443 H   0  0  0  0  0  0  0  0  0  0  0  0
  152.0673  146.1626  159.0367 H   0  0  0  0  0  0  0  0  0  0  0  0
  152.0210  144.2707  160.5492 H   0  0  0  0  0  0  0  0  0  0  0  0
  153.6522  142.6723  158.7223 H   0  0  0  0  0  0  0  0  0  0  0  0
  153.2449  142.0497  161.0938 H   0  0  0  0  0  0  0  0  0  0  0  0
  152.8166  140.7266  160.0173 H   0  0  0  0  0  0  0  0  0  0  0  0
  151.5510  141.7208  160.7358 H   0  0  0  0  0  0  0  0  0  0  0  0
  151.0084  142.8889  157.7595 H   0  0  0  0  0  0  0  0  0  0  0  0
  149.2229  142.0983  157.3255 H   0  0  0  0  0  0  0  0  0  0  0  0
  147.1030  141.9239  157.5812 H   0  0  0  0  0  0  0  0  0  0  0  0
  147.6562  143.4088  156.8228 H   0  0  0  0  0  0  0  0  0  0  0  0
  144.7973  142.2865  156.7145 H   0  0  0  0  0  0  0  0  0  0  0  0
  145.3240  143.7181  157.5787 H   0  0  0  0  0  0  0  0  0  0  0  0
  144.8052  142.3362  154.2767 H   0  0  0  0  0  0  0  0  0  0  0  0
  145.3348  143.8027  153.4747 H   0  0  0  0  0  0  0  0  0  0  0  0
  147.6646  143.4642  154.2355 H   0  0  0  0  0  0  0  0  0  0  0  0
  147.1174  142.0149  153.4069 H   0  0  0  0  0  0  0  0  0  0  0  0
  148.1431  140.1839  153.6061 H   0  0  0  0  0  0  0  0  0  0  0  0
  150.4055  139.1155  153.6066 H   0  0  0  0  0  0  0  0  0  0  0  0
  1  2  2  0  0  0  0
  1 20  1  0  0  0  0
  1 21  1  0  0  0  0
  2  3  1  0  0  0  0
  2 22  1  0  0  0  0
  3  4  1  0  0  0  0
  3  5  1  0  0  0  0
  3 23  1  0  0  0  0
  4 24  1  0  0  0  0
  4 25  1  0  0  0  0
  4 26  1  0  0  0  0
  5  6  1  0  0  0  0
  5 27  1  0  0  0  0
  6  7  2  0  0  0  0
  6  8  1  0  0  0  0
  8 19  1  0  0  0  0
  8  9  2  0  0  0  0
  9 10  1  0  0  0  0
  9 28  1  0  0  0  0
 10 11  1  0  0  0  0
 10 17  2  0  0  0  0
 11 16  1  0  0  0  0
 11 12  1  0  0  0  0
 12 13  1  0  0  0  0
 12 29  1  0  0  0  0
 12 30  1  0  0  0  0
 13 14  1  0  0  0  0
 13 31  1  0  0  0  0
 13 32  1  0  0  0  0
 14 15  1  0  0  0  0
 15 16  1  0  0  0  0
 15 33  1  0  0  0  0
 15 34  1  0  0  0  0
 16 35  1  0  0  0  0
 16 36  1  0  0  0  0
 17 18  1  0  0  0  0
 17 37  1  0  0  0  0
 18 19  2  0  0  0  0
 18 38  1  0  0  0  0
M  END
> <s_m_source_file>
AV-unprocessed.smi

> <i_m_source_file_index>
2746

> <i_lp_mmshare_version>
43012

> <i_f3d_flags>
0

> <s_epik_input>
W0NIMl09W0NIXVtDQEhdKFtDSDNdKVtOSF1DKD1PKWMxW2NIXWMoW2NIXVtjSF1uMSlOMltDSDJdW0NIMl1PW0NIMl1bQ0gyXTI=

> <s_epik_cmdline>
J2VwaWtfcHl0aG9uJywgJy1waCcsICc3LjAnLCAnLXRuJywgJzgnLCAnLW1hJywgJzIwMCcsICctbWV0YWxfYmluZGluZycsICctaW1hZScsICc8aW5maWxlLm1hZT4nLCAnLW9tYWUnLCAnPG91dGZpbGUubWFlPic=

> <r_lp_tautomer_probability>
1

> <r_epik_Ionization_Penalty>
0.373275

> <r_epik_Ionization_Penalty_Charging>
0

> <r_epik_Ionization_Penalty_Neutral>
0.373275

> <r_epik_State_Penalty>
0.370855

> <r_epik_Charging_Adjusted_Penalty>
0.370855

> <i_epik_Tot_Q>
0

> <i_epik_Tot_abs_Q>
0

> <r_epik_Metal_State_Penalty>
0.225885

> <b_epik_Metal_Only>
0

> <s_lp_Force_Field>
OPLS_2005

> <r_lp_Energy>
21.8565

> <b_lp_Chiralities_Consistent>
1

> <s_lp_Variant>
AV-unprocessed.smi:2746-2

> <Gold.Version>
5.8.1

> <Gold.Id.Protein>
6NUR|6NUR_protein|mol2

> <Gold.PLP.Fitness>
41.5120

> <Gold.PLP.PLP>
-37.1356

> <Gold.PLP.part.hbond>
-2.0000

> <Gold.PLP.part.metal>
0.0000

> <Gold.PLP.part.buried>
-1.8485

> <Gold.PLP.part.nonpolar>
-33.9120

> <Gold.PLP.part.repulsive>
0.3643

> <Gold.PLP.ligand.clash>
0.0925

> <Gold.PLP.ligand.torsion>
0.4512

> <Gold.PLP.Chemscore.Hbond>
1.0000

> <Gold.PLP.Chemscore.CHOScore>
0.7476

> <Gold.PLP.Chemscore.Metal>
0.0000

> <Gold.Chemscore.Hbonds>
donor molecule, donor type, donor heavy atom, donor atom, acceptor molecule, acceptor atom, score
      P1  H  7997  8008       L1     7  0.77
      L1  C    18    38       P1  7957  0.34

> <Gold.PLP.Chemscore.Internal.Correction>
0.1286

> <Gold.Rescore>
     Score         DG    S(hbond)    S(metal)    S(lipo)     H(rot)  DE(clash)    DE(int)     intcor
     15.77     -16.43       0.95        0.00      94.34       1.27       0.21       0.45       ----

> <Gold.Chemscore.Fitness>
15.7696

> <Gold.Chemscore.DG>
-16.4303

> <Gold.Chemscore.ZeroCoef>
-5.4800

> <Gold.Chemscore.Hbond>
0.9505

> <Gold.Chemscore.Metal>
0.0000

> <Gold.Chemscore.Lipo>
94.3391

> <Gold.Chemscore.Internal_Hbond>
0.0000

> <Gold.Chemscore.DEClash>
0.2130

> <Gold.Chemscore.DEInternal>
0.4477

> <Gold.Chemscore.Rot>
1.2742

> <Gold.Chemscore.Internal.Correction>
   9.000000E+99

> <Gold.Chemscore.Hbonds>
donor molecule, donor type, donor heavy atom, donor atom, acceptor molecule, acceptor atom, score
      P1  H  7997  8008       L1     7  0.72

> <Gold.Chemscore.Hbond.Weighted>
-3.1745

> <Gold.Chemscore.Metal.Weighted>
-0.0000

> <Gold.Chemscore.Lipo.Weighted>
-11.0377

> <Gold.Chemscore.Internal_Hbond.Weighted>
0.0000

> <Gold.Chemscore.DEClash.Weighted>
0.2130

> <Gold.Chemscore.DEInternal.Weighted>
0.4477

> <Gold.Chemscore.Rot.Weighted>
3.2619

> <Gold.Chemscore.Internal.Correction.Weighted>
   9.000000E+99

> <Gold.Protein.RotatedTorsions>
[ 6907 6896 6895 6894 ] final -129.95 input  -60.11 | X-H torsion
[ 7974 7965 7964 7962 ] final  -44.36 input  175.53 | X-H torsion
[ 8008 7997 7996 7995 ] final  -62.83 input   59.86 | X-H torsion
[ 10167 10162 10161 10158 ] final  -80.73 input  -65.29 | X-H torsion
[ 10718 10713 10712 10709 ] final   34.70 input   66.30 | X-H torsion
[ 10763 10752 10751 10750 ] final -104.39 input  -60.55 | X-H torsion
[ 11005 11000 10999 10996 ] final  112.30 input  -57.11 | X-H torsion

> <Gold.Protein.ActiveResidues>
 VAL166  LYS551  ARG553  GLY616  TRP617  ASP618  TYR619  PRO620  LYS621  CYS622 
 ASP623  PHE694  ASN695  SER759  ASP760  ASP761  ALA762  ILE779  LEU786  VAL792 
 PHE793  MET794  SER795  GLU796  ALA797  LYS798  CYS799  TRP800  GLU811  SER814 

> <Gold.Protein.RotatedAtoms>
  150.9343  133.6730  159.2803 H   0  0  0  0  0  0  0  0  0  0  0  0  # atno 6907 bound_to 6896
  151.4141  135.0988  159.9603 H   0  0  0  0  0  0  0  0  0  0  0  0  # atno 6908 bound_to 6896
  152.5040  133.8810  159.7401 H   0  0  0  0  0  0  0  0  0  0  0  0  # atno 6909 bound_to 6896
  145.9928  140.7162  142.9308 H   0  0  0  0  0  0  0  0  0  0  0  0  # atno 7974 bound_to 7965
  154.4521  140.0988  156.6648 H   0  0  0  0  0  0  0  0  0  0  0  0  # atno 8008 bound_to 7997
  155.5253  140.3480  155.4396 H   0  0  0  0  0  0  0  0  0  0  0  0  # atno 8009 bound_to 7997
  156.0702  140.1347  156.9826 H   0  0  0  0  0  0  0  0  0  0  0  0  # atno 8010 bound_to 7997
  140.4476  143.2493  151.8536 H   0  0  0  0  0  0  0  0  0  0  0  0  # atno 10167 bound_to 10162
  157.3136  130.7412  149.6740 H   0  0  0  0  0  0  0  0  0  0  0  0  # atno 10718 bound_to 10713
  154.7875  135.4788  153.9978 H   0  0  0  0  0  0  0  0  0  0  0  0  # atno 10763 bound_to 10752
  153.1581  135.6803  153.8789 H   0  0  0  0  0  0  0  0  0  0  0  0  # atno 10764 bound_to 10752
  153.8412  135.3179  155.3404 H   0  0  0  0  0  0  0  0  0  0  0  0  # atno 10765 bound_to 10752
  139.8924  134.9527  156.6565 H   0  0  0  0  0  0  0  0  0  0  0  0  # atno 11005 bound_to 11000
  144.6894  140.3099  143.7250 LP  0  0  0  0  0  0  0  0  0  0  0  0  # atno 17320 bound_to 7965
  145.7605  139.1823  143.2270 LP  0  0  0  0  0  0  0  0  0  0  0  0  # atno 17321 bound_to 7965
  139.4794  144.5157  151.8871 LP  0  0  0  0  0  0  0  0  0  0  0  0  # atno 17342 bound_to 10162
  140.4245  144.2199  150.5887 LP  0  0  0  0  0  0  0  0  0  0  0  0  # atno 17343 bound_to 10162
  155.9680  130.4244  150.4606 LP  0  0  0  0  0  0  0  0  0  0  0  0  # atno 17370 bound_to 10713
  157.2609  131.0567  151.2321 LP  0  0  0  0  0  0  0  0  0  0  0  0  # atno 17371 bound_to 10713
  140.7480  133.8921  155.8326 LP  0  0  0  0  0  0  0  0  0  0  0  0  # atno 17394 bound_to 11000
  141.0024  134.1133  157.4304 LP  0  0  0  0  0  0  0  0  0  0  0  0  # atno 17395 bound_to 11000

$$$$
