AV-unprocessed.smi:2822|AV-procd|sdf|10861|dock1
  -GOLD-   2272015303D 1   1.00000     0.00000
 Structure written by MMmdl.
 41 43  0  0  0  0  0  0  0  0  3 V2000
  150.7121  138.9274  154.5028 Cl  0  0  0  0  0  0  0  0  0  0  0  0
  149.4376  140.0845  154.3413 C   0  0  0  0  0  0  0  0  0  0  0  0
  149.6125  141.3802  154.8698 C   0  0  0  0  0  0  0  0  0  0  0  0
  148.6286  142.2967  154.7510 N   0  3  0  0  0  0  0  0  0  0  0  0
  147.4556  142.0311  154.1385 C   0  0  0  0  0  0  0  0  0  0  0  0
  147.2218  140.7538  153.5892 C   0  0  0  0  0  0  0  0  0  0  0  0
  148.2245  139.7567  153.6867 C   0  0  0  0  0  0  0  0  0  0  0  0
  148.0538  138.4659  153.1628 N   0  0  0  0  0  0  0  0  0  0  0  0
  147.0886  138.1970  152.1077 C   0  0  0  0  0  0  0  0  0  0  0  0
  145.8316  137.4946  152.6598 C   0  0  1  0  0  0  0  0  0  0  0  0
  145.2793  136.4079  151.7171 C   0  0  0  0  0  0  0  0  0  0  0  0
  146.1458  135.2054  151.7058 N   0  3  2  0  0  0  0  0  0  0  0  0
  145.6420  134.1614  150.7772 C   0  0  0  0  0  0  0  0  0  0  0  0
  146.6001  132.9613  150.7172 C   0  0  0  0  0  0  0  0  0  0  0  0
  146.8320  132.3812  152.1175 C   0  0  0  0  0  0  0  0  0  0  0  0
  147.3296  133.4816  153.0634 C   0  0  0  0  0  0  0  0  0  0  0  0
  146.3680  134.6872  153.0826 C   0  0  1  0  0  0  0  0  0  0  0  0
  146.9107  135.8101  153.9860 C   0  0  0  0  0  0  0  0  0  0  0  0
  146.0410  136.9363  153.9571 O   0  0  0  0  0  0  0  0  0  0  0  0
  150.5055  141.7084  155.3815 H   0  0  0  0  0  0  0  0  0  0  0  0
  146.7429  142.8424  154.1074 H   0  0  0  0  0  0  0  0  0  0  0  0
  146.2754  140.5598  153.1069 H   0  0  0  0  0  0  0  0  0  0  0  0
  148.7284  137.7488  153.3922 H   0  0  0  0  0  0  0  0  0  0  0  0
  146.7961  139.1471  151.6589 H   0  0  0  0  0  0  0  0  0  0  0  0
  147.5563  137.6082  151.3188 H   0  0  0  0  0  0  0  0  0  0  0  0
  145.0567  138.2543  152.7709 H   0  0  0  0  0  0  0  0  0  0  0  0
  144.2784  136.1199  152.0425 H   0  0  0  0  0  0  0  0  0  0  0  0
  145.1784  136.8040  150.7057 H   0  0  0  0  0  0  0  0  0  0  0  0
  144.6520  133.8333  151.0981 H   0  0  0  0  0  0  0  0  0  0  0  0
  145.5269  134.5857  149.7792 H   0  0  0  0  0  0  0  0  0  0  0  0
  146.1949  132.1930  150.0580 H   0  0  0  0  0  0  0  0  0  0  0  0
  147.5522  133.2707  150.2838 H   0  0  0  0  0  0  0  0  0  0  0  0
  145.9032  131.9562  152.5002 H   0  0  0  0  0  0  0  0  0  0  0  0
  147.5549  131.5660  152.0734 H   0  0  0  0  0  0  0  0  0  0  0  0
  147.4415  133.0768  154.0702 H   0  0  0  0  0  0  0  0  0  0  0  0
  148.3232  133.8052  152.7494 H   0  0  0  0  0  0  0  0  0  0  0  0
  145.4051  134.3599  153.4796 H   0  0  0  0  0  0  0  0  0  0  0  0
  146.9791  135.4587  155.0158 H   0  0  0  0  0  0  0  0  0  0  0  0
  147.9206  136.0990  153.6939 H   0  0  0  0  0  0  0  0  0  0  0  0
  147.0470  135.4959  151.3547 H   0  0  0  0  0  0  0  0  0  0  0  0
  148.7775  143.2279  155.1412 H   0  0  0  0  0  0  0  0  0  0  0  0
  1  2  1  0  0  0  0
  2  7  1  0  0  0  0
  2  3  2  0  0  0  0
  3  4  1  0  0  0  0
  3 20  1  0  0  0  0
  4  5  2  0  0  0  0
  4 41  1  0  0  0  0
  5  6  1  0  0  0  0
  5 21  1  0  0  0  0
  6  7  2  0  0  0  0
  6 22  1  0  0  0  0
  7  8  1  0  0  0  0
  8  9  1  0  0  0  0
  8 23  1  0  0  0  0
  9 10  1  0  0  0  0
  9 24  1  0  0  0  0
  9 25  1  0  0  0  0
 10 19  1  0  0  0  0
 10 11  1  0  0  0  0
 10 26  1  0  0  0  0
 11 12  1  0  0  0  0
 11 27  1  0  0  0  0
 11 28  1  0  0  0  0
 12 17  1  0  0  0  0
 12 13  1  0  0  0  0
 12 40  1  0  0  0  0
 13 14  1  0  0  0  0
 13 29  1  0  0  0  0
 13 30  1  0  0  0  0
 14 15  1  0  0  0  0
 14 31  1  0  0  0  0
 14 32  1  0  0  0  0
 15 16  1  0  0  0  0
 15 33  1  0  0  0  0
 15 34  1  0  0  0  0
 16 17  1  0  0  0  0
 16 35  1  0  0  0  0
 16 36  1  0  0  0  0
 17 18  1  0  0  0  0
 17 37  1  0  0  0  0
 18 19  1  0  0  0  0
 18 38  1  0  0  0  0
 18 39  1  0  0  0  0
M  CHG  1   4   1
M  CHG  1  12   1
M  END
> <s_m_source_file>
AV-unprocessed.smi

> <i_m_source_file_index>
2822

> <i_lp_mmshare_version>
43012

> <i_f3d_flags>
0

> <s_epik_input>
Q2xjMVtjSF1uW2NIXVtjSF1jMVtOSF1bQ0gyXVtDQEhdKFtDSDJdMilPW0NIMl1bQ0BASF0oTjIzKVtDSDJdW0NIMl1bQ0gyXVtDSDJdMw==

> <s_epik_cmdline>
J2VwaWtfcHl0aG9uJywgJy1waCcsICc3LjAnLCAnLXRuJywgJzgnLCAnLW1hJywgJzIwMCcsICctbWV0YWxfYmluZGluZycsICctaW1hZScsICc8aW5maWxlLm1hZT4nLCAnLW9tYWUnLCAnPG91dGZpbGUubWFlPic=

> <r_lp_tautomer_probability>
1

> <r_epik_Ionization_Penalty>
0.254999

> <r_epik_Ionization_Penalty_Charging>
0.254956

> <r_epik_Ionization_Penalty_Neutral>
4.33524e-05

> <r_epik_State_Penalty>
0.230978

> <r_epik_Charging_Adjusted_Penalty>
0.485934

> <i_epik_Tot_Q>
2

> <i_epik_Tot_abs_Q>
2

> <r_epik_Metal_State_Penalty>
3.47007

> <b_epik_Metal_Only>
0

> <s_lp_Force_Field>
OPLS_2005

> <r_lp_Energy>
41.9056

> <b_lp_Chiralities_Consistent>
1

> <s_lp_Variant>
AV-unprocessed.smi:2822-2

> <Gold.Version>
5.8.1

> <Gold.Id.Protein>
6NUR|6NUR_protein|mol2

> <Gold.PLP.Fitness>
43.7889

> <Gold.PLP.PLP>
-33.0029

> <Gold.PLP.part.hbond>
-4.0000

> <Gold.PLP.part.metal>
0.0000

> <Gold.PLP.part.buried>
4.3452

> <Gold.PLP.part.nonpolar>
-33.4238

> <Gold.PLP.part.repulsive>
0.3960

> <Gold.PLP.ligand.clash>
0.0000

> <Gold.PLP.ligand.torsion>
0.7880

> <Gold.PLP.Chemscore.Hbond>
4.1170

> <Gold.PLP.Chemscore.CHOScore>
0.0000

> <Gold.PLP.Chemscore.Metal>
0.0000

> <Gold.Chemscore.Hbonds>
donor molecule, donor type, donor heavy atom, donor atom, acceptor molecule, acceptor atom, score
      L1  H     4    41       P1  8028  2.00
      L1  H     8    23       P1  7948  0.20
      L1  H    12    40       P1  7948  1.75

> <Gold.PLP.Chemscore.Internal.Correction>
0.0109

> <Gold.Rescore>
     Score         DG    S(hbond)    S(metal)    S(lipo)     H(rot)  DE(clash)    DE(int)     intcor
     16.24     -19.59       2.02        0.00      89.01       1.20       1.34       2.01       ----

> <Gold.Chemscore.Fitness>
16.2355

> <Gold.Chemscore.DG>
-19.5944

> <Gold.Chemscore.ZeroCoef>
-5.4800

> <Gold.Chemscore.Hbond>
2.0247

> <Gold.Chemscore.Metal>
0.0000

> <Gold.Chemscore.Lipo>
89.0097

> <Gold.Chemscore.Internal_Hbond>
0.0000

> <Gold.Chemscore.DEClash>
1.3446

> <Gold.Chemscore.DEInternal>
2.0143

> <Gold.Chemscore.Rot>
1.1962

> <Gold.Chemscore.Internal.Correction>
   9.000000E+99

> <Gold.Chemscore.Hbonds>
donor molecule, donor type, donor heavy atom, donor atom, acceptor molecule, acceptor atom, score
      L1  H     4    41       P1  8028  0.97
      L1  H     8    23       P1  7948  0.19
      L1  H    12    40       P1  7948  0.77

> <Gold.Chemscore.Hbond.Weighted>
-6.7625

> <Gold.Chemscore.Metal.Weighted>
-0.0000

> <Gold.Chemscore.Lipo.Weighted>
-10.4141

> <Gold.Chemscore.Internal_Hbond.Weighted>
0.0000

> <Gold.Chemscore.DEClash.Weighted>
1.3446

> <Gold.Chemscore.DEInternal.Weighted>
2.0143

> <Gold.Chemscore.Rot.Weighted>
3.0623

> <Gold.Chemscore.Internal.Correction.Weighted>
   9.000000E+99

> <Gold.Protein.RotatedTorsions>
[ 6907 6896 6895 6894 ] final -107.34 input  -60.11 | X-H torsion
[ 7974 7965 7964 7962 ] final  -55.29 input  175.53 | X-H torsion
[ 8008 7997 7996 7995 ] final  119.54 input   59.86 | X-H torsion
[ 10167 10162 10161 10158 ] final -165.22 input  -65.29 | X-H torsion
[ 10718 10713 10712 10709 ] final   62.60 input   66.30 | X-H torsion
[ 10763 10752 10751 10750 ] final   92.89 input  -60.55 | X-H torsion
[ 11005 11000 10999 10996 ] final  -58.42 input  -57.11 | X-H torsion

> <Gold.Protein.ActiveResidues>
 VAL166  LYS551  ARG553  GLY616  TRP617  ASP618  TYR619  PRO620  LYS621  CYS622 
 ASP623  PHE694  ASN695  SER759  ASP760  ASP761  ALA762  ILE779  LEU786  VAL792 
 PHE793  MET794  SER795  GLU796  ALA797  LYS798  CYS799  TRP800  GLU811  SER814 

> <Gold.Protein.RotatedAtoms>
  150.7439  133.9841  159.3585 H   0  0  0  0  0  0  0  0  0  0  0  0  # atno 6907 bound_to 6896
  151.7784  135.0766  160.0379 H   0  0  0  0  0  0  0  0  0  0  0  0  # atno 6908 bound_to 6896
  152.3291  133.5901  159.5833 H   0  0  0  0  0  0  0  0  0  0  0  0  # atno 6909 bound_to 6896
  145.8759  140.8181  142.9864 H   0  0  0  0  0  0  0  0  0  0  0  0  # atno 7974 bound_to 7965
  156.2601  140.2850  156.1008 H   0  0  0  0  0  0  0  0  0  0  0  0  # atno 8008 bound_to 7997
  155.1362  140.0394  157.2804 H   0  0  0  0  0  0  0  0  0  0  0  0  # atno 8009 bound_to 7997
  154.6563  140.2556  155.7164 H   0  0  0  0  0  0  0  0  0  0  0  0  # atno 8010 bound_to 7997
  139.6197  144.0649  152.1921 H   0  0  0  0  0  0  0  0  0  0  0  0  # atno 10167 bound_to 10162
  157.5912  130.9059  149.9609 H   0  0  0  0  0  0  0  0  0  0  0  0  # atno 10718 bound_to 10713
  153.2242  135.4345  155.0523 H   0  0  0  0  0  0  0  0  0  0  0  0  # atno 10763 bound_to 10752
  154.8265  135.3363  154.6883 H   0  0  0  0  0  0  0  0  0  0  0  0  # atno 10764 bound_to 10752
  153.7313  135.7011  153.5045 H   0  0  0  0  0  0  0  0  0  0  0  0  # atno 10765 bound_to 10752
  141.1206  133.6612  156.4917 H   0  0  0  0  0  0  0  0  0  0  0  0  # atno 11005 bound_to 11000
  144.6726  140.1310  143.7443 LP  0  0  0  0  0  0  0  0  0  0  0  0  # atno 17320 bound_to 7965
  145.9081  139.2471  143.1453 LP  0  0  0  0  0  0  0  0  0  0  0  0  # atno 17321 bound_to 7965
  140.0288  144.6097  150.7505 LP  0  0  0  0  0  0  0  0  0  0  0  0  # atno 17342 bound_to 10162
  140.7374  143.2765  151.3726 LP  0  0  0  0  0  0  0  0  0  0  0  0  # atno 17343 bound_to 10162
  156.0967  130.3659  150.0293 LP  0  0  0  0  0  0  0  0  0  0  0  0  # atno 17370 bound_to 10713
  156.8415  130.9427  151.3631 LP  0  0  0  0  0  0  0  0  0  0  0  0  # atno 17371 bound_to 10713
  140.4517  134.6922  157.5043 LP  0  0  0  0  0  0  0  0  0  0  0  0  # atno 17394 bound_to 11000
  140.0161  134.6617  155.9308 LP  0  0  0  0  0  0  0  0  0  0  0  0  # atno 17395 bound_to 11000

$$$$
