AV-unprocessed.smi:2519|AV-procd|sdf|9906|dock6
  -GOLD-   2272013543D 1   1.00000     0.00000
 Structure written by MMmdl.
 43 44  0  0  0  0  0  0  0  0  1 V2000
  151.0884  143.2219  158.3136 C   0  0  0  0  0  0  0  0  0  0  0  0
  151.2773  142.0703  157.4457 N   0  0  0  0  0  0  0  0  0  0  0  0
  150.2860  141.4295  156.8043 C   0  0  0  0  0  0  0  0  0  0  0  0
  149.1028  141.7593  156.8991 O   0  0  0  0  0  0  0  0  0  0  0  0
  150.6980  140.2493  155.9631 C   0  0  0  0  0  0  0  0  0  0  0  0
  152.0672  139.9500  155.7850 C   0  0  0  0  0  0  0  0  0  0  0  0
  152.4197  138.8384  154.9993 C   0  0  0  0  0  0  0  0  0  0  0  0
  151.3985  138.0643  154.4184 C   0  0  0  0  0  0  0  0  0  0  0  0
  150.0511  138.4216  154.6383 C   0  0  0  0  0  0  0  0  0  0  0  0
  149.0934  137.5879  154.0044 N   0  0  0  0  0  0  0  0  0  0  0  0
  147.8024  137.3932  154.3405 C   0  0  0  0  0  0  0  0  0  0  0  0
  147.2558  137.8755  155.3311 O   0  0  0  0  0  0  0  0  0  0  0  0
  147.1235  136.6007  153.4907 N   0  0  0  0  0  0  0  0  0  0  0  0
  145.7188  136.1819  153.5486 C   0  0  1  0  0  0  0  0  0  0  0  0
  144.8724  137.0497  152.5976 C   0  0  0  0  0  0  0  0  0  0  0  0
  145.1630  136.7422  151.1186 C   0  0  0  0  0  0  0  0  0  0  0  0
  144.9840  135.2472  150.8103 C   0  0  0  0  0  0  0  0  0  0  0  0
  145.8550  134.3657  151.7297 C   0  0  2  0  0  0  0  0  0  0  0  0
  145.6924  132.8639  151.4174 C   0  0  0  0  0  0  0  0  0  0  0  0
  146.0306  132.6019  150.1545 F   0  0  0  0  0  0  0  0  0  0  0  0
  146.4650  132.1419  152.2292 F   0  0  0  0  0  0  0  0  0  0  0  0
  144.4266  132.4929  151.6103 F   0  0  0  0  0  0  0  0  0  0  0  0
  145.5485  134.6828  153.2104 C   0  0  0  0  0  0  0  0  0  0  0  0
  149.7245  139.4937  155.3999 N   0  0  0  0  0  0  0  0  0  0  0  0
  152.0494  143.5476  158.7115 H   0  0  0  0  0  0  0  0  0  0  0  0
  150.4378  142.9730  159.1529 H   0  0  0  0  0  0  0  0  0  0  0  0
  150.6466  144.0539  157.7638 H   0  0  0  0  0  0  0  0  0  0  0  0
  152.2210  141.7330  157.3164 H   0  0  0  0  0  0  0  0  0  0  0  0
  152.8392  140.5556  156.2376 H   0  0  0  0  0  0  0  0  0  0  0  0
  153.4576  138.5839  154.8431 H   0  0  0  0  0  0  0  0  0  0  0  0
  151.6518  137.2084  153.8096 H   0  0  0  0  0  0  0  0  0  0  0  0
  149.4141  137.1122  153.1740 H   0  0  0  0  0  0  0  0  0  0  0  0
  147.6509  136.2351  152.7108 H   0  0  0  0  0  0  0  0  0  0  0  0
  145.3521  136.3580  154.5612 H   0  0  0  0  0  0  0  0  0  0  0  0
  143.8150  136.8689  152.7957 H   0  0  0  0  0  0  0  0  0  0  0  0
  145.0406  138.1083  152.8002 H   0  0  0  0  0  0  0  0  0  0  0  0
  144.5020  137.3315  150.4825 H   0  0  0  0  0  0  0  0  0  0  0  0
  146.1798  137.0479  150.8692 H   0  0  0  0  0  0  0  0  0  0  0  0
  143.9338  134.9771  150.9262 H   0  0  0  0  0  0  0  0  0  0  0  0
  145.2353  135.0628  149.7656 H   0  0  0  0  0  0  0  0  0  0  0  0
  146.8991  134.6206  151.5411 H   0  0  0  0  0  0  0  0  0  0  0  0
  146.1762  134.0737  153.8609 H   0  0  0  0  0  0  0  0  0  0  0  0
  144.5220  134.3890  153.4329 H   0  0  0  0  0  0  0  0  0  0  0  0
  1  2  1  0  0  0  0
  1 25  1  0  0  0  0
  1 26  1  0  0  0  0
  1 27  1  0  0  0  0
  2  3  1  0  0  0  0
  2 28  1  0  0  0  0
  3  4  2  0  0  0  0
  3  5  1  0  0  0  0
  5 24  1  0  0  0  0
  5  6  2  0  0  0  0
  6  7  1  0  0  0  0
  6 29  1  0  0  0  0
  7  8  2  0  0  0  0
  7 30  1  0  0  0  0
  8  9  1  0  0  0  0
  8 31  1  0  0  0  0
  9 10  1  0  0  0  0
  9 24  2  0  0  0  0
 10 11  1  0  0  0  0
 10 32  1  0  0  0  0
 11 12  2  0  0  0  0
 11 13  1  0  0  0  0
 13 14  1  0  0  0  0
 13 33  1  0  0  0  0
 14 23  1  0  0  0  0
 14 15  1  0  0  0  0
 14 34  1  0  0  0  0
 15 16  1  0  0  0  0
 15 35  1  0  0  0  0
 15 36  1  0  0  0  0
 16 17  1  0  0  0  0
 16 37  1  0  0  0  0
 16 38  1  0  0  0  0
 17 18  1  0  0  0  0
 17 39  1  0  0  0  0
 17 40  1  0  0  0  0
 18 19  1  0  0  0  0
 18 23  1  0  0  0  0
 18 41  1  0  0  0  0
 19 20  1  0  0  0  0
 19 21  1  0  0  0  0
 19 22  1  0  0  0  0
 23 42  1  0  0  0  0
 23 43  1  0  0  0  0
M  END
> <s_m_source_file>
AV-unprocessed.smi

> <i_m_source_file_index>
2519

> <i_lp_mmshare_version>
43012

> <i_f3d_flags>
0

> <s_epik_input>
W0NIM11bTkhdQyg9TyljMVtjSF1bY0hdW2NIXWMobjEpW05IXUMoPU8pW05IXVtDQEBIXTJbQ0gyXVtDSDJdW0NIMl1bQ0BASF0oQyhGKShGKUYpW0NIMl0y

> <s_epik_cmdline>
J2VwaWtfcHl0aG9uJywgJy1waCcsICc3LjAnLCAnLXRuJywgJzgnLCAnLW1hJywgJzIwMCcsICctbWV0YWxfYmluZGluZycsICctaW1hZScsICc8aW5maWxlLm1hZT4nLCAnLW9tYWUnLCAnPG91dGZpbGUubWFlPic=

> <r_lp_tautomer_probability>
1

> <r_epik_Ionization_Penalty>
3.74915e-05

> <r_epik_Ionization_Penalty_Charging>
0

> <r_epik_Ionization_Penalty_Neutral>
3.74915e-05

> <r_epik_State_Penalty>
-0

> <r_epik_Charging_Adjusted_Penalty>
0

> <i_epik_Tot_Q>
0

> <i_epik_Tot_abs_Q>
0

> <r_epik_Metal_State_Penalty>
-0

> <b_epik_Metal_Only>
0

> <s_lp_Force_Field>
OPLS_2005

> <r_lp_Energy>
26.6361

> <b_lp_Chiralities_Consistent>
1

> <s_lp_Variant>
AV-unprocessed.smi:2519-4

> <Gold.Version>
5.8.1

> <Gold.Id.Protein>
6NUR|6NUR_protein|mol2

> <Gold.PLP.Fitness>
41.4859

> <Gold.PLP.PLP>
-36.4314

> <Gold.PLP.part.hbond>
-1.7663

> <Gold.PLP.part.metal>
0.0000

> <Gold.PLP.part.buried>
-1.4562

> <Gold.PLP.part.nonpolar>
-35.2014

> <Gold.PLP.part.repulsive>
0.2681

> <Gold.PLP.ligand.clash>
0.0000

> <Gold.PLP.ligand.torsion>
0.4011

> <Gold.PLP.Chemscore.Hbond>
1.9440

> <Gold.PLP.Chemscore.CHOScore>
0.0000

> <Gold.PLP.Chemscore.Metal>
0.0000

> <Gold.Chemscore.Hbonds>
donor molecule, donor type, donor heavy atom, donor atom, acceptor molecule, acceptor atom, score
      L1  H    10    32       P1  7948  0.94
      L1  H    13    33       P1  7948  1.00

> <Gold.PLP.Chemscore.Internal.Correction>
0.0247

> <Gold.Rescore>
     Score         DG    S(hbond)    S(metal)    S(lipo)     H(rot)  DE(clash)    DE(int)     intcor
     15.35     -16.98       1.93        0.00      65.03       1.00       0.05       1.58       ----

> <Gold.Chemscore.Fitness>
15.3542

> <Gold.Chemscore.DG>
-16.9831

> <Gold.Chemscore.ZeroCoef>
-5.4800

> <Gold.Chemscore.Hbond>
1.9324

> <Gold.Chemscore.Metal>
0.0000

> <Gold.Chemscore.Lipo>
65.0337

> <Gold.Chemscore.Internal_Hbond>
0.0000

> <Gold.Chemscore.DEClash>
0.0474

> <Gold.Chemscore.DEInternal>
1.5815

> <Gold.Chemscore.Rot>
1.0000

> <Gold.Chemscore.Internal.Correction>
   9.000000E+99

> <Gold.Chemscore.Hbonds>
donor molecule, donor type, donor heavy atom, donor atom, acceptor molecule, acceptor atom, score
      L1  H    10    32       P1  7948  0.82
      L1  H    13    33       P1  7948  0.90

> <Gold.Chemscore.Hbond.Weighted>
-6.4541

> <Gold.Chemscore.Metal.Weighted>
-0.0000

> <Gold.Chemscore.Lipo.Weighted>
-7.6089

> <Gold.Chemscore.Internal_Hbond.Weighted>
0.0000

> <Gold.Chemscore.DEClash.Weighted>
0.0474

> <Gold.Chemscore.DEInternal.Weighted>
1.5815

> <Gold.Chemscore.Rot.Weighted>
2.5600

> <Gold.Chemscore.Internal.Correction.Weighted>
   9.000000E+99

> <Gold.Protein.RotatedTorsions>
[ 6907 6896 6895 6894 ] final  -28.84 input  -60.11 | X-H torsion
[ 7974 7965 7964 7962 ] final   78.13 input  175.53 | X-H torsion
[ 8008 7997 7996 7995 ] final -125.00 input   59.86 | X-H torsion
[ 10167 10162 10161 10158 ] final  -50.90 input  -65.29 | X-H torsion
[ 10718 10713 10712 10709 ] final -157.57 input   66.30 | X-H torsion
[ 10763 10752 10751 10750 ] final  150.66 input  -60.55 | X-H torsion
[ 11005 11000 10999 10996 ] final  106.80 input  -57.11 | X-H torsion

> <Gold.Protein.ActiveResidues>
 VAL166  LYS551  ARG553  GLY616  TRP617  ASP618  TYR619  PRO620  LYS621  CYS622 
 ASP623  PHE694  ASN695  SER759  ASP760  ASP761  ALA762  ILE779  LEU786  VAL792 
 PHE793  MET794  SER795  GLU796  ALA797  LYS798  CYS799  TRP800  GLU811  SER814 

> <Gold.Protein.RotatedAtoms>
  151.1275  135.0112  159.8566 H   0  0  0  0  0  0  0  0  0  0  0  0  # atno 6907 bound_to 6896
  152.5450  134.1650  159.8583 H   0  0  0  0  0  0  0  0  0  0  0  0  # atno 6908 bound_to 6896
  151.1714  133.4737  159.2627 H   0  0  0  0  0  0  0  0  0  0  0  0  # atno 6909 bound_to 6896
  145.6811  139.2524  143.1814 H   0  0  0  0  0  0  0  0  0  0  0  0  # atno 7974 bound_to 7965
  155.2061  140.0417  157.2925 H   0  0  0  0  0  0  0  0  0  0  0  0  # atno 8008 bound_to 7997
  154.6042  140.2460  155.7723 H   0  0  0  0  0  0  0  0  0  0  0  0  # atno 8009 bound_to 7997
  156.2340  140.2928  156.0272 H   0  0  0  0  0  0  0  0  0  0  0  0  # atno 8010 bound_to 7997
  140.6615  143.2640  151.4427 H   0  0  0  0  0  0  0  0  0  0  0  0  # atno 10167 bound_to 10162
  156.5421  130.8568  151.2752 H   0  0  0  0  0  0  0  0  0  0  0  0  # atno 10718 bound_to 10713
  154.0911  135.2852  155.3271 H   0  0  0  0  0  0  0  0  0  0  0  0  # atno 10763 bound_to 10752
  154.6619  135.5331  153.8032 H   0  0  0  0  0  0  0  0  0  0  0  0  # atno 10764 bound_to 10752
  153.0413  135.6536  154.1080 H   0  0  0  0  0  0  0  0  0  0  0  0  # atno 10765 bound_to 10752
  139.8819  134.9381  156.5721 H   0  0  0  0  0  0  0  0  0  0  0  0  # atno 11005 bound_to 11000
  146.0964  140.7596  142.9570 LP  0  0  0  0  0  0  0  0  0  0  0  0  # atno 17320 bound_to 7965
  144.7026  140.3717  143.7144 LP  0  0  0  0  0  0  0  0  0  0  0  0  # atno 17321 bound_to 7965
  139.5850  144.1625  152.2017 LP  0  0  0  0  0  0  0  0  0  0  0  0  # atno 17342 bound_to 10162
  140.0962  144.5579  150.7020 LP  0  0  0  0  0  0  0  0  0  0  0  0  # atno 17343 bound_to 10162
  157.7403  130.9848  150.2371 LP  0  0  0  0  0  0  0  0  0  0  0  0  # atno 17370 bound_to 10713
  156.2962  130.3752  149.7794 LP  0  0  0  0  0  0  0  0  0  0  0  0  # atno 17371 bound_to 10713
  140.8090  133.8444  155.8793 LP  0  0  0  0  0  0  0  0  0  0  0  0  # atno 17394 bound_to 11000
  140.9523  134.1762  157.4718 LP  0  0  0  0  0  0  0  0  0  0  0  0  # atno 17395 bound_to 11000

$$$$
