AV-unprocessed.smi:2786|AV-procd|sdf|10748|dock4
  -GOLD-   2272015183D 1   1.00000     0.00000
 Structure written by MMmdl.
 27 28  0  0  0  0  0  0  0  0  2 V2000
  143.2057  133.2809  151.7109 C   0  0  0  0  0  0  0  0  0  0  0  0
  144.0296  132.7880  150.6240 N   0  0  0  0  0  0  0  0  0  0  0  0
  143.6065  132.5665  149.3200 C   0  0  0  0  0  0  0  0  0  0  0  0
  144.6994  132.1125  148.6225 C   0  0  0  0  0  0  0  0  0  0  0  0
  145.7957  132.0488  149.4754 N   0  0  0  0  0  0  0  0  0  0  0  0
  145.3348  132.4542  150.6565 C   0  0  0  0  0  0  0  0  0  0  0  0
  146.1790  132.5635  151.8937 C   0  0  2  0  0  0  0  0  0  0  0  0
  147.1441  133.7670  151.8111 C   0  0  0  0  0  0  0  0  0  0  0  0
  147.9331  133.8812  153.0553 N   0  3  0  0  0  0  0  0  0  0  0  0
  148.6440  132.6218  153.3545 C   0  0  0  0  0  0  0  0  0  0  0  0
  147.6424  131.4535  153.4071 C   0  0  0  0  0  0  0  0  0  0  0  0
  146.9517  131.3428  152.1260 N   0  0  0  0  0  0  0  0  0  0  0  0
  142.2147  133.5461  151.3411 H   0  0  0  0  0  0  0  0  0  0  0  0
  143.6642  134.1662  152.1522 H   0  0  0  0  0  0  0  0  0  0  0  0
  143.1018  132.5092  152.4739 H   0  0  0  0  0  0  0  0  0  0  0  0
  142.5897  132.7471  149.0031 H   0  0  0  0  0  0  0  0  0  0  0  0
  144.7813  131.8306  147.5832 H   0  0  0  0  0  0  0  0  0  0  0  0
  145.5130  132.6961  152.7469 H   0  0  0  0  0  0  0  0  0  0  0  0
  147.8198  133.6647  150.9602 H   0  0  0  0  0  0  0  0  0  0  0  0
  146.5863  134.6926  151.6660 H   0  0  0  0  0  0  0  0  0  0  0  0
  148.6007  134.6336  152.9651 H   0  0  0  0  0  0  0  0  0  0  0  0
  149.4056  132.4426  152.5940 H   0  0  0  0  0  0  0  0  0  0  0  0
  149.1613  132.7224  154.3088 H   0  0  0  0  0  0  0  0  0  0  0  0
  148.1699  130.5197  153.6030 H   0  0  0  0  0  0  0  0  0  0  0  0
  146.9207  131.5886  154.2142 H   0  0  0  0  0  0  0  0  0  0  0  0
  147.6480  131.2619  151.3981 H   0  0  0  0  0  0  0  0  0  0  0  0
  147.3044  134.0854  153.8186 H   0  0  0  0  0  0  0  0  0  0  0  0
  1  2  1  0  0  0  0
  1 13  1  0  0  0  0
  1 14  1  0  0  0  0
  1 15  1  0  0  0  0
  2  6  1  0  0  0  0
  2  3  1  0  0  0  0
  3  4  2  0  0  0  0
  3 16  1  0  0  0  0
  4  5  1  0  0  0  0
  4 17  1  0  0  0  0
  5  6  2  0  0  0  0
  6  7  1  0  0  0  0
  7 12  1  0  0  0  0
  7  8  1  0  0  0  0
  7 18  1  0  0  0  0
  8  9  1  0  0  0  0
  8 19  1  0  0  0  0
  8 20  1  0  0  0  0
  9 10  1  0  0  0  0
  9 21  1  0  0  0  0
  9 27  1  0  0  0  0
 10 11  1  0  0  0  0
 10 22  1  0  0  0  0
 10 23  1  0  0  0  0
 11 12  1  0  0  0  0
 11 24  1  0  0  0  0
 11 25  1  0  0  0  0
 12 26  1  0  0  0  0
M  CHG  1   9   1
M  END
> <s_m_source_file>
AV-unprocessed.smi

> <i_m_source_file_index>
2786

> <i_lp_mmshare_version>
43012

> <i_f3d_flags>
0

> <s_epik_input>
W0NIM11uMVtjSF1bY0hdbmMxW0NAQEhdMltDSDJdW05IXVtDSDJdW0NIMl1bTkhdMg==

> <s_epik_cmdline>
J2VwaWtfcHl0aG9uJywgJy1waCcsICc3LjAnLCAnLXRuJywgJzgnLCAnLW1hJywgJzIwMCcsICctbWV0YWxfYmluZGluZycsICctaW1hZScsICc8aW5maWxlLm1hZT4nLCAnLW9tYWUnLCAnPG91dGZpbGUubWFlPic=

> <r_lp_tautomer_probability>
1

> <r_epik_Ionization_Penalty>
0.130484

> <r_epik_Ionization_Penalty_Charging>
0.130409

> <r_epik_Ionization_Penalty_Neutral>
7.57914e-05

> <r_epik_State_Penalty>
0.270147

> <r_epik_Charging_Adjusted_Penalty>
0.400555

> <i_epik_Tot_Q>
1

> <i_epik_Tot_abs_Q>
1

> <r_epik_Metal_State_Penalty>
0.136376

> <b_epik_Metal_Only>
0

> <s_lp_Force_Field>
OPLS_2005

> <r_lp_Energy>
9.37099

> <b_lp_Chiralities_Consistent>
1

> <s_lp_Variant>
AV-unprocessed.smi:2786-1

> <Gold.Version>
5.8.1

> <Gold.Id.Protein>
6NUR|6NUR_protein|mol2

> <Gold.PLP.Fitness>
33.8925

> <Gold.PLP.PLP>
-23.5362

> <Gold.PLP.part.hbond>
-2.0000

> <Gold.PLP.part.metal>
0.0000

> <Gold.PLP.part.buried>
1.3002

> <Gold.PLP.part.nonpolar>
-21.9614

> <Gold.PLP.part.repulsive>
0.1800

> <Gold.PLP.ligand.clash>
0.0000

> <Gold.PLP.ligand.torsion>
0.2737

> <Gold.PLP.Chemscore.Hbond>
2.6320

> <Gold.PLP.Chemscore.CHOScore>
1.0000

> <Gold.PLP.Chemscore.Metal>
0.0000

> <Gold.Chemscore.Hbonds>
donor molecule, donor type, donor heavy atom, donor atom, acceptor molecule, acceptor atom, score
      L1  H     9    21       P1  7948  1.55
      L1  H    12    26       P1 10747  1.00
      L1  C     3    16       P1 10186  1.00

> <Gold.PLP.Chemscore.Internal.Correction>
0.0077

> <Gold.Rescore>
     Score         DG    S(hbond)    S(metal)    S(lipo)     H(rot)  DE(clash)    DE(int)     intcor
     14.06     -15.61       1.80        0.00      57.20       1.00       1.41       0.14       ----

> <Gold.Chemscore.Fitness>
14.0632

> <Gold.Chemscore.DG>
-15.6125

> <Gold.Chemscore.ZeroCoef>
-5.4800

> <Gold.Chemscore.Hbond>
1.7964

> <Gold.Chemscore.Metal>
0.0000

> <Gold.Chemscore.Lipo>
57.2008

> <Gold.Chemscore.Internal_Hbond>
0.0000

> <Gold.Chemscore.DEClash>
1.4091

> <Gold.Chemscore.DEInternal>
0.1402

> <Gold.Chemscore.Rot>
1.0000

> <Gold.Chemscore.Internal.Correction>
   9.000000E+99

> <Gold.Chemscore.Hbonds>
donor molecule, donor type, donor heavy atom, donor atom, acceptor molecule, acceptor atom, score
      L1  H     9    21       P1  7948  0.17
      L1  H    12    26       P1 10747  1.00

> <Gold.Chemscore.Hbond.Weighted>
-6.0000

> <Gold.Chemscore.Metal.Weighted>
-0.0000

> <Gold.Chemscore.Lipo.Weighted>
-6.6925

> <Gold.Chemscore.Internal_Hbond.Weighted>
0.0000

> <Gold.Chemscore.DEClash.Weighted>
1.4091

> <Gold.Chemscore.DEInternal.Weighted>
0.1402

> <Gold.Chemscore.Rot.Weighted>
2.5600

> <Gold.Chemscore.Internal.Correction.Weighted>
   9.000000E+99

> <Gold.Protein.RotatedTorsions>
[ 6907 6896 6895 6894 ] final -166.33 input  -60.11 | X-H torsion
[ 7974 7965 7964 7962 ] final  -21.88 input  175.53 | X-H torsion
[ 8008 7997 7996 7995 ] final   76.84 input   59.86 | X-H torsion
[ 10167 10162 10161 10158 ] final   82.94 input  -65.29 | X-H torsion
[ 10718 10713 10712 10709 ] final  128.12 input   66.30 | X-H torsion
[ 10763 10752 10751 10750 ] final    4.10 input  -60.55 | X-H torsion
[ 11005 11000 10999 10996 ] final  -37.88 input  -57.11 | X-H torsion

> <Gold.Protein.ActiveResidues>
 VAL166  LYS551  ARG553  GLY616  TRP617  ASP618  TYR619  PRO620  LYS621  CYS622 
 ASP623  PHE694  ASN695  SER759  ASP760  ASP761  ALA762  ILE779  LEU786  VAL792 
 PHE793  MET794  SER795  GLU796  ALA797  LYS798  CYS799  TRP800  GLU811  SER814 

> <Gold.Protein.RotatedAtoms>
  151.4418  133.3641  159.2782 H   0  0  0  0  0  0  0  0  0  0  0  0  # atno 6907 bound_to 6896
  150.9152  134.8571  159.7463 H   0  0  0  0  0  0  0  0  0  0  0  0  # atno 6908 bound_to 6896
  152.4953  134.4351  159.9577 H   0  0  0  0  0  0  0  0  0  0  0  0  # atno 6909 bound_to 6896
  146.1707  140.4402  142.8533 H   0  0  0  0  0  0  0  0  0  0  0  0  # atno 7974 bound_to 7965
  155.8330  140.3465  155.5584 H   0  0  0  0  0  0  0  0  0  0  0  0  # atno 8008 bound_to 7997
  155.8222  140.0914  157.1862 H   0  0  0  0  0  0  0  0  0  0  0  0  # atno 8009 bound_to 7997
  154.4004  140.1428  156.3500 H   0  0  0  0  0  0  0  0  0  0  0  0  # atno 8010 bound_to 7997
  139.9235  144.6197  150.8416 H   0  0  0  0  0  0  0  0  0  0  0  0  # atno 10167 bound_to 10162
  157.5273  131.1098  150.9063 H   0  0  0  0  0  0  0  0  0  0  0  0  # atno 10718 bound_to 10713
  153.2753  135.6936  153.7439 H   0  0  0  0  0  0  0  0  0  0  0  0  # atno 10763 bound_to 10752
  153.6447  135.3387  155.3083 H   0  0  0  0  0  0  0  0  0  0  0  0  # atno 10764 bound_to 10752
  154.8477  135.4440  154.1789 H   0  0  0  0  0  0  0  0  0  0  0  0  # atno 10765 bound_to 10752
  140.9986  133.6967  156.1980 H   0  0  0  0  0  0  0  0  0  0  0  0  # atno 11005 bound_to 11000
  144.8160  140.6468  143.6384 LP  0  0  0  0  0  0  0  0  0  0  0  0  # atno 17320 bound_to 7965
  145.4346  139.1544  143.4003 LP  0  0  0  0  0  0  0  0  0  0  0  0  # atno 17321 bound_to 7965
  140.7656  143.3280  151.2473 LP  0  0  0  0  0  0  0  0  0  0  0  0  # atno 17342 bound_to 10162
  139.6841  143.9803  152.2825 LP  0  0  0  0  0  0  0  0  0  0  0  0  # atno 17343 bound_to 10162
  156.9655  130.5471  149.5288 LP  0  0  0  0  0  0  0  0  0  0  0  0  # atno 17370 bound_to 10713
  156.0396  130.5480  150.8739 LP  0  0  0  0  0  0  0  0  0  0  0  0  # atno 17371 bound_to 10713
  140.6926  134.4649  157.5588 LP  0  0  0  0  0  0  0  0  0  0  0  0  # atno 17394 bound_to 11000
  139.9027  134.8519  156.1830 LP  0  0  0  0  0  0  0  0  0  0  0  0  # atno 17395 bound_to 11000

$$$$
