AV-unprocessed.smi:2066|AV-procd|sdf|8421|dock1
  -GOLD-   2272011113D 1   1.00000     0.00000
 Structure written by MMmdl.
 38 39  0  0  0  0  0  0  0  0  2 V2000
  151.9786  139.1765  157.9031 C   0  0  0  0  0  0  0  0  0  0  0  0
  151.2447  138.5931  156.6717 C   0  0  0  0  0  0  0  0  0  0  0  0
  152.3288  138.1072  155.6763 C   0  0  0  0  0  0  0  0  0  0  0  0
  150.4883  137.3206  157.1495 C   0  0  0  0  0  0  0  0  0  0  0  0
  149.7841  137.5352  158.4107 N   0  0  0  0  0  0  0  0  0  0  0  0
  149.2402  136.5739  159.1674 C   0  0  0  0  0  0  0  0  0  0  0  0
  149.3021  135.3974  158.8029 O   0  0  0  0  0  0  0  0  0  0  0  0
  148.6618  137.0339  160.3000 N   0  5  0  0  0  0  0  0  0  0  0  0
  147.9281  136.2077  161.0628 C   0  0  0  0  0  0  0  0  0  0  0  0
  147.5552  134.9858  160.6652 N   0  0  0  0  0  0  0  0  0  0  0  0
  146.7932  134.3018  161.6138 C   0  0  0  0  0  0  0  0  0  0  0  0
  146.5710  135.0240  162.7563 C   0  0  0  0  0  0  0  0  0  0  0  0
  147.3193  136.5934  162.6750 S   0  0  0  0  0  0  0  0  0  0  0  0
  150.3250  139.5705  156.0245 N   0  0  0  0  0  0  0  0  0  0  0  0
  149.7534  139.1330  154.7462 C   0  0  0  0  0  0  0  0  0  0  0  0
  148.7210  140.1353  154.2019 C   0  0  0  0  0  0  0  0  0  0  0  0
  149.3205  141.4185  154.0695 O   0  0  0  0  0  0  0  0  0  0  0  0
  149.8339  141.9057  155.3035 C   0  0  0  0  0  0  0  0  0  0  0  0
  150.8767  140.9200  155.8560 C   0  0  0  0  0  0  0  0  0  0  0  0
  152.6406  138.4342  158.3507 H   0  0  0  0  0  0  0  0  0  0  0  0
  151.2859  139.4893  158.6840 H   0  0  0  0  0  0  0  0  0  0  0  0
  152.5987  140.0347  157.6455 H   0  0  0  0  0  0  0  0  0  0  0  0
  152.9001  137.2718  156.0828 H   0  0  0  0  0  0  0  0  0  0  0  0
  153.0553  138.8852  155.4425 H   0  0  0  0  0  0  0  0  0  0  0  0
  151.8899  137.7722  154.7356 H   0  0  0  0  0  0  0  0  0  0  0  0
  149.7580  137.0099  156.4003 H   0  0  0  0  0  0  0  0  0  0  0  0
  151.1706  136.4757  157.2511 H   0  0  0  0  0  0  0  0  0  0  0  0
  149.7194  138.4867  158.7419 H   0  0  0  0  0  0  0  0  0  0  0  0
  146.4483  133.3032  161.3905 H   0  0  0  0  0  0  0  0  0  0  0  0
  146.0165  134.7317  163.6352 H   0  0  0  0  0  0  0  0  0  0  0  0
  150.5422  139.0038  154.0051 H   0  0  0  0  0  0  0  0  0  0  0  0
  149.2557  138.1708  154.8516 H   0  0  0  0  0  0  0  0  0  0  0  0
  148.3562  139.8111  153.2274 H   0  0  0  0  0  0  0  0  0  0  0  0
  147.8556  140.1961  154.8638 H   0  0  0  0  0  0  0  0  0  0  0  0
  150.2864  142.8836  155.1396 H   0  0  0  0  0  0  0  0  0  0  0  0
  149.0197  142.0449  156.0165 H   0  0  0  0  0  0  0  0  0  0  0  0
  151.2331  141.3165  156.8051 H   0  0  0  0  0  0  0  0  0  0  0  0
  151.7319  140.8965  155.1805 H   0  0  0  0  0  0  0  0  0  0  0  0
  1  2  1  0  0  0  0
  1 20  1  0  0  0  0
  1 21  1  0  0  0  0
  1 22  1  0  0  0  0
  2  3  1  0  0  0  0
  2  4  1  0  0  0  0
  2 14  1  0  0  0  0
  3 23  1  0  0  0  0
  3 24  1  0  0  0  0
  3 25  1  0  0  0  0
  4  5  1  0  0  0  0
  4 26  1  0  0  0  0
  4 27  1  0  0  0  0
  5  6  1  0  0  0  0
  5 28  1  0  0  0  0
  6  7  2  0  0  0  0
  6  8  1  0  0  0  0
  8  9  1  0  0  0  0
  9 13  1  0  0  0  0
  9 10  2  0  0  0  0
 10 11  1  0  0  0  0
 11 12  2  0  0  0  0
 11 29  1  0  0  0  0
 12 13  1  0  0  0  0
 12 30  1  0  0  0  0
 14 19  1  0  0  0  0
 14 15  1  0  0  0  0
 15 16  1  0  0  0  0
 15 31  1  0  0  0  0
 15 32  1  0  0  0  0
 16 17  1  0  0  0  0
 16 33  1  0  0  0  0
 16 34  1  0  0  0  0
 17 18  1  0  0  0  0
 18 19  1  0  0  0  0
 18 35  1  0  0  0  0
 18 36  1  0  0  0  0
 19 37  1  0  0  0  0
 19 38  1  0  0  0  0
M  CHG  1   8  -1
M  END
> <s_m_source_file>
AV-unprocessed.smi

> <i_m_source_file_index>
2066

> <i_lp_mmshare_version>
43012

> <i_f3d_flags>
0

> <s_epik_input>
W0NIMl0xW0NIMl1PW0NIMl1bQ0gyXU4xQyhbQ0gzXSkoW0NIM10pW0NIMl1bTkhdQyg9TylbTkhdYzJuW2NIXVtjSF1zMg==

> <s_epik_cmdline>
J2VwaWtfcHl0aG9uJywgJy1waCcsICc3LjAnLCAnLXRuJywgJzgnLCAnLW1hJywgJzIwMCcsICctbWV0YWxfYmluZGluZycsICctaW1hZScsICc8aW5maWxlLm1hZT4nLCAnLW9tYWUnLCAnPG91dGZpbGUubWFlPic=

> <r_lp_tautomer_probability>
0.999

> <r_epik_Ionization_Penalty>
7.22375

> <r_epik_Ionization_Penalty_Charging>
5.82415

> <r_epik_Ionization_Penalty_Neutral>
1.39959

> <r_epik_State_Penalty>
6.03347

> <r_epik_Charging_Adjusted_Penalty>
11.8576

> <i_epik_Tot_Q>
-1

> <i_epik_Tot_abs_Q>
1

> <r_epik_Metal_State_Penalty>
2.0104

> <b_epik_Metal_Only>
1

> <s_lp_Force_Field>
OPLS_2005

> <r_lp_Energy>
36.7798

> <b_lp_Chiralities_Consistent>
1

> <s_lp_Variant>
AV-unprocessed.smi:2066-3

> <Gold.Version>
5.8.1

> <Gold.Id.Protein>
6NUR|6NUR_protein|mol2

> <Gold.PLP.Fitness>
39.5610

> <Gold.PLP.PLP>
-33.1224

> <Gold.PLP.part.hbond>
-4.2186

> <Gold.PLP.part.metal>
0.0000

> <Gold.PLP.part.buried>
-2.6857

> <Gold.PLP.part.nonpolar>
-27.2124

> <Gold.PLP.part.repulsive>
0.3231

> <Gold.PLP.ligand.clash>
0.0000

> <Gold.PLP.ligand.torsion>
0.5764

> <Gold.PLP.Chemscore.Hbond>
2.4707

> <Gold.PLP.Chemscore.CHOScore>
0.0000

> <Gold.PLP.Chemscore.Metal>
0.0000

> <Gold.Chemscore.Hbonds>
donor molecule, donor type, donor heavy atom, donor atom, acceptor molecule, acceptor atom, score
      P1  H  6896  6907       L1     7  1.00
      P1  H  6931  6943       L1     8  0.82
      P1  H  8011  8017       L1    17  0.66

> <Gold.PLP.Chemscore.Internal.Correction>
0.1790

> <Gold.Rescore>
     Score         DG    S(hbond)    S(metal)    S(lipo)     H(rot)  DE(clash)    DE(int)     intcor
     13.52     -16.11       1.67        0.00      77.08       1.55       0.31       2.28       ----

> <Gold.Chemscore.Fitness>
13.5212

> <Gold.Chemscore.DG>
-16.1130

> <Gold.Chemscore.ZeroCoef>
-5.4800

> <Gold.Chemscore.Hbond>
1.6712

> <Gold.Chemscore.Metal>
0.0000

> <Gold.Chemscore.Lipo>
77.0765

> <Gold.Chemscore.Internal_Hbond>
0.0000

> <Gold.Chemscore.DEClash>
0.3147

> <Gold.Chemscore.DEInternal>
2.2771

> <Gold.Chemscore.Rot>
1.5495

> <Gold.Chemscore.Internal.Correction>
   9.000000E+99

> <Gold.Chemscore.Hbonds>
donor molecule, donor type, donor heavy atom, donor atom, acceptor molecule, acceptor atom, score
      P1  H  6896  6907       L1     7  0.94
      P1  H  6931  6943       L1     8  0.03
      P1  H  8011  8017       L1    17  0.60

> <Gold.Chemscore.Hbond.Weighted>
-5.5817

> <Gold.Chemscore.Metal.Weighted>
-0.0000

> <Gold.Chemscore.Lipo.Weighted>
-9.0179

> <Gold.Chemscore.Internal_Hbond.Weighted>
0.0000

> <Gold.Chemscore.DEClash.Weighted>
0.3147

> <Gold.Chemscore.DEInternal.Weighted>
2.2771

> <Gold.Chemscore.Rot.Weighted>
3.9666

> <Gold.Chemscore.Internal.Correction.Weighted>
   9.000000E+99

> <Gold.Protein.RotatedTorsions>
[ 6907 6896 6895 6894 ] final  -90.38 input  -60.11 | X-H torsion
[ 7974 7965 7964 7962 ] final  162.58 input  175.53 | X-H torsion
[ 8008 7997 7996 7995 ] final   67.84 input   59.86 | X-H torsion
[ 10167 10162 10161 10158 ] final   17.03 input  -65.29 | X-H torsion
[ 10718 10713 10712 10709 ] final  -59.82 input   66.30 | X-H torsion
[ 10763 10752 10751 10750 ] final   51.79 input  -60.55 | X-H torsion
[ 11005 11000 10999 10996 ] final -129.44 input  -57.11 | X-H torsion

> <Gold.Protein.ActiveResidues>
 VAL166  LYS551  ARG553  GLY616  TRP617  ASP618  TYR619  PRO620  LYS621  CYS622 
 ASP623  PHE694  ASN695  SER759  ASP760  ASP761  ALA762  ILE779  LEU786  VAL792 
 PHE793  MET794  SER795  GLU796  ALA797  LYS798  CYS799  TRP800  GLU811  SER814 

> <Gold.Protein.RotatedAtoms>
  150.6881  134.2441  159.4483 H   0  0  0  0  0  0  0  0  0  0  0  0  # atno 6907 bound_to 6896
  152.0383  134.9724  160.0583 H   0  0  0  0  0  0  0  0  0  0  0  0  # atno 6908 bound_to 6896
  152.1236  133.4333  159.4724 H   0  0  0  0  0  0  0  0  0  0  0  0  # atno 6909 bound_to 6896
  144.7630  139.8060  143.6326 H   0  0  0  0  0  0  0  0  0  0  0  0  # atno 7974 bound_to 7965
  155.6990  140.3495  155.4925 H   0  0  0  0  0  0  0  0  0  0  0  0  # atno 8008 bound_to 7997
  155.9457  140.1110  157.1041 H   0  0  0  0  0  0  0  0  0  0  0  0  # atno 8009 bound_to 7997
  154.4111  140.1204  156.4972 H   0  0  0  0  0  0  0  0  0  0  0  0  # atno 8010 bound_to 7997
  140.5755  143.9080  150.6747 H   0  0  0  0  0  0  0  0  0  0  0  0  # atno 10167 bound_to 10162
  156.1034  130.4183  150.0769 H   0  0  0  0  0  0  0  0  0  0  0  0  # atno 10718 bound_to 10713
  152.9786  135.5834  154.4472 H   0  0  0  0  0  0  0  0  0  0  0  0  # atno 10763 bound_to 10752
  154.4066  135.2769  155.2065 H   0  0  0  0  0  0  0  0  0  0  0  0  # atno 10764 bound_to 10752
  154.3873  135.6133  153.5878 H   0  0  0  0  0  0  0  0  0  0  0  0  # atno 10765 bound_to 10752
  140.9432  134.1166  157.4132 H   0  0  0  0  0  0  0  0  0  0  0  0  # atno 11005 bound_to 11000
  146.1711  139.4862  142.9927 LP  0  0  0  0  0  0  0  0  0  0  0  0  # atno 17320 bound_to 7965
  145.6560  141.0252  143.1735 LP  0  0  0  0  0  0  0  0  0  0  0  0  # atno 17321 bound_to 7965
  140.2567  143.3554  152.1359 LP  0  0  0  0  0  0  0  0  0  0  0  0  # atno 17342 bound_to 10162
  139.5140  144.6942  151.5677 LP  0  0  0  0  0  0  0  0  0  0  0  0  # atno 17343 bound_to 10162
  156.8750  130.9537  151.3605 LP  0  0  0  0  0  0  0  0  0  0  0  0  # atno 17370 bound_to 10713
  157.6207  130.8653  149.9104 LP  0  0  0  0  0  0  0  0  0  0  0  0  # atno 17371 bound_to 10713
  139.8826  135.0043  156.6240 LP  0  0  0  0  0  0  0  0  0  0  0  0  # atno 17394 bound_to 11000
  140.7706  133.8742  155.8489 LP  0  0  0  0  0  0  0  0  0  0  0  0  # atno 17395 bound_to 11000

$$$$
