AV-unprocessed.smi:556|AV-procd|sdf|2913|dock1
  -GOLD-   2262023403D 1   1.00000     0.00000
 Structure written by MMmdl.
 38 39  0  0  0  0  0  0  0  0  1 V2000
  151.1212  137.4165  156.7155 C   0  0  0  0  0  0  0  0  0  0  0  0
  151.9501  138.6970  156.5157 C   0  0  1  0  0  0  0  0  0  0  0  0
  152.0781  139.1164  155.0360 C   0  0  0  0  0  0  0  0  0  0  0  0
  150.8661  139.6737  154.5518 O   0  0  0  0  0  0  0  0  0  0  0  0
  150.5031  140.8392  155.2744 C   0  0  0  0  0  0  0  0  0  0  0  0
  150.2397  140.4628  156.7387 C   0  0  0  0  0  0  0  0  0  0  0  0
  151.4159  139.8084  157.3368 N   0  0  0  0  0  0  0  0  0  0  0  0
  151.8834  140.1899  158.5553 C   0  0  0  0  0  0  0  0  0  0  0  0
  151.2162  140.8366  159.3644 O   0  0  0  0  0  0  0  0  0  0  0  0
  153.1350  139.7859  158.8354 N   0  0  0  0  0  0  0  0  0  0  0  0
  153.8501  140.0528  160.0776 C   0  0  0  0  0  0  0  0  0  0  0  0
  154.5580  141.4170  160.0439 C   0  0  0  0  0  0  0  0  0  0  0  0
  153.5811  142.5459  160.2164 C   0  0  0  0  0  0  0  0  0  0  0  0
  152.7113  142.7898  161.3173 C   0  0  0  0  0  0  0  0  0  0  0  0
  151.9663  143.8711  161.1550 N   0  0  0  0  0  0  0  0  0  0  0  0
  152.3351  144.3553  159.9512 N   0  0  0  0  0  0  0  0  0  0  0  0
  151.7066  145.5552  159.4413 C   0  0  0  0  0  0  0  0  0  0  0  0
  153.3080  143.5770  159.3621 C   0  0  0  0  0  0  0  0  0  0  0  0
  151.5572  136.5808  156.1678 H   0  0  0  0  0  0  0  0  0  0  0  0
  150.0972  137.5401  156.3630 H   0  0  0  0  0  0  0  0  0  0  0  0
  151.0808  137.1338  157.7678 H   0  0  0  0  0  0  0  0  0  0  0  0
  152.9695  138.4489  156.8114 H   0  0  0  0  0  0  0  0  0  0  0  0
  152.8828  139.8442  154.9177 H   0  0  0  0  0  0  0  0  0  0  0  0
  152.3454  138.2585  154.4189 H   0  0  0  0  0  0  0  0  0  0  0  0
  151.2846  141.5971  155.1968 H   0  0  0  0  0  0  0  0  0  0  0  0
  149.6030  141.2627  154.8289 H   0  0  0  0  0  0  0  0  0  0  0  0
  149.9369  141.3644  157.2728 H   0  0  0  0  0  0  0  0  0  0  0  0
  149.3904  139.7819  156.7993 H   0  0  0  0  0  0  0  0  0  0  0  0
  153.6249  139.2488  158.1348 H   0  0  0  0  0  0  0  0  0  0  0  0
  153.1625  139.9970  160.9234 H   0  0  0  0  0  0  0  0  0  0  0  0
  154.5831  139.2582  160.2203 H   0  0  0  0  0  0  0  0  0  0  0  0
  155.3183  141.4473  160.8252 H   0  0  0  0  0  0  0  0  0  0  0  0
  155.0973  141.5264  159.1022 H   0  0  0  0  0  0  0  0  0  0  0  0
  152.5981  142.2137  162.2238 H   0  0  0  0  0  0  0  0  0  0  0  0
  152.2513  145.9211  158.5705 H   0  0  0  0  0  0  0  0  0  0  0  0
  151.7060  146.3302  160.2086 H   0  0  0  0  0  0  0  0  0  0  0  0
  150.6786  145.3364  159.1511 H   0  0  0  0  0  0  0  0  0  0  0  0
  153.7201  143.8151  158.3925 H   0  0  0  0  0  0  0  0  0  0  0  0
  1  2  1  0  0  0  0
  1 19  1  0  0  0  0
  1 20  1  0  0  0  0
  1 21  1  0  0  0  0
  2  7  1  0  0  0  0
  2  3  1  0  0  0  0
  2 22  1  0  0  0  0
  3  4  1  0  0  0  0
  3 23  1  0  0  0  0
  3 24  1  0  0  0  0
  4  5  1  0  0  0  0
  5  6  1  0  0  0  0
  5 25  1  0  0  0  0
  5 26  1  0  0  0  0
  6  7  1  0  0  0  0
  6 27  1  0  0  0  0
  6 28  1  0  0  0  0
  7  8  1  0  0  0  0
  8  9  2  0  0  0  0
  8 10  1  0  0  0  0
 10 11  1  0  0  0  0
 10 29  1  0  0  0  0
 11 12  1  0  0  0  0
 11 30  1  0  0  0  0
 11 31  1  0  0  0  0
 12 13  1  0  0  0  0
 12 32  1  0  0  0  0
 12 33  1  0  0  0  0
 13 18  2  0  0  0  0
 13 14  1  0  0  0  0
 14 15  2  0  0  0  0
 14 34  1  0  0  0  0
 15 16  1  0  0  0  0
 16 17  1  0  0  0  0
 16 18  1  0  0  0  0
 17 35  1  0  0  0  0
 17 36  1  0  0  0  0
 17 37  1  0  0  0  0
 18 38  1  0  0  0  0
M  END
> <s_m_source_file>
AV-unprocessed.smi

> <i_m_source_file_index>
556

> <i_lp_mmshare_version>
43012

> <i_f3d_flags>
0

> <s_epik_input>
W0NIM11bQ0BASF0xW0NIMl1PW0NIMl1bQ0gyXU4xQyg9TylbTkhdW0NIMl1bQ0gyXWMyW2NIXW5uKFtDSDNdKVtjSF0y

> <s_epik_cmdline>
J2VwaWtfcHl0aG9uJywgJy1waCcsICc3LjAnLCAnLXRuJywgJzgnLCAnLW1hJywgJzIwMCcsICctbWV0YWxfYmluZGluZycsICctaW1hZScsICc8aW5maWxlLm1hZT4nLCAnLW9tYWUnLCAnPG91dGZpbGUubWFlPic=

> <r_lp_tautomer_probability>
1

> <r_epik_Ionization_Penalty>
0.000536334

> <r_epik_Ionization_Penalty_Charging>
0

> <r_epik_Ionization_Penalty_Neutral>
0.000536334

> <r_epik_State_Penalty>
-0

> <r_epik_Charging_Adjusted_Penalty>
0

> <i_epik_Tot_Q>
0

> <i_epik_Tot_abs_Q>
0

> <r_epik_Metal_State_Penalty>
-0

> <b_epik_Metal_Only>
0

> <s_lp_Force_Field>
OPLS_2005

> <r_lp_Energy>
28.9332

> <b_lp_Chiralities_Consistent>
1

> <s_lp_Variant>
AV-unprocessed.smi:556-2

> <Gold.Version>
5.8.1

> <Gold.Id.Protein>
6NUR|6NUR_protein|mol2

> <Gold.PLP.Fitness>
38.7228

> <Gold.PLP.PLP>
-38.7787

> <Gold.PLP.part.hbond>
-1.5655

> <Gold.PLP.part.metal>
0.0000

> <Gold.PLP.part.buried>
-4.0558

> <Gold.PLP.part.nonpolar>
-33.6939

> <Gold.PLP.part.repulsive>
0.3504

> <Gold.PLP.ligand.clash>
0.0000

> <Gold.PLP.ligand.torsion>
0.3982

> <Gold.PLP.Chemscore.Hbond>
0.2400

> <Gold.PLP.Chemscore.CHOScore>
0.0000

> <Gold.PLP.Chemscore.Metal>
0.0000

> <Gold.Chemscore.Hbonds>
donor molecule, donor type, donor heavy atom, donor atom, acceptor molecule, acceptor atom, score
      P1  H  7989  7998       L1     4  0.08

> <Gold.PLP.Chemscore.Internal.Correction>
0.0205

> <Gold.Rescore>
     Score         DG    S(hbond)    S(metal)    S(lipo)     H(rot)  DE(clash)    DE(int)     intcor
     12.62     -13.15       0.00        0.00      96.20       1.40       0.11       0.42       ----

> <Gold.Chemscore.Fitness>
12.6159

> <Gold.Chemscore.DG>
-13.1517

> <Gold.Chemscore.ZeroCoef>
-5.4800

> <Gold.Chemscore.Hbond>
0.0000

> <Gold.Chemscore.Metal>
0.0000

> <Gold.Chemscore.Lipo>
96.2039

> <Gold.Chemscore.Internal_Hbond>
0.0000

> <Gold.Chemscore.DEClash>
0.1112

> <Gold.Chemscore.DEInternal>
0.4246

> <Gold.Chemscore.Rot>
1.4001

> <Gold.Chemscore.Internal.Correction>
   9.000000E+99

> <Gold.Chemscore.Hbond.Weighted>
-0.0001

> <Gold.Chemscore.Metal.Weighted>
-0.0000

> <Gold.Chemscore.Lipo.Weighted>
-11.2559

> <Gold.Chemscore.Internal_Hbond.Weighted>
0.0000

> <Gold.Chemscore.DEClash.Weighted>
0.1112

> <Gold.Chemscore.DEInternal.Weighted>
0.4246

> <Gold.Chemscore.Rot.Weighted>
3.5842

> <Gold.Chemscore.Internal.Correction.Weighted>
   9.000000E+99

> <Gold.Protein.RotatedTorsions>
[ 6907 6896 6895 6894 ] final   25.61 input  -60.11 | X-H torsion
[ 7974 7965 7964 7962 ] final  -78.71 input  175.53 | X-H torsion
[ 8008 7997 7996 7995 ] final  -53.32 input   59.86 | X-H torsion
[ 10167 10162 10161 10158 ] final   94.37 input  -65.29 | X-H torsion
[ 10718 10713 10712 10709 ] final -130.86 input   66.30 | X-H torsion
[ 10763 10752 10751 10750 ] final -110.34 input  -60.55 | X-H torsion
[ 11005 11000 10999 10996 ] final  -55.39 input  -57.11 | X-H torsion

> <Gold.Protein.ActiveResidues>
 VAL166  LYS551  ARG553  GLY616  TRP617  ASP618  TYR619  PRO620  LYS621  CYS622 
 ASP623  PHE694  ASN695  SER759  ASP760  ASP761  ALA762  ILE779  LEU786  VAL792 
 PHE793  MET794  SER795  GLU796  ALA797  LYS798  CYS799  TRP800  GLU811  SER814 

> <Gold.Protein.RotatedAtoms>
  151.9751  135.0057  160.0554 H   0  0  0  0  0  0  0  0  0  0  0  0  # atno 6907 bound_to 6896
  152.1747  133.4662  159.4935 H   0  0  0  0  0  0  0  0  0  0  0  0  # atno 6908 bound_to 6896
  150.6907  134.1826  159.4297 H   0  0  0  0  0  0  0  0  0  0  0  0  # atno 6909 bound_to 6896
  145.5828  140.9445  143.1334 H   0  0  0  0  0  0  0  0  0  0  0  0  # atno 7974 bound_to 7965
  154.4130  140.1203  156.5134 H   0  0  0  0  0  0  0  0  0  0  0  0  # atno 8008 bound_to 7997
  155.6776  140.3496  155.4823 H   0  0  0  0  0  0  0  0  0  0  0  0  # atno 8009 bound_to 7997
  155.9579  140.1117  157.0911 H   0  0  0  0  0  0  0  0  0  0  0  0  # atno 8010 bound_to 7997
  139.8090  144.6781  150.9665 H   0  0  0  0  0  0  0  0  0  0  0  0  # atno 10167 bound_to 10162
  156.2187  130.6964  151.0731 H   0  0  0  0  0  0  0  0  0  0  0  0  # atno 10718 bound_to 10713
  154.8243  135.4567  154.0871 H   0  0  0  0  0  0  0  0  0  0  0  0  # atno 10763 bound_to 10752
  153.2198  135.6892  153.8020 H   0  0  0  0  0  0  0  0  0  0  0  0  # atno 10764 bound_to 10752
  153.7441  135.3308  155.3286 H   0  0  0  0  0  0  0  0  0  0  0  0  # atno 10765 bound_to 10752
  141.1071  133.6612  156.4463 H   0  0  0  0  0  0  0  0  0  0  0  0  # atno 11005 bound_to 11000
  144.7386  139.7514  143.7319 LP  0  0  0  0  0  0  0  0  0  0  0  0  # atno 17320 bound_to 7965
  146.1703  139.4852  142.9931 LP  0  0  0  0  0  0  0  0  0  0  0  0  # atno 17321 bound_to 7965
  140.7818  143.4204  151.0850 LP  0  0  0  0  0  0  0  0  0  0  0  0  # atno 17342 bound_to 10162
  139.7872  143.8271  152.3146 LP  0  0  0  0  0  0  0  0  0  0  0  0  # atno 17343 bound_to 10162
  157.7076  131.0749  150.6613 LP  0  0  0  0  0  0  0  0  0  0  0  0  # atno 17370 bound_to 10713
  156.6675  130.4530  149.5668 LP  0  0  0  0  0  0  0  0  0  0  0  0  # atno 17371 bound_to 10713
  140.4872  134.6609  157.5196 LP  0  0  0  0  0  0  0  0  0  0  0  0  # atno 17394 bound_to 11000
  139.9947  134.6930  155.9630 LP  0  0  0  0  0  0  0  0  0  0  0  0  # atno 17395 bound_to 11000

$$$$
