AV-unprocessed.smi:1952|AV-procd|sdf|7883|dock3
  -GOLD-   2272010 33D 1   1.00000     0.00000
 Structure written by MMmdl.
 39 40  0  0  0  0  0  0  0  0  1 V2000
  143.6477  132.8299  150.7994 C   0  0  0  0  0  0  0  0  0  0  0  0
  144.2350  134.0574  151.4070 C   0  0  0  0  0  0  0  0  0  0  0  0
  145.5171  134.5157  151.5240 C   0  0  0  0  0  0  0  0  0  0  0  0
  145.3549  135.7487  152.2099 C   0  0  0  0  0  0  0  0  0  0  0  0
  146.4760  136.5567  152.5287 N   0  0  0  0  0  0  0  0  0  0  0  0
  146.4924  137.6819  153.2630 C   0  0  0  0  0  0  0  0  0  0  0  0
  145.5062  138.1967  153.7907 O   0  0  0  0  0  0  0  0  0  0  0  0
  147.7342  138.1812  153.3563 N   0  0  0  0  0  0  0  0  0  0  0  0
  148.1221  139.3781  154.1013 C   0  0  2  0  0  0  0  0  0  0  0  0
  147.4288  140.5982  153.4805 C   0  0  0  0  0  0  0  0  0  0  0  0
  149.6574  139.5435  154.0868 C   0  0  0  0  0  0  0  0  0  0  0  0
  150.3909  138.7544  155.0773 N   0  0  0  0  0  0  0  0  0  0  0  0
  150.1783  137.3257  154.8747 C   0  0  0  0  0  0  0  0  0  0  0  0
  150.9323  136.4800  155.9156 C   0  0  0  0  0  0  0  0  0  0  0  0
  152.3200  136.7954  155.8722 O   0  0  0  0  0  0  0  0  0  0  0  0
  152.5766  138.1763  156.1060 C   0  0  0  0  0  0  0  0  0  0  0  0
  151.8273  139.0243  155.0641 C   0  0  0  0  0  0  0  0  0  0  0  0
  144.0884  136.0181  152.4878 N   0  0  0  0  0  0  0  0  0  0  0  0
  143.3643  134.9357  151.9743 O   0  0  0  0  0  0  0  0  0  0  0  0
  144.4294  132.1602  150.4409 H   0  0  0  0  0  0  0  0  0  0  0  0
  143.0073  133.0853  149.9550 H   0  0  0  0  0  0  0  0  0  0  0  0
  143.0462  132.2872  151.5288 H   0  0  0  0  0  0  0  0  0  0  0  0
  146.4226  134.0430  151.1736 H   0  0  0  0  0  0  0  0  0  0  0  0
  147.3609  136.2437  152.1585 H   0  0  0  0  0  0  0  0  0  0  0  0
  148.4777  137.6838  152.8888 H   0  0  0  0  0  0  0  0  0  0  0  0
  147.7711  139.3121  155.1315 H   0  0  0  0  0  0  0  0  0  0  0  0
  147.6788  141.5090  154.0251 H   0  0  0  0  0  0  0  0  0  0  0  0
  146.3440  140.4886  153.5051 H   0  0  0  0  0  0  0  0  0  0  0  0
  147.7263  140.7399  152.4410 H   0  0  0  0  0  0  0  0  0  0  0  0
  150.0097  139.2721  153.0904 H   0  0  0  0  0  0  0  0  0  0  0  0
  149.9076  140.5982  154.2102 H   0  0  0  0  0  0  0  0  0  0  0  0
  149.1134  137.0979  154.9309 H   0  0  0  0  0  0  0  0  0  0  0  0
  150.5057  137.0410  153.8736 H   0  0  0  0  0  0  0  0  0  0  0  0
  150.5419  136.6625  156.9178 H   0  0  0  0  0  0  0  0  0  0  0  0
  150.8011  135.4179  155.7080 H   0  0  0  0  0  0  0  0  0  0  0  0
  152.2660  138.4457  157.1168 H   0  0  0  0  0  0  0  0  0  0  0  0
  153.6499  138.3561  156.0416 H   0  0  0  0  0  0  0  0  0  0  0  0
  152.2336  138.8205  154.0722 H   0  0  0  0  0  0  0  0  0  0  0  0
  152.0212  140.0760  155.2698 H   0  0  0  0  0  0  0  0  0  0  0  0
  1  2  1  0  0  0  0
  1 20  1  0  0  0  0
  1 21  1  0  0  0  0
  1 22  1  0  0  0  0
  2 19  1  0  0  0  0
  2  3  2  0  0  0  0
  3  4  1  0  0  0  0
  3 23  1  0  0  0  0
  4  5  1  0  0  0  0
  4 18  2  0  0  0  0
  5  6  1  0  0  0  0
  5 24  1  0  0  0  0
  6  7  2  0  0  0  0
  6  8  1  0  0  0  0
  8  9  1  0  0  0  0
  8 25  1  0  0  0  0
  9 10  1  0  0  0  0
  9 11  1  0  0  0  0
  9 26  1  0  0  0  0
 10 27  1  0  0  0  0
 10 28  1  0  0  0  0
 10 29  1  0  0  0  0
 11 12  1  0  0  0  0
 11 30  1  0  0  0  0
 11 31  1  0  0  0  0
 12 17  1  0  0  0  0
 12 13  1  0  0  0  0
 13 14  1  0  0  0  0
 13 32  1  0  0  0  0
 13 33  1  0  0  0  0
 14 15  1  0  0  0  0
 14 34  1  0  0  0  0
 14 35  1  0  0  0  0
 15 16  1  0  0  0  0
 16 17  1  0  0  0  0
 16 36  1  0  0  0  0
 16 37  1  0  0  0  0
 17 38  1  0  0  0  0
 17 39  1  0  0  0  0
 18 19  1  0  0  0  0
M  END
> <s_m_source_file>
AV-unprocessed.smi

> <i_m_source_file_index>
1952

> <i_lp_mmshare_version>
43012

> <i_f3d_flags>
0

> <s_epik_input>
W0NIM11jMVtjSF1jKG5vMSlbTkhdQyg9TylbTkhdW0NASF0oW0NIM10pW0NIMl1OMltDSDJdW0NIMl1PW0NIMl1bQ0gyXTI=

> <s_epik_cmdline>
J2VwaWtfcHl0aG9uJywgJy1waCcsICc3LjAnLCAnLXRuJywgJzgnLCAnLW1hJywgJzIwMCcsICctbWV0YWxfYmluZGluZycsICctaW1hZScsICc8aW5maWxlLm1hZT4nLCAnLW9tYWUnLCAnPG91dGZpbGUubWFlPic=

> <r_epik_Ionization_Penalty>
0.214075

> <r_epik_Ionization_Penalty_Charging>
0

> <r_epik_Ionization_Penalty_Neutral>
0.214075

> <r_epik_State_Penalty>
0.204211

> <r_epik_Charging_Adjusted_Penalty>
0.204211

> <i_epik_Tot_Q>
0

> <i_epik_Tot_abs_Q>
0

> <r_epik_Metal_State_Penalty>
0.218782

> <b_epik_Metal_Only>
0

> <s_lp_Force_Field>
OPLS_2005

> <r_lp_Energy>
23.1599

> <b_lp_Chiralities_Consistent>
1

> <s_lp_Variant>
AV-unprocessed.smi:1952-1

> <Gold.Version>
5.8.1

> <Gold.Id.Protein>
6NUR|6NUR_protein|mol2

> <Gold.PLP.Fitness>
34.6935

> <Gold.PLP.PLP>
-26.4043

> <Gold.PLP.part.hbond>
-3.0000

> <Gold.PLP.part.metal>
0.0000

> <Gold.PLP.part.buried>
-3.1910

> <Gold.PLP.part.nonpolar>
-22.2273

> <Gold.PLP.part.repulsive>
0.6518

> <Gold.PLP.ligand.clash>
0.0000

> <Gold.PLP.ligand.torsion>
0.2701

> <Gold.PLP.Chemscore.Hbond>
2.9360

> <Gold.PLP.Chemscore.CHOScore>
0.0000

> <Gold.PLP.Chemscore.Metal>
0.0000

> <Gold.Chemscore.Hbonds>
donor molecule, donor type, donor heavy atom, donor atom, acceptor molecule, acceptor atom, score
      L1  H     5    24       P1  7948  1.00
      L1  H     8    25       P1  7948  0.96
      P1  H 10752 10764       L1    15  0.98

> <Gold.PLP.Chemscore.Internal.Correction>
0.0214

> <Gold.Rescore>
     Score         DG    S(hbond)    S(metal)    S(lipo)     H(rot)  DE(clash)    DE(int)     intcor
     16.34     -18.10       2.89        0.00      59.37       1.56       0.05       1.70       ----

> <Gold.Chemscore.Fitness>
16.3395

> <Gold.Chemscore.DG>
-18.0961

> <Gold.Chemscore.ZeroCoef>
-5.4800

> <Gold.Chemscore.Hbond>
2.8931

> <Gold.Chemscore.Metal>
0.0000

> <Gold.Chemscore.Lipo>
59.3673

> <Gold.Chemscore.Internal_Hbond>
0.0000

> <Gold.Chemscore.DEClash>
0.0528

> <Gold.Chemscore.DEInternal>
1.7038

> <Gold.Chemscore.Rot>
1.5597

> <Gold.Chemscore.Internal.Correction>
   9.000000E+99

> <Gold.Chemscore.Hbonds>
donor molecule, donor type, donor heavy atom, donor atom, acceptor molecule, acceptor atom, score
      L1  H     5    24       P1  7948  0.98
      L1  H     8    25       P1  7948  0.92
      P1  H 10752 10764       L1    15  0.61

> <Gold.Chemscore.Hbond.Weighted>
-9.6629

> <Gold.Chemscore.Metal.Weighted>
-0.0000

> <Gold.Chemscore.Lipo.Weighted>
-6.9460

> <Gold.Chemscore.Internal_Hbond.Weighted>
0.0000

> <Gold.Chemscore.DEClash.Weighted>
0.0528

> <Gold.Chemscore.DEInternal.Weighted>
1.7038

> <Gold.Chemscore.Rot.Weighted>
3.9928

> <Gold.Chemscore.Internal.Correction.Weighted>
   9.000000E+99

> <Gold.Protein.RotatedTorsions>
[ 6907 6896 6895 6894 ] final   98.10 input  -60.11 | X-H torsion
[ 7974 7965 7964 7962 ] final  -89.67 input  175.53 | X-H torsion
[ 8008 7997 7996 7995 ] final   92.62 input   59.86 | X-H torsion
[ 10167 10162 10161 10158 ] final -131.89 input  -65.29 | X-H torsion
[ 10718 10713 10712 10709 ] final  -28.97 input   66.30 | X-H torsion
[ 10763 10752 10751 10750 ] final  -31.92 input  -60.55 | X-H torsion
[ 11005 11000 10999 10996 ] final   -7.76 input  -57.11 | X-H torsion

> <Gold.Protein.ActiveResidues>
 VAL166  LYS551  ARG553  GLY616  TRP617  ASP618  TYR619  PRO620  LYS621  CYS622 
 ASP623  PHE694  ASN695  SER759  ASP760  ASP761  ALA762  ILE779  LEU786  VAL792 
 PHE793  MET794  SER795  GLU796  ALA797  LYS798  CYS799  TRP800  GLU811  SER814 

> <Gold.Protein.RotatedAtoms>
  152.5414  134.0631  159.8160 H   0  0  0  0  0  0  0  0  0  0  0  0  # atno 6907 bound_to 6896
  151.0756  133.5423  159.2631 H   0  0  0  0  0  0  0  0  0  0  0  0  # atno 6908 bound_to 6896
  151.2270  135.0548  159.9026 H   0  0  0  0  0  0  0  0  0  0  0  0  # atno 6909 bound_to 6896
  145.4367  140.9558  143.2098 H   0  0  0  0  0  0  0  0  0  0  0  0  # atno 7974 bound_to 7965
  156.0375  140.3323  155.7207 H   0  0  0  0  0  0  0  0  0  0  0  0  # atno 8008 bound_to 7997
  155.5794  140.0635  157.2804 H   0  0  0  0  0  0  0  0  0  0  0  0  # atno 8009 bound_to 7997
  154.4379  140.1846  156.0949 H   0  0  0  0  0  0  0  0  0  0  0  0  # atno 8010 bound_to 7997
  139.9143  143.6458  152.2568 H   0  0  0  0  0  0  0  0  0  0  0  0  # atno 10167 bound_to 10162
  156.4185  130.4421  149.7201 H   0  0  0  0  0  0  0  0  0  0  0  0  # atno 10718 bound_to 10713
  153.8053  135.6887  153.4849 H   0  0  0  0  0  0  0  0  0  0  0  0  # atno 10763 bound_to 10752
  153.1662  135.4560  154.9839 H   0  0  0  0  0  0  0  0  0  0  0  0  # atno 10764 bound_to 10752
  154.7990  135.3330  154.7538 H   0  0  0  0  0  0  0  0  0  0  0  0  # atno 10765 bound_to 10752
  140.7163  133.8866  155.8787 H   0  0  0  0  0  0  0  0  0  0  0  0  # atno 11005 bound_to 11000
  144.8148  139.5897  143.7013 LP  0  0  0  0  0  0  0  0  0  0  0  0  # atno 17320 bound_to 7965
  146.2578  139.6342  142.9383 LP  0  0  0  0  0  0  0  0  0  0  0  0  # atno 17321 bound_to 7965
  139.6916  144.7646  151.1429 LP  0  0  0  0  0  0  0  0  0  0  0  0  # atno 17342 bound_to 10162
  140.7678  143.5581  150.9129 LP  0  0  0  0  0  0  0  0  0  0  0  0  # atno 17343 bound_to 10162
  156.4151  130.7741  151.2756 LP  0  0  0  0  0  0  0  0  0  0  0  0  # atno 17370 bound_to 10713
  157.7508  131.0199  150.3688 LP  0  0  0  0  0  0  0  0  0  0  0  0  # atno 17371 bound_to 10713
  141.0042  134.1109  157.4287 LP  0  0  0  0  0  0  0  0  0  0  0  0  # atno 17394 bound_to 11000
  139.8859  135.0076  156.6465 LP  0  0  0  0  0  0  0  0  0  0  0  0  # atno 17395 bound_to 11000

$$$$
