AV-unprocessed.smi:671|AV-procd|sdf|3282|dock5
  -GOLD-   22720 0243D 1   1.00000     0.00000
 Structure written by MMmdl.
 50 51  0  0  0  0  0  0  0  0  2 V2000
  147.2467  133.9208  152.7009 C   0  0  0  0  0  0  0  0  0  0  0  0
  146.4635  133.3436  151.5699 C   0  0  0  0  0  0  0  0  0  0  0  0
  146.9257  132.3763  150.7330 N   0  3  0  0  0  0  0  0  0  0  0  0
  145.9967  132.0754  149.8141 N   0  0  0  0  0  0  0  0  0  0  0  0
  146.2924  131.0562  148.8069 C   0  0  0  0  0  0  0  0  0  0  0  0
  144.8797  132.8313  150.0087 C   0  0  0  0  0  0  0  0  0  0  0  0
  143.6530  132.7612  149.1586 C   0  0  0  0  0  0  0  0  0  0  0  0
  145.1689  133.6319  151.1213 C   0  0  0  0  0  0  0  0  0  0  0  0
  144.2409  134.6461  151.7287 C   0  0  0  0  0  0  0  0  0  0  0  0
  144.8635  136.0566  151.8426 C   0  0  1  0  0  0  0  0  0  0  0  0
  145.6271  136.4725  150.5757 C   0  0  0  0  0  0  0  0  0  0  0  0
  143.8209  137.0496  152.1125 N   0  0  0  0  0  0  0  0  0  0  0  0
  142.9032  137.0481  153.0971 C   0  0  0  0  0  0  0  0  0  0  0  0
  142.8467  136.1459  153.9299 O   0  0  0  0  0  0  0  0  0  0  0  0
  142.0718  138.1033  153.0875 N   0  0  0  0  0  0  0  0  0  0  0  0
  141.0224  138.3687  154.0665 C   0  0  2  0  0  0  0  0  0  0  0  0
  140.2842  137.0632  154.4171 C   0  0  0  0  0  0  0  0  0  0  0  0
  138.8990  137.1764  153.7815 C   0  0  0  0  0  0  0  0  0  0  0  0
  138.6042  138.6721  153.8066 C   0  0  0  0  0  0  0  0  0  0  0  0
  139.9531  139.3287  153.4941 C   0  0  1  0  0  0  0  0  0  0  0  0
  140.0629  140.7664  154.0214 C   0  0  0  0  0  0  0  0  0  0  0  0
  147.4373  134.9794  152.5233 H   0  0  0  0  0  0  0  0  0  0  0  0
  148.2034  133.4086  152.8077 H   0  0  0  0  0  0  0  0  0  0  0  0
  146.6945  133.8185  153.6349 H   0  0  0  0  0  0  0  0  0  0  0  0
  146.0754  131.4591  147.8172 H   0  0  0  0  0  0  0  0  0  0  0  0
  145.6664  130.1827  148.9911 H   0  0  0  0  0  0  0  0  0  0  0  0
  147.3435  130.7685  148.8572 H   0  0  0  0  0  0  0  0  0  0  0  0
  142.8066  133.2329  149.6560 H   0  0  0  0  0  0  0  0  0  0  0  0
  143.3925  131.7231  148.9520 H   0  0  0  0  0  0  0  0  0  0  0  0
  143.8246  133.2728  148.2115 H   0  0  0  0  0  0  0  0  0  0  0  0
  143.3169  134.7047  151.1522 H   0  0  0  0  0  0  0  0  0  0  0  0
  143.9368  134.2964  152.7158 H   0  0  0  0  0  0  0  0  0  0  0  0
  145.5813  136.0682  152.6642 H   0  0  0  0  0  0  0  0  0  0  0  0
  146.4601  135.7996  150.3726 H   0  0  0  0  0  0  0  0  0  0  0  0
  146.0418  137.4756  150.6809 H   0  0  0  0  0  0  0  0  0  0  0  0
  144.9761  136.4727  149.7010 H   0  0  0  0  0  0  0  0  0  0  0  0
  143.7724  137.8197  151.4606 H   0  0  0  0  0  0  0  0  0  0  0  0
  142.1898  138.7882  152.3561 H   0  0  0  0  0  0  0  0  0  0  0  0
  141.4612  138.7726  154.9810 H   0  0  0  0  0  0  0  0  0  0  0  0
  140.8112  136.1643  154.0932 H   0  0  0  0  0  0  0  0  0  0  0  0
  140.1756  136.9947  155.5005 H   0  0  0  0  0  0  0  0  0  0  0  0
  138.9344  136.8254  152.7497 H   0  0  0  0  0  0  0  0  0  0  0  0
  138.1459  136.5899  154.3084 H   0  0  0  0  0  0  0  0  0  0  0  0
  137.8257  138.9576  153.0985 H   0  0  0  0  0  0  0  0  0  0  0  0
  138.2667  138.9575  154.8040 H   0  0  0  0  0  0  0  0  0  0  0  0
  140.0486  139.3579  152.4068 H   0  0  0  0  0  0  0  0  0  0  0  0
  139.9597  140.8008  155.1063 H   0  0  0  0  0  0  0  0  0  0  0  0
  139.2868  141.4002  153.5919 H   0  0  0  0  0  0  0  0  0  0  0  0
  141.0272  141.2048  153.7646 H   0  0  0  0  0  0  0  0  0  0  0  0
  147.8251  131.9120  150.7397 H   0  0  0  0  0  0  0  0  0  0  0  0
  1  2  1  0  0  0  0
  1 22  1  0  0  0  0
  1 23  1  0  0  0  0
  1 24  1  0  0  0  0
  2  8  1  0  0  0  0
  2  3  2  0  0  0  0
  3  4  1  0  0  0  0
  3 50  1  0  0  0  0
  4  5  1  0  0  0  0
  4  6  1  0  0  0  0
  5 25  1  0  0  0  0
  5 26  1  0  0  0  0
  5 27  1  0  0  0  0
  6  7  1  0  0  0  0
  6  8  2  0  0  0  0
  7 28  1  0  0  0  0
  7 29  1  0  0  0  0
  7 30  1  0  0  0  0
  8  9  1  0  0  0  0
  9 10  1  0  0  0  0
  9 31  1  0  0  0  0
  9 32  1  0  0  0  0
 10 11  1  0  0  0  0
 10 12  1  0  0  0  0
 10 33  1  0  0  0  0
 11 34  1  0  0  0  0
 11 35  1  0  0  0  0
 11 36  1  0  0  0  0
 12 13  1  0  0  0  0
 12 37  1  0  0  0  0
 13 14  2  0  0  0  0
 13 15  1  0  0  0  0
 15 16  1  0  0  0  0
 15 38  1  0  0  0  0
 16 20  1  0  0  0  0
 16 17  1  0  0  0  0
 16 39  1  0  0  0  0
 17 18  1  0  0  0  0
 17 40  1  0  0  0  0
 17 41  1  0  0  0  0
 18 19  1  0  0  0  0
 18 42  1  0  0  0  0
 18 43  1  0  0  0  0
 19 20  1  0  0  0  0
 19 44  1  0  0  0  0
 19 45  1  0  0  0  0
 20 21  1  0  0  0  0
 20 46  1  0  0  0  0
 21 47  1  0  0  0  0
 21 48  1  0  0  0  0
 21 49  1  0  0  0  0
M  CHG  1   3   1
M  END
> <s_m_source_file>
AV-unprocessed.smi

> <i_m_source_file_index>
671

> <i_lp_mmshare_version>
43012

> <i_f3d_flags>
0

> <s_epik_input>
W0NIM11jMW5uKFtDSDNdKWMoW0NIM10pYzFbQ0gyXVtDQEhdKFtDSDNdKVtOSF1DKD1PKVtOSF1bQ0BASF0yW0NIMl1bQ0gyXVtDSDJdW0NASF0yW0NIM10=

> <s_epik_cmdline>
J2VwaWtfcHl0aG9uJywgJy1waCcsICc3LjAnLCAnLXRuJywgJzgnLCAnLW1hJywgJzIwMCcsICctbWV0YWxfYmluZGluZycsICctaW1hZScsICc8aW5maWxlLm1hZT4nLCAnLW9tYWUnLCAnPG91dGZpbGUubWFlPic=

> <r_lp_tautomer_probability>
1

> <r_epik_Ionization_Penalty>
2.28705

> <r_epik_Ionization_Penalty_Charging>
2.28698

> <r_epik_Ionization_Penalty_Neutral>
6.23157e-05

> <r_epik_State_Penalty>
2.43671

> <r_epik_Charging_Adjusted_Penalty>
4.72369

> <i_epik_Tot_Q>
1

> <i_epik_Tot_abs_Q>
1

> <r_epik_Metal_State_Penalty>
2.44911

> <b_epik_Metal_Only>
0

> <s_lp_Force_Field>
OPLS_2005

> <r_lp_Energy>
34.579

> <b_lp_Chiralities_Consistent>
1

> <s_lp_Variant>
AV-unprocessed.smi:671-10

> <Gold.Version>
5.8.1

> <Gold.Id.Protein>
6NUR|6NUR_protein|mol2

> <Gold.PLP.Fitness>
47.3880

> <Gold.PLP.PLP>
-40.2084

> <Gold.PLP.part.hbond>
-3.0000

> <Gold.PLP.part.metal>
0.0000

> <Gold.PLP.part.buried>
1.0949

> <Gold.PLP.part.nonpolar>
-37.8113

> <Gold.PLP.part.repulsive>
0.1917

> <Gold.PLP.ligand.clash>
0.0000

> <Gold.PLP.ligand.torsion>
0.4411

> <Gold.PLP.Chemscore.Hbond>
2.6736

> <Gold.PLP.Chemscore.CHOScore>
0.0000

> <Gold.PLP.Chemscore.Metal>
0.0000

> <Gold.Chemscore.Hbonds>
donor molecule, donor type, donor heavy atom, donor atom, acceptor molecule, acceptor atom, score
      L1  H     3    50       P1 10747  1.00
      L1  H    12    37       P1 10171  1.00
      L1  H    15    38       P1 10175  0.33

> <Gold.PLP.Chemscore.Internal.Correction>
0.0412

> <Gold.Rescore>
     Score         DG    S(hbond)    S(metal)    S(lipo)     H(rot)  DE(clash)    DE(int)     intcor
     18.77     -22.09       2.57        0.00     101.57       1.51       1.84       1.48       ----

> <Gold.Chemscore.Fitness>
18.7710

> <Gold.Chemscore.DG>
-22.0898

> <Gold.Chemscore.ZeroCoef>
-5.4800

> <Gold.Chemscore.Hbond>
2.5691

> <Gold.Chemscore.Metal>
0.0000

> <Gold.Chemscore.Lipo>
101.5695

> <Gold.Chemscore.Internal_Hbond>
0.0000

> <Gold.Chemscore.DEClash>
1.8365

> <Gold.Chemscore.DEInternal>
1.4823

> <Gold.Chemscore.Rot>
1.5057

> <Gold.Chemscore.Internal.Correction>
   9.000000E+99

> <Gold.Chemscore.Hbonds>
donor molecule, donor type, donor heavy atom, donor atom, acceptor molecule, acceptor atom, score
      L1  H     3    50       P1 10747  0.98
      L1  H    12    37       P1 10171  0.98
      L1  H    15    38       P1 10175  0.30

> <Gold.Chemscore.Hbond.Weighted>
-8.5808

> <Gold.Chemscore.Metal.Weighted>
-0.0000

> <Gold.Chemscore.Lipo.Weighted>
-11.8836

> <Gold.Chemscore.Internal_Hbond.Weighted>
0.0000

> <Gold.Chemscore.DEClash.Weighted>
1.8365

> <Gold.Chemscore.DEInternal.Weighted>
1.4823

> <Gold.Chemscore.Rot.Weighted>
3.8547

> <Gold.Chemscore.Internal.Correction.Weighted>
   9.000000E+99

> <Gold.Protein.RotatedTorsions>
[ 6907 6896 6895 6894 ] final  -93.19 input  -60.11 | X-H torsion
[ 7974 7965 7964 7962 ] final  -43.56 input  175.53 | X-H torsion
[ 8008 7997 7996 7995 ] final   19.58 input   59.86 | X-H torsion
[ 10167 10162 10161 10158 ] final -152.43 input  -65.29 | X-H torsion
[ 10718 10713 10712 10709 ] final  -24.73 input   66.30 | X-H torsion
[ 10763 10752 10751 10750 ] final -132.82 input  -60.55 | X-H torsion
[ 11005 11000 10999 10996 ] final   89.58 input  -57.11 | X-H torsion

> <Gold.Protein.ActiveResidues>
 VAL166  LYS551  ARG553  GLY616  TRP617  ASP618  TYR619  PRO620  LYS621  CYS622 
 ASP623  PHE694  ASN695  SER759  ASP760  ASP761  ALA762  ILE779  LEU786  VAL792 
 PHE793  MET794  SER795  GLU796  ALA797  LYS798  CYS799  TRP800  GLU811  SER814 

> <Gold.Protein.RotatedAtoms>
  150.6918  134.2006  159.4320 H   0  0  0  0  0  0  0  0  0  0  0  0  # atno 6907 bound_to 6896
  151.9973  134.9945  160.0573 H   0  0  0  0  0  0  0  0  0  0  0  0  # atno 6908 bound_to 6896
  152.1612  133.4548  159.4899 H   0  0  0  0  0  0  0  0  0  0  0  0  # atno 6909 bound_to 6896
  146.0007  140.7078  142.9272 H   0  0  0  0  0  0  0  0  0  0  0  0  # atno 7974 bound_to 7965
  154.9228  140.3029  155.5207 H   0  0  0  0  0  0  0  0  0  0  0  0  # atno 8008 bound_to 7997
  156.3009  140.2368  156.4216 H   0  0  0  0  0  0  0  0  0  0  0  0  # atno 8009 bound_to 7997
  154.8314  140.0418  157.1468 H   0  0  0  0  0  0  0  0  0  0  0  0  # atno 8010 bound_to 7997
  139.7182  143.8999  152.2494 H   0  0  0  0  0  0  0  0  0  0  0  0  # atno 10167 bound_to 10162
  156.4738  130.4530  149.6853 H   0  0  0  0  0  0  0  0  0  0  0  0  # atno 10718 bound_to 10713
  154.8739  135.3786  154.4471 H   0  0  0  0  0  0  0  0  0  0  0  0  # atno 10763 bound_to 10752
  153.5151  135.7029  153.5765 H   0  0  0  0  0  0  0  0  0  0  0  0  # atno 10764 bound_to 10752
  153.4038  135.3942  155.1971 H   0  0  0  0  0  0  0  0  0  0  0  0  # atno 10765 bound_to 10752
  139.8872  134.8560  156.3162 H   0  0  0  0  0  0  0  0  0  0  0  0  # atno 11005 bound_to 11000
  144.6918  140.3228  143.7229 LP  0  0  0  0  0  0  0  0  0  0  0  0  # atno 17320 bound_to 7965
  145.7492  139.1788  143.2331 LP  0  0  0  0  0  0  0  0  0  0  0  0  # atno 17321 bound_to 7965
  139.8888  144.6977  150.8794 LP  0  0  0  0  0  0  0  0  0  0  0  0  # atno 17342 bound_to 10162
  140.7748  143.3603  151.1841 LP  0  0  0  0  0  0  0  0  0  0  0  0  # atno 17343 bound_to 10162
  156.3591  130.7472  151.2442 LP  0  0  0  0  0  0  0  0  0  0  0  0  # atno 17370 bound_to 10713
  157.7489  131.0355  150.4367 LP  0  0  0  0  0  0  0  0  0  0  0  0  # atno 17371 bound_to 10713
  140.9817  133.7263  156.0682 LP  0  0  0  0  0  0  0  0  0  0  0  0  # atno 17394 bound_to 11000
  140.7740  134.3800  157.5501 LP  0  0  0  0  0  0  0  0  0  0  0  0  # atno 17395 bound_to 11000

$$$$
