AV-unprocessed.smi:3329|AV-procd|sdf|12798|dock2
  -GOLD-   2272019153D 1   1.00000     0.00000
 Structure written by MMmdl.
 41 42  0  0  0  0  0  0  0  0  1 V2000
  145.3915  130.4131  151.9307 C   0  0  0  0  0  0  0  0  0  0  0  0
  145.4445  131.8902  151.6658 C   0  0  0  0  0  0  0  0  0  0  0  0
  146.3000  132.5882  150.7660 C   0  0  0  0  0  0  0  0  0  0  0  0
  146.0917  133.8947  150.7667 N   0  0  0  0  0  0  0  0  0  0  0  0
  145.1003  134.0772  151.6643 N   0  0  0  0  0  0  0  0  0  0  0  0
  144.5977  135.4144  151.9248 C   0  0  0  0  0  0  0  0  0  0  0  0
  145.3081  136.4864  151.0803 C   0  0  0  0  0  0  0  0  0  0  0  0
  145.3964  137.7346  151.8244 N   0  0  0  0  0  0  0  0  0  0  0  0
  146.7191  138.3457  151.6619 C   0  0  0  0  0  0  0  0  0  0  0  0
  147.1775  139.0405  152.9430 C   0  0  0  0  0  0  0  0  0  0  0  0
  146.4137  139.8051  153.5300 O   0  0  0  0  0  0  0  0  0  0  0  0
  148.4268  138.7644  153.3564 N   0  0  0  0  0  0  0  0  0  0  0  0
  149.1128  139.2547  154.5544 C   0  0  2  0  0  0  0  0  0  0  0  0
  150.5039  138.5989  154.6630 C   0  0  0  0  0  0  0  0  0  0  0  0
  148.3235  138.8148  155.7200 C   0  0  0  0  0  0  0  0  0  0  0  0
  147.7016  138.4708  156.6337 N   0  0  0  0  0  0  0  0  0  0  0  0
  149.2583  140.7803  154.5843 C   0  0  0  0  0  0  0  0  0  0  0  0
  149.6989  141.5312  155.8214 C   0  0  0  0  0  0  0  0  0  0  0  0
  148.2821  141.6783  155.3104 C   0  0  0  0  0  0  0  0  0  0  0  0
  144.6930  132.8848  152.2245 C   0  0  0  0  0  0  0  0  0  0  0  0
  145.8663  129.8411  151.1332 H   0  0  0  0  0  0  0  0  0  0  0  0
  144.3652  130.0552  152.0143 H   0  0  0  0  0  0  0  0  0  0  0  0
  145.9001  130.1538  152.8594 H   0  0  0  0  0  0  0  0  0  0  0  0
  147.0620  132.1854  150.1152 H   0  0  0  0  0  0  0  0  0  0  0  0
  143.5229  135.4294  151.7379 H   0  0  0  0  0  0  0  0  0  0  0  0
  144.7314  135.6297  152.9857 H   0  0  0  0  0  0  0  0  0  0  0  0
  146.3111  136.1420  150.8253 H   0  0  0  0  0  0  0  0  0  0  0  0
  144.7725  136.6447  150.1429 H   0  0  0  0  0  0  0  0  0  0  0  0
  144.6670  138.3548  151.5018 H   0  0  0  0  0  0  0  0  0  0  0  0
  147.4520  137.5831  151.3945 H   0  0  0  0  0  0  0  0  0  0  0  0
  146.6925  139.0711  150.8470 H   0  0  0  0  0  0  0  0  0  0  0  0
  148.9562  138.1213  152.7854 H   0  0  0  0  0  0  0  0  0  0  0  0
  150.9917  138.8742  155.5989 H   0  0  0  0  0  0  0  0  0  0  0  0
  151.1675  138.9043  153.8540 H   0  0  0  0  0  0  0  0  0  0  0  0
  150.4320  137.5107  154.6407 H   0  0  0  0  0  0  0  0  0  0  0  0
  149.6553  141.1887  153.6573 H   0  0  0  0  0  0  0  0  0  0  0  0
  149.8461  140.9719  156.7428 H   0  0  0  0  0  0  0  0  0  0  0  0
  150.3731  142.3735  155.6800 H   0  0  0  0  0  0  0  0  0  0  0  0
  148.0158  142.6172  154.8292 H   0  0  0  0  0  0  0  0  0  0  0  0
  147.4870  141.2149  155.8904 H   0  0  0  0  0  0  0  0  0  0  0  0
  143.9064  132.8436  152.9636 H   0  0  0  0  0  0  0  0  0  0  0  0
  1  2  1  0  0  0  0
  1 21  1  0  0  0  0
  1 22  1  0  0  0  0
  1 23  1  0  0  0  0
  2 20  2  0  0  0  0
  2  3  1  0  0  0  0
  3  4  2  0  0  0  0
  3 24  1  0  0  0  0
  4  5  1  0  0  0  0
  5  6  1  0  0  0  0
  5 20  1  0  0  0  0
  6  7  1  0  0  0  0
  6 25  1  0  0  0  0
  6 26  1  0  0  0  0
  7  8  1  0  0  0  0
  7 27  1  0  0  0  0
  7 28  1  0  0  0  0
  8  9  1  0  0  0  0
  8 29  1  0  0  0  0
  9 10  1  0  0  0  0
  9 30  1  0  0  0  0
  9 31  1  0  0  0  0
 10 11  2  0  0  0  0
 10 12  1  0  0  0  0
 12 13  1  0  0  0  0
 12 32  1  0  0  0  0
 13 14  1  0  0  0  0
 13 15  1  0  0  0  0
 13 17  1  0  0  0  0
 14 33  1  0  0  0  0
 14 34  1  0  0  0  0
 14 35  1  0  0  0  0
 15 16  3  0  0  0  0
 17 19  1  0  0  0  0
 17 18  1  0  0  0  0
 17 36  1  0  0  0  0
 18 19  1  0  0  0  0
 18 37  1  0  0  0  0
 18 38  1  0  0  0  0
 19 39  1  0  0  0  0
 19 40  1  0  0  0  0
 20 41  1  0  0  0  0
M  END
> <s_m_source_file>
AV-unprocessed.smi

> <i_m_source_file_index>
3329

> <i_lp_mmshare_version>
43012

> <i_f3d_flags>
0

> <s_epik_input>
W0NIM11jMVtjSF1ubihbY0hdMSlbQ0gyXVtDSDJdW05IXVtDSDJdQyg9TylbTkhdW0NAQF0oW0NIM10pKEMjTilbQ0hdMltDSDJdW0NIMl0y

> <s_epik_cmdline>
J2VwaWtfcHl0aG9uJywgJy1waCcsICc3LjAnLCAnLXRuJywgJzgnLCAnLW1hJywgJzIwMCcsICctbWV0YWxfYmluZGluZycsICctaW1hZScsICc8aW5maWxlLm1hZT4nLCAnLW9tYWUnLCAnPG91dGZpbGUubWFlPic=

> <r_lp_tautomer_probability>
1

> <r_epik_Ionization_Penalty>
0.481866

> <r_epik_Ionization_Penalty_Charging>
0

> <r_epik_Ionization_Penalty_Neutral>
0.481866

> <r_epik_State_Penalty>
0.48398

> <r_epik_Charging_Adjusted_Penalty>
0.48398

> <i_epik_Tot_Q>
0

> <i_epik_Tot_abs_Q>
0

> <r_epik_Metal_State_Penalty>
0.5042

> <b_epik_Metal_Only>
0

> <s_lp_Force_Field>
OPLS_2005

> <r_lp_Energy>
14.7625

> <b_lp_Chiralities_Consistent>
1

> <s_lp_Variant>
AV-unprocessed.smi:3329-4

> <Gold.Version>
5.8.1

> <Gold.Id.Protein>
6NUR|6NUR_protein|mol2

> <Gold.PLP.Fitness>
43.8262

> <Gold.PLP.PLP>
-35.3831

> <Gold.PLP.part.hbond>
-3.2380

> <Gold.PLP.part.metal>
0.0000

> <Gold.PLP.part.buried>
0.4987

> <Gold.PLP.part.nonpolar>
-34.5460

> <Gold.PLP.part.repulsive>
1.1361

> <Gold.PLP.ligand.clash>
0.0000

> <Gold.PLP.ligand.torsion>
1.7327

> <Gold.PLP.Chemscore.Hbond>
1.4400

> <Gold.PLP.Chemscore.CHOScore>
1.9898

> <Gold.PLP.Chemscore.Metal>
0.0000

> <Gold.Chemscore.Hbonds>
donor molecule, donor type, donor heavy atom, donor atom, acceptor molecule, acceptor atom, score
      L1  H     8    29       P1 10171  0.66
      L1  H    12    32       P1  7948  0.83
      L1  C     3    24       P1 10747  1.00
      L1  C    20    41       P1 10957  1.00

> <Gold.PLP.Chemscore.Internal.Correction>
1.6191

> <Gold.Rescore>
     Score         DG    S(hbond)    S(metal)    S(lipo)     H(rot)  DE(clash)    DE(int)     intcor
     11.78     -14.98       1.57        0.00      87.03       2.31       1.54       1.65       ----

> <Gold.Chemscore.Fitness>
11.7812

> <Gold.Chemscore.DG>
-14.9776

> <Gold.Chemscore.ZeroCoef>
-5.4800

> <Gold.Chemscore.Hbond>
1.5678

> <Gold.Chemscore.Metal>
0.0000

> <Gold.Chemscore.Lipo>
87.0272

> <Gold.Chemscore.Internal_Hbond>
0.0000

> <Gold.Chemscore.DEClash>
1.5419

> <Gold.Chemscore.DEInternal>
1.6545

> <Gold.Chemscore.Rot>
2.3129

> <Gold.Chemscore.Internal.Correction>
   9.000000E+99

> <Gold.Chemscore.Hbonds>
donor molecule, donor type, donor heavy atom, donor atom, acceptor molecule, acceptor atom, score
      L1  H     8    29       P1 10171  0.66
      L1  H    12    32       P1  7948  0.79

> <Gold.Chemscore.Hbond.Weighted>
-5.2366

> <Gold.Chemscore.Metal.Weighted>
-0.0000

> <Gold.Chemscore.Lipo.Weighted>
-10.1822

> <Gold.Chemscore.Internal_Hbond.Weighted>
0.0000

> <Gold.Chemscore.DEClash.Weighted>
1.5419

> <Gold.Chemscore.DEInternal.Weighted>
1.6545

> <Gold.Chemscore.Rot.Weighted>
5.9211

> <Gold.Chemscore.Internal.Correction.Weighted>
   9.000000E+99

> <Gold.Protein.RotatedTorsions>
[ 6907 6896 6895 6894 ] final  -54.90 input  -60.11 | X-H torsion
[ 7974 7965 7964 7962 ] final  123.47 input  175.53 | X-H torsion
[ 8008 7997 7996 7995 ] final  178.77 input   59.86 | X-H torsion
[ 10167 10162 10161 10158 ] final  -74.86 input  -65.29 | X-H torsion
[ 10718 10713 10712 10709 ] final -102.17 input   66.30 | X-H torsion
[ 10763 10752 10751 10750 ] final  -90.02 input  -60.55 | X-H torsion
[ 11005 11000 10999 10996 ] final  148.05 input  -57.11 | X-H torsion

> <Gold.Protein.ActiveResidues>
 VAL166  LYS551  ARG553  GLY616  TRP617  ASP618  TYR619  PRO620  LYS621  CYS622 
 ASP623  PHE694  ASN695  SER759  ASP760  ASP761  ALA762  ILE779  LEU786  VAL792 
 PHE793  MET794  SER795  GLU796  ALA797  LYS798  CYS799  TRP800  GLU811  SER814 

> <Gold.Protein.RotatedAtoms>
  150.8298  134.7545  159.6843 H   0  0  0  0  0  0  0  0  0  0  0  0  # atno 6907 bound_to 6896
  152.4404  134.5600  159.9901 H   0  0  0  0  0  0  0  0  0  0  0  0  # atno 6908 bound_to 6896
  151.5763  133.3346  159.3035 H   0  0  0  0  0  0  0  0  0  0  0  0  # atno 6909 bound_to 6896
  145.0955  139.3556  143.4839 H   0  0  0  0  0  0  0  0  0  0  0  0  # atno 7974 bound_to 7965
  156.0509  140.1325  157.0051 H   0  0  0  0  0  0  0  0  0  0  0  0  # atno 8008 bound_to 7997
  154.4434  140.1011  156.6446 H   0  0  0  0  0  0  0  0  0  0  0  0  # atno 8009 bound_to 7997
  155.5524  140.3463  155.4474 H   0  0  0  0  0  0  0  0  0  0  0  0  # atno 8010 bound_to 7997
  140.4992  143.2364  151.7781 H   0  0  0  0  0  0  0  0  0  0  0  0  # atno 10167 bound_to 10162
  156.0219  130.5408  150.7070 H   0  0  0  0  0  0  0  0  0  0  0  0  # atno 10718 bound_to 10713
  154.6614  135.5319  153.8023 H   0  0  0  0  0  0  0  0  0  0  0  0  # atno 10763 bound_to 10752
  153.0444  135.6506  154.0866 H   0  0  0  0  0  0  0  0  0  0  0  0  # atno 10764 bound_to 10752
  154.0774  135.2949  155.3276 H   0  0  0  0  0  0  0  0  0  0  0  0  # atno 10765 bound_to 10752
  140.0927  134.9031  157.1676 H   0  0  0  0  0  0  0  0  0  0  0  0  # atno 11005 bound_to 11000
  146.3531  140.0809  142.8618 LP  0  0  0  0  0  0  0  0  0  0  0  0  # atno 17320 bound_to 7965
  145.1016  140.9349  143.4709 LP  0  0  0  0  0  0  0  0  0  0  0  0  # atno 17321 bound_to 7965
  139.4868  144.4545  151.9614 LP  0  0  0  0  0  0  0  0  0  0  0  0  # atno 17342 bound_to 10162
  140.3634  144.2945  150.5930 LP  0  0  0  0  0  0  0  0  0  0  0  0  # atno 17343 bound_to 10162
  157.4717  131.0894  151.0635 LP  0  0  0  0  0  0  0  0  0  0  0  0  # atno 17370 bound_to 10713
  157.1093  130.6015  149.5478 LP  0  0  0  0  0  0  0  0  0  0  0  0  # atno 17371 bound_to 10713
  140.3329  134.2789  155.7225 LP  0  0  0  0  0  0  0  0  0  0  0  0  # atno 17394 bound_to 11000
  141.2083  133.7782  157.0069 LP  0  0  0  0  0  0  0  0  0  0  0  0  # atno 17395 bound_to 11000

$$$$
