AV-unprocessed.smi:3028|AV-procd|sdf|11521|dock6
  -GOLD-   2272016463D 1   1.00000     0.00000
 Structure written by MMmdl.
 47 48  0  0  0  0  0  0  0  0  1 V2000
  144.7047  132.2664  148.9261 C   0  0  0  0  0  0  0  0  0  0  0  0
  144.8629  132.6882  150.3583 C   0  0  0  0  0  0  0  0  0  0  0  0
  143.9005  133.3186  151.1967 C   0  0  0  0  0  0  0  0  0  0  0  0
  144.3590  133.5627  152.4131 N   0  0  0  0  0  0  0  0  0  0  0  0
  145.6275  133.0984  152.3986 N   0  0  0  0  0  0  0  0  0  0  0  0
  146.4541  133.2073  153.5947 C   0  0  2  0  0  0  0  0  0  0  0  0
  146.6698  134.6942  153.9353 C   0  0  0  0  0  0  0  0  0  0  0  0
  147.7872  132.4238  153.4519 C   0  0  2  0  0  0  0  0  0  0  0  0
  147.5955  130.8917  153.5026 C   0  0  0  0  0  0  0  0  0  0  0  0
  148.6737  132.8374  154.5371 N   0  0  0  0  0  0  0  0  0  0  0  0
  149.8524  133.5895  154.0820 C   0  0  0  0  0  0  0  0  0  0  0  0
  150.1713  134.7984  154.9762 C   0  0  0  0  0  0  0  0  0  0  0  0
  150.4560  134.6365  156.1623 O   0  0  0  0  0  0  0  0  0  0  0  0
  150.1420  136.0316  154.4429 N   0  0  0  0  0  0  0  0  0  0  0  0
  150.4112  137.3015  155.1142 C   0  0  0  0  0  0  0  0  0  0  0  0
  149.3157  138.3176  154.7572 C   0  0  0  0  0  0  0  0  0  0  0  0
  149.6552  139.7059  155.3240 C   0  0  0  0  0  0  0  0  0  0  0  0
  150.9284  140.1287  154.8476 O   0  0  0  0  0  0  0  0  0  0  0  0
  151.9881  139.2730  155.2621 C   0  0  0  0  0  0  0  0  0  0  0  0
  151.7792  137.8618  154.6894 C   0  0  0  0  0  0  0  0  0  0  0  0
  145.9561  132.5654  151.1682 C   0  0  0  0  0  0  0  0  0  0  0  0
  143.6672  132.3291  148.5969 H   0  0  0  0  0  0  0  0  0  0  0  0
  145.0288  131.2371  148.7710 H   0  0  0  0  0  0  0  0  0  0  0  0
  145.2926  132.8939  148.2561 H   0  0  0  0  0  0  0  0  0  0  0  0
  142.8871  133.6059  150.9576 H   0  0  0  0  0  0  0  0  0  0  0  0
  145.8898  132.7627  154.4175 H   0  0  0  0  0  0  0  0  0  0  0  0
  147.1855  134.8172  154.8878 H   0  0  0  0  0  0  0  0  0  0  0  0
  145.7167  135.2178  154.0152 H   0  0  0  0  0  0  0  0  0  0  0  0
  147.2628  135.1975  153.1711 H   0  0  0  0  0  0  0  0  0  0  0  0
  148.2362  132.6910  152.4939 H   0  0  0  0  0  0  0  0  0  0  0  0
  146.9522  130.5390  152.6966 H   0  0  0  0  0  0  0  0  0  0  0  0
  147.1421  130.5814  154.4446 H   0  0  0  0  0  0  0  0  0  0  0  0
  148.5379  130.3560  153.3953 H   0  0  0  0  0  0  0  0  0  0  0  0
  148.9294  132.0367  155.0974 H   0  0  0  0  0  0  0  0  0  0  0  0
  150.7242  132.9366  154.0690 H   0  0  0  0  0  0  0  0  0  0  0  0
  149.6830  133.9394  153.0633 H   0  0  0  0  0  0  0  0  0  0  0  0
  149.9075  136.0939  153.4626 H   0  0  0  0  0  0  0  0  0  0  0  0
  150.4003  137.1714  156.1970 H   0  0  0  0  0  0  0  0  0  0  0  0
  149.2136  138.3899  153.6734 H   0  0  0  0  0  0  0  0  0  0  0  0
  148.3507  137.9835  155.1401 H   0  0  0  0  0  0  0  0  0  0  0  0
  148.9041  140.4316  155.0116 H   0  0  0  0  0  0  0  0  0  0  0  0
  149.6497  139.6930  156.4151 H   0  0  0  0  0  0  0  0  0  0  0  0
  152.9327  139.6852  154.9071 H   0  0  0  0  0  0  0  0  0  0  0  0
  152.0428  139.2457  156.3515 H   0  0  0  0  0  0  0  0  0  0  0  0
  152.5841  137.2047  155.0193 H   0  0  0  0  0  0  0  0  0  0  0  0
  151.8405  137.9053  153.6009 H   0  0  0  0  0  0  0  0  0  0  0  0
  146.9326  132.1471  150.9726 H   0  0  0  0  0  0  0  0  0  0  0  0
  1  2  1  0  0  0  0
  1 22  1  0  0  0  0
  1 23  1  0  0  0  0
  1 24  1  0  0  0  0
  2 21  2  0  0  0  0
  2  3  1  0  0  0  0
  3  4  2  0  0  0  0
  3 25  1  0  0  0  0
  4  5  1  0  0  0  0
  5  6  1  0  0  0  0
  5 21  1  0  0  0  0
  6  7  1  0  0  0  0
  6  8  1  0  0  0  0
  6 26  1  0  0  0  0
  7 27  1  0  0  0  0
  7 28  1  0  0  0  0
  7 29  1  0  0  0  0
  8  9  1  0  0  0  0
  8 10  1  0  0  0  0
  8 30  1  0  0  0  0
  9 31  1  0  0  0  0
  9 32  1  0  0  0  0
  9 33  1  0  0  0  0
 10 11  1  0  0  0  0
 10 34  1  0  0  0  0
 11 12  1  0  0  0  0
 11 35  1  0  0  0  0
 11 36  1  0  0  0  0
 12 13  2  0  0  0  0
 12 14  1  0  0  0  0
 14 15  1  0  0  0  0
 14 37  1  0  0  0  0
 15 20  1  0  0  0  0
 15 16  1  0  0  0  0
 15 38  1  0  0  0  0
 16 17  1  0  0  0  0
 16 39  1  0  0  0  0
 16 40  1  0  0  0  0
 17 18  1  0  0  0  0
 17 41  1  0  0  0  0
 17 42  1  0  0  0  0
 18 19  1  0  0  0  0
 19 20  1  0  0  0  0
 19 43  1  0  0  0  0
 19 44  1  0  0  0  0
 20 45  1  0  0  0  0
 20 46  1  0  0  0  0
 21 47  1  0  0  0  0
M  END
> <s_m_source_file>
AV-unprocessed.smi

> <i_m_source_file_index>
3028

> <i_lp_mmshare_version>
43012

> <i_f3d_flags>
0

> <s_epik_input>
W0NIM11jMVtjSF1ubihbY0hdMSlbQ0BIXShbQ0gzXSlbQ0BIXShbQ0gzXSlbTkhdW0NIMl1DKD1PKVtOSF1bQ0hdMltDSDJdW0NIMl1PW0NIMl1bQ0gyXTI=

> <s_epik_cmdline>
J2VwaWtfcHl0aG9uJywgJy1waCcsICc3LjAnLCAnLXRuJywgJzgnLCAnLW1hJywgJzIwMCcsICctbWV0YWxfYmluZGluZycsICctaW1hZScsICc8aW5maWxlLm1hZT4nLCAnLW9tYWUnLCAnPG91dGZpbGUubWFlPic=

> <r_lp_tautomer_probability>
1

> <r_epik_Ionization_Penalty>
0.88617

> <r_epik_Ionization_Penalty_Charging>
0

> <r_epik_Ionization_Penalty_Neutral>
0.88617

> <r_epik_State_Penalty>
0.921066

> <r_epik_Charging_Adjusted_Penalty>
0.921066

> <i_epik_Tot_Q>
0

> <i_epik_Tot_abs_Q>
0

> <r_epik_Metal_State_Penalty>
0.917309

> <b_epik_Metal_Only>
0

> <s_lp_Force_Field>
OPLS_2005

> <r_lp_Energy>
19.247

> <b_lp_Chiralities_Consistent>
1

> <s_lp_Variant>
AV-unprocessed.smi:3028-5

> <Gold.Version>
5.8.1

> <Gold.Id.Protein>
6NUR|6NUR_protein|mol2

> <Gold.PLP.Fitness>
43.7946

> <Gold.PLP.PLP>
-35.7471

> <Gold.PLP.part.hbond>
-2.8545

> <Gold.PLP.part.metal>
0.0000

> <Gold.PLP.part.buried>
-4.7084

> <Gold.PLP.part.nonpolar>
-29.2187

> <Gold.PLP.part.repulsive>
0.2685

> <Gold.PLP.ligand.clash>
0.0000

> <Gold.PLP.ligand.torsion>
1.4885

> <Gold.PLP.Chemscore.Hbond>
1.6500

> <Gold.PLP.Chemscore.CHOScore>
1.9989

> <Gold.PLP.Chemscore.Metal>
0.0000

> <Gold.Chemscore.Hbonds>
donor molecule, donor type, donor heavy atom, donor atom, acceptor molecule, acceptor atom, score
      L1  H    14    37       P1  7948  0.65
      P1  H  7989  7998       L1    18  1.00
      L1  C     3    25       P1 10186  1.00
      L1  C    21    47       P1 10747  1.00

> <Gold.PLP.Chemscore.Internal.Correction>
0.0779

> <Gold.Rescore>
     Score         DG    S(hbond)    S(metal)    S(lipo)     H(rot)  DE(clash)    DE(int)     intcor
     12.56     -14.33       0.99        0.00      89.54       1.92       0.31       1.46       ----

> <Gold.Chemscore.Fitness>
12.5620

> <Gold.Chemscore.DG>
-14.3296

> <Gold.Chemscore.ZeroCoef>
-5.4800

> <Gold.Chemscore.Hbond>
0.9873

> <Gold.Chemscore.Metal>
0.0000

> <Gold.Chemscore.Lipo>
89.5356

> <Gold.Chemscore.Internal_Hbond>
0.0000

> <Gold.Chemscore.DEClash>
0.3117

> <Gold.Chemscore.DEInternal>
1.4559

> <Gold.Chemscore.Rot>
1.9233

> <Gold.Chemscore.Internal.Correction>
   9.000000E+99

> <Gold.Chemscore.Hbonds>
donor molecule, donor type, donor heavy atom, donor atom, acceptor molecule, acceptor atom, score
      L1  H    14    37       P1  7948  0.06
      P1  H  7989  7998       L1    18  0.30

> <Gold.Chemscore.Hbond.Weighted>
-3.2975

> <Gold.Chemscore.Metal.Weighted>
-0.0000

> <Gold.Chemscore.Lipo.Weighted>
-10.4757

> <Gold.Chemscore.Internal_Hbond.Weighted>
0.0000

> <Gold.Chemscore.DEClash.Weighted>
0.3117

> <Gold.Chemscore.DEInternal.Weighted>
1.4559

> <Gold.Chemscore.Rot.Weighted>
4.9235

> <Gold.Chemscore.Internal.Correction.Weighted>
   9.000000E+99

> <Gold.Protein.RotatedTorsions>
[ 6907 6896 6895 6894 ] final  107.40 input  -60.11 | X-H torsion
[ 7974 7965 7964 7962 ] final  -75.58 input  175.53 | X-H torsion
[ 8008 7997 7996 7995 ] final   50.99 input   59.86 | X-H torsion
[ 10167 10162 10161 10158 ] final -165.46 input  -65.29 | X-H torsion
[ 10718 10713 10712 10709 ] final  -73.42 input   66.30 | X-H torsion
[ 10763 10752 10751 10750 ] final  171.89 input  -60.55 | X-H torsion
[ 11005 11000 10999 10996 ] final   -9.47 input  -57.11 | X-H torsion

> <Gold.Protein.ActiveResidues>
 VAL166  LYS551  ARG553  GLY616  TRP617  ASP618  TYR619  PRO620  LYS621  CYS622 
 ASP623  PHE694  ASN695  SER759  ASP760  ASP761  ALA762  ILE779  LEU786  VAL792 
 PHE793  MET794  SER795  GLU796  ALA797  LYS798  CYS799  TRP800  GLU811  SER814 

> <Gold.Protein.RotatedAtoms>
  152.5156  133.9240  159.7548 H   0  0  0  0  0  0  0  0  0  0  0  0  # atno 6907 bound_to 6896
  150.9605  133.6441  159.2762 H   0  0  0  0  0  0  0  0  0  0  0  0  # atno 6908 bound_to 6896
  151.3688  135.0924  159.9511 H   0  0  0  0  0  0  0  0  0  0  0  0  # atno 6909 bound_to 6896
  145.6241  140.9355  143.1122 H   0  0  0  0  0  0  0  0  0  0  0  0  # atno 7974 bound_to 7965
  155.4278  140.3449  155.4277 H   0  0  0  0  0  0  0  0  0  0  0  0  # atno 8008 bound_to 7997
  156.1354  140.1526  156.9033 H   0  0  0  0  0  0  0  0  0  0  0  0  # atno 8009 bound_to 7997
  154.4928  140.0836  156.7611 H   0  0  0  0  0  0  0  0  0  0  0  0  # atno 8010 bound_to 7997
  139.6180  144.0680  152.1906 H   0  0  0  0  0  0  0  0  0  0  0  0  # atno 10167 bound_to 10162
  156.0281  130.4394  150.2740 H   0  0  0  0  0  0  0  0  0  0  0  0  # atno 10718 bound_to 10713
  154.4183  135.2757  155.1992 H   0  0  0  0  0  0  0  0  0  0  0  0  # atno 10763 bound_to 10752
  154.3949  135.6058  153.5867 H   0  0  0  0  0  0  0  0  0  0  0  0  # atno 10764 bound_to 10752
  152.9832  135.5912  154.4475 H   0  0  0  0  0  0  0  0  0  0  0  0  # atno 10765 bound_to 10752
  140.7345  133.8721  155.8919 H   0  0  0  0  0  0  0  0  0  0  0  0  # atno 11005 bound_to 11000
  144.7219  139.8001  143.7379 LP  0  0  0  0  0  0  0  0  0  0  0  0  # atno 17320 bound_to 7965
  146.1408  139.4464  143.0110 LP  0  0  0  0  0  0  0  0  0  0  0  0  # atno 17321 bound_to 7965
  140.0315  144.6077  150.7484 LP  0  0  0  0  0  0  0  0  0  0  0  0  # atno 17342 bound_to 10162
  140.7364  143.2752  151.3763 LP  0  0  0  0  0  0  0  0  0  0  0  0  # atno 17343 bound_to 10162
  157.0843  131.0152  151.3145 LP  0  0  0  0  0  0  0  0  0  0  0  0  # atno 17370 bound_to 10713
  157.4903  130.7818  149.7501 LP  0  0  0  0  0  0  0  0  0  0  0  0  # atno 17371 bound_to 10713
  140.9891  134.1302  157.4424 LP  0  0  0  0  0  0  0  0  0  0  0  0  # atno 17394 bound_to 11000
  139.8819  135.0035  156.6190 LP  0  0  0  0  0  0  0  0  0  0  0  0  # atno 17395 bound_to 11000

$$$$
