AV-unprocessed.smi:107|AV-procd|sdf|1014|dock1
  -GOLD-   2262018 13D 1   1.00000     0.00000
 Structure written by MMmdl.
 31 32  0  0  0  0  0  0  0  0  1 V2000
  151.8678  137.4605  153.9265 C   0  0  0  0  0  0  0  0  0  0  0  0
  150.9933  138.5993  154.4237 C   0  0  0  0  0  0  0  0  0  0  0  0
  149.6788  138.7007  154.1009 C   0  0  0  0  0  0  0  0  0  0  0  0
  148.8528  139.7246  154.5412 N   0  0  0  0  0  0  0  0  0  0  0  0
  147.3959  139.7505  154.1440 C   0  0  1  0  0  0  0  0  0  0  0  0
  147.2279  140.1249  152.6650 C   0  0  0  0  0  0  0  0  0  0  0  0
  146.5031  138.9206  152.0811 C   0  0  1  0  0  0  0  0  0  0  0  0
  147.4080  138.0874  151.3800 O   0  0  0  0  0  0  0  0  0  0  0  0
  145.9074  138.2251  153.3151 C   0  0  1  0  0  0  0  0  0  0  0  0
  145.6362  136.7178  153.1631 C   0  0  0  0  0  0  0  0  0  0  0  0
  146.8395  135.9924  153.2980 O   0  0  0  0  0  0  0  0  0  0  0  0
  146.8739  138.4722  154.3272 O   0  0  0  0  0  0  0  0  0  0  0  0
  149.3822  140.7294  155.3780 C   0  0  0  0  0  0  0  0  0  0  0  0
  148.7171  141.6723  155.8047 O   0  0  0  0  0  0  0  0  0  0  0  0
  150.7322  140.6262  155.7098 N   0  0  0  0  0  0  0  0  0  0  0  0
  151.6002  139.6162  155.2870 C   0  0  0  0  0  0  0  0  0  0  0  0
  152.7762  139.6362  155.6468 O   0  0  0  0  0  0  0  0  0  0  0  0
  151.1169  141.3448  156.3056 H   0  0  0  0  0  0  0  0  0  0  0  0
  151.3156  136.7813  153.2764 H   0  0  0  0  0  0  0  0  0  0  0  0
  152.2521  136.8811  154.7667 H   0  0  0  0  0  0  0  0  0  0  0  0
  152.7160  137.8480  153.3611 H   0  0  0  0  0  0  0  0  0  0  0  0
  149.2487  137.9394  153.4665 H   0  0  0  0  0  0  0  0  0  0  0  0
  146.8667  140.4330  154.8103 H   0  0  0  0  0  0  0  0  0  0  0  0
  146.6090  141.0210  152.6058 H   0  0  0  0  0  0  0  0  0  0  0  0
  148.1838  140.3354  152.1822 H   0  0  0  0  0  0  0  0  0  0  0  0
  145.7217  139.2256  151.3844 H   0  0  0  0  0  0  0  0  0  0  0  0
  147.8206  137.5036  151.9978 H   0  0  0  0  0  0  0  0  0  0  0  0
  144.9874  138.7471  153.5864 H   0  0  0  0  0  0  0  0  0  0  0  0
  144.9621  136.3765  153.9493 H   0  0  0  0  0  0  0  0  0  0  0  0
  145.1634  136.4930  152.2064 H   0  0  0  0  0  0  0  0  0  0  0  0
  147.4850  136.3696  152.7200 H   0  0  0  0  0  0  0  0  0  0  0  0
  1  2  1  0  0  0  0
  1 19  1  0  0  0  0
  1 20  1  0  0  0  0
  1 21  1  0  0  0  0
  2 16  1  0  0  0  0
  2  3  2  0  0  0  0
  3  4  1  0  0  0  0
  3 22  1  0  0  0  0
  4  5  1  0  0  0  0
  4 13  1  0  0  0  0
  5 12  1  0  0  0  0
  5  6  1  0  0  0  0
  5 23  1  0  0  0  0
  6  7  1  0  0  0  0
  6 24  1  0  0  0  0
  6 25  1  0  0  0  0
  7  8  1  0  0  0  0
  7  9  1  0  0  0  0
  7 26  1  0  0  0  0
  8 27  1  0  0  0  0
  9 10  1  0  0  0  0
  9 12  1  0  0  0  0
  9 28  1  0  0  0  0
 10 11  1  0  0  0  0
 10 29  1  0  0  0  0
 10 30  1  0  0  0  0
 11 31  1  0  0  0  0
 13 14  2  0  0  0  0
 13 15  1  0  0  0  0
 15 18  1  0  0  0  0
 15 16  1  0  0  0  0
 16 17  2  0  0  0  0
M  END
> <s_m_source_file>
AV-unprocessed.smi

> <i_m_source_file_index>
107

> <i_lp_mmshare_version>
43012

> <i_f3d_flags>
0

> <s_epik_input>
Tz1jMVtuSF1jKD1PKW4oW2NIXWMxW0NIM10pW0NAQEhdMltDSDJdW0NAQEhdKFtPSF0pW0NASF0oTzIpW0NIMl1bT0hd

> <s_epik_cmdline>
J2VwaWtfcHl0aG9uJywgJy1waCcsICc3LjAnLCAnLXRuJywgJzgnLCAnLW1hJywgJzIwMCcsICctbWV0YWxfYmluZGluZycsICctaW1hZScsICc8aW5maWxlLm1hZT4nLCAnLW9tYWUnLCAnPG91dGZpbGUubWFlPic=

> <r_lp_tautomer_probability>
0.999537

> <r_epik_Ionization_Penalty>
0.00121888

> <r_epik_Ionization_Penalty_Charging>
0.00121876

> <r_epik_Ionization_Penalty_Neutral>
1.19946e-07

> <r_epik_State_Penalty>
0.000805124

> <r_epik_Charging_Adjusted_Penalty>
0.00202389

> <i_epik_Tot_Q>
0

> <i_epik_Tot_abs_Q>
0

> <r_epik_Metal_State_Penalty>
0.662472

> <b_epik_Metal_Only>
0

> <s_epik_Chemistry_Notes>
This compound contains an acetal/aminal-like group ( X-CH(R)-Y where X, Y are N, S, or O) that may be acid/base labile, releasing an aldehyde.

> <s_lp_Force_Field>
OPLS_2005

> <r_lp_Energy>
28.3693

> <b_lp_Chiralities_Consistent>
1

> <s_lp_Variant>
AV-unprocessed.smi:107-2

> <Gold.Version>
5.8.1

> <Gold.Id.Protein>
6NUR|6NUR_protein|mol2

> <Gold.PLP.Fitness>
38.0532

> <Gold.PLP.PLP>
-25.0399

> <Gold.PLP.part.hbond>
-4.6384

> <Gold.PLP.part.metal>
0.0000

> <Gold.PLP.part.buried>
3.4240

> <Gold.PLP.part.nonpolar>
-24.0136

> <Gold.PLP.part.repulsive>
0.8880

> <Gold.PLP.ligand.clash>
0.0000

> <Gold.PLP.ligand.torsion>
0.4681

> <Gold.PLP.Chemscore.Hbond>
3.6480

> <Gold.PLP.Chemscore.CHOScore>
1.0000

> <Gold.PLP.Chemscore.Metal>
0.0000

> <Gold.Chemscore.Hbonds>
donor molecule, donor type, donor heavy atom, donor atom, acceptor molecule, acceptor atom, score
      L1  H     8    27       P1  7948  0.66
      L1  H    11    31       P1  7948  0.99
      P1  H  7954  7966       L1     8  1.00
      P1  H  7997  8008       L1    17  1.00
      L1  C     3    22       P1  7948  1.00

> <Gold.PLP.Chemscore.Internal.Correction>
0.0055

> <Gold.Rescore>
     Score         DG    S(hbond)    S(metal)    S(lipo)     H(rot)  DE(clash)    DE(int)     intcor
     13.66     -15.16       3.22        0.00      50.49       2.73       1.40       0.10       ----

> <Gold.Chemscore.Fitness>
13.6594

> <Gold.Chemscore.DG>
-15.1576

> <Gold.Chemscore.ZeroCoef>
-5.4800

> <Gold.Chemscore.Hbond>
3.2177

> <Gold.Chemscore.Metal>
0.0000

> <Gold.Chemscore.Lipo>
50.4896

> <Gold.Chemscore.Internal_Hbond>
0.0000

> <Gold.Chemscore.DEClash>
1.4012

> <Gold.Chemscore.DEInternal>
0.0969

> <Gold.Chemscore.Rot>
2.7253

> <Gold.Chemscore.Internal.Correction>
   9.000000E+99

> <Gold.Chemscore.Hbonds>
donor molecule, donor type, donor heavy atom, donor atom, acceptor molecule, acceptor atom, score
      L1  H     8    27       P1  7948  0.66
      L1  H    11    31       P1  7948  0.94
      P1  H  7954  7966       L1     8  0.60
      P1  H  7997  8008       L1    17  1.00

> <Gold.Chemscore.Hbond.Weighted>
-10.7472

> <Gold.Chemscore.Metal.Weighted>
-0.0000

> <Gold.Chemscore.Lipo.Weighted>
-5.9073

> <Gold.Chemscore.Internal_Hbond.Weighted>
0.0000

> <Gold.Chemscore.DEClash.Weighted>
1.4012

> <Gold.Chemscore.DEInternal.Weighted>
0.0969

> <Gold.Chemscore.Rot.Weighted>
6.9769

> <Gold.Chemscore.Internal.Correction.Weighted>
   9.000000E+99

> <Gold.Protein.RotatedTorsions>
[ 6907 6896 6895 6894 ] final -111.07 input  -60.11 | X-H torsion
[ 7974 7965 7964 7962 ] final   63.47 input  175.53 | X-H torsion
[ 8008 7997 7996 7995 ] final  -35.82 input   59.86 | X-H torsion
[ 10167 10162 10161 10158 ] final   90.46 input  -65.29 | X-H torsion
[ 10718 10713 10712 10709 ] final -110.30 input   66.30 | X-H torsion
[ 10763 10752 10751 10750 ] final   93.79 input  -60.55 | X-H torsion
[ 11005 11000 10999 10996 ] final -112.24 input  -57.11 | X-H torsion

> <Gold.Protein.ActiveResidues>
 VAL166  LYS551  ARG553  GLY616  TRP617  ASP618  TYR619  PRO620  LYS621  CYS622 
 ASP623  PHE694  ASN695  SER759  ASP760  ASP761  ALA762  ILE779  LEU786  VAL792 
 PHE793  MET794  SER795  GLU796  ALA797  LYS798  CYS799  TRP800  GLU811  SER814 

> <Gold.Protein.RotatedAtoms>
  150.7666  133.9289  159.3420 H   0  0  0  0  0  0  0  0  0  0  0  0  # atno 6907 bound_to 6896
  151.7185  135.0897  160.0289 H   0  0  0  0  0  0  0  0  0  0  0  0  # atno 6908 bound_to 6896
  152.3665  133.6325  159.6090 H   0  0  0  0  0  0  0  0  0  0  0  0  # atno 6909 bound_to 6896
  145.8615  139.3318  143.0816 H   0  0  0  0  0  0  0  0  0  0  0  0  # atno 7974 bound_to 7965
  154.4086  140.1647  156.2274 H   0  0  0  0  0  0  0  0  0  0  0  0  # atno 8008 bound_to 7997
  155.9312  140.3414  155.6227 H   0  0  0  0  0  0  0  0  0  0  0  0  # atno 8009 bound_to 7997
  155.7104  140.0756  157.2364 H   0  0  0  0  0  0  0  0  0  0  0  0  # atno 8010 bound_to 7997
  139.8471  144.6612  150.9214 H   0  0  0  0  0  0  0  0  0  0  0  0  # atno 10167 bound_to 10162
  156.0583  130.5808  150.8218 H   0  0  0  0  0  0  0  0  0  0  0  0  # atno 10718 bound_to 10713
  153.2343  135.4313  155.0629 H   0  0  0  0  0  0  0  0  0  0  0  0  # atno 10763 bound_to 10752
  154.8311  135.3387  154.6742 H   0  0  0  0  0  0  0  0  0  0  0  0  # atno 10764 bound_to 10752
  153.7167  135.7019  153.5079 H   0  0  0  0  0  0  0  0  0  0  0  0  # atno 10765 bound_to 10752
  141.0687  133.9416  157.2528 H   0  0  0  0  0  0  0  0  0  0  0  0  # atno 11005 bound_to 11000
  145.9243  140.9093  143.0389 LP  0  0  0  0  0  0  0  0  0  0  0  0  # atno 17320 bound_to 7965
  144.6726  140.1331  143.7442 LP  0  0  0  0  0  0  0  0  0  0  0  0  # atno 17321 bound_to 7965
  140.7792  143.3860  151.1392 LP  0  0  0  0  0  0  0  0  0  0  0  0  # atno 17342 bound_to 10162
  139.7502  143.8791  152.3074 LP  0  0  0  0  0  0  0  0  0  0  0  0  # atno 17343 bound_to 10162
  157.5572  131.0945  150.9612 LP  0  0  0  0  0  0  0  0  0  0  0  0  # atno 17370 bound_to 10713
  156.9858  130.5544  149.5299 LP  0  0  0  0  0  0  0  0  0  0  0  0  # atno 17371 bound_to 10713
  139.9502  135.0177  156.8970 LP  0  0  0  0  0  0  0  0  0  0  0  0  # atno 17394 bound_to 11000
  140.5719  134.0435  155.7433 LP  0  0  0  0  0  0  0  0  0  0  0  0  # atno 17395 bound_to 11000

$$$$
