AV-unprocessed.smi:1278|AV-procd|sdf|5350|dock10
  -GOLD-   22720 4483D 1   1.00000     0.00000
 Structure written by MMmdl.
 39 40  0  0  0  0  0  0  0  0  2 V2000
  144.6953  131.6800  151.1413 C   0  0  0  0  0  0  0  0  0  0  0  0
  146.1668  131.7865  151.5655 C   0  0  1  0  0  0  0  0  0  0  0  0
  146.4172  133.0473  152.4098 C   0  0  0  0  0  0  0  0  0  0  0  0
  147.8869  133.1140  152.8420 C   0  0  0  0  0  0  0  0  0  0  0  0
  148.3033  131.8289  153.5743 C   0  0  0  0  0  0  0  0  0  0  0  0
  148.0557  130.6290  152.7337 N   0  3  1  0  0  0  0  0  0  0  0  0
  148.5773  129.3894  153.3621 C   0  0  0  0  0  0  0  0  0  0  0  0
  148.2161  128.1242  152.5590 C   0  0  0  0  0  0  0  0  0  0  0  0
  149.3457  127.6516  151.7665 N   0  0  0  0  0  0  0  0  0  0  0  0
  149.3016  126.6173  150.9141 C   0  0  0  0  0  0  0  0  0  0  0  0
  148.2829  125.9568  150.7074 O   0  0  0  0  0  0  0  0  0  0  0  0
  150.4952  126.4114  150.3303 N   0  0  0  0  0  0  0  0  0  0  0  0
  150.8403  125.4292  149.3647 C   0  0  0  0  0  0  0  0  0  0  0  0
  149.9635  124.6019  148.7841 N   0  0  0  0  0  0  0  0  0  0  0  0
  150.5794  123.7407  147.8724 C   0  0  0  0  0  0  0  0  0  0  0  0
  151.9353  123.9280  147.7703 C   0  0  0  0  0  0  0  0  0  0  0  0
  152.4961  125.2015  148.8209 S   0  0  0  0  0  0  0  0  0  0  0  0
  146.6266  130.5296  152.3317 C   0  0  0  0  0  0  0  0  0  0  0  0
  144.0371  131.5996  152.0071 H   0  0  0  0  0  0  0  0  0  0  0  0
  144.5288  130.8036  150.5143 H   0  0  0  0  0  0  0  0  0  0  0  0
  144.3875  132.5562  150.5699 H   0  0  0  0  0  0  0  0  0  0  0  0
  146.7654  131.8647  150.6564 H   0  0  0  0  0  0  0  0  0  0  0  0
  146.1568  133.9416  151.8424 H   0  0  0  0  0  0  0  0  0  0  0  0
  145.7759  133.0397  153.2924 H   0  0  0  0  0  0  0  0  0  0  0  0
  148.5210  133.2597  151.9663 H   0  0  0  0  0  0  0  0  0  0  0  0
  148.0464  133.9789  153.4867 H   0  0  0  0  0  0  0  0  0  0  0  0
  149.3624  131.8924  153.8274 H   0  0  0  0  0  0  0  0  0  0  0  0
  147.7572  131.7357  154.5143 H   0  0  0  0  0  0  0  0  0  0  0  0
  149.6642  129.4580  153.4234 H   0  0  0  0  0  0  0  0  0  0  0  0
  148.2169  129.3133  154.3894 H   0  0  0  0  0  0  0  0  0  0  0  0
  147.9261  127.3107  153.2229 H   0  0  0  0  0  0  0  0  0  0  0  0
  147.3607  128.3152  151.9085 H   0  0  0  0  0  0  0  0  0  0  0  0
  150.2222  128.1395  151.8812 H   0  0  0  0  0  0  0  0  0  0  0  0
  151.2437  127.0309  150.6035 H   0  0  0  0  0  0  0  0  0  0  0  0
  149.9747  123.0233  147.3377 H   0  0  0  0  0  0  0  0  0  0  0  0
  152.6348  123.3960  147.1426 H   0  0  0  0  0  0  0  0  0  0  0  0
  146.0097  130.3817  153.2198 H   0  0  0  0  0  0  0  0  0  0  0  0
  146.4768  129.6571  151.6969 H   0  0  0  0  0  0  0  0  0  0  0  0
  148.5920  130.7657  151.8887 H   0  0  0  0  0  0  0  0  0  0  0  0
  1  2  1  0  0  0  0
  1 19  1  0  0  0  0
  1 20  1  0  0  0  0
  1 21  1  0  0  0  0
  2 18  1  0  0  0  0
  2  3  1  0  0  0  0
  2 22  1  0  0  0  0
  3  4  1  0  0  0  0
  3 23  1  0  0  0  0
  3 24  1  0  0  0  0
  4  5  1  0  0  0  0
  4 25  1  0  0  0  0
  4 26  1  0  0  0  0
  5  6  1  0  0  0  0
  5 27  1  0  0  0  0
  5 28  1  0  0  0  0
  6  7  1  0  0  0  0
  6 18  1  0  0  0  0
  6 39  1  0  0  0  0
  7  8  1  0  0  0  0
  7 29  1  0  0  0  0
  7 30  1  0  0  0  0
  8  9  1  0  0  0  0
  8 31  1  0  0  0  0
  8 32  1  0  0  0  0
  9 10  1  0  0  0  0
  9 33  1  0  0  0  0
 10 11  2  0  0  0  0
 10 12  1  0  0  0  0
 12 13  1  0  0  0  0
 12 34  1  0  0  0  0
 13 17  1  0  0  0  0
 13 14  2  0  0  0  0
 14 15  1  0  0  0  0
 15 16  2  0  0  0  0
 15 35  1  0  0  0  0
 16 17  1  0  0  0  0
 16 36  1  0  0  0  0
 18 37  1  0  0  0  0
 18 38  1  0  0  0  0
M  CHG  1   6   1
M  END
> <s_m_source_file>
AV-unprocessed.smi

> <i_m_source_file_index>
1278

> <i_lp_mmshare_version>
43012

> <i_f3d_flags>
0

> <s_epik_input>
W0NIM11bQ0BASF0xW0NIMl1bQ0gyXVtDSDJdTihbQ0gyXTEpW0NIMl1bQ0gyXVtOSF1DKD1PKVtOSF1jMm5bY0hdW2NIXXMy

> <s_epik_cmdline>
J2VwaWtfcHl0aG9uJywgJy1waCcsICc3LjAnLCAnLXRuJywgJzgnLCAnLW1hJywgJzIwMCcsICctbWV0YWxfYmluZGluZycsICctaW1hZScsICc8aW5maWxlLm1hZT4nLCAnLW9tYWUnLCAnPG91dGZpbGUubWFlPic=

> <r_lp_tautomer_probability>
0.999

> <r_epik_Ionization_Penalty>
0.00222194

> <r_epik_Ionization_Penalty_Charging>
0.00208169

> <r_epik_Ionization_Penalty_Neutral>
0.000140251

> <r_epik_State_Penalty>
0.00142585

> <r_epik_Charging_Adjusted_Penalty>
0.00350754

> <i_epik_Tot_Q>
1

> <i_epik_Tot_abs_Q>
1

> <r_epik_Metal_State_Penalty>
0.0570424

> <b_epik_Metal_Only>
0

> <s_lp_Force_Field>
OPLS_2005

> <r_lp_Energy>
13.7049

> <b_lp_Chiralities_Consistent>
1

> <s_lp_Variant>
AV-unprocessed.smi:1278-4

> <Gold.Version>
5.8.1

> <Gold.Id.Protein>
6NUR|6NUR_protein|mol2

> <Gold.PLP.Fitness>
39.5434

> <Gold.PLP.PLP>
-31.4899

> <Gold.PLP.part.hbond>
-3.4016

> <Gold.PLP.part.metal>
0.0000

> <Gold.PLP.part.buried>
-4.1312

> <Gold.PLP.part.nonpolar>
-24.8989

> <Gold.PLP.part.repulsive>
0.4117

> <Gold.PLP.ligand.clash>
0.0000

> <Gold.PLP.ligand.torsion>
0.3542

> <Gold.PLP.Chemscore.Hbond>
2.9120

> <Gold.PLP.Chemscore.CHOScore>
0.0000

> <Gold.PLP.Chemscore.Metal>
0.0000

> <Gold.Chemscore.Hbonds>
donor molecule, donor type, donor heavy atom, donor atom, acceptor molecule, acceptor atom, score
      L1  H     6    39       P1 10747  1.00
      L1  H     9    33       P1 10737  0.74
      L1  H    12    34       P1 10737  0.79

> <Gold.PLP.Chemscore.Internal.Correction>
0.0258

> <Gold.Rescore>
     Score         DG    S(hbond)    S(metal)    S(lipo)     H(rot)  DE(clash)    DE(int)     intcor
     16.54     -18.32       2.76        0.00      65.84       1.60       0.06       1.72       ----

> <Gold.Chemscore.Fitness>
16.5367

> <Gold.Chemscore.DG>
-18.3166

> <Gold.Chemscore.ZeroCoef>
-5.4800

> <Gold.Chemscore.Hbond>
2.7633

> <Gold.Chemscore.Metal>
0.0000

> <Gold.Chemscore.Lipo>
65.8430

> <Gold.Chemscore.Internal_Hbond>
0.0000

> <Gold.Chemscore.DEClash>
0.0580

> <Gold.Chemscore.DEInternal>
1.7220

> <Gold.Chemscore.Rot>
1.6001

> <Gold.Chemscore.Internal.Correction>
   9.000000E+99

> <Gold.Chemscore.Hbonds>
donor molecule, donor type, donor heavy atom, donor atom, acceptor molecule, acceptor atom, score
      L1  H     6    39       P1 10747  0.90
      L1  H     9    33       P1 10737  0.72
      L1  H    12    34       P1 10737  0.17

> <Gold.Chemscore.Hbond.Weighted>
-9.2293

> <Gold.Chemscore.Metal.Weighted>
-0.0000

> <Gold.Chemscore.Lipo.Weighted>
-7.7036

> <Gold.Chemscore.Internal_Hbond.Weighted>
0.0000

> <Gold.Chemscore.DEClash.Weighted>
0.0580

> <Gold.Chemscore.DEInternal.Weighted>
1.7220

> <Gold.Chemscore.Rot.Weighted>
4.0963

> <Gold.Chemscore.Internal.Correction.Weighted>
   9.000000E+99

> <Gold.Protein.RotatedTorsions>
[ 6907 6896 6895 6894 ] final   41.22 input  -60.11 | X-H torsion
[ 7974 7965 7964 7962 ] final  130.48 input  175.53 | X-H torsion
[ 8008 7997 7996 7995 ] final -121.42 input   59.86 | X-H torsion
[ 10167 10162 10161 10158 ] final   89.21 input  -65.29 | X-H torsion
[ 10718 10713 10712 10709 ] final  173.64 input   66.30 | X-H torsion
[ 10763 10752 10751 10750 ] final   43.25 input  -60.55 | X-H torsion
[ 11005 11000 10999 10996 ] final   96.13 input  -57.11 | X-H torsion

> <Gold.Protein.ActiveResidues>
 VAL166  LYS551  ARG553  GLY616  TRP617  ASP618  TYR619  PRO620  LYS621  CYS622 
 ASP623  PHE694  ASN695  SER759  ASP760  ASP761  ALA762  ILE779  LEU786  VAL792 
 PHE793  MET794  SER795  GLU796  ALA797  LYS798  CYS799  TRP800  GLU811  SER814 

> <Gold.Protein.RotatedAtoms>
  152.1926  134.8659  160.0515 H   0  0  0  0  0  0  0  0  0  0  0  0  # atno 6907 bound_to 6896
  151.9542  133.3670  159.4019 H   0  0  0  0  0  0  0  0  0  0  0  0  # atno 6908 bound_to 6896
  150.6938  134.4232  159.5258 H   0  0  0  0  0  0  0  0  0  0  0  0  # atno 6909 bound_to 6896
  145.0175  139.4163  143.5214 H   0  0  0  0  0  0  0  0  0  0  0  0  # atno 7974 bound_to 7965
  155.1477  140.0403  157.2814 H   0  0  0  0  0  0  0  0  0  0  0  0  # atno 8008 bound_to 7997
  154.6427  140.2550  155.7277 H   0  0  0  0  0  0  0  0  0  0  0  0  # atno 8009 bound_to 7997
  156.2540  140.2852  156.0827 H   0  0  0  0  0  0  0  0  0  0  0  0  # atno 8010 bound_to 7997
  139.8595  144.6551  150.9075 H   0  0  0  0  0  0  0  0  0  0  0  0  # atno 10167 bound_to 10162
  156.9613  131.0061  151.2927 H   0  0  0  0  0  0  0  0  0  0  0  0  # atno 10718 bound_to 10713
  152.9864  135.6107  154.3081 H   0  0  0  0  0  0  0  0  0  0  0  0  # atno 10763 bound_to 10752
  154.2798  135.2777  155.2704 H   0  0  0  0  0  0  0  0  0  0  0  0  # atno 10764 bound_to 10752
  154.5048  135.5857  153.6615 H   0  0  0  0  0  0  0  0  0  0  0  0  # atno 10765 bound_to 10752
  139.8784  134.8935  156.4112 H   0  0  0  0  0  0  0  0  0  0  0  0  # atno 11005 bound_to 11000
  146.3480  139.9653  142.8712 LP  0  0  0  0  0  0  0  0  0  0  0  0  # atno 17320 bound_to 7965
  145.1940  140.9825  143.4194 LP  0  0  0  0  0  0  0  0  0  0  0  0  # atno 17321 bound_to 7965
  140.7777  143.3756  151.1568 LP  0  0  0  0  0  0  0  0  0  0  0  0  # atno 17342 bound_to 10162
  139.7387  143.8958  152.3043 LP  0  0  0  0  0  0  0  0  0  0  0  0  # atno 17343 bound_to 10162
  157.5656  130.8275  149.8322 LP  0  0  0  0  0  0  0  0  0  0  0  0  # atno 17370 bound_to 10713
  156.0321  130.3761  150.1660 LP  0  0  0  0  0  0  0  0  0  0  0  0  # atno 17371 bound_to 10713
  140.9199  133.7652  155.9893 LP  0  0  0  0  0  0  0  0  0  0  0  0  # atno 17394 bound_to 11000
  140.8452  134.3020  157.5298 LP  0  0  0  0  0  0  0  0  0  0  0  0  # atno 17395 bound_to 11000

$$$$
