AV-unprocessed.smi:497|AV-procd|sdf|2727|dock6
  -GOLD-   2262023173D 1   1.00000     0.00000
 Structure written by MMmdl.
 39 41  0  0  0  0  0  0  0  0  3 V2000
  151.4033  144.9993  160.0486 C   0  0  0  0  0  0  0  0  0  0  0  0
  150.4431  143.9864  159.8075 O   0  0  0  0  0  0  0  0  0  0  0  0
  150.1241  143.8593  158.4316 C   0  0  0  0  0  0  0  0  0  0  0  0
  151.3485  143.3730  157.6384 C   0  0  0  0  0  0  0  0  0  0  0  0
  151.6918  141.9632  157.9258 N   0  0  0  0  0  0  0  0  0  0  0  0
  151.3657  140.7950  157.2803 C   0  0  0  0  0  0  0  0  0  0  0  0
  150.5382  140.6023  156.0416 C   0  0  0  0  0  0  0  0  0  0  0  0
  151.3661  140.1767  154.9184 N   0  5  0  0  0  0  0  0  0  0  0  0
  152.1786  139.0830  154.9350 C   0  0  0  0  0  0  0  0  0  0  0  0
  153.4122  139.0164  154.9512 O   0  0  0  0  0  0  0  0  0  0  0  0
  151.4125  137.8148  154.9084 C   0  0  0  0  0  0  0  0  0  0  0  0
  150.0621  137.6041  154.8203 C   0  0  0  0  0  0  0  0  0  0  0  0
  149.8616  136.1963  154.8553 C   0  0  0  0  0  0  0  0  0  0  0  0
  151.1046  135.6428  154.9622 C   0  0  0  0  0  0  0  0  0  0  0  0
  152.0590  136.6112  154.9961 O   0  0  0  0  0  0  0  0  0  0  0  0
  151.9366  139.7778  157.9850 N   0  3  0  0  0  0  0  0  0  0  0  0
  152.6331  140.2844  159.0810 C   0  0  0  0  0  0  0  0  0  0  0  0
  153.3640  139.6366  160.0721 C   0  0  0  0  0  0  0  0  0  0  0  0
  153.9537  140.4529  161.0592 C   0  0  0  0  0  0  0  0  0  0  0  0
  153.8045  141.8545  161.0364 C   0  0  0  0  0  0  0  0  0  0  0  0
  153.0609  142.4985  160.0258 C   0  0  0  0  0  0  0  0  0  0  0  0
  152.4814  141.6853  159.0510 C   0  0  0  0  0  0  0  0  0  0  0  0
  151.6123  145.0583  161.1164 H   0  0  0  0  0  0  0  0  0  0  0  0
  151.0379  145.9743  159.7234 H   0  0  0  0  0  0  0  0  0  0  0  0
  152.3400  144.7858  159.5324 H   0  0  0  0  0  0  0  0  0  0  0  0
  149.2996  143.1570  158.3111 H   0  0  0  0  0  0  0  0  0  0  0  0
  149.7872  144.8197  158.0393 H   0  0  0  0  0  0  0  0  0  0  0  0
  151.1586  143.4682  156.5692 H   0  0  0  0  0  0  0  0  0  0  0  0
  152.2161  144.0006  157.8403 H   0  0  0  0  0  0  0  0  0  0  0  0
  149.7455  139.8930  156.2831 H   0  0  0  0  0  0  0  0  0  0  0  0
  150.0288  141.5412  155.8215 H   0  0  0  0  0  0  0  0  0  0  0  0
  149.3081  138.3736  154.7440 H   0  0  0  0  0  0  0  0  0  0  0  0
  148.9268  135.6579  154.8099 H   0  0  0  0  0  0  0  0  0  0  0  0
  151.4734  134.6298  155.0242 H   0  0  0  0  0  0  0  0  0  0  0  0
  153.4763  138.5626  160.0912 H   0  0  0  0  0  0  0  0  0  0  0  0
  154.5299  139.9950  161.8500 H   0  0  0  0  0  0  0  0  0  0  0  0
  154.2678  142.4485  161.8107 H   0  0  0  0  0  0  0  0  0  0  0  0
  152.9470  143.5723  160.0237 H   0  0  0  0  0  0  0  0  0  0  0  0
  151.8429  138.8039  157.7281 H   0  0  0  0  0  0  0  0  0  0  0  0
  1  2  1  0  0  0  0
  1 23  1  0  0  0  0
  1 24  1  0  0  0  0
  1 25  1  0  0  0  0
  2  3  1  0  0  0  0
  3  4  1  0  0  0  0
  3 26  1  0  0  0  0
  3 27  1  0  0  0  0
  4  5  1  0  0  0  0
  4 28  1  0  0  0  0
  4 29  1  0  0  0  0
  5 22  1  0  0  0  0
  5  6  1  0  0  0  0
  6  7  1  0  0  0  0
  6 16  2  0  0  0  0
  7  8  1  0  0  0  0
  7 30  1  0  0  0  0
  7 31  1  0  0  0  0
  8  9  1  0  0  0  0
  9 10  2  0  0  0  0
  9 11  1  0  0  0  0
 11 15  1  0  0  0  0
 11 12  2  0  0  0  0
 12 13  1  0  0  0  0
 12 32  1  0  0  0  0
 13 14  2  0  0  0  0
 13 33  1  0  0  0  0
 14 15  1  0  0  0  0
 14 34  1  0  0  0  0
 16 17  1  0  0  0  0
 16 39  1  0  0  0  0
 17 22  2  0  0  0  0
 17 18  1  0  0  0  0
 18 19  2  0  0  0  0
 18 35  1  0  0  0  0
 19 20  1  0  0  0  0
 19 36  1  0  0  0  0
 20 21  2  0  0  0  0
 20 37  1  0  0  0  0
 21 22  1  0  0  0  0
 21 38  1  0  0  0  0
M  CHG  1   8  -1
M  CHG  1  16   1
M  END
> <s_m_source_file>
AV-unprocessed.smi

> <i_m_source_file_index>
497

> <i_lp_mmshare_version>
43012

> <i_f3d_flags>
0

> <s_epik_input>
W2NIXTFbY0hdW2NIXVtjSF1jKGMxMiluKFtDSDJdW0NIMl1PW0NIM10pYyhuMilbQ0gyXVtOSF1DKD1PKWMzW2NIXVtjSF1bY0hdbzM=

> <s_epik_cmdline>
J2VwaWtfcHl0aG9uJywgJy1waCcsICc3LjAnLCAnLXRuJywgJzgnLCAnLW1hJywgJzIwMCcsICctbWV0YWxfYmluZGluZycsICctaW1hZScsICc8aW5maWxlLm1hZT4nLCAnLW9tYWUnLCAnPG91dGZpbGUubWFlPic=

> <r_epik_Ionization_Penalty>
6.0511

> <r_epik_Ionization_Penalty_Charging>
6.0511

> <r_epik_Ionization_Penalty_Neutral>
2.61117e-12

> <r_epik_State_Penalty>
7.24158

> <r_epik_Charging_Adjusted_Penalty>
13.2927

> <i_epik_Tot_Q>
0

> <i_epik_Tot_abs_Q>
2

> <r_epik_Metal_State_Penalty>
3.25464

> <b_epik_Metal_Only>
1

> <s_lp_Force_Field>
OPLS_2005

> <r_lp_Energy>
9.23096

> <b_lp_Chiralities_Consistent>
1

> <s_lp_Variant>
AV-unprocessed.smi:497-4

> <Gold.Version>
5.8.1

> <Gold.Id.Protein>
6NUR|6NUR_protein|mol2

> <Gold.PLP.Fitness>
51.9405

> <Gold.PLP.PLP>
-45.1280

> <Gold.PLP.part.hbond>
-3.0000

> <Gold.PLP.part.metal>
0.0000

> <Gold.PLP.part.buried>
-6.4084

> <Gold.PLP.part.nonpolar>
-36.0489

> <Gold.PLP.part.repulsive>
0.3470

> <Gold.PLP.ligand.clash>
0.0000

> <Gold.PLP.ligand.torsion>
1.1603

> <Gold.PLP.Chemscore.Hbond>
3.0000

> <Gold.PLP.Chemscore.CHOScore>
0.0000

> <Gold.PLP.Chemscore.Metal>
0.0000

> <Gold.Chemscore.Hbonds>
donor molecule, donor type, donor heavy atom, donor atom, acceptor molecule, acceptor atom, score
      P1  H  7989  7998       L1     8  1.00
      P1  H  7997  8008       L1    10  1.00
      P1  H 10752 10763       L1    15  0.26

> <Gold.PLP.Chemscore.Internal.Correction>
0.1331

> <Gold.Rescore>
     Score         DG    S(hbond)    S(metal)    S(lipo)     H(rot)  DE(clash)    DE(int)     intcor
     19.92     -20.99       2.30        0.00     108.21       1.89       0.03       1.04       ----

> <Gold.Chemscore.Fitness>
19.9224

> <Gold.Chemscore.DG>
-20.9924

> <Gold.Chemscore.ZeroCoef>
-5.4800

> <Gold.Chemscore.Hbond>
2.3018

> <Gold.Chemscore.Metal>
0.0000

> <Gold.Chemscore.Lipo>
108.2097

> <Gold.Chemscore.Internal_Hbond>
0.0000

> <Gold.Chemscore.DEClash>
0.0270

> <Gold.Chemscore.DEInternal>
1.0430

> <Gold.Chemscore.Rot>
1.8892

> <Gold.Chemscore.Internal.Correction>
   9.000000E+99

> <Gold.Chemscore.Hbonds>
donor molecule, donor type, donor heavy atom, donor atom, acceptor molecule, acceptor atom, score
      P1  H  7989  7998       L1     8  0.49
      P1  H  7997  8008       L1    10  0.97
      P1  H 10752 10763       L1    15  0.01

> <Gold.Chemscore.Hbond.Weighted>
-7.6881

> <Gold.Chemscore.Metal.Weighted>
-0.0000

> <Gold.Chemscore.Lipo.Weighted>
-12.6605

> <Gold.Chemscore.Internal_Hbond.Weighted>
0.0000

> <Gold.Chemscore.DEClash.Weighted>
0.0270

> <Gold.Chemscore.DEInternal.Weighted>
1.0430

> <Gold.Chemscore.Rot.Weighted>
4.8363

> <Gold.Chemscore.Internal.Correction.Weighted>
   9.000000E+99

> <Gold.Protein.RotatedTorsions>
[ 6907 6896 6895 6894 ] final -169.27 input  -60.11 | X-H torsion
[ 7974 7965 7964 7962 ] final   60.05 input  175.53 | X-H torsion
[ 8008 7997 7996 7995 ] final   -2.31 input   59.86 | X-H torsion
[ 10167 10162 10161 10158 ] final  -74.30 input  -65.29 | X-H torsion
[ 10718 10713 10712 10709 ] final    6.69 input   66.30 | X-H torsion
[ 10763 10752 10751 10750 ] final   79.64 input  -60.55 | X-H torsion
[ 11005 11000 10999 10996 ] final  -34.31 input  -57.11 | X-H torsion

> <Gold.Protein.ActiveResidues>
 VAL166  LYS551  ARG553  GLY616  TRP617  ASP618  TYR619  PRO620  LYS621  CYS622 
 ASP623  PHE694  ASN695  SER759  ASP760  ASP761  ALA762  ILE779  LEU786  VAL792 
 PHE793  MET794  SER795  GLU796  ALA797  LYS798  CYS799  TRP800  GLU811  SER814 

> <Gold.Protein.RotatedAtoms>
  151.4890  133.3529  159.2850 H   0  0  0  0  0  0  0  0  0  0  0  0  # atno 6907 bound_to 6896
  150.8847  134.8245  159.7261 H   0  0  0  0  0  0  0  0  0  0  0  0  # atno 6908 bound_to 6896
  152.4785  134.4792  159.9712 H   0  0  0  0  0  0  0  0  0  0  0  0  # atno 6909 bound_to 6896
  145.9003  139.3576  143.0596 H   0  0  0  0  0  0  0  0  0  0  0  0  # atno 7974 bound_to 7965
  154.6372  140.2537  155.7365 H   0  0  0  0  0  0  0  0  0  0  0  0  # atno 8008 bound_to 7997
  156.2510  140.2895  156.0669 H   0  0  0  0  0  0  0  0  0  0  0  0  # atno 8009 bound_to 7997
  155.1653  140.0385  157.2841 H   0  0  0  0  0  0  0  0  0  0  0  0  # atno 8010 bound_to 7997
  140.5039  143.2356  151.7707 H   0  0  0  0  0  0  0  0  0  0  0  0  # atno 10167 bound_to 10162
  156.9258  130.5808  149.5648 H   0  0  0  0  0  0  0  0  0  0  0  0  # atno 10718 bound_to 10713
  153.0969  135.4832  154.8794 H   0  0  0  0  0  0  0  0  0  0  0  0  # atno 10763 bound_to 10752
  154.7334  135.3065  154.8855 H   0  0  0  0  0  0  0  0  0  0  0  0  # atno 10764 bound_to 10752
  153.9484  135.6826  153.4797 H   0  0  0  0  0  0  0  0  0  0  0  0  # atno 10765 bound_to 10752
  140.9706  133.7112  156.1517 H   0  0  0  0  0  0  0  0  0  0  0  0  # atno 11005 bound_to 11000
  145.8799  140.9369  143.0607 LP  0  0  0  0  0  0  0  0  0  0  0  0  # atno 17320 bound_to 7965
  144.6735  140.0766  143.7471 LP  0  0  0  0  0  0  0  0  0  0  0  0  # atno 17321 bound_to 7965
  139.4878  144.4485  151.9682 LP  0  0  0  0  0  0  0  0  0  0  0  0  # atno 17342 bound_to 10162
  140.3575  144.3014  150.5939 LP  0  0  0  0  0  0  0  0  0  0  0  0  # atno 17343 bound_to 10162
  156.0470  130.5545  150.8903 LP  0  0  0  0  0  0  0  0  0  0  0  0  # atno 17370 bound_to 10713
  157.5878  131.0945  150.9167 LP  0  0  0  0  0  0  0  0  0  0  0  0  # atno 17371 bound_to 10713
  140.7335  134.4229  157.5563 LP  0  0  0  0  0  0  0  0  0  0  0  0  # atno 17394 bound_to 11000
  139.8911  134.8789  156.2338 LP  0  0  0  0  0  0  0  0  0  0  0  0  # atno 17395 bound_to 11000

$$$$
