AV-unprocessed.smi:38|AV-procd|sdf|336|dock5
  -GOLD-   2262016173D 1   1.00000     0.00000
 Structure written by MMmdl.
 28 29  0  0  0  0  0  0  0  0  1 V2000
  152.4921  141.3568  159.0544 O   0  0  0  0  0  0  0  0  0  0  0  0
  151.7860  141.3158  158.0488 C   0  0  0  0  0  0  0  0  0  0  0  0
  152.1173  140.4634  156.9915 N   0  0  0  0  0  0  0  0  0  0  0  0
  151.3987  140.3276  155.8020 C   0  0  0  0  0  0  0  0  0  0  0  0
  151.7964  139.5550  154.9312 O   0  0  0  0  0  0  0  0  0  0  0  0
  150.2322  141.1120  155.6608 N   0  0  0  0  0  0  0  0  0  0  0  0
  149.4112  141.0075  154.3958 C   0  0  2  0  0  0  0  0  0  0  0  0
  148.2281  141.9759  154.4322 C   0  0  0  0  0  0  0  0  0  0  0  0
  147.1419  141.1423  153.7852 C   0  0  2  0  0  0  0  0  0  0  0  0
  145.8595  141.5795  154.1861 O   0  0  0  0  0  0  0  0  0  0  0  0
  147.4697  139.7378  154.2980 C   0  0  1  0  0  0  0  0  0  0  0  0
  146.9258  138.6159  153.4007 C   0  0  0  0  0  0  0  0  0  0  0  0
  147.6262  138.5932  152.1757 O   0  0  0  0  0  0  0  0  0  0  0  0
  148.8971  139.7117  154.2926 O   0  0  0  0  0  0  0  0  0  0  0  0
  149.8711  141.9817  156.6813 C   0  0  0  0  0  0  0  0  0  0  0  0
  150.5789  142.1070  157.8289 C   0  0  0  0  0  0  0  0  0  0  0  0
  150.1678  142.9721  158.7714 F   0  0  0  0  0  0  0  0  0  0  0  0
  152.9491  139.9009  157.0958 H   0  0  0  0  0  0  0  0  0  0  0  0
  150.0754  141.1639  153.5445 H   0  0  0  0  0  0  0  0  0  0  0  0
  147.2332  141.1879  152.6990 H   0  0  0  0  0  0  0  0  0  0  0  0
  147.1098  139.6316  155.3231 H   0  0  0  0  0  0  0  0  0  0  0  0
  147.9744  142.2106  155.4677 H   0  0  0  0  0  0  0  0  0  0  0  0
  148.4542  142.9010  153.9011 H   0  0  0  0  0  0  0  0  0  0  0  0
  145.2202  141.2353  153.5809 H   0  0  0  0  0  0  0  0  0  0  0  0
  147.0738  137.6474  153.8793 H   0  0  0  0  0  0  0  0  0  0  0  0
  145.8557  138.7308  153.2262 H   0  0  0  0  0  0  0  0  0  0  0  0
  147.8840  137.7024  151.9933 H   0  0  0  0  0  0  0  0  0  0  0  0
  148.9906  142.5954  156.5669 H   0  0  0  0  0  0  0  0  0  0  0  0
  1  2  2  0  0  0  0
  2 16  1  0  0  0  0
  2  3  1  0  0  0  0
  3 18  1  0  0  0  0
  3  4  1  0  0  0  0
  4  5  2  0  0  0  0
  4  6  1  0  0  0  0
  6  7  1  0  0  0  0
  6 15  1  0  0  0  0
  7 19  1  0  0  0  0
  7 14  1  0  0  0  0
  7  8  1  0  0  0  0
  8  9  1  0  0  0  0
  8 22  1  0  0  0  0
  8 23  1  0  0  0  0
  9 20  1  0  0  0  0
  9 10  1  0  0  0  0
  9 11  1  0  0  0  0
 10 24  1  0  0  0  0
 11 21  1  0  0  0  0
 11 12  1  0  0  0  0
 11 14  1  0  0  0  0
 12 13  1  0  0  0  0
 12 25  1  0  0  0  0
 12 26  1  0  0  0  0
 13 27  1  0  0  0  0
 15 16  2  0  0  0  0
 15 28  1  0  0  0  0
 16 17  1  0  0  0  0
M  END
> <s_m_source_file>
AV-unprocessed.smi

> <i_m_source_file_index>
38

> <i_lp_mmshare_version>
43012

> <i_f3d_flags>
0

> <s_epik_input>
Tz1jMVtuSF1jKD1PKW4oW2NIXWMxRilbQ0BIXTJbQ0gyXVtDQEhdKFtPSF0pW0NASF0oTzIpW0NIMl1bT0hd

> <s_epik_cmdline>
J2VwaWtfcHl0aG9uJywgJy1waCcsICc3LjAnLCAnLXRuJywgJzgnLCAnLW1hJywgJzIwMCcsICctbWV0YWxfYmluZGluZycsICctaW1hZScsICc8aW5maWxlLm1hZT4nLCAnLW9tYWUnLCAnPG91dGZpbGUubWFlPic=

> <r_lp_tautomer_probability>
0.999537

> <r_epik_Ionization_Penalty>
0.0357432

> <r_epik_Ionization_Penalty_Charging>
0.0357431

> <r_epik_Ionization_Penalty_Neutral>
1.19946e-07

> <r_epik_State_Penalty>
0.0298169

> <r_epik_Charging_Adjusted_Penalty>
0.06556

> <i_epik_Tot_Q>
0

> <i_epik_Tot_abs_Q>
0

> <r_epik_Metal_State_Penalty>
2.348

> <b_epik_Metal_Only>
0

> <s_epik_Chemistry_Notes>
This compound contains an acetal/aminal-like group ( X-CH(R)-Y where X, Y are N, S, or O) that may be acid/base labile, releasing an aldehyde.

> <s_lp_Force_Field>
OPLS_2005

> <r_lp_Energy>
26.798

> <b_lp_Chiralities_Consistent>
1

> <s_lp_Variant>
AV-unprocessed.smi:38-2

> <Gold.Version>
5.8.1

> <Gold.Id.Protein>
6NUR|6NUR_protein|mol2

> <Gold.PLP.Fitness>
38.8288

> <Gold.PLP.PLP>
-27.8943

> <Gold.PLP.part.hbond>
-4.0000

> <Gold.PLP.part.metal>
0.0000

> <Gold.PLP.part.buried>
-1.1576

> <Gold.PLP.part.nonpolar>
-22.7768

> <Gold.PLP.part.repulsive>
0.3080

> <Gold.PLP.ligand.clash>
0.0000

> <Gold.PLP.ligand.torsion>
0.0842

> <Gold.PLP.Chemscore.Hbond>
2.7500

> <Gold.PLP.Chemscore.CHOScore>
0.9476

> <Gold.PLP.Chemscore.Metal>
0.0000

> <Gold.Chemscore.Hbonds>
donor molecule, donor type, donor heavy atom, donor atom, acceptor molecule, acceptor atom, score
      L1  H    10    24       P1 10175  1.00
      L1  H    13    27       P1  7948  1.00
      P1  H  7989  7998       L1     5  0.75
      L1  C    15    28       P1  8028  0.95

> <Gold.PLP.Chemscore.Internal.Correction>
0.0102

> <Gold.Rescore>
     Score         DG    S(hbond)    S(metal)    S(lipo)     H(rot)  DE(clash)    DE(int)     intcor
      9.19     -10.93       2.78        0.00      30.97       2.91       0.74       0.99       ----

> <Gold.Chemscore.Fitness>
9.1946

> <Gold.Chemscore.DG>
-10.9265

> <Gold.Chemscore.ZeroCoef>
-5.4800

> <Gold.Chemscore.Hbond>
2.7794

> <Gold.Chemscore.Metal>
0.0000

> <Gold.Chemscore.Lipo>
30.9692

> <Gold.Chemscore.Internal_Hbond>
0.0000

> <Gold.Chemscore.DEClash>
0.7386

> <Gold.Chemscore.DEInternal>
0.9933

> <Gold.Chemscore.Rot>
2.9141

> <Gold.Chemscore.Internal.Correction>
   9.000000E+99

> <Gold.Chemscore.Hbonds>
donor molecule, donor type, donor heavy atom, donor atom, acceptor molecule, acceptor atom, score
      L1  H    10    24       P1 10175  0.37
      L1  H    13    27       P1  7948  0.99
      P1  H  7989  7998       L1     5  0.09

> <Gold.Chemscore.Hbond.Weighted>
-9.2832

> <Gold.Chemscore.Metal.Weighted>
-0.0000

> <Gold.Chemscore.Lipo.Weighted>
-3.6234

> <Gold.Chemscore.Internal_Hbond.Weighted>
0.0000

> <Gold.Chemscore.DEClash.Weighted>
0.7386

> <Gold.Chemscore.DEInternal.Weighted>
0.9933

> <Gold.Chemscore.Rot.Weighted>
7.4601

> <Gold.Chemscore.Internal.Correction.Weighted>
   9.000000E+99

> <Gold.Protein.RotatedTorsions>
[ 6907 6896 6895 6894 ] final  165.49 input  -60.11 | X-H torsion
[ 7974 7965 7964 7962 ] final  121.78 input  175.53 | X-H torsion
[ 8008 7997 7996 7995 ] final   16.38 input   59.86 | X-H torsion
[ 10167 10162 10161 10158 ] final -108.69 input  -65.29 | X-H torsion
[ 10718 10713 10712 10709 ] final -142.02 input   66.30 | X-H torsion
[ 10763 10752 10751 10750 ] final  -95.40 input  -60.55 | X-H torsion
[ 11005 11000 10999 10996 ] final  148.65 input  -57.11 | X-H torsion

> <Gold.Protein.ActiveResidues>
 VAL166  LYS551  ARG553  GLY616  TRP617  ASP618  TYR619  PRO620  LYS621  CYS622 
 ASP623  PHE694  ASN695  SER759  ASP760  ASP761  ALA762  ILE779  LEU786  VAL792 
 PHE793  MET794  SER795  GLU796  ALA797  LYS798  CYS799  TRP800  GLU811  SER814 

> <Gold.Protein.RotatedAtoms>
  151.8936  133.3522  159.3806 H   0  0  0  0  0  0  0  0  0  0  0  0  # atno 6907 bound_to 6896
  150.7097  134.4898  159.5520 H   0  0  0  0  0  0  0  0  0  0  0  0  # atno 6908 bound_to 6896
  152.2473  134.8168  160.0502 H   0  0  0  0  0  0  0  0  0  0  0  0  # atno 6909 bound_to 6896
  145.1153  139.3425  143.4742 H   0  0  0  0  0  0  0  0  0  0  0  0  # atno 7974 bound_to 7965
  154.8761  140.2966  155.5452 H   0  0  0  0  0  0  0  0  0  0  0  0  # atno 8008 bound_to 7997
  156.3022  140.2451  156.3691 H   0  0  0  0  0  0  0  0  0  0  0  0  # atno 8009 bound_to 7997
  154.8766  140.0399  157.1746 H   0  0  0  0  0  0  0  0  0  0  0  0  # atno 8010 bound_to 7997
  140.1634  143.4102  152.1409 H   0  0  0  0  0  0  0  0  0  0  0  0  # atno 10167 bound_to 10162
  156.3410  130.7637  151.1773 H   0  0  0  0  0  0  0  0  0  0  0  0  # atno 10718 bound_to 10713
  154.7145  135.5122  153.8716 H   0  0  0  0  0  0  0  0  0  0  0  0  # atno 10763 bound_to 10752
  153.0808  135.6631  154.0057 H   0  0  0  0  0  0  0  0  0  0  0  0  # atno 10764 bound_to 10752
  153.9893  135.3021  155.3393 H   0  0  0  0  0  0  0  0  0  0  0  0  # atno 10765 bound_to 10752
  140.0978  134.9002  157.1749 H   0  0  0  0  0  0  0  0  0  0  0  0  # atno 11005 bound_to 11000
  146.3524  140.1089  142.8604 LP  0  0  0  0  0  0  0  0  0  0  0  0  # atno 17320 bound_to 7965
  145.0801  140.9215  143.4830 LP  0  0  0  0  0  0  0  0  0  0  0  0  # atno 17321 bound_to 7965
  139.5371  144.7220  151.4858 LP  0  0  0  0  0  0  0  0  0  0  0  0  # atno 17342 bound_to 10162
  140.6629  143.8461  150.6908 LP  0  0  0  0  0  0  0  0  0  0  0  0  # atno 17343 bound_to 10162
  157.7447  131.0454  150.4844 LP  0  0  0  0  0  0  0  0  0  0  0  0  # atno 17370 bound_to 10713
  156.5024  130.4120  149.6346 LP  0  0  0  0  0  0  0  0  0  0  0  0  # atno 17371 bound_to 10713
  140.3263  134.2860  155.7236 LP  0  0  0  0  0  0  0  0  0  0  0  0  # atno 17394 bound_to 11000
  141.2097  133.7741  156.9981 LP  0  0  0  0  0  0  0  0  0  0  0  0  # atno 17395 bound_to 11000

$$$$
