AV-unprocessed.smi:3258|AV-procd|sdf|12471|dock9
  -GOLD-   2272018373D 1   1.00000     0.00000
 Structure written by MMmdl.
 38 39  0  0  0  0  0  0  0  0  1 V2000
  143.9818  136.9624  152.7692 C   0  0  0  0  0  0  0  0  0  0  0  0
  145.0203  135.8750  152.4501 C   0  0  1  0  0  0  0  0  0  0  0  0
  145.1284  135.5638  150.9369 C   0  0  0  0  0  0  0  0  0  0  0  0
  145.1535  134.1424  150.6303 N   0  0  0  0  0  0  0  0  0  0  0  0
  144.0892  133.2893  150.4257 C   0  0  0  0  0  0  0  0  0  0  0  0
  144.6038  132.0499  150.1732 C   0  0  0  0  0  0  0  0  0  0  0  0
  146.0110  132.2459  150.2514 C   0  0  0  0  0  0  0  0  0  0  0  0
  146.3367  133.4981  150.5266 N   0  0  0  0  0  0  0  0  0  0  0  0
  146.3120  136.2635  153.0126 N   0  0  0  0  0  0  0  0  0  0  0  0
  146.5161  136.6991  154.2633 C   0  0  0  0  0  0  0  0  0  0  0  0
  145.6194  136.8721  155.0892 O   0  0  0  0  0  0  0  0  0  0  0  0
  147.8181  136.8982  154.5111 N   0  0  0  0  0  0  0  0  0  0  0  0
  148.3806  137.2940  155.7978 C   0  0  0  0  0  0  0  0  0  0  0  0
  149.7507  137.9774  155.6305 C   0  0  1  0  0  0  0  0  0  0  0  0
  150.6773  137.2665  154.6657 C   0  0  0  0  0  0  0  0  0  0  0  0
  151.7045  138.3514  154.3555 C   0  0  0  0  0  0  0  0  0  0  0  0
  151.0102  139.5909  154.4668 O   0  0  0  0  0  0  0  0  0  0  0  0
  149.7127  139.3773  155.0139 C   0  0  0  0  0  0  0  0  0  0  0  0
  143.0046  136.7008  152.3628 H   0  0  0  0  0  0  0  0  0  0  0  0
  144.2671  137.9299  152.3550 H   0  0  0  0  0  0  0  0  0  0  0  0
  143.8664  137.0874  153.8464 H   0  0  0  0  0  0  0  0  0  0  0  0
  144.6983  134.9623  152.9546 H   0  0  0  0  0  0  0  0  0  0  0  0
  144.3086  136.0260  150.3849 H   0  0  0  0  0  0  0  0  0  0  0  0
  146.0418  136.0079  150.5399 H   0  0  0  0  0  0  0  0  0  0  0  0
  143.0661  133.6324  150.4738 H   0  0  0  0  0  0  0  0  0  0  0  0
  144.0586  131.1412  149.9664 H   0  0  0  0  0  0  0  0  0  0  0  0
  146.8000  131.5205  150.1182 H   0  0  0  0  0  0  0  0  0  0  0  0
  147.1175  136.1509  152.4146 H   0  0  0  0  0  0  0  0  0  0  0  0
  148.4740  136.7258  153.7632 H   0  0  0  0  0  0  0  0  0  0  0  0
  147.6827  137.9887  156.2654 H   0  0  0  0  0  0  0  0  0  0  0  0
  148.4559  136.4384  156.4714 H   0  0  0  0  0  0  0  0  0  0  0  0
  150.2458  138.0376  156.6015 H   0  0  0  0  0  0  0  0  0  0  0  0
  151.1259  136.3655  155.0851 H   0  0  0  0  0  0  0  0  0  0  0  0
  150.1412  136.9900  153.7566 H   0  0  0  0  0  0  0  0  0  0  0  0
  152.5074  138.3375  155.0935 H   0  0  0  0  0  0  0  0  0  0  0  0
  152.1505  138.2310  153.3680 H   0  0  0  0  0  0  0  0  0  0  0  0
  148.9860  139.4217  154.2014 H   0  0  0  0  0  0  0  0  0  0  0  0
  149.4556  140.1494  155.7396 H   0  0  0  0  0  0  0  0  0  0  0  0
  1  2  1  0  0  0  0
  1 19  1  0  0  0  0
  1 20  1  0  0  0  0
  1 21  1  0  0  0  0
  2  3  1  0  0  0  0
  2  9  1  0  0  0  0
  2 22  1  0  0  0  0
  3  4  1  0  0  0  0
  3 23  1  0  0  0  0
  3 24  1  0  0  0  0
  4  8  1  0  0  0  0
  4  5  1  0  0  0  0
  5  6  2  0  0  0  0
  5 25  1  0  0  0  0
  6  7  1  0  0  0  0
  6 26  1  0  0  0  0
  7  8  2  0  0  0  0
  7 27  1  0  0  0  0
  9 10  1  0  0  0  0
  9 28  1  0  0  0  0
 10 11  2  0  0  0  0
 10 12  1  0  0  0  0
 12 13  1  0  0  0  0
 12 29  1  0  0  0  0
 13 14  1  0  0  0  0
 13 30  1  0  0  0  0
 13 31  1  0  0  0  0
 14 18  1  0  0  0  0
 14 15  1  0  0  0  0
 14 32  1  0  0  0  0
 15 16  1  0  0  0  0
 15 33  1  0  0  0  0
 15 34  1  0  0  0  0
 16 17  1  0  0  0  0
 16 35  1  0  0  0  0
 16 36  1  0  0  0  0
 17 18  1  0  0  0  0
 18 37  1  0  0  0  0
 18 38  1  0  0  0  0
M  END
> <s_m_source_file>
AV-unprocessed.smi

> <i_m_source_file_index>
3258

> <i_lp_mmshare_version>
43012

> <i_f3d_flags>
0

> <s_epik_input>
bjFbY0hdW2NIXVtjSF1uMVtDSDJdW0NAQEhdKFtDSDNdKVtOSF1DKD1PKVtOSF1bQ0gyXVtDQEBIXTJbQ0gyXVtDSDJdT1tDSDJdMg==

> <s_epik_cmdline>
J2VwaWtfcHl0aG9uJywgJy1waCcsICc3LjAnLCAnLXRuJywgJzgnLCAnLW1hJywgJzIwMCcsICctbWV0YWxfYmluZGluZycsICctaW1hZScsICc8aW5maWxlLm1hZT4nLCAnLW9tYWUnLCAnPG91dGZpbGUubWFlPic=

> <r_lp_tautomer_probability>
1

> <r_epik_Ionization_Penalty>
6.85079e-05

> <r_epik_Ionization_Penalty_Charging>
0

> <r_epik_Ionization_Penalty_Neutral>
6.85079e-05

> <r_epik_State_Penalty>
-0

> <r_epik_Charging_Adjusted_Penalty>
0

> <i_epik_Tot_Q>
0

> <i_epik_Tot_abs_Q>
0

> <r_epik_Metal_State_Penalty>
-0

> <b_epik_Metal_Only>
0

> <s_lp_Force_Field>
OPLS_2005

> <r_lp_Energy>
16.3591

> <b_lp_Chiralities_Consistent>
1

> <s_lp_Variant>
AV-unprocessed.smi:3258-4

> <Gold.Version>
5.8.1

> <Gold.Id.Protein>
6NUR|6NUR_protein|mol2

> <Gold.PLP.Fitness>
42.6285

> <Gold.PLP.PLP>
-30.2242

> <Gold.PLP.part.hbond>
-3.0000

> <Gold.PLP.part.metal>
0.0000

> <Gold.PLP.part.buried>
-3.7960

> <Gold.PLP.part.nonpolar>
-23.6548

> <Gold.PLP.part.repulsive>
0.3724

> <Gold.PLP.ligand.clash>
0.0000

> <Gold.PLP.ligand.torsion>
1.3184

> <Gold.PLP.Chemscore.Hbond>
3.0000

> <Gold.PLP.Chemscore.CHOScore>
2.0000

> <Gold.PLP.Chemscore.Metal>
0.0000

> <Gold.Chemscore.Hbonds>
donor molecule, donor type, donor heavy atom, donor atom, acceptor molecule, acceptor atom, score
      L1  H     9    28       P1  7948  1.00
      L1  H    12    29       P1  7948  1.00
      P1  H  7989  7998       L1    17  1.00
      L1  C     5    25       P1 10186  1.00
      L1  C     7    27       P1 10747  1.00

> <Gold.PLP.Chemscore.Internal.Correction>
0.0410

> <Gold.Rescore>
     Score         DG    S(hbond)    S(metal)    S(lipo)     H(rot)  DE(clash)    DE(int)     intcor
     15.75     -18.40       2.94        0.00      67.50       1.87       0.16       2.49       ----

> <Gold.Chemscore.Fitness>
15.7486

> <Gold.Chemscore.DG>
-18.4009

> <Gold.Chemscore.ZeroCoef>
-5.4800

> <Gold.Chemscore.Hbond>
2.9392

> <Gold.Chemscore.Metal>
0.0000

> <Gold.Chemscore.Lipo>
67.4962

> <Gold.Chemscore.Internal_Hbond>
0.0000

> <Gold.Chemscore.DEClash>
0.1590

> <Gold.Chemscore.DEInternal>
2.4933

> <Gold.Chemscore.Rot>
1.8724

> <Gold.Chemscore.Internal.Correction>
   9.000000E+99

> <Gold.Chemscore.Hbonds>
donor molecule, donor type, donor heavy atom, donor atom, acceptor molecule, acceptor atom, score
      L1  H     9    28       P1  7948  0.99
      L1  H    12    29       P1  7948  0.92
      P1  H  7989  7998       L1    17  0.91

> <Gold.Chemscore.Hbond.Weighted>
-9.8171

> <Gold.Chemscore.Metal.Weighted>
-0.0000

> <Gold.Chemscore.Lipo.Weighted>
-7.8971

> <Gold.Chemscore.Internal_Hbond.Weighted>
0.0000

> <Gold.Chemscore.DEClash.Weighted>
0.1590

> <Gold.Chemscore.DEInternal.Weighted>
2.4933

> <Gold.Chemscore.Rot.Weighted>
4.7933

> <Gold.Chemscore.Internal.Correction.Weighted>
   9.000000E+99

> <Gold.Protein.RotatedTorsions>
[ 6907 6896 6895 6894 ] final  101.18 input  -60.11 | X-H torsion
[ 7974 7965 7964 7962 ] final  166.02 input  175.53 | X-H torsion
[ 8008 7997 7996 7995 ] final   98.10 input   59.86 | X-H torsion
[ 10167 10162 10161 10158 ] final  149.79 input  -65.29 | X-H torsion
[ 10718 10713 10712 10709 ] final -133.50 input   66.30 | X-H torsion
[ 10763 10752 10751 10750 ] final  -35.50 input  -60.55 | X-H torsion
[ 11005 11000 10999 10996 ] final  -70.95 input  -57.11 | X-H torsion

> <Gold.Protein.ActiveResidues>
 VAL166  LYS551  ARG553  GLY616  TRP617  ASP618  TYR619  PRO620  LYS621  CYS622 
 ASP623  PHE694  ASN695  SER759  ASP760  ASP761  ALA762  ILE779  LEU786  VAL792 
 PHE793  MET794  SER795  GLU796  ALA797  LYS798  CYS799  TRP800  GLU811  SER814 

> <Gold.Protein.RotatedAtoms>
  152.5355  134.0165  159.7962 H   0  0  0  0  0  0  0  0  0  0  0  0  # atno 6907 bound_to 6896
  151.0359  133.5741  159.2663 H   0  0  0  0  0  0  0  0  0  0  0  0  # atno 6908 bound_to 6896
  151.2729  135.0697  159.9194 H   0  0  0  0  0  0  0  0  0  0  0  0  # atno 6909 bound_to 6896
  144.7479  139.8554  143.6376 H   0  0  0  0  0  0  0  0  0  0  0  0  # atno 7974 bound_to 7965
  156.0970  140.3248  155.7891 H   0  0  0  0  0  0  0  0  0  0  0  0  # atno 8008 bound_to 7997
  155.4901  140.0561  157.2972 H   0  0  0  0  0  0  0  0  0  0  0  0  # atno 8009 bound_to 7997
  154.4673  140.1995  156.0101 H   0  0  0  0  0  0  0  0  0  0  0  0  # atno 8010 bound_to 7997
  139.4857  144.5574  151.7293 H   0  0  0  0  0  0  0  0  0  0  0  0  # atno 10167 bound_to 10162
  156.2456  130.7122  151.1000 H   0  0  0  0  0  0  0  0  0  0  0  0  # atno 10718 bound_to 10713
  153.8643  135.6837  153.4780 H   0  0  0  0  0  0  0  0  0  0  0  0  # atno 10763 bound_to 10752
  153.1324  135.4692  154.9367 H   0  0  0  0  0  0  0  0  0  0  0  0  # atno 10764 bound_to 10752
  154.7744  135.3248  154.8072 H   0  0  0  0  0  0  0  0  0  0  0  0  # atno 10765 bound_to 10752
  141.1583  133.6804  156.6831 H   0  0  0  0  0  0  0  0  0  0  0  0  # atno 11005 bound_to 11000
  146.1386  139.4437  143.0123 LP  0  0  0  0  0  0  0  0  0  0  0  0  # atno 17320 bound_to 7965
  145.7053  141.0123  143.1482 LP  0  0  0  0  0  0  0  0  0  0  0  0  # atno 17321 bound_to 7965
  140.5137  144.0985  150.6002 LP  0  0  0  0  0  0  0  0  0  0  0  0  # atno 17342 bound_to 10162
  140.3920  143.2748  152.0049 LP  0  0  0  0  0  0  0  0  0  0  0  0  # atno 17343 bound_to 10162
  157.7193  131.0691  150.6200 LP  0  0  0  0  0  0  0  0  0  0  0  0  # atno 17370 bound_to 10713
  156.6276  130.4423  149.5798 LP  0  0  0  0  0  0  0  0  0  0  0  0  # atno 17371 bound_to 10713
  140.3087  134.8104  157.4158 LP  0  0  0  0  0  0  0  0  0  0  0  0  # atno 17394 bound_to 11000
  140.1198  134.5235  155.8194 LP  0  0  0  0  0  0  0  0  0  0  0  0  # atno 17395 bound_to 11000

$$$$
