AV-unprocessed.smi:828|AV-procd|sdf|3862|dock7
  -GOLD-   22720 1313D 1   1.00000     0.00000
 Structure written by MMmdl.
 34 35  0  0  0  0  0  0  0  0  3 V2000
  147.3776  135.2128  162.5481 C   0  0  0  0  0  0  0  0  0  0  0  0
  147.9769  135.7735  161.3043 C   0  0  0  0  0  0  0  0  0  0  0  0
  148.4326  137.0258  161.2255 N   0  0  0  0  0  0  0  0  0  0  0  0
  148.9441  137.3179  159.9695 N   0  0  0  0  0  0  0  0  0  0  0  0
  148.8757  136.2832  159.1202 C   0  0  0  0  0  0  0  0  0  0  0  0
  149.3146  136.3630  157.8531 N   0  5  0  0  0  0  0  0  0  0  0  0
  149.5152  135.2352  157.1357 C   0  0  0  0  0  0  0  0  0  0  0  0
  149.5674  134.0860  157.5795 O   0  0  0  0  0  0  0  0  0  0  0  0
  149.6550  135.4539  155.8206 N   0  0  0  0  0  0  0  0  0  0  0  0
  149.8614  134.4380  154.7932 C   0  0  0  0  0  0  0  0  0  0  0  0
  148.5576  133.6860  154.4617 C   0  0  2  0  0  0  0  0  0  0  0  0
  148.7562  132.3883  153.6704 C   0  0  0  0  0  0  0  0  0  0  0  0
  147.4029  132.1843  153.0060 C   0  0  0  0  0  0  0  0  0  0  0  0
  146.9509  133.6088  152.6776 C   0  0  0  0  0  0  0  0  0  0  0  0
  147.6503  134.5086  153.6264 N   0  3  1  0  0  0  0  0  0  0  0  0
  146.7425  135.3862  154.3973 C   0  0  0  0  0  0  0  0  0  0  0  0
  148.1417  134.8426  159.8250 S   0  0  0  0  0  0  0  0  0  0  0  0
  148.1449  135.1025  163.3145 H   0  0  0  0  0  0  0  0  0  0  0  0
  146.9368  134.2356  162.3503 H   0  0  0  0  0  0  0  0  0  0  0  0
  146.5988  135.8775  162.9225 H   0  0  0  0  0  0  0  0  0  0  0  0
  149.6109  136.4136  155.5095 H   0  0  0  0  0  0  0  0  0  0  0  0
  150.2301  134.9487  153.9038 H   0  0  0  0  0  0  0  0  0  0  0  0
  150.6458  133.7376  155.0852 H   0  0  0  0  0  0  0  0  0  0  0  0
  148.0396  133.4333  155.3891 H   0  0  0  0  0  0  0  0  0  0  0  0
  149.5218  132.5213  152.9044 H   0  0  0  0  0  0  0  0  0  0  0  0
  149.0506  131.5472  154.2991 H   0  0  0  0  0  0  0  0  0  0  0  0
  147.4528  131.5408  152.1269 H   0  0  0  0  0  0  0  0  0  0  0  0
  146.7109  131.7301  153.7166 H   0  0  0  0  0  0  0  0  0  0  0  0
  147.2597  133.8788  151.6672 H   0  0  0  0  0  0  0  0  0  0  0  0
  145.8649  133.7025  152.7245 H   0  0  0  0  0  0  0  0  0  0  0  0
  146.0637  134.8009  155.0189 H   0  0  0  0  0  0  0  0  0  0  0  0
  146.1453  136.0010  153.7231 H   0  0  0  0  0  0  0  0  0  0  0  0
  147.3096  136.0552  155.0449 H   0  0  0  0  0  0  0  0  0  0  0  0
  148.2406  135.1046  153.0634 H   0  0  0  0  0  0  0  0  0  0  0  0
  1  2  1  0  0  0  0
  1 18  1  0  0  0  0
  1 19  1  0  0  0  0
  1 20  1  0  0  0  0
  2 17  1  0  0  0  0
  2  3  2  0  0  0  0
  3  4  1  0  0  0  0
  4  5  2  0  0  0  0
  5  6  1  0  0  0  0
  5 17  1  0  0  0  0
  6  7  1  0  0  0  0
  7  8  2  0  0  0  0
  7  9  1  0  0  0  0
  9 10  1  0  0  0  0
  9 21  1  0  0  0  0
 10 11  1  0  0  0  0
 10 22  1  0  0  0  0
 10 23  1  0  0  0  0
 11 15  1  0  0  0  0
 11 12  1  0  0  0  0
 11 24  1  0  0  0  0
 12 13  1  0  0  0  0
 12 25  1  0  0  0  0
 12 26  1  0  0  0  0
 13 14  1  0  0  0  0
 13 27  1  0  0  0  0
 13 28  1  0  0  0  0
 14 15  1  0  0  0  0
 14 29  1  0  0  0  0
 14 30  1  0  0  0  0
 15 16  1  0  0  0  0
 15 34  1  0  0  0  0
 16 31  1  0  0  0  0
 16 32  1  0  0  0  0
 16 33  1  0  0  0  0
M  CHG  1   6  -1
M  CHG  1  15   1
M  END
> <s_m_source_file>
AV-unprocessed.smi

> <i_m_source_file_index>
828

> <i_lp_mmshare_version>
43012

> <i_f3d_flags>
0

> <s_epik_input>
W0NIM11jMW5uYyhzMSlbTkhdQyg9TylbTkhdW0NIMl1bQ0BASF0yW0NIMl1bQ0gyXVtDSDJdTjJbQ0gzXQ==

> <s_epik_cmdline>
J2VwaWtfcHl0aG9uJywgJy1waCcsICc3LjAnLCAnLXRuJywgJzgnLCAnLW1hJywgJzIwMCcsICctbWV0YWxfYmluZGluZycsICctaW1hZScsICc8aW5maWxlLm1hZT4nLCAnLW9tYWUnLCAnPG91dGZpbGUubWFlPic=

> <r_lp_tautomer_probability>
1

> <r_epik_Ionization_Penalty>
3.94379

> <r_epik_Ionization_Penalty_Charging>
3.83377

> <r_epik_Ionization_Penalty_Neutral>
0.110023

> <r_epik_State_Penalty>
3.83036

> <r_epik_Charging_Adjusted_Penalty>
7.66413

> <i_epik_Tot_Q>
0

> <i_epik_Tot_abs_Q>
2

> <r_epik_Metal_State_Penalty>
0.575095

> <b_epik_Metal_Only>
1

> <s_lp_Force_Field>
OPLS_2005

> <r_lp_Energy>
18.3526

> <b_lp_Chiralities_Consistent>
1

> <s_lp_Variant>
AV-unprocessed.smi:828-5

> <Gold.Version>
5.8.1

> <Gold.Id.Protein>
6NUR|6NUR_protein|mol2

> <Gold.PLP.Fitness>
40.3574

> <Gold.PLP.PLP>
-28.2925

> <Gold.PLP.part.hbond>
-5.7154

> <Gold.PLP.part.metal>
0.0000

> <Gold.PLP.part.buried>
-1.6575

> <Gold.PLP.part.nonpolar>
-20.5170

> <Gold.PLP.part.repulsive>
0.0504

> <Gold.PLP.ligand.clash>
0.0000

> <Gold.PLP.ligand.torsion>
0.3202

> <Gold.PLP.Chemscore.Hbond>
4.2276

> <Gold.PLP.Chemscore.CHOScore>
0.0000

> <Gold.PLP.Chemscore.Metal>
0.0000

> <Gold.Chemscore.Hbonds>
donor molecule, donor type, donor heavy atom, donor atom, acceptor molecule, acceptor atom, score
      L1  H    15    34       P1  7948  2.00
      P1  H  6896  6909       L1     8  0.91
      P1  H  6931  6943       L1     3  0.73
      P1  H  6934  6947       L1     3  0.02

> <Gold.PLP.Chemscore.Internal.Correction>
0.0224

> <Gold.Rescore>
     Score         DG    S(hbond)    S(metal)    S(lipo)     H(rot)  DE(clash)    DE(int)     intcor
     14.20     -15.95       2.37        0.00      50.68       1.31       0.08       1.67       ----

> <Gold.Chemscore.Fitness>
14.1978

> <Gold.Chemscore.DG>
-15.9483

> <Gold.Chemscore.ZeroCoef>
-5.4800

> <Gold.Chemscore.Hbond>
2.3668

> <Gold.Chemscore.Metal>
0.0000

> <Gold.Chemscore.Lipo>
50.6790

> <Gold.Chemscore.Internal_Hbond>
0.0000

> <Gold.Chemscore.DEClash>
0.0811

> <Gold.Chemscore.DEInternal>
1.6694

> <Gold.Chemscore.Rot>
1.3149

> <Gold.Chemscore.Internal.Correction>
   9.000000E+99

> <Gold.Chemscore.Hbonds>
donor molecule, donor type, donor heavy atom, donor atom, acceptor molecule, acceptor atom, score
      L1  H    15    34       P1  7948  0.94
      P1  H  6896  6909       L1     8  0.68
      P1  H  6931  6943       L1     3  0.09

> <Gold.Chemscore.Hbond.Weighted>
-7.9050

> <Gold.Chemscore.Metal.Weighted>
-0.0000

> <Gold.Chemscore.Lipo.Weighted>
-5.9294

> <Gold.Chemscore.Internal_Hbond.Weighted>
0.0000

> <Gold.Chemscore.DEClash.Weighted>
0.0811

> <Gold.Chemscore.DEInternal.Weighted>
1.6694

> <Gold.Chemscore.Rot.Weighted>
3.3662

> <Gold.Chemscore.Internal.Correction.Weighted>
   9.000000E+99

> <Gold.Protein.RotatedTorsions>
[ 6907 6896 6895 6894 ] final   14.06 input  -60.11 | X-H torsion
[ 7974 7965 7964 7962 ] final -157.11 input  175.53 | X-H torsion
[ 8008 7997 7996 7995 ] final  -98.24 input   59.86 | X-H torsion
[ 10167 10162 10161 10158 ] final  106.60 input  -65.29 | X-H torsion
[ 10718 10713 10712 10709 ] final -170.64 input   66.30 | X-H torsion
[ 10763 10752 10751 10750 ] final   -3.30 input  -60.55 | X-H torsion
[ 11005 11000 10999 10996 ] final -128.75 input  -57.11 | X-H torsion

> <Gold.Protein.ActiveResidues>
 VAL166  LYS551  ARG553  GLY616  TRP617  ASP618  TYR619  PRO620  LYS621  CYS622 
 ASP623  PHE694  ASN695  SER759  ASP760  ASP761  ALA762  ILE779  LEU786  VAL792 
 PHE793  MET794  SER795  GLU796  ALA797  LYS798  CYS799  TRP800  GLU811  SER814 

> <Gold.Protein.RotatedAtoms>
  151.7962  135.0722  160.0393 H   0  0  0  0  0  0  0  0  0  0  0  0  # atno 6907 bound_to 6896
  152.3121  133.5760  159.5696 H   0  0  0  0  0  0  0  0  0  0  0  0  # atno 6908 bound_to 6896
  150.7325  134.0052  159.3693 H   0  0  0  0  0  0  0  0  0  0  0  0  # atno 6909 bound_to 6896
  144.7563  140.4015  143.6010 H   0  0  0  0  0  0  0  0  0  0  0  0  # atno 7974 bound_to 7965
  154.7985  140.0457  157.1255 H   0  0  0  0  0  0  0  0  0  0  0  0  # atno 8008 bound_to 7997
  154.9507  140.3064  155.5057 H   0  0  0  0  0  0  0  0  0  0  0  0  # atno 8009 bound_to 7997
  156.2959  140.2288  156.4584 H   0  0  0  0  0  0  0  0  0  0  0  0  # atno 8010 bound_to 7997
  139.6996  144.7096  151.1209 H   0  0  0  0  0  0  0  0  0  0  0  0  # atno 10167 bound_to 10162
  156.7291  130.9299  151.3103 H   0  0  0  0  0  0  0  0  0  0  0  0  # atno 10718 bound_to 10713
  153.3695  135.6994  153.6649 H   0  0  0  0  0  0  0  0  0  0  0  0  # atno 10763 bound_to 10752
  153.5304  135.3593  155.2674 H   0  0  0  0  0  0  0  0  0  0  0  0  # atno 10764 bound_to 10752
  154.8679  135.4179  154.2970 H   0  0  0  0  0  0  0  0  0  0  0  0  # atno 10765 bound_to 10752
  140.9490  134.1091  157.4080 H   0  0  0  0  0  0  0  0  0  0  0  0  # atno 11005 bound_to 11000
  145.6770  139.1610  143.2722 LP  0  0  0  0  0  0  0  0  0  0  0  0  # atno 17320 bound_to 7965
  146.1576  140.6835  142.9293 LP  0  0  0  0  0  0  0  0  0  0  0  0  # atno 17321 bound_to 7965
  140.7706  143.5443  150.9277 LP  0  0  0  0  0  0  0  0  0  0  0  0  # atno 17342 bound_to 10162
  139.9124  143.6704  152.3112 LP  0  0  0  0  0  0  0  0  0  0  0  0  # atno 17343 bound_to 10162
  157.6866  130.9192  150.0403 LP  0  0  0  0  0  0  0  0  0  0  0  0  # atno 17370 bound_to 10713
  156.1541  130.3643  149.9395 LP  0  0  0  0  0  0  0  0  0  0  0  0  # atno 17371 bound_to 10713
  139.8842  135.0060  156.6351 LP  0  0  0  0  0  0  0  0  0  0  0  0  # atno 17394 bound_to 11000
  140.7629  133.8803  155.8432 LP  0  0  0  0  0  0  0  0  0  0  0  0  # atno 17395 bound_to 11000

$$$$
