AV-unprocessed.smi:149|AV-procd|sdf|1235|dock3
  -GOLD-   2262018443D 1   1.00000     0.00000
 Structure written by MMmdl.
 60 64  0  0  0  0  0  0  0  0  2 V2000
  138.0852  136.3776  157.1365 C   0  0  0  0  0  0  0  0  0  0  0  0
  138.0706  137.7955  156.5296 C   0  0  1  0  0  0  0  0  0  0  0  0
  139.4898  138.2202  156.1158 C   0  0  0  0  0  0  0  0  0  0  0  0
  139.5875  137.9660  154.6834 N   0  0  0  0  0  0  0  0  0  0  0  0
  140.7740  137.6463  154.1043 C   0  0  0  0  0  0  0  0  0  0  0  0
  141.6962  138.6279  153.9199 N   0  0  0  0  0  0  0  0  0  0  0  0
  142.8746  138.3533  153.3543 C   0  0  0  0  0  0  0  0  0  0  0  0
  143.3332  137.1824  152.9111 N   0  0  0  0  0  0  0  0  0  0  0  0
  142.4219  136.1858  153.1029 C   0  0  0  0  0  0  0  0  0  0  0  0
  141.1300  136.3295  153.6878 C   0  0  0  0  0  0  0  0  0  0  0  0
  140.4952  135.0933  153.7272 N   0  0  0  0  0  0  0  0  0  0  0  0
  141.3538  134.2714  153.1899 C   0  0  0  0  0  0  0  0  0  0  0  0
  142.5395  134.8413  152.7851 N   0  0  0  0  0  0  0  0  0  0  0  0
  143.6440  134.1582  152.1702 C   0  0  0  0  0  0  0  0  0  0  0  0
  144.1632  134.5563  150.7875 C   0  0  0  0  0  0  0  0  0  0  0  0
  144.5377  133.0819  150.5129 C   0  0  0  0  0  0  0  0  0  0  0  0
  144.2003  132.5756  149.1008 C   0  0  0  0  0  0  0  0  0  0  0  0
  142.8503  132.1676  149.0095 O   0  0  0  0  0  0  0  0  0  0  0  0
  145.9927  132.7024  150.8547 C   0  0  0  0  0  0  0  0  0  0  0  0
  146.1710  131.3005  150.8793 O   0  0  0  0  0  0  0  0  0  0  0  0
  143.4959  132.7446  151.6053 C   0  0  0  0  0  0  0  0  0  0  0  0
  138.3261  137.4446  154.1791 C   0  0  0  0  0  0  0  0  0  0  0  0
  137.2891  137.9140  155.2049 C   0  0  1  0  0  0  0  0  0  0  0  0
  135.9894  137.1865  155.1697 N   0  3  0  0  0  0  0  0  0  0  0  0
  135.2810  137.2166  156.4754 C   0  0  0  0  0  0  0  0  0  0  0  0
  133.9758  136.4070  156.4044 C   0  0  0  0  0  0  0  0  0  0  0  0
  133.1513  136.9253  155.3694 O   0  0  0  0  0  0  0  0  0  0  0  0
  133.7757  136.8237  154.0970 C   0  0  0  0  0  0  0  0  0  0  0  0
  135.0772  137.6433  154.0899 C   0  0  0  0  0  0  0  0  0  0  0  0
  138.4781  135.6418  156.4344 H   0  0  0  0  0  0  0  0  0  0  0  0
  137.0890  136.0530  157.4349 H   0  0  0  0  0  0  0  0  0  0  0  0
  138.7124  136.3461  158.0277 H   0  0  0  0  0  0  0  0  0  0  0  0
  137.6771  138.4871  157.2753 H   0  0  0  0  0  0  0  0  0  0  0  0
  139.6341  139.2872  156.2884 H   0  0  0  0  0  0  0  0  0  0  0  0
  140.2498  137.6816  156.6834 H   0  0  0  0  0  0  0  0  0  0  0  0
  143.5465  139.1913  153.2401 H   0  0  0  0  0  0  0  0  0  0  0  0
  141.1417  133.2183  153.0761 H   0  0  0  0  0  0  0  0  0  0  0  0
  144.4619  134.1825  152.8926 H   0  0  0  0  0  0  0  0  0  0  0  0
  143.3777  134.9236  150.1255 H   0  0  0  0  0  0  0  0  0  0  0  0
  145.0076  135.2461  150.8052 H   0  0  0  0  0  0  0  0  0  0  0  0
  144.3942  133.3360  148.3441 H   0  0  0  0  0  0  0  0  0  0  0  0
  144.8231  131.7195  148.8391 H   0  0  0  0  0  0  0  0  0  0  0  0
  142.2991  132.9243  149.1390 H   0  0  0  0  0  0  0  0  0  0  0  0
  146.6959  133.1326  150.1411 H   0  0  0  0  0  0  0  0  0  0  0  0
  146.2814  133.0903  151.8318 H   0  0  0  0  0  0  0  0  0  0  0  0
  147.0810  131.1109  150.7090 H   0  0  0  0  0  0  0  0  0  0  0  0
  143.7901  131.9542  152.2964 H   0  0  0  0  0  0  0  0  0  0  0  0
  142.5020  132.5502  151.1993 H   0  0  0  0  0  0  0  0  0  0  0  0
  138.1137  137.8301  153.1813 H   0  0  0  0  0  0  0  0  0  0  0  0
  138.3672  136.3556  154.1296 H   0  0  0  0  0  0  0  0  0  0  0  0
  137.0920  138.9714  155.0158 H   0  0  0  0  0  0  0  0  0  0  0  0
  135.9118  136.8089  157.2648 H   0  0  0  0  0  0  0  0  0  0  0  0
  135.0610  138.2500  156.7480 H   0  0  0  0  0  0  0  0  0  0  0  0
  134.1802  135.3491  156.2312 H   0  0  0  0  0  0  0  0  0  0  0  0
  133.4389  136.4771  157.3505 H   0  0  0  0  0  0  0  0  0  0  0  0
  133.9728  135.7776  153.8569 H   0  0  0  0  0  0  0  0  0  0  0  0
  133.0905  137.2004  153.3376 H   0  0  0  0  0  0  0  0  0  0  0  0
  134.8531  138.7026  154.2234 H   0  0  0  0  0  0  0  0  0  0  0  0
  135.5508  137.5354  153.1143 H   0  0  0  0  0  0  0  0  0  0  0  0
  136.2054  136.2198  154.9724 H   0  0  0  0  0  0  0  0  0  0  0  0
  1  2  1  0  0  0  0
  1 30  1  0  0  0  0
  1 31  1  0  0  0  0
  1 32  1  0  0  0  0
  2 23  1  0  0  0  0
  2  3  1  0  0  0  0
  2 33  1  0  0  0  0
  3  4  1  0  0  0  0
  3 34  1  0  0  0  0
  3 35  1  0  0  0  0
  4  5  1  0  0  0  0
  4 22  1  0  0  0  0
  5 10  1  0  0  0  0
  5  6  2  0  0  0  0
  6  7  1  0  0  0  0
  7  8  2  0  0  0  0
  7 36  1  0  0  0  0
  8  9  1  0  0  0  0
  9 13  1  0  0  0  0
  9 10  2  0  0  0  0
 10 11  1  0  0  0  0
 11 12  2  0  0  0  0
 12 13  1  0  0  0  0
 12 37  1  0  0  0  0
 13 14  1  0  0  0  0
 14 21  1  0  0  0  0
 14 15  1  0  0  0  0
 14 38  1  0  0  0  0
 15 16  1  0  0  0  0
 15 39  1  0  0  0  0
 15 40  1  0  0  0  0
 16 17  1  0  0  0  0
 16 19  1  0  0  0  0
 16 21  1  0  0  0  0
 17 18  1  0  0  0  0
 17 41  1  0  0  0  0
 17 42  1  0  0  0  0
 18 43  1  0  0  0  0
 19 20  1  0  0  0  0
 19 44  1  0  0  0  0
 19 45  1  0  0  0  0
 20 46  1  0  0  0  0
 21 47  1  0  0  0  0
 21 48  1  0  0  0  0
 22 23  1  0  0  0  0
 22 49  1  0  0  0  0
 22 50  1  0  0  0  0
 23 24  1  0  0  0  0
 23 51  1  0  0  0  0
 24 29  1  0  0  0  0
 24 25  1  0  0  0  0
 24 60  1  0  0  0  0
 25 26  1  0  0  0  0
 25 52  1  0  0  0  0
 25 53  1  0  0  0  0
 26 27  1  0  0  0  0
 26 54  1  0  0  0  0
 26 55  1  0  0  0  0
 27 28  1  0  0  0  0
 28 29  1  0  0  0  0
 28 56  1  0  0  0  0
 28 57  1  0  0  0  0
 29 58  1  0  0  0  0
 29 59  1  0  0  0  0
M  CHG  1  24   1
M  END
> <s_m_source_file>
AV-unprocessed.smi

> <i_m_source_file_index>
149

> <i_lp_mmshare_version>
43012

> <i_f3d_flags>
0

> <s_epik_input>
W0NIMl0xW0NIMl1PW0NIMl1bQ0gyXU4xW0NAQEhdMltDSDJdTihbQ0gyXVtDQEhdMltDSDNdKWMobltjSF1uMyljKGMzNCluW2NIXW40W0NIXShbQ0gyXTUpW0NIMl1DNShbQ0gyXVtPSF0pW0NIMl1bT0hd

> <s_epik_cmdline>
J2VwaWtfcHl0aG9uJywgJy1waCcsICc3LjAnLCAnLXRuJywgJzgnLCAnLW1hJywgJzIwMCcsICctbWV0YWxfYmluZGluZycsICctaW1hZScsICc8aW5maWxlLm1hZT4nLCAnLW9tYWUnLCAnPG91dGZpbGUubWFlPic=

> <r_lp_tautomer_probability>
1

> <r_epik_Ionization_Penalty>
0.404847

> <r_epik_Ionization_Penalty_Charging>
0.404623

> <r_epik_Ionization_Penalty_Neutral>
0.000224096

> <r_epik_State_Penalty>
0.238803

> <r_epik_Charging_Adjusted_Penalty>
0.643425

> <i_epik_Tot_Q>
1

> <i_epik_Tot_abs_Q>
1

> <r_epik_Metal_State_Penalty>
0.239083

> <b_epik_Metal_Only>
0

> <s_lp_Force_Field>
OPLS_2005

> <r_lp_Energy>
70.5457

> <b_lp_Chiralities_Consistent>
1

> <s_lp_Variant>
AV-unprocessed.smi:149-2

> <Gold.Version>
5.8.1

> <Gold.Id.Protein>
6NUR|6NUR_protein|mol2

> <Gold.PLP.Fitness>
53.7636

> <Gold.PLP.PLP>
-45.2825

> <Gold.PLP.part.hbond>
-6.0000

> <Gold.PLP.part.metal>
0.0000

> <Gold.PLP.part.buried>
-4.1980

> <Gold.PLP.part.nonpolar>
-37.6633

> <Gold.PLP.part.repulsive>
1.1356

> <Gold.PLP.ligand.clash>
0.4926

> <Gold.PLP.ligand.torsion>
2.4221

> <Gold.PLP.Chemscore.Hbond>
3.8038

> <Gold.PLP.Chemscore.CHOScore>
0.5648

> <Gold.PLP.Chemscore.Metal>
0.0000

> <Gold.Chemscore.Hbonds>
donor molecule, donor type, donor heavy atom, donor atom, acceptor molecule, acceptor atom, score
      L1  H    18    43       P1 10186  1.00
      L1  H    20    46       P1 10747  1.00
      P1  H 10785 10796       L1    18  0.82
      P1  H 11000 11005       L1    11  0.71
      L1  C    12    37       P1 10957  0.41

> <Gold.PLP.Chemscore.Internal.Correction>
0.7123

> <Gold.Rescore>
     Score         DG    S(hbond)    S(metal)    S(lipo)     H(rot)  DE(clash)    DE(int)     intcor
     12.11     -15.77       2.52        0.00      83.66       3.09       2.05       1.61       ----

> <Gold.Chemscore.Fitness>
12.1065

> <Gold.Chemscore.DG>
-15.7657

> <Gold.Chemscore.ZeroCoef>
-5.4800

> <Gold.Chemscore.Hbond>
2.5181

> <Gold.Chemscore.Metal>
0.0000

> <Gold.Chemscore.Lipo>
83.6626

> <Gold.Chemscore.Internal_Hbond>
0.0000

> <Gold.Chemscore.DEClash>
2.0490

> <Gold.Chemscore.DEInternal>
1.6102

> <Gold.Chemscore.Rot>
3.0912

> <Gold.Chemscore.Internal.Correction>
   9.000000E+99

> <Gold.Chemscore.Hbonds>
donor molecule, donor type, donor heavy atom, donor atom, acceptor molecule, acceptor atom, score
      L1  H    18    43       P1 10186  0.95
      L1  H    20    46       P1 10747  0.99
      P1  H 10785 10796       L1    18  0.15
      P1  H 11000 11005       L1    11  0.21

> <Gold.Chemscore.Hbond.Weighted>
-8.4106

> <Gold.Chemscore.Metal.Weighted>
-0.0000

> <Gold.Chemscore.Lipo.Weighted>
-9.7885

> <Gold.Chemscore.Internal_Hbond.Weighted>
0.0000

> <Gold.Chemscore.DEClash.Weighted>
2.0490

> <Gold.Chemscore.DEInternal.Weighted>
1.6102

> <Gold.Chemscore.Rot.Weighted>
7.9135

> <Gold.Chemscore.Internal.Correction.Weighted>
   9.000000E+99

> <Gold.Protein.RotatedTorsions>
[ 6907 6896 6895 6894 ] final   19.06 input  -60.11 | X-H torsion
[ 7974 7965 7964 7962 ] final -138.71 input  175.53 | X-H torsion
[ 8008 7997 7996 7995 ] final -125.16 input   59.86 | X-H torsion
[ 10167 10162 10161 10158 ] final   24.58 input  -65.29 | X-H torsion
[ 10718 10713 10712 10709 ] final  159.83 input   66.30 | X-H torsion
[ 10763 10752 10751 10750 ] final  -39.39 input  -60.55 | X-H torsion
[ 11005 11000 10999 10996 ] final   29.96 input  -57.11 | X-H torsion

> <Gold.Protein.ActiveResidues>
 VAL166  LYS551  ARG553  GLY616  TRP617  ASP618  TYR619  PRO620  LYS621  CYS622 
 ASP623  PHE694  ASN695  SER759  ASP760  ASP761  ALA762  ILE779  LEU786  VAL792 
 PHE793  MET794  SER795  GLU796  ALA797  LYS798  CYS799  TRP800  GLU811  SER814 

> <Gold.Protein.RotatedAtoms>
  151.8749  135.0475  160.0482 H   0  0  0  0  0  0  0  0  0  0  0  0  # atno 6907 bound_to 6896
  152.2559  133.5250  159.5361 H   0  0  0  0  0  0  0  0  0  0  0  0  # atno 6908 bound_to 6896
  150.7099  134.0813  159.3941 H   0  0  0  0  0  0  0  0  0  0  0  0  # atno 6909 bound_to 6896
  144.8736  140.6404  143.5251 H   0  0  0  0  0  0  0  0  0  0  0  0  # atno 7974 bound_to 7965
  155.2087  140.0418  157.2930 H   0  0  0  0  0  0  0  0  0  0  0  0  # atno 8008 bound_to 7997
  154.6026  140.2456  155.7744 H   0  0  0  0  0  0  0  0  0  0  0  0  # atno 8009 bound_to 7997
  156.2330  140.2931  156.0248 H   0  0  0  0  0  0  0  0  0  0  0  0  # atno 8010 bound_to 7997
  140.5176  144.0056  150.6401 H   0  0  0  0  0  0  0  0  0  0  0  0  # atno 10167 bound_to 10162
  157.1588  131.0582  151.2243 H   0  0  0  0  0  0  0  0  0  0  0  0  # atno 10718 bound_to 10713
  153.9286  135.6774  153.4746 H   0  0  0  0  0  0  0  0  0  0  0  0  # atno 10763 bound_to 10752
  153.0991  135.4836  154.8831 H   0  0  0  0  0  0  0  0  0  0  0  0  # atno 10764 bound_to 10752
  154.7440  135.3168  154.8635 H   0  0  0  0  0  0  0  0  0  0  0  0  # atno 10765 bound_to 10752
  140.2995  134.2773  155.7757 H   0  0  0  0  0  0  0  0  0  0  0  0  # atno 11005 bound_to 11000
  145.4084  139.1584  143.4139 LP  0  0  0  0  0  0  0  0  0  0  0  0  # atno 17320 bound_to 7965
  146.2947  140.4186  142.8726 LP  0  0  0  0  0  0  0  0  0  0  0  0  # atno 17321 bound_to 7965
  140.3396  143.3028  152.0602 LP  0  0  0  0  0  0  0  0  0  0  0  0  # atno 17342 bound_to 10162
  139.4914  144.6452  151.6794 LP  0  0  0  0  0  0  0  0  0  0  0  0  # atno 17343 bound_to 10162
  157.4152  130.7407  149.6870 LP  0  0  0  0  0  0  0  0  0  0  0  0  # atno 17370 bound_to 10713
  155.9757  130.4085  150.3828 LP  0  0  0  0  0  0  0  0  0  0  0  0  # atno 17371 bound_to 10713
  141.2131  133.7637  156.9745 LP  0  0  0  0  0  0  0  0  0  0  0  0  # atno 17394 bound_to 11000
  140.1122  134.9469  157.2082 LP  0  0  0  0  0  0  0  0  0  0  0  0  # atno 17395 bound_to 11000

$$$$
