AV-unprocessed.smi:1717|AV-procd|sdf|6919|dock1
  -GOLD-   22720 8123D 1   1.00000     0.00000
 Structure written by MMmdl.
 41 42  0  0  0  0  0  0  0  0  2 V2000
  140.9831  138.5101  153.5395 C   0  0  0  0  0  0  0  0  0  0  0  0
  142.2902  138.0806  153.0659 N   0  0  0  0  0  0  0  0  0  0  0  0
  142.6740  136.7998  152.9742 C   0  0  0  0  0  0  0  0  0  0  0  0
  141.9520  135.8541  153.2923 O   0  0  0  0  0  0  0  0  0  0  0  0
  144.0961  136.5523  152.4609 C   0  0  0  0  0  0  0  0  0  0  0  0
  144.9340  137.7792  152.4627 N   0  3  2  0  0  0  0  0  0  0  0  0
  146.0025  137.7377  151.4319 C   0  0  0  0  0  0  0  0  0  0  0  0
  146.7592  139.0769  151.3580 C   0  0  0  0  0  0  0  0  0  0  0  0
  147.3330  139.4941  152.7232 C   0  0  2  0  0  0  0  0  0  0  0  0
  148.4620  138.6375  153.0864 N   0  0  0  0  0  0  0  0  0  0  0  0
  149.3809  138.9213  154.0208 C   0  0  0  0  0  0  0  0  0  0  0  0
  149.3652  139.9478  154.6992 O   0  0  0  0  0  0  0  0  0  0  0  0
  150.2997  137.9466  154.1137 N   0  0  0  0  0  0  0  0  0  0  0  0
  151.4142  137.8999  154.9881 C   0  0  0  0  0  0  0  0  0  0  0  0
  152.5227  138.7918  155.0865 C   0  0  0  0  0  0  0  0  0  0  0  0
  153.3657  138.4059  156.0338 N   0  0  0  0  0  0  0  0  0  0  0  0
  152.8099  137.2812  156.5380 N   0  0  0  0  0  0  0  0  0  0  0  0
  151.6228  136.9372  155.9300 C   0  0  0  0  0  0  0  0  0  0  0  0
  146.2173  139.4599  153.7869 C   0  0  0  0  0  0  0  0  0  0  0  0
  145.4815  138.1090  153.8056 C   0  0  0  0  0  0  0  0  0  0  0  0
  153.2485  136.7657  157.2880 H   0  0  0  0  0  0  0  0  0  0  0  0
  140.9143  139.5974  153.5072 H   0  0  0  0  0  0  0  0  0  0  0  0
  140.8175  138.1884  154.5686 H   0  0  0  0  0  0  0  0  0  0  0  0
  140.1884  138.1002  152.9144 H   0  0  0  0  0  0  0  0  0  0  0  0
  142.9412  138.8030  152.7932 H   0  0  0  0  0  0  0  0  0  0  0  0
  144.5833  135.7653  153.0391 H   0  0  0  0  0  0  0  0  0  0  0  0
  143.9968  136.1763  151.4419 H   0  0  0  0  0  0  0  0  0  0  0  0
  146.6918  136.9214  151.6533 H   0  0  0  0  0  0  0  0  0  0  0  0
  145.5638  137.5244  150.4565 H   0  0  0  0  0  0  0  0  0  0  0  0
  147.5549  139.0185  150.6142 H   0  0  0  0  0  0  0  0  0  0  0  0
  146.0750  139.8512  151.0080 H   0  0  0  0  0  0  0  0  0  0  0  0
  147.7046  140.5169  152.6354 H   0  0  0  0  0  0  0  0  0  0  0  0
  148.5620  137.7732  152.5748 H   0  0  0  0  0  0  0  0  0  0  0  0
  150.1916  137.1550  153.4968 H   0  0  0  0  0  0  0  0  0  0  0  0
  152.7475  139.6844  154.5218 H   0  0  0  0  0  0  0  0  0  0  0  0
  151.0511  136.0657  156.2136 H   0  0  0  0  0  0  0  0  0  0  0  0
  146.6194  139.6808  154.7763 H   0  0  0  0  0  0  0  0  0  0  0  0
  145.4976  140.2515  153.5738 H   0  0  0  0  0  0  0  0  0  0  0  0
  144.6759  138.1546  154.5389 H   0  0  0  0  0  0  0  0  0  0  0  0
  146.1560  137.3159  154.1319 H   0  0  0  0  0  0  0  0  0  0  0  0
  144.3179  138.5368  152.2023 H   0  0  0  0  0  0  0  0  0  0  0  0
  1  2  1  0  0  0  0
  1 22  1  0  0  0  0
  1 23  1  0  0  0  0
  1 24  1  0  0  0  0
  2  3  1  0  0  0  0
  2 25  1  0  0  0  0
  3  4  2  0  0  0  0
  3  5  1  0  0  0  0
  5  6  1  0  0  0  0
  5 26  1  0  0  0  0
  5 27  1  0  0  0  0
  6 20  1  0  0  0  0
  6  7  1  0  0  0  0
  6 41  1  0  0  0  0
  7  8  1  0  0  0  0
  7 28  1  0  0  0  0
  7 29  1  0  0  0  0
  8  9  1  0  0  0  0
  8 30  1  0  0  0  0
  8 31  1  0  0  0  0
  9 10  1  0  0  0  0
  9 19  1  0  0  0  0
  9 32  1  0  0  0  0
 10 11  1  0  0  0  0
 10 33  1  0  0  0  0
 11 12  2  0  0  0  0
 11 13  1  0  0  0  0
 13 14  1  0  0  0  0
 13 34  1  0  0  0  0
 14 18  2  0  0  0  0
 14 15  1  0  0  0  0
 15 16  2  0  0  0  0
 15 35  1  0  0  0  0
 16 17  1  0  0  0  0
 17 21  1  0  0  0  0
 17 18  1  0  0  0  0
 18 36  1  0  0  0  0
 19 20  1  0  0  0  0
 19 37  1  0  0  0  0
 19 38  1  0  0  0  0
 20 39  1  0  0  0  0
 20 40  1  0  0  0  0
M  CHG  1   6   1
M  END
> <s_m_source_file>
AV-unprocessed.smi

> <i_m_source_file_index>
1717

> <i_lp_mmshare_version>
43012

> <i_f3d_flags>
0

> <s_epik_input>
W0NIM11bTkhdQyg9TylbQ0gyXU4xW0NIMl1bQ0gyXVtDSF0oW0NIMl1bQ0gyXTEpW05IXUMoPU8pW05IXWMyW2NIXW5bbkhdW2NIXTI=

> <s_epik_cmdline>
J2VwaWtfcHl0aG9uJywgJy1waCcsICc3LjAnLCAnLXRuJywgJzgnLCAnLW1hJywgJzIwMCcsICctbWV0YWxfYmluZGluZycsICctaW1hZScsICc8aW5maWxlLm1hZT4nLCAnLW9tYWUnLCAnPG91dGZpbGUubWFlPic=

> <r_lp_tautomer_probability>
0.5

> <r_epik_Ionization_Penalty>
0.838906

> <r_epik_Ionization_Penalty_Charging>
0.838844

> <r_epik_Ionization_Penalty_Neutral>
6.24243e-05

> <r_epik_State_Penalty>
0.8734

> <r_epik_Charging_Adjusted_Penalty>
1.71224

> <i_epik_Tot_Q>
1

> <i_epik_Tot_abs_Q>
1

> <r_epik_Metal_State_Penalty>
0.877921

> <b_epik_Metal_Only>
0

> <s_lp_Force_Field>
OPLS_2005

> <r_lp_Energy>
16.7427

> <b_lp_Chiralities_Consistent>
1

> <s_lp_Variant>
AV-unprocessed.smi:1717-3

> <Gold.Version>
5.8.1

> <Gold.Id.Protein>
6NUR|6NUR_protein|mol2

> <Gold.PLP.Fitness>
43.6478

> <Gold.PLP.PLP>
-30.3153

> <Gold.PLP.part.hbond>
-6.6414

> <Gold.PLP.part.metal>
0.0000

> <Gold.PLP.part.buried>
4.4938

> <Gold.PLP.part.nonpolar>
-28.1924

> <Gold.PLP.part.repulsive>
0.5682

> <Gold.PLP.ligand.clash>
0.0000

> <Gold.PLP.ligand.torsion>
1.2202

> <Gold.PLP.Chemscore.Hbond>
5.2280

> <Gold.PLP.Chemscore.CHOScore>
0.0000

> <Gold.PLP.Chemscore.Metal>
0.0000

> <Gold.Chemscore.Hbonds>
donor molecule, donor type, donor heavy atom, donor atom, acceptor molecule, acceptor atom, score
      L1  H     2    25       P1 10175  1.00
      L1  H     6    41       P1 10175  2.00
      L1  H    10    33       P1  7948  1.00
      L1  H    13    34       P1  7948  0.45
      P1  H  7997  8010       L1    16  0.83

> <Gold.PLP.Chemscore.Internal.Correction>
0.0889

> <Gold.Rescore>
     Score         DG    S(hbond)    S(metal)    S(lipo)     H(rot)  DE(clash)    DE(int)     intcor
     17.42     -20.49       3.64        0.00      64.02       1.81       1.80       1.28       ----

> <Gold.Chemscore.Fitness>
17.4164

> <Gold.Chemscore.DG>
-20.4901

> <Gold.Chemscore.ZeroCoef>
-5.4800

> <Gold.Chemscore.Hbond>
3.6382

> <Gold.Chemscore.Metal>
0.0000

> <Gold.Chemscore.Lipo>
64.0248

> <Gold.Chemscore.Internal_Hbond>
0.0000

> <Gold.Chemscore.DEClash>
1.7956

> <Gold.Chemscore.DEInternal>
1.2781

> <Gold.Chemscore.Rot>
1.8096

> <Gold.Chemscore.Internal.Correction>
   9.000000E+99

> <Gold.Chemscore.Hbonds>
donor molecule, donor type, donor heavy atom, donor atom, acceptor molecule, acceptor atom, score
      L1  H     2    25       P1 10175  1.00
      L1  H     6    41       P1 10175  0.89
      L1  H    10    33       P1  7948  1.00
      L1  H    13    34       P1  7948  0.07
      P1  H  7997  8010       L1    16  0.35

> <Gold.Chemscore.Hbond.Weighted>
-12.1517

> <Gold.Chemscore.Metal.Weighted>
-0.0000

> <Gold.Chemscore.Lipo.Weighted>
-7.4909

> <Gold.Chemscore.Internal_Hbond.Weighted>
0.0000

> <Gold.Chemscore.DEClash.Weighted>
1.7956

> <Gold.Chemscore.DEInternal.Weighted>
1.2781

> <Gold.Chemscore.Rot.Weighted>
4.6325

> <Gold.Chemscore.Internal.Correction.Weighted>
   9.000000E+99

> <Gold.Protein.RotatedTorsions>
[ 6907 6896 6895 6894 ] final   81.05 input  -60.11 | X-H torsion
[ 7974 7965 7964 7962 ] final    5.97 input  175.53 | X-H torsion
[ 8008 7997 7996 7995 ] final   68.05 input   59.86 | X-H torsion
[ 10167 10162 10161 10158 ] final   11.16 input  -65.29 | X-H torsion
[ 10718 10713 10712 10709 ] final  175.72 input   66.30 | X-H torsion
[ 10763 10752 10751 10750 ] final -102.20 input  -60.55 | X-H torsion
[ 11005 11000 10999 10996 ] final   65.86 input  -57.11 | X-H torsion

> <Gold.Protein.ActiveResidues>
 VAL166  LYS551  ARG553  GLY616  TRP617  ASP618  TYR619  PRO620  LYS621  CYS622 
 ASP623  PHE694  ASN695  SER759  ASP760  ASP761  ALA762  ILE779  LEU786  VAL792 
 PHE793  MET794  SER795  GLU796  ALA797  LYS798  CYS799  TRP800  GLU811  SER814 

> <Gold.Protein.RotatedAtoms>
  152.5255  134.3264  159.9166 H   0  0  0  0  0  0  0  0  0  0  0  0  # atno 6907 bound_to 6896
  151.3213  133.4032  159.2662 H   0  0  0  0  0  0  0  0  0  0  0  0  # atno 6908 bound_to 6896
  150.9957  134.9298  159.7982 H   0  0  0  0  0  0  0  0  0  0  0  0  # atno 6909 bound_to 6896
  146.2437  140.0303  142.8390 H   0  0  0  0  0  0  0  0  0  0  0  0  # atno 7974 bound_to 7965
  155.7023  140.3495  155.4938 H   0  0  0  0  0  0  0  0  0  0  0  0  # atno 8008 bound_to 7997
  155.9429  140.1105  157.1063 H   0  0  0  0  0  0  0  0  0  0  0  0  # atno 8009 bound_to 7997
  154.4106  140.1209  156.4937 H   0  0  0  0  0  0  0  0  0  0  0  0  # atno 8010 bound_to 7997
  140.6149  143.8328  150.7107 H   0  0  0  0  0  0  0  0  0  0  0  0  # atno 10167 bound_to 10162
  156.9307  130.9970  151.2987 H   0  0  0  0  0  0  0  0  0  0  0  0  # atno 10718 bound_to 10713
  154.7716  135.4869  153.9659 H   0  0  0  0  0  0  0  0  0  0  0  0  # atno 10763 bound_to 10752
  153.1374  135.6765  153.9088 H   0  0  0  0  0  0  0  0  0  0  0  0  # atno 10764 bound_to 10752
  153.8773  135.3136  155.3422 H   0  0  0  0  0  0  0  0  0  0  0  0  # atno 10765 bound_to 10752
  139.9868  134.6656  156.0162 H   0  0  0  0  0  0  0  0  0  0  0  0  # atno 11005 bound_to 11000
  145.1161  140.9434  143.4628 LP  0  0  0  0  0  0  0  0  0  0  0  0  # atno 17320 bound_to 7965
  145.0528  139.3168  143.5920 LP  0  0  0  0  0  0  0  0  0  0  0  0  # atno 17321 bound_to 7965
  140.1905  143.4040  152.1866 LP  0  0  0  0  0  0  0  0  0  0  0  0  # atno 17342 bound_to 10162
  139.5391  144.7239  151.4794 LP  0  0  0  0  0  0  0  0  0  0  0  0  # atno 17343 bound_to 10162
  157.5849  130.8402  149.8575 LP  0  0  0  0  0  0  0  0  0  0  0  0  # atno 17370 bound_to 10713
  156.0448  130.3730  150.1344 LP  0  0  0  0  0  0  0  0  0  0  0  0  # atno 17371 bound_to 10713
  141.1531  133.6546  156.4076 LP  0  0  0  0  0  0  0  0  0  0  0  0  # atno 17394 bound_to 11000
  140.4987  134.6506  157.5240 LP  0  0  0  0  0  0  0  0  0  0  0  0  # atno 17395 bound_to 11000

$$$$
