AV-unprocessed.smi:2913|AV-procd|sdf|11184|dock5
  -GOLD-   2272016 73D 1   1.00000     0.00000
 Structure written by MMmdl.
 41 42  0  0  0  0  0  0  0  0  1 V2000
  146.3522  134.1999  151.3688 C   0  0  0  0  0  0  0  0  0  0  0  0
  146.6605  132.8330  151.9574 C   0  0  0  0  0  0  0  0  0  0  0  0
  145.9426  131.7561  151.5673 C   0  0  0  0  0  0  0  0  0  0  0  0
  146.1832  130.4108  152.0921 C   0  0  0  0  0  0  0  0  0  0  0  0
  145.5265  129.4352  151.7270 O   0  0  0  0  0  0  0  0  0  0  0  0
  147.1800  130.3101  153.0137 N   0  0  0  0  0  0  0  0  0  0  0  0
  147.4922  129.0081  153.6094 C   0  0  0  0  0  0  0  0  0  0  0  0
  147.9341  131.4210  153.4277 C   0  0  0  0  0  0  0  0  0  0  0  0
  147.7250  132.6635  152.9386 C   0  0  0  0  0  0  0  0  0  0  0  0
  148.4479  133.8027  153.3317 N   0  0  0  0  0  0  0  0  0  0  0  0
  149.2268  133.9936  154.4130 C   0  0  0  0  0  0  0  0  0  0  0  0
  149.4874  133.1518  155.2721 O   0  0  0  0  0  0  0  0  0  0  0  0
  149.7149  135.2423  154.4289 N   0  0  0  0  0  0  0  0  0  0  0  0
  150.6411  135.7904  155.4174 C   0  0  2  0  0  0  0  0  0  0  0  0
  150.0623  135.5568  156.8217 C   0  0  0  0  0  0  0  0  0  0  0  0
  150.8777  137.2833  155.1158 C   0  0  1  0  0  0  0  0  0  0  0  0
  151.3765  138.1054  156.3052 C   0  0  0  0  0  0  0  0  0  0  0  0
  152.0586  139.2622  155.6125 C   0  0  0  0  0  0  0  0  0  0  0  0
  152.7116  138.5689  154.4210 C   0  0  0  0  0  0  0  0  0  0  0  0
  151.8951  137.4381  154.1272 O   0  0  0  0  0  0  0  0  0  0  0  0
  145.5416  134.1533  150.6405 H   0  0  0  0  0  0  0  0  0  0  0  0
  147.2313  134.6036  150.8659 H   0  0  0  0  0  0  0  0  0  0  0  0
  146.0561  134.8936  152.1562 H   0  0  0  0  0  0  0  0  0  0  0  0
  145.1550  131.8812  150.8384 H   0  0  0  0  0  0  0  0  0  0  0  0
  148.3104  129.0551  154.3285 H   0  0  0  0  0  0  0  0  0  0  0  0
  147.7804  128.2932  152.8374 H   0  0  0  0  0  0  0  0  0  0  0  0
  146.6225  128.6096  154.1338 H   0  0  0  0  0  0  0  0  0  0  0  0
  148.6750  131.1799  154.1727 H   0  0  0  0  0  0  0  0  0  0  0  0
  148.3799  134.5815  152.6931 H   0  0  0  0  0  0  0  0  0  0  0  0
  149.4465  135.8601  153.6774 H   0  0  0  0  0  0  0  0  0  0  0  0
  151.6015  135.2752  155.3626 H   0  0  0  0  0  0  0  0  0  0  0  0
  150.7458  135.9042  157.5962 H   0  0  0  0  0  0  0  0  0  0  0  0
  149.8839  134.4958  156.9998 H   0  0  0  0  0  0  0  0  0  0  0  0
  149.1152  136.0809  156.9535 H   0  0  0  0  0  0  0  0  0  0  0  0
  149.9662  137.7392  154.7247 H   0  0  0  0  0  0  0  0  0  0  0  0
  150.5742  138.4230  156.9717 H   0  0  0  0  0  0  0  0  0  0  0  0
  152.1045  137.5391  156.8883 H   0  0  0  0  0  0  0  0  0  0  0  0
  151.3155  139.9832  155.2683 H   0  0  0  0  0  0  0  0  0  0  0  0
  152.7742  139.7841  156.2482 H   0  0  0  0  0  0  0  0  0  0  0  0
  152.8038  139.2283  153.5579 H   0  0  0  0  0  0  0  0  0  0  0  0
  153.7091  138.2151  154.6847 H   0  0  0  0  0  0  0  0  0  0  0  0
  1  2  1  0  0  0  0
  1 21  1  0  0  0  0
  1 22  1  0  0  0  0
  1 23  1  0  0  0  0
  2  9  1  0  0  0  0
  2  3  2  0  0  0  0
  3  4  1  0  0  0  0
  3 24  1  0  0  0  0
  4  5  2  0  0  0  0
  4  6  1  0  0  0  0
  6  7  1  0  0  0  0
  6  8  1  0  0  0  0
  7 25  1  0  0  0  0
  7 26  1  0  0  0  0
  7 27  1  0  0  0  0
  8  9  2  0  0  0  0
  8 28  1  0  0  0  0
  9 10  1  0  0  0  0
 10 11  1  0  0  0  0
 10 29  1  0  0  0  0
 11 12  2  0  0  0  0
 11 13  1  0  0  0  0
 13 14  1  0  0  0  0
 13 30  1  0  0  0  0
 14 15  1  0  0  0  0
 14 16  1  0  0  0  0
 14 31  1  0  0  0  0
 15 32  1  0  0  0  0
 15 33  1  0  0  0  0
 15 34  1  0  0  0  0
 16 20  1  0  0  0  0
 16 17  1  0  0  0  0
 16 35  1  0  0  0  0
 17 18  1  0  0  0  0
 17 36  1  0  0  0  0
 17 37  1  0  0  0  0
 18 19  1  0  0  0  0
 18 38  1  0  0  0  0
 18 39  1  0  0  0  0
 19 20  1  0  0  0  0
 19 40  1  0  0  0  0
 19 41  1  0  0  0  0
M  END
> <s_m_source_file>
AV-unprocessed.smi

> <i_m_source_file_index>
2913

> <i_lp_mmshare_version>
43012

> <i_f3d_flags>
0

> <s_epik_input>
W0NIM11jMVtjSF1jKD1PKW4oW0NIM10pW2NIXWMxW05IXUMoPU8pW05IXVtDQEhdKFtDSDNdKVtDQEBIXTJbQ0gyXVtDSDJdW0NIMl1PMg==

> <s_epik_cmdline>
J2VwaWtfcHl0aG9uJywgJy1waCcsICc3LjAnLCAnLXRuJywgJzgnLCAnLW1hJywgJzIwMCcsICctbWV0YWxfYmluZGluZycsICctaW1hZScsICc8aW5maWxlLm1hZT4nLCAnLW9tYWUnLCAnPG91dGZpbGUubWFlPic=

> <r_lp_tautomer_probability>
1

> <r_epik_Ionization_Penalty>
2.72039e-05

> <r_epik_Ionization_Penalty_Charging>
8.03976e-06

> <r_epik_Ionization_Penalty_Neutral>
1.91642e-05

> <r_epik_State_Penalty>
-0

> <r_epik_Charging_Adjusted_Penalty>
8.03976e-06

> <i_epik_Tot_Q>
0

> <i_epik_Tot_abs_Q>
0

> <r_epik_Metal_State_Penalty>
-0

> <b_epik_Metal_Only>
0

> <s_lp_Force_Field>
OPLS_2005

> <r_lp_Energy>
32.0319

> <b_lp_Chiralities_Consistent>
1

> <s_lp_Variant>
AV-unprocessed.smi:2913-3

> <Gold.Version>
5.8.1

> <Gold.Id.Protein>
6NUR|6NUR_protein|mol2

> <Gold.PLP.Fitness>
41.4209

> <Gold.PLP.PLP>
-33.6619

> <Gold.PLP.part.hbond>
-3.0218

> <Gold.PLP.part.metal>
0.0000

> <Gold.PLP.part.buried>
-5.1119

> <Gold.PLP.part.nonpolar>
-25.7575

> <Gold.PLP.part.repulsive>
0.7077

> <Gold.PLP.ligand.clash>
0.0000

> <Gold.PLP.ligand.torsion>
0.5906

> <Gold.PLP.Chemscore.Hbond>
2.9760

> <Gold.PLP.Chemscore.CHOScore>
0.0000

> <Gold.PLP.Chemscore.Metal>
0.0000

> <Gold.Chemscore.Hbonds>
donor molecule, donor type, donor heavy atom, donor atom, acceptor molecule, acceptor atom, score
      L1  H    10    29       P1  7948  1.00
      L1  H    13    30       P1  7948  1.00
      P1  H 10752 10763       L1    20  0.92

> <Gold.PLP.Chemscore.Internal.Correction>
0.0123

> <Gold.Rescore>
     Score         DG    S(hbond)    S(metal)    S(lipo)     H(rot)  DE(clash)    DE(int)     intcor
     12.99     -15.84       1.68        0.00      67.03       1.21       0.00       2.85       ----

> <Gold.Chemscore.Fitness>
12.9865

> <Gold.Chemscore.DG>
-15.8380

> <Gold.Chemscore.ZeroCoef>
-5.4800

> <Gold.Chemscore.Hbond>
1.6808

> <Gold.Chemscore.Metal>
0.0000

> <Gold.Chemscore.Lipo>
67.0274

> <Gold.Chemscore.Internal_Hbond>
0.0000

> <Gold.Chemscore.DEClash>
0.0000

> <Gold.Chemscore.DEInternal>
2.8516

> <Gold.Chemscore.Rot>
1.2101

> <Gold.Chemscore.Internal.Correction>
   9.000000E+99

> <Gold.Chemscore.Hbonds>
donor molecule, donor type, donor heavy atom, donor atom, acceptor molecule, acceptor atom, score
      L1  H    10    29       P1  7948  0.25
      L1  H    13    30       P1  7948  0.48
      P1  H 10752 10763       L1    20  0.34

> <Gold.Chemscore.Hbond.Weighted>
-5.6137

> <Gold.Chemscore.Metal.Weighted>
-0.0000

> <Gold.Chemscore.Lipo.Weighted>
-7.8422

> <Gold.Chemscore.Internal_Hbond.Weighted>
0.0000

> <Gold.Chemscore.DEClash.Weighted>
0.0000

> <Gold.Chemscore.DEInternal.Weighted>
2.8516

> <Gold.Chemscore.Rot.Weighted>
3.0979

> <Gold.Chemscore.Internal.Correction.Weighted>
   9.000000E+99

> <Gold.Protein.RotatedTorsions>
[ 6907 6896 6895 6894 ] final  -43.28 input  -60.11 | X-H torsion
[ 7974 7965 7964 7962 ] final  106.56 input  175.53 | X-H torsion
[ 8008 7997 7996 7995 ] final   46.95 input   59.86 | X-H torsion
[ 10167 10162 10161 10158 ] final   72.18 input  -65.29 | X-H torsion
[ 10718 10713 10712 10709 ] final -135.57 input   66.30 | X-H torsion
[ 10763 10752 10751 10750 ] final   35.82 input  -60.55 | X-H torsion
[ 11005 11000 10999 10996 ] final -165.96 input  -57.11 | X-H torsion

> <Gold.Protein.ActiveResidues>
 VAL166  LYS551  ARG553  GLY616  TRP617  ASP618  TYR619  PRO620  LYS621  CYS622 
 ASP623  PHE694  ASN695  SER759  ASP760  ASP761  ALA762  ILE779  LEU786  VAL792 
 PHE793  MET794  SER795  GLU796  ALA797  LYS798  CYS799  TRP800  GLU811  SER814 

> <Gold.Protein.RotatedAtoms>
  150.9457  134.8862  159.7640 H   0  0  0  0  0  0  0  0  0  0  0  0  # atno 6907 bound_to 6896
  152.5099  134.3878  159.9383 H   0  0  0  0  0  0  0  0  0  0  0  0  # atno 6908 bound_to 6896
  151.3896  133.3753  159.2754 H   0  0  0  0  0  0  0  0  0  0  0  0  # atno 6909 bound_to 6896
  145.3051  139.2557  143.3793 H   0  0  0  0  0  0  0  0  0  0  0  0  # atno 7974 bound_to 7965
  155.3610  140.3418  155.4241 H   0  0  0  0  0  0  0  0  0  0  0  0  # atno 8008 bound_to 7997
  156.1713  140.1633  156.8476 H   0  0  0  0  0  0  0  0  0  0  0  0  # atno 8009 bound_to 7997
  154.5236  140.0761  156.8200 H   0  0  0  0  0  0  0  0  0  0  0  0  # atno 8010 bound_to 7997
  140.0380  144.5412  150.7456 H   0  0  0  0  0  0  0  0  0  0  0  0  # atno 10167 bound_to 10162
  156.2676  130.7247  151.1203 H   0  0  0  0  0  0  0  0  0  0  0  0  # atno 10718 bound_to 10713
  153.0103  135.6323  154.1888 H   0  0  0  0  0  0  0  0  0  0  0  0  # atno 10763 bound_to 10752
  154.1630  135.2822  155.3105 H   0  0  0  0  0  0  0  0  0  0  0  0  # atno 10764 bound_to 10752
  154.5967  135.5600  153.7393 H   0  0  0  0  0  0  0  0  0  0  0  0  # atno 10765 bound_to 10752
  140.5698  134.5249  157.5159 H   0  0  0  0  0  0  0  0  0  0  0  0  # atno 11005 bound_to 11000
  146.3138  140.3574  142.8661 LP  0  0  0  0  0  0  0  0  0  0  0  0  # atno 17320 bound_to 7965
  144.9062  140.7702  143.5836 LP  0  0  0  0  0  0  0  0  0  0  0  0  # atno 17321 bound_to 7965
  140.7273  143.2650  151.4077 LP  0  0  0  0  0  0  0  0  0  0  0  0  # atno 17342 bound_to 10162
  139.6032  144.1251  152.2221 LP  0  0  0  0  0  0  0  0  0  0  0  0  # atno 17343 bound_to 10162
  157.7273  131.0640  150.5872 LP  0  0  0  0  0  0  0  0  0  0  0  0  # atno 17370 bound_to 10713
  156.5966  130.4343  149.5914 LP  0  0  0  0  0  0  0  0  0  0  0  0  # atno 17371 bound_to 10713
  139.9367  134.7862  156.0784 LP  0  0  0  0  0  0  0  0  0  0  0  0  # atno 17394 bound_to 11000
  141.1063  133.6659  156.2872 LP  0  0  0  0  0  0  0  0  0  0  0  0  # atno 17395 bound_to 11000

$$$$
