AV-unprocessed.smi:1022|AV-procd|sdf|4460|dock6
  -GOLD-   22720 2433D 1   1.00000     0.00000
 Structure written by MMmdl.
 32 33  0  0  0  0  0  0  0  0  2 V2000
  143.6262  136.3297  162.5970 C   0  0  0  0  0  0  0  0  0  0  0  0
  144.6341  135.3349  162.5569 O   0  0  0  0  0  0  0  0  0  0  0  0
  145.5434  135.5277  161.4853 C   0  0  0  0  0  0  0  0  0  0  0  0
  146.7688  134.6152  161.6763 C   0  0  2  0  0  0  0  0  0  0  0  0
  147.4140  134.8019  163.0576 C   0  0  0  0  0  0  0  0  0  0  0  0
  147.7670  134.8849  160.6440 N   0  0  0  0  0  0  0  0  0  0  0  0
  148.3711  136.0601  160.4143 C   0  0  0  0  0  0  0  0  0  0  0  0
  148.0865  137.0440  161.1012 O   0  0  0  0  0  0  0  0  0  0  0  0
  149.2738  136.0204  159.4078 N   0  5  0  0  0  0  0  0  0  0  0  0
  149.6918  137.1618  158.8362 C   0  0  0  0  0  0  0  0  0  0  0  0
  148.9820  138.2975  158.8932 N   0  0  0  0  0  0  0  0  0  0  0  0
  149.5930  139.3552  158.2352 N   0  0  0  0  0  0  0  0  0  0  0  0
  150.7556  139.0005  157.6824 C   0  0  0  0  0  0  0  0  0  0  0  0
  151.6050  139.9617  156.9198 C   0  0  0  0  0  0  0  0  0  0  0  0
  151.0422  140.7863  155.7828 C   0  0  0  0  0  0  0  0  0  0  0  0
  152.0131  139.6701  155.4939 C   0  0  0  0  0  0  0  0  0  0  0  0
  151.1929  137.3167  157.9239 S   0  0  0  0  0  0  0  0  0  0  0  0
  142.9569  136.1395  163.4358 H   0  0  0  0  0  0  0  0  0  0  0  0
  143.0306  136.3249  161.6832 H   0  0  0  0  0  0  0  0  0  0  0  0
  144.0576  137.3228  162.7292 H   0  0  0  0  0  0  0  0  0  0  0  0
  145.0411  135.2936  160.5451 H   0  0  0  0  0  0  0  0  0  0  0  0
  145.8535  136.5730  161.4357 H   0  0  0  0  0  0  0  0  0  0  0  0
  146.4505  133.5746  161.5919 H   0  0  0  0  0  0  0  0  0  0  0  0
  146.7102  134.5665  163.8563 H   0  0  0  0  0  0  0  0  0  0  0  0
  147.7508  135.8289  163.2034 H   0  0  0  0  0  0  0  0  0  0  0  0
  148.2772  134.1469  163.1790 H   0  0  0  0  0  0  0  0  0  0  0  0
  148.0314  134.1094  160.0545 H   0  0  0  0  0  0  0  0  0  0  0  0
  152.3366  140.4308  157.5745 H   0  0  0  0  0  0  0  0  0  0  0  0
  150.0047  140.6283  155.4955 H   0  0  0  0  0  0  0  0  0  0  0  0
  151.4043  141.8069  155.6767 H   0  0  0  0  0  0  0  0  0  0  0  0
  153.0223  139.9451  155.1947 H   0  0  0  0  0  0  0  0  0  0  0  0
  151.6174  138.7689  155.0296 H   0  0  0  0  0  0  0  0  0  0  0  0
  1  2  1  0  0  0  0
  1 18  1  0  0  0  0
  1 19  1  0  0  0  0
  1 20  1  0  0  0  0
  2  3  1  0  0  0  0
  3  4  1  0  0  0  0
  3 21  1  0  0  0  0
  3 22  1  0  0  0  0
  4  5  1  0  0  0  0
  4  6  1  0  0  0  0
  4 23  1  0  0  0  0
  5 24  1  0  0  0  0
  5 25  1  0  0  0  0
  5 26  1  0  0  0  0
  6  7  1  0  0  0  0
  6 27  1  0  0  0  0
  7  8  2  0  0  0  0
  7  9  1  0  0  0  0
  9 10  1  0  0  0  0
 10 17  1  0  0  0  0
 10 11  2  0  0  0  0
 11 12  1  0  0  0  0
 12 13  2  0  0  0  0
 13 14  1  0  0  0  0
 13 17  1  0  0  0  0
 14 16  1  0  0  0  0
 14 15  1  0  0  0  0
 14 28  1  0  0  0  0
 15 16  1  0  0  0  0
 15 29  1  0  0  0  0
 15 30  1  0  0  0  0
 16 31  1  0  0  0  0
 16 32  1  0  0  0  0
M  CHG  1   9  -1
M  END
> <s_m_source_file>
AV-unprocessed.smi

> <i_m_source_file_index>
1022

> <i_lp_mmshare_version>
43012

> <i_f3d_flags>
0

> <s_epik_input>
W0NIM11PW0NIMl1bQ0BIXShbQ0gzXSlbTkhdQyg9TylbTkhdYzFubmMoczEpW0NIXTJbQ0gyXVtDSDJdMg==

> <s_epik_cmdline>
J2VwaWtfcHl0aG9uJywgJy1waCcsICc3LjAnLCAnLXRuJywgJzgnLCAnLW1hJywgJzIwMCcsICctbWV0YWxfYmluZGluZycsICctaW1hZScsICc8aW5maWxlLm1hZT4nLCAnLW9tYWUnLCAnPG91dGZpbGUubWFlPic=

> <r_lp_tautomer_probability>
1

> <r_epik_Ionization_Penalty>
3.79487

> <r_epik_Ionization_Penalty_Charging>
3.64217

> <r_epik_Ionization_Penalty_Neutral>
0.152695

> <r_epik_State_Penalty>
3.6409

> <r_epik_Charging_Adjusted_Penalty>
7.28307

> <i_epik_Tot_Q>
-1

> <i_epik_Tot_abs_Q>
1

> <r_epik_Metal_State_Penalty>
0.534129

> <b_epik_Metal_Only>
1

> <s_lp_Force_Field>
OPLS_2005

> <r_lp_Energy>
-0.766609

> <b_lp_Chiralities_Consistent>
1

> <s_lp_Variant>
AV-unprocessed.smi:1022-3

> <Gold.Version>
5.8.1

> <Gold.Id.Protein>
6NUR|6NUR_protein|mol2

> <Gold.PLP.Fitness>
39.2670

> <Gold.PLP.PLP>
-28.4407

> <Gold.PLP.part.hbond>
-4.3505

> <Gold.PLP.part.metal>
0.0000

> <Gold.PLP.part.buried>
-2.3929

> <Gold.PLP.part.nonpolar>
-21.2313

> <Gold.PLP.part.repulsive>
0.0947

> <Gold.PLP.ligand.clash>
0.0000

> <Gold.PLP.ligand.torsion>
0.2999

> <Gold.PLP.Chemscore.Hbond>
3.7488

> <Gold.PLP.Chemscore.CHOScore>
0.0000

> <Gold.PLP.Chemscore.Metal>
0.0000

> <Gold.Chemscore.Hbonds>
donor molecule, donor type, donor heavy atom, donor atom, acceptor molecule, acceptor atom, score
      P1  H  6896  6908       L1     9  2.00
      P1  H  6931  6943       L1     8  1.00
      P1  H  6934  6947       L1     8  0.45

> <Gold.PLP.Chemscore.Internal.Correction>
0.1797

> <Gold.Rescore>
     Score         DG    S(hbond)    S(metal)    S(lipo)     H(rot)  DE(clash)    DE(int)     intcor
     12.70     -16.01       2.56        0.00      53.90       1.69       0.12       3.19       ----

> <Gold.Chemscore.Fitness>
12.7041

> <Gold.Chemscore.DG>
-16.0124

> <Gold.Chemscore.ZeroCoef>
-5.4800

> <Gold.Chemscore.Hbond>
2.5623

> <Gold.Chemscore.Metal>
0.0000

> <Gold.Chemscore.Lipo>
53.8974

> <Gold.Chemscore.Internal_Hbond>
0.0000

> <Gold.Chemscore.DEClash>
0.1225

> <Gold.Chemscore.DEInternal>
3.1857

> <Gold.Chemscore.Rot>
1.6921

> <Gold.Chemscore.Internal.Correction>
   9.000000E+99

> <Gold.Chemscore.Hbonds>
donor molecule, donor type, donor heavy atom, donor atom, acceptor molecule, acceptor atom, score
      P1  H  6896  6908       L1     9  0.70
      P1  H  6931  6943       L1     8  0.97
      P1  H  6934  6947       L1     8  0.46

> <Gold.Chemscore.Hbond.Weighted>
-8.5580

> <Gold.Chemscore.Metal.Weighted>
-0.0000

> <Gold.Chemscore.Lipo.Weighted>
-6.3060

> <Gold.Chemscore.Internal_Hbond.Weighted>
0.0000

> <Gold.Chemscore.DEClash.Weighted>
0.1225

> <Gold.Chemscore.DEInternal.Weighted>
3.1857

> <Gold.Chemscore.Rot.Weighted>
4.3317

> <Gold.Chemscore.Internal.Correction.Weighted>
   9.000000E+99

> <Gold.Protein.RotatedTorsions>
[ 6907 6896 6895 6894 ] final -175.95 input  -60.11 | X-H torsion
[ 7974 7965 7964 7962 ] final  -27.21 input  175.53 | X-H torsion
[ 8008 7997 7996 7995 ] final  -88.85 input   59.86 | X-H torsion
[ 10167 10162 10161 10158 ] final  128.42 input  -65.29 | X-H torsion
[ 10718 10713 10712 10709 ] final -116.11 input   66.30 | X-H torsion
[ 10763 10752 10751 10750 ] final  -28.25 input  -60.55 | X-H torsion
[ 11005 11000 10999 10996 ] final   46.00 input  -57.11 | X-H torsion

> <Gold.Protein.ActiveResidues>
 VAL166  LYS551  ARG553  GLY616  TRP617  ASP618  TYR619  PRO620  LYS621  CYS622 
 ASP623  PHE694  ASN695  SER759  ASP760  ASP761  ALA762  ILE779  LEU786  VAL792 
 PHE793  MET794  SER795  GLU796  ALA797  LYS798  CYS799  TRP800  GLU811  SER814 

> <Gold.Protein.RotatedAtoms>
  151.5969  133.3360  159.3038 H   0  0  0  0  0  0  0  0  0  0  0  0  # atno 6907 bound_to 6896
  150.8229  134.7449  159.6799 H   0  0  0  0  0  0  0  0  0  0  0  0  # atno 6908 bound_to 6896
  152.4321  134.5763  159.9987 H   0  0  0  0  0  0  0  0  0  0  0  0  # atno 6909 bound_to 6896
  146.1373  140.5122  142.8667 H   0  0  0  0  0  0  0  0  0  0  0  0  # atno 7974 bound_to 7965
  154.6796  140.0548  157.0252 H   0  0  0  0  0  0  0  0  0  0  0  0  # atno 8008 bound_to 7997
  155.0970  140.3225  155.4539 H   0  0  0  0  0  0  0  0  0  0  0  0  # atno 8009 bound_to 7997
  156.2689  140.2038  156.6096 H   0  0  0  0  0  0  0  0  0  0  0  0  # atno 8010 bound_to 7997
  139.5528  144.6826  151.4272 H   0  0  0  0  0  0  0  0  0  0  0  0  # atno 10167 bound_to 10162
  156.0941  130.6117  150.8993 H   0  0  0  0  0  0  0  0  0  0  0  0  # atno 10718 bound_to 10713
  153.7454  135.6929  153.4957 H   0  0  0  0  0  0  0  0  0  0  0  0  # atno 10763 bound_to 10752
  153.2040  135.4426  155.0300 H   0  0  0  0  0  0  0  0  0  0  0  0  # atno 10764 bound_to 10752
  154.8206  135.3420  154.6977 H   0  0  0  0  0  0  0  0  0  0  0  0  # atno 10765 bound_to 10752
  140.1408  134.4585  155.8451 H   0  0  0  0  0  0  0  0  0  0  0  0  # atno 11005 bound_to 11000
  144.7753  140.5727  143.6642 LP  0  0  0  0  0  0  0  0  0  0  0  0  # atno 17320 bound_to 7965
  145.5127  139.1479  143.3596 LP  0  0  0  0  0  0  0  0  0  0  0  0  # atno 17321 bound_to 7965
  140.6795  143.8115  150.7102 LP  0  0  0  0  0  0  0  0  0  0  0  0  # atno 17342 bound_to 10162
  140.1564  143.4313  152.2097 LP  0  0  0  0  0  0  0  0  0  0  0  0  # atno 17343 bound_to 10162
  157.6097  131.0937  150.8816 LP  0  0  0  0  0  0  0  0  0  0  0  0  # atno 17370 bound_to 10713
  156.8958  130.5229  149.5284 LP  0  0  0  0  0  0  0  0  0  0  0  0  # atno 17371 bound_to 10713
  141.2185  133.6832  156.7244 LP  0  0  0  0  0  0  0  0  0  0  0  0  # atno 17394 bound_to 11000
  140.2724  134.8382  157.3859 LP  0  0  0  0  0  0  0  0  0  0  0  0  # atno 17395 bound_to 11000

$$$$
