AV-unprocessed.smi:1788|AV-procd|sdf|7211|dock9
  -GOLD-   22720 8453D 1   1.00000     0.00000
 Structure written by MMmdl.
 55 57  0  0  0  0  0  0  0  0  2 V2000
  143.8781  132.7205  149.0092 C   0  0  0  0  0  0  0  0  0  0  0  0
  143.8663  133.0062  150.5213 C   0  0  1  0  0  0  0  0  0  0  0  0
  144.8433  132.1113  151.3063 C   0  0  0  0  0  0  0  0  0  0  0  0
  146.2983  132.5501  151.0890 C   0  0  0  0  0  0  0  0  0  0  0  0
  146.4757  134.0453  151.3968 C   0  0  0  0  0  0  0  0  0  0  0  0
  145.5432  134.8733  150.5891 N   0  3  2  0  0  0  0  0  0  0  0  0
  145.7953  136.3269  150.7542 C   0  0  0  0  0  0  0  0  0  0  0  0
  145.7996  136.7564  152.2344 C   0  0  0  0  0  0  0  0  0  0  0  0
  146.7996  137.7865  152.4909 N   0  0  0  0  0  0  0  0  0  0  0  0
  147.3185  138.0655  153.6952 C   0  0  0  0  0  0  0  0  0  0  0  0
  147.0091  137.4579  154.7198 O   0  0  0  0  0  0  0  0  0  0  0  0
  148.2169  139.0625  153.6202 N   0  0  0  0  0  0  0  0  0  0  0  0
  148.9727  139.6552  154.6680 C   0  0  0  0  0  0  0  0  0  0  0  0
  149.0231  139.1649  155.9936 C   0  0  0  0  0  0  0  0  0  0  0  0
  149.7956  139.8548  156.9472 C   0  0  0  0  0  0  0  0  0  0  0  0
  150.4941  141.0228  156.5606 C   0  0  0  0  0  0  0  0  0  0  0  0
  151.2733  141.7285  157.5029 N   0  0  0  0  0  0  0  0  0  0  0  0
  151.0760  143.1728  157.6114 C   0  0  0  0  0  0  0  0  0  0  0  0
  152.1932  143.8032  158.4598 C   0  0  0  0  0  0  0  0  0  0  0  0
  152.2507  143.1609  159.7292 O   0  0  0  0  0  0  0  0  0  0  0  0
  152.5529  141.7749  159.6075 C   0  0  0  0  0  0  0  0  0  0  0  0
  151.4533  141.0698  158.7944 C   0  0  0  0  0  0  0  0  0  0  0  0
  150.4383  141.4929  155.2903 N   0  0  0  0  0  0  0  0  0  0  0  0
  149.6946  140.8305  154.3801 C   0  0  0  0  0  0  0  0  0  0  0  0
  144.1246  134.4946  150.8349 C   0  0  0  0  0  0  0  0  0  0  0  0
  144.8421  132.9535  148.5572 H   0  0  0  0  0  0  0  0  0  0  0  0
  143.1221  133.3136  148.4939 H   0  0  0  0  0  0  0  0  0  0  0  0
  143.6621  131.6709  148.8077 H   0  0  0  0  0  0  0  0  0  0  0  0
  142.8599  132.7693  150.8692 H   0  0  0  0  0  0  0  0  0  0  0  0
  144.6094  132.1723  152.3700 H   0  0  0  0  0  0  0  0  0  0  0  0
  144.7161  131.0653  151.0260 H   0  0  0  0  0  0  0  0  0  0  0  0
  146.9606  131.9602  151.7234 H   0  0  0  0  0  0  0  0  0  0  0  0
  146.6002  132.3470  150.0610 H   0  0  0  0  0  0  0  0  0  0  0  0
  146.3075  134.2354  152.4581 H   0  0  0  0  0  0  0  0  0  0  0  0
  147.5060  134.3311  151.1823 H   0  0  0  0  0  0  0  0  0  0  0  0
  146.7322  136.5918  150.2613 H   0  0  0  0  0  0  0  0  0  0  0  0
  145.0119  136.8904  150.2450 H   0  0  0  0  0  0  0  0  0  0  0  0
  144.8230  137.1578  152.5065 H   0  0  0  0  0  0  0  0  0  0  0  0
  145.9821  135.9113  152.8987 H   0  0  0  0  0  0  0  0  0  0  0  0
  147.1107  138.3310  151.6992 H   0  0  0  0  0  0  0  0  0  0  0  0
  148.4210  139.4083  152.6939 H   0  0  0  0  0  0  0  0  0  0  0  0
  148.4806  138.2855  156.3031 H   0  0  0  0  0  0  0  0  0  0  0  0
  149.8506  139.4753  157.9565 H   0  0  0  0  0  0  0  0  0  0  0  0
  151.0732  143.6295  156.6207 H   0  0  0  0  0  0  0  0  0  0  0  0
  150.1045  143.3722  158.0662 H   0  0  0  0  0  0  0  0  0  0  0  0
  153.1575  143.7231  157.9547 H   0  0  0  0  0  0  0  0  0  0  0  0
  151.9985  144.8655  158.6072 H   0  0  0  0  0  0  0  0  0  0  0  0
  153.5290  141.6443  159.1371 H   0  0  0  0  0  0  0  0  0  0  0  0
  152.6196  141.3381  160.6040 H   0  0  0  0  0  0  0  0  0  0  0  0
  150.5089  141.1023  159.3393 H   0  0  0  0  0  0  0  0  0  0  0  0
  151.7166  140.0191  158.6798 H   0  0  0  0  0  0  0  0  0  0  0  0
  149.6814  141.2530  153.3858 H   0  0  0  0  0  0  0  0  0  0  0  0
  143.4516  135.1087  150.2376 H   0  0  0  0  0  0  0  0  0  0  0  0
  143.8792  134.6978  151.8788 H   0  0  0  0  0  0  0  0  0  0  0  0
  145.7435  134.6572  149.6231 H   0  0  0  0  0  0  0  0  0  0  0  0
  1  2  1  0  0  0  0
  1 26  1  0  0  0  0
  1 27  1  0  0  0  0
  1 28  1  0  0  0  0
  2 25  1  0  0  0  0
  2  3  1  0  0  0  0
  2 29  1  0  0  0  0
  3  4  1  0  0  0  0
  3 30  1  0  0  0  0
  3 31  1  0  0  0  0
  4  5  1  0  0  0  0
  4 32  1  0  0  0  0
  4 33  1  0  0  0  0
  5  6  1  0  0  0  0
  5 34  1  0  0  0  0
  5 35  1  0  0  0  0
  6  7  1  0  0  0  0
  6 25  1  0  0  0  0
  6 55  1  0  0  0  0
  7  8  1  0  0  0  0
  7 36  1  0  0  0  0
  7 37  1  0  0  0  0
  8  9  1  0  0  0  0
  8 38  1  0  0  0  0
  8 39  1  0  0  0  0
  9 10  1  0  0  0  0
  9 40  1  0  0  0  0
 10 11  2  0  0  0  0
 10 12  1  0  0  0  0
 12 13  1  0  0  0  0
 12 41  1  0  0  0  0
 13 24  1  0  0  0  0
 13 14  2  0  0  0  0
 14 15  1  0  0  0  0
 14 42  1  0  0  0  0
 15 16  2  0  0  0  0
 15 43  1  0  0  0  0
 16 17  1  0  0  0  0
 16 23  1  0  0  0  0
 17 22  1  0  0  0  0
 17 18  1  0  0  0  0
 18 19  1  0  0  0  0
 18 44  1  0  0  0  0
 18 45  1  0  0  0  0
 19 20  1  0  0  0  0
 19 46  1  0  0  0  0
 19 47  1  0  0  0  0
 20 21  1  0  0  0  0
 21 22  1  0  0  0  0
 21 48  1  0  0  0  0
 21 49  1  0  0  0  0
 22 50  1  0  0  0  0
 22 51  1  0  0  0  0
 23 24  2  0  0  0  0
 24 52  1  0  0  0  0
 25 53  1  0  0  0  0
 25 54  1  0  0  0  0
M  CHG  1   6   1
M  END
> <s_m_source_file>
AV-unprocessed.smi

> <i_m_source_file_index>
1788

> <i_lp_mmshare_version>
43012

> <i_f3d_flags>
0

> <s_epik_input>
W0NIM11bQ0BASF0xW0NIMl1bQ0gyXVtDSDJdTihbQ0gyXTEpW0NIMl1bQ0gyXVtOSF1DKD1PKVtOSF1jMltjSF1bY0hdYyhuW2NIXTIpTjNbQ0gyXVtDSDJdT1tDSDJdW0NIMl0z

> <s_epik_cmdline>
J2VwaWtfcHl0aG9uJywgJy1waCcsICc3LjAnLCAnLXRuJywgJzgnLCAnLW1hJywgJzIwMCcsICctbWV0YWxfYmluZGluZycsICctaW1hZScsICc8aW5maWxlLm1hZT4nLCAnLW9tYWUnLCAnPG91dGZpbGUubWFlPic=

> <r_lp_tautomer_probability>
1

> <r_epik_Ionization_Penalty>
0.00340126

> <r_epik_Ionization_Penalty_Charging>
0.00171832

> <r_epik_Ionization_Penalty_Neutral>
0.00168294

> <r_epik_State_Penalty>
-0

> <r_epik_Charging_Adjusted_Penalty>
0.00171832

> <i_epik_Tot_Q>
1

> <i_epik_Tot_abs_Q>
1

> <r_epik_Metal_State_Penalty>
-0

> <b_epik_Metal_Only>
0

> <s_lp_Force_Field>
OPLS_2005

> <r_lp_Energy>
36.4544

> <b_lp_Chiralities_Consistent>
1

> <s_lp_Variant>
AV-unprocessed.smi:1788-2

> <Gold.Version>
5.8.1

> <Gold.Id.Protein>
6NUR|6NUR_protein|mol2

> <Gold.PLP.Fitness>
49.7477

> <Gold.PLP.PLP>
-41.7302

> <Gold.PLP.part.hbond>
-4.0000

> <Gold.PLP.part.metal>
0.0000

> <Gold.PLP.part.buried>
-0.5460

> <Gold.PLP.part.nonpolar>
-37.7845

> <Gold.PLP.part.repulsive>
0.3828

> <Gold.PLP.ligand.clash>
0.0000

> <Gold.PLP.ligand.torsion>
0.6517

> <Gold.PLP.Chemscore.Hbond>
2.0000

> <Gold.PLP.Chemscore.CHOScore>
0.9795

> <Gold.PLP.Chemscore.Metal>
0.0000

> <Gold.Chemscore.Hbonds>
donor molecule, donor type, donor heavy atom, donor atom, acceptor molecule, acceptor atom, score
      L1  H     6    55       P1  7921  1.00
      L1  H    12    41       P1  7957  0.99
      L1  C    24    52       P1  7957  0.98

> <Gold.PLP.Chemscore.Internal.Correction>
0.3824

> <Gold.Rescore>
     Score         DG    S(hbond)    S(metal)    S(lipo)     H(rot)  DE(clash)    DE(int)     intcor
     18.60     -21.20       1.79        0.00     118.06       1.60       0.79       1.81       ----

> <Gold.Chemscore.Fitness>
18.6015

> <Gold.Chemscore.DG>
-21.1966

> <Gold.Chemscore.ZeroCoef>
-5.4800

> <Gold.Chemscore.Hbond>
1.7945

> <Gold.Chemscore.Metal>
0.0000

> <Gold.Chemscore.Lipo>
118.0604

> <Gold.Chemscore.Internal_Hbond>
0.0000

> <Gold.Chemscore.DEClash>
0.7867

> <Gold.Chemscore.DEInternal>
1.8085

> <Gold.Chemscore.Rot>
1.5976

> <Gold.Chemscore.Internal.Correction>
   9.000000E+99

> <Gold.Chemscore.Hbonds>
donor molecule, donor type, donor heavy atom, donor atom, acceptor molecule, acceptor atom, score
      L1  H     6    55       P1  7921  0.80
      L1  H    12    41       P1  7957  0.92

> <Gold.Chemscore.Hbond.Weighted>
-5.9935

> <Gold.Chemscore.Metal.Weighted>
-0.0000

> <Gold.Chemscore.Lipo.Weighted>
-13.8131

> <Gold.Chemscore.Internal_Hbond.Weighted>
0.0000

> <Gold.Chemscore.DEClash.Weighted>
0.7867

> <Gold.Chemscore.DEInternal.Weighted>
1.8085

> <Gold.Chemscore.Rot.Weighted>
4.0899

> <Gold.Chemscore.Internal.Correction.Weighted>
   9.000000E+99

> <Gold.Protein.RotatedTorsions>
[ 6907 6896 6895 6894 ] final   32.85 input  -60.11 | X-H torsion
[ 7974 7965 7964 7962 ] final  150.94 input  175.53 | X-H torsion
[ 8008 7997 7996 7995 ] final  122.20 input   59.86 | X-H torsion
[ 10167 10162 10161 10158 ] final   53.96 input  -65.29 | X-H torsion
[ 10718 10713 10712 10709 ] final  -99.72 input   66.30 | X-H torsion
[ 10763 10752 10751 10750 ] final  124.82 input  -60.55 | X-H torsion
[ 11005 11000 10999 10996 ] final  116.86 input  -57.11 | X-H torsion

> <Gold.Protein.ActiveResidues>
 VAL166  LYS551  ARG553  GLY616  TRP617  ASP618  TYR619  PRO620  LYS621  CYS622 
 ASP623  PHE694  ASN695  SER759  ASP760  ASP761  ALA762  ILE779  LEU786  VAL792 
 PHE793  MET794  SER795  GLU796  ALA797  LYS798  CYS799  TRP800  GLU811  SER814 

> <Gold.Protein.RotatedAtoms>
  152.0803  134.9475  160.0573 H   0  0  0  0  0  0  0  0  0  0  0  0  # atno 6907 bound_to 6896
  152.0767  133.4128  159.4491 H   0  0  0  0  0  0  0  0  0  0  0  0  # atno 6908 bound_to 6896
  150.6836  134.2950  159.4726 H   0  0  0  0  0  0  0  0  0  0  0  0  # atno 6909 bound_to 6896
  144.8328  139.6474  143.6051 H   0  0  0  0  0  0  0  0  0  0  0  0  # atno 7974 bound_to 7965
  156.2718  140.2791  156.1429 H   0  0  0  0  0  0  0  0  0  0  0  0  # atno 8008 bound_to 7997
  155.0934  140.0389  157.2693 H   0  0  0  0  0  0  0  0  0  0  0  0  # atno 8009 bound_to 7997
  154.6871  140.2621  155.6855 H   0  0  0  0  0  0  0  0  0  0  0  0  # atno 8010 bound_to 7997
  140.2352  144.3643  150.6400 H   0  0  0  0  0  0  0  0  0  0  0  0  # atno 10167 bound_to 10162
  156.0142  130.5295  150.6712 H   0  0  0  0  0  0  0  0  0  0  0  0  # atno 10718 bound_to 10713
  153.6675  135.3336  155.3144 H   0  0  0  0  0  0  0  0  0  0  0  0  # atno 10763 bound_to 10752
  154.8499  135.4378  154.1739 H   0  0  0  0  0  0  0  0  0  0  0  0  # atno 10764 bound_to 10752
  153.2722  135.7001  153.7545 H   0  0  0  0  0  0  0  0  0  0  0  0  # atno 10765 bound_to 10752
  139.9055  134.9603  156.7262 H   0  0  0  0  0  0  0  0  0  0  0  0  # atno 11005 bound_to 11000
  146.2629  139.6452  142.9349 LP  0  0  0  0  0  0  0  0  0  0  0  0  # atno 17320 bound_to 7965
  145.4860  141.0438  143.2619 LP  0  0  0  0  0  0  0  0  0  0  0  0  # atno 17321 bound_to 7965
  140.6155  143.2172  151.6801 LP  0  0  0  0  0  0  0  0  0  0  0  0  # atno 17342 bound_to 10162
  139.5096  144.3571  152.0597 LP  0  0  0  0  0  0  0  0  0  0  0  0  # atno 17343 bound_to 10162
  157.4434  131.0864  151.0920 LP  0  0  0  0  0  0  0  0  0  0  0  0  # atno 17370 bound_to 10713
  157.1458  130.6162  149.5568 LP  0  0  0  0  0  0  0  0  0  0  0  0  # atno 17371 bound_to 10713
  140.6961  133.9347  155.7996 LP  0  0  0  0  0  0  0  0  0  0  0  0  # atno 17394 bound_to 11000
  141.0406  134.0627  157.3907 LP  0  0  0  0  0  0  0  0  0  0  0  0  # atno 17395 bound_to 11000

$$$$
