AV-unprocessed.smi:1664|AV-procd|sdf|6667|dock10
  -GOLD-   22720 7373D 1   1.00000     0.00000
 Structure written by MMmdl.
 35 36  0  0  0  0  0  0  0  0  3 V2000
  149.4966  133.9567  155.4768 C   0  0  0  0  0  0  0  0  0  0  0  0
  148.9110  135.3282  155.8671 C   0  0  1  0  0  0  0  0  0  0  0  0
  149.0214  135.5034  157.3308 C   0  0  0  0  0  0  0  0  0  0  0  0
  149.1084  135.6408  158.4771 N   0  0  0  0  0  0  0  0  0  0  0  0
  149.6432  136.3850  155.1671 N   0  0  0  0  0  0  0  0  0  0  0  0
  150.9249  136.7489  155.3443 C   0  0  0  0  0  0  0  0  0  0  0  0
  151.6941  136.1887  156.1237 O   0  0  0  0  0  0  0  0  0  0  0  0
  151.4089  137.9429  154.5159 C   0  0  0  0  0  0  0  0  0  0  0  0
  150.8474  139.2087  155.0141 N   0  0  0  0  0  0  0  0  0  0  0  0
  149.6794  139.6795  154.3816 C   0  0  0  0  0  0  0  0  0  0  0  0
  149.0653  140.8160  154.7643 C   0  0  0  0  0  0  0  0  0  0  0  0
  147.8594  141.2753  154.1105 N   0  3  0  0  0  0  0  0  0  0  0  0
  147.5180  140.7391  153.0613 O   0  0  0  0  0  0  0  0  0  0  0  0
  147.2152  142.1863  154.6222 O   0  5  0  0  0  0  0  0  0  0  0  0
  149.6502  141.5612  155.8619 C   0  0  0  0  0  0  0  0  0  0  0  0
  150.7652  141.1150  156.4734 C   0  0  0  0  0  0  0  0  0  0  0  0
  151.4275  139.8735  156.0601 C   0  0  0  0  0  0  0  0  0  0  0  0
  152.4413  139.4576  156.6205 O   0  0  0  0  0  0  0  0  0  0  0  0
  147.4394  135.3628  155.4595 C   0  0  0  0  0  0  0  0  0  0  0  0
  146.4315  136.2791  156.1174 C   0  0  0  0  0  0  0  0  0  0  0  0
  146.3398  134.7824  156.3208 C   0  0  0  0  0  0  0  0  0  0  0  0
  148.9395  133.1460  155.9475 H   0  0  0  0  0  0  0  0  0  0  0  0
  150.5360  133.8533  155.7896 H   0  0  0  0  0  0  0  0  0  0  0  0
  149.4582  133.7993  154.3983 H   0  0  0  0  0  0  0  0  0  0  0  0
  149.1075  136.9158  154.4959 H   0  0  0  0  0  0  0  0  0  0  0  0
  152.5000  137.9721  154.5254 H   0  0  0  0  0  0  0  0  0  0  0  0
  151.1400  137.7844  153.4703 H   0  0  0  0  0  0  0  0  0  0  0  0
  149.3200  139.0504  153.5799 H   0  0  0  0  0  0  0  0  0  0  0  0
  149.1983  142.4814  156.2023 H   0  0  0  0  0  0  0  0  0  0  0  0
  151.1832  141.6851  157.2901 H   0  0  0  0  0  0  0  0  0  0  0  0
  147.2998  135.2231  154.3886 H   0  0  0  0  0  0  0  0  0  0  0  0
  146.7548  136.8830  156.9626 H   0  0  0  0  0  0  0  0  0  0  0  0
  145.6868  136.7454  155.4755 H   0  0  0  0  0  0  0  0  0  0  0  0
  145.5339  134.2554  155.8142 H   0  0  0  0  0  0  0  0  0  0  0  0
  146.6037  134.3911  157.3010 H   0  0  0  0  0  0  0  0  0  0  0  0
  1  2  1  0  0  0  0
  1 22  1  0  0  0  0
  1 23  1  0  0  0  0
  1 24  1  0  0  0  0
  2  3  1  0  0  0  0
  2  5  1  0  0  0  0
  2 19  1  0  0  0  0
  3  4  3  0  0  0  0
  5  6  1  0  0  0  0
  5 25  1  0  0  0  0
  6  7  2  0  0  0  0
  6  8  1  0  0  0  0
  8  9  1  0  0  0  0
  8 26  1  0  0  0  0
  8 27  1  0  0  0  0
  9 17  1  0  0  0  0
  9 10  1  0  0  0  0
 10 11  2  0  0  0  0
 10 28  1  0  0  0  0
 11 12  1  0  0  0  0
 11 15  1  0  0  0  0
 12 13  2  0  0  0  0
 12 14  1  0  0  0  0
 15 16  2  0  0  0  0
 15 29  1  0  0  0  0
 16 17  1  0  0  0  0
 16 30  1  0  0  0  0
 17 18  2  0  0  0  0
 19 21  1  0  0  0  0
 19 20  1  0  0  0  0
 19 31  1  0  0  0  0
 20 21  1  0  0  0  0
 20 32  1  0  0  0  0
 20 33  1  0  0  0  0
 21 34  1  0  0  0  0
 21 35  1  0  0  0  0
M  CHG  1  12   1
M  CHG  1  14  -1
M  END
> <s_m_source_file>
AV-unprocessed.smi

> <i_m_source_file_index>
1664

> <i_lp_mmshare_version>
43012

> <i_f3d_flags>
0

> <s_epik_input>
W0NIMl0xW0NIMl1bQ0hdMVtDQF0oW0NIM10pKEMjTilbTkhdQyg9TylbQ0gyXW4yW2NIXWMoW04rXSg9TylbTy1dKVtjSF1bY0hdYzI9Tw==

> <s_epik_cmdline>
J2VwaWtfcHl0aG9uJywgJy1waCcsICc3LjAnLCAnLXRuJywgJzgnLCAnLW1hJywgJzIwMCcsICctbWV0YWxfYmluZGluZycsICctaW1hZScsICc8aW5maWxlLm1hZT4nLCAnLW9tYWUnLCAnPG91dGZpbGUubWFlPic=

> <r_lp_tautomer_probability>
1

> <r_epik_Ionization_Penalty>
4.65324e-07

> <r_epik_Ionization_Penalty_Charging>
6.17383e-11

> <r_epik_Ionization_Penalty_Neutral>
4.65262e-07

> <r_epik_State_Penalty>
-0

> <r_epik_Charging_Adjusted_Penalty>
6.17383e-11

> <i_epik_Tot_Q>
0

> <i_epik_Tot_abs_Q>
2

> <r_epik_Metal_State_Penalty>
-0

> <b_epik_Metal_Only>
0

> <s_lp_Force_Field>
OPLS_2005

> <r_lp_Energy>
25.9803

> <b_lp_Chiralities_Consistent>
1

> <s_lp_Variant>
AV-unprocessed.smi:1664-1

> <Gold.Version>
5.8.1

> <Gold.Id.Protein>
6NUR|6NUR_protein|mol2

> <Gold.PLP.Fitness>
41.6365

> <Gold.PLP.PLP>
-31.4628

> <Gold.PLP.part.hbond>
-3.9380

> <Gold.PLP.part.metal>
0.0000

> <Gold.PLP.part.buried>
-3.2879

> <Gold.PLP.part.nonpolar>
-25.2746

> <Gold.PLP.part.repulsive>
1.2542

> <Gold.PLP.ligand.clash>
0.0000

> <Gold.PLP.ligand.torsion>
1.3666

> <Gold.PLP.Chemscore.Hbond>
3.0000

> <Gold.PLP.Chemscore.CHOScore>
0.7858

> <Gold.PLP.Chemscore.Metal>
0.0000

> <Gold.Chemscore.Hbonds>
donor molecule, donor type, donor heavy atom, donor atom, acceptor molecule, acceptor atom, score
      P1  H  6896  6909       L1     4  0.63
      P1  H  7997  8009       L1    18  1.00
      P1  H 10752 10764       L1     7  1.00
      L1  C    10    28       P1  7957  0.54

> <Gold.PLP.Chemscore.Internal.Correction>
1.5494

> <Gold.Rescore>
     Score         DG    S(hbond)    S(metal)    S(lipo)     H(rot)  DE(clash)    DE(int)     intcor
     13.84     -15.73       2.96        0.00      45.39       1.94       0.02       1.87       ----

> <Gold.Chemscore.Fitness>
13.8396

> <Gold.Chemscore.DG>
-15.7297

> <Gold.Chemscore.ZeroCoef>
-5.4800

> <Gold.Chemscore.Hbond>
2.9646

> <Gold.Chemscore.Metal>
0.0000

> <Gold.Chemscore.Lipo>
45.3915

> <Gold.Chemscore.Internal_Hbond>
0.0000

> <Gold.Chemscore.DEClash>
0.0244

> <Gold.Chemscore.DEInternal>
1.8657

> <Gold.Chemscore.Rot>
1.9386

> <Gold.Chemscore.Internal.Correction>
   9.000000E+99

> <Gold.Chemscore.Hbonds>
donor molecule, donor type, donor heavy atom, donor atom, acceptor molecule, acceptor atom, score
      P1  H  6896  6909       L1     4  0.60
      P1  H  7997  8009       L1    18  0.95
      P1  H 10752 10764       L1     7  0.39

> <Gold.Chemscore.Hbond.Weighted>
-9.9016

> <Gold.Chemscore.Metal.Weighted>
-0.0000

> <Gold.Chemscore.Lipo.Weighted>
-5.3108

> <Gold.Chemscore.Internal_Hbond.Weighted>
0.0000

> <Gold.Chemscore.DEClash.Weighted>
0.0244

> <Gold.Chemscore.DEInternal.Weighted>
1.8657

> <Gold.Chemscore.Rot.Weighted>
4.9627

> <Gold.Chemscore.Internal.Correction.Weighted>
   9.000000E+99

> <Gold.Protein.RotatedTorsions>
[ 6907 6896 6895 6894 ] final   45.39 input  -60.11 | X-H torsion
[ 7974 7965 7964 7962 ] final  146.18 input  175.53 | X-H torsion
[ 8008 7997 7996 7995 ] final -174.29 input   59.86 | X-H torsion
[ 10167 10162 10161 10158 ] final  165.09 input  -65.29 | X-H torsion
[ 10718 10713 10712 10709 ] final  -93.74 input   66.30 | X-H torsion
[ 10763 10752 10751 10750 ] final  -36.92 input  -60.55 | X-H torsion
[ 11005 11000 10999 10996 ] final  161.61 input  -57.11 | X-H torsion

> <Gold.Protein.ActiveResidues>
 VAL166  LYS551  ARG553  GLY616  TRP617  ASP618  TYR619  PRO620  LYS621  CYS622 
 ASP623  PHE694  ASN695  SER759  ASP760  ASP761  ALA762  ILE779  LEU786  VAL792 
 PHE793  MET794  SER795  GLU796  ALA797  LYS798  CYS799  TRP800  GLU811  SER814 

> <Gold.Protein.RotatedAtoms>
  152.2440  134.8200  160.0455 H   0  0  0  0  0  0  0  0  0  0  0  0  # atno 6907 bound_to 6896
  151.8904  133.3509  159.3804 H   0  0  0  0  0  0  0  0  0  0  0  0  # atno 6908 bound_to 6896
  150.7062  134.4856  159.5535 H   0  0  0  0  0  0  0  0  0  0  0  0  # atno 6909 bound_to 6896
  144.8692  139.5874  143.5895 H   0  0  0  0  0  0  0  0  0  0  0  0  # atno 7974 bound_to 7965
  155.9683  140.1158  157.0835 H   0  0  0  0  0  0  0  0  0  0  0  0  # atno 8008 bound_to 7997
  154.4149  140.1168  156.5339 H   0  0  0  0  0  0  0  0  0  0  0  0  # atno 8009 bound_to 7997
  155.6631  140.3473  155.4792 H   0  0  0  0  0  0  0  0  0  0  0  0  # atno 8010 bound_to 7997
  139.4900  144.4168  151.9234 H   0  0  0  0  0  0  0  0  0  0  0  0  # atno 10167 bound_to 10162
  156.0017  130.5039  150.5821 H   0  0  0  0  0  0  0  0  0  0  0  0  # atno 10718 bound_to 10713
  153.8877  135.6815  153.4762 H   0  0  0  0  0  0  0  0  0  0  0  0  # atno 10763 bound_to 10752
  153.1198  135.4745  154.9174 H   0  0  0  0  0  0  0  0  0  0  0  0  # atno 10764 bound_to 10752
  154.7638  135.3218  154.8280 H   0  0  0  0  0  0  0  0  0  0  0  0  # atno 10765 bound_to 10752
  140.2175  134.8221  157.3186 H   0  0  0  0  0  0  0  0  0  0  0  0  # atno 11005 bound_to 11000
  146.2918  139.7160  142.9155 LP  0  0  0  0  0  0  0  0  0  0  0  0  # atno 17320 bound_to 7965
  145.4163  141.0402  143.2989 LP  0  0  0  0  0  0  0  0  0  0  0  0  # atno 17321 bound_to 7965
  140.3611  144.2971  150.5933 LP  0  0  0  0  0  0  0  0  0  0  0  0  # atno 17342 bound_to 10162
  140.5402  143.2225  151.8098 LP  0  0  0  0  0  0  0  0  0  0  0  0  # atno 17343 bound_to 10162
  157.3700  131.0764  151.1566 LP  0  0  0  0  0  0  0  0  0  0  0  0  # atno 17370 bound_to 10713
  157.2322  130.6530  149.5854 LP  0  0  0  0  0  0  0  0  0  0  0  0  # atno 17371 bound_to 10713
  140.1885  134.4401  155.7730 LP  0  0  0  0  0  0  0  0  0  0  0  0  # atno 17394 bound_to 11000
  141.2224  133.7016  156.7987 LP  0  0  0  0  0  0  0  0  0  0  0  0  # atno 17395 bound_to 11000

$$$$
