AV-unprocessed.smi:2684|AV-procd|sdf|10380|dock2
  -GOLD-   2272014413D 1   1.00000     0.00000
 Structure written by MMmdl.
 44 45  0  0  0  0  0  0  0  0  1 V2000
  151.6453  145.6224  160.0152 C   0  0  0  0  0  0  0  0  0  0  0  0
  151.7144  144.2948  159.3190 C   0  0  0  0  0  0  0  0  0  0  0  0
  152.5269  143.1737  159.6506 C   0  0  0  0  0  0  0  0  0  0  0  0
  152.3582  142.1539  158.8248 N   0  0  0  0  0  0  0  0  0  0  0  0
  151.4260  142.5820  157.9465 N   0  0  0  0  0  0  0  0  0  0  0  0
  150.9903  141.7118  156.8687 C   0  0  0  0  0  0  0  0  0  0  0  0
  151.8218  140.4153  156.7379 C   0  0  2  0  0  0  0  0  0  0  0  0
  151.4027  139.6235  155.4914 C   0  0  0  0  0  0  0  0  0  0  0  0
  151.6129  139.5436  157.8915 N   0  0  0  0  0  0  0  0  0  0  0  0
  152.3219  138.2646  157.7580 C   0  0  0  0  0  0  0  0  0  0  0  0
  153.4516  138.1325  158.7889 C   0  0  0  0  0  0  0  0  0  0  0  0
  154.4894  138.7701  158.6198 O   0  0  0  0  0  0  0  0  0  0  0  0
  153.3075  137.3406  159.8668 N   0  0  0  0  0  0  0  0  0  0  0  0
  154.2547  137.0836  160.9498 C   0  0  0  0  0  0  0  0  0  0  0  0
  154.6122  135.5885  161.0469 C   0  0  0  0  0  0  0  0  0  0  0  0
  155.4741  135.3179  162.2901 C   0  0  0  0  0  0  0  0  0  0  0  0
  154.7890  135.7517  163.4597 O   0  0  0  0  0  0  0  0  0  0  0  0
  154.5365  137.1521  163.4674 C   0  0  0  0  0  0  0  0  0  0  0  0
  153.6359  137.5354  162.2818 C   0  0  0  0  0  0  0  0  0  0  0  0
  151.0234  143.8719  158.2192 C   0  0  0  0  0  0  0  0  0  0  0  0
  151.9510  145.5489  161.0590 H   0  0  0  0  0  0  0  0  0  0  0  0
  150.6346  146.0310  160.0035 H   0  0  0  0  0  0  0  0  0  0  0  0
  152.2955  146.3579  159.5406 H   0  0  0  0  0  0  0  0  0  0  0  0
  153.2344  143.0733  160.4603 H   0  0  0  0  0  0  0  0  0  0  0  0
  149.9353  141.4748  157.0160 H   0  0  0  0  0  0  0  0  0  0  0  0
  151.0485  142.2838  155.9414 H   0  0  0  0  0  0  0  0  0  0  0  0
  152.8796  140.6600  156.6237 H   0  0  0  0  0  0  0  0  0  0  0  0
  151.5528  140.2125  154.5863 H   0  0  0  0  0  0  0  0  0  0  0  0
  150.3498  139.3413  155.5312 H   0  0  0  0  0  0  0  0  0  0  0  0
  151.9902  138.7104  155.3871 H   0  0  0  0  0  0  0  0  0  0  0  0
  150.6214  139.3858  158.0040 H   0  0  0  0  0  0  0  0  0  0  0  0
  151.6225  137.4443  157.9243 H   0  0  0  0  0  0  0  0  0  0  0  0
  152.6879  138.1583  156.7415 H   0  0  0  0  0  0  0  0  0  0  0  0
  152.4207  136.8648  159.9492 H   0  0  0  0  0  0  0  0  0  0  0  0
  155.1593  137.6710  160.7901 H   0  0  0  0  0  0  0  0  0  0  0  0
  153.7001  134.9933  161.1072 H   0  0  0  0  0  0  0  0  0  0  0  0
  155.1419  135.2521  160.1561 H   0  0  0  0  0  0  0  0  0  0  0  0
  155.6791  134.2510  162.3781 H   0  0  0  0  0  0  0  0  0  0  0  0
  156.4387  135.8216  162.2111 H   0  0  0  0  0  0  0  0  0  0  0  0
  154.0498  137.4163  164.4062 H   0  0  0  0  0  0  0  0  0  0  0  0
  155.4775  137.7010  163.4350 H   0  0  0  0  0  0  0  0  0  0  0  0
  153.4683  138.6129  162.2751 H   0  0  0  0  0  0  0  0  0  0  0  0
  152.6585  137.0689  162.4142 H   0  0  0  0  0  0  0  0  0  0  0  0
  150.2855  144.3771  157.6136 H   0  0  0  0  0  0  0  0  0  0  0  0
  1  2  1  0  0  0  0
  1 21  1  0  0  0  0
  1 22  1  0  0  0  0
  1 23  1  0  0  0  0
  2 20  2  0  0  0  0
  2  3  1  0  0  0  0
  3  4  2  0  0  0  0
  3 24  1  0  0  0  0
  4  5  1  0  0  0  0
  5  6  1  0  0  0  0
  5 20  1  0  0  0  0
  6  7  1  0  0  0  0
  6 25  1  0  0  0  0
  6 26  1  0  0  0  0
  7  8  1  0  0  0  0
  7  9  1  0  0  0  0
  7 27  1  0  0  0  0
  8 28  1  0  0  0  0
  8 29  1  0  0  0  0
  8 30  1  0  0  0  0
  9 10  1  0  0  0  0
  9 31  1  0  0  0  0
 10 11  1  0  0  0  0
 10 32  1  0  0  0  0
 10 33  1  0  0  0  0
 11 12  2  0  0  0  0
 11 13  1  0  0  0  0
 13 14  1  0  0  0  0
 13 34  1  0  0  0  0
 14 19  1  0  0  0  0
 14 15  1  0  0  0  0
 14 35  1  0  0  0  0
 15 16  1  0  0  0  0
 15 36  1  0  0  0  0
 15 37  1  0  0  0  0
 16 17  1  0  0  0  0
 16 38  1  0  0  0  0
 16 39  1  0  0  0  0
 17 18  1  0  0  0  0
 18 19  1  0  0  0  0
 18 40  1  0  0  0  0
 18 41  1  0  0  0  0
 19 42  1  0  0  0  0
 19 43  1  0  0  0  0
 20 44  1  0  0  0  0
M  END
> <s_m_source_file>
AV-unprocessed.smi

> <i_m_source_file_index>
2684

> <i_lp_mmshare_version>
43012

> <i_f3d_flags>
0

> <s_epik_input>
W0NIM11jMVtjSF1ubihbY0hdMSlbQ0gyXVtDQEhdKFtDSDNdKVtOSF1bQ0gyXUMoPU8pW05IXVtDSF0yW0NIMl1bQ0gyXU9bQ0gyXVtDSDJdMg==

> <s_epik_cmdline>
J2VwaWtfcHl0aG9uJywgJy1waCcsICc3LjAnLCAnLXRuJywgJzgnLCAnLW1hJywgJzIwMCcsICctbWV0YWxfYmluZGluZycsICctaW1hZScsICc8aW5maWxlLm1hZT4nLCAnLW9tYWUnLCAnPG91dGZpbGUubWFlPic=

> <r_lp_tautomer_probability>
1

> <r_epik_Ionization_Penalty>
0.968507

> <r_epik_Ionization_Penalty_Charging>
0

> <r_epik_Ionization_Penalty_Neutral>
0.968507

> <r_epik_State_Penalty>
1.01412

> <r_epik_Charging_Adjusted_Penalty>
1.01412

> <i_epik_Tot_Q>
0

> <i_epik_Tot_abs_Q>
0

> <r_epik_Metal_State_Penalty>
1.01401

> <b_epik_Metal_Only>
0

> <s_lp_Force_Field>
OPLS_2005

> <r_lp_Energy>
12.1402

> <b_lp_Chiralities_Consistent>
1

> <s_lp_Variant>
AV-unprocessed.smi:2684-3

> <Gold.Version>
5.8.1

> <Gold.Id.Protein>
6NUR|6NUR_protein|mol2

> <Gold.PLP.Fitness>
43.7234

> <Gold.PLP.PLP>
-38.8973

> <Gold.PLP.part.hbond>
-1.0000

> <Gold.PLP.part.metal>
0.0000

> <Gold.PLP.part.buried>
-5.7365

> <Gold.PLP.part.nonpolar>
-32.0842

> <Gold.PLP.part.repulsive>
0.1209

> <Gold.PLP.ligand.clash>
0.0000

> <Gold.PLP.ligand.torsion>
0.6630

> <Gold.PLP.Chemscore.Hbond>
1.0000

> <Gold.PLP.Chemscore.CHOScore>
1.0000

> <Gold.PLP.Chemscore.Metal>
0.0000

> <Gold.Chemscore.Hbonds>
donor molecule, donor type, donor heavy atom, donor atom, acceptor molecule, acceptor atom, score
      P1  H  7997  8008       L1    12  1.00
      L1  C    20    44       P1  8028  1.00
      L1  C    20    44       P1  8029  0.02

> <Gold.PLP.Chemscore.Internal.Correction>
0.1520

> <Gold.Rescore>
     Score         DG    S(hbond)    S(metal)    S(lipo)     H(rot)  DE(clash)    DE(int)     intcor
     15.47     -16.11       0.99        0.00     105.70       1.97       0.02       0.61       ----

> <Gold.Chemscore.Fitness>
15.4730

> <Gold.Chemscore.DG>
-16.1064

> <Gold.Chemscore.ZeroCoef>
-5.4800

> <Gold.Chemscore.Hbond>
0.9917

> <Gold.Chemscore.Metal>
0.0000

> <Gold.Chemscore.Lipo>
105.6957

> <Gold.Chemscore.Internal_Hbond>
0.0000

> <Gold.Chemscore.DEClash>
0.0189

> <Gold.Chemscore.DEInternal>
0.6145

> <Gold.Chemscore.Rot>
1.9736

> <Gold.Chemscore.Internal.Correction>
   9.000000E+99

> <Gold.Chemscore.Hbonds>
donor molecule, donor type, donor heavy atom, donor atom, acceptor molecule, acceptor atom, score
      P1  H  7997  8008       L1    12  1.00

> <Gold.Chemscore.Hbond.Weighted>
-3.3123

> <Gold.Chemscore.Metal.Weighted>
-0.0000

> <Gold.Chemscore.Lipo.Weighted>
-12.3664

> <Gold.Chemscore.Internal_Hbond.Weighted>
0.0000

> <Gold.Chemscore.DEClash.Weighted>
0.0189

> <Gold.Chemscore.DEInternal.Weighted>
0.6145

> <Gold.Chemscore.Rot.Weighted>
5.0523

> <Gold.Chemscore.Internal.Correction.Weighted>
   9.000000E+99

> <Gold.Protein.RotatedTorsions>
[ 6907 6896 6895 6894 ] final  102.06 input  -60.11 | X-H torsion
[ 7974 7965 7964 7962 ] final -131.67 input  175.53 | X-H torsion
[ 8008 7997 7996 7995 ] final -108.25 input   59.86 | X-H torsion
[ 10167 10162 10161 10158 ] final  -86.03 input  -65.29 | X-H torsion
[ 10718 10713 10712 10709 ] final   76.13 input   66.30 | X-H torsion
[ 10763 10752 10751 10750 ] final  -65.61 input  -60.55 | X-H torsion
[ 11005 11000 10999 10996 ] final  165.27 input  -57.11 | X-H torsion

> <Gold.Protein.ActiveResidues>
 VAL166  LYS551  ARG553  GLY616  TRP617  ASP618  TYR619  PRO620  LYS621  CYS622 
 ASP623  PHE694  ASN695  SER759  ASP760  ASP761  ALA762  ILE779  LEU786  VAL792 
 PHE793  MET794  SER795  GLU796  ALA797  LYS798  CYS799  TRP800  GLU811  SER814 

> <Gold.Protein.RotatedAtoms>
  152.5333  134.0032  159.7904 H   0  0  0  0  0  0  0  0  0  0  0  0  # atno 6907 bound_to 6896
  151.0247  133.5836  159.2674 H   0  0  0  0  0  0  0  0  0  0  0  0  # atno 6908 bound_to 6896
  151.2863  135.0735  159.9241 H   0  0  0  0  0  0  0  0  0  0  0  0  # atno 6909 bound_to 6896
  144.9357  140.7181  143.4878 H   0  0  0  0  0  0  0  0  0  0  0  0  # atno 7974 bound_to 7965
  154.9415  140.0402  157.2099 H   0  0  0  0  0  0  0  0  0  0  0  0  # atno 8008 bound_to 7997
  154.8065  140.2860  155.5862 H   0  0  0  0  0  0  0  0  0  0  0  0  # atno 8009 bound_to 7997
  156.2967  140.2545  156.2944 H   0  0  0  0  0  0  0  0  0  0  0  0  # atno 8010 bound_to 7997
  140.3981  143.2675  151.9178 H   0  0  0  0  0  0  0  0  0  0  0  0  # atno 10167 bound_to 10162
  157.6661  130.9760  150.1453 H   0  0  0  0  0  0  0  0  0  0  0  0  # atno 10718 bound_to 10713
  154.3475  135.6143  153.5626 H   0  0  0  0  0  0  0  0  0  0  0  0  # atno 10763 bound_to 10752
  152.9800  135.5784  154.4782 H   0  0  0  0  0  0  0  0  0  0  0  0  # atno 10764 bound_to 10752
  154.4497  135.2852  155.1767 H   0  0  0  0  0  0  0  0  0  0  0  0  # atno 10765 bound_to 10752
  140.2544  134.7952  157.3532 H   0  0  0  0  0  0  0  0  0  0  0  0  # atno 11005 bound_to 11000
  145.3071  139.1831  143.4659 LP  0  0  0  0  0  0  0  0  0  0  0  0  # atno 17320 bound_to 7965
  146.3265  140.3070  142.8624 LP  0  0  0  0  0  0  0  0  0  0  0  0  # atno 17321 bound_to 7965
  139.4786  144.5661  151.8163 LP  0  0  0  0  0  0  0  0  0  0  0  0  # atno 17342 bound_to 10162
  140.4769  144.1506  150.5926 LP  0  0  0  0  0  0  0  0  0  0  0  0  # atno 17343 bound_to 10162
  156.2265  130.3678  149.8494 LP  0  0  0  0  0  0  0  0  0  0  0  0  # atno 17370 bound_to 10713
  156.6332  130.8674  151.3499 LP  0  0  0  0  0  0  0  0  0  0  0  0  # atno 17371 bound_to 10713
  140.1526  134.4830  155.7950 LP  0  0  0  0  0  0  0  0  0  0  0  0  # atno 17394 bound_to 11000
  141.2198  133.6868  156.7405 LP  0  0  0  0  0  0  0  0  0  0  0  0  # atno 17395 bound_to 11000

$$$$
