AV-unprocessed.smi:446|AV-procd|sdf|2596|dock2
  -GOLD-   2262022593D 1   1.00000     0.00000
 Structure written by MMmdl.
 36 38  0  0  0  0  0  0  0  0  2 V2000
  151.9066  137.7517  154.7071 C   0  0  0  0  0  0  0  0  0  0  0  0
  150.7124  138.6336  154.5602 C   0  0  0  0  0  0  0  0  0  0  0  0
  149.5566  138.3179  153.9108 N   0  3  0  0  0  0  0  0  0  0  0  0
  148.6648  139.3890  153.9863 C   0  0  0  0  0  0  0  0  0  0  0  0
  147.3760  139.5380  153.4834 C   0  0  0  0  0  0  0  0  0  0  0  0
  146.7350  140.7679  153.7392 C   0  0  0  0  0  0  0  0  0  0  0  0
  147.3753  141.7918  154.4670 C   0  0  0  0  0  0  0  0  0  0  0  0
  148.6827  141.6296  154.9708 C   0  0  0  0  0  0  0  0  0  0  0  0
  149.3090  140.4092  154.7167 C   0  0  0  0  0  0  0  0  0  0  0  0
  150.5697  139.8982  155.0492 N   0  0  0  0  0  0  0  0  0  0  0  0
  151.5111  140.7208  155.8260 C   0  0  0  0  0  0  0  0  0  0  0  0
  151.8165  140.1350  157.2193 C   0  0  1  0  0  0  0  0  0  0  0  0
  152.9575  139.3006  157.1598 O   0  0  0  0  0  0  0  0  0  0  0  0
  151.9630  141.2368  158.2569 C   0  0  0  0  0  0  0  0  0  0  0  0
  153.0971  141.2876  159.0978 C   0  0  0  0  0  0  0  0  0  0  0  0
  153.2302  142.3181  160.0486 C   0  0  0  0  0  0  0  0  0  0  0  0
  152.2323  143.3048  160.1632 C   0  0  0  0  0  0  0  0  0  0  0  0
  152.3609  144.2955  161.0770 F   0  0  0  0  0  0  0  0  0  0  0  0
  151.1016  143.2613  159.3253 C   0  0  0  0  0  0  0  0  0  0  0  0
  150.9676  142.2309  158.3742 C   0  0  0  0  0  0  0  0  0  0  0  0
  151.7443  136.7983  154.2038 H   0  0  0  0  0  0  0  0  0  0  0  0
  152.1023  137.5576  155.7619 H   0  0  0  0  0  0  0  0  0  0  0  0
  152.7844  138.2291  154.2714 H   0  0  0  0  0  0  0  0  0  0  0  0
  146.8842  138.7556  152.9241 H   0  0  0  0  0  0  0  0  0  0  0  0
  145.7329  140.9294  153.3690 H   0  0  0  0  0  0  0  0  0  0  0  0
  146.8540  142.7218  154.6420 H   0  0  0  0  0  0  0  0  0  0  0  0
  149.1651  142.4240  155.5205 H   0  0  0  0  0  0  0  0  0  0  0  0
  152.4239  140.8675  155.2485 H   0  0  0  0  0  0  0  0  0  0  0  0
  151.0614  141.7086  155.9323 H   0  0  0  0  0  0  0  0  0  0  0  0
  150.9847  139.4964  157.5189 H   0  0  0  0  0  0  0  0  0  0  0  0
  152.9107  138.6801  157.8713 H   0  0  0  0  0  0  0  0  0  0  0  0
  153.8707  140.5382  159.0153 H   0  0  0  0  0  0  0  0  0  0  0  0
  154.0992  142.3528  160.6889 H   0  0  0  0  0  0  0  0  0  0  0  0
  150.3372  144.0196  159.4110 H   0  0  0  0  0  0  0  0  0  0  0  0
  150.0977  142.2090  157.7340 H   0  0  0  0  0  0  0  0  0  0  0  0
  149.3918  137.4322  153.4501 H   0  0  0  0  0  0  0  0  0  0  0  0
  1  2  1  0  0  0  0
  1 21  1  0  0  0  0
  1 22  1  0  0  0  0
  1 23  1  0  0  0  0
  2 10  1  0  0  0  0
  2  3  2  0  0  0  0
  3  4  1  0  0  0  0
  3 36  1  0  0  0  0
  4  9  2  0  0  0  0
  4  5  1  0  0  0  0
  5  6  2  0  0  0  0
  5 24  1  0  0  0  0
  6  7  1  0  0  0  0
  6 25  1  0  0  0  0
  7  8  2  0  0  0  0
  7 26  1  0  0  0  0
  8  9  1  0  0  0  0
  8 27  1  0  0  0  0
  9 10  1  0  0  0  0
 10 11  1  0  0  0  0
 11 12  1  0  0  0  0
 11 28  1  0  0  0  0
 11 29  1  0  0  0  0
 12 13  1  0  0  0  0
 12 14  1  0  0  0  0
 12 30  1  0  0  0  0
 13 31  1  0  0  0  0
 14 20  1  0  0  0  0
 14 15  2  0  0  0  0
 15 16  1  0  0  0  0
 15 32  1  0  0  0  0
 16 17  2  0  0  0  0
 16 33  1  0  0  0  0
 17 18  1  0  0  0  0
 17 19  1  0  0  0  0
 19 20  2  0  0  0  0
 19 34  1  0  0  0  0
 20 35  1  0  0  0  0
M  CHG  1   3   1
M  END
> <s_m_source_file>
AV-unprocessed.smi

> <i_m_source_file_index>
446

> <i_lp_mmshare_version>
43012

> <i_f3d_flags>
0

> <s_epik_input>
W2NIXTFbY0hdW2NIXVtjSF1jKGMxMiluKGMobjIpW0NIM10pW0NIMl1bQ0BIXShbT0hdKWMzW2NIXVtjSF1jKEYpW2NIXVtjSF0z

> <s_epik_cmdline>
J2VwaWtfcHl0aG9uJywgJy1waCcsICc3LjAnLCAnLXRuJywgJzgnLCAnLW1hJywgJzIwMCcsICctbWV0YWxfYmluZGluZycsICctaW1hZScsICc8aW5maWxlLm1hZT4nLCAnLW9tYWUnLCAnPG91dGZpbGUubWFlPic=

> <r_epik_Ionization_Penalty>
0.963869

> <r_epik_Ionization_Penalty_Charging>
0.963868

> <r_epik_Ionization_Penalty_Neutral>
1.79538e-06

> <r_epik_State_Penalty>
1.00924

> <r_epik_Charging_Adjusted_Penalty>
1.9731

> <i_epik_Tot_Q>
1

> <i_epik_Tot_abs_Q>
1

> <r_epik_Metal_State_Penalty>
4.98304

> <b_epik_Metal_Only>
0

> <s_lp_Force_Field>
OPLS_2005

> <r_lp_Energy>
14.9475

> <b_lp_Chiralities_Consistent>
1

> <s_lp_Variant>
AV-unprocessed.smi:446-4

> <Gold.Version>
5.8.1

> <Gold.Id.Protein>
6NUR|6NUR_protein|mol2

> <Gold.PLP.Fitness>
54.0408

> <Gold.PLP.PLP>
-46.1814

> <Gold.PLP.part.hbond>
-2.1893

> <Gold.PLP.part.metal>
0.0000

> <Gold.PLP.part.buried>
0.6712

> <Gold.PLP.part.nonpolar>
-44.0535

> <Gold.PLP.part.repulsive>
0.0412

> <Gold.PLP.ligand.clash>
0.0000

> <Gold.PLP.ligand.torsion>
0.5841

> <Gold.PLP.Chemscore.Hbond>
3.0000

> <Gold.PLP.Chemscore.CHOScore>
0.0000

> <Gold.PLP.Chemscore.Metal>
0.0000

> <Gold.Chemscore.Hbonds>
donor molecule, donor type, donor heavy atom, donor atom, acceptor molecule, acceptor atom, score
      L1  H     3    36       P1  7948  2.00
      P1  H  7997  8010       L1    13  1.00

> <Gold.PLP.Chemscore.Internal.Correction>
0.0277

> <Gold.Rescore>
     Score         DG    S(hbond)    S(metal)    S(lipo)     H(rot)  DE(clash)    DE(int)     intcor
     19.57     -20.58       1.81        0.00     117.88       1.85       0.40       0.61       ----

> <Gold.Chemscore.Fitness>
19.5659

> <Gold.Chemscore.DG>
-20.5809

> <Gold.Chemscore.ZeroCoef>
-5.4800

> <Gold.Chemscore.Hbond>
1.8071

> <Gold.Chemscore.Metal>
0.0000

> <Gold.Chemscore.Lipo>
117.8822

> <Gold.Chemscore.Internal_Hbond>
0.0000

> <Gold.Chemscore.DEClash>
0.4003

> <Gold.Chemscore.DEInternal>
0.6146

> <Gold.Chemscore.Rot>
1.8465

> <Gold.Chemscore.Internal.Correction>
   9.000000E+99

> <Gold.Chemscore.Hbonds>
donor molecule, donor type, donor heavy atom, donor atom, acceptor molecule, acceptor atom, score
      L1  H     3    36       P1  7948  0.89
      P1  H  7997  8010       L1    13  0.91

> <Gold.Chemscore.Hbond.Weighted>
-6.0357

> <Gold.Chemscore.Metal.Weighted>
-0.0000

> <Gold.Chemscore.Lipo.Weighted>
-13.7922

> <Gold.Chemscore.Internal_Hbond.Weighted>
0.0000

> <Gold.Chemscore.DEClash.Weighted>
0.4003

> <Gold.Chemscore.DEInternal.Weighted>
0.6146

> <Gold.Chemscore.Rot.Weighted>
4.7270

> <Gold.Chemscore.Internal.Correction.Weighted>
   9.000000E+99

> <Gold.Protein.RotatedTorsions>
[ 6907 6896 6895 6894 ] final  101.66 input  -60.11 | X-H torsion
[ 7974 7965 7964 7962 ] final   53.37 input  175.53 | X-H torsion
[ 8008 7997 7996 7995 ] final   48.39 input   59.86 | X-H torsion
[ 10167 10162 10161 10158 ] final  -57.53 input  -65.29 | X-H torsion
[ 10718 10713 10712 10709 ] final  -73.91 input   66.30 | X-H torsion
[ 10763 10752 10751 10750 ] final  138.88 input  -60.55 | X-H torsion
[ 11005 11000 10999 10996 ] final -107.10 input  -57.11 | X-H torsion

> <Gold.Protein.ActiveResidues>
 VAL166  LYS551  ARG553  GLY616  TRP617  ASP618  TYR619  PRO620  LYS621  CYS622 
 ASP623  PHE694  ASN695  SER759  ASP760  ASP761  ALA762  ILE779  LEU786  VAL792 
 PHE793  MET794  SER795  GLU796  ALA797  LYS798  CYS799  TRP800  GLU811  SER814 

> <Gold.Protein.RotatedAtoms>
  152.5344  134.0093  159.7930 H   0  0  0  0  0  0  0  0  0  0  0  0  # atno 6907 bound_to 6896
  151.0298  133.5793  159.2669 H   0  0  0  0  0  0  0  0  0  0  0  0  # atno 6908 bound_to 6896
  151.2801  135.0718  159.9220 H   0  0  0  0  0  0  0  0  0  0  0  0  # atno 6909 bound_to 6896
  145.9718  139.4156  143.0185 H   0  0  0  0  0  0  0  0  0  0  0  0  # atno 7974 bound_to 7965
  155.3848  140.3430  155.4248 H   0  0  0  0  0  0  0  0  0  0  0  0  # atno 8008 bound_to 7997
  156.1590  140.1595  156.8677 H   0  0  0  0  0  0  0  0  0  0  0  0  # atno 8009 bound_to 7997
  154.5122  140.0787  156.7994 H   0  0  0  0  0  0  0  0  0  0  0  0  # atno 8010 bound_to 7997
  140.6252  143.2435  151.5380 H   0  0  0  0  0  0  0  0  0  0  0  0  # atno 10167 bound_to 10162
  156.0262  130.4405  150.2813 H   0  0  0  0  0  0  0  0  0  0  0  0  # atno 10718 bound_to 10713
  153.8969  135.3026  155.3448 H   0  0  0  0  0  0  0  0  0  0  0  0  # atno 10763 bound_to 10752
  154.7689  135.4896  153.9613 H   0  0  0  0  0  0  0  0  0  0  0  0  # atno 10764 bound_to 10752
  153.1266  135.6794  153.9346 H   0  0  0  0  0  0  0  0  0  0  0  0  # atno 10765 bound_to 10752
  141.0971  133.8951  157.1935 H   0  0  0  0  0  0  0  0  0  0  0  0  # atno 11005 bound_to 11000
  145.7895  140.9821  143.1056 LP  0  0  0  0  0  0  0  0  0  0  0  0  # atno 17320 bound_to 7965
  144.6839  139.9665  143.7481 LP  0  0  0  0  0  0  0  0  0  0  0  0  # atno 17321 bound_to 7965
  139.5474  144.2485  152.1467 LP  0  0  0  0  0  0  0  0  0  0  0  0  # atno 17342 bound_to 10162
  140.1715  144.4931  150.6577 LP  0  0  0  0  0  0  0  0  0  0  0  0  # atno 17343 bound_to 10162
  157.0917  131.0171  151.3119 LP  0  0  0  0  0  0  0  0  0  0  0  0  # atno 17370 bound_to 10713
  157.4849  130.7787  149.7450 LP  0  0  0  0  0  0  0  0  0  0  0  0  # atno 17371 bound_to 10713
  139.9811  135.0098  156.9752 LP  0  0  0  0  0  0  0  0  0  0  0  0  # atno 17394 bound_to 11000
  140.5113  134.0999  155.7271 LP  0  0  0  0  0  0  0  0  0  0  0  0  # atno 17395 bound_to 11000

$$$$
