AV-unprocessed.smi:3089|AV-procd|sdf|11773|dock1
  -GOLD-   2272017153D 1   1.00000     0.00000
 Structure written by MMmdl.
 24 24  0  0  0  0  0  0  0  0  1 V2000
  152.1212  142.0637  158.3852 C   0  0  0  0  0  0  0  0  0  0  0  0
  151.5616  141.3613  157.2505 N   0  0  0  0  0  0  0  0  0  0  0  0
  150.4110  141.6425  156.5468 C   0  0  0  0  0  0  0  0  0  0  0  0
  150.2859  140.7017  155.5618 C   0  0  0  0  0  0  0  0  0  0  0  0
  149.1940  140.5644  154.5214 C   0  0  2  0  0  0  0  0  0  0  0  0
  148.6670  139.1187  154.5085 C   0  0  0  0  0  0  0  0  0  0  0  0
  149.6678  140.8021  153.2095 O   0  0  0  0  0  0  0  0  0  0  0  0
  148.0297  141.5490  154.7704 C   0  0  0  0  0  0  0  0  0  0  0  0
  148.2098  142.8561  154.1156 N   0  0  0  0  0  0  0  0  0  0  0  0
  151.4369  139.8812  155.7521 C   0  0  0  0  0  0  0  0  0  0  0  0
  152.1953  140.2766  156.7617 N   0  0  0  0  0  0  0  0  0  0  0  0
  151.4815  142.9032  158.6578 H   0  0  0  0  0  0  0  0  0  0  0  0
  153.1130  142.4408  158.1341 H   0  0  0  0  0  0  0  0  0  0  0  0
  152.1986  141.3868  159.2366 H   0  0  0  0  0  0  0  0  0  0  0  0
  149.7789  142.4803  156.8020 H   0  0  0  0  0  0  0  0  0  0  0  0
  148.2395  138.8425  155.4731 H   0  0  0  0  0  0  0  0  0  0  0  0
  149.4641  138.4073  154.2882 H   0  0  0  0  0  0  0  0  0  0  0  0
  147.8876  138.9835  153.7574 H   0  0  0  0  0  0  0  0  0  0  0  0
  149.3672  140.1018  152.6508 H   0  0  0  0  0  0  0  0  0  0  0  0
  147.0889  141.0997  154.4504 H   0  0  0  0  0  0  0  0  0  0  0  0
  147.9297  141.7140  155.8437 H   0  0  0  0  0  0  0  0  0  0  0  0
  148.7152  143.4928  154.7303 H   0  0  0  0  0  0  0  0  0  0  0  0
  148.7634  142.7569  153.2660 H   0  0  0  0  0  0  0  0  0  0  0  0
  151.7414  139.0117  155.1881 H   0  0  0  0  0  0  0  0  0  0  0  0
  1  2  1  0  0  0  0
  1 12  1  0  0  0  0
  1 13  1  0  0  0  0
  1 14  1  0  0  0  0
  2 11  1  0  0  0  0
  2  3  1  0  0  0  0
  3  4  2  0  0  0  0
  3 15  1  0  0  0  0
  4  5  1  0  0  0  0
  4 10  1  0  0  0  0
  5  6  1  0  0  0  0
  5  7  1  0  0  0  0
  5  8  1  0  0  0  0
  6 16  1  0  0  0  0
  6 17  1  0  0  0  0
  6 18  1  0  0  0  0
  7 19  1  0  0  0  0
  8  9  1  0  0  0  0
  8 20  1  0  0  0  0
  8 21  1  0  0  0  0
  9 22  1  0  0  0  0
  9 23  1  0  0  0  0
 10 11  2  0  0  0  0
 10 24  1  0  0  0  0
M  END
> <s_m_source_file>
AV-unprocessed.smi

> <i_m_source_file_index>
3089

> <i_lp_mmshare_version>
43012

> <i_f3d_flags>
0

> <s_epik_input>
W0NIM11uMVtjSF1jKFtjSF1uMSlbQ0BAXShbQ0gzXSkoW09IXSlbQ0gyXVtOSDJd

> <s_epik_cmdline>
J2VwaWtfcHl0aG9uJywgJy1waCcsICc3LjAnLCAnLXRuJywgJzgnLCAnLW1hJywgJzIwMCcsICctbWV0YWxfYmluZGluZycsICctaW1hZScsICc8aW5maWxlLm1hZT4nLCAnLW9tYWUnLCAnPG91dGZpbGUubWFlPic=

> <r_lp_tautomer_probability>
1

> <r_epik_Ionization_Penalty>
2.22427

> <r_epik_Ionization_Penalty_Charging>
0

> <r_epik_Ionization_Penalty_Neutral>
2.22427

> <r_epik_State_Penalty>
2.36938

> <r_epik_Charging_Adjusted_Penalty>
2.36938

> <i_epik_Tot_Q>
0

> <i_epik_Tot_abs_Q>
0

> <r_epik_Metal_State_Penalty>
2.36933

> <b_epik_Metal_Only>
0

> <s_lp_Force_Field>
OPLS_2005

> <r_lp_Energy>
8.30456

> <b_lp_Chiralities_Consistent>
1

> <s_lp_Variant>
AV-unprocessed.smi:3089-4

> <Gold.Version>
5.8.1

> <Gold.Id.Protein>
6NUR|6NUR_protein|mol2

> <Gold.PLP.Fitness>
34.2722

> <Gold.PLP.PLP>
-23.0872

> <Gold.PLP.part.hbond>
-5.1726

> <Gold.PLP.part.metal>
0.0000

> <Gold.PLP.part.buried>
0.3873

> <Gold.PLP.part.nonpolar>
-15.4684

> <Gold.PLP.part.repulsive>
0.0000

> <Gold.PLP.ligand.clash>
0.0000

> <Gold.PLP.ligand.torsion>
0.7114

> <Gold.PLP.Chemscore.Hbond>
3.4489

> <Gold.PLP.Chemscore.CHOScore>
0.7468

> <Gold.PLP.Chemscore.Metal>
0.0000

> <Gold.Chemscore.Hbonds>
donor molecule, donor type, donor heavy atom, donor atom, acceptor molecule, acceptor atom, score
      L1  H     7    19       P1  7957  0.46
      L1  H     9    22       P1  8028  0.98
      P1  H  7989  7998       L1     7  0.22
      P1  H  7997  8009       L1    11  0.67
      P1  H  8011  8017       L1     7  1.00
      L1  C     3    15       P1  8028  0.66

> <Gold.PLP.Chemscore.Internal.Correction>
0.0209

> <Gold.Rescore>
     Score         DG    S(hbond)    S(metal)    S(lipo)     H(rot)  DE(clash)    DE(int)     intcor
     16.42     -17.31       3.29        0.00      47.53       1.84       0.26       0.63       ----

> <Gold.Chemscore.Fitness>
16.4197

> <Gold.Chemscore.DG>
-17.3078

> <Gold.Chemscore.ZeroCoef>
-5.4800

> <Gold.Chemscore.Hbond>
3.2856

> <Gold.Chemscore.Metal>
0.0000

> <Gold.Chemscore.Lipo>
47.5289

> <Gold.Chemscore.Internal_Hbond>
0.0000

> <Gold.Chemscore.DEClash>
0.2620

> <Gold.Chemscore.DEInternal>
0.6260

> <Gold.Chemscore.Rot>
1.8386

> <Gold.Chemscore.Internal.Correction>
   9.000000E+99

> <Gold.Chemscore.Hbonds>
donor molecule, donor type, donor heavy atom, donor atom, acceptor molecule, acceptor atom, score
      L1  H     7    19       P1  7957  0.43
      L1  H     9    22       P1  8028  0.89
      P1  H  7989  7998       L1     7  0.08
      P1  H  7997  8009       L1    11  0.59
      P1  H  8011  8017       L1     7  0.85

> <Gold.Chemscore.Hbond.Weighted>
-10.9739

> <Gold.Chemscore.Metal.Weighted>
-0.0000

> <Gold.Chemscore.Lipo.Weighted>
-5.5609

> <Gold.Chemscore.Internal_Hbond.Weighted>
0.0000

> <Gold.Chemscore.DEClash.Weighted>
0.2620

> <Gold.Chemscore.DEInternal.Weighted>
0.6260

> <Gold.Chemscore.Rot.Weighted>
4.7069

> <Gold.Chemscore.Internal.Correction.Weighted>
   9.000000E+99

> <Gold.Protein.RotatedTorsions>
[ 6907 6896 6895 6894 ] final   -0.10 input  -60.11 | X-H torsion
[ 7974 7965 7964 7962 ] final -104.21 input  175.53 | X-H torsion
[ 8008 7997 7996 7995 ] final -167.66 input   59.86 | X-H torsion
[ 10167 10162 10161 10158 ] final   72.13 input  -65.29 | X-H torsion
[ 10718 10713 10712 10709 ] final  -28.78 input   66.30 | X-H torsion
[ 10763 10752 10751 10750 ] final  130.89 input  -60.55 | X-H torsion
[ 11005 11000 10999 10996 ] final   96.88 input  -57.11 | X-H torsion

> <Gold.Protein.ActiveResidues>
 VAL166  LYS551  ARG553  GLY616  TRP617  ASP618  TYR619  PRO620  LYS621  CYS622 
 ASP623  PHE694  ASN695  SER759  ASP760  ASP761  ALA762  ILE779  LEU786  VAL792 
 PHE793  MET794  SER795  GLU796  ALA797  LYS798  CYS799  TRP800  GLU811  SER814 

> <Gold.Protein.RotatedAtoms>
  151.5678  135.1063  159.9987 H   0  0  0  0  0  0  0  0  0  0  0  0  # atno 6907 bound_to 6896
  152.4415  133.7453  159.6674 H   0  0  0  0  0  0  0  0  0  0  0  0  # atno 6908 bound_to 6896
  150.8322  133.8003  159.3117 H   0  0  0  0  0  0  0  0  0  0  0  0  # atno 6909 bound_to 6896
  145.2460  140.9222  143.3122 H   0  0  0  0  0  0  0  0  0  0  0  0  # atno 7974 bound_to 7965
  155.8807  140.1008  157.1487 H   0  0  0  0  0  0  0  0  0  0  0  0  # atno 8008 bound_to 7997
  154.4005  140.1329  156.4256 H   0  0  0  0  0  0  0  0  0  0  0  0  # atno 8009 bound_to 7997
  155.7646  140.3462  155.5218 H   0  0  0  0  0  0  0  0  0  0  0  0  # atno 8010 bound_to 7997
  140.0387  144.5407  150.7451 H   0  0  0  0  0  0  0  0  0  0  0  0  # atno 10167 bound_to 10162
  156.4208  130.4426  149.7185 H   0  0  0  0  0  0  0  0  0  0  0  0  # atno 10718 bound_to 10713
  153.7654  135.3190  155.3344 H   0  0  0  0  0  0  0  0  0  0  0  0  # atno 10763 bound_to 10752
  154.8215  135.4600  154.0797 H   0  0  0  0  0  0  0  0  0  0  0  0  # atno 10764 bound_to 10752
  153.2040  135.6926  153.8280 H   0  0  0  0  0  0  0  0  0  0  0  0  # atno 10765 bound_to 10752
  139.8779  134.8973  156.4225 H   0  0  0  0  0  0  0  0  0  0  0  0  # atno 11005 bound_to 11000
  144.9546  139.4046  143.6386 LP  0  0  0  0  0  0  0  0  0  0  0  0  # atno 17320 bound_to 7965
  146.3315  139.8569  142.8863 LP  0  0  0  0  0  0  0  0  0  0  0  0  # atno 17321 bound_to 7965
  140.7270  143.2647  151.4086 LP  0  0  0  0  0  0  0  0  0  0  0  0  # atno 17342 bound_to 10162
  139.6028  144.1259  152.2217 LP  0  0  0  0  0  0  0  0  0  0  0  0  # atno 17343 bound_to 10162
  156.4127  130.7730  151.2743 LP  0  0  0  0  0  0  0  0  0  0  0  0  # atno 17370 bound_to 10713
  157.7508  131.0206  150.3718 LP  0  0  0  0  0  0  0  0  0  0  0  0  # atno 17371 bound_to 10713
  140.9124  133.7702  155.9807 LP  0  0  0  0  0  0  0  0  0  0  0  0  # atno 17394 bound_to 11000
  140.8532  134.2929  157.5266 LP  0  0  0  0  0  0  0  0  0  0  0  0  # atno 17395 bound_to 11000

$$$$
