AV-unprocessed.smi:35|AV-procd|sdf|256|dock1
  -GOLD-   2262016 13D 1   1.00000     0.00000
 Structure written by MMmdl.
 29 30  0  0  0  0  0  0  0  0  1 V2000
  149.4828  135.4227  158.5475 O   0  0  0  0  0  0  0  0  0  0  0  0
  149.7154  136.4053  157.8467 C   0  0  0  0  0  0  0  0  0  0  0  0
  150.0511  137.6278  158.4332 N   0  0  0  0  0  0  0  0  0  0  0  0
  150.3262  138.8105  157.7441 C   0  0  0  0  0  0  0  0  0  0  0  0
  150.6583  139.8160  158.3700 O   0  0  0  0  0  0  0  0  0  0  0  0
  150.2136  138.7851  156.3335 N   0  0  0  0  0  0  0  0  0  0  0  0
  150.5440  140.0438  155.5452 C   0  0  1  0  0  0  0  0  0  0  0  0
  150.3660  139.7965  154.1776 O   0  0  0  0  0  0  0  0  0  0  0  0
  149.1690  140.3955  153.6834 C   0  0  1  0  0  0  0  0  0  0  0  0
  147.9622  139.4418  153.8477 C   0  0  0  0  0  0  0  0  0  0  0  0
  147.9365  138.5110  152.7867 O   0  0  0  0  0  0  0  0  0  0  0  0
  149.1078  141.6746  154.5248 C   0  0  1  0  0  0  0  0  0  0  0  0
  147.8104  142.2334  154.5973 O   0  0  0  0  0  0  0  0  0  0  0  0
  149.6091  141.2291  155.8925 C   0  0  2  0  0  0  0  0  0  0  0  0
  150.3073  142.2952  156.5057 O   0  0  0  0  0  0  0  0  0  0  0  0
  149.9458  137.5711  155.7073 C   0  0  0  0  0  0  0  0  0  0  0  0
  149.6913  136.4301  156.3894 C   0  0  0  0  0  0  0  0  0  0  0  0
  149.3131  134.8164  155.3043 Br  0  0  0  0  0  0  0  0  0  0  0  0
  150.1131  137.6540  159.4407 H   0  0  0  0  0  0  0  0  0  0  0  0
  151.6007  140.2262  155.7495 H   0  0  0  0  0  0  0  0  0  0  0  0
  149.2867  140.6500  152.6291 H   0  0  0  0  0  0  0  0  0  0  0  0
  147.9580  138.9292  154.8083 H   0  0  0  0  0  0  0  0  0  0  0  0
  147.0263  139.9967  153.7881 H   0  0  0  0  0  0  0  0  0  0  0  0
  148.5092  138.8204  152.1016 H   0  0  0  0  0  0  0  0  0  0  0  0
  149.7905  142.4079  154.0914 H   0  0  0  0  0  0  0  0  0  0  0  0
  147.8602  143.0366  155.0930 H   0  0  0  0  0  0  0  0  0  0  0  0
  148.7790  140.8902  156.5148 H   0  0  0  0  0  0  0  0  0  0  0  0
  149.8122  143.0899  156.3730 H   0  0  0  0  0  0  0  0  0  0  0  0
  149.9355  137.5054  154.6301 H   0  0  0  0  0  0  0  0  0  0  0  0
  1  2  2  0  0  0  0
  2 17  1  0  0  0  0
  2  3  1  0  0  0  0
  3 19  1  0  0  0  0
  3  4  1  0  0  0  0
  4  5  2  0  0  0  0
  4  6  1  0  0  0  0
  6  7  1  0  0  0  0
  6 16  1  0  0  0  0
  7 14  1  0  0  0  0
  7  8  1  0  0  0  0
  7 20  1  0  0  0  0
  8  9  1  0  0  0  0
  9 10  1  0  0  0  0
  9 12  1  0  0  0  0
  9 21  1  0  0  0  0
 10 11  1  0  0  0  0
 10 22  1  0  0  0  0
 10 23  1  0  0  0  0
 11 24  1  0  0  0  0
 12 13  1  0  0  0  0
 12 14  1  0  0  0  0
 12 25  1  0  0  0  0
 13 26  1  0  0  0  0
 14 15  1  0  0  0  0
 14 27  1  0  0  0  0
 15 28  1  0  0  0  0
 16 17  2  0  0  0  0
 16 29  1  0  0  0  0
 17 18  1  0  0  0  0
M  END
> <s_m_source_file>
AV-unprocessed.smi

> <i_m_source_file_index>
35

> <i_lp_mmshare_version>
43012

> <i_f3d_flags>
0

> <s_epik_input>
Tz1jMVtuSF1jKD1PKW4oW2NIXWMxQnIpW0NAQEhdMk9bQ0BASF0oW0NIMl1bT0hdKVtDQEBIXShbT0hdKVtDQEhdMltPSF0=

> <s_epik_cmdline>
J2VwaWtfcHl0aG9uJywgJy1waCcsICc3LjAnLCAnLXRuJywgJzgnLCAnLW1hJywgJzIwMCcsICctbWV0YWxfYmluZGluZycsICctaW1hZScsICc8aW5maWxlLm1hZT4nLCAnLW9tYWUnLCAnPG91dGZpbGUubWFlPic=

> <r_lp_tautomer_probability>
0.999537

> <r_epik_Ionization_Penalty>
0.10812

> <r_epik_Ionization_Penalty_Charging>
0.108119

> <r_epik_Ionization_Penalty_Neutral>
4.93006e-07

> <r_epik_State_Penalty>
0.0979238

> <r_epik_Charging_Adjusted_Penalty>
0.206043

> <i_epik_Tot_Q>
0

> <i_epik_Tot_abs_Q>
0

> <r_epik_Metal_State_Penalty>
3.07911

> <b_epik_Metal_Only>
0

> <s_epik_Chemistry_Notes>
This compound contains an acetal/aminal-like group ( X-CH(R)-Y where X, Y are N, S, or O) that may be acid/base labile, releasing an aldehyde.

> <s_lp_Force_Field>
OPLS_2005

> <r_lp_Energy>
30.5173

> <b_lp_Chiralities_Consistent>
1

> <s_lp_Variant>
AV-unprocessed.smi:35-10

> <Gold.Version>
5.8.1

> <Gold.Id.Protein>
6NUR|6NUR_protein|mol2

> <Gold.PLP.Fitness>
36.0014

> <Gold.PLP.PLP>
-21.3649

> <Gold.PLP.part.hbond>
-6.0000

> <Gold.PLP.part.metal>
0.0000

> <Gold.PLP.part.buried>
1.2720

> <Gold.PLP.part.nonpolar>
-16.1535

> <Gold.PLP.part.repulsive>
0.2916

> <Gold.PLP.ligand.clash>
0.0000

> <Gold.PLP.ligand.torsion>
0.2146

> <Gold.PLP.Chemscore.Hbond>
5.0000

> <Gold.PLP.Chemscore.CHOScore>
0.0000

> <Gold.PLP.Chemscore.Metal>
0.0000

> <Gold.Chemscore.Hbonds>
donor molecule, donor type, donor heavy atom, donor atom, acceptor molecule, acceptor atom, score
      L1  H    11    24       P1  7957  1.00
      L1  H    13    26       P1  8028  1.00
      L1  H    15    28       P1  8028  1.00
      P1  H  6896  6907       L1     1  1.00
      P1  H  7989  7998       L1     8  1.00

> <Gold.PLP.Chemscore.Internal.Correction>
0.0657

> <Gold.Rescore>
     Score         DG    S(hbond)    S(metal)    S(lipo)     H(rot)  DE(clash)    DE(int)     intcor
     11.48     -13.63       3.91        0.00      38.43       3.67       1.88       0.27       ----

> <Gold.Chemscore.Fitness>
11.4842

> <Gold.Chemscore.DG>
-13.6276

> <Gold.Chemscore.ZeroCoef>
-5.4800

> <Gold.Chemscore.Hbond>
3.9063

> <Gold.Chemscore.Metal>
0.0000

> <Gold.Chemscore.Lipo>
38.4260

> <Gold.Chemscore.Internal_Hbond>
0.0000

> <Gold.Chemscore.DEClash>
1.8780

> <Gold.Chemscore.DEInternal>
0.2653

> <Gold.Chemscore.Rot>
3.6701

> <Gold.Chemscore.Internal.Correction>
   9.000000E+99

> <Gold.Chemscore.Hbonds>
donor molecule, donor type, donor heavy atom, donor atom, acceptor molecule, acceptor atom, score
      L1  H    11    24       P1  7957  0.92
      L1  H    13    26       P1  8028  0.71
      L1  H    15    28       P1  8028  0.96
      P1  H  6896  6907       L1     1  0.96
      P1  H  7989  7998       L1     8  0.10

> <Gold.Chemscore.Hbond.Weighted>
-13.0472

> <Gold.Chemscore.Metal.Weighted>
-0.0000

> <Gold.Chemscore.Lipo.Weighted>
-4.4958

> <Gold.Chemscore.Internal_Hbond.Weighted>
0.0000

> <Gold.Chemscore.DEClash.Weighted>
1.8780

> <Gold.Chemscore.DEInternal.Weighted>
0.2653

> <Gold.Chemscore.Rot.Weighted>
9.3955

> <Gold.Chemscore.Internal.Correction.Weighted>
   9.000000E+99

> <Gold.Protein.RotatedTorsions>
[ 6907 6896 6895 6894 ] final  -55.02 input  -60.11 | X-H torsion
[ 7974 7965 7964 7962 ] final -109.33 input  175.53 | X-H torsion
[ 8008 7997 7996 7995 ] final -105.59 input   59.86 | X-H torsion
[ 10167 10162 10161 10158 ] final  -16.23 input  -65.29 | X-H torsion
[ 10718 10713 10712 10709 ] final  -18.48 input   66.30 | X-H torsion
[ 10763 10752 10751 10750 ] final  167.41 input  -60.55 | X-H torsion
[ 11005 11000 10999 10996 ] final  122.78 input  -57.11 | X-H torsion

> <Gold.Protein.ActiveResidues>
 VAL166  LYS551  ARG553  GLY616  TRP617  ASP618  TYR619  PRO620  LYS621  CYS622 
 ASP623  PHE694  ASN695  SER759  ASP760  ASP761  ALA762  ILE779  LEU786  VAL792 
 PHE793  MET794  SER795  GLU796  ALA797  LYS798  CYS799  TRP800  GLU811  SER814 

> <Gold.Protein.RotatedAtoms>
  150.8288  134.7531  159.6835 H   0  0  0  0  0  0  0  0  0  0  0  0  # atno 6907 bound_to 6896
  152.4395  134.5616  159.9905 H   0  0  0  0  0  0  0  0  0  0  0  0  # atno 6908 bound_to 6896
  151.5782  133.3343  159.3039 H   0  0  0  0  0  0  0  0  0  0  0  0  # atno 6909 bound_to 6896
  145.1819  140.8975  143.3475 H   0  0  0  0  0  0  0  0  0  0  0  0  # atno 7974 bound_to 7965
  154.9021  140.0412  157.1899 H   0  0  0  0  0  0  0  0  0  0  0  0  # atno 8008 bound_to 7997
  154.8433  140.2918  155.5624 H   0  0  0  0  0  0  0  0  0  0  0  0  # atno 8009 bound_to 7997
  156.2993  140.2478  156.3379 H   0  0  0  0  0  0  0  0  0  0  0  0  # atno 8010 bound_to 7997
  140.7230  143.5138  150.9717 H   0  0  0  0  0  0  0  0  0  0  0  0  # atno 10167 bound_to 10162
  156.5590  130.4720  149.6416 H   0  0  0  0  0  0  0  0  0  0  0  0  # atno 10718 bound_to 10713
  154.3534  135.2753  155.2359 H   0  0  0  0  0  0  0  0  0  0  0  0  # atno 10763 bound_to 10752
  154.4579  135.5914  153.6239 H   0  0  0  0  0  0  0  0  0  0  0  0  # atno 10764 bound_to 10752
  152.9848  135.6058  154.3747 H   0  0  0  0  0  0  0  0  0  0  0  0  # atno 10765 bound_to 10752
  139.9283  134.9641  156.8160 H   0  0  0  0  0  0  0  0  0  0  0  0  # atno 11005 bound_to 11000
  145.0128  139.3495  143.6111 LP  0  0  0  0  0  0  0  0  0  0  0  0  # atno 17320 bound_to 7965
  146.3451  139.9397  142.8742 LP  0  0  0  0  0  0  0  0  0  0  0  0  # atno 17321 bound_to 7965
  139.8852  143.7022  152.3152 LP  0  0  0  0  0  0  0  0  0  0  0  0  # atno 17342 bound_to 10162
  139.7318  144.7580  151.0790 LP  0  0  0  0  0  0  0  0  0  0  0  0  # atno 17343 bound_to 10162
  156.2816  130.7074  151.1900 LP  0  0  0  0  0  0  0  0  0  0  0  0  # atno 17370 bound_to 10713
  157.7372  131.0554  150.5367 LP  0  0  0  0  0  0  0  0  0  0  0  0  # atno 17371 bound_to 10713
  140.6273  133.9938  155.7646 LP  0  0  0  0  0  0  0  0  0  0  0  0  # atno 17394 bound_to 11000
  141.0856  133.9996  157.3319 LP  0  0  0  0  0  0  0  0  0  0  0  0  # atno 17395 bound_to 11000

$$$$
