AV-unprocessed.smi:787|AV-procd|sdf|3730|dock10
  -GOLD-   22720 1163D 1   1.00000     0.00000
 Structure written by MMmdl.
 46 48  0  0  0  0  0  0  0  0  1 V2000
  147.8643  137.1691  156.1795 C   0  0  0  0  0  0  0  0  0  0  0  0
  147.6877  138.3476  155.3462 N   0  0  0  0  0  0  0  0  0  0  0  0
  146.5775  139.1861  155.5187 C   0  0  0  0  0  0  0  0  0  0  0  0
  145.4373  138.6925  156.0550 N   0  0  0  0  0  0  0  0  0  0  0  0
  144.4020  139.5290  156.2050 C   0  0  0  0  0  0  0  0  0  0  0  0
  144.3157  140.8318  155.8955 N   0  0  0  0  0  0  0  0  0  0  0  0
  145.4403  141.3306  155.3641 C   0  0  0  0  0  0  0  0  0  0  0  0
  145.6336  142.6390  154.9556 N   0  0  0  0  0  0  0  0  0  0  0  0
  146.8893  142.6022  154.5172 C   0  0  0  0  0  0  0  0  0  0  0  0
  147.5396  141.4244  154.5888 N   0  0  0  0  0  0  0  0  0  0  0  0
  148.9074  141.1732  154.1667 C   0  0  0  0  0  0  0  0  0  0  0  0
  149.8370  140.8164  155.3456 C   0  0  1  0  0  0  0  0  0  0  0  0
  150.7986  139.8663  154.9310 O   0  0  0  0  0  0  0  0  0  0  0  0
  150.5955  142.0414  155.8970 C   0  0  0  0  0  0  0  0  0  0  0  0
  151.1175  141.9063  157.2585 N   0  0  0  0  0  0  0  0  0  0  0  0
  150.0644  141.4322  158.1518 C   0  0  0  0  0  0  0  0  0  0  0  0
  151.7087  143.1518  157.7563 C   0  0  0  0  0  0  0  0  0  0  0  0
  152.2171  143.0580  159.1848 C   0  0  0  0  0  0  0  0  0  0  0  0
  151.8661  144.0488  160.1264 C   0  0  0  0  0  0  0  0  0  0  0  0
  152.3355  143.9636  161.4517 C   0  0  0  0  0  0  0  0  0  0  0  0
  153.1547  142.8864  161.8408 C   0  0  0  0  0  0  0  0  0  0  0  0
  153.5048  141.8942  160.9043 C   0  0  0  0  0  0  0  0  0  0  0  0
  153.0367  141.9792  159.5785 C   0  0  0  0  0  0  0  0  0  0  0  0
  146.6132  140.5456  155.1482 C   0  0  0  0  0  0  0  0  0  0  0  0
  148.7922  136.6625  155.9150 H   0  0  0  0  0  0  0  0  0  0  0  0
  147.0403  136.4690  156.0379 H   0  0  0  0  0  0  0  0  0  0  0  0
  147.9141  137.4445  157.2334 H   0  0  0  0  0  0  0  0  0  0  0  0
  148.3804  138.5636  154.6442 H   0  0  0  0  0  0  0  0  0  0  0  0
  143.5120  139.0935  156.6344 H   0  0  0  0  0  0  0  0  0  0  0  0
  147.3673  143.4860  154.1200 H   0  0  0  0  0  0  0  0  0  0  0  0
  148.9133  140.3859  153.4142 H   0  0  0  0  0  0  0  0  0  0  0  0
  149.2706  142.0707  153.6640 H   0  0  0  0  0  0  0  0  0  0  0  0
  149.2563  140.3405  156.1351 H   0  0  0  0  0  0  0  0  0  0  0  0
  150.5058  139.0061  155.1905 H   0  0  0  0  0  0  0  0  0  0  0  0
  151.4134  142.2949  155.2206 H   0  0  0  0  0  0  0  0  0  0  0  0
  149.9118  142.8914  155.8661 H   0  0  0  0  0  0  0  0  0  0  0  0
  150.4487  141.2481  159.1553 H   0  0  0  0  0  0  0  0  0  0  0  0
  149.6442  140.4925  157.7917 H   0  0  0  0  0  0  0  0  0  0  0  0
  149.2543  142.1591  158.2260 H   0  0  0  0  0  0  0  0  0  0  0  0
  152.5687  143.4342  157.1513 H   0  0  0  0  0  0  0  0  0  0  0  0
  150.9913  143.9694  157.6701 H   0  0  0  0  0  0  0  0  0  0  0  0
  151.2376  144.8767  159.8325 H   0  0  0  0  0  0  0  0  0  0  0  0
  152.0669  144.7244  162.1699 H   0  0  0  0  0  0  0  0  0  0  0  0
  153.5139  142.8210  162.8574 H   0  0  0  0  0  0  0  0  0  0  0  0
  154.1325  141.0677  161.2030 H   0  0  0  0  0  0  0  0  0  0  0  0
  153.3105  141.2152  158.8656 H   0  0  0  0  0  0  0  0  0  0  0  0
  1  2  1  0  0  0  0
  1 25  1  0  0  0  0
  1 26  1  0  0  0  0
  1 27  1  0  0  0  0
  2  3  1  0  0  0  0
  2 28  1  0  0  0  0
  3 24  1  0  0  0  0
  3  4  2  0  0  0  0
  4  5  1  0  0  0  0
  5  6  2  0  0  0  0
  5 29  1  0  0  0  0
  6  7  1  0  0  0  0
  7 24  2  0  0  0  0
  7  8  1  0  0  0  0
  8  9  2  0  0  0  0
  9 10  1  0  0  0  0
  9 30  1  0  0  0  0
 10 11  1  0  0  0  0
 10 24  1  0  0  0  0
 11 12  1  0  0  0  0
 11 31  1  0  0  0  0
 11 32  1  0  0  0  0
 12 13  1  0  0  0  0
 12 14  1  0  0  0  0
 12 33  1  0  0  0  0
 13 34  1  0  0  0  0
 14 15  1  0  0  0  0
 14 35  1  0  0  0  0
 14 36  1  0  0  0  0
 15 16  1  0  0  0  0
 15 17  1  0  0  0  0
 16 37  1  0  0  0  0
 16 38  1  0  0  0  0
 16 39  1  0  0  0  0
 17 18  1  0  0  0  0
 17 40  1  0  0  0  0
 17 41  1  0  0  0  0
 18 23  1  0  0  0  0
 18 19  2  0  0  0  0
 19 20  1  0  0  0  0
 19 42  1  0  0  0  0
 20 21  2  0  0  0  0
 20 43  1  0  0  0  0
 21 22  1  0  0  0  0
 21 44  1  0  0  0  0
 22 23  2  0  0  0  0
 22 45  1  0  0  0  0
 23 46  1  0  0  0  0
M  END
> <s_m_source_file>
AV-unprocessed.smi

> <i_m_source_file_index>
787

> <i_lp_mmshare_version>
43012

> <i_f3d_flags>
0

> <s_epik_input>
bjFbY0hdbmMoW05IXVtDSDNdKWMoYzEyKW4oW2NIXW4yKVtDSDJdW0NASF0oW09IXSlbQ0gyXU4oW0NIM10pW0NIMl1jM1tjSF1bY0hdW2NIXVtjSF1bY0hdMw==

> <s_epik_cmdline>
J2VwaWtfcHl0aG9uJywgJy1waCcsICc3LjAnLCAnLXRuJywgJzgnLCAnLW1hJywgJzIwMCcsICctbWV0YWxfYmluZGluZycsICctaW1hZScsICc8aW5maWxlLm1hZT4nLCAnLW9tYWUnLCAnPG91dGZpbGUubWFlPic=

> <r_lp_tautomer_probability>
0.999987

> <r_epik_Ionization_Penalty>
1.52367

> <r_epik_Ionization_Penalty_Charging>
0

> <r_epik_Ionization_Penalty_Neutral>
1.52367

> <r_epik_State_Penalty>
1.60995

> <r_epik_Charging_Adjusted_Penalty>
1.60995

> <i_epik_Tot_Q>
0

> <i_epik_Tot_abs_Q>
0

> <r_epik_Metal_State_Penalty>
1.60969

> <b_epik_Metal_Only>
0

> <s_lp_Force_Field>
OPLS_2005

> <r_lp_Energy>
19.785

> <b_lp_Chiralities_Consistent>
1

> <s_lp_Variant>
AV-unprocessed.smi:787-6

> <Gold.Version>
5.8.1

> <Gold.Id.Protein>
6NUR|6NUR_protein|mol2

> <Gold.PLP.Fitness>
46.4929

> <Gold.PLP.PLP>
-42.7396

> <Gold.PLP.part.hbond>
-1.0000

> <Gold.PLP.part.metal>
0.0000

> <Gold.PLP.part.buried>
-4.6337

> <Gold.PLP.part.nonpolar>
-36.7962

> <Gold.PLP.part.repulsive>
0.4009

> <Gold.PLP.ligand.clash>
0.0000

> <Gold.PLP.ligand.torsion>
0.9800

> <Gold.PLP.Chemscore.Hbond>
1.0000

> <Gold.PLP.Chemscore.CHOScore>
0.7581

> <Gold.PLP.Chemscore.Metal>
0.0000

> <Gold.Chemscore.Hbonds>
donor molecule, donor type, donor heavy atom, donor atom, acceptor molecule, acceptor atom, score
      P1  H  7989  7998       L1    13  0.95
      L1  C     9    30       P1  8028  0.74

> <Gold.PLP.Chemscore.Internal.Correction>
0.4393

> <Gold.Rescore>
     Score         DG    S(hbond)    S(metal)    S(lipo)     H(rot)  DE(clash)    DE(int)     intcor
     11.08     -13.43       0.85        0.00     111.64       3.11       1.45       0.91       ----

> <Gold.Chemscore.Fitness>
11.0782

> <Gold.Chemscore.DG>
-13.4313

> <Gold.Chemscore.ZeroCoef>
-5.4800

> <Gold.Chemscore.Hbond>
0.8517

> <Gold.Chemscore.Metal>
0.0000

> <Gold.Chemscore.Lipo>
111.6395

> <Gold.Chemscore.Internal_Hbond>
0.0000

> <Gold.Chemscore.DEClash>
1.4453

> <Gold.Chemscore.DEInternal>
0.9079

> <Gold.Chemscore.Rot>
3.1075

> <Gold.Chemscore.Internal.Correction>
   9.000000E+99

> <Gold.Chemscore.Hbonds>
donor molecule, donor type, donor heavy atom, donor atom, acceptor molecule, acceptor atom, score
      P1  H  7989  7998       L1    13  0.21

> <Gold.Chemscore.Hbond.Weighted>
-2.8446

> <Gold.Chemscore.Metal.Weighted>
-0.0000

> <Gold.Chemscore.Lipo.Weighted>
-13.0618

> <Gold.Chemscore.Internal_Hbond.Weighted>
0.0000

> <Gold.Chemscore.DEClash.Weighted>
1.4453

> <Gold.Chemscore.DEInternal.Weighted>
0.9079

> <Gold.Chemscore.Rot.Weighted>
7.9551

> <Gold.Chemscore.Internal.Correction.Weighted>
   9.000000E+99

> <Gold.Protein.RotatedTorsions>
[ 6907 6896 6895 6894 ] final  -31.15 input  -60.11 | X-H torsion
[ 7974 7965 7964 7962 ] final   27.22 input  175.53 | X-H torsion
[ 8008 7997 7996 7995 ] final   59.04 input   59.86 | X-H torsion
[ 10167 10162 10161 10158 ] final   -6.26 input  -65.29 | X-H torsion
[ 10718 10713 10712 10709 ] final   -5.15 input   66.30 | X-H torsion
[ 10763 10752 10751 10750 ] final -122.91 input  -60.55 | X-H torsion
[ 11005 11000 10999 10996 ] final   82.75 input  -57.11 | X-H torsion

> <Gold.Protein.ActiveResidues>
 VAL166  LYS551  ARG553  GLY616  TRP617  ASP618  TYR619  PRO620  LYS621  CYS622 
 ASP623  PHE694  ASN695  SER759  ASP760  ASP761  ALA762  ILE779  LEU786  VAL792 
 PHE793  MET794  SER795  GLU796  ALA797  LYS798  CYS799  TRP800  GLU811  SER814 

> <Gold.Protein.RotatedAtoms>
  151.0959  134.9944  159.8425 H   0  0  0  0  0  0  0  0  0  0  0  0  # atno 6907 bound_to 6896
  152.5433  134.2008  159.8721 H   0  0  0  0  0  0  0  0  0  0  0  0  # atno 6908 bound_to 6896
  151.2048  133.4546  159.2630 H   0  0  0  0  0  0  0  0  0  0  0  0  # atno 6909 bound_to 6896
  146.1796  139.7222  142.8910 H   0  0  0  0  0  0  0  0  0  0  0  0  # atno 7974 bound_to 7965
  155.5598  140.3488  155.4488 H   0  0  0  0  0  0  0  0  0  0  0  0  # atno 8008 bound_to 7997
  156.0522  140.1320  157.0062 H   0  0  0  0  0  0  0  0  0  0  0  0  # atno 8009 bound_to 7997
  154.4440  140.1002  156.6379 H   0  0  0  0  0  0  0  0  0  0  0  0  # atno 8010 bound_to 7997
  140.6991  143.6215  150.8608 H   0  0  0  0  0  0  0  0  0  0  0  0  # atno 10167 bound_to 10162
  156.7508  130.5239  149.5804 H   0  0  0  0  0  0  0  0  0  0  0  0  # atno 10718 bound_to 10713
  154.8698  135.4116  154.2859 H   0  0  0  0  0  0  0  0  0  0  0  0  # atno 10763 bound_to 10752
  153.3743  135.7009  153.6619 H   0  0  0  0  0  0  0  0  0  0  0  0  # atno 10764 bound_to 10752
  153.5468  135.3637  155.2714 H   0  0  0  0  0  0  0  0  0  0  0  0  # atno 10765 bound_to 10752
  139.9053  134.8094  156.2216 H   0  0  0  0  0  0  0  0  0  0  0  0  # atno 11005 bound_to 11000
  145.4114  141.0397  143.3015 LP  0  0  0  0  0  0  0  0  0  0  0  0  # atno 17320 bound_to 7965
  144.8293  139.5656  143.6951 LP  0  0  0  0  0  0  0  0  0  0  0  0  # atno 17321 bound_to 7965
  139.9935  143.5821  152.2901 LP  0  0  0  0  0  0  0  0  0  0  0  0  # atno 17342 bound_to 10162
  139.6485  144.7659  151.2196 LP  0  0  0  0  0  0  0  0  0  0  0  0  # atno 17343 bound_to 10162
  156.1402  130.6239  151.0457 LP  0  0  0  0  0  0  0  0  0  0  0  0  # atno 17370 bound_to 10713
  157.6778  131.0846  150.7450 LP  0  0  0  0  0  0  0  0  0  0  0  0  # atno 17371 bound_to 10713
  141.0402  133.6942  156.1584 LP  0  0  0  0  0  0  0  0  0  0  0  0  # atno 17394 bound_to 11000
  140.6967  134.4608  157.5587 LP  0  0  0  0  0  0  0  0  0  0  0  0  # atno 17395 bound_to 11000

$$$$
