AV-unprocessed.smi:2771|AV-procd|sdf|10663|dock5
  -GOLD-   2272015113D 1   1.00000     0.00000
 Structure written by MMmdl.
 43 44  0  0  0  0  0  0  0  0  1 V2000
  146.5105  129.2426  153.4214 C   0  0  0  0  0  0  0  0  0  0  0  0
  146.4726  130.6056  152.7629 C   0  0  0  0  0  0  0  0  0  0  0  0
  145.6101  130.8646  151.6796 C   0  0  0  0  0  0  0  0  0  0  0  0
  145.6252  132.1519  151.1138 C   0  0  0  0  0  0  0  0  0  0  0  0
  146.4946  133.1207  151.6510 C   0  0  0  0  0  0  0  0  0  0  0  0
  147.3266  132.7797  152.7411 C   0  0  0  0  0  0  0  0  0  0  0  0
  148.1595  133.8284  153.2138 N   0  0  0  0  0  0  0  0  0  0  0  0
  148.9513  133.8359  154.3008 C   0  0  0  0  0  0  0  0  0  0  0  0
  149.1211  132.8872  155.0672 O   0  0  0  0  0  0  0  0  0  0  0  0
  149.5465  135.0261  154.4566 N   0  0  0  0  0  0  0  0  0  0  0  0
  150.4372  135.3719  155.5590 C   0  0  0  0  0  0  0  0  0  0  0  0
  151.0397  136.7777  155.3525 C   0  0  1  0  0  0  0  0  0  0  0  0
  151.8263  136.7041  154.1773 O   0  0  0  0  0  0  0  0  0  0  0  0
  149.9913  137.9079  155.1613 C   0  0  0  0  0  0  0  0  0  0  0  0
  150.6646  139.2373  154.7350 C   0  0  0  0  0  0  0  0  0  0  0  0
  149.6468  140.3712  154.5369 C   0  0  0  0  0  0  0  0  0  0  0  0
  148.8156  140.5964  155.8056 C   0  0  0  0  0  0  0  0  0  0  0  0
  148.1245  139.2965  156.2369 C   0  0  0  0  0  0  0  0  0  0  0  0
  149.1390  138.1567  156.4301 C   0  0  0  0  0  0  0  0  0  0  0  0
  147.3060  131.5346  153.2789 N   0  0  0  0  0  0  0  0  0  0  0  0
  145.8083  128.5552  152.9491 H   0  0  0  0  0  0  0  0  0  0  0  0
  146.2490  129.3240  154.4769 H   0  0  0  0  0  0  0  0  0  0  0  0
  147.5100  128.8131  153.3471 H   0  0  0  0  0  0  0  0  0  0  0  0
  144.9537  130.1000  151.2909 H   0  0  0  0  0  0  0  0  0  0  0  0
  144.9803  132.3943  150.2821 H   0  0  0  0  0  0  0  0  0  0  0  0
  146.5168  134.1147  151.2282 H   0  0  0  0  0  0  0  0  0  0  0  0
  148.1303  134.6810  152.6749 H   0  0  0  0  0  0  0  0  0  0  0  0
  149.3596  135.7486  153.7768 H   0  0  0  0  0  0  0  0  0  0  0  0
  149.9181  135.3168  156.5179 H   0  0  0  0  0  0  0  0  0  0  0  0
  151.2139  134.6091  155.5748 H   0  0  0  0  0  0  0  0  0  0  0  0
  151.6891  137.0270  156.1931 H   0  0  0  0  0  0  0  0  0  0  0  0
  151.2558  136.5266  153.4454 H   0  0  0  0  0  0  0  0  0  0  0  0
  149.3130  137.6041  154.3621 H   0  0  0  0  0  0  0  0  0  0  0  0
  151.3960  139.5354  155.4873 H   0  0  0  0  0  0  0  0  0  0  0  0
  151.2188  139.1081  153.8053 H   0  0  0  0  0  0  0  0  0  0  0  0
  150.1646  141.2912  154.2640 H   0  0  0  0  0  0  0  0  0  0  0  0
  148.9865  140.1292  153.7030 H   0  0  0  0  0  0  0  0  0  0  0  0
  149.4606  140.9547  156.6088 H   0  0  0  0  0  0  0  0  0  0  0  0
  148.0728  141.3756  155.6320 H   0  0  0  0  0  0  0  0  0  0  0  0
  147.5704  139.4611  157.1613 H   0  0  0  0  0  0  0  0  0  0  0  0
  147.3896  139.0070  155.4845 H   0  0  0  0  0  0  0  0  0  0  0  0
  148.5835  137.2620  156.7060 H   0  0  0  0  0  0  0  0  0  0  0  0
  149.7917  138.3889  157.2726 H   0  0  0  0  0  0  0  0  0  0  0  0
  1  2  1  0  0  0  0
  1 21  1  0  0  0  0
  1 22  1  0  0  0  0
  1 23  1  0  0  0  0
  2 20  1  0  0  0  0
  2  3  2  0  0  0  0
  3  4  1  0  0  0  0
  3 24  1  0  0  0  0
  4  5  2  0  0  0  0
  4 25  1  0  0  0  0
  5  6  1  0  0  0  0
  5 26  1  0  0  0  0
  6  7  1  0  0  0  0
  6 20  2  0  0  0  0
  7  8  1  0  0  0  0
  7 27  1  0  0  0  0
  8  9  2  0  0  0  0
  8 10  1  0  0  0  0
 10 11  1  0  0  0  0
 10 28  1  0  0  0  0
 11 12  1  0  0  0  0
 11 29  1  0  0  0  0
 11 30  1  0  0  0  0
 12 13  1  0  0  0  0
 12 14  1  0  0  0  0
 12 31  1  0  0  0  0
 13 32  1  0  0  0  0
 14 19  1  0  0  0  0
 14 15  1  0  0  0  0
 14 33  1  0  0  0  0
 15 16  1  0  0  0  0
 15 34  1  0  0  0  0
 15 35  1  0  0  0  0
 16 17  1  0  0  0  0
 16 36  1  0  0  0  0
 16 37  1  0  0  0  0
 17 18  1  0  0  0  0
 17 38  1  0  0  0  0
 17 39  1  0  0  0  0
 18 19  1  0  0  0  0
 18 40  1  0  0  0  0
 18 41  1  0  0  0  0
 19 42  1  0  0  0  0
 19 43  1  0  0  0  0
M  END
> <s_m_source_file>
AV-unprocessed.smi

> <i_m_source_file_index>
2771

> <i_lp_mmshare_version>
43012

> <i_f3d_flags>
0

> <s_epik_input>
W0NIM11jMVtjSF1bY0hdW2NIXWMobjEpW05IXUMoPU8pW05IXVtDSDJdW0NASF0oW09IXSlbQ0hdMltDSDJdW0NIMl1bQ0gyXVtDSDJdW0NIMl0y

> <s_epik_cmdline>
J2VwaWtfcHl0aG9uJywgJy1waCcsICc3LjAnLCAnLXRuJywgJzgnLCAnLW1hJywgJzIwMCcsICctbWV0YWxfYmluZGluZycsICctaW1hZScsICc8aW5maWxlLm1hZT4nLCAnLW9tYWUnLCAnPG91dGZpbGUubWFlPic=

> <r_lp_tautomer_probability>
1

> <r_epik_Ionization_Penalty>
8.92802e-05

> <r_epik_Ionization_Penalty_Charging>
0

> <r_epik_Ionization_Penalty_Neutral>
8.92802e-05

> <r_epik_State_Penalty>
-0

> <r_epik_Charging_Adjusted_Penalty>
0

> <i_epik_Tot_Q>
0

> <i_epik_Tot_abs_Q>
0

> <r_epik_Metal_State_Penalty>
-0

> <b_epik_Metal_Only>
0

> <s_lp_Force_Field>
OPLS_2005

> <r_lp_Energy>
17.4783

> <b_lp_Chiralities_Consistent>
1

> <s_lp_Variant>
AV-unprocessed.smi:2771-2

> <Gold.Version>
5.8.1

> <Gold.Id.Protein>
6NUR|6NUR_protein|mol2

> <Gold.PLP.Fitness>
44.9100

> <Gold.PLP.PLP>
-33.2472

> <Gold.PLP.part.hbond>
-4.0000

> <Gold.PLP.part.metal>
0.0000

> <Gold.PLP.part.buried>
-3.2678

> <Gold.PLP.part.nonpolar>
-25.1687

> <Gold.PLP.part.repulsive>
0.1528

> <Gold.PLP.ligand.clash>
0.0000

> <Gold.PLP.ligand.torsion>
0.0803

> <Gold.PLP.Chemscore.Hbond>
3.9360

> <Gold.PLP.Chemscore.CHOScore>
0.0000

> <Gold.PLP.Chemscore.Metal>
0.0000

> <Gold.Chemscore.Hbonds>
donor molecule, donor type, donor heavy atom, donor atom, acceptor molecule, acceptor atom, score
      L1  H     7    27       P1  7948  1.00
      L1  H    10    28       P1  7948  0.94
      L1  H    13    32       P1  7949  0.90
      P1  H 10752 10764       L1    13  1.00

> <Gold.PLP.Chemscore.Internal.Correction>
0.0153

> <Gold.Rescore>
     Score         DG    S(hbond)    S(metal)    S(lipo)     H(rot)  DE(clash)    DE(int)     intcor
     16.02     -17.52       2.56        0.00      72.68       1.95       0.02       1.48       ----

> <Gold.Chemscore.Fitness>
16.0190

> <Gold.Chemscore.DG>
-17.5186

> <Gold.Chemscore.ZeroCoef>
-5.4800

> <Gold.Chemscore.Hbond>
2.5560

> <Gold.Chemscore.Metal>
0.0000

> <Gold.Chemscore.Lipo>
72.6752

> <Gold.Chemscore.Internal_Hbond>
0.0000

> <Gold.Chemscore.DEClash>
0.0212

> <Gold.Chemscore.DEInternal>
1.4784

> <Gold.Chemscore.Rot>
1.9536

> <Gold.Chemscore.Internal.Correction>
   9.000000E+99

> <Gold.Chemscore.Hbonds>
donor molecule, donor type, donor heavy atom, donor atom, acceptor molecule, acceptor atom, score
      L1  H     7    27       P1  7948  0.58
      L1  H    10    28       P1  7948  0.49
      L1  H    13    32       P1  7949  0.50
      P1  H 10752 10764       L1    13  0.52

> <Gold.Chemscore.Hbond.Weighted>
-8.5369

> <Gold.Chemscore.Metal.Weighted>
-0.0000

> <Gold.Chemscore.Lipo.Weighted>
-8.5030

> <Gold.Chemscore.Internal_Hbond.Weighted>
0.0000

> <Gold.Chemscore.DEClash.Weighted>
0.0212

> <Gold.Chemscore.DEInternal.Weighted>
1.4784

> <Gold.Chemscore.Rot.Weighted>
5.0013

> <Gold.Chemscore.Internal.Correction.Weighted>
   9.000000E+99

> <Gold.Protein.RotatedTorsions>
[ 6907 6896 6895 6894 ] final  -69.60 input  -60.11 | X-H torsion
[ 7974 7965 7964 7962 ] final  -63.36 input  175.53 | X-H torsion
[ 8008 7997 7996 7995 ] final  -20.62 input   59.86 | X-H torsion
[ 10167 10162 10161 10158 ] final  -74.80 input  -65.29 | X-H torsion
[ 10718 10713 10712 10709 ] final    2.06 input   66.30 | X-H torsion
[ 10763 10752 10751 10750 ] final  -92.92 input  -60.55 | X-H torsion
[ 11005 11000 10999 10996 ] final  105.15 input  -57.11 | X-H torsion

> <Gold.Protein.ActiveResidues>
 VAL166  LYS551  ARG553  GLY616  TRP617  ASP618  TYR619  PRO620  LYS621  CYS622 
 ASP623  PHE694  ASN695  SER759  ASP760  ASP761  ALA762  ILE779  LEU786  VAL792 
 PHE793  MET794  SER795  GLU796  ALA797  LYS798  CYS799  TRP800  GLU811  SER814 

> <Gold.Protein.RotatedAtoms>
  150.7298  134.5574  159.5824 H   0  0  0  0  0  0  0  0  0  0  0  0  # atno 6907 bound_to 6896
  152.3046  134.7568  160.0359 H   0  0  0  0  0  0  0  0  0  0  0  0  # atno 6908 bound_to 6896
  151.8136  133.3349  159.3599 H   0  0  0  0  0  0  0  0  0  0  0  0  # atno 6909 bound_to 6896
  145.7800  140.8767  143.0335 H   0  0  0  0  0  0  0  0  0  0  0  0  # atno 7974 bound_to 7965
  154.4758  140.2057  155.9882 H   0  0  0  0  0  0  0  0  0  0  0  0  # atno 8008 bound_to 7997
  156.1086  140.3232  155.8012 H   0  0  0  0  0  0  0  0  0  0  0  0  # atno 8009 bound_to 7997
  155.4673  140.0528  157.2974 H   0  0  0  0  0  0  0  0  0  0  0  0  # atno 8010 bound_to 7997
  140.4996  143.2364  151.7773 H   0  0  0  0  0  0  0  0  0  0  0  0  # atno 10167 bound_to 10162
  156.8575  130.5575  149.5665 H   0  0  0  0  0  0  0  0  0  0  0  0  # atno 10718 bound_to 10713
  154.6908  135.5213  153.8390 H   0  0  0  0  0  0  0  0  0  0  0  0  # atno 10763 bound_to 10752
  153.0631  135.6575  154.0426 H   0  0  0  0  0  0  0  0  0  0  0  0  # atno 10764 bound_to 10752
  154.0300  135.2986  155.3349 H   0  0  0  0  0  0  0  0  0  0  0  0  # atno 10765 bound_to 10752
  139.8799  134.9326  156.5470 H   0  0  0  0  0  0  0  0  0  0  0  0  # atno 11005 bound_to 11000
  144.6798  139.9975  143.7484 LP  0  0  0  0  0  0  0  0  0  0  0  0  # atno 17320 bound_to 7965
  146.0084  139.3149  143.0885 LP  0  0  0  0  0  0  0  0  0  0  0  0  # atno 17321 bound_to 7965
  139.4869  144.4539  151.9621 LP  0  0  0  0  0  0  0  0  0  0  0  0  # atno 17342 bound_to 10162
  140.3628  144.2952  150.5931 LP  0  0  0  0  0  0  0  0  0  0  0  0  # atno 17343 bound_to 10162
  156.0795  130.5809  150.9536 LP  0  0  0  0  0  0  0  0  0  0  0  0  # atno 17370 bound_to 10713
  157.6269  131.0925  150.8517 LP  0  0  0  0  0  0  0  0  0  0  0  0  # atno 17371 bound_to 10713
  140.8268  133.8310  155.8946 LP  0  0  0  0  0  0  0  0  0  0  0  0  # atno 17394 bound_to 11000
  140.9366  134.1953  157.4827 LP  0  0  0  0  0  0  0  0  0  0  0  0  # atno 17395 bound_to 11000

$$$$
