AV-unprocessed.smi:2473|AV-procd|sdf|9748|dock2
  -GOLD-   2272013393D 1   1.00000     0.00000
 Structure written by MMmdl.
 47 48  0  0  0  0  0  0  0  0  1 V2000
  153.7995  141.0856  160.1312 C   0  0  0  0  0  0  0  0  0  0  0  0
  153.0538  142.0480  159.1955 C   0  0  1  0  0  0  0  0  0  0  0  0
  151.8133  141.3787  158.5763 C   0  0  0  0  0  0  0  0  0  0  0  0
  151.0730  142.3407  157.6275 C   0  0  1  0  0  0  0  0  0  0  0  0
  149.8306  141.6777  157.0191 C   0  0  0  0  0  0  0  0  0  0  0  0
  148.9385  141.2443  157.7487 O   0  0  0  0  0  0  0  0  0  0  0  0
  149.7713  141.6406  155.6781 N   0  0  0  0  0  0  0  0  0  0  0  0
  148.6184  141.2111  154.8906 C   0  0  0  0  0  0  0  0  0  0  0  0
  148.9536  140.0113  153.9825 C   0  0  0  0  0  0  0  0  0  0  0  0
  150.1335  139.2070  154.4459 C   0  0  0  0  0  0  0  0  0  0  0  0
  151.3751  139.6815  154.4781 N   0  0  0  0  0  0  0  0  0  0  0  0
  152.1397  138.6433  154.9983 C   0  0  0  0  0  0  0  0  0  0  0  0
  151.3282  137.5667  155.2614 C   0  0  0  0  0  0  0  0  0  0  0  0
  150.0403  137.9410  154.9016 N   0  0  0  0  0  0  0  0  0  0  0  0
  148.8551  137.1118  155.0122 C   0  0  0  0  0  0  0  0  0  0  0  0
  150.6810  143.6345  158.3763 C   0  0  0  0  0  0  0  0  0  0  0  0
  151.8807  144.3533  159.0393 C   0  0  0  0  0  0  0  0  0  0  0  0
  152.8048  144.9835  157.9743 C   0  0  0  0  0  0  0  0  0  0  0  0
  151.3445  145.4933  159.9273 C   0  0  0  0  0  0  0  0  0  0  0  0
  152.6571  143.3480  159.9271 C   0  0  0  0  0  0  0  0  0  0  0  0
  153.1709  140.7762  160.9665 H   0  0  0  0  0  0  0  0  0  0  0  0
  154.6948  141.5530  160.5424 H   0  0  0  0  0  0  0  0  0  0  0  0
  154.1136  140.1866  159.6000 H   0  0  0  0  0  0  0  0  0  0  0  0
  153.7414  142.2998  158.3879 H   0  0  0  0  0  0  0  0  0  0  0  0
  152.1133  140.4813  158.0331 H   0  0  0  0  0  0  0  0  0  0  0  0
  151.1442  141.0474  159.3724 H   0  0  0  0  0  0  0  0  0  0  0  0
  151.7463  142.5975  156.8090 H   0  0  0  0  0  0  0  0  0  0  0  0
  150.5583  142.0080  155.1633 H   0  0  0  0  0  0  0  0  0  0  0  0
  147.8171  140.9375  155.5772 H   0  0  0  0  0  0  0  0  0  0  0  0
  148.2324  142.0349  154.2883 H   0  0  0  0  0  0  0  0  0  0  0  0
  148.0819  139.3632  153.8918 H   0  0  0  0  0  0  0  0  0  0  0  0
  149.1606  140.3702  152.9739 H   0  0  0  0  0  0  0  0  0  0  0  0
  153.2047  138.7501  155.1421 H   0  0  0  0  0  0  0  0  0  0  0  0
  151.5552  136.5918  155.6668 H   0  0  0  0  0  0  0  0  0  0  0  0
  149.1015  136.1676  155.4984 H   0  0  0  0  0  0  0  0  0  0  0  0
  148.4563  136.9040  154.0192 H   0  0  0  0  0  0  0  0  0  0  0  0
  148.0961  137.6208  155.6064 H   0  0  0  0  0  0  0  0  0  0  0  0
  150.1751  144.3196  157.6949 H   0  0  0  0  0  0  0  0  0  0  0  0
  149.9473  143.3893  159.1463 H   0  0  0  0  0  0  0  0  0  0  0  0
  153.6358  145.5147  158.4395 H   0  0  0  0  0  0  0  0  0  0  0  0
  152.2625  145.7025  157.3593 H   0  0  0  0  0  0  0  0  0  0  0  0
  153.2352  144.2454  157.2994 H   0  0  0  0  0  0  0  0  0  0  0  0
  152.1564  146.0277  160.4218 H   0  0  0  0  0  0  0  0  0  0  0  0
  150.6803  145.1168  160.7062 H   0  0  0  0  0  0  0  0  0  0  0  0
  150.7805  146.2205  159.3420 H   0  0  0  0  0  0  0  0  0  0  0  0
  152.0416  143.0834  160.7885 H   0  0  0  0  0  0  0  0  0  0  0  0
  153.5479  143.8275  160.3350 H   0  0  0  0  0  0  0  0  0  0  0  0
  1  2  1  0  0  0  0
  1 21  1  0  0  0  0
  1 22  1  0  0  0  0
  1 23  1  0  0  0  0
  2 20  1  0  0  0  0
  2  3  1  0  0  0  0
  2 24  1  0  0  0  0
  3  4  1  0  0  0  0
  3 25  1  0  0  0  0
  3 26  1  0  0  0  0
  4  5  1  0  0  0  0
  4 16  1  0  0  0  0
  4 27  1  0  0  0  0
  5  6  2  0  0  0  0
  5  7  1  0  0  0  0
  7  8  1  0  0  0  0
  7 28  1  0  0  0  0
  8  9  1  0  0  0  0
  8 29  1  0  0  0  0
  8 30  1  0  0  0  0
  9 10  1  0  0  0  0
  9 31  1  0  0  0  0
  9 32  1  0  0  0  0
 10 14  1  0  0  0  0
 10 11  2  0  0  0  0
 11 12  1  0  0  0  0
 12 13  2  0  0  0  0
 12 33  1  0  0  0  0
 13 14  1  0  0  0  0
 13 34  1  0  0  0  0
 14 15  1  0  0  0  0
 15 35  1  0  0  0  0
 15 36  1  0  0  0  0
 15 37  1  0  0  0  0
 16 17  1  0  0  0  0
 16 38  1  0  0  0  0
 16 39  1  0  0  0  0
 17 18  1  0  0  0  0
 17 19  1  0  0  0  0
 17 20  1  0  0  0  0
 18 40  1  0  0  0  0
 18 41  1  0  0  0  0
 18 42  1  0  0  0  0
 19 43  1  0  0  0  0
 19 44  1  0  0  0  0
 19 45  1  0  0  0  0
 20 46  1  0  0  0  0
 20 47  1  0  0  0  0
M  END
> <s_m_source_file>
AV-unprocessed.smi

> <i_m_source_file_index>
2473

> <i_lp_mmshare_version>
43012

> <i_f3d_flags>
0

> <s_epik_input>
W0NIM11bQ0BASF0oW0NIMl0xKVtDSDJdW0NASF0oW0NIMl1DMShbQ0gzXSlbQ0gzXSlDKD1PKVtOSF1bQ0gyXVtDSDJdYzJuW2NIXVtjSF1uMltDSDNd

> <s_epik_cmdline>
J2VwaWtfcHl0aG9uJywgJy1waCcsICc3LjAnLCAnLXRuJywgJzgnLCAnLW1hJywgJzIwMCcsICctbWV0YWxfYmluZGluZycsICctaW1hZScsICc8aW5maWxlLm1hZT4nLCAnLW9tYWUnLCAnPG91dGZpbGUubWFlPic=

> <r_lp_tautomer_probability>
1

> <r_epik_Ionization_Penalty>
1.22858

> <r_epik_Ionization_Penalty_Charging>
1.22858

> <r_epik_Ionization_Penalty_Neutral>
2.12671e-08

> <r_epik_State_Penalty>
1.2965

> <r_epik_Charging_Adjusted_Penalty>
2.52508

> <i_epik_Tot_Q>
0

> <i_epik_Tot_abs_Q>
0

> <r_epik_Metal_State_Penalty>
0.411461

> <b_epik_Metal_Only>
0

> <s_lp_Force_Field>
OPLS_2005

> <r_lp_Energy>
12.6142

> <b_lp_Chiralities_Consistent>
1

> <s_lp_Variant>
AV-unprocessed.smi:2473-6

> <Gold.Version>
5.8.1

> <Gold.Id.Protein>
6NUR|6NUR_protein|mol2

> <Gold.PLP.Fitness>
49.4735

> <Gold.PLP.PLP>
-47.1169

> <Gold.PLP.part.hbond>
-1.5196

> <Gold.PLP.part.metal>
0.0000

> <Gold.PLP.part.buried>
-3.8554

> <Gold.PLP.part.nonpolar>
-41.5310

> <Gold.PLP.part.repulsive>
0.2863

> <Gold.PLP.ligand.clash>
0.0000

> <Gold.PLP.ligand.torsion>
0.3372

> <Gold.PLP.Chemscore.Hbond>
1.0000

> <Gold.PLP.Chemscore.CHOScore>
0.0000

> <Gold.PLP.Chemscore.Metal>
0.0000

> <Gold.Chemscore.Hbonds>
donor molecule, donor type, donor heavy atom, donor atom, acceptor molecule, acceptor atom, score
      P1  H  7989  7998       L1    11  1.00

> <Gold.PLP.Chemscore.Internal.Correction>
0.0310

> <Gold.Rescore>
     Score         DG    S(hbond)    S(metal)    S(lipo)     H(rot)  DE(clash)    DE(int)     intcor
     18.64     -19.22       0.98        0.00     122.63       1.51       0.08       0.51       ----

> <Gold.Chemscore.Fitness>
18.6379

> <Gold.Chemscore.DG>
-19.2241

> <Gold.Chemscore.ZeroCoef>
-5.4800

> <Gold.Chemscore.Hbond>
0.9774

> <Gold.Chemscore.Metal>
0.0000

> <Gold.Chemscore.Lipo>
122.6284

> <Gold.Chemscore.Internal_Hbond>
0.0000

> <Gold.Chemscore.DEClash>
0.0765

> <Gold.Chemscore.DEInternal>
0.5097

> <Gold.Chemscore.Rot>
1.5109

> <Gold.Chemscore.Internal.Correction>
   9.000000E+99

> <Gold.Chemscore.Hbonds>
donor molecule, donor type, donor heavy atom, donor atom, acceptor molecule, acceptor atom, score
      P1  H  7989  7998       L1    11  0.87

> <Gold.Chemscore.Hbond.Weighted>
-3.2646

> <Gold.Chemscore.Metal.Weighted>
-0.0000

> <Gold.Chemscore.Lipo.Weighted>
-14.3475

> <Gold.Chemscore.Internal_Hbond.Weighted>
0.0000

> <Gold.Chemscore.DEClash.Weighted>
0.0765

> <Gold.Chemscore.DEInternal.Weighted>
0.5097

> <Gold.Chemscore.Rot.Weighted>
3.8680

> <Gold.Chemscore.Internal.Correction.Weighted>
   9.000000E+99

> <Gold.Protein.RotatedTorsions>
[ 6907 6896 6895 6894 ] final   67.46 input  -60.11 | X-H torsion
[ 7974 7965 7964 7962 ] final  110.09 input  175.53 | X-H torsion
[ 8008 7997 7996 7995 ] final  -38.99 input   59.86 | X-H torsion
[ 10167 10162 10161 10158 ] final   91.49 input  -65.29 | X-H torsion
[ 10718 10713 10712 10709 ] final  -68.70 input   66.30 | X-H torsion
[ 10763 10752 10751 10750 ] final  149.54 input  -60.55 | X-H torsion
[ 11005 11000 10999 10996 ] final  137.07 input  -57.11 | X-H torsion

> <Gold.Protein.ActiveResidues>
 VAL166  LYS551  ARG553  GLY616  TRP617  ASP618  TYR619  PRO620  LYS621  CYS622 
 ASP623  PHE694  ASN695  SER759  ASP760  ASP761  ALA762  ILE779  LEU786  VAL792 
 PHE793  MET794  SER795  GLU796  ALA797  LYS798  CYS799  TRP800  GLU811  SER814 

> <Gold.Protein.RotatedAtoms>
  152.4553  134.5305  159.9809 H   0  0  0  0  0  0  0  0  0  0  0  0  # atno 6907 bound_to 6896
  151.5367  133.3434  159.2936 H   0  0  0  0  0  0  0  0  0  0  0  0  # atno 6908 bound_to 6896
  150.8495  134.7846  159.7060 H   0  0  0  0  0  0  0  0  0  0  0  0  # atno 6909 bound_to 6896
  145.2595  139.2708  143.4025 H   0  0  0  0  0  0  0  0  0  0  0  0  # atno 7974 bound_to 7965
  154.4029  140.1563  156.2791 H   0  0  0  0  0  0  0  0  0  0  0  0  # atno 8008 bound_to 7997
  155.8886  140.3440  155.5917 H   0  0  0  0  0  0  0  0  0  0  0  0  # atno 8009 bound_to 7997
  155.7585  140.0814  157.2157 H   0  0  0  0  0  0  0  0  0  0  0  0  # atno 8010 bound_to 7997
  139.8369  144.6660  150.9331 H   0  0  0  0  0  0  0  0  0  0  0  0  # atno 10167 bound_to 10162
  156.0492  130.4299  150.2039 H   0  0  0  0  0  0  0  0  0  0  0  0  # atno 10718 bound_to 10713
  154.0728  135.2865  155.3305 H   0  0  0  0  0  0  0  0  0  0  0  0  # atno 10763 bound_to 10752
  154.6735  135.5290  153.8172 H   0  0  0  0  0  0  0  0  0  0  0  0  # atno 10764 bound_to 10752
  153.0478  135.6563  154.0908 H   0  0  0  0  0  0  0  0  0  0  0  0  # atno 10765 bound_to 10752
  140.0089  134.9447  157.0235 H   0  0  0  0  0  0  0  0  0  0  0  0  # atno 11005 bound_to 11000
  146.3279  140.3008  142.8620 LP  0  0  0  0  0  0  0  0  0  0  0  0  # atno 17320 bound_to 7965
  144.9431  140.8100  143.5618 LP  0  0  0  0  0  0  0  0  0  0  0  0  # atno 17321 bound_to 7965
  140.7802  143.3948  151.1248 LP  0  0  0  0  0  0  0  0  0  0  0  0  # atno 17342 bound_to 10162
  139.7598  143.8653  152.3097 LP  0  0  0  0  0  0  0  0  0  0  0  0  # atno 17343 bound_to 10162
  157.0125  130.9955  151.3362 LP  0  0  0  0  0  0  0  0  0  0  0  0  # atno 17370 bound_to 10713
  157.5400  130.8114  149.8018 LP  0  0  0  0  0  0  0  0  0  0  0  0  # atno 17371 bound_to 10713
  140.4591  134.1503  155.7189 LP  0  0  0  0  0  0  0  0  0  0  0  0  # atno 17394 bound_to 11000
  141.1697  133.8634  157.1609 LP  0  0  0  0  0  0  0  0  0  0  0  0  # atno 17395 bound_to 11000

$$$$
