AV-unprocessed.smi:109|AV-procd|sdf|1045|dock2
  -GOLD-   2262018 83D 1   1.00000     0.00000
 Structure written by MMmdl.
 58 61  0  0  0  0  0  0  0  0  1 V2000
  154.0502  138.8072  160.4701 O   0  0  0  0  0  0  0  0  0  0  0  0
  153.3960  139.9992  160.0923 C   0  0  0  0  0  0  0  0  0  0  0  0
  152.8352  139.8586  158.6667 C   0  0  0  0  0  0  0  0  0  0  0  0
  151.6937  140.8503  158.3311 C   0  0  2  0  0  0  0  0  0  0  0  0
  151.3284  140.7153  156.9188 N   0  0  0  0  0  0  0  0  0  0  0  0
  151.5547  139.5821  156.2168 C   0  0  0  0  0  0  0  0  0  0  0  0
  152.1751  139.6047  155.0083 N   0  0  0  0  0  0  0  0  0  0  0  0
  152.3776  138.4669  154.3370 C   0  0  0  0  0  0  0  0  0  0  0  0
  152.0472  137.2213  154.6861 N   0  0  0  0  0  0  0  0  0  0  0  0
  151.4269  137.1949  155.9008 C   0  0  0  0  0  0  0  0  0  0  0  0
  151.1444  138.3214  156.7217 C   0  0  0  0  0  0  0  0  0  0  0  0
  150.5000  137.9087  157.8813 N   0  0  0  0  0  0  0  0  0  0  0  0
  150.4108  136.6120  157.7488 C   0  0  0  0  0  0  0  0  0  0  0  0
  150.9441  136.1020  156.5846 N   0  0  0  0  0  0  0  0  0  0  0  0
  151.0003  134.6824  156.1211 C   0  0  1  0  0  0  0  0  0  0  0  0
  150.4968  133.8814  157.1374 O   0  0  0  0  0  0  0  0  0  0  0  0
  150.0361  132.6761  156.5500 C   0  0  1  0  0  0  0  0  0  0  0  0
  149.0964  131.9456  157.5211 C   0  0  0  0  0  0  0  0  0  0  0  0
  148.6296  130.7507  156.9332 O   0  0  0  0  0  0  0  0  0  0  0  0
  149.3390  133.1696  155.2748 C   0  0  2  0  0  0  0  0  0  0  0  0
  149.4135  132.1798  154.2679 O   0  0  0  0  0  0  0  0  0  0  0  0
  150.1349  134.4122  154.8716 C   0  0  1  0  0  0  0  0  0  0  0  0
  149.2682  135.4778  154.5230 O   0  0  0  0  0  0  0  0  0  0  0  0
  152.0502  142.3351  158.6298 C   0  0  0  0  0  0  0  0  0  0  0  0
  152.0286  142.6803  160.1403 C   0  0  0  0  0  0  0  0  0  0  0  0
  152.3419  144.1615  160.4098 C   0  0  0  0  0  0  0  0  0  0  0  0
  151.3849  145.0862  159.6485 C   0  0  0  0  0  0  0  0  0  0  0  0
  151.4171  144.7766  158.1473 C   0  0  0  0  0  0  0  0  0  0  0  0
  151.0947  143.2984  157.8789 C   0  0  0  0  0  0  0  0  0  0  0  0
  152.0582  134.4656  155.9648 H   0  0  0  0  0  0  0  0  0  0  0  0
  150.8976  132.0560  156.2912 H   0  0  0  0  0  0  0  0  0  0  0  0
  148.2980  133.4224  155.4838 H   0  0  0  0  0  0  0  0  0  0  0  0
  150.8081  134.2155  154.0357 H   0  0  0  0  0  0  0  0  0  0  0  0
  154.4812  138.4468  159.7104 H   0  0  0  0  0  0  0  0  0  0  0  0
  152.6028  140.2002  160.8123 H   0  0  0  0  0  0  0  0  0  0  0  0
  154.1062  140.8248  160.1463 H   0  0  0  0  0  0  0  0  0  0  0  0
  153.6709  140.0148  157.9869 H   0  0  0  0  0  0  0  0  0  0  0  0
  152.4931  138.8354  158.5048 H   0  0  0  0  0  0  0  0  0  0  0  0
  150.8472  140.6036  158.9715 H   0  0  0  0  0  0  0  0  0  0  0  0
  150.8936  141.5284  156.5065 H   0  0  0  0  0  0  0  0  0  0  0  0
  152.8755  138.5697  153.3842 H   0  0  0  0  0  0  0  0  0  0  0  0
  149.9468  135.9890  158.4998 H   0  0  0  0  0  0  0  0  0  0  0  0
  149.5901  131.7364  158.4706 H   0  0  0  0  0  0  0  0  0  0  0  0
  148.2252  132.5645  157.7373 H   0  0  0  0  0  0  0  0  0  0  0  0
  147.7541  130.8961  156.6085 H   0  0  0  0  0  0  0  0  0  0  0  0
  150.1450  132.3780  153.7033 H   0  0  0  0  0  0  0  0  0  0  0  0
  149.4466  135.7286  153.6297 H   0  0  0  0  0  0  0  0  0  0  0  0
  153.0632  142.5166  158.2664 H   0  0  0  0  0  0  0  0  0  0  0  0
  151.0540  142.4309  160.5619 H   0  0  0  0  0  0  0  0  0  0  0  0
  152.7643  142.0899  160.6841 H   0  0  0  0  0  0  0  0  0  0  0  0
  152.2809  144.3647  161.4792 H   0  0  0  0  0  0  0  0  0  0  0  0
  153.3694  144.3764  160.1136 H   0  0  0  0  0  0  0  0  0  0  0  0
  150.3707  144.9599  160.0294 H   0  0  0  0  0  0  0  0  0  0  0  0
  151.6552  146.1284  159.8210 H   0  0  0  0  0  0  0  0  0  0  0  0
  150.7040  145.4130  157.6224 H   0  0  0  0  0  0  0  0  0  0  0  0
  152.4015  145.0160  157.7430 H   0  0  0  0  0  0  0  0  0  0  0  0
  151.1408  143.1291  156.8032 H   0  0  0  0  0  0  0  0  0  0  0  0
  150.0644  143.0942  158.1741 H   0  0  0  0  0  0  0  0  0  0  0  0
  1  2  1  0  0  0  0
  1 34  1  0  0  0  0
  2  3  1  0  0  0  0
  2 35  1  0  0  0  0
  2 36  1  0  0  0  0
  3  4  1  0  0  0  0
  3 37  1  0  0  0  0
  3 38  1  0  0  0  0
  4  5  1  0  0  0  0
  4 24  1  0  0  0  0
  4 39  1  0  0  0  0
  5  6  1  0  0  0  0
  5 40  1  0  0  0  0
  6 11  1  0  0  0  0
  6  7  2  0  0  0  0
  7  8  1  0  0  0  0
  8  9  2  0  0  0  0
  8 41  1  0  0  0  0
  9 10  1  0  0  0  0
 10 14  1  0  0  0  0
 10 11  2  0  0  0  0
 11 12  1  0  0  0  0
 12 13  2  0  0  0  0
 13 14  1  0  0  0  0
 13 42  1  0  0  0  0
 14 15  1  0  0  0  0
 15 30  1  0  0  0  0
 15 22  1  0  0  0  0
 15 16  1  0  0  0  0
 16 17  1  0  0  0  0
 17 31  1  0  0  0  0
 17 18  1  0  0  0  0
 17 20  1  0  0  0  0
 18 19  1  0  0  0  0
 18 43  1  0  0  0  0
 18 44  1  0  0  0  0
 19 45  1  0  0  0  0
 20 32  1  0  0  0  0
 20 21  1  0  0  0  0
 20 22  1  0  0  0  0
 21 46  1  0  0  0  0
 22 33  1  0  0  0  0
 22 23  1  0  0  0  0
 23 47  1  0  0  0  0
 24 29  1  0  0  0  0
 24 25  1  0  0  0  0
 24 48  1  0  0  0  0
 25 26  1  0  0  0  0
 25 49  1  0  0  0  0
 25 50  1  0  0  0  0
 26 27  1  0  0  0  0
 26 51  1  0  0  0  0
 26 52  1  0  0  0  0
 27 28  1  0  0  0  0
 27 53  1  0  0  0  0
 27 54  1  0  0  0  0
 28 29  1  0  0  0  0
 28 55  1  0  0  0  0
 28 56  1  0  0  0  0
 29 57  1  0  0  0  0
 29 58  1  0  0  0  0
M  END
> <s_m_source_file>
AV-unprocessed.smi

> <i_m_source_file_index>
109

> <i_lp_mmshare_version>
43012

> <i_f3d_flags>
0

> <s_epik_input>
W0NIMl0xW0NIMl1bQ0gyXVtDSDJdW0NIMl1bQ0hdMVtDQEhdKFtDSDJdW0NIMl1bT0hdKVtOSF1jKG5bY0hdbjIpYyhjMjMpbltjSF1uM1tDQEBIXTRPW0NASF0oW0NIMl1bT0hdKVtDQEBIXShbT0hdKVtDQEhdNFtPSF0=

> <s_epik_cmdline>
J2VwaWtfcHl0aG9uJywgJy1waCcsICc3LjAnLCAnLXRuJywgJzgnLCAnLW1hJywgJzIwMCcsICctbWV0YWxfYmluZGluZycsICctaW1hZScsICc8aW5maWxlLm1hZT4nLCAnLW9tYWUnLCAnPG91dGZpbGUubWFlPic=

> <r_lp_tautomer_probability>
1

> <r_epik_Ionization_Penalty>
0.000793976

> <r_epik_Ionization_Penalty_Charging>
0

> <r_epik_Ionization_Penalty_Neutral>
0.000793976

> <r_epik_State_Penalty>
-0

> <r_epik_Charging_Adjusted_Penalty>
0

> <i_epik_Tot_Q>
0

> <i_epik_Tot_abs_Q>
0

> <r_epik_Metal_State_Penalty>
-0

> <b_epik_Metal_Only>
0

> <s_epik_Chemistry_Notes>
This compound contains an acetal/aminal-like group ( X-CH(R)-Y where X, Y are N, S, or O) that may be acid/base labile, releasing an aldehyde.

> <s_lp_Force_Field>
OPLS_2005

> <r_lp_Energy>
53.6553

> <b_lp_Chiralities_Consistent>
1

> <s_lp_Variant>
AV-unprocessed.smi:109-15

> <Gold.Version>
5.8.1

> <Gold.Id.Protein>
6NUR|6NUR_protein|mol2

> <Gold.PLP.Fitness>
54.4948

> <Gold.PLP.PLP>
-46.5432

> <Gold.PLP.part.hbond>
-4.0000

> <Gold.PLP.part.metal>
0.0000

> <Gold.PLP.part.buried>
-9.2711

> <Gold.PLP.part.nonpolar>
-33.5344

> <Gold.PLP.part.repulsive>
0.2384

> <Gold.PLP.ligand.clash>
0.0000

> <Gold.PLP.ligand.torsion>
1.3045

> <Gold.PLP.Chemscore.Hbond>
3.3700

> <Gold.PLP.Chemscore.CHOScore>
0.0000

> <Gold.PLP.Chemscore.Metal>
0.0000

> <Gold.Chemscore.Hbonds>
donor molecule, donor type, donor heavy atom, donor atom, acceptor molecule, acceptor atom, score
      L1  H    23    47       P1  7948  1.00
      P1  H  6896  6907       L1    16  0.59
      P1  H  7989  7998       L1     7  0.83
      P1  H 10752 10764       L1     9  0.77

> <Gold.PLP.Chemscore.Internal.Correction>
0.4505

> <Gold.Rescore>
     Score         DG    S(hbond)    S(metal)    S(lipo)     H(rot)  DE(clash)    DE(int)     intcor
     10.52     -14.01       2.99        0.00     107.18       5.47       0.37       3.12       ----

> <Gold.Chemscore.Fitness>
10.5227

> <Gold.Chemscore.DG>
-14.0147

> <Gold.Chemscore.ZeroCoef>
-5.4800

> <Gold.Chemscore.Hbond>
2.9905

> <Gold.Chemscore.Metal>
0.0000

> <Gold.Chemscore.Lipo>
107.1806

> <Gold.Chemscore.Internal_Hbond>
0.0000

> <Gold.Chemscore.DEClash>
0.3705

> <Gold.Chemscore.DEInternal>
3.1216

> <Gold.Chemscore.Rot>
5.4662

> <Gold.Chemscore.Internal.Correction>
   9.000000E+99

> <Gold.Chemscore.Hbonds>
donor molecule, donor type, donor heavy atom, donor atom, acceptor molecule, acceptor atom, score
      L1  H    23    47       P1  7948  0.34
      P1  H  6896  6907       L1    16  0.50
      P1  H  7989  7998       L1     7  0.23
      P1  H 10752 10764       L1     9  0.74

> <Gold.Chemscore.Hbond.Weighted>
-9.9881

> <Gold.Chemscore.Metal.Weighted>
-0.0000

> <Gold.Chemscore.Lipo.Weighted>
-12.5401

> <Gold.Chemscore.Internal_Hbond.Weighted>
0.0000

> <Gold.Chemscore.DEClash.Weighted>
0.3705

> <Gold.Chemscore.DEInternal.Weighted>
3.1216

> <Gold.Chemscore.Rot.Weighted>
13.9935

> <Gold.Chemscore.Internal.Correction.Weighted>
   9.000000E+99

> <Gold.Protein.RotatedTorsions>
[ 6907 6896 6895 6894 ] final -125.49 input  -60.11 | X-H torsion
[ 7974 7965 7964 7962 ] final  150.71 input  175.53 | X-H torsion
[ 8008 7997 7996 7995 ] final   91.79 input   59.86 | X-H torsion
[ 10167 10162 10161 10158 ] final  -98.48 input  -65.29 | X-H torsion
[ 10718 10713 10712 10709 ] final -170.59 input   66.30 | X-H torsion
[ 10763 10752 10751 10750 ] final  -88.20 input  -60.55 | X-H torsion
[ 11005 11000 10999 10996 ] final   -8.99 input  -57.11 | X-H torsion

> <Gold.Protein.ActiveResidues>
 VAL166  LYS551  ARG553  GLY616  TRP617  ASP618  TYR619  PRO620  LYS621  CYS622 
 ASP623  PHE694  ASN695  SER759  ASP760  ASP761  ALA762  ILE779  LEU786  VAL792 
 PHE793  MET794  SER795  GLU796  ALA797  LYS798  CYS799  TRP800  GLU811  SER814 

> <Gold.Protein.RotatedAtoms>
  150.8872  133.7291  159.2914 H   0  0  0  0  0  0  0  0  0  0  0  0  # atno 6907 bound_to 6896
  151.4853  135.1053  159.9798 H   0  0  0  0  0  0  0  0  0  0  0  0  # atno 6908 bound_to 6896
  152.4798  133.8179  159.7093 H   0  0  0  0  0  0  0  0  0  0  0  0  # atno 6909 bound_to 6896
  144.8344  139.6444  143.6044 H   0  0  0  0  0  0  0  0  0  0  0  0  # atno 7974 bound_to 7965
  156.0278  140.3333  155.7107 H   0  0  0  0  0  0  0  0  0  0  0  0  # atno 8008 bound_to 7997
  155.5929  140.0648  157.2771 H   0  0  0  0  0  0  0  0  0  0  0  0  # atno 8009 bound_to 7997
  154.4341  140.1824  156.1081 H   0  0  0  0  0  0  0  0  0  0  0  0  # atno 8010 bound_to 7997
  140.2725  143.3335  152.0521 H   0  0  0  0  0  0  0  0  0  0  0  0  # atno 10167 bound_to 10162
  156.7284  130.9297  151.3102 H   0  0  0  0  0  0  0  0  0  0  0  0  # atno 10718 bound_to 10713
  154.6420  135.5385  153.7800 H   0  0  0  0  0  0  0  0  0  0  0  0  # atno 10763 bound_to 10752
  153.0339  135.6461  154.1145 H   0  0  0  0  0  0  0  0  0  0  0  0  # atno 10764 bound_to 10752
  154.1069  135.2929  155.3219 H   0  0  0  0  0  0  0  0  0  0  0  0  # atno 10765 bound_to 10752
  140.7294  133.8762  155.8881 H   0  0  0  0  0  0  0  0  0  0  0  0  # atno 11005 bound_to 11000
  146.2644  139.6486  142.9339 LP  0  0  0  0  0  0  0  0  0  0  0  0  # atno 17320 bound_to 7965
  145.4825  141.0438  143.2638 LP  0  0  0  0  0  0  0  0  0  0  0  0  # atno 17321 bound_to 7965
  139.4985  144.6647  151.6384 LP  0  0  0  0  0  0  0  0  0  0  0  0  # atno 17342 bound_to 10162
  140.5878  143.9833  150.6306 LP  0  0  0  0  0  0  0  0  0  0  0  0  # atno 17343 bound_to 10162
  157.6869  130.9194  150.0409 LP  0  0  0  0  0  0  0  0  0  0  0  0  # atno 17370 bound_to 10713
  156.1546  130.3643  149.9388 LP  0  0  0  0  0  0  0  0  0  0  0  0  # atno 17371 bound_to 10713
  140.9934  134.1247  157.4386 LP  0  0  0  0  0  0  0  0  0  0  0  0  # atno 17394 bound_to 11000
  139.8830  135.0047  156.6268 LP  0  0  0  0  0  0  0  0  0  0  0  0  # atno 17395 bound_to 11000

$$$$
