AV-unprocessed.smi:3259|AV-procd|sdf|12473|dock9
  -GOLD-   2272018373D 1   1.00000     0.00000
 Structure written by MMmdl.
 39 40  0  0  0  0  0  0  0  0  1 V2000
  147.4416  137.5355  156.3896 C   0  0  0  0  0  0  0  0  0  0  0  0
  147.1177  138.8983  156.1428 O   0  0  0  0  0  0  0  0  0  0  0  0
  147.9124  139.5995  155.1764 C   0  0  2  0  0  0  0  0  0  0  0  0
  147.7679  138.9559  153.7915 C   0  0  0  0  0  0  0  0  0  0  0  0
  149.3208  139.8702  155.7398 C   0  0  0  0  0  0  0  0  0  0  0  0
  148.7261  141.0917  156.4377 C   0  0  1  0  0  0  0  0  0  0  0  0
  149.6313  142.2341  156.4409 N   0  0  0  0  0  0  0  0  0  0  0  0
  150.8297  142.2519  157.0436 C   0  0  0  0  0  0  0  0  0  0  0  0
  151.3313  141.2665  157.5838 O   0  0  0  0  0  0  0  0  0  0  0  0
  151.5685  143.5915  157.0536 C   0  0  0  0  0  0  0  0  0  0  0  0
  151.8064  144.0497  158.4122 N   0  0  0  0  0  0  0  0  0  0  0  0
  151.4620  145.2582  158.9818 C   0  0  0  0  0  0  0  0  0  0  0  0
  151.8678  145.2244  160.2851 C   0  0  0  0  0  0  0  0  0  0  0  0
  152.4599  143.9377  160.4214 C   0  0  0  0  0  0  0  0  0  0  0  0
  152.4225  143.2375  159.2991 N   0  0  0  0  0  0  0  0  0  0  0  0
  147.6402  141.1318  155.3310 C   0  0  0  0  0  0  0  0  0  0  0  0
  147.9436  141.9995  154.0931 C   0  0  0  0  0  0  0  0  0  0  0  0
  146.2349  141.5379  155.7879 C   0  0  0  0  0  0  0  0  0  0  0  0
  146.8705  137.1854  157.2493 H   0  0  0  0  0  0  0  0  0  0  0  0
  148.4979  137.3921  156.6148 H   0  0  0  0  0  0  0  0  0  0  0  0
  147.1733  136.8995  155.5461 H   0  0  0  0  0  0  0  0  0  0  0  0
  148.2838  139.5295  153.0221 H   0  0  0  0  0  0  0  0  0  0  0  0
  146.7210  138.8811  153.4964 H   0  0  0  0  0  0  0  0  0  0  0  0
  148.1981  137.9553  153.7597 H   0  0  0  0  0  0  0  0  0  0  0  0
  149.7203  139.1178  156.4188 H   0  0  0  0  0  0  0  0  0  0  0  0
  150.0462  140.1199  154.9635 H   0  0  0  0  0  0  0  0  0  0  0  0
  148.3249  140.8397  157.4222 H   0  0  0  0  0  0  0  0  0  0  0  0
  149.2974  143.0861  156.0147 H   0  0  0  0  0  0  0  0  0  0  0  0
  152.5229  143.5013  156.5323 H   0  0  0  0  0  0  0  0  0  0  0  0
  150.9798  144.3404  156.5226 H   0  0  0  0  0  0  0  0  0  0  0  0
  150.9574  146.0305  158.4200 H   0  0  0  0  0  0  0  0  0  0  0  0
  151.7577  146.0001  161.0282 H   0  0  0  0  0  0  0  0  0  0  0  0
  152.9125  143.4947  161.2962 H   0  0  0  0  0  0  0  0  0  0  0  0
  147.9036  143.0642  154.3262 H   0  0  0  0  0  0  0  0  0  0  0  0
  147.2236  141.8200  153.2941 H   0  0  0  0  0  0  0  0  0  0  0  0
  148.9344  141.8024  153.6833 H   0  0  0  0  0  0  0  0  0  0  0  0
  146.1560  142.6158  155.9332 H   0  0  0  0  0  0  0  0  0  0  0  0
  145.9650  141.0756  156.7375 H   0  0  0  0  0  0  0  0  0  0  0  0
  145.4789  141.2464  155.0581 H   0  0  0  0  0  0  0  0  0  0  0  0
  1  2  1  0  0  0  0
  1 19  1  0  0  0  0
  1 20  1  0  0  0  0
  1 21  1  0  0  0  0
  2  3  1  0  0  0  0
  3 16  1  0  0  0  0
  3  4  1  0  0  0  0
  3  5  1  0  0  0  0
  4 22  1  0  0  0  0
  4 23  1  0  0  0  0
  4 24  1  0  0  0  0
  5  6  1  0  0  0  0
  5 25  1  0  0  0  0
  5 26  1  0  0  0  0
  6  7  1  0  0  0  0
  6 16  1  0  0  0  0
  6 27  1  0  0  0  0
  7  8  1  0  0  0  0
  7 28  1  0  0  0  0
  8  9  2  0  0  0  0
  8 10  1  0  0  0  0
 10 11  1  0  0  0  0
 10 29  1  0  0  0  0
 10 30  1  0  0  0  0
 11 15  1  0  0  0  0
 11 12  1  0  0  0  0
 12 13  2  0  0  0  0
 12 31  1  0  0  0  0
 13 14  1  0  0  0  0
 13 32  1  0  0  0  0
 14 15  2  0  0  0  0
 14 33  1  0  0  0  0
 16 17  1  0  0  0  0
 16 18  1  0  0  0  0
 17 34  1  0  0  0  0
 17 35  1  0  0  0  0
 17 36  1  0  0  0  0
 18 37  1  0  0  0  0
 18 38  1  0  0  0  0
 18 39  1  0  0  0  0
M  END
> <s_m_source_file>
AV-unprocessed.smi

> <i_m_source_file_index>
3259

> <i_lp_mmshare_version>
43012

> <i_f3d_flags>
0

> <s_epik_input>
W0NIM11PW0NAQF0xKFtDSDNdKVtDSDJdW0NASF0oQzEoW0NIM10pW0NIM10pW05IXUMoPU8pW0NIMl1uMltjSF1bY0hdW2NIXW4y

> <s_epik_cmdline>
J2VwaWtfcHl0aG9uJywgJy1waCcsICc3LjAnLCAnLXRuJywgJzgnLCAnLW1hJywgJzIwMCcsICctbWV0YWxfYmluZGluZycsICctaW1hZScsICc8aW5maWxlLm1hZT4nLCAnLW9tYWUnLCAnPG91dGZpbGUubWFlPic=

> <r_lp_tautomer_probability>
1

> <r_epik_Ionization_Penalty>
1.78399e-05

> <r_epik_Ionization_Penalty_Charging>
0

> <r_epik_Ionization_Penalty_Neutral>
1.78399e-05

> <r_epik_State_Penalty>
-0

> <r_epik_Charging_Adjusted_Penalty>
0

> <i_epik_Tot_Q>
0

> <i_epik_Tot_abs_Q>
0

> <r_epik_Metal_State_Penalty>
-0

> <b_epik_Metal_Only>
0

> <s_lp_Force_Field>
OPLS_2005

> <r_lp_Energy>
22.327

> <b_lp_Chiralities_Consistent>
1

> <s_lp_Variant>
AV-unprocessed.smi:3259-2

> <Gold.Version>
5.8.1

> <Gold.Id.Protein>
6NUR|6NUR_protein|mol2

> <Gold.PLP.Fitness>
34.4703

> <Gold.PLP.PLP>
-31.5982

> <Gold.PLP.part.hbond>
-1.0000

> <Gold.PLP.part.metal>
0.0000

> <Gold.PLP.part.buried>
-4.7542

> <Gold.PLP.part.nonpolar>
-25.4353

> <Gold.PLP.part.repulsive>
0.0739

> <Gold.PLP.ligand.clash>
0.0000

> <Gold.PLP.ligand.torsion>
0.2564

> <Gold.PLP.Chemscore.Hbond>
1.0000

> <Gold.PLP.Chemscore.CHOScore>
0.0000

> <Gold.PLP.Chemscore.Metal>
0.0000

> <Gold.Chemscore.Hbonds>
donor molecule, donor type, donor heavy atom, donor atom, acceptor molecule, acceptor atom, score
      L1  H     7    28       P1  8028  1.00

> <Gold.PLP.Chemscore.Internal.Correction>
0.3850

> <Gold.Rescore>
     Score         DG    S(hbond)    S(metal)    S(lipo)     H(rot)  DE(clash)    DE(int)     intcor
     12.48     -14.02       1.00        0.00      79.41       1.60       0.07       1.47       ----

> <Gold.Chemscore.Fitness>
12.4777

> <Gold.Chemscore.DG>
-14.0210

> <Gold.Chemscore.ZeroCoef>
-5.4800

> <Gold.Chemscore.Hbond>
0.9990

> <Gold.Chemscore.Metal>
0.0000

> <Gold.Chemscore.Lipo>
79.4057

> <Gold.Chemscore.Internal_Hbond>
0.0000

> <Gold.Chemscore.DEClash>
0.0732

> <Gold.Chemscore.DEInternal>
1.4700

> <Gold.Chemscore.Rot>
1.5962

> <Gold.Chemscore.Internal.Correction>
   9.000000E+99

> <Gold.Chemscore.Hbonds>
donor molecule, donor type, donor heavy atom, donor atom, acceptor molecule, acceptor atom, score
      L1  H     7    28       P1  8028  1.00

> <Gold.Chemscore.Hbond.Weighted>
-3.3367

> <Gold.Chemscore.Metal.Weighted>
-0.0000

> <Gold.Chemscore.Lipo.Weighted>
-9.2905

> <Gold.Chemscore.Internal_Hbond.Weighted>
0.0000

> <Gold.Chemscore.DEClash.Weighted>
0.0732

> <Gold.Chemscore.DEInternal.Weighted>
1.4700

> <Gold.Chemscore.Rot.Weighted>
4.0862

> <Gold.Chemscore.Internal.Correction.Weighted>
   9.000000E+99

> <Gold.Protein.RotatedTorsions>
[ 6907 6896 6895 6894 ] final  -52.12 input  -60.11 | X-H torsion
[ 7974 7965 7964 7962 ] final   -2.36 input  175.53 | X-H torsion
[ 8008 7997 7996 7995 ] final  -22.31 input   59.86 | X-H torsion
[ 10167 10162 10161 10158 ] final  149.52 input  -65.29 | X-H torsion
[ 10718 10713 10712 10709 ] final  169.28 input   66.30 | X-H torsion
[ 10763 10752 10751 10750 ] final  172.96 input  -60.55 | X-H torsion
[ 11005 11000 10999 10996 ] final   72.87 input  -57.11 | X-H torsion

> <Gold.Protein.ActiveResidues>
 VAL166  LYS551  ARG553  GLY616  TRP617  ASP618  TYR619  PRO620  LYS621  CYS622 
 ASP623  PHE694  ASN695  SER759  ASP760  ASP761  ALA762  ILE779  LEU786  VAL792 
 PHE793  MET794  SER795  GLU796  ALA797  LYS798  CYS799  TRP800  GLU811  SER814 

> <Gold.Protein.RotatedAtoms>
  150.8547  134.7883  159.7036 H   0  0  0  0  0  0  0  0  0  0  0  0  # atno 6907 bound_to 6896
  152.4602  134.5198  159.9789 H   0  0  0  0  0  0  0  0  0  0  0  0  # atno 6908 bound_to 6896
  151.5312  133.3410  159.2954 H   0  0  0  0  0  0  0  0  0  0  0  0  # atno 6909 bound_to 6896
  146.2405  140.1559  142.8333 H   0  0  0  0  0  0  0  0  0  0  0  0  # atno 7974 bound_to 7965
  154.4652  140.2011  156.0138 H   0  0  0  0  0  0  0  0  0  0  0  0  # atno 8008 bound_to 7997
  156.0913  140.3257  155.7791 H   0  0  0  0  0  0  0  0  0  0  0  0  # atno 8009 bound_to 7997
  155.4951  140.0549  157.2938 H   0  0  0  0  0  0  0  0  0  0  0  0  # atno 8010 bound_to 7997
  139.4860  144.5595  151.7257 H   0  0  0  0  0  0  0  0  0  0  0  0  # atno 10167 bound_to 10162
  157.0250  131.0243  151.2763 H   0  0  0  0  0  0  0  0  0  0  0  0  # atno 10718 bound_to 10713
  154.4334  135.2760  155.1897 H   0  0  0  0  0  0  0  0  0  0  0  0  # atno 10763 bound_to 10752
  154.3793  135.6091  153.5785 H   0  0  0  0  0  0  0  0  0  0  0  0  # atno 10764 bound_to 10752
  152.9837  135.5876  154.4650 H   0  0  0  0  0  0  0  0  0  0  0  0  # atno 10765 bound_to 10752
  139.9468  134.7298  156.0959 H   0  0  0  0  0  0  0  0  0  0  0  0  # atno 11005 bound_to 11000
  145.0129  140.8729  143.5213 LP  0  0  0  0  0  0  0  0  0  0  0  0  # atno 17320 bound_to 7965
  145.1595  139.2466  143.5399 LP  0  0  0  0  0  0  0  0  0  0  0  0  # atno 17321 bound_to 7965
  140.5162  144.0949  150.6009 LP  0  0  0  0  0  0  0  0  0  0  0  0  # atno 17342 bound_to 10162
  140.3892  143.2761  152.0080 LP  0  0  0  0  0  0  0  0  0  0  0  0  # atno 17343 bound_to 10162
  157.5221  130.8005  149.7821 LP  0  0  0  0  0  0  0  0  0  0  0  0  # atno 17370 bound_to 10713
  156.0089  130.3842  150.2333 LP  0  0  0  0  0  0  0  0  0  0  0  0  # atno 17371 bound_to 10713
  141.1121  133.6640  156.3004 LP  0  0  0  0  0  0  0  0  0  0  0  0  # atno 17394 bound_to 11000
  140.5814  134.5742  157.5480 LP  0  0  0  0  0  0  0  0  0  0  0  0  # atno 17395 bound_to 11000

$$$$
