AV-unprocessed.smi:21|AV-procd|sdf|165|dock10
  -GOLD-   2262015413D 1   1.00000     0.00000
 Structure written by MMmdl.
 61 64  0  0  0  0  0  0  0  0  1 V2000
  152.4635  143.5355  162.7467 C   0  0  0  0  0  0  0  0  0  0  0  0
  151.9022  142.5459  161.8988 O   0  0  0  0  0  0  0  0  0  0  0  0
  152.5488  142.4497  160.6368 C   0  0  1  0  0  0  0  0  0  0  0  0
  151.8957  141.3859  159.7378 C   0  0  0  0  0  0  0  0  0  0  0  0
  151.6529  142.1154  158.4116 C   0  0  1  0  0  0  0  0  0  0  0  0
  150.5538  141.4731  157.5362 C   0  0  0  0  0  0  0  0  0  0  0  0
  151.0176  140.2822  156.8230 N   0  0  0  0  0  0  0  0  0  0  0  0
  152.0149  140.4688  155.7699 C   0  0  0  0  0  0  0  0  0  0  0  0
  150.2347  139.1650  156.7830 C   0  0  0  0  0  0  0  0  0  0  0  0
  149.1342  139.1153  157.5834 N   0  0  0  0  0  0  0  0  0  0  0  0
  148.3296  138.0495  157.5832 C   0  0  0  0  0  0  0  0  0  0  0  0
  148.4286  136.9322  156.8642 N   0  0  0  0  0  0  0  0  0  0  0  0
  149.5188  136.9699  156.0477 C   0  0  0  0  0  0  0  0  0  0  0  0
  150.4658  138.0314  155.9427 C   0  0  0  0  0  0  0  0  0  0  0  0
  151.4225  137.6952  154.9899 N   0  0  0  0  0  0  0  0  0  0  0  0
  151.0744  136.5103  154.5725 C   0  0  0  0  0  0  0  0  0  0  0  0
  149.9349  136.0032  155.1500 N   0  0  0  0  0  0  0  0  0  0  0  0
  149.3121  134.7207  154.8751 C   0  0  0  0  0  0  0  0  0  0  0  0
  150.3168  133.5420  154.9384 C   0  0  1  0  0  0  0  0  0  0  0  0
  151.1119  133.5528  156.2648 C   0  0  0  0  0  0  0  0  0  0  0  0
  150.2618  133.3486  157.3740 O   0  0  0  0  0  0  0  0  0  0  0  0
  149.6617  132.1598  154.6669 C   0  0  1  0  0  0  0  0  0  0  0  0
  149.1242  131.9196  153.2635 C   0  0  0  0  0  0  0  0  0  0  0  0
  149.0655  130.3991  153.2187 C   0  0  0  0  0  0  0  0  0  0  0  0
  150.2618  130.0045  153.8734 O   0  0  0  0  0  0  0  0  0  0  0  0
  150.5603  130.9357  154.9111 C   0  0  0  0  0  0  0  0  0  0  0  0
  151.3832  143.4866  158.8101 N   0  0  0  0  0  0  0  0  0  0  0  0
  151.4637  144.4480  157.7186 C   0  0  0  0  0  0  0  0  0  0  0  0
  152.3586  143.7555  159.8524 C   0  0  0  0  0  0  0  0  0  0  0  0
  153.6160  142.2617  160.7666 H   0  0  0  0  0  0  0  0  0  0  0  0
  152.5939  142.1039  157.8595 H   0  0  0  0  0  0  0  0  0  0  0  0
  151.9191  143.5569  163.6906 H   0  0  0  0  0  0  0  0  0  0  0  0
  152.3923  144.5262  162.2960 H   0  0  0  0  0  0  0  0  0  0  0  0
  153.5106  143.3285  162.9704 H   0  0  0  0  0  0  0  0  0  0  0  0
  152.5167  140.4975  159.6192 H   0  0  0  0  0  0  0  0  0  0  0  0
  150.9474  141.0749  160.1722 H   0  0  0  0  0  0  0  0  0  0  0  0
  149.6618  141.2852  158.1293 H   0  0  0  0  0  0  0  0  0  0  0  0
  150.2380  142.1892  156.7772 H   0  0  0  0  0  0  0  0  0  0  0  0
  152.6687  139.5988  155.6991 H   0  0  0  0  0  0  0  0  0  0  0  0
  152.6431  141.3374  155.9634 H   0  0  0  0  0  0  0  0  0  0  0  0
  151.5316  140.6205  154.8041 H   0  0  0  0  0  0  0  0  0  0  0  0
  147.4854  138.1004  158.2552 H   0  0  0  0  0  0  0  0  0  0  0  0
  151.6365  135.9761  153.8202 H   0  0  0  0  0  0  0  0  0  0  0  0
  148.5047  134.5759  155.5931 H   0  0  0  0  0  0  0  0  0  0  0  0
  148.8416  134.7911  153.8951 H   0  0  0  0  0  0  0  0  0  0  0  0
  151.0404  133.6990  154.1364 H   0  0  0  0  0  0  0  0  0  0  0  0
  151.8556  132.7568  156.2830 H   0  0  0  0  0  0  0  0  0  0  0  0
  151.6496  134.4931  156.3891 H   0  0  0  0  0  0  0  0  0  0  0  0
  149.4412  133.7877  157.2096 H   0  0  0  0  0  0  0  0  0  0  0  0
  148.8172  132.0429  155.3475 H   0  0  0  0  0  0  0  0  0  0  0  0
  148.1533  132.3850  153.0912 H   0  0  0  0  0  0  0  0  0  0  0  0
  149.8143  132.2730  152.4982 H   0  0  0  0  0  0  0  0  0  0  0  0
  148.2049  130.0263  153.7766 H   0  0  0  0  0  0  0  0  0  0  0  0
  149.0153  130.0070  152.2027 H   0  0  0  0  0  0  0  0  0  0  0  0
  151.6238  131.1687  154.8828 H   0  0  0  0  0  0  0  0  0  0  0  0
  150.3517  130.4913  155.8850 H   0  0  0  0  0  0  0  0  0  0  0  0
  151.3043  145.4612  158.0888 H   0  0  0  0  0  0  0  0  0  0  0  0
  150.7004  144.2503  156.9662 H   0  0  0  0  0  0  0  0  0  0  0  0
  152.4391  144.4143  157.2317 H   0  0  0  0  0  0  0  0  0  0  0  0
  152.0441  144.5850  160.4867 H   0  0  0  0  0  0  0  0  0  0  0  0
  153.3135  144.0341  159.4030 H   0  0  0  0  0  0  0  0  0  0  0  0
  1  2  1  0  0  0  0
  1 32  1  0  0  0  0
  1 33  1  0  0  0  0
  1 34  1  0  0  0  0
  2  3  1  0  0  0  0
  3 30  1  0  0  0  0
  3 29  1  0  0  0  0
  3  4  1  0  0  0  0
  4  5  1  0  0  0  0
  4 35  1  0  0  0  0
  4 36  1  0  0  0  0
  5 31  1  0  0  0  0
  5  6  1  0  0  0  0
  5 27  1  0  0  0  0
  6  7  1  0  0  0  0
  6 37  1  0  0  0  0
  6 38  1  0  0  0  0
  7  8  1  0  0  0  0
  7  9  1  0  0  0  0
  8 39  1  0  0  0  0
  8 40  1  0  0  0  0
  8 41  1  0  0  0  0
  9 14  1  0  0  0  0
  9 10  2  0  0  0  0
 10 11  1  0  0  0  0
 11 12  2  0  0  0  0
 11 42  1  0  0  0  0
 12 13  1  0  0  0  0
 13 17  1  0  0  0  0
 13 14  2  0  0  0  0
 14 15  1  0  0  0  0
 15 16  2  0  0  0  0
 16 17  1  0  0  0  0
 16 43  1  0  0  0  0
 17 18  1  0  0  0  0
 18 19  1  0  0  0  0
 18 44  1  0  0  0  0
 18 45  1  0  0  0  0
 19 20  1  0  0  0  0
 19 22  1  0  0  0  0
 19 46  1  0  0  0  0
 20 21  1  0  0  0  0
 20 47  1  0  0  0  0
 20 48  1  0  0  0  0
 21 49  1  0  0  0  0
 22 26  1  0  0  0  0
 22 23  1  0  0  0  0
 22 50  1  0  0  0  0
 23 24  1  0  0  0  0
 23 51  1  0  0  0  0
 23 52  1  0  0  0  0
 24 25  1  0  0  0  0
 24 53  1  0  0  0  0
 24 54  1  0  0  0  0
 25 26  1  0  0  0  0
 26 55  1  0  0  0  0
 26 56  1  0  0  0  0
 27 28  1  0  0  0  0
 27 29  1  0  0  0  0
 28 57  1  0  0  0  0
 28 58  1  0  0  0  0
 28 59  1  0  0  0  0
 29 60  1  0  0  0  0
 29 61  1  0  0  0  0
M  END
> <s_m_source_file>
AV-unprocessed.smi

> <i_m_source_file_index>
21

> <i_lp_mmshare_version>
43012

> <i_f3d_flags>
0

> <s_epik_input>
W0NIM11PW0NASF0xW0NIMl1bQ0BIXShOKFtDSDNdKVtDSDJdMSlbQ0gyXU4oW0NIM10pYyhuW2NIXW4yKWMoYzIzKW5bY0hdbjNbQ0gyXVtDQEhdKFtDSDJdW09IXSlbQ0BASF00W0NIMl1bQ0gyXU9bQ0gyXTQ=

> <s_epik_cmdline>
J2VwaWtfcHl0aG9uJywgJy1waCcsICc3LjAnLCAnLXRuJywgJzgnLCAnLW1hJywgJzIwMCcsICctbWV0YWxfYmluZGluZycsICctaW1hZScsICc8aW5maWxlLm1hZT4nLCAnLW9tYWUnLCAnPG91dGZpbGUubWFlPic=

> <r_lp_tautomer_probability>
1

> <r_epik_Ionization_Penalty>
2.17574

> <r_epik_Ionization_Penalty_Charging>
0

> <r_epik_Ionization_Penalty_Neutral>
2.17574

> <r_epik_State_Penalty>
2.31336

> <r_epik_Charging_Adjusted_Penalty>
2.31336

> <i_epik_Tot_Q>
0

> <i_epik_Tot_abs_Q>
0

> <r_epik_Metal_State_Penalty>
2.31025

> <b_epik_Metal_Only>
0

> <s_lp_Force_Field>
OPLS_2005

> <r_lp_Energy>
71.9314

> <b_lp_Chiralities_Consistent>
1

> <s_lp_Variant>
AV-unprocessed.smi:21-45

> <Gold.Version>
5.8.1

> <Gold.Id.Protein>
6NUR|6NUR_protein|mol2

> <Gold.PLP.Fitness>
52.8805

> <Gold.PLP.PLP>
-46.3964

> <Gold.PLP.part.hbond>
-1.5881

> <Gold.PLP.part.metal>
0.0000

> <Gold.PLP.part.buried>
-4.3934

> <Gold.PLP.part.nonpolar>
-40.6642

> <Gold.PLP.part.repulsive>
0.3735

> <Gold.PLP.ligand.clash>
0.0000

> <Gold.PLP.ligand.torsion>
0.5910

> <Gold.PLP.Chemscore.Hbond>
1.3289

> <Gold.PLP.Chemscore.CHOScore>
1.0000

> <Gold.PLP.Chemscore.Metal>
0.0000

> <Gold.Chemscore.Hbonds>
donor molecule, donor type, donor heavy atom, donor atom, acceptor molecule, acceptor atom, score
      P1  H  6896  6908       L1    21  1.00
      P1  H  6933  6945       L1     2  0.83
      L1  C    16    43       P1  7949  0.92

> <Gold.PLP.Chemscore.Internal.Correction>
0.6793

> <Gold.Rescore>
     Score         DG    S(hbond)    S(metal)    S(lipo)     H(rot)  DE(clash)    DE(int)     intcor
     12.86     -15.01       1.19        0.00     113.22       3.00       0.25       1.89       ----

> <Gold.Chemscore.Fitness>
12.8640

> <Gold.Chemscore.DG>
-15.0070

> <Gold.Chemscore.ZeroCoef>
-5.4800

> <Gold.Chemscore.Hbond>
1.1881

> <Gold.Chemscore.Metal>
0.0000

> <Gold.Chemscore.Lipo>
113.2211

> <Gold.Chemscore.Internal_Hbond>
0.0000

> <Gold.Chemscore.DEClash>
0.2533

> <Gold.Chemscore.DEInternal>
1.8897

> <Gold.Chemscore.Rot>
3.0031

> <Gold.Chemscore.Internal.Correction>
   9.000000E+99

> <Gold.Chemscore.Hbonds>
donor molecule, donor type, donor heavy atom, donor atom, acceptor molecule, acceptor atom, score
      P1  H  6896  6908       L1    21  0.84
      P1  H  6933  6945       L1     2  0.74

> <Gold.Chemscore.Hbond.Weighted>
-3.9682

> <Gold.Chemscore.Metal.Weighted>
-0.0000

> <Gold.Chemscore.Lipo.Weighted>
-13.2469

> <Gold.Chemscore.Internal_Hbond.Weighted>
0.0000

> <Gold.Chemscore.DEClash.Weighted>
0.2533

> <Gold.Chemscore.DEInternal.Weighted>
1.8897

> <Gold.Chemscore.Rot.Weighted>
7.6880

> <Gold.Chemscore.Internal.Correction.Weighted>
   9.000000E+99

> <Gold.Protein.RotatedTorsions>
[ 6907 6896 6895 6894 ] final  101.79 input  -60.11 | X-H torsion
[ 7974 7965 7964 7962 ] final   63.67 input  175.53 | X-H torsion
[ 8008 7997 7996 7995 ] final -176.40 input   59.86 | X-H torsion
[ 10167 10162 10161 10158 ] final  -20.67 input  -65.29 | X-H torsion
[ 10718 10713 10712 10709 ] final -120.94 input   66.30 | X-H torsion
[ 10763 10752 10751 10750 ] final  107.96 input  -60.55 | X-H torsion
[ 11005 11000 10999 10996 ] final   14.93 input  -57.11 | X-H torsion

> <Gold.Protein.ActiveResidues>
 VAL166  LYS551  ARG553  GLY616  TRP617  ASP618  TYR619  PRO620  LYS621  CYS622 
 ASP623  PHE694  ASN695  SER759  ASP760  ASP761  ALA762  ILE779  LEU786  VAL792 
 PHE793  MET794  SER795  GLU796  ALA797  LYS798  CYS799  TRP800  GLU811  SER814 

> <Gold.Protein.RotatedAtoms>
  152.5340  134.0072  159.7921 H   0  0  0  0  0  0  0  0  0  0  0  0  # atno 6907 bound_to 6896
  151.0281  133.5807  159.2671 H   0  0  0  0  0  0  0  0  0  0  0  0  # atno 6908 bound_to 6896
  151.2822  135.0724  159.9227 H   0  0  0  0  0  0  0  0  0  0  0  0  # atno 6909 bound_to 6896
  145.8591  139.3303  143.0829 H   0  0  0  0  0  0  0  0  0  0  0  0  # atno 7974 bound_to 7965
  155.9944  140.1207  157.0607 H   0  0  0  0  0  0  0  0  0  0  0  0  # atno 8008 bound_to 7997
  154.4222  140.1119  156.5679 H   0  0  0  0  0  0  0  0  0  0  0  0  # atno 8009 bound_to 7997
  155.6298  140.3473  155.4681 H   0  0  0  0  0  0  0  0  0  0  0  0  # atno 8010 bound_to 7997
  140.7277  143.4701  151.0259 H   0  0  0  0  0  0  0  0  0  0  0  0  # atno 10167 bound_to 10162
  156.1298  130.6387  150.9602 H   0  0  0  0  0  0  0  0  0  0  0  0  # atno 10718 bound_to 10713
  153.4141  135.3827  155.2069 H   0  0  0  0  0  0  0  0  0  0  0  0  # atno 10763 bound_to 10752
  154.8740  135.3801  154.4465 H   0  0  0  0  0  0  0  0  0  0  0  0  # atno 10764 bound_to 10752
  153.4977  135.7088  153.5911 H   0  0  0  0  0  0  0  0  0  0  0  0  # atno 10765 bound_to 10752
  140.4640  134.1098  155.7721 H   0  0  0  0  0  0  0  0  0  0  0  0  # atno 11005 bound_to 11000
  145.9269  140.9076  143.0376 LP  0  0  0  0  0  0  0  0  0  0  0  0  # atno 17320 bound_to 7965
  144.6727  140.1364  143.7440 LP  0  0  0  0  0  0  0  0  0  0  0  0  # atno 17321 bound_to 7965
  139.8392  143.7587  152.3180 LP  0  0  0  0  0  0  0  0  0  0  0  0  # atno 17342 bound_to 10162
  139.7729  144.7470  151.0198 LP  0  0  0  0  0  0  0  0  0  0  0  0  # atno 17343 bound_to 10162
  157.6477  131.0901  150.8118 LP  0  0  0  0  0  0  0  0  0  0  0  0  # atno 17370 bound_to 10713
  156.8205  130.4982  149.5344 LP  0  0  0  0  0  0  0  0  0  0  0  0  # atno 17371 bound_to 10713
  141.1608  133.8796  157.1853 LP  0  0  0  0  0  0  0  0  0  0  0  0  # atno 17394 bound_to 11000
  139.9927  135.0058  157.0012 LP  0  0  0  0  0  0  0  0  0  0  0  0  # atno 17395 bound_to 11000

$$$$
