AV-unprocessed.smi:2775|AV-procd|sdf|10700|dock3
  -GOLD-   2272015133D 1   1.00000     0.00000
 Structure written by MMmdl.
 43 46  0  0  0  0  0  0  0  0  2 V2000
  146.5248  130.1851  152.3678 C   0  0  0  0  0  0  0  0  0  0  0  0
  147.6246  130.9641  153.0635 C   0  0  0  0  0  0  0  0  0  0  0  0
  148.6436  130.2631  153.6088 N   0  3  0  0  0  0  0  0  0  0  0  0
  149.6738  130.8457  154.2572 C   0  0  0  0  0  0  0  0  0  0  0  0
  149.7210  132.2476  154.3848 C   0  0  0  0  0  0  0  0  0  0  0  0
  148.6858  133.0319  153.8173 C   0  0  0  0  0  0  0  0  0  0  0  0
  148.6466  134.4486  153.9151 N   0  0  0  0  0  0  0  0  0  0  0  0
  148.9892  135.2270  154.9593 C   0  0  0  0  0  0  0  0  0  0  0  0
  149.3395  134.8074  156.0601 O   0  0  0  0  0  0  0  0  0  0  0  0
  148.9676  136.5424  154.6831 N   0  0  0  0  0  0  0  0  0  0  0  0
  149.2859  137.6472  155.5946 C   0  0  2  0  0  0  0  0  0  0  0  0
  148.3352  138.8678  155.4719 C   0  0  2  0  0  0  0  0  0  0  0  0
  147.0467  138.8510  154.6828 C   0  0  0  0  0  0  0  0  0  0  0  0
  147.4446  139.5186  153.3640 C   0  0  0  0  0  0  0  0  0  0  0  0
  148.8598  139.3654  153.2921 O   0  0  0  0  0  0  0  0  0  0  0  0
  149.3839  139.5517  154.6029 C   0  0  2  0  0  0  0  0  0  0  0  0
  150.4284  138.5192  155.0470 C   0  0  0  0  0  0  0  0  0  0  0  0
  151.5042  138.0040  154.0759 C   0  0  0  0  0  0  0  0  0  0  0  0
  152.4951  138.9584  154.7477 C   0  0  0  0  0  0  0  0  0  0  0  0
  151.5719  138.9683  155.9695 C   0  0  0  0  0  0  0  0  0  0  0  0
  147.6166  132.3756  153.1593 C   0  0  0  0  0  0  0  0  0  0  0  0
  146.3170  133.2891  152.4679 Cl  0  0  0  0  0  0  0  0  0  0  0  0
  146.4272  130.5086  151.3311 H   0  0  0  0  0  0  0  0  0  0  0  0
  145.5705  130.3458  152.8704 H   0  0  0  0  0  0  0  0  0  0  0  0
  146.7321  129.1143  152.3693 H   0  0  0  0  0  0  0  0  0  0  0  0
  150.4217  130.1766  154.6577 H   0  0  0  0  0  0  0  0  0  0  0  0
  150.5419  132.6957  154.9240 H   0  0  0  0  0  0  0  0  0  0  0  0
  148.4619  134.9363  153.0503 H   0  0  0  0  0  0  0  0  0  0  0  0
  148.7764  136.8043  153.7265 H   0  0  0  0  0  0  0  0  0  0  0  0
  149.4619  137.3398  156.6270 H   0  0  0  0  0  0  0  0  0  0  0  0
  148.2456  139.3746  156.4339 H   0  0  0  0  0  0  0  0  0  0  0  0
  146.6727  137.8434  154.5119 H   0  0  0  0  0  0  0  0  0  0  0  0
  146.2524  139.4082  155.1801 H   0  0  0  0  0  0  0  0  0  0  0  0
  146.9496  139.0731  152.5009 H   0  0  0  0  0  0  0  0  0  0  0  0
  147.2040  140.5826  153.3855 H   0  0  0  0  0  0  0  0  0  0  0  0
  149.5787  140.5921  154.8670 H   0  0  0  0  0  0  0  0  0  0  0  0
  151.7594  136.9560  154.2402 H   0  0  0  0  0  0  0  0  0  0  0  0
  151.3144  138.2121  153.0226 H   0  0  0  0  0  0  0  0  0  0  0  0
  153.4854  138.5383  154.9254 H   0  0  0  0  0  0  0  0  0  0  0  0
  152.5486  139.9288  154.2517 H   0  0  0  0  0  0  0  0  0  0  0  0
  151.4369  139.9468  156.4314 H   0  0  0  0  0  0  0  0  0  0  0  0
  151.8439  138.2101  156.7056 H   0  0  0  0  0  0  0  0  0  0  0  0
  148.6308  129.2457  153.5309 H   0  0  0  0  0  0  0  0  0  0  0  0
  1  2  1  0  0  0  0
  1 23  1  0  0  0  0
  1 24  1  0  0  0  0
  1 25  1  0  0  0  0
  2 21  1  0  0  0  0
  2  3  2  0  0  0  0
  3  4  1  0  0  0  0
  3 43  1  0  0  0  0
  4  5  2  0  0  0  0
  4 26  1  0  0  0  0
  5  6  1  0  0  0  0
  5 27  1  0  0  0  0
  6  7  1  0  0  0  0
  6 21  2  0  0  0  0
  7  8  1  0  0  0  0
  7 28  1  0  0  0  0
  8  9  2  0  0  0  0
  8 10  1  0  0  0  0
 10 11  1  0  0  0  0
 10 29  1  0  0  0  0
 11 17  1  0  0  0  0
 11 12  1  0  0  0  0
 11 30  1  0  0  0  0
 12 16  1  0  0  0  0
 12 13  1  0  0  0  0
 12 31  1  0  0  0  0
 13 14  1  0  0  0  0
 13 32  1  0  0  0  0
 13 33  1  0  0  0  0
 14 15  1  0  0  0  0
 14 34  1  0  0  0  0
 14 35  1  0  0  0  0
 15 16  1  0  0  0  0
 16 17  1  0  0  0  0
 16 36  1  0  0  0  0
 17 20  1  0  0  0  0
 17 18  1  0  0  0  0
 18 19  1  0  0  0  0
 18 37  1  0  0  0  0
 18 38  1  0  0  0  0
 19 20  1  0  0  0  0
 19 39  1  0  0  0  0
 19 40  1  0  0  0  0
 20 41  1  0  0  0  0
 20 42  1  0  0  0  0
 21 22  1  0  0  0  0
M  CHG  1   3   1
M  END
> <s_m_source_file>
AV-unprocessed.smi

> <i_m_source_file_index>
2775

> <i_lp_mmshare_version>
43012

> <i_f3d_flags>
0

> <s_epik_input>
W0NIM11jMW5bY0hdW2NIXWMoYzFDbClbTkhdQyg9TylbTkhdW0NAQEhdMltDQEhdKFtDSDJdW0NIMl1PMylbQ0BASF0zQzI0W0NIMl1bQ0gyXVtDSDJdNA==

> <s_epik_cmdline>
J2VwaWtfcHl0aG9uJywgJy1waCcsICc3LjAnLCAnLXRuJywgJzgnLCAnLW1hJywgJzIwMCcsICctbWV0YWxfYmluZGluZycsICctaW1hZScsICc8aW5maWxlLm1hZT4nLCAnLW9tYWUnLCAnPG91dGZpbGUubWFlPic=

> <r_epik_Ionization_Penalty>
2.4104

> <r_epik_Ionization_Penalty_Charging>
2.41038

> <r_epik_Ionization_Penalty_Neutral>
1.9872e-05

> <r_epik_State_Penalty>
2.56896

> <r_epik_Charging_Adjusted_Penalty>
4.97934

> <i_epik_Tot_Q>
1

> <i_epik_Tot_abs_Q>
1

> <r_epik_Metal_State_Penalty>
2.57906

> <b_epik_Metal_Only>
0

> <s_lp_Force_Field>
OPLS_2005

> <r_lp_Energy>
62.9708

> <b_lp_Chiralities_Consistent>
1

> <s_lp_Variant>
AV-unprocessed.smi:2775-13

> <Gold.Version>
5.8.1

> <Gold.Id.Protein>
6NUR|6NUR_protein|mol2

> <Gold.PLP.Fitness>
35.6158

> <Gold.PLP.PLP>
-30.5625

> <Gold.PLP.part.hbond>
-2.0000

> <Gold.PLP.part.metal>
0.0000

> <Gold.PLP.part.buried>
-3.8265

> <Gold.PLP.part.nonpolar>
-28.5557

> <Gold.PLP.part.repulsive>
4.9980

> <Gold.PLP.ligand.clash>
0.0000

> <Gold.PLP.ligand.torsion>
0.4328

> <Gold.PLP.Chemscore.Hbond>
1.9040

> <Gold.PLP.Chemscore.CHOScore>
0.0000

> <Gold.PLP.Chemscore.Metal>
0.0000

> <Gold.Chemscore.Hbonds>
donor molecule, donor type, donor heavy atom, donor atom, acceptor molecule, acceptor atom, score
      L1  H     7    28       P1  7948  0.96
      L1  H    10    29       P1  7948  0.86

> <Gold.PLP.Chemscore.Internal.Correction>
0.2069

> <Gold.Rescore>
     Score         DG    S(hbond)    S(metal)    S(lipo)     H(rot)  DE(clash)    DE(int)     intcor
     15.89     -18.72       1.68        0.00      87.14       1.00       1.77       1.05       ----

> <Gold.Chemscore.Fitness>
15.8916

> <Gold.Chemscore.DG>
-18.7163

> <Gold.Chemscore.ZeroCoef>
-5.4800

> <Gold.Chemscore.Hbond>
1.6770

> <Gold.Chemscore.Metal>
0.0000

> <Gold.Chemscore.Lipo>
87.1368

> <Gold.Chemscore.Internal_Hbond>
0.0000

> <Gold.Chemscore.DEClash>
1.7739

> <Gold.Chemscore.DEInternal>
1.0508

> <Gold.Chemscore.Rot>
1.0000

> <Gold.Chemscore.Internal.Correction>
   9.000000E+99

> <Gold.Chemscore.Hbonds>
donor molecule, donor type, donor heavy atom, donor atom, acceptor molecule, acceptor atom, score
      L1  H     7    28       P1  7948  0.65
      L1  H    10    29       P1  7948  0.84

> <Gold.Chemscore.Hbond.Weighted>
-5.6013

> <Gold.Chemscore.Metal.Weighted>
-0.0000

> <Gold.Chemscore.Lipo.Weighted>
-10.1950

> <Gold.Chemscore.Internal_Hbond.Weighted>
0.0000

> <Gold.Chemscore.DEClash.Weighted>
1.7739

> <Gold.Chemscore.DEInternal.Weighted>
1.0508

> <Gold.Chemscore.Rot.Weighted>
2.5600

> <Gold.Chemscore.Internal.Correction.Weighted>
   9.000000E+99

> <Gold.Protein.RotatedTorsions>
[ 6907 6896 6895 6894 ] final  106.11 input  -60.11 | X-H torsion
[ 7974 7965 7964 7962 ] final    0.98 input  175.53 | X-H torsion
[ 8008 7997 7996 7995 ] final   51.80 input   59.86 | X-H torsion
[ 10167 10162 10161 10158 ] final -155.47 input  -65.29 | X-H torsion
[ 10718 10713 10712 10709 ] final   -1.12 input   66.30 | X-H torsion
[ 10763 10752 10751 10750 ] final  -95.12 input  -60.55 | X-H torsion
[ 11005 11000 10999 10996 ] final  -40.35 input  -57.11 | X-H torsion

> <Gold.Protein.ActiveResidues>
 VAL166  LYS551  ARG553  GLY616  TRP617  ASP618  TYR619  PRO620  LYS621  CYS622 
 ASP623  PHE694  ASN695  SER759  ASP760  ASP761  ALA762  ILE779  LEU786  VAL792 
 PHE793  MET794  SER795  GLU796  ALA797  LYS798  CYS799  TRP800  GLU811  SER814 

> <Gold.Protein.RotatedAtoms>
  152.5206  133.9430  159.7635 H   0  0  0  0  0  0  0  0  0  0  0  0  # atno 6907 bound_to 6896
  150.9756  133.6290  159.2738 H   0  0  0  0  0  0  0  0  0  0  0  0  # atno 6908 bound_to 6896
  151.3486  135.0885  159.9448 H   0  0  0  0  0  0  0  0  0  0  0  0  # atno 6909 bound_to 6896
  146.2438  140.1055  142.8346 H   0  0  0  0  0  0  0  0  0  0  0  0  # atno 7974 bound_to 7965
  155.4412  140.3454  155.4290 H   0  0  0  0  0  0  0  0  0  0  0  0  # atno 8008 bound_to 7997
  156.1277  140.1505  156.9141 H   0  0  0  0  0  0  0  0  0  0  0  0  # atno 8009 bound_to 7997
  154.4871  140.0852  156.7490 H   0  0  0  0  0  0  0  0  0  0  0  0  # atno 8010 bound_to 7997
  139.6928  143.9391  152.2393 H   0  0  0  0  0  0  0  0  0  0  0  0  # atno 10167 bound_to 10162
  156.8103  130.5422  149.5710 H   0  0  0  0  0  0  0  0  0  0  0  0  # atno 10718 bound_to 10713
  154.7119  135.5132  153.8679 H   0  0  0  0  0  0  0  0  0  0  0  0  # atno 10763 bound_to 10752
  153.0788  135.6625  154.0098 H   0  0  0  0  0  0  0  0  0  0  0  0  # atno 10764 bound_to 10752
  153.9938  135.3017  155.3389 H   0  0  0  0  0  0  0  0  0  0  0  0  # atno 10765 bound_to 10752
  141.0168  133.6881  156.2309 H   0  0  0  0  0  0  0  0  0  0  0  0  # atno 11005 bound_to 11000
  145.0532  140.9033  143.4983 LP  0  0  0  0  0  0  0  0  0  0  0  0  # atno 17320 bound_to 7965
  145.1157  139.2727  143.5614 LP  0  0  0  0  0  0  0  0  0  0  0  0  # atno 17321 bound_to 7965
  139.9212  144.6798  150.8459 LP  0  0  0  0  0  0  0  0  0  0  0  0  # atno 17342 bound_to 10162
  140.7688  143.3373  151.2281 LP  0  0  0  0  0  0  0  0  0  0  0  0  # atno 17343 bound_to 10162
  156.1048  130.5996  150.9953 LP  0  0  0  0  0  0  0  0  0  0  0  0  # atno 17370 bound_to 10713
  157.6509  131.0897  150.8052 LP  0  0  0  0  0  0  0  0  0  0  0  0  # atno 17371 bound_to 10713
  140.6641  134.4937  157.5584 LP  0  0  0  0  0  0  0  0  0  0  0  0  # atno 17394 bound_to 11000
  139.9122  134.8321  156.1490 LP  0  0  0  0  0  0  0  0  0  0  0  0  # atno 17395 bound_to 11000

$$$$
