AV-unprocessed.smi:1830|AV-procd|sdf|7446|dock1
  -GOLD-   22720 9133D 1   1.00000     0.00000
 Structure written by MMmdl.
 54 57  0  0  0  0  0  0  0  0  3 V2000
  146.8294  138.4437  155.1836 O   0  0  0  0  0  0  0  0  0  0  0  0
  147.2858  137.7479  154.2774 C   0  0  0  0  0  0  0  0  0  0  0  0
  148.0713  138.2283  153.3054 N   0  0  0  0  0  0  0  0  0  0  0  0
  148.4815  139.6240  153.1995 C   0  0  0  0  0  0  0  0  0  0  0  0
  149.0590  140.1603  154.5207 C   0  0  2  0  0  0  0  0  0  0  0  0
  148.8389  141.6749  154.7232 C   0  0  0  0  0  0  0  0  0  0  0  0
  149.4961  142.1667  155.9566 N   0  3  1  0  0  0  0  0  0  0  0  0
  148.7699  141.9436  157.2262 C   0  0  0  0  0  0  0  0  0  0  0  0
  149.8429  141.7958  158.3163 C   0  0  0  0  0  0  0  0  0  0  0  0
  151.1829  142.0115  157.6045 C   0  0  0  0  0  0  0  0  0  0  0  0
  150.8853  141.6966  156.1375 C   0  0  1  0  0  0  0  0  0  0  0  0
  151.0186  140.1882  155.8256 C   0  0  0  0  0  0  0  0  0  0  0  0
  150.4557  139.8910  154.5549 O   0  0  0  0  0  0  0  0  0  0  0  0
  147.0853  136.4268  154.1358 N   0  0  0  0  0  0  0  0  0  0  0  0
  146.3463  135.5493  154.9809 C   0  0  0  0  0  0  0  0  0  0  0  0
  146.3551  135.6551  156.3958 C   0  0  0  0  0  0  0  0  0  0  0  0
  145.5882  134.7607  157.1685 C   0  0  0  0  0  0  0  0  0  0  0  0
  144.8170  133.7804  156.5178 C   0  0  0  0  0  0  0  0  0  0  0  0
  144.8159  133.7163  155.1700 N   0  3  0  0  0  0  0  0  0  0  0  0
  145.5347  134.5524  154.3809 C   0  0  0  0  0  0  0  0  0  0  0  0
  145.4527  134.4083  152.9849 N   0  0  0  0  0  0  0  0  0  0  0  0
  145.7964  133.0963  152.4623 C   0  0  0  0  0  0  0  0  0  0  0  0
  145.2720  133.0842  151.0247 C   0  0  0  0  0  0  0  0  0  0  0  0
  144.1681  134.1485  150.9996 C   0  0  0  0  0  0  0  0  0  0  0  0
  144.1612  134.7460  152.4098 C   0  0  0  0  0  0  0  0  0  0  0  0
  148.4167  137.5924  152.6017 H   0  0  0  0  0  0  0  0  0  0  0  0
  149.2283  139.7216  152.4098 H   0  0  0  0  0  0  0  0  0  0  0  0
  147.6234  140.2273  152.8989 H   0  0  0  0  0  0  0  0  0  0  0  0
  148.5761  139.6101  155.3303 H   0  0  0  0  0  0  0  0  0  0  0  0
  149.2692  142.2278  153.8878 H   0  0  0  0  0  0  0  0  0  0  0  0
  147.7760  141.9185  154.7432 H   0  0  0  0  0  0  0  0  0  0  0  0
  148.1033  142.7837  157.4226 H   0  0  0  0  0  0  0  0  0  0  0  0
  148.1597  141.0409  157.1790 H   0  0  0  0  0  0  0  0  0  0  0  0
  149.7012  142.5043  159.1334 H   0  0  0  0  0  0  0  0  0  0  0  0
  149.8008  140.7925  158.7420 H   0  0  0  0  0  0  0  0  0  0  0  0
  151.4779  143.0575  157.6984 H   0  0  0  0  0  0  0  0  0  0  0  0
  151.9878  141.4047  158.0210 H   0  0  0  0  0  0  0  0  0  0  0  0
  151.5452  142.2580  155.4749 H   0  0  0  0  0  0  0  0  0  0  0  0
  152.0704  139.9013  155.8196 H   0  0  0  0  0  0  0  0  0  0  0  0
  150.5356  139.5772  156.5900 H   0  0  0  0  0  0  0  0  0  0  0  0
  147.5948  135.9794  153.3880 H   0  0  0  0  0  0  0  0  0  0  0  0
  146.9256  136.4159  156.9057 H   0  0  0  0  0  0  0  0  0  0  0  0
  145.5884  134.8297  158.2466 H   0  0  0  0  0  0  0  0  0  0  0  0
  144.1994  133.0565  157.0296 H   0  0  0  0  0  0  0  0  0  0  0  0
  146.8733  132.9287  152.4982 H   0  0  0  0  0  0  0  0  0  0  0  0
  145.3127  132.3097  153.0428 H   0  0  0  0  0  0  0  0  0  0  0  0
  146.0670  133.3599  150.3307 H   0  0  0  0  0  0  0  0  0  0  0  0
  144.9068  132.0979  150.7362 H   0  0  0  0  0  0  0  0  0  0  0  0
  144.4053  134.9148  150.2606 H   0  0  0  0  0  0  0  0  0  0  0  0
  143.1955  133.7284  150.7414 H   0  0  0  0  0  0  0  0  0  0  0  0
  143.3539  134.3080  152.9986 H   0  0  0  0  0  0  0  0  0  0  0  0
  144.0126  135.8259  152.3872 H   0  0  0  0  0  0  0  0  0  0  0  0
  149.5569  143.1713  155.8699 H   0  0  0  0  0  0  0  0  0  0  0  0
  144.2419  133.0019  154.7218 H   0  0  0  0  0  0  0  0  0  0  0  0
  1  2  2  0  0  0  0
  2  3  1  0  0  0  0
  2 14  1  0  0  0  0
  3  4  1  0  0  0  0
  3 26  1  0  0  0  0
  4  5  1  0  0  0  0
  4 27  1  0  0  0  0
  4 28  1  0  0  0  0
  5 13  1  0  0  0  0
  5  6  1  0  0  0  0
  5 29  1  0  0  0  0
  6  7  1  0  0  0  0
  6 30  1  0  0  0  0
  6 31  1  0  0  0  0
  7 11  1  0  0  0  0
  7  8  1  0  0  0  0
  7 53  1  0  0  0  0
  8  9  1  0  0  0  0
  8 32  1  0  0  0  0
  8 33  1  0  0  0  0
  9 10  1  0  0  0  0
  9 34  1  0  0  0  0
  9 35  1  0  0  0  0
 10 11  1  0  0  0  0
 10 36  1  0  0  0  0
 10 37  1  0  0  0  0
 11 12  1  0  0  0  0
 11 38  1  0  0  0  0
 12 13  1  0  0  0  0
 12 39  1  0  0  0  0
 12 40  1  0  0  0  0
 14 15  1  0  0  0  0
 14 41  1  0  0  0  0
 15 20  1  0  0  0  0
 15 16  2  0  0  0  0
 16 17  1  0  0  0  0
 16 42  1  0  0  0  0
 17 18  2  0  0  0  0
 17 43  1  0  0  0  0
 18 19  1  0  0  0  0
 18 44  1  0  0  0  0
 19 20  2  0  0  0  0
 19 54  1  0  0  0  0
 20 21  1  0  0  0  0
 21 25  1  0  0  0  0
 21 22  1  0  0  0  0
 22 23  1  0  0  0  0
 22 45  1  0  0  0  0
 22 46  1  0  0  0  0
 23 24  1  0  0  0  0
 23 47  1  0  0  0  0
 23 48  1  0  0  0  0
 24 25  1  0  0  0  0
 24 49  1  0  0  0  0
 24 50  1  0  0  0  0
 25 51  1  0  0  0  0
 25 52  1  0  0  0  0
M  CHG  1   7   1
M  CHG  1  19   1
M  END
> <s_m_source_file>
AV-unprocessed.smi

> <i_m_source_file_index>
1830

> <i_lp_mmshare_version>
43012

> <i_f3d_flags>
0

> <s_epik_input>
W0NIMl0xW0NIMl1bQ0gyXVtDQEhdKE4xMilbQ0gyXU9bQ0BASF0oW0NIMl0yKVtDSDJdW05IXUMoPU8pW05IXWMzW2NIXVtjSF1bY0hdbmMzTjRbQ0gyXVtDSDJdW0NIMl1bQ0gyXTQ=

> <s_epik_cmdline>
J2VwaWtfcHl0aG9uJywgJy1waCcsICc3LjAnLCAnLXRuJywgJzgnLCAnLW1hJywgJzIwMCcsICctbWV0YWxfYmluZGluZycsICctaW1hZScsICc8aW5maWxlLm1hZT4nLCAnLW9tYWUnLCAnPG91dGZpbGUubWFlPic=

> <r_lp_tautomer_probability>
0.999994

> <r_epik_Ionization_Penalty>
1.29113

> <r_epik_Ionization_Penalty_Charging>
1.29111

> <r_epik_Ionization_Penalty_Neutral>
1.88144e-05

> <r_epik_State_Penalty>
1.32676

> <r_epik_Charging_Adjusted_Penalty>
2.61787

> <i_epik_Tot_Q>
2

> <i_epik_Tot_abs_Q>
2

> <r_epik_Metal_State_Penalty>
1.40425

> <b_epik_Metal_Only>
0

> <s_lp_Force_Field>
OPLS_2005

> <r_lp_Energy>
78.9005

> <b_lp_Chiralities_Consistent>
1

> <s_lp_Variant>
AV-unprocessed.smi:1830-15

> <Gold.Version>
5.8.1

> <Gold.Id.Protein>
6NUR|6NUR_protein|mol2

> <Gold.PLP.Fitness>
48.3851

> <Gold.PLP.PLP>
-29.2531

> <Gold.PLP.part.hbond>
-5.5130

> <Gold.PLP.part.metal>
0.0000

> <Gold.PLP.part.buried>
-0.4079

> <Gold.PLP.part.nonpolar>
-24.2809

> <Gold.PLP.part.repulsive>
0.3725

> <Gold.PLP.ligand.clash>
0.0000

> <Gold.PLP.ligand.torsion>
0.7696

> <Gold.PLP.Chemscore.Hbond>
6.8620

> <Gold.PLP.Chemscore.CHOScore>
0.0000

> <Gold.PLP.Chemscore.Metal>
0.0000

> <Gold.Chemscore.Hbonds>
donor molecule, donor type, donor heavy atom, donor atom, acceptor molecule, acceptor atom, score
      L1  H     3    26       P1  7948  1.00
      L1  H     7    53       P1  8028  2.00
      L1  H    14    41       P1  7948  0.87
      L1  H    19    54       P1 10957  1.98
      P1  H  7989  7998       L1    13  0.95

> <Gold.PLP.Chemscore.Internal.Correction>
0.0851

> <Gold.Rescore>
     Score         DG    S(hbond)    S(metal)    S(lipo)     H(rot)  DE(clash)    DE(int)     intcor
     20.31     -24.89       4.41        0.00      71.18       1.43       1.71       2.86       ----

> <Gold.Chemscore.Fitness>
20.3116

> <Gold.Chemscore.DG>
-24.8874

> <Gold.Chemscore.ZeroCoef>
-5.4800

> <Gold.Chemscore.Hbond>
4.4115

> <Gold.Chemscore.Metal>
0.0000

> <Gold.Chemscore.Lipo>
71.1788

> <Gold.Chemscore.Internal_Hbond>
0.0000

> <Gold.Chemscore.DEClash>
1.7140

> <Gold.Chemscore.DEInternal>
2.8617

> <Gold.Chemscore.Rot>
1.4278

> <Gold.Chemscore.Internal.Correction>
   9.000000E+99

> <Gold.Chemscore.Hbonds>
donor molecule, donor type, donor heavy atom, donor atom, acceptor molecule, acceptor atom, score
      L1  H     3    26       P1  7948  0.99
      L1  H     7    53       P1  8028  0.97
      L1  H    14    41       P1  7948  0.82
      L1  H    19    54       P1 10957  0.90
      P1  H  7989  7998       L1    13  0.21

> <Gold.Chemscore.Hbond.Weighted>
-14.7346

> <Gold.Chemscore.Metal.Weighted>
-0.0000

> <Gold.Chemscore.Lipo.Weighted>
-8.3279

> <Gold.Chemscore.Internal_Hbond.Weighted>
0.0000

> <Gold.Chemscore.DEClash.Weighted>
1.7140

> <Gold.Chemscore.DEInternal.Weighted>
2.8617

> <Gold.Chemscore.Rot.Weighted>
3.6551

> <Gold.Chemscore.Internal.Correction.Weighted>
   9.000000E+99

> <Gold.Protein.RotatedTorsions>
[ 6907 6896 6895 6894 ] final  175.88 input  -60.11 | X-H torsion
[ 7974 7965 7964 7962 ] final  -60.23 input  175.53 | X-H torsion
[ 8008 7997 7996 7995 ] final  -55.02 input   59.86 | X-H torsion
[ 10167 10162 10161 10158 ] final  -29.26 input  -65.29 | X-H torsion
[ 10718 10713 10712 10709 ] final  -17.74 input   66.30 | X-H torsion
[ 10763 10752 10751 10750 ] final   92.83 input  -60.55 | X-H torsion
[ 11005 11000 10999 10996 ] final   78.66 input  -57.11 | X-H torsion

> <Gold.Protein.ActiveResidues>
 VAL166  LYS551  ARG553  GLY616  TRP617  ASP618  TYR619  PRO620  LYS621  CYS622 
 ASP623  PHE694  ASN695  SER759  ASP760  ASP761  ALA762  ILE779  LEU786  VAL792 
 PHE793  MET794  SER795  GLU796  ALA797  LYS798  CYS799  TRP800  GLU811  SER814 

> <Gold.Protein.RotatedAtoms>
  151.7291  133.3317  159.3335 H   0  0  0  0  0  0  0  0  0  0  0  0  # atno 6907 bound_to 6896
  150.7620  134.6379  159.6231 H   0  0  0  0  0  0  0  0  0  0  0  0  # atno 6908 bound_to 6896
  152.3603  134.6884  160.0261 H   0  0  0  0  0  0  0  0  0  0  0  0  # atno 6909 bound_to 6896
  145.8180  140.8557  143.0147 H   0  0  0  0  0  0  0  0  0  0  0  0  # atno 7974 bound_to 7965
  154.4181  140.1163  156.5409 H   0  0  0  0  0  0  0  0  0  0  0  0  # atno 8008 bound_to 7997
  155.6509  140.3496  155.4729 H   0  0  0  0  0  0  0  0  0  0  0  0  # atno 8009 bound_to 7997
  155.9793  140.1157  157.0731 H   0  0  0  0  0  0  0  0  0  0  0  0  # atno 8010 bound_to 7997
  140.7262  143.3943  151.1375 H   0  0  0  0  0  0  0  0  0  0  0  0  # atno 10167 bound_to 10162
  156.5693  130.4745  149.6370 H   0  0  0  0  0  0  0  0  0  0  0  0  # atno 10718 bound_to 10713
  153.2235  135.4347  155.0515 H   0  0  0  0  0  0  0  0  0  0  0  0  # atno 10763 bound_to 10752
  154.8261  135.3362  154.6893 H   0  0  0  0  0  0  0  0  0  0  0  0  # atno 10764 bound_to 10752
  153.7323  135.7010  153.5042 H   0  0  0  0  0  0  0  0  0  0  0  0  # atno 10765 bound_to 10752
  139.9203  134.7781  156.1678 H   0  0  0  0  0  0  0  0  0  0  0  0  # atno 11005 bound_to 11000
  144.6750  140.0493  143.7479 LP  0  0  0  0  0  0  0  0  0  0  0  0  # atno 17320 bound_to 7965
  145.9705  139.2866  143.1101 LP  0  0  0  0  0  0  0  0  0  0  0  0  # atno 17321 bound_to 7965
  139.7553  143.8717  152.3087 LP  0  0  0  0  0  0  0  0  0  0  0  0  # atno 17342 bound_to 10162
  139.8584  144.7129  150.9129 LP  0  0  0  0  0  0  0  0  0  0  0  0  # atno 17343 bound_to 10162
  156.2729  130.7027  151.1830 LP  0  0  0  0  0  0  0  0  0  0  0  0  # atno 17370 bound_to 10713
  157.7352  131.0575  150.5485 LP  0  0  0  0  0  0  0  0  0  0  0  0  # atno 17371 bound_to 10713
  141.0719  133.6793  156.2157 LP  0  0  0  0  0  0  0  0  0  0  0  0  # atno 17394 bound_to 11000
  140.6493  134.5084  157.5576 LP  0  0  0  0  0  0  0  0  0  0  0  0  # atno 17395 bound_to 11000

$$$$
