AV-unprocessed.smi:1622|AV-procd|sdf|6500|dock6
  -GOLD-   22720 7163D 1   1.00000     0.00000
 Structure written by MMmdl.
 40 41  0  0  0  0  0  0  0  0  3 V2000
  150.2287  132.0586  154.9489 C   0  0  0  0  0  0  0  0  0  0  0  0
  149.1445  132.3711  153.9057 C   0  0  0  0  0  0  0  0  0  0  0  0
  148.1598  133.5021  154.3107 C   0  0  1  0  0  0  0  0  0  0  0  0
  148.8043  134.5284  155.2753 C   0  0  0  0  0  0  0  0  0  0  0  0
  148.2281  134.4537  156.6124 N   0  0  0  0  0  0  0  0  0  0  0  0
  148.9106  134.5670  157.7589 C   0  0  0  0  0  0  0  0  0  0  0  0
  150.1280  134.7620  157.7324 O   0  0  0  0  0  0  0  0  0  0  0  0
  148.1394  134.4447  158.8623 N   0  5  0  0  0  0  0  0  0  0  0  0
  148.2348  135.3477  159.8522 C   0  0  0  0  0  0  0  0  0  0  0  0
  148.5603  136.6288  159.6280 N   0  0  0  0  0  0  0  0  0  0  0  0
  148.5981  137.3913  160.7864 N   0  0  0  0  0  0  0  0  0  0  0  0
  148.2910  136.6751  161.8706 C   0  0  0  0  0  0  0  0  0  0  0  0
  148.2588  137.2619  163.2399 C   0  0  0  0  0  0  0  0  0  0  0  0
  147.9245  134.9882  161.5507 S   0  0  0  0  0  0  0  0  0  0  0  0
  147.5677  134.1744  153.1160 N   0  3  0  0  0  0  0  0  0  0  0  0
  147.0732  133.2663  152.0566 C   0  0  0  0  0  0  0  0  0  0  0  0
  146.0656  134.0688  151.2262 C   0  0  0  0  0  0  0  0  0  0  0  0
  145.7438  135.3130  152.0569 C   0  0  0  0  0  0  0  0  0  0  0  0
  146.4441  135.0931  153.3976 C   0  0  0  0  0  0  0  0  0  0  0  0
  150.9008  131.2831  154.5817 H   0  0  0  0  0  0  0  0  0  0  0  0
  149.7951  131.6967  155.8812 H   0  0  0  0  0  0  0  0  0  0  0  0
  150.8332  132.9367  155.1758 H   0  0  0  0  0  0  0  0  0  0  0  0
  149.6238  132.6100  152.9565 H   0  0  0  0  0  0  0  0  0  0  0  0
  148.5875  131.4561  153.7024 H   0  0  0  0  0  0  0  0  0  0  0  0
  147.3364  133.0285  154.8483 H   0  0  0  0  0  0  0  0  0  0  0  0
  149.8833  134.3718  155.3221 H   0  0  0  0  0  0  0  0  0  0  0  0
  148.6503  135.5474  154.9203 H   0  0  0  0  0  0  0  0  0  0  0  0
  147.2328  134.2985  156.6790 H   0  0  0  0  0  0  0  0  0  0  0  0
  147.4663  138.0072  163.3084 H   0  0  0  0  0  0  0  0  0  0  0  0
  149.2124  137.7395  163.4656 H   0  0  0  0  0  0  0  0  0  0  0  0
  148.0737  136.4850  163.9818 H   0  0  0  0  0  0  0  0  0  0  0  0
  147.8882  132.8837  151.4414 H   0  0  0  0  0  0  0  0  0  0  0  0
  146.5668  132.4142  152.5130 H   0  0  0  0  0  0  0  0  0  0  0  0
  146.4957  134.3580  150.2664 H   0  0  0  0  0  0  0  0  0  0  0  0
  145.1720  133.4787  151.0199 H   0  0  0  0  0  0  0  0  0  0  0  0
  146.1518  136.1973  151.5656 H   0  0  0  0  0  0  0  0  0  0  0  0
  144.6711  135.4685  152.1775 H   0  0  0  0  0  0  0  0  0  0  0  0
  145.7543  134.6213  154.0994 H   0  0  0  0  0  0  0  0  0  0  0  0
  146.7806  136.0346  153.8327 H   0  0  0  0  0  0  0  0  0  0  0  0
  148.2948  134.7357  152.6958 H   0  0  0  0  0  0  0  0  0  0  0  0
  1  2  1  0  0  0  0
  1 20  1  0  0  0  0
  1 21  1  0  0  0  0
  1 22  1  0  0  0  0
  2  3  1  0  0  0  0
  2 23  1  0  0  0  0
  2 24  1  0  0  0  0
  3  4  1  0  0  0  0
  3 15  1  0  0  0  0
  3 25  1  0  0  0  0
  4  5  1  0  0  0  0
  4 26  1  0  0  0  0
  4 27  1  0  0  0  0
  5  6  1  0  0  0  0
  5 28  1  0  0  0  0
  6  7  2  0  0  0  0
  6  8  1  0  0  0  0
  8  9  1  0  0  0  0
  9 14  1  0  0  0  0
  9 10  2  0  0  0  0
 10 11  1  0  0  0  0
 11 12  2  0  0  0  0
 12 13  1  0  0  0  0
 12 14  1  0  0  0  0
 13 29  1  0  0  0  0
 13 30  1  0  0  0  0
 13 31  1  0  0  0  0
 15 19  1  0  0  0  0
 15 16  1  0  0  0  0
 15 40  1  0  0  0  0
 16 17  1  0  0  0  0
 16 32  1  0  0  0  0
 16 33  1  0  0  0  0
 17 18  1  0  0  0  0
 17 34  1  0  0  0  0
 17 35  1  0  0  0  0
 18 19  1  0  0  0  0
 18 36  1  0  0  0  0
 18 37  1  0  0  0  0
 19 38  1  0  0  0  0
 19 39  1  0  0  0  0
M  CHG  1   8  -1
M  CHG  1  15   1
M  END
> <s_m_source_file>
AV-unprocessed.smi

> <i_m_source_file_index>
1622

> <i_lp_mmshare_version>
43012

> <i_f3d_flags>
0

> <s_epik_input>
W0NIMl0xW0NIMl1bQ0gyXVtDSDJdTjFbQ0BIXShbQ0gyXVtDSDNdKVtDSDJdW05IXUMoPU8pW05IXWMybm5jKHMyKVtDSDNd

> <s_epik_cmdline>
J2VwaWtfcHl0aG9uJywgJy1waCcsICc3LjAnLCAnLXRuJywgJzgnLCAnLW1hJywgJzIwMCcsICctbWV0YWxfYmluZGluZycsICctaW1hZScsICc8aW5maWxlLm1hZT4nLCAnLW9tYWUnLCAnPG91dGZpbGUubWFlPic=

> <r_lp_tautomer_probability>
1

> <r_epik_Ionization_Penalty>
4.34497

> <r_epik_Ionization_Penalty_Charging>
4.23453

> <r_epik_Ionization_Penalty_Neutral>
0.110433

> <r_epik_State_Penalty>
4.23293

> <r_epik_Charging_Adjusted_Penalty>
8.46746

> <i_epik_Tot_Q>
0

> <i_epik_Tot_abs_Q>
2

> <r_epik_Metal_State_Penalty>
0.701092

> <b_epik_Metal_Only>
1

> <s_lp_Force_Field>
OPLS_2005

> <r_lp_Energy>
26.9801

> <b_lp_Chiralities_Consistent>
1

> <s_lp_Variant>
AV-unprocessed.smi:1622-4

> <Gold.Version>
5.8.1

> <Gold.Id.Protein>
6NUR|6NUR_protein|mol2

> <Gold.PLP.Fitness>
41.1082

> <Gold.PLP.PLP>
-30.7650

> <Gold.PLP.part.hbond>
-4.0000

> <Gold.PLP.part.metal>
0.0000

> <Gold.PLP.part.buried>
-4.4028

> <Gold.PLP.part.nonpolar>
-22.9577

> <Gold.PLP.part.repulsive>
0.0084

> <Gold.PLP.ligand.clash>
0.0000

> <Gold.PLP.ligand.torsion>
1.9275

> <Gold.PLP.Chemscore.Hbond>
4.6807

> <Gold.PLP.Chemscore.CHOScore>
0.0000

> <Gold.PLP.Chemscore.Metal>
0.0000

> <Gold.Chemscore.Hbonds>
donor molecule, donor type, donor heavy atom, donor atom, acceptor molecule, acceptor atom, score
      L1  H    15    40       P1  7948  2.00
      P1  H  6896  6907       L1     7  0.78
      P1  H  6934  6947       L1    11  0.30

> <Gold.PLP.Chemscore.Internal.Correction>
0.1559

> <Gold.Rescore>
     Score         DG    S(hbond)    S(metal)    S(lipo)     H(rot)  DE(clash)    DE(int)     intcor
     16.08     -18.36       2.97        0.00      63.12       1.73       0.34       1.94       ----

> <Gold.Chemscore.Fitness>
16.0822

> <Gold.Chemscore.DG>
-18.3589

> <Gold.Chemscore.ZeroCoef>
-5.4800

> <Gold.Chemscore.Hbond>
2.9747

> <Gold.Chemscore.Metal>
0.0000

> <Gold.Chemscore.Lipo>
63.1151

> <Gold.Chemscore.Internal_Hbond>
0.0000

> <Gold.Chemscore.DEClash>
0.3368

> <Gold.Chemscore.DEInternal>
1.9399

> <Gold.Chemscore.Rot>
1.7348

> <Gold.Chemscore.Internal.Correction>
   9.000000E+99

> <Gold.Chemscore.Hbonds>
donor molecule, donor type, donor heavy atom, donor atom, acceptor molecule, acceptor atom, score
      L1  H    15    40       P1  7948  0.44
      P1  H  6896  6907       L1     7  0.31
      P1  H  6934  6947       L1    11  0.10

> <Gold.Chemscore.Hbond.Weighted>
-9.9355

> <Gold.Chemscore.Metal.Weighted>
-0.0000

> <Gold.Chemscore.Lipo.Weighted>
-7.3845

> <Gold.Chemscore.Internal_Hbond.Weighted>
0.0000

> <Gold.Chemscore.DEClash.Weighted>
0.3368

> <Gold.Chemscore.DEInternal.Weighted>
1.9399

> <Gold.Chemscore.Rot.Weighted>
4.4411

> <Gold.Chemscore.Internal.Correction.Weighted>
   9.000000E+99

> <Gold.Protein.RotatedTorsions>
[ 6907 6896 6895 6894 ] final  -97.09 input  -60.11 | X-H torsion
[ 7974 7965 7964 7962 ] final -171.64 input  175.53 | X-H torsion
[ 8008 7997 7996 7995 ] final    0.60 input   59.86 | X-H torsion
[ 10167 10162 10161 10158 ] final   33.24 input  -65.29 | X-H torsion
[ 10718 10713 10712 10709 ] final   87.23 input   66.30 | X-H torsion
[ 10763 10752 10751 10750 ] final   -4.06 input  -60.55 | X-H torsion
[ 11005 11000 10999 10996 ] final -102.15 input  -57.11 | X-H torsion

> <Gold.Protein.ActiveResidues>
 VAL166  LYS551  ARG553  GLY616  TRP617  ASP618  TYR619  PRO620  LYS621  CYS622 
 ASP623  PHE694  ASN695  SER759  ASP760  ASP761  ALA762  ILE779  LEU786  VAL792 
 PHE793  MET794  SER795  GLU796  ALA797  LYS798  CYS799  TRP800  GLU811  SER814 

> <Gold.Protein.RotatedAtoms>
  150.7006  134.1402  159.4101 H   0  0  0  0  0  0  0  0  0  0  0  0  # atno 6907 bound_to 6896
  151.9386  135.0221  160.0543 H   0  0  0  0  0  0  0  0  0  0  0  0  # atno 6908 bound_to 6896
  152.2113  133.4878  159.5148 H   0  0  0  0  0  0  0  0  0  0  0  0  # atno 6909 bound_to 6896
  144.7155  140.1892  143.6350 H   0  0  0  0  0  0  0  0  0  0  0  0  # atno 7974 bound_to 7965
  154.6700  140.2610  155.7017 H   0  0  0  0  0  0  0  0  0  0  0  0  # atno 8008 bound_to 7997
  156.2655  140.2831  156.1127 H   0  0  0  0  0  0  0  0  0  0  0  0  # atno 8009 bound_to 7997
  155.1182  140.0376  157.2733 H   0  0  0  0  0  0  0  0  0  0  0  0  # atno 8010 bound_to 7997
  140.4425  144.1167  150.6176 H   0  0  0  0  0  0  0  0  0  0  0  0  # atno 10167 bound_to 10162
  157.6938  131.0247  150.3092 H   0  0  0  0  0  0  0  0  0  0  0  0  # atno 10718 bound_to 10713
  153.3798  135.6998  153.6574 H   0  0  0  0  0  0  0  0  0  0  0  0  # atno 10763 bound_to 10752
  153.5190  135.3616  155.2623 H   0  0  0  0  0  0  0  0  0  0  0  0  # atno 10764 bound_to 10752
  154.8691  135.4153  154.3093 H   0  0  0  0  0  0  0  0  0  0  0  0  # atno 10765 bound_to 10752
  141.1201  133.8535  157.1323 H   0  0  0  0  0  0  0  0  0  0  0  0  # atno 11005 bound_to 11000
  145.8784  139.2309  143.1620 LP  0  0  0  0  0  0  0  0  0  0  0  0  # atno 17320 bound_to 7965
  146.0018  140.8513  143.0014 LP  0  0  0  0  0  0  0  0  0  0  0  0  # atno 17321 bound_to 7965
  140.4302  143.2572  151.9605 LP  0  0  0  0  0  0  0  0  0  0  0  0  # atno 17342 bound_to 10162
  139.4790  144.5751  151.8025 LP  0  0  0  0  0  0  0  0  0  0  0  0  # atno 17343 bound_to 10162
  156.3596  130.3845  149.7262 LP  0  0  0  0  0  0  0  0  0  0  0  0  # atno 17370 bound_to 10713
  156.4712  130.7997  151.3015 LP  0  0  0  0  0  0  0  0  0  0  0  0  # atno 17371 bound_to 10713
  140.0152  134.9970  157.0478 LP  0  0  0  0  0  0  0  0  0  0  0  0  # atno 17394 bound_to 11000
  140.4532  134.1560  155.7183 LP  0  0  0  0  0  0  0  0  0  0  0  0  # atno 17395 bound_to 11000

$$$$
