AV-unprocessed.smi:1535|AV-procd|sdf|6172|dock6
  -GOLD-   22720 6323D 1   1.00000     0.00000
 Structure written by MMmdl.
 46 47  0  0  0  0  0  0  0  0  1 V2000
  153.2107  143.0352  161.4467 C   0  0  0  0  0  0  0  0  0  0  0  0
  152.6015  142.6039  160.1244 C   0  0  0  0  0  0  0  0  0  0  0  0
  153.0092  141.3802  159.5470 C   0  0  0  0  0  0  0  0  0  0  0  0
  152.4663  140.9420  158.3192 C   0  0  0  0  0  0  0  0  0  0  0  0
  152.7159  139.7956  157.5852 N   0  0  0  0  0  0  0  0  0  0  0  0
  151.9063  139.9633  156.5436 C   0  0  0  0  0  0  0  0  0  0  0  0
  151.1628  141.0864  156.5139 N   0  0  0  0  0  0  0  0  0  0  0  0
  150.2175  141.4847  155.4831 C   0  0  0  0  0  0  0  0  0  0  0  0
  149.9203  140.3739  154.4527 C   0  0  2  0  0  0  0  0  0  0  0  0
  149.1780  140.9278  153.3842 O   0  0  0  0  0  0  0  0  0  0  0  0
  149.1121  139.1958  155.0421 C   0  0  0  0  0  0  0  0  0  0  0  0
  149.5289  137.8595  154.6081 N   0  0  0  0  0  0  0  0  0  0  0  0
  150.9835  137.7595  154.4998 C   0  0  0  0  0  0  0  0  0  0  0  0
  148.9992  136.8425  155.5193 C   0  0  0  0  0  0  0  0  0  0  0  0
  149.5558  136.8858  156.9554 C   0  0  1  0  0  0  0  0  0  0  0  0
  148.8378  137.9488  157.7957 C   0  0  0  0  0  0  0  0  0  0  0  0
  149.4722  135.5672  157.6055 C   0  0  0  0  0  0  0  0  0  0  0  0
  149.4064  134.5309  158.1161 N   0  0  0  0  0  0  0  0  0  0  0  0
  151.4976  141.7689  157.6789 C   0  0  0  0  0  0  0  0  0  0  0  0
  151.0845  142.9889  158.2435 C   0  0  0  0  0  0  0  0  0  0  0  0
  151.6369  143.4116  159.4706 C   0  0  0  0  0  0  0  0  0  0  0  0
  151.1825  144.7295  160.0722 C   0  0  0  0  0  0  0  0  0  0  0  0
  153.8821  142.2729  161.8426 H   0  0  0  0  0  0  0  0  0  0  0  0
  152.4322  143.2115  162.1890 H   0  0  0  0  0  0  0  0  0  0  0  0
  153.7837  143.9540  161.3196 H   0  0  0  0  0  0  0  0  0  0  0  0
  153.7445  140.7651  160.0443 H   0  0  0  0  0  0  0  0  0  0  0  0
  151.8529  139.2301  155.7519 H   0  0  0  0  0  0  0  0  0  0  0  0
  149.2949  141.8096  155.9664 H   0  0  0  0  0  0  0  0  0  0  0  0
  150.6177  142.3615  154.9732 H   0  0  0  0  0  0  0  0  0  0  0  0
  150.8748  140.0338  154.0549 H   0  0  0  0  0  0  0  0  0  0  0  0
  149.0591  140.2584  152.7273 H   0  0  0  0  0  0  0  0  0  0  0  0
  149.1516  139.2422  156.1312 H   0  0  0  0  0  0  0  0  0  0  0  0
  148.0639  139.3479  154.7803 H   0  0  0  0  0  0  0  0  0  0  0  0
  151.2869  136.7810  154.1313 H   0  0  0  0  0  0  0  0  0  0  0  0
  151.4630  137.9216  155.4663 H   0  0  0  0  0  0  0  0  0  0  0  0
  151.3859  138.4866  153.7968 H   0  0  0  0  0  0  0  0  0  0  0  0
  147.9105  136.9113  155.5475 H   0  0  0  0  0  0  0  0  0  0  0  0
  149.2233  135.8530  155.1177 H   0  0  0  0  0  0  0  0  0  0  0  0
  150.6124  137.1497  156.9350 H   0  0  0  0  0  0  0  0  0  0  0  0
  149.2423  137.9848  158.8076 H   0  0  0  0  0  0  0  0  0  0  0  0
  147.7704  137.7391  157.8711 H   0  0  0  0  0  0  0  0  0  0  0  0
  148.9547  138.9402  157.3576 H   0  0  0  0  0  0  0  0  0  0  0  0
  150.3488  143.5948  157.7360 H   0  0  0  0  0  0  0  0  0  0  0  0
  150.4895  145.2508  159.4111 H   0  0  0  0  0  0  0  0  0  0  0  0
  152.0348  145.3863  160.2469 H   0  0  0  0  0  0  0  0  0  0  0  0
  150.6756  144.5585  161.0221 H   0  0  0  0  0  0  0  0  0  0  0  0
  1  2  1  0  0  0  0
  1 23  1  0  0  0  0
  1 24  1  0  0  0  0
  1 25  1  0  0  0  0
  2 21  1  0  0  0  0
  2  3  2  0  0  0  0
  3  4  1  0  0  0  0
  3 26  1  0  0  0  0
  4 19  2  0  0  0  0
  4  5  1  0  0  0  0
  5  6  2  0  0  0  0
  6  7  1  0  0  0  0
  6 27  1  0  0  0  0
  7  8  1  0  0  0  0
  7 19  1  0  0  0  0
  8  9  1  0  0  0  0
  8 28  1  0  0  0  0
  8 29  1  0  0  0  0
  9 10  1  0  0  0  0
  9 11  1  0  0  0  0
  9 30  1  0  0  0  0
 10 31  1  0  0  0  0
 11 12  1  0  0  0  0
 11 32  1  0  0  0  0
 11 33  1  0  0  0  0
 12 13  1  0  0  0  0
 12 14  1  0  0  0  0
 13 34  1  0  0  0  0
 13 35  1  0  0  0  0
 13 36  1  0  0  0  0
 14 15  1  0  0  0  0
 14 37  1  0  0  0  0
 14 38  1  0  0  0  0
 15 16  1  0  0  0  0
 15 17  1  0  0  0  0
 15 39  1  0  0  0  0
 16 40  1  0  0  0  0
 16 41  1  0  0  0  0
 16 42  1  0  0  0  0
 17 18  3  0  0  0  0
 19 20  1  0  0  0  0
 20 21  2  0  0  0  0
 20 43  1  0  0  0  0
 21 22  1  0  0  0  0
 22 44  1  0  0  0  0
 22 45  1  0  0  0  0
 22 46  1  0  0  0  0
M  END
> <s_m_source_file>
AV-unprocessed.smi

> <i_m_source_file_index>
1535

> <i_lp_mmshare_version>
43012

> <i_f3d_flags>
0

> <s_epik_input>
W0NIM11jKFtjSF0xKWMoW0NIM10pW2NIXWMoYzEyKW4oW2NIXW4yKVtDSDJdW0NASF0oW09IXSlbQ0gyXU4oW0NIM10pW0NIMl1bQ0BIXShbQ0gzXSlDI04=

> <s_epik_cmdline>
J2VwaWtfcHl0aG9uJywgJy1waCcsICc3LjAnLCAnLXRuJywgJzgnLCAnLW1hJywgJzIwMCcsICctbWV0YWxfYmluZGluZycsICctaW1hZScsICc8aW5maWxlLm1hZT4nLCAnLW9tYWUnLCAnPG91dGZpbGUubWFlPic=

> <r_epik_Ionization_Penalty>
0.098511

> <r_epik_Ionization_Penalty_Charging>
0

> <r_epik_Ionization_Penalty_Neutral>
0.098511

> <r_epik_State_Penalty>
0.0881608

> <r_epik_Charging_Adjusted_Penalty>
0.0881608

> <i_epik_Tot_Q>
0

> <i_epik_Tot_abs_Q>
0

> <r_epik_Metal_State_Penalty>
0.0128087

> <b_epik_Metal_Only>
0

> <s_lp_Force_Field>
OPLS_2005

> <r_lp_Energy>
20.9194

> <b_lp_Chiralities_Consistent>
1

> <s_lp_Variant>
AV-unprocessed.smi:1535-3

> <Gold.Version>
5.8.1

> <Gold.Id.Protein>
6NUR|6NUR_protein|mol2

> <Gold.PLP.Fitness>
50.7909

> <Gold.PLP.PLP>
-41.5083

> <Gold.PLP.part.hbond>
-4.6018

> <Gold.PLP.part.metal>
0.0000

> <Gold.PLP.part.buried>
-3.3456

> <Gold.PLP.part.nonpolar>
-32.6610

> <Gold.PLP.part.repulsive>
0.2127

> <Gold.PLP.ligand.clash>
0.0000

> <Gold.PLP.ligand.torsion>
1.1413

> <Gold.PLP.Chemscore.Hbond>
3.7920

> <Gold.PLP.Chemscore.CHOScore>
0.0000

> <Gold.PLP.Chemscore.Metal>
0.0000

> <Gold.Chemscore.Hbonds>
donor molecule, donor type, donor heavy atom, donor atom, acceptor molecule, acceptor atom, score
      L1  H    10    31       P1  7957  0.69
      P1  H  6896  6908       L1    18  0.98
      P1  H  7997  8010       L1     5  1.00
      P1  H  8011  8017       L1    10  1.00

> <Gold.PLP.Chemscore.Internal.Correction>
0.1891

> <Gold.Rescore>
     Score         DG    S(hbond)    S(metal)    S(lipo)     H(rot)  DE(clash)    DE(int)     intcor
     17.97     -19.54       2.37        0.00     107.36       2.51       0.37       1.20       ----

> <Gold.Chemscore.Fitness>
17.9684

> <Gold.Chemscore.DG>
-19.5395

> <Gold.Chemscore.ZeroCoef>
-5.4800

> <Gold.Chemscore.Hbond>
2.3736

> <Gold.Chemscore.Metal>
0.0000

> <Gold.Chemscore.Lipo>
107.3560

> <Gold.Chemscore.Internal_Hbond>
0.0000

> <Gold.Chemscore.DEClash>
0.3696

> <Gold.Chemscore.DEInternal>
1.2015

> <Gold.Chemscore.Rot>
2.5113

> <Gold.Chemscore.Internal.Correction>
   9.000000E+99

> <Gold.Chemscore.Hbonds>
donor molecule, donor type, donor heavy atom, donor atom, acceptor molecule, acceptor atom, score
      L1  H    10    31       P1  7957  0.68
      P1  H  6896  6908       L1    18  0.91
      P1  H  7997  8010       L1     5  0.14
      P1  H  8011  8017       L1    10  0.34

> <Gold.Chemscore.Hbond.Weighted>
-7.9278

> <Gold.Chemscore.Metal.Weighted>
-0.0000

> <Gold.Chemscore.Lipo.Weighted>
-12.5607

> <Gold.Chemscore.Internal_Hbond.Weighted>
0.0000

> <Gold.Chemscore.DEClash.Weighted>
0.3696

> <Gold.Chemscore.DEInternal.Weighted>
1.2015

> <Gold.Chemscore.Rot.Weighted>
6.4289

> <Gold.Chemscore.Internal.Correction.Weighted>
   9.000000E+99

> <Gold.Protein.RotatedTorsions>
[ 6907 6896 6895 6894 ] final  125.60 input  -60.11 | X-H torsion
[ 7974 7965 7964 7962 ] final    9.03 input  175.53 | X-H torsion
[ 8008 7997 7996 7995 ] final   53.83 input   59.86 | X-H torsion
[ 10167 10162 10161 10158 ] final  107.29 input  -65.29 | X-H torsion
[ 10718 10713 10712 10709 ] final   12.40 input   66.30 | X-H torsion
[ 10763 10752 10751 10750 ] final -165.64 input  -60.55 | X-H torsion
[ 11005 11000 10999 10996 ] final   61.34 input  -57.11 | X-H torsion

> <Gold.Protein.ActiveResidues>
 VAL166  LYS551  ARG553  GLY616  TRP617  ASP618  TYR619  PRO620  LYS621  CYS622 
 ASP623  PHE694  ASN695  SER759  ASP760  ASP761  ALA762  ILE779  LEU786  VAL792 
 PHE793  MET794  SER795  GLU796  ALA797  LYS798  CYS799  TRP800  GLU811  SER814 

> <Gold.Protein.RotatedAtoms>
  152.3978  133.6772  159.6290 H   0  0  0  0  0  0  0  0  0  0  0  0  # atno 6907 bound_to 6896
  150.7874  133.8844  159.3304 H   0  0  0  0  0  0  0  0  0  0  0  0  # atno 6908 bound_to 6896
  151.6617  135.0990  160.0232 H   0  0  0  0  0  0  0  0  0  0  0  0  # atno 6909 bound_to 6896
  146.2409  139.9844  142.8432 H   0  0  0  0  0  0  0  0  0  0  0  0  # atno 7974 bound_to 7965
  155.4748  140.3466  155.4331 H   0  0  0  0  0  0  0  0  0  0  0  0  # atno 8008 bound_to 7997
  156.1077  140.1452  156.9410 H   0  0  0  0  0  0  0  0  0  0  0  0  # atno 8009 bound_to 7997
  154.4735  140.0892  156.7184 H   0  0  0  0  0  0  0  0  0  0  0  0  # atno 8010 bound_to 7997
  139.6939  144.7104  151.1301 H   0  0  0  0  0  0  0  0  0  0  0  0  # atno 10167 bound_to 10162
  157.0096  130.6112  149.5706 H   0  0  0  0  0  0  0  0  0  0  0  0  # atno 10718 bound_to 10713
  154.6912  135.2971  154.9476 H   0  0  0  0  0  0  0  0  0  0  0  0  # atno 10763 bound_to 10752
  154.0439  135.6653  153.4797 H   0  0  0  0  0  0  0  0  0  0  0  0  # atno 10764 bound_to 10752
  153.0613  135.5114  154.8006 H   0  0  0  0  0  0  0  0  0  0  0  0  # atno 10765 bound_to 10752
  140.0168  134.6212  155.9697 H   0  0  0  0  0  0  0  0  0  0  0  0  # atno 11005 bound_to 11000
  145.1562  140.9649  143.4404 LP  0  0  0  0  0  0  0  0  0  0  0  0  # atno 17320 bound_to 7965
  145.0159  139.3468  143.6096 LP  0  0  0  0  0  0  0  0  0  0  0  0  # atno 17321 bound_to 7965
  140.7690  143.5520  150.9194 LP  0  0  0  0  0  0  0  0  0  0  0  0  # atno 17342 bound_to 10162
  139.9199  143.6619  152.3099 LP  0  0  0  0  0  0  0  0  0  0  0  0  # atno 17343 bound_to 10162
  156.0141  130.5234  150.8080 LP  0  0  0  0  0  0  0  0  0  0  0  0  # atno 17370 bound_to 10713
  157.5330  131.0937  150.9930 LP  0  0  0  0  0  0  0  0  0  0  0  0  # atno 17371 bound_to 10713
  141.1748  133.6539  156.4787 LP  0  0  0  0  0  0  0  0  0  0  0  0  # atno 17394 bound_to 11000
  140.4456  134.6975  157.5014 LP  0  0  0  0  0  0  0  0  0  0  0  0  # atno 17395 bound_to 11000

$$$$
