AV-unprocessed.smi:3031|AV-procd|sdf|11556|dock10
  -GOLD-   2272016523D 1   1.00000     0.00000
 Structure written by MMmdl.
 46 47  0  0  0  0  0  0  0  0  1 V2000
  145.3033  129.0981  151.5700 C   0  0  0  0  0  0  0  0  0  0  0  0
  145.1757  130.5913  151.4805 C   0  0  0  0  0  0  0  0  0  0  0  0
  144.1553  131.3437  150.8330 C   0  0  0  0  0  0  0  0  0  0  0  0
  144.3411  132.6498  150.9278 N   0  0  0  0  0  0  0  0  0  0  0  0
  145.4723  132.7800  151.6534 N   0  0  0  0  0  0  0  0  0  0  0  0
  146.0028  134.1041  151.9340 C   0  0  0  0  0  0  0  0  0  0  0  0
  145.3427  135.2318  151.1030 C   0  0  1  0  0  0  0  0  0  0  0  0
  143.9186  135.5063  151.6062 C   0  0  0  0  0  0  0  0  0  0  0  0
  146.0967  136.4893  151.1388 N   0  0  0  0  0  0  0  0  0  0  0  0
  145.8220  137.3800  152.2651 C   0  0  0  0  0  0  0  0  0  0  0  0
  147.0583  138.2234  152.6289 C   0  0  1  0  0  0  0  0  0  0  0  0
  147.4134  138.9593  151.4775 O   0  0  0  0  0  0  0  0  0  0  0  0
  146.8065  139.2523  153.7551 C   0  0  0  0  0  0  0  0  0  0  0  0
  147.9821  139.6566  154.5281 N   0  0  0  0  0  0  0  0  0  0  0  0
  148.4378  140.9868  154.1417 C   0  0  0  0  0  0  0  0  0  0  0  0
  149.6597  141.4335  154.9628 C   0  0  0  0  0  0  0  0  0  0  0  0
  150.7060  140.4785  154.8186 O   0  0  0  0  0  0  0  0  0  0  0  0
  150.3158  139.1703  155.2237 C   0  0  0  0  0  0  0  0  0  0  0  0
  149.0949  138.7176  154.4040 C   0  0  0  0  0  0  0  0  0  0  0  0
  146.0058  131.5517  151.9851 C   0  0  0  0  0  0  0  0  0  0  0  0
  144.3308  128.6067  151.5382 H   0  0  0  0  0  0  0  0  0  0  0  0
  145.7885  128.7881  152.4958 H   0  0  0  0  0  0  0  0  0  0  0  0
  145.8936  128.6963  150.7463 H   0  0  0  0  0  0  0  0  0  0  0  0
  143.2928  130.9804  150.2941 H   0  0  0  0  0  0  0  0  0  0  0  0
  145.8365  134.2836  152.9971 H   0  0  0  0  0  0  0  0  0  0  0  0
  147.0851  134.1066  151.7923 H   0  0  0  0  0  0  0  0  0  0  0  0
  145.2476  134.9036  150.0676 H   0  0  0  0  0  0  0  0  0  0  0  0
  143.2976  134.6127  151.5368 H   0  0  0  0  0  0  0  0  0  0  0  0
  143.4352  136.2851  151.0150 H   0  0  0  0  0  0  0  0  0  0  0  0
  143.9201  135.8310  152.6475 H   0  0  0  0  0  0  0  0  0  0  0  0
  147.0914  136.2842  151.1165 H   0  0  0  0  0  0  0  0  0  0  0  0
  145.0054  138.0516  152.0058 H   0  0  0  0  0  0  0  0  0  0  0  0
  145.4972  136.8072  153.1347 H   0  0  0  0  0  0  0  0  0  0  0  0
  147.9045  137.5769  152.8619 H   0  0  0  0  0  0  0  0  0  0  0  0
  148.1549  139.5057  151.6892 H   0  0  0  0  0  0  0  0  0  0  0  0
  146.3401  140.1419  153.3284 H   0  0  0  0  0  0  0  0  0  0  0  0
  146.0653  138.8289  154.4348 H   0  0  0  0  0  0  0  0  0  0  0  0
  148.6924  140.9973  153.0807 H   0  0  0  0  0  0  0  0  0  0  0  0
  147.6310  141.7082  154.2762 H   0  0  0  0  0  0  0  0  0  0  0  0
  150.0136  142.4055  154.6193 H   0  0  0  0  0  0  0  0  0  0  0  0
  149.3984  141.5405  156.0170 H   0  0  0  0  0  0  0  0  0  0  0  0
  151.1504  138.4856  155.0729 H   0  0  0  0  0  0  0  0  0  0  0  0
  150.0862  139.1660  156.2906 H   0  0  0  0  0  0  0  0  0  0  0  0
  148.7975  137.7272  154.7458 H   0  0  0  0  0  0  0  0  0  0  0  0
  149.3794  138.6155  153.3556 H   0  0  0  0  0  0  0  0  0  0  0  0
  146.9234  131.4625  152.5481 H   0  0  0  0  0  0  0  0  0  0  0  0
  1  2  1  0  0  0  0
  1 21  1  0  0  0  0
  1 22  1  0  0  0  0
  1 23  1  0  0  0  0
  2 20  2  0  0  0  0
  2  3  1  0  0  0  0
  3  4  2  0  0  0  0
  3 24  1  0  0  0  0
  4  5  1  0  0  0  0
  5  6  1  0  0  0  0
  5 20  1  0  0  0  0
  6  7  1  0  0  0  0
  6 25  1  0  0  0  0
  6 26  1  0  0  0  0
  7  8  1  0  0  0  0
  7  9  1  0  0  0  0
  7 27  1  0  0  0  0
  8 28  1  0  0  0  0
  8 29  1  0  0  0  0
  8 30  1  0  0  0  0
  9 10  1  0  0  0  0
  9 31  1  0  0  0  0
 10 11  1  0  0  0  0
 10 32  1  0  0  0  0
 10 33  1  0  0  0  0
 11 12  1  0  0  0  0
 11 13  1  0  0  0  0
 11 34  1  0  0  0  0
 12 35  1  0  0  0  0
 13 14  1  0  0  0  0
 13 36  1  0  0  0  0
 13 37  1  0  0  0  0
 14 19  1  0  0  0  0
 14 15  1  0  0  0  0
 15 16  1  0  0  0  0
 15 38  1  0  0  0  0
 15 39  1  0  0  0  0
 16 17  1  0  0  0  0
 16 40  1  0  0  0  0
 16 41  1  0  0  0  0
 17 18  1  0  0  0  0
 18 19  1  0  0  0  0
 18 42  1  0  0  0  0
 18 43  1  0  0  0  0
 19 44  1  0  0  0  0
 19 45  1  0  0  0  0
 20 46  1  0  0  0  0
M  END
> <s_m_source_file>
AV-unprocessed.smi

> <i_m_source_file_index>
3031

> <i_lp_mmshare_version>
43012

> <i_f3d_flags>
0

> <s_epik_input>
W0NIM11jMVtjSF1ubihbY0hdMSlbQ0gyXVtDQEhdKFtDSDNdKVtOSF1bQ0gyXVtDQEhdKFtPSF0pW0NIMl1OMltDSDJdW0NIMl1PW0NIMl1bQ0gyXTI=

> <s_epik_cmdline>
J2VwaWtfcHl0aG9uJywgJy1waCcsICc3LjAnLCAnLXRuJywgJzgnLCAnLW1hJywgJzIwMCcsICctbWV0YWxfYmluZGluZycsICctaW1hZScsICc8aW5maWxlLm1hZT4nLCAnLW9tYWUnLCAnPG91dGZpbGUubWFlPic=

> <r_lp_tautomer_probability>
1

> <r_epik_Ionization_Penalty>
2.8101

> <r_epik_Ionization_Penalty_Charging>
0

> <r_epik_Ionization_Penalty_Neutral>
2.8101

> <r_epik_State_Penalty>
2.12351

> <r_epik_Charging_Adjusted_Penalty>
2.12351

> <i_epik_Tot_Q>
0

> <i_epik_Tot_abs_Q>
0

> <r_epik_Metal_State_Penalty>
2.12345

> <b_epik_Metal_Only>
0

> <s_lp_Force_Field>
OPLS_2005

> <r_lp_Energy>
29.6213

> <b_lp_Chiralities_Consistent>
1

> <s_lp_Variant>
AV-unprocessed.smi:3031-16

> <Gold.Version>
5.8.1

> <Gold.Id.Protein>
6NUR|6NUR_protein|mol2

> <Gold.PLP.Fitness>
47.4307

> <Gold.PLP.PLP>
-37.3965

> <Gold.PLP.part.hbond>
-4.3858

> <Gold.PLP.part.metal>
0.0000

> <Gold.PLP.part.buried>
-2.0141

> <Gold.PLP.part.nonpolar>
-31.0676

> <Gold.PLP.part.repulsive>
0.3497

> <Gold.PLP.ligand.clash>
0.1321

> <Gold.PLP.ligand.torsion>
1.6076

> <Gold.PLP.Chemscore.Hbond>
3.7047

> <Gold.PLP.Chemscore.CHOScore>
0.7273

> <Gold.PLP.Chemscore.Metal>
0.0000

> <Gold.Chemscore.Hbonds>
donor molecule, donor type, donor heavy atom, donor atom, acceptor molecule, acceptor atom, score
      L1  H     9    31       P1  7948  1.00
      L1  H    12    35       P1  7957  0.85
      P1  H  7954  7966       L1    12  0.80
      P1  H  7989  7998       L1    17  1.00
      L1  C     3    24       P1 10952  0.69

> <Gold.PLP.Chemscore.Internal.Correction>
0.0854

> <Gold.Rescore>
     Score         DG    S(hbond)    S(metal)    S(lipo)     H(rot)  DE(clash)    DE(int)     intcor
     17.85     -21.13       3.09        0.00     100.98       2.53       1.44       1.85       ----

> <Gold.Chemscore.Fitness>
17.8451

> <Gold.Chemscore.DG>
-21.1293

> <Gold.Chemscore.ZeroCoef>
-5.4800

> <Gold.Chemscore.Hbond>
3.0897

> <Gold.Chemscore.Metal>
0.0000

> <Gold.Chemscore.Lipo>
100.9827

> <Gold.Chemscore.Internal_Hbond>
0.0000

> <Gold.Chemscore.DEClash>
1.4371

> <Gold.Chemscore.DEInternal>
1.8470

> <Gold.Chemscore.Rot>
2.5333

> <Gold.Chemscore.Internal.Correction>
   9.000000E+99

> <Gold.Chemscore.Hbonds>
donor molecule, donor type, donor heavy atom, donor atom, acceptor molecule, acceptor atom, score
      L1  H     9    31       P1  7948  0.97
      L1  H    12    35       P1  7957  0.84
      P1  H  7954  7966       L1    12  0.18
      P1  H  7989  7998       L1    17  0.68

> <Gold.Chemscore.Hbond.Weighted>
-10.3194

> <Gold.Chemscore.Metal.Weighted>
-0.0000

> <Gold.Chemscore.Lipo.Weighted>
-11.8150

> <Gold.Chemscore.Internal_Hbond.Weighted>
0.0000

> <Gold.Chemscore.DEClash.Weighted>
1.4371

> <Gold.Chemscore.DEInternal.Weighted>
1.8470

> <Gold.Chemscore.Rot.Weighted>
6.4852

> <Gold.Chemscore.Internal.Correction.Weighted>
   9.000000E+99

> <Gold.Protein.RotatedTorsions>
[ 6907 6896 6895 6894 ] final -106.76 input  -60.11 | X-H torsion
[ 7974 7965 7964 7962 ] final   13.35 input  175.53 | X-H torsion
[ 8008 7997 7996 7995 ] final    9.16 input   59.86 | X-H torsion
[ 10167 10162 10161 10158 ] final  -48.32 input  -65.29 | X-H torsion
[ 10718 10713 10712 10709 ] final   34.83 input   66.30 | X-H torsion
[ 10763 10752 10751 10750 ] final  140.79 input  -60.55 | X-H torsion
[ 11005 11000 10999 10996 ] final -137.06 input  -57.11 | X-H torsion

> <Gold.Protein.ActiveResidues>
 VAL166  LYS551  ARG553  GLY616  TRP617  ASP618  TYR619  PRO620  LYS621  CYS622 
 ASP623  PHE694  ASN695  SER759  ASP760  ASP761  ALA762  ILE779  LEU786  VAL792 
 PHE793  MET794  SER795  GLU796  ALA797  LYS798  CYS799  TRP800  GLU811  SER814 

> <Gold.Protein.RotatedAtoms>
  150.7407  133.9927  159.3612 H   0  0  0  0  0  0  0  0  0  0  0  0  # atno 6907 bound_to 6896
  151.7876  135.0742  160.0392 H   0  0  0  0  0  0  0  0  0  0  0  0  # atno 6908 bound_to 6896
  152.3230  133.5838  159.5794 H   0  0  0  0  0  0  0  0  0  0  0  0  # atno 6909 bound_to 6896
  146.2331  139.9201  142.8511 H   0  0  0  0  0  0  0  0  0  0  0  0  # atno 7974 bound_to 7965
  154.7763  140.2811  155.6098 H   0  0  0  0  0  0  0  0  0  0  0  0  # atno 8008 bound_to 7997
  156.2942  140.2632  156.2506 H   0  0  0  0  0  0  0  0  0  0  0  0  # atno 8009 bound_to 7997
  154.9838  140.0374  157.2279 H   0  0  0  0  0  0  0  0  0  0  0  0  # atno 8010 bound_to 7997
  140.6736  143.2745  151.4053 H   0  0  0  0  0  0  0  0  0  0  0  0  # atno 10167 bound_to 10162
  157.3152  130.7420  149.6750 H   0  0  0  0  0  0  0  0  0  0  0  0  # atno 10718 bound_to 10713
  153.9285  135.2992  155.3446 H   0  0  0  0  0  0  0  0  0  0  0  0  # atno 10763 bound_to 10752
  154.7539  135.4967  153.9341 H   0  0  0  0  0  0  0  0  0  0  0  0  # atno 10764 bound_to 10752
  153.1104  135.6757  153.9615 H   0  0  0  0  0  0  0  0  0  0  0  0  # atno 10765 bound_to 10752
  140.8746  134.2008  157.4629 H   0  0  0  0  0  0  0  0  0  0  0  0  # atno 11005 bound_to 11000
  145.2145  140.9909  143.4081 LP  0  0  0  0  0  0  0  0  0  0  0  0  # atno 17320 bound_to 7965
  144.9663  139.3927  143.6331 LP  0  0  0  0  0  0  0  0  0  0  0  0  # atno 17321 bound_to 7965
  139.6017  144.1282  152.2205 LP  0  0  0  0  0  0  0  0  0  0  0  0  # atno 17342 bound_to 10162
  140.0668  144.5812  150.7221 LP  0  0  0  0  0  0  0  0  0  0  0  0  # atno 17343 bound_to 10162
  155.9681  130.4239  150.4585 LP  0  0  0  0  0  0  0  0  0  0  0  0  # atno 17370 bound_to 10713
  157.2591  131.0563  151.2332 LP  0  0  0  0  0  0  0  0  0  0  0  0  # atno 17371 bound_to 10713
  139.8714  134.9790  156.5019 LP  0  0  0  0  0  0  0  0  0  0  0  0  # atno 17394 bound_to 11000
  140.8533  133.8115  155.9190 LP  0  0  0  0  0  0  0  0  0  0  0  0  # atno 17395 bound_to 11000

$$$$
