AV-unprocessed.smi:72|AV-procd|sdf|755|dock6
  -GOLD-   2262017 93D 1   1.00000     0.00000
 Structure written by MMmdl.
 29 30  0  0  0  0  0  0  0  0  1 V2000
  148.2763  133.0492  156.9682 N   0  0  0  0  0  0  0  0  0  0  0  0
  148.8714  134.2763  156.7644 C   0  0  0  0  0  0  0  0  0  0  0  0
  148.5311  134.9438  155.5797 N   0  0  0  0  0  0  0  0  0  0  0  0
  149.0838  136.0989  155.3865 C   0  0  0  0  0  0  0  0  0  0  0  0
  150.0043  136.6667  156.3549 N   0  0  0  0  0  0  0  0  0  0  0  0
  150.6529  138.0163  156.1226 C   0  0  2  0  0  0  0  0  0  0  0  0
  149.6534  138.9863  156.0169 O   0  0  0  0  0  0  0  0  0  0  0  0
  149.9965  139.9039  154.9860 C   0  0  2  0  0  0  0  0  0  0  0  0
  148.7620  140.6884  154.5064 C   0  0  0  0  0  0  0  0  0  0  0  0
  148.9847  141.2101  153.2137 O   0  0  0  0  0  0  0  0  0  0  0  0
  150.7228  139.0363  153.9476 C   0  0  2  0  0  0  0  0  0  0  0  0
  149.7995  138.3707  153.1023 O   0  0  0  0  0  0  0  0  0  0  0  0
  151.5051  138.0705  154.8344 C   0  0  2  0  0  0  0  0  0  0  0  0
  151.7701  136.8231  154.2140 O   0  0  0  0  0  0  0  0  0  0  0  0
  150.3172  135.9275  157.5288 C   0  0  0  0  0  0  0  0  0  0  0  0
  151.1194  136.3739  158.3490 O   0  0  0  0  0  0  0  0  0  0  0  0
  149.6880  134.6874  157.6918 N   0  0  0  0  0  0  0  0  0  0  0  0
  151.2353  138.2389  157.0177 H   0  0  0  0  0  0  0  0  0  0  0  0
  150.7147  140.6041  155.4174 H   0  0  0  0  0  0  0  0  0  0  0  0
  151.3855  139.6327  153.3197 H   0  0  0  0  0  0  0  0  0  0  0  0
  152.4580  138.5289  155.1021 H   0  0  0  0  0  0  0  0  0  0  0  0
  148.4462  132.4783  157.7834 H   0  0  0  0  0  0  0  0  0  0  0  0
  147.6243  132.6321  156.3197 H   0  0  0  0  0  0  0  0  0  0  0  0
  148.8996  136.7082  154.5009 H   0  0  0  0  0  0  0  0  0  0  0  0
  147.8641  140.0702  154.5072 H   0  0  0  0  0  0  0  0  0  0  0  0
  148.5701  141.5232  155.1808 H   0  0  0  0  0  0  0  0  0  0  0  0
  148.9315  140.5013  152.5908 H   0  0  0  0  0  0  0  0  0  0  0  0
  149.8035  138.7999  152.2606 H   0  0  0  0  0  0  0  0  0  0  0  0
  151.3707  136.8225  153.3576 H   0  0  0  0  0  0  0  0  0  0  0  0
  1  2  1  0  0  0  0
  1 22  1  0  0  0  0
  1 23  1  0  0  0  0
  2 17  2  0  0  0  0
  2  3  1  0  0  0  0
  3  4  2  0  0  0  0
  4  5  1  0  0  0  0
  4 24  1  0  0  0  0
  5  6  1  0  0  0  0
  5 15  1  0  0  0  0
  6 18  1  0  0  0  0
  6 13  1  0  0  0  0
  6  7  1  0  0  0  0
  7  8  1  0  0  0  0
  8 19  1  0  0  0  0
  8  9  1  0  0  0  0
  8 11  1  0  0  0  0
  9 10  1  0  0  0  0
  9 25  1  0  0  0  0
  9 26  1  0  0  0  0
 10 27  1  0  0  0  0
 11 20  1  0  0  0  0
 11 12  1  0  0  0  0
 11 13  1  0  0  0  0
 12 28  1  0  0  0  0
 13 21  1  0  0  0  0
 13 14  1  0  0  0  0
 14 29  1  0  0  0  0
 15 16  2  0  0  0  0
 15 17  1  0  0  0  0
M  END
> <s_m_source_file>
AV-unprocessed.smi

> <i_m_source_file_index>
72

> <i_lp_mmshare_version>
43012

> <i_f3d_flags>
0

> <s_epik_input>
W05IMl1jMW5bY0hdbihjKD1PKW4xKVtDQEBIXTJPW0NASF0oW0NIMl1bT0hdKVtDQEBIXShbT0hdKVtDQEhdMltPSF0=

> <s_epik_cmdline>
J2VwaWtfcHl0aG9uJywgJy1waCcsICc3LjAnLCAnLXRuJywgJzgnLCAnLW1hJywgJzIwMCcsICctbWV0YWxfYmluZGluZycsICctaW1hZScsICc8aW5maWxlLm1hZT4nLCAnLW9tYWUnLCAnPG91dGZpbGUubWFlPic=

> <r_lp_tautomer_probability>
4.77166e-05

> <r_epik_Ionization_Penalty>
1.3546

> <r_epik_Ionization_Penalty_Charging>
1.46833e-10

> <r_epik_Ionization_Penalty_Neutral>
1.3546

> <r_epik_State_Penalty>
3.51908

> <r_epik_Charging_Adjusted_Penalty>
3.51908

> <i_epik_Tot_Q>
0

> <i_epik_Tot_abs_Q>
0

> <r_epik_Metal_State_Penalty>
3.44088

> <b_epik_Metal_Only>
1

> <s_epik_Chemistry_Notes>
This compound contains an acetal/aminal-like group ( X-CH(R)-Y where X, Y are N, S, or O) that may be acid/base labile, releasing an aldehyde.

> <s_lp_Force_Field>
OPLS_2005

> <r_lp_Energy>
36.4179

> <b_lp_Chiralities_Consistent>
1

> <s_lp_Variant>
AV-unprocessed.smi:72-93

> <Gold.Version>
5.8.1

> <Gold.Id.Protein>
6NUR|6NUR_protein|mol2

> <Gold.PLP.Fitness>
38.5422

> <Gold.PLP.PLP>
-18.4768

> <Gold.PLP.part.hbond>
-9.3163

> <Gold.PLP.part.metal>
0.0000

> <Gold.PLP.part.buried>
1.5192

> <Gold.PLP.part.nonpolar>
-10.3010

> <Gold.PLP.part.repulsive>
0.0900

> <Gold.PLP.ligand.clash>
0.0000

> <Gold.PLP.ligand.torsion>
0.2020

> <Gold.PLP.Chemscore.Hbond>
5.9760

> <Gold.PLP.Chemscore.CHOScore>
0.8466

> <Gold.PLP.Chemscore.Metal>
0.0000

> <Gold.Chemscore.Hbonds>
donor molecule, donor type, donor heavy atom, donor atom, acceptor molecule, acceptor atom, score
      L1  H    10    27       P1  7957  0.78
      L1  H    12    28       P1  7957  1.00
      L1  H    14    29       P1  7949  0.93
      P1  H  6896  6907       L1    17  0.73
      P1  H  6896  6908       L1    16  0.37
      P1  H  8011  8017       L1    10  1.00
      P1  H 10752 10763       L1    14  1.00
      L1  C     4    24       P1  7948  0.65

> <Gold.PLP.Chemscore.Internal.Correction>
0.0016

> <Gold.Rescore>
     Score         DG    S(hbond)    S(metal)    S(lipo)     H(rot)  DE(clash)    DE(int)     intcor
     10.53     -11.15       3.78        0.00      29.25       4.06       0.27       0.35       ----

> <Gold.Chemscore.Fitness>
10.5258

> <Gold.Chemscore.DG>
-11.1451

> <Gold.Chemscore.ZeroCoef>
-5.4800

> <Gold.Chemscore.Hbond>
3.7835

> <Gold.Chemscore.Metal>
0.0000

> <Gold.Chemscore.Lipo>
29.2470

> <Gold.Chemscore.Internal_Hbond>
0.0000

> <Gold.Chemscore.DEClash>
0.2742

> <Gold.Chemscore.DEInternal>
0.3451

> <Gold.Chemscore.Rot>
4.0600

> <Gold.Chemscore.Internal.Correction>
   9.000000E+99

> <Gold.Chemscore.Hbonds>
donor molecule, donor type, donor heavy atom, donor atom, acceptor molecule, acceptor atom, score
      L1  H    10    27       P1  7957  0.77
      L1  H    12    28       P1  7957  0.30
      L1  H    14    29       P1  7949  0.63
      P1  H  6896  6907       L1    17  0.21
      P1  H  6896  6908       L1    16  0.34
      P1  H  8011  8017       L1    10  0.34
      P1  H 10752 10763       L1    14  0.81

> <Gold.Chemscore.Hbond.Weighted>
-12.6368

> <Gold.Chemscore.Metal.Weighted>
-0.0000

> <Gold.Chemscore.Lipo.Weighted>
-3.4219

> <Gold.Chemscore.Internal_Hbond.Weighted>
0.0000

> <Gold.Chemscore.DEClash.Weighted>
0.2742

> <Gold.Chemscore.DEInternal.Weighted>
0.3451

> <Gold.Chemscore.Rot.Weighted>
10.3936

> <Gold.Chemscore.Internal.Correction.Weighted>
   9.000000E+99

> <Gold.Protein.RotatedTorsions>
[ 6907 6896 6895 6894 ] final -115.77 input  -60.11 | X-H torsion
[ 7974 7965 7964 7962 ] final  113.76 input  175.53 | X-H torsion
[ 8008 7997 7996 7995 ] final  -32.34 input   59.86 | X-H torsion
[ 10167 10162 10161 10158 ] final -172.74 input  -65.29 | X-H torsion
[ 10718 10713 10712 10709 ] final  -71.01 input   66.30 | X-H torsion
[ 10763 10752 10751 10750 ] final   46.64 input  -60.55 | X-H torsion
[ 11005 11000 10999 10996 ] final -102.70 input  -57.11 | X-H torsion

> <Gold.Protein.ActiveResidues>
 VAL166  LYS551  ARG553  GLY616  TRP617  ASP618  TYR619  PRO620  LYS621  CYS622 
 ASP623  PHE694  ASN695  SER759  ASP760  ASP761  ALA762  ILE779  LEU786  VAL792 
 PHE793  MET794  SER795  GLU796  ALA797  LYS798  CYS799  TRP800  GLU811  SER814 

> <Gold.Protein.RotatedAtoms>
  150.8004  133.8611  159.3231 H   0  0  0  0  0  0  0  0  0  0  0  0  # atno 6907 bound_to 6896
  151.6424  135.1009  160.0153 H   0  0  0  0  0  0  0  0  0  0  0  0  # atno 6908 bound_to 6896
  152.4090  133.6895  159.6416 H   0  0  0  0  0  0  0  0  0  0  0  0  # atno 6909 bound_to 6896
  145.2129  139.2898  143.4259 H   0  0  0  0  0  0  0  0  0  0  0  0  # atno 7974 bound_to 7965
  154.4183  140.1740  156.1711 H   0  0  0  0  0  0  0  0  0  0  0  0  # atno 8008 bound_to 7997
  155.9759  140.3381  155.6594 H   0  0  0  0  0  0  0  0  0  0  0  0  # atno 8009 bound_to 7997
  155.6564  140.0696  157.2560 H   0  0  0  0  0  0  0  0  0  0  0  0  # atno 8010 bound_to 7997
  139.5727  144.1603  152.1407 H   0  0  0  0  0  0  0  0  0  0  0  0  # atno 10167 bound_to 10162
  156.0382  130.4343  150.2380 H   0  0  0  0  0  0  0  0  0  0  0  0  # atno 10718 bound_to 10713
  152.9808  135.6001  154.3633 H   0  0  0  0  0  0  0  0  0  0  0  0  # atno 10763 bound_to 10752
  154.3313  135.2768  155.2472 H   0  0  0  0  0  0  0  0  0  0  0  0  # atno 10764 bound_to 10752
  154.4595  135.5969  153.6301 H   0  0  0  0  0  0  0  0  0  0  0  0  # atno 10765 bound_to 10752
  141.1178  133.8580  157.1393 H   0  0  0  0  0  0  0  0  0  0  0  0  # atno 11005 bound_to 11000
  146.3393  140.2410  142.8595 LP  0  0  0  0  0  0  0  0  0  0  0  0  # atno 17320 bound_to 7965
  144.9839  140.8484  143.5381 LP  0  0  0  0  0  0  0  0  0  0  0  0  # atno 17321 bound_to 7965
  140.1140  144.5432  150.6906 LP  0  0  0  0  0  0  0  0  0  0  0  0  # atno 17342 bound_to 10162
  140.7011  143.2436  151.4861 LP  0  0  0  0  0  0  0  0  0  0  0  0  # atno 17343 bound_to 10162
  157.0477  131.0053  151.3263 LP  0  0  0  0  0  0  0  0  0  0  0  0  # atno 17370 bound_to 10713
  157.5163  130.7970  149.7760 LP  0  0  0  0  0  0  0  0  0  0  0  0  # atno 17371 bound_to 10713
  140.0112  134.9987  157.0399 LP  0  0  0  0  0  0  0  0  0  0  0  0  # atno 17394 bound_to 11000
  140.4596  134.1497  155.7190 LP  0  0  0  0  0  0  0  0  0  0  0  0  # atno 17395 bound_to 11000

$$$$
