AV-unprocessed.smi:1662|AV-procd|sdf|6658|dock1
  -GOLD-   22720 7363D 1   1.00000     0.00000
 Structure written by MMmdl.
 47 48  0  0  0  0  0  0  0  0  1 V2000
  150.1917  142.7680  158.4516 C   0  0  0  0  0  0  0  0  0  0  0  0
  150.7966  141.3961  158.5813 C   0  0  0  0  0  0  0  0  0  0  0  0
  150.0795  140.4047  158.1647 N   0  0  0  0  0  0  0  0  0  0  0  0
  150.5369  139.1035  158.2418 N   0  0  0  0  0  0  0  0  0  0  0  0
  149.5854  138.1014  157.7392 C   0  0  0  0  0  0  0  0  0  0  0  0
  149.4626  136.8750  158.6545 C   0  0  0  0  0  0  0  0  0  0  0  0
  149.9769  135.8012  158.3390 O   0  0  0  0  0  0  0  0  0  0  0  0
  148.7826  137.0584  159.7964 N   0  0  0  0  0  0  0  0  0  0  0  0
  148.5146  136.0274  160.7964 C   0  0  1  0  0  0  0  0  0  0  0  0
  147.6169  136.6016  161.9095 C   0  0  0  0  0  0  0  0  0  0  0  0
  147.3399  135.5536  162.9976 C   0  0  0  0  0  0  0  0  0  0  0  0
  146.7455  134.2669  162.4039 C   0  0  0  0  0  0  0  0  0  0  0  0
  147.6397  133.6960  161.2847 C   0  0  1  0  0  0  0  0  0  0  0  0
  147.1050  132.3549  160.7551 C   0  0  0  0  0  0  0  0  0  0  0  0
  147.9011  134.7440  160.1698 C   0  0  1  0  0  0  0  0  0  0  0  0
  146.6642  135.0289  159.2854 C   0  0  0  0  0  0  0  0  0  0  0  0
  151.7540  138.7359  158.7375 C   0  0  0  0  0  0  0  0  0  0  0  0
  152.1249  137.5617  158.7795 O   0  0  0  0  0  0  0  0  0  0  0  0
  152.5607  139.8641  159.2080 C   0  0  0  0  0  0  0  0  0  0  0  0
  153.8392  139.5227  159.7428 C   0  0  0  0  0  0  0  0  0  0  0  0
  154.8764  139.2638  160.1872 N   0  0  0  0  0  0  0  0  0  0  0  0
  152.1214  141.1459  159.1406 C   0  0  0  0  0  0  0  0  0  0  0  0
  152.9210  142.3515  159.6152 C   0  0  0  0  0  0  0  0  0  0  0  0
  150.7526  143.3707  157.7374 H   0  0  0  0  0  0  0  0  0  0  0  0
  150.1956  143.2870  159.4099 H   0  0  0  0  0  0  0  0  0  0  0  0
  149.1573  142.7254  158.1077 H   0  0  0  0  0  0  0  0  0  0  0  0
  148.5921  138.5403  157.6296 H   0  0  0  0  0  0  0  0  0  0  0  0
  149.8784  137.7860  156.7357 H   0  0  0  0  0  0  0  0  0  0  0  0
  148.4004  137.9753  159.9770 H   0  0  0  0  0  0  0  0  0  0  0  0
  149.4665  135.7583  161.2592 H   0  0  0  0  0  0  0  0  0  0  0  0
  148.0942  137.4728  162.3599 H   0  0  0  0  0  0  0  0  0  0  0  0
  146.6732  136.9534  161.4913 H   0  0  0  0  0  0  0  0  0  0  0  0
  148.2689  135.3178  163.5181 H   0  0  0  0  0  0  0  0  0  0  0  0
  146.6632  135.9650  163.7470 H   0  0  0  0  0  0  0  0  0  0  0  0
  146.6257  133.5275  163.1965 H   0  0  0  0  0  0  0  0  0  0  0  0
  145.7440  134.4662  162.0215 H   0  0  0  0  0  0  0  0  0  0  0  0
  148.6077  133.4744  161.7369 H   0  0  0  0  0  0  0  0  0  0  0  0
  146.0884  132.4454  160.3722 H   0  0  0  0  0  0  0  0  0  0  0  0
  147.0869  131.6052  161.5464 H   0  0  0  0  0  0  0  0  0  0  0  0
  147.7347  131.9691  159.9527 H   0  0  0  0  0  0  0  0  0  0  0  0
  148.6551  134.3174  159.5066 H   0  0  0  0  0  0  0  0  0  0  0  0
  145.8341  135.4386  159.8598 H   0  0  0  0  0  0  0  0  0  0  0  0
  146.3093  134.1247  158.7924 H   0  0  0  0  0  0  0  0  0  0  0  0
  146.8943  135.7380  158.4903 H   0  0  0  0  0  0  0  0  0  0  0  0
  153.9287  142.0808  159.9291 H   0  0  0  0  0  0  0  0  0  0  0  0
  152.4271  142.8246  160.4647 H   0  0  0  0  0  0  0  0  0  0  0  0
  153.0171  143.0893  158.8179 H   0  0  0  0  0  0  0  0  0  0  0  0
  1  2  1  0  0  0  0
  1 24  1  0  0  0  0
  1 25  1  0  0  0  0
  1 26  1  0  0  0  0
  2 22  1  0  0  0  0
  2  3  2  0  0  0  0
  3  4  1  0  0  0  0
  4  5  1  0  0  0  0
  4 17  1  0  0  0  0
  5  6  1  0  0  0  0
  5 27  1  0  0  0  0
  5 28  1  0  0  0  0
  6  7  2  0  0  0  0
  6  8  1  0  0  0  0
  8  9  1  0  0  0  0
  8 29  1  0  0  0  0
  9 15  1  0  0  0  0
  9 10  1  0  0  0  0
  9 30  1  0  0  0  0
 10 11  1  0  0  0  0
 10 31  1  0  0  0  0
 10 32  1  0  0  0  0
 11 12  1  0  0  0  0
 11 33  1  0  0  0  0
 11 34  1  0  0  0  0
 12 13  1  0  0  0  0
 12 35  1  0  0  0  0
 12 36  1  0  0  0  0
 13 14  1  0  0  0  0
 13 15  1  0  0  0  0
 13 37  1  0  0  0  0
 14 38  1  0  0  0  0
 14 39  1  0  0  0  0
 14 40  1  0  0  0  0
 15 16  1  0  0  0  0
 15 41  1  0  0  0  0
 16 42  1  0  0  0  0
 16 43  1  0  0  0  0
 16 44  1  0  0  0  0
 17 18  2  0  0  0  0
 17 19  1  0  0  0  0
 19 20  1  0  0  0  0
 19 22  2  0  0  0  0
 20 21  3  0  0  0  0
 22 23  1  0  0  0  0
 23 45  1  0  0  0  0
 23 46  1  0  0  0  0
 23 47  1  0  0  0  0
M  END
> <s_m_source_file>
AV-unprocessed.smi

> <i_m_source_file_index>
1662

> <i_lp_mmshare_version>
43012

> <i_f3d_flags>
0

> <s_epik_input>
TiNDYyhjMVtDSDNdKWMoPU8pbihuYzFbQ0gzXSlbQ0gyXUMoPU8pW05IXVtDQEBIXTJbQ0gyXVtDSDJdW0NIMl1bQ0BASF0oW0NIM10pW0NASF0yW0NIM10=

> <s_epik_cmdline>
J2VwaWtfcHl0aG9uJywgJy1waCcsICc3LjAnLCAnLXRuJywgJzgnLCAnLW1hJywgJzIwMCcsICctbWV0YWxfYmluZGluZycsICctaW1hZScsICc8aW5maWxlLm1hZT4nLCAnLW9tYWUnLCAnPG91dGZpbGUubWFlPic=

> <r_lp_tautomer_probability>
1

> <r_epik_Ionization_Penalty>
1.90709e-08

> <r_epik_Ionization_Penalty_Charging>
2.37982e-11

> <r_epik_Ionization_Penalty_Neutral>
1.90471e-08

> <r_epik_State_Penalty>
-0

> <r_epik_Charging_Adjusted_Penalty>
2.37982e-11

> <i_epik_Tot_Q>
0

> <i_epik_Tot_abs_Q>
0

> <r_epik_Metal_State_Penalty>
-0

> <b_epik_Metal_Only>
0

> <s_lp_Force_Field>
OPLS_2005

> <r_lp_Energy>
29.2459

> <b_lp_Chiralities_Consistent>
1

> <s_lp_Variant>
AV-unprocessed.smi:1662-2

> <Gold.Version>
5.8.1

> <Gold.Id.Protein>
6NUR|6NUR_protein|mol2

> <Gold.PLP.Fitness>
39.9385

> <Gold.PLP.PLP>
-37.7547

> <Gold.PLP.part.hbond>
-1.0000

> <Gold.PLP.part.metal>
0.0000

> <Gold.PLP.part.buried>
-5.4447

> <Gold.PLP.part.nonpolar>
-31.9522

> <Gold.PLP.part.repulsive>
0.4453

> <Gold.PLP.ligand.clash>
0.0000

> <Gold.PLP.ligand.torsion>
0.4182

> <Gold.PLP.Chemscore.Hbond>
1.0000

> <Gold.PLP.Chemscore.CHOScore>
0.0000

> <Gold.PLP.Chemscore.Metal>
0.0000

> <Gold.Chemscore.Hbonds>
donor molecule, donor type, donor heavy atom, donor atom, acceptor molecule, acceptor atom, score
      P1  H  6896  6909       L1     7  1.00

> <Gold.PLP.Chemscore.Internal.Correction>
0.0203

> <Gold.Rescore>
     Score         DG    S(hbond)    S(metal)    S(lipo)     H(rot)  DE(clash)    DE(int)     intcor
     11.73     -15.59       0.91        0.00      92.26       1.45       0.08       3.78       ----

> <Gold.Chemscore.Fitness>
11.7317

> <Gold.Chemscore.DG>
-15.5919

> <Gold.Chemscore.ZeroCoef>
-5.4800

> <Gold.Chemscore.Hbond>
0.9075

> <Gold.Chemscore.Metal>
0.0000

> <Gold.Chemscore.Lipo>
92.2552

> <Gold.Chemscore.Internal_Hbond>
0.0000

> <Gold.Chemscore.DEClash>
0.0766

> <Gold.Chemscore.DEInternal>
3.7836

> <Gold.Chemscore.Rot>
1.4504

> <Gold.Chemscore.Internal.Correction>
   9.000000E+99

> <Gold.Chemscore.Hbonds>
donor molecule, donor type, donor heavy atom, donor atom, acceptor molecule, acceptor atom, score
      P1  H  6896  6909       L1     7  0.93

> <Gold.Chemscore.Hbond.Weighted>
-3.0309

> <Gold.Chemscore.Metal.Weighted>
-0.0000

> <Gold.Chemscore.Lipo.Weighted>
-10.7939

> <Gold.Chemscore.Internal_Hbond.Weighted>
0.0000

> <Gold.Chemscore.DEClash.Weighted>
0.0766

> <Gold.Chemscore.DEInternal.Weighted>
3.7836

> <Gold.Chemscore.Rot.Weighted>
3.7129

> <Gold.Chemscore.Internal.Correction.Weighted>
   9.000000E+99

> <Gold.Protein.RotatedTorsions>
[ 6907 6896 6895 6894 ] final   61.31 input  -60.11 | X-H torsion
[ 7974 7965 7964 7962 ] final  161.34 input  175.53 | X-H torsion
[ 8008 7997 7996 7995 ] final  150.25 input   59.86 | X-H torsion
[ 10167 10162 10161 10158 ] final   87.13 input  -65.29 | X-H torsion
[ 10718 10713 10712 10709 ] final  150.60 input   66.30 | X-H torsion
[ 10763 10752 10751 10750 ] final  113.82 input  -60.55 | X-H torsion
[ 11005 11000 10999 10996 ] final   -9.42 input  -57.11 | X-H torsion

> <Gold.Protein.ActiveResidues>
 VAL166  LYS551  ARG553  GLY616  TRP617  ASP618  TYR619  PRO620  LYS621  CYS622 
 ASP623  PHE694  ASN695  SER759  ASP760  ASP761  ALA762  ILE779  LEU786  VAL792 
 PHE793  MET794  SER795  GLU796  ALA797  LYS798  CYS799  TRP800  GLU811  SER814 

> <Gold.Protein.RotatedAtoms>
  152.4077  134.6178  160.0042 H   0  0  0  0  0  0  0  0  0  0  0  0  # atno 6907 bound_to 6896
  151.6364  133.3323  159.3128 H   0  0  0  0  0  0  0  0  0  0  0  0  # atno 6908 bound_to 6896
  150.7971  134.7079  159.6632 H   0  0  0  0  0  0  0  0  0  0  0  0  # atno 6909 bound_to 6896
  144.7691  139.7884  143.6304 H   0  0  0  0  0  0  0  0  0  0  0  0  # atno 7974 bound_to 7965
  156.2723  140.2080  156.5987 H   0  0  0  0  0  0  0  0  0  0  0  0  # atno 8008 bound_to 7997
  154.6924  140.0529  157.0400 H   0  0  0  0  0  0  0  0  0  0  0  0  # atno 8009 bound_to 7997
  155.0848  140.3190  155.4594 H   0  0  0  0  0  0  0  0  0  0  0  0  # atno 8010 bound_to 7997
  139.8805  144.6442  150.8848 H   0  0  0  0  0  0  0  0  0  0  0  0  # atno 10167 bound_to 10162
  157.2814  131.0836  151.1529 H   0  0  0  0  0  0  0  0  0  0  0  0  # atno 10718 bound_to 10713
  153.4981  135.3644  155.2526 H   0  0  0  0  0  0  0  0  0  0  0  0  # atno 10763 bound_to 10752
  154.8749  135.3993  154.3511 H   0  0  0  0  0  0  0  0  0  0  0  0  # atno 10764 bound_to 10752
  153.4142  135.7078  153.6404 H   0  0  0  0  0  0  0  0  0  0  0  0  # atno 10765 bound_to 10752
  140.7340  133.8725  155.8915 H   0  0  0  0  0  0  0  0  0  0  0  0  # atno 11005 bound_to 11000
  146.1823  139.5021  142.9858 LP  0  0  0  0  0  0  0  0  0  0  0  0  # atno 17320 bound_to 7965
  145.6379  141.0290  143.1827 LP  0  0  0  0  0  0  0  0  0  0  0  0  # atno 17321 bound_to 7965
  140.7745  143.3590  151.1866 LP  0  0  0  0  0  0  0  0  0  0  0  0  # atno 17342 bound_to 10162
  139.7200  143.9238  152.2982 LP  0  0  0  0  0  0  0  0  0  0  0  0  # atno 17343 bound_to 10162
  157.2961  130.6820  149.6139 LP  0  0  0  0  0  0  0  0  0  0  0  0  # atno 17370 bound_to 10713
  155.9664  130.4406  150.5306 LP  0  0  0  0  0  0  0  0  0  0  0  0  # atno 17371 bound_to 10713
  140.9896  134.1296  157.4420 LP  0  0  0  0  0  0  0  0  0  0  0  0  # atno 17394 bound_to 11000
  139.8820  135.0036  156.6198 LP  0  0  0  0  0  0  0  0  0  0  0  0  # atno 17395 bound_to 11000

$$$$
