AV-unprocessed.smi:2650|AV-procd|sdf|10291|dock6
  -GOLD-   2272014303D 1   1.00000     0.00000
 Structure written by MMmdl.
 33 34  0  0  0  0  0  0  0  0  1 V2000
  144.7091  137.2550  152.4505 O   0  0  0  0  0  0  0  0  0  0  0  0
  145.8951  136.9471  152.3275 C   0  0  0  0  0  0  0  0  0  0  0  0
  146.9066  137.7845  152.5990 N   0  0  0  0  0  0  0  0  0  0  0  0
  146.7496  139.1521  153.0781 C   0  0  0  0  0  0  0  0  0  0  0  0
  147.3221  139.3193  154.4978 C   0  0  0  0  0  0  0  0  0  0  0  0
  148.7275  138.9085  154.5591 N   0  0  0  0  0  0  0  0  0  0  0  0
  149.7621  139.7378  154.3633 C   0  0  0  0  0  0  0  0  0  0  0  0
  149.6945  140.9387  154.1025 O   0  0  0  0  0  0  0  0  0  0  0  0
  151.0873  139.0027  154.5122 C   0  0  0  0  0  0  0  0  0  0  0  0
  150.6539  137.5711  154.8434 C   0  0  0  0  0  0  0  0  0  0  0  0
  149.1340  137.6640  154.8474 C   0  0  0  0  0  0  0  0  0  0  0  0
  148.4110  136.6992  155.0933 O   0  0  0  0  0  0  0  0  0  0  0  0
  146.3497  135.7506  151.9148 N   0  0  0  0  0  0  0  0  0  0  0  0
  145.5953  134.6054  151.5447 C   0  0  0  0  0  0  0  0  0  0  0  0
  146.3617  133.4756  151.1792 C   0  0  0  0  0  0  0  0  0  0  0  0
  145.7074  132.2889  150.7959 C   0  0  0  0  0  0  0  0  0  0  0  0
  144.3014  132.2624  150.7881 C   0  0  0  0  0  0  0  0  0  0  0  0
  143.6140  133.4303  151.1663 C   0  0  0  0  0  0  0  0  0  0  0  0
  144.2392  134.5685  151.5337 N   0  0  0  0  0  0  0  0  0  0  0  0
  147.8512  137.4522  152.4708 H   0  0  0  0  0  0  0  0  0  0  0  0
  147.2688  139.8143  152.3849 H   0  0  0  0  0  0  0  0  0  0  0  0
  145.6964  139.4376  153.0503 H   0  0  0  0  0  0  0  0  0  0  0  0
  147.2286  140.3573  154.8226 H   0  0  0  0  0  0  0  0  0  0  0  0
  146.7312  138.7378  155.2077 H   0  0  0  0  0  0  0  0  0  0  0  0
  151.6578  139.0508  153.5841 H   0  0  0  0  0  0  0  0  0  0  0  0
  151.6801  139.4438  155.3142 H   0  0  0  0  0  0  0  0  0  0  0  0
  150.9906  136.8594  154.0889 H   0  0  0  0  0  0  0  0  0  0  0  0
  151.0197  137.2499  155.8193 H   0  0  0  0  0  0  0  0  0  0  0  0
  147.3520  135.6451  151.8633 H   0  0  0  0  0  0  0  0  0  0  0  0
  147.4415  133.5130  151.1913 H   0  0  0  0  0  0  0  0  0  0  0  0
  146.2753  131.4146  150.5138 H   0  0  0  0  0  0  0  0  0  0  0  0
  143.7639  131.3710  150.5002 H   0  0  0  0  0  0  0  0  0  0  0  0
  142.5344  133.4522  151.1746 H   0  0  0  0  0  0  0  0  0  0  0  0
  1  2  2  0  0  0  0
  2  3  1  0  0  0  0
  2 13  1  0  0  0  0
  3  4  1  0  0  0  0
  3 20  1  0  0  0  0
  4  5  1  0  0  0  0
  4 21  1  0  0  0  0
  4 22  1  0  0  0  0
  5  6  1  0  0  0  0
  5 23  1  0  0  0  0
  5 24  1  0  0  0  0
  6 11  1  0  0  0  0
  6  7  1  0  0  0  0
  7  8  2  0  0  0  0
  7  9  1  0  0  0  0
  9 10  1  0  0  0  0
  9 25  1  0  0  0  0
  9 26  1  0  0  0  0
 10 11  1  0  0  0  0
 10 27  1  0  0  0  0
 10 28  1  0  0  0  0
 11 12  2  0  0  0  0
 13 14  1  0  0  0  0
 13 29  1  0  0  0  0
 14 19  1  0  0  0  0
 14 15  2  0  0  0  0
 15 16  1  0  0  0  0
 15 30  1  0  0  0  0
 16 17  2  0  0  0  0
 16 31  1  0  0  0  0
 17 18  1  0  0  0  0
 17 32  1  0  0  0  0
 18 19  2  0  0  0  0
 18 33  1  0  0  0  0
M  END
> <s_m_source_file>
AV-unprocessed.smi

> <i_m_source_file_index>
2650

> <i_lp_mmshare_version>
43012

> <i_f3d_flags>
0

> <s_epik_input>
bjFbY0hdW2NIXVtjSF1bY0hdYzFbTkhdQyg9TylbTkhdW0NIMl1bQ0gyXU4yQyg9TylbQ0gyXVtDSDJdQzI9Tw==

> <s_epik_cmdline>
J2VwaWtfcHl0aG9uJywgJy1waCcsICc3LjAnLCAnLXRuJywgJzgnLCAnLW1hJywgJzIwMCcsICctbWV0YWxfYmluZGluZycsICctaW1hZScsICc8aW5maWxlLm1hZT4nLCAnLW9tYWUnLCAnPG91dGZpbGUubWFlPic=

> <r_lp_tautomer_probability>
1

> <r_epik_Ionization_Penalty>
4.11926e-05

> <r_epik_Ionization_Penalty_Charging>
0

> <r_epik_Ionization_Penalty_Neutral>
4.11926e-05

> <r_epik_State_Penalty>
-0

> <r_epik_Charging_Adjusted_Penalty>
0

> <i_epik_Tot_Q>
0

> <i_epik_Tot_abs_Q>
0

> <r_epik_Metal_State_Penalty>
-0

> <b_epik_Metal_Only>
0

> <s_lp_Force_Field>
OPLS_2005

> <r_lp_Energy>
11.0549

> <b_lp_Chiralities_Consistent>
1

> <s_lp_Variant>
AV-unprocessed.smi:2650-1

> <Gold.Version>
5.8.1

> <Gold.Id.Protein>
6NUR|6NUR_protein|mol2

> <Gold.PLP.Fitness>
39.6978

> <Gold.PLP.PLP>
-29.8323

> <Gold.PLP.part.hbond>
-3.5985

> <Gold.PLP.part.metal>
0.0000

> <Gold.PLP.part.buried>
-3.5662

> <Gold.PLP.part.nonpolar>
-23.9065

> <Gold.PLP.part.repulsive>
1.5465

> <Gold.PLP.ligand.clash>
0.0000

> <Gold.PLP.ligand.torsion>
0.3899

> <Gold.PLP.Chemscore.Hbond>
2.5489

> <Gold.PLP.Chemscore.CHOScore>
0.9902

> <Gold.PLP.Chemscore.Metal>
0.0000

> <Gold.Chemscore.Hbonds>
donor molecule, donor type, donor heavy atom, donor atom, acceptor molecule, acceptor atom, score
      L1  H     3    20       P1  7948  0.99
      L1  H    13    29       P1  7948  1.00
      P1  H  7989  7998       L1     8  0.25
      P1  H  8011  8017       L1     8  0.26
      L1  C    18    33       P1 10186  1.00

> <Gold.PLP.Chemscore.Internal.Correction>
0.0283

> <Gold.Rescore>
     Score         DG    S(hbond)    S(metal)    S(lipo)     H(rot)  DE(clash)    DE(int)     intcor
     13.23     -15.04       2.25        0.00      56.80       1.80       0.13       1.68       ----

> <Gold.Chemscore.Fitness>
13.2282

> <Gold.Chemscore.DG>
-15.0419

> <Gold.Chemscore.ZeroCoef>
-5.4800

> <Gold.Chemscore.Hbond>
2.2505

> <Gold.Chemscore.Metal>
0.0000

> <Gold.Chemscore.Lipo>
56.7963

> <Gold.Chemscore.Internal_Hbond>
0.0000

> <Gold.Chemscore.DEClash>
0.1308

> <Gold.Chemscore.DEInternal>
1.6829

> <Gold.Chemscore.Rot>
1.7968

> <Gold.Chemscore.Internal.Correction>
   9.000000E+99

> <Gold.Chemscore.Hbonds>
donor molecule, donor type, donor heavy atom, donor atom, acceptor molecule, acceptor atom, score
      L1  H     3    20       P1  7948  0.94
      L1  H    13    29       P1  7948  0.98
      P1  H  7989  7998       L1     8  0.01
      P1  H  8011  8017       L1     8  0.26

> <Gold.Chemscore.Hbond.Weighted>
-7.5166

> <Gold.Chemscore.Metal.Weighted>
-0.0000

> <Gold.Chemscore.Lipo.Weighted>
-6.6452

> <Gold.Chemscore.Internal_Hbond.Weighted>
0.0000

> <Gold.Chemscore.DEClash.Weighted>
0.1308

> <Gold.Chemscore.DEInternal.Weighted>
1.6829

> <Gold.Chemscore.Rot.Weighted>
4.5999

> <Gold.Chemscore.Internal.Correction.Weighted>
   9.000000E+99

> <Gold.Protein.RotatedTorsions>
[ 6907 6896 6895 6894 ] final  -48.71 input  -60.11 | X-H torsion
[ 7974 7965 7964 7962 ] final -132.90 input  175.53 | X-H torsion
[ 8008 7997 7996 7995 ] final  -96.62 input   59.86 | X-H torsion
[ 10167 10162 10161 10158 ] final  -78.28 input  -65.29 | X-H torsion
[ 10718 10713 10712 10709 ] final    0.20 input   66.30 | X-H torsion
[ 10763 10752 10751 10750 ] final  115.90 input  -60.55 | X-H torsion
[ 11005 11000 10999 10996 ] final -136.13 input  -57.11 | X-H torsion

> <Gold.Protein.ActiveResidues>
 VAL166  LYS551  ARG553  GLY616  TRP617  ASP618  TYR619  PRO620  LYS621  CYS622 
 ASP623  PHE694  ASN695  SER759  ASP760  ASP761  ALA762  ILE779  LEU786  VAL792 
 PHE793  MET794  SER795  GLU796  ALA797  LYS798  CYS799  TRP800  GLU811  SER814 

> <Gold.Protein.RotatedAtoms>
  150.8878  134.8278  159.7271 H   0  0  0  0  0  0  0  0  0  0  0  0  # atno 6907 bound_to 6896
  152.4818  134.4695  159.9641 H   0  0  0  0  0  0  0  0  0  0  0  0  # atno 6908 bound_to 6896
  151.4761  133.3518  159.2866 H   0  0  0  0  0  0  0  0  0  0  0  0  # atno 6909 bound_to 6896
  144.9242  140.7051  143.4946 H   0  0  0  0  0  0  0  0  0  0  0  0  # atno 7974 bound_to 7965
  154.7769  140.0470  157.1096 H   0  0  0  0  0  0  0  0  0  0  0  0  # atno 8008 bound_to 7997
  154.9752  140.3094  155.4951 H   0  0  0  0  0  0  0  0  0  0  0  0  # atno 8009 bound_to 7997
  156.2930  140.2246  156.4847 H   0  0  0  0  0  0  0  0  0  0  0  0  # atno 8010 bound_to 7997
  140.4696  143.2430  151.8226 H   0  0  0  0  0  0  0  0  0  0  0  0  # atno 10167 bound_to 10162
  156.8298  130.5484  149.5688 H   0  0  0  0  0  0  0  0  0  0  0  0  # atno 10718 bound_to 10713
  153.5292  135.3582  155.2668 H   0  0  0  0  0  0  0  0  0  0  0  0  # atno 10763 bound_to 10752
  154.8728  135.4064  154.3171 H   0  0  0  0  0  0  0  0  0  0  0  0  # atno 10764 bound_to 10752
  153.3856  135.7070  153.6600 H   0  0  0  0  0  0  0  0  0  0  0  0  # atno 10765 bound_to 10752
  140.8834  134.1903  157.4576 H   0  0  0  0  0  0  0  0  0  0  0  0  # atno 11005 bound_to 11000
  145.3246  139.1778  143.4569 LP  0  0  0  0  0  0  0  0  0  0  0  0  # atno 17320 bound_to 7965
  146.3218  140.3268  142.8637 LP  0  0  0  0  0  0  0  0  0  0  0  0  # atno 17321 bound_to 7965
  139.4816  144.4908  151.9187 LP  0  0  0  0  0  0  0  0  0  0  0  0  # atno 17342 bound_to 10162
  140.3994  144.2513  150.5894 LP  0  0  0  0  0  0  0  0  0  0  0  0  # atno 17343 bound_to 10162
  156.0941  130.5918  150.9783 LP  0  0  0  0  0  0  0  0  0  0  0  0  # atno 17370 bound_to 10713
  157.6413  131.0910  150.8246 LP  0  0  0  0  0  0  0  0  0  0  0  0  # atno 17371 bound_to 10713
  139.8722  134.9827  156.5167 LP  0  0  0  0  0  0  0  0  0  0  0  0  # atno 17394 bound_to 11000
  140.8434  133.8187  155.9097 LP  0  0  0  0  0  0  0  0  0  0  0  0  # atno 17395 bound_to 11000

$$$$
