AV-unprocessed.smi:737|AV-procd|sdf|3537|dock6
  -GOLD-   22720 0533D 1   1.00000     0.00000
 Structure written by MMmdl.
 45 47  0  0  0  0  0  0  0  0  1 V2000
  146.1808  137.9201  156.4714 C   0  0  0  0  0  0  0  0  0  0  0  0
  147.4871  138.4779  156.7820 N   0  0  0  0  0  0  0  0  0  0  0  0
  148.3620  137.8107  157.6504 C   0  0  0  0  0  0  0  0  0  0  0  0
  147.9173  136.7632  158.3827 N   0  0  0  0  0  0  0  0  0  0  0  0
  148.7888  136.1521  159.1956 C   0  0  0  0  0  0  0  0  0  0  0  0
  150.0861  136.4257  159.4043 N   0  0  0  0  0  0  0  0  0  0  0  0
  150.5360  137.4628  158.6850 C   0  0  0  0  0  0  0  0  0  0  0  0
  151.8272  137.9622  158.6996 N   0  0  0  0  0  0  0  0  0  0  0  0
  151.7393  138.9653  157.8297 C   0  0  0  0  0  0  0  0  0  0  0  0
  150.5437  139.1802  157.2470 N   0  0  0  0  0  0  0  0  0  0  0  0
  150.2307  140.2155  156.2771 C   0  0  0  0  0  0  0  0  0  0  0  0
  150.8327  141.5841  156.6568 C   0  0  1  0  0  0  0  0  0  0  0  0
  150.3142  142.6327  155.8623 O   0  0  0  0  0  0  0  0  0  0  0  0
  150.6445  141.9443  158.1383 C   0  0  0  0  0  0  0  0  0  0  0  0
  151.8717  142.4189  158.6752 O   0  0  0  0  0  0  0  0  0  0  0  0
  151.8536  142.5843  160.0355 C   0  0  0  0  0  0  0  0  0  0  0  0
  152.4998  141.6360  160.8621 C   0  0  0  0  0  0  0  0  0  0  0  0
  153.2116  140.4428  160.2527 C   0  0  0  0  0  0  0  0  0  0  0  0
  152.4839  141.8001  162.2624 C   0  0  0  0  0  0  0  0  0  0  0  0
  151.8179  142.8971  162.8395 C   0  0  0  0  0  0  0  0  0  0  0  0
  151.1588  143.8312  162.0190 C   0  0  0  0  0  0  0  0  0  0  0  0
  151.1670  143.6770  160.6174 C   0  0  0  0  0  0  0  0  0  0  0  0
  150.4314  144.6860  159.7544 C   0  0  0  0  0  0  0  0  0  0  0  0
  149.7100  138.2008  157.7846 C   0  0  0  0  0  0  0  0  0  0  0  0
  145.6546  138.5730  155.7749 H   0  0  0  0  0  0  0  0  0  0  0  0
  145.5762  137.8265  157.3742 H   0  0  0  0  0  0  0  0  0  0  0  0
  146.2787  136.9371  156.0099 H   0  0  0  0  0  0  0  0  0  0  0  0
  147.7840  139.3231  156.3152 H   0  0  0  0  0  0  0  0  0  0  0  0
  148.3920  135.3225  159.7620 H   0  0  0  0  0  0  0  0  0  0  0  0
  152.5964  139.5823  157.6017 H   0  0  0  0  0  0  0  0  0  0  0  0
  150.5757  139.8898  155.2966 H   0  0  0  0  0  0  0  0  0  0  0  0
  149.1457  140.2977  156.2007 H   0  0  0  0  0  0  0  0  0  0  0  0
  151.9039  141.5558  156.4537 H   0  0  0  0  0  0  0  0  0  0  0  0
  150.1584  143.3818  156.4171 H   0  0  0  0  0  0  0  0  0  0  0  0
  149.8910  142.7288  158.2236 H   0  0  0  0  0  0  0  0  0  0  0  0
  150.2714  141.0859  158.6987 H   0  0  0  0  0  0  0  0  0  0  0  0
  153.4113  139.6770  161.0027 H   0  0  0  0  0  0  0  0  0  0  0  0
  154.1626  140.7514  159.8189 H   0  0  0  0  0  0  0  0  0  0  0  0
  152.6048  139.9916  159.4670 H   0  0  0  0  0  0  0  0  0  0  0  0
  152.9809  141.0836  162.9001 H   0  0  0  0  0  0  0  0  0  0  0  0
  151.8072  143.0188  163.9127 H   0  0  0  0  0  0  0  0  0  0  0  0
  150.6423  144.6657  162.4704 H   0  0  0  0  0  0  0  0  0  0  0  0
  149.6018  145.1340  160.3020 H   0  0  0  0  0  0  0  0  0  0  0  0
  150.0227  144.2169  158.8590 H   0  0  0  0  0  0  0  0  0  0  0  0
  151.1070  145.4843  159.4478 H   0  0  0  0  0  0  0  0  0  0  0  0
  1  2  1  0  0  0  0
  1 25  1  0  0  0  0
  1 26  1  0  0  0  0
  1 27  1  0  0  0  0
  2  3  1  0  0  0  0
  2 28  1  0  0  0  0
  3 24  1  0  0  0  0
  3  4  2  0  0  0  0
  4  5  1  0  0  0  0
  5  6  2  0  0  0  0
  5 29  1  0  0  0  0
  6  7  1  0  0  0  0
  7 24  2  0  0  0  0
  7  8  1  0  0  0  0
  8  9  2  0  0  0  0
  9 10  1  0  0  0  0
  9 30  1  0  0  0  0
 10 11  1  0  0  0  0
 10 24  1  0  0  0  0
 11 12  1  0  0  0  0
 11 31  1  0  0  0  0
 11 32  1  0  0  0  0
 12 13  1  0  0  0  0
 12 14  1  0  0  0  0
 12 33  1  0  0  0  0
 13 34  1  0  0  0  0
 14 15  1  0  0  0  0
 14 35  1  0  0  0  0
 14 36  1  0  0  0  0
 15 16  1  0  0  0  0
 16 22  1  0  0  0  0
 16 17  2  0  0  0  0
 17 18  1  0  0  0  0
 17 19  1  0  0  0  0
 18 37  1  0  0  0  0
 18 38  1  0  0  0  0
 18 39  1  0  0  0  0
 19 20  2  0  0  0  0
 19 40  1  0  0  0  0
 20 21  1  0  0  0  0
 20 41  1  0  0  0  0
 21 22  2  0  0  0  0
 21 42  1  0  0  0  0
 22 23  1  0  0  0  0
 23 43  1  0  0  0  0
 23 44  1  0  0  0  0
 23 45  1  0  0  0  0
M  END
> <s_m_source_file>
AV-unprocessed.smi

> <i_m_source_file_index>
737

> <i_lp_mmshare_version>
43012

> <i_f3d_flags>
0

> <s_epik_input>
bjFbY0hdbmMoW05IXVtDSDNdKWMoYzEyKW4oW2NIXW4yKVtDSDJdW0NASF0oW09IXSlbQ0gyXU9jM2MoW0NIM10pW2NIXVtjSF1bY0hdYzNbQ0gzXQ==

> <s_epik_cmdline>
J2VwaWtfcHl0aG9uJywgJy1waCcsICc3LjAnLCAnLXRuJywgJzgnLCAnLW1hJywgJzIwMCcsICctbWV0YWxfYmluZGluZycsICctaW1hZScsICc8aW5maWxlLm1hZT4nLCAnLW9tYWUnLCAnPG91dGZpbGUubWFlPic=

> <r_lp_tautomer_probability>
1

> <r_epik_Ionization_Penalty>
0.0070961

> <r_epik_Ionization_Penalty_Charging>
0

> <r_epik_Ionization_Penalty_Neutral>
0.0070961

> <r_epik_State_Penalty>
-0

> <r_epik_Charging_Adjusted_Penalty>
0

> <i_epik_Tot_Q>
0

> <i_epik_Tot_abs_Q>
0

> <r_epik_Metal_State_Penalty>
-0

> <b_epik_Metal_Only>
0

> <s_lp_Force_Field>
OPLS_2005

> <r_lp_Energy>
18.2804

> <b_lp_Chiralities_Consistent>
1

> <s_lp_Variant>
AV-unprocessed.smi:737-2

> <Gold.Version>
5.8.1

> <Gold.Id.Protein>
6NUR|6NUR_protein|mol2

> <Gold.PLP.Fitness>
47.0579

> <Gold.PLP.PLP>
-45.4149

> <Gold.PLP.part.hbond>
-1.8134

> <Gold.PLP.part.metal>
0.0000

> <Gold.PLP.part.buried>
-5.8314

> <Gold.PLP.part.nonpolar>
-37.3681

> <Gold.PLP.part.repulsive>
0.0737

> <Gold.PLP.ligand.clash>
0.0000

> <Gold.PLP.ligand.torsion>
1.1721

> <Gold.PLP.Chemscore.Hbond>
1.2560

> <Gold.PLP.Chemscore.CHOScore>
0.0000

> <Gold.PLP.Chemscore.Metal>
0.0000

> <Gold.Chemscore.Hbonds>
donor molecule, donor type, donor heavy atom, donor atom, acceptor molecule, acceptor atom, score
      L1  H    13    34       P1  8028  0.30
      P1  H  6896  6908       L1     6  1.00

> <Gold.PLP.Chemscore.Internal.Correction>
0.2191

> <Gold.Rescore>
     Score         DG    S(hbond)    S(metal)    S(lipo)     H(rot)  DE(clash)    DE(int)     intcor
     13.27     -14.43       1.13        0.00     107.79       2.91       0.07       1.09       ----

> <Gold.Chemscore.Fitness>
13.2735

> <Gold.Chemscore.DG>
-14.4287

> <Gold.Chemscore.ZeroCoef>
-5.4800

> <Gold.Chemscore.Hbond>
1.1311

> <Gold.Chemscore.Metal>
0.0000

> <Gold.Chemscore.Lipo>
107.7947

> <Gold.Chemscore.Internal_Hbond>
0.0000

> <Gold.Chemscore.DEClash>
0.0650

> <Gold.Chemscore.DEInternal>
1.0902

> <Gold.Chemscore.Rot>
2.9067

> <Gold.Chemscore.Internal.Correction>
   9.000000E+99

> <Gold.Chemscore.Hbonds>
donor molecule, donor type, donor heavy atom, donor atom, acceptor molecule, acceptor atom, score
      L1  H    13    34       P1  8028  0.29
      P1  H  6896  6908       L1     6  0.50

> <Gold.Chemscore.Hbond.Weighted>
-3.7779

> <Gold.Chemscore.Metal.Weighted>
-0.0000

> <Gold.Chemscore.Lipo.Weighted>
-12.6120

> <Gold.Chemscore.Internal_Hbond.Weighted>
0.0000

> <Gold.Chemscore.DEClash.Weighted>
0.0650

> <Gold.Chemscore.DEInternal.Weighted>
1.0902

> <Gold.Chemscore.Rot.Weighted>
7.4412

> <Gold.Chemscore.Internal.Correction.Weighted>
   9.000000E+99

> <Gold.Protein.RotatedTorsions>
[ 6907 6896 6895 6894 ] final -170.51 input  -60.11 | X-H torsion
[ 7974 7965 7964 7962 ] final  167.36 input  175.53 | X-H torsion
[ 8008 7997 7996 7995 ] final -155.75 input   59.86 | X-H torsion
[ 10167 10162 10161 10158 ] final  -48.00 input  -65.29 | X-H torsion
[ 10718 10713 10712 10709 ] final    8.58 input   66.30 | X-H torsion
[ 10763 10752 10751 10750 ] final   37.51 input  -60.55 | X-H torsion
[ 11005 11000 10999 10996 ] final -161.83 input  -57.11 | X-H torsion

> <Gold.Protein.ActiveResidues>
 VAL166  LYS551  ARG553  GLY616  TRP617  ASP618  TYR619  PRO620  LYS621  CYS622 
 ASP623  PHE694  ASN695  SER759  ASP760  ASP761  ALA762  ILE779  LEU786  VAL792 
 PHE793  MET794  SER795  GLU796  ALA797  LYS798  CYS799  TRP800  GLU811  SER814 

> <Gold.Protein.RotatedAtoms>
  151.5089  133.3489  159.2881 H   0  0  0  0  0  0  0  0  0  0  0  0  # atno 6907 bound_to 6896
  150.8725  134.8103  159.7176 H   0  0  0  0  0  0  0  0  0  0  0  0  # atno 6908 bound_to 6896
  152.4708  134.4975  159.9766 H   0  0  0  0  0  0  0  0  0  0  0  0  # atno 6909 bound_to 6896
  144.7427  139.8749  143.6392 H   0  0  0  0  0  0  0  0  0  0  0  0  # atno 7974 bound_to 7965
  155.7067  140.0773  157.2388 H   0  0  0  0  0  0  0  0  0  0  0  0  # atno 8008 bound_to 7997
  154.4064  140.1637  156.2304 H   0  0  0  0  0  0  0  0  0  0  0  0  # atno 8009 bound_to 7997
  155.9319  140.3390  155.6259 H   0  0  0  0  0  0  0  0  0  0  0  0  # atno 8010 bound_to 7997
  140.6750  143.2759  151.4008 H   0  0  0  0  0  0  0  0  0  0  0  0  # atno 10167 bound_to 10162
  156.9537  130.5906  149.5658 H   0  0  0  0  0  0  0  0  0  0  0  0  # atno 10718 bound_to 10713
  153.0035  135.6276  154.2156 H   0  0  0  0  0  0  0  0  0  0  0  0  # atno 10763 bound_to 10752
  154.1899  135.2809  155.3027 H   0  0  0  0  0  0  0  0  0  0  0  0  # atno 10764 bound_to 10752
  154.5768  135.5660  153.7206 H   0  0  0  0  0  0  0  0  0  0  0  0  # atno 10765 bound_to 10752
  140.6160  134.4800  157.5219 H   0  0  0  0  0  0  0  0  0  0  0  0  # atno 11005 bound_to 11000
  146.1253  139.4278  143.0202 LP  0  0  0  0  0  0  0  0  0  0  0  0  # atno 17320 bound_to 7965
  145.7244  141.0064  143.1385 LP  0  0  0  0  0  0  0  0  0  0  0  0  # atno 17321 bound_to 7965
  139.6038  144.1240  152.2226 LP  0  0  0  0  0  0  0  0  0  0  0  0  # atno 17342 bound_to 10162
  140.0633  144.5839  150.7246 LP  0  0  0  0  0  0  0  0  0  0  0  0  # atno 17343 bound_to 10162
  156.0352  130.5440  150.8634 LP  0  0  0  0  0  0  0  0  0  0  0  0  # atno 17370 bound_to 10713
  157.5705  131.0946  150.9425 LP  0  0  0  0  0  0  0  0  0  0  0  0  # atno 17371 bound_to 10713
  139.9173  134.8221  156.1325 LP  0  0  0  0  0  0  0  0  0  0  0  0  # atno 17394 bound_to 11000
  141.0775  133.6769  156.2267 LP  0  0  0  0  0  0  0  0  0  0  0  0  # atno 17395 bound_to 11000

$$$$
