AV-unprocessed.smi:72|AV-procd|sdf|714|dock7
  -GOLD-   2262017 33D 1   1.00000     0.00000
 Structure written by MMmdl.
 28 29  0  0  0  0  0  0  0  0  2 V2000
  152.1378  139.7596  159.5235 N   0  0  0  0  0  0  0  0  0  0  0  0
  151.3953  139.8732  158.5111 C   0  0  0  0  0  0  0  0  0  0  0  0
  150.0931  140.4918  158.6309 N   0  0  0  0  0  0  0  0  0  0  0  0
  149.3638  140.5764  157.5611 C   0  0  0  0  0  0  0  0  0  0  0  0
  149.8224  140.0690  156.2752 N   0  0  0  0  0  0  0  0  0  0  0  0
  148.9539  140.1838  155.0365 C   0  0  1  0  0  0  0  0  0  0  0  0
  147.6525  139.7865  155.3556 O   0  0  0  0  0  0  0  0  0  0  0  0
  146.7170  140.6609  154.7334 C   0  0  1  0  0  0  0  0  0  0  0  0
  145.3558  140.6204  155.4504 C   0  0  0  0  0  0  0  0  0  0  0  0
  144.4588  141.5272  154.8449 O   0  0  0  0  0  0  0  0  0  0  0  0
  147.4344  142.0179  154.7507 C   0  0  1  0  0  0  0  0  0  0  0  0
  147.2754  142.6626  156.0042 O   0  0  0  0  0  0  0  0  0  0  0  0
  148.8813  141.6211  154.4766 C   0  0  1  0  0  0  0  0  0  0  0  0
  149.8225  142.5421  155.0017 O   0  0  0  0  0  0  0  0  0  0  0  0
  151.1133  139.4831  156.1827 C   0  0  0  0  0  0  0  0  0  0  0  0
  151.4979  139.0893  155.0815 O   0  0  0  0  0  0  0  0  0  0  0  0
  151.8720  139.3931  157.3112 N   0  5  0  0  0  0  0  0  0  0  0  0
  149.3484  139.4701  154.3121 H   0  0  0  0  0  0  0  0  0  0  0  0
  146.6019  140.3537  153.6918 H   0  0  0  0  0  0  0  0  0  0  0  0
  147.0498  142.6852  153.9788 H   0  0  0  0  0  0  0  0  0  0  0  0
  149.0311  141.5531  153.3983 H   0  0  0  0  0  0  0  0  0  0  0  0
  151.7101  140.1368  160.3568 H   0  0  0  0  0  0  0  0  0  0  0  0
  148.3726  141.0311  157.5556 H   0  0  0  0  0  0  0  0  0  0  0  0
  144.9359  139.6140  155.4491 H   0  0  0  0  0  0  0  0  0  0  0  0
  145.4707  140.9245  156.4913 H   0  0  0  0  0  0  0  0  0  0  0  0
  144.1596  141.1545  154.0298 H   0  0  0  0  0  0  0  0  0  0  0  0
  147.9610  143.3070  156.0947 H   0  0  0  0  0  0  0  0  0  0  0  0
  149.3487  143.2693  155.3764 H   0  0  0  0  0  0  0  0  0  0  0  0
  1  2  2  0  0  0  0
  1 22  1  0  0  0  0
  2 17  1  0  0  0  0
  2  3  1  0  0  0  0
  3  4  2  0  0  0  0
  4  5  1  0  0  0  0
  4 23  1  0  0  0  0
  5  6  1  0  0  0  0
  5 15  1  0  0  0  0
  6 18  1  0  0  0  0
  6 13  1  0  0  0  0
  6  7  1  0  0  0  0
  7  8  1  0  0  0  0
  8 19  1  0  0  0  0
  8  9  1  0  0  0  0
  8 11  1  0  0  0  0
  9 10  1  0  0  0  0
  9 24  1  0  0  0  0
  9 25  1  0  0  0  0
 10 26  1  0  0  0  0
 11 20  1  0  0  0  0
 11 12  1  0  0  0  0
 11 13  1  0  0  0  0
 12 27  1  0  0  0  0
 13 21  1  0  0  0  0
 13 14  1  0  0  0  0
 14 28  1  0  0  0  0
 15 16  2  0  0  0  0
 15 17  1  0  0  0  0
M  CHG  1  17  -1
M  END
> <s_m_source_file>
AV-unprocessed.smi

> <i_m_source_file_index>
72

> <i_lp_mmshare_version>
43012

> <i_f3d_flags>
0

> <s_epik_input>
W05IMl1jMW5bY0hdbihjKD1PKW4xKVtDQEBIXTJPW0NASF0oW0NIMl1bT0hdKVtDQEBIXShbT0hdKVtDQEhdMltPSF0=

> <s_epik_cmdline>
J2VwaWtfcHl0aG9uJywgJy1waCcsICc3LjAnLCAnLXRuJywgJzgnLCAnLW1hJywgJzIwMCcsICctbWV0YWxfYmluZGluZycsICctaW1hZScsICc8aW5maWxlLm1hZT4nLCAnLW9tYWUnLCAnPG91dGZpbGUubWFlPic=

> <r_lp_tautomer_probability>
7.17554e-07

> <r_epik_Ionization_Penalty>
12.8705

> <r_epik_Ionization_Penalty_Charging>
5.64144

> <r_epik_Ionization_Penalty_Neutral>
7.22905

> <r_epik_State_Penalty>
3.30104

> <r_epik_Charging_Adjusted_Penalty>
8.94249

> <i_epik_Tot_Q>
-1

> <i_epik_Tot_abs_Q>
1

> <r_epik_Metal_State_Penalty>
0.529074

> <b_epik_Metal_Only>
1

> <s_epik_Chemistry_Notes>
This compound contains an acetal/aminal-like group ( X-CH(R)-Y where X, Y are N, S, or O) that may be acid/base labile, releasing an aldehyde.

> <s_lp_Force_Field>
OPLS_2005

> <r_lp_Energy>
43.693

> <b_lp_Chiralities_Consistent>
1

> <s_lp_Variant>
AV-unprocessed.smi:72-52

> <Gold.Version>
5.8.1

> <Gold.Id.Protein>
6NUR|6NUR_protein|mol2

> <Gold.PLP.Fitness>
37.3979

> <Gold.PLP.PLP>
-20.2241

> <Gold.PLP.part.hbond>
-6.5335

> <Gold.PLP.part.metal>
0.0000

> <Gold.PLP.part.buried>
0.9049

> <Gold.PLP.part.nonpolar>
-14.5522

> <Gold.PLP.part.repulsive>
0.0968

> <Gold.PLP.ligand.clash>
0.0000

> <Gold.PLP.ligand.torsion>
0.3550

> <Gold.PLP.Chemscore.Hbond>
5.9600

> <Gold.PLP.Chemscore.CHOScore>
0.0000

> <Gold.PLP.Chemscore.Metal>
0.0000

> <Gold.Chemscore.Hbonds>
donor molecule, donor type, donor heavy atom, donor atom, acceptor molecule, acceptor atom, score
      L1  H    10    26       P1 10175  1.00
      L1  H    12    27       P1  8028  1.00
      L1  H    14    28       P1  8028  1.00
      P1  H  7989  7998       L1    16  0.13

> <Gold.PLP.Chemscore.Internal.Correction>
0.0037

> <Gold.Rescore>
     Score         DG    S(hbond)    S(metal)    S(lipo)     H(rot)  DE(clash)    DE(int)     intcor
      9.90     -12.02       4.42        0.00      18.14       4.04       1.33       0.80       ----

> <Gold.Chemscore.Fitness>
9.8981

> <Gold.Chemscore.DG>
-12.0211

> <Gold.Chemscore.ZeroCoef>
-5.4800

> <Gold.Chemscore.Hbond>
4.4196

> <Gold.Chemscore.Metal>
0.0000

> <Gold.Chemscore.Lipo>
18.1434

> <Gold.Chemscore.Internal_Hbond>
0.0000

> <Gold.Chemscore.DEClash>
1.3254

> <Gold.Chemscore.DEInternal>
0.7977

> <Gold.Chemscore.Rot>
4.0403

> <Gold.Chemscore.Internal.Correction>
   9.000000E+99

> <Gold.Chemscore.Hbonds>
donor molecule, donor type, donor heavy atom, donor atom, acceptor molecule, acceptor atom, score
      L1  H    10    26       P1 10175  0.60
      L1  H    12    27       P1  8028  0.25
      L1  H    14    28       P1  8028  0.94
      P1  H  7989  7998       L1    16  0.13

> <Gold.Chemscore.Hbond.Weighted>
-14.7615

> <Gold.Chemscore.Metal.Weighted>
-0.0000

> <Gold.Chemscore.Lipo.Weighted>
-2.1228

> <Gold.Chemscore.Internal_Hbond.Weighted>
0.0000

> <Gold.Chemscore.DEClash.Weighted>
1.3254

> <Gold.Chemscore.DEInternal.Weighted>
0.7977

> <Gold.Chemscore.Rot.Weighted>
10.3431

> <Gold.Chemscore.Internal.Correction.Weighted>
   9.000000E+99

> <Gold.Protein.RotatedTorsions>
[ 6907 6896 6895 6894 ] final  -54.78 input  -60.11 | X-H torsion
[ 7974 7965 7964 7962 ] final -122.07 input  175.53 | X-H torsion
[ 8008 7997 7996 7995 ] final   64.78 input   59.86 | X-H torsion
[ 10167 10162 10161 10158 ] final   29.84 input  -65.29 | X-H torsion
[ 10718 10713 10712 10709 ] final    9.52 input   66.30 | X-H torsion
[ 10763 10752 10751 10750 ] final  -25.25 input  -60.55 | X-H torsion
[ 11005 11000 10999 10996 ] final -111.66 input  -57.11 | X-H torsion

> <Gold.Protein.ActiveResidues>
 VAL166  LYS551  ARG553  GLY616  TRP617  ASP618  TYR619  PRO620  LYS621  CYS622 
 ASP623  PHE694  ASN695  SER759  ASP760  ASP761  ALA762  ILE779  LEU786  VAL792 
 PHE793  MET794  SER795  GLU796  ALA797  LYS798  CYS799  TRP800  GLU811  SER814 

> <Gold.Protein.RotatedAtoms>
  150.8308  134.7561  159.6851 H   0  0  0  0  0  0  0  0  0  0  0  0  # atno 6907 bound_to 6896
  152.4413  134.5582  159.9896 H   0  0  0  0  0  0  0  0  0  0  0  0  # atno 6908 bound_to 6896
  151.5743  133.3348  159.3031 H   0  0  0  0  0  0  0  0  0  0  0  0  # atno 6909 bound_to 6896
  145.0335  140.8087  143.4309 H   0  0  0  0  0  0  0  0  0  0  0  0  # atno 7974 bound_to 7965
  155.6514  140.3497  155.4749 H   0  0  0  0  0  0  0  0  0  0  0  0  # atno 8008 bound_to 7997
  155.9844  140.1181  157.0719 H   0  0  0  0  0  0  0  0  0  0  0  0  # atno 8009 bound_to 7997
  154.4201  140.1132  156.5466 H   0  0  0  0  0  0  0  0  0  0  0  0  # atno 8010 bound_to 7997
  140.4731  144.0732  150.6243 H   0  0  0  0  0  0  0  0  0  0  0  0  # atno 10167 bound_to 10162
  156.9675  130.5956  149.5666 H   0  0  0  0  0  0  0  0  0  0  0  0  # atno 10718 bound_to 10713
  153.6968  135.6958  153.5074 H   0  0  0  0  0  0  0  0  0  0  0  0  # atno 10763 bound_to 10752
  153.2372  135.4318  155.0658 H   0  0  0  0  0  0  0  0  0  0  0  0  # atno 10764 bound_to 10752
  154.8356  135.3499  154.6508 H   0  0  0  0  0  0  0  0  0  0  0  0  # atno 10765 bound_to 10752
  141.0721  133.9362  157.2463 H   0  0  0  0  0  0  0  0  0  0  0  0  # atno 11005 bound_to 11000
  145.1740  139.2388  143.5327 LP  0  0  0  0  0  0  0  0  0  0  0  0  # atno 17320 bound_to 7965
  146.3501  140.1498  142.8592 LP  0  0  0  0  0  0  0  0  0  0  0  0  # atno 17321 bound_to 7965
  140.3952  143.2731  152.0013 LP  0  0  0  0  0  0  0  0  0  0  0  0  # atno 17342 bound_to 10162
  139.4821  144.6044  151.7548 LP  0  0  0  0  0  0  0  0  0  0  0  0  # atno 17343 bound_to 10162
  156.0296  130.5388  150.8500 LP  0  0  0  0  0  0  0  0  0  0  0  0  # atno 17370 bound_to 10713
  157.5615  131.0946  150.9551 LP  0  0  0  0  0  0  0  0  0  0  0  0  # atno 17371 bound_to 10713
  139.9534  135.0170  156.9060 LP  0  0  0  0  0  0  0  0  0  0  0  0  # atno 17394 bound_to 11000
  140.5651  134.0498  155.7411 LP  0  0  0  0  0  0  0  0  0  0  0  0  # atno 17395 bound_to 11000

$$$$
