AV-unprocessed.smi:2368|AV-procd|sdf|9428|dock4
  -GOLD-   2272013 63D 1   1.00000     0.00000
 Structure written by MMmdl.
 35 36  0  0  0  0  0  0  0  0  1 V2000
  151.7018  140.1880  155.9928 C   0  0  0  0  0  0  0  0  0  0  0  0
  150.3289  140.2235  155.3484 C   0  0  0  0  0  0  0  0  0  0  0  0
  149.6915  141.4137  155.3951 N   0  0  0  0  0  0  0  0  0  0  0  0
  148.4637  141.4979  154.8435 C   0  0  0  0  0  0  0  0  0  0  0  0
  147.8189  140.4133  154.2191 C   0  0  0  0  0  0  0  0  0  0  0  0
  148.4905  139.1689  154.1530 C   0  0  0  0  0  0  0  0  0  0  0  0
  147.9255  138.0036  153.5628 N   0  0  0  0  0  0  0  0  0  0  0  0
  146.6296  137.6837  153.4045 C   0  0  0  0  0  0  0  0  0  0  0  0
  145.6746  138.3751  153.7584 O   0  0  0  0  0  0  0  0  0  0  0  0
  146.4956  136.5029  152.7845 N   0  0  0  0  0  0  0  0  0  0  0  0
  145.2209  135.8777  152.4507 C   0  0  1  0  0  0  0  0  0  0  0  0
  145.1326  135.6151  150.9725 C   0  0  0  0  0  0  0  0  0  0  0  0
  144.8651  134.3417  150.6920 C   0  0  0  0  0  0  0  0  0  0  0  0
  144.7246  133.4874  151.9244 C   0  0  1  0  0  0  0  0  0  0  0  0
  145.6329  132.2477  151.8764 C   0  0  0  0  0  0  0  0  0  0  0  0
  146.9689  132.6314  151.6294 O   0  0  0  0  0  0  0  0  0  0  0  0
  145.0588  134.4686  153.0788 C   0  0  0  0  0  0  0  0  0  0  0  0
  149.7720  139.0714  154.7450 C   0  0  0  0  0  0  0  0  0  0  0  0
  150.6453  137.5753  154.7257 Cl  0  0  0  0  0  0  0  0  0  0  0  0
  144.3920  136.5291  152.7327 H   0  0  0  0  0  0  0  0  0  0  0  0
  143.6803  133.1782  151.9877 H   0  0  0  0  0  0  0  0  0  0  0  0
  152.4603  139.9269  155.2546 H   0  0  0  0  0  0  0  0  0  0  0  0
  151.7266  139.4461  156.7910 H   0  0  0  0  0  0  0  0  0  0  0  0
  151.9688  141.1542  156.4228 H   0  0  0  0  0  0  0  0  0  0  0  0
  147.9754  142.4589  154.9077 H   0  0  0  0  0  0  0  0  0  0  0  0
  146.8268  140.5546  153.8191 H   0  0  0  0  0  0  0  0  0  0  0  0
  148.5911  137.3702  153.1448 H   0  0  0  0  0  0  0  0  0  0  0  0
  147.3318  136.0008  152.5245 H   0  0  0  0  0  0  0  0  0  0  0  0
  145.2598  136.3983  150.2394 H   0  0  0  0  0  0  0  0  0  0  0  0
  144.7448  133.9382  149.6973 H   0  0  0  0  0  0  0  0  0  0  0  0
  145.5979  131.7126  152.8257 H   0  0  0  0  0  0  0  0  0  0  0  0
  145.3064  131.5532  151.1014 H   0  0  0  0  0  0  0  0  0  0  0  0
  147.4543  131.8698  151.3513 H   0  0  0  0  0  0  0  0  0  0  0  0
  145.9757  134.1628  153.5855 H   0  0  0  0  0  0  0  0  0  0  0  0
  144.2721  134.4659  153.8341 H   0  0  0  0  0  0  0  0  0  0  0  0
  1  2  1  0  0  0  0
  1 22  1  0  0  0  0
  1 23  1  0  0  0  0
  1 24  1  0  0  0  0
  2 18  1  0  0  0  0
  2  3  2  0  0  0  0
  3  4  1  0  0  0  0
  4  5  2  0  0  0  0
  4 25  1  0  0  0  0
  5  6  1  0  0  0  0
  5 26  1  0  0  0  0
  6  7  1  0  0  0  0
  6 18  2  0  0  0  0
  7  8  1  0  0  0  0
  7 27  1  0  0  0  0
  8  9  2  0  0  0  0
  8 10  1  0  0  0  0
 10 11  1  0  0  0  0
 10 28  1  0  0  0  0
 11 20  1  0  0  0  0
 11 17  1  0  0  0  0
 11 12  1  0  0  0  0
 12 13  2  0  0  0  0
 12 29  1  0  0  0  0
 13 14  1  0  0  0  0
 13 30  1  0  0  0  0
 14 21  1  0  0  0  0
 14 15  1  0  0  0  0
 14 17  1  0  0  0  0
 15 16  1  0  0  0  0
 15 31  1  0  0  0  0
 15 32  1  0  0  0  0
 16 33  1  0  0  0  0
 17 34  1  0  0  0  0
 17 35  1  0  0  0  0
 18 19  1  0  0  0  0
M  END
> <s_m_source_file>
AV-unprocessed.smi

> <i_m_source_file_index>
2368

> <i_lp_mmshare_version>
43012

> <i_f3d_flags>
0

> <s_epik_input>
W0NIM11jMW5bY0hdW2NIXWMoYzFDbClbTkhdQyg9TylbTkhdW0NAQEhdMltDSF09W0NIXVtDQEBIXShbQ0gyXTIpW0NIMl1bT0hd

> <s_epik_cmdline>
J2VwaWtfcHl0aG9uJywgJy1waCcsICc3LjAnLCAnLXRuJywgJzgnLCAnLW1hJywgJzIwMCcsICctbWV0YWxfYmluZGluZycsICctaW1hZScsICc8aW5maWxlLm1hZT4nLCAnLW9tYWUnLCAnPG91dGZpbGUubWFlPic=

> <r_epik_Ionization_Penalty>
0.00964582

> <r_epik_Ionization_Penalty_Charging>
0

> <r_epik_Ionization_Penalty_Neutral>
0.00964582

> <r_epik_State_Penalty>
0.00730775

> <r_epik_Charging_Adjusted_Penalty>
0.00730775

> <i_epik_Tot_Q>
0

> <i_epik_Tot_abs_Q>
0

> <r_epik_Metal_State_Penalty>
0.00719079

> <b_epik_Metal_Only>
0

> <s_lp_Force_Field>
OPLS_2005

> <r_lp_Energy>
21.5673

> <b_lp_Chiralities_Consistent>
1

> <s_lp_Variant>
AV-unprocessed.smi:2368-4

> <Gold.Version>
5.8.1

> <Gold.Id.Protein>
6NUR|6NUR_protein|mol2

> <Gold.PLP.Fitness>
43.3667

> <Gold.PLP.PLP>
-31.9017

> <Gold.PLP.part.hbond>
-3.0000

> <Gold.PLP.part.metal>
0.0000

> <Gold.PLP.part.buried>
-2.3057

> <Gold.PLP.part.nonpolar>
-27.5359

> <Gold.PLP.part.repulsive>
0.3543

> <Gold.PLP.ligand.clash>
0.0000

> <Gold.PLP.ligand.torsion>
0.1676

> <Gold.PLP.Chemscore.Hbond>
2.9280

> <Gold.PLP.Chemscore.CHOScore>
1.0000

> <Gold.PLP.Chemscore.Metal>
0.0000

> <Gold.Chemscore.Hbonds>
donor molecule, donor type, donor heavy atom, donor atom, acceptor molecule, acceptor atom, score
      L1  H     7    27       P1  7948  0.98
      L1  H    10    28       P1  7948  0.86
      L1  H    16    33       P1 10747  0.76
      L1  C     4    25       P1  8028  1.00

> <Gold.PLP.Chemscore.Internal.Correction>
0.0163

> <Gold.Rescore>
     Score         DG    S(hbond)    S(metal)    S(lipo)     H(rot)  DE(clash)    DE(int)     intcor
     18.14     -19.46       2.93        0.00      74.93       1.78       0.03       1.29       ----

> <Gold.Chemscore.Fitness>
18.1389

> <Gold.Chemscore.DG>
-19.4643

> <Gold.Chemscore.ZeroCoef>
-5.4800

> <Gold.Chemscore.Hbond>
2.9260

> <Gold.Chemscore.Metal>
0.0000

> <Gold.Chemscore.Lipo>
74.9329

> <Gold.Chemscore.Internal_Hbond>
0.0000

> <Gold.Chemscore.DEClash>
0.0324

> <Gold.Chemscore.DEInternal>
1.2929

> <Gold.Chemscore.Rot>
1.7796

> <Gold.Chemscore.Internal.Correction>
   9.000000E+99

> <Gold.Chemscore.Hbonds>
donor molecule, donor type, donor heavy atom, donor atom, acceptor molecule, acceptor atom, score
      L1  H     7    27       P1  7948  0.93
      L1  H    10    28       P1  7948  0.85
      L1  H    16    33       P1 10747  0.75

> <Gold.Chemscore.Hbond.Weighted>
-9.7729

> <Gold.Chemscore.Metal.Weighted>
-0.0000

> <Gold.Chemscore.Lipo.Weighted>
-8.7672

> <Gold.Chemscore.Internal_Hbond.Weighted>
0.0000

> <Gold.Chemscore.DEClash.Weighted>
0.0324

> <Gold.Chemscore.DEInternal.Weighted>
1.2929

> <Gold.Chemscore.Rot.Weighted>
4.5558

> <Gold.Chemscore.Internal.Correction.Weighted>
   9.000000E+99

> <Gold.Protein.RotatedTorsions>
[ 6907 6896 6895 6894 ] final  126.95 input  -60.11 | X-H torsion
[ 7974 7965 7964 7962 ] final  148.84 input  175.53 | X-H torsion
[ 8008 7997 7996 7995 ] final -102.02 input   59.86 | X-H torsion
[ 10167 10162 10161 10158 ] final  -56.05 input  -65.29 | X-H torsion
[ 10718 10713 10712 10709 ] final  -57.02 input   66.30 | X-H torsion
[ 10763 10752 10751 10750 ] final   -9.38 input  -60.55 | X-H torsion
[ 11005 11000 10999 10996 ] final    1.44 input  -57.11 | X-H torsion

> <Gold.Protein.ActiveResidues>
 VAL166  LYS551  ARG553  GLY616  TRP617  ASP618  TYR619  PRO620  LYS621  CYS622 
 ASP623  PHE694  ASN695  SER759  ASP760  ASP761  ALA762  ILE779  LEU786  VAL792 
 PHE793  MET794  SER795  GLU796  ALA797  LYS798  CYS799  TRP800  GLU811  SER814 

> <Gold.Protein.RotatedAtoms>
  152.3857  133.6607  159.6196 H   0  0  0  0  0  0  0  0  0  0  0  0  # atno 6907 bound_to 6896
  150.7777  133.9039  159.3358 H   0  0  0  0  0  0  0  0  0  0  0  0  # atno 6908 bound_to 6896
  151.6836  135.0959  160.0272 H   0  0  0  0  0  0  0  0  0  0  0  0  # atno 6909 bound_to 6896
  144.8483  139.6205  143.5985 H   0  0  0  0  0  0  0  0  0  0  0  0  # atno 7974 bound_to 7965
  154.8507  140.0431  157.1602 H   0  0  0  0  0  0  0  0  0  0  0  0  # atno 8008 bound_to 7997
  154.8945  140.2991  155.5331 H   0  0  0  0  0  0  0  0  0  0  0  0  # atno 8009 bound_to 7997
  156.2996  140.2387  156.3965 H   0  0  0  0  0  0  0  0  0  0  0  0  # atno 8010 bound_to 7997
  140.6339  143.2473  151.5168 H   0  0  0  0  0  0  0  0  0  0  0  0  # atno 10167 bound_to 10162
  156.1243  130.4164  150.0385 H   0  0  0  0  0  0  0  0  0  0  0  0  # atno 10718 bound_to 10713
  153.4539  135.7015  153.6091 H   0  0  0  0  0  0  0  0  0  0  0  0  # atno 10763 bound_to 10752
  153.4414  135.3779  155.2230 H   0  0  0  0  0  0  0  0  0  0  0  0  # atno 10764 bound_to 10752
  154.8728  135.3975  154.3956 H   0  0  0  0  0  0  0  0  0  0  0  0  # atno 10765 bound_to 10752
  140.6154  133.9710  155.8198 H   0  0  0  0  0  0  0  0  0  0  0  0  # atno 11005 bound_to 11000
  146.2763  139.6761  142.9261 LP  0  0  0  0  0  0  0  0  0  0  0  0  # atno 17320 bound_to 7965
  145.4552  141.0430  143.2782 LP  0  0  0  0  0  0  0  0  0  0  0  0  # atno 17321 bound_to 7965
  139.5551  144.2296  152.1598 LP  0  0  0  0  0  0  0  0  0  0  0  0  # atno 17342 bound_to 10162
  140.1547  144.5082  150.6667 LP  0  0  0  0  0  0  0  0  0  0  0  0  # atno 17343 bound_to 10162
  156.8314  130.9394  151.3637 LP  0  0  0  0  0  0  0  0  0  0  0  0  # atno 17370 bound_to 10713
  157.6425  130.8817  149.9475 LP  0  0  0  0  0  0  0  0  0  0  0  0  # atno 17371 bound_to 10713
  141.0779  134.0107  157.3430 LP  0  0  0  0  0  0  0  0  0  0  0  0  # atno 17394 bound_to 11000
  139.9175  135.0198  156.7937 LP  0  0  0  0  0  0  0  0  0  0  0  0  # atno 17395 bound_to 11000

$$$$
