AV-unprocessed.smi:3204|AV-procd|sdf|12250|dock6
  -GOLD-   2272018 83D 1   1.00000     0.00000
 Structure written by MMmdl.
 30 31  0  0  0  0  0  0  0  0  1 V2000
  153.0131  142.4836  159.5645 C   0  0  0  0  0  0  0  0  0  0  0  0
  152.5227  141.0448  159.3672 C   0  0  0  0  0  0  0  0  0  0  0  0
  152.0579  140.7829  157.9466 C   0  0  0  0  0  0  0  0  0  0  0  0
  152.6468  139.7556  157.2941 N   0  0  0  0  0  0  0  0  0  0  0  0
  152.2364  139.5224  156.0451 C   0  0  0  0  0  0  0  0  0  0  0  0
  151.3008  140.1974  155.3724 N   0  0  0  0  0  0  0  0  0  0  0  0
  150.6970  141.2264  156.0139 C   0  0  0  0  0  0  0  0  0  0  0  0
  149.7084  141.9702  155.3538 N   0  0  0  0  0  0  0  0  0  0  0  0
  148.8835  141.3830  154.3037 C   0  0  2  0  0  0  0  0  0  0  0  0
  147.4732  141.9754  154.3106 C   0  0  0  0  0  0  0  0  0  0  0  0
  146.6732  140.9407  153.7684 O   0  0  0  0  0  0  0  0  0  0  0  0
  147.1132  139.7271  154.3576 C   0  0  0  0  0  0  0  0  0  0  0  0
  148.6332  139.8833  154.4943 C   0  0  1  0  0  0  0  0  0  0  0  0
  149.2730  139.1423  153.4754 O   0  0  0  0  0  0  0  0  0  0  0  0
  151.0514  141.5646  157.3378 C   0  0  0  0  0  0  0  0  0  0  0  0
  150.4518  142.5889  157.9927 F   0  0  0  0  0  0  0  0  0  0  0  0
  153.3424  142.6439  160.5913 H   0  0  0  0  0  0  0  0  0  0  0  0
  152.2217  143.2030  159.3525 H   0  0  0  0  0  0  0  0  0  0  0  0
  153.8539  142.7052  158.9065 H   0  0  0  0  0  0  0  0  0  0  0  0
  153.3168  140.3443  159.6270 H   0  0  0  0  0  0  0  0  0  0  0  0
  151.7000  140.8392  160.0534 H   0  0  0  0  0  0  0  0  0  0  0  0
  152.7096  138.7030  155.5247 H   0  0  0  0  0  0  0  0  0  0  0  0
  149.5102  142.9122  155.6588 H   0  0  0  0  0  0  0  0  0  0  0  0
  149.3296  141.5739  153.3260 H   0  0  0  0  0  0  0  0  0  0  0  0
  147.1315  142.1889  155.3254 H   0  0  0  0  0  0  0  0  0  0  0  0
  147.3996  142.8923  153.7252 H   0  0  0  0  0  0  0  0  0  0  0  0
  146.6553  139.6343  155.3435 H   0  0  0  0  0  0  0  0  0  0  0  0
  146.8109  138.8611  153.7673 H   0  0  0  0  0  0  0  0  0  0  0  0
  148.9679  139.5185  155.4665 H   0  0  0  0  0  0  0  0  0  0  0  0
  149.2654  139.6591  152.6839 H   0  0  0  0  0  0  0  0  0  0  0  0
  1  2  1  0  0  0  0
  1 17  1  0  0  0  0
  1 18  1  0  0  0  0
  1 19  1  0  0  0  0
  2  3  1  0  0  0  0
  2 20  1  0  0  0  0
  2 21  1  0  0  0  0
  3 15  1  0  0  0  0
  3  4  2  0  0  0  0
  4  5  1  0  0  0  0
  5  6  2  0  0  0  0
  5 22  1  0  0  0  0
  6  7  1  0  0  0  0
  7  8  1  0  0  0  0
  7 15  2  0  0  0  0
  8  9  1  0  0  0  0
  8 23  1  0  0  0  0
  9 13  1  0  0  0  0
  9 10  1  0  0  0  0
  9 24  1  0  0  0  0
 10 11  1  0  0  0  0
 10 25  1  0  0  0  0
 10 26  1  0  0  0  0
 11 12  1  0  0  0  0
 12 13  1  0  0  0  0
 12 27  1  0  0  0  0
 12 28  1  0  0  0  0
 13 14  1  0  0  0  0
 13 29  1  0  0  0  0
 14 30  1  0  0  0  0
 15 16  1  0  0  0  0
M  END
> <s_m_source_file>
AV-unprocessed.smi

> <i_m_source_file_index>
3204

> <i_lp_mmshare_version>
43012

> <i_f3d_flags>
0

> <s_epik_input>
W0NIM11bQ0gyXWMxbltjSF1uYyhjMUYpW05IXVtDQEBIXTJbQ0gyXU9bQ0gyXVtDQEhdMltPSF0=

> <s_epik_cmdline>
J2VwaWtfcHl0aG9uJywgJy1waCcsICc3LjAnLCAnLXRuJywgJzgnLCAnLW1hJywgJzIwMCcsICctbWV0YWxfYmluZGluZycsICctaW1hZScsICc8aW5maWxlLm1hZT4nLCAnLW9tYWUnLCAnPG91dGZpbGUubWFlPic=

> <r_lp_tautomer_probability>
1

> <r_epik_Ionization_Penalty>
0.000484964

> <r_epik_Ionization_Penalty_Charging>
0

> <r_epik_Ionization_Penalty_Neutral>
0.000484964

> <r_epik_State_Penalty>
-0

> <r_epik_Charging_Adjusted_Penalty>
0

> <i_epik_Tot_Q>
0

> <i_epik_Tot_abs_Q>
0

> <r_epik_Metal_State_Penalty>
-0

> <b_epik_Metal_Only>
0

> <s_lp_Force_Field>
OPLS_2005

> <r_lp_Energy>
13.6654

> <b_lp_Chiralities_Consistent>
1

> <s_lp_Variant>
AV-unprocessed.smi:3204-1

> <Gold.Version>
5.8.1

> <Gold.Id.Protein>
6NUR|6NUR_protein|mol2

> <Gold.PLP.Fitness>
43.7020

> <Gold.PLP.PLP>
-32.7909

> <Gold.PLP.part.hbond>
-3.8263

> <Gold.PLP.part.metal>
0.0000

> <Gold.PLP.part.buried>
-4.8951

> <Gold.PLP.part.nonpolar>
-24.4193

> <Gold.PLP.part.repulsive>
0.4012

> <Gold.PLP.ligand.clash>
0.0000

> <Gold.PLP.ligand.torsion>
0.5495

> <Gold.PLP.Chemscore.Hbond>
4.0000

> <Gold.PLP.Chemscore.CHOScore>
0.0000

> <Gold.PLP.Chemscore.Metal>
0.0000

> <Gold.Chemscore.Hbonds>
donor molecule, donor type, donor heavy atom, donor atom, acceptor molecule, acceptor atom, score
      L1  H     8    23       P1  8028  1.00
      L1  H    14    30       P1  7957  1.00
      P1  H  7989  7998       L1     6  1.00
      P1  H  7997  8008       L1     4  0.65

> <Gold.PLP.Chemscore.Internal.Correction>
0.0100

> <Gold.Rescore>
     Score         DG    S(hbond)    S(metal)    S(lipo)     H(rot)  DE(clash)    DE(int)     intcor
     16.13     -17.99       3.15        0.00      57.12       1.83       0.12       1.74       ----

> <Gold.Chemscore.Fitness>
16.1346

> <Gold.Chemscore.DG>
-17.9892

> <Gold.Chemscore.ZeroCoef>
-5.4800

> <Gold.Chemscore.Hbond>
3.1497

> <Gold.Chemscore.Metal>
0.0000

> <Gold.Chemscore.Lipo>
57.1226

> <Gold.Chemscore.Internal_Hbond>
0.0000

> <Gold.Chemscore.DEClash>
0.1186

> <Gold.Chemscore.DEInternal>
1.7360

> <Gold.Chemscore.Rot>
1.8337

> <Gold.Chemscore.Internal.Correction>
   9.000000E+99

> <Gold.Chemscore.Hbonds>
donor molecule, donor type, donor heavy atom, donor atom, acceptor molecule, acceptor atom, score
      L1  H     8    23       P1  8028  0.99
      L1  H    14    30       P1  7957  0.98
      P1  H  7989  7998       L1     6  0.45
      P1  H  7997  8008       L1     4  0.05

> <Gold.Chemscore.Hbond.Weighted>
-10.5201

> <Gold.Chemscore.Metal.Weighted>
-0.0000

> <Gold.Chemscore.Lipo.Weighted>
-6.6833

> <Gold.Chemscore.Internal_Hbond.Weighted>
0.0000

> <Gold.Chemscore.DEClash.Weighted>
0.1186

> <Gold.Chemscore.DEInternal.Weighted>
1.7360

> <Gold.Chemscore.Rot.Weighted>
4.6942

> <Gold.Chemscore.Internal.Correction.Weighted>
   9.000000E+99

> <Gold.Protein.RotatedTorsions>
[ 6907 6896 6895 6894 ] final  125.88 input  -60.11 | X-H torsion
[ 7974 7965 7964 7962 ] final -104.20 input  175.53 | X-H torsion
[ 8008 7997 7996 7995 ] final  -67.14 input   59.86 | X-H torsion
[ 10167 10162 10161 10158 ] final -104.86 input  -65.29 | X-H torsion
[ 10718 10713 10712 10709 ] final  -75.35 input   66.30 | X-H torsion
[ 10763 10752 10751 10750 ] final  -20.84 input  -60.55 | X-H torsion
[ 11005 11000 10999 10996 ] final   58.76 input  -57.11 | X-H torsion

> <Gold.Protein.ActiveResidues>
 VAL166  LYS551  ARG553  GLY616  TRP617  ASP618  TYR619  PRO620  LYS621  CYS622 
 ASP623  PHE694  ASN695  SER759  ASP760  ASP761  ALA762  ILE779  LEU786  VAL792 
 PHE793  MET794  SER795  GLU796  ALA797  LYS798  CYS799  TRP800  GLU811  SER814 

> <Gold.Protein.RotatedAtoms>
  152.3953  133.6738  159.6270 H   0  0  0  0  0  0  0  0  0  0  0  0  # atno 6907 bound_to 6896
  150.7853  133.8884  159.3315 H   0  0  0  0  0  0  0  0  0  0  0  0  # atno 6908 bound_to 6896
  151.6662  135.0984  160.0240 H   0  0  0  0  0  0  0  0  0  0  0  0  # atno 6909 bound_to 6896
  145.2462  140.9222  143.3122 H   0  0  0  0  0  0  0  0  0  0  0  0  # atno 7974 bound_to 7965
  154.4780  140.0898  156.7310 H   0  0  0  0  0  0  0  0  0  0  0  0  # atno 8008 bound_to 7997
  155.4544  140.3458  155.4286 H   0  0  0  0  0  0  0  0  0  0  0  0  # atno 8009 bound_to 7997
  156.1147  140.1457  156.9277 H   0  0  0  0  0  0  0  0  0  0  0  0  # atno 8010 bound_to 7997
  140.2048  143.3791  152.1100 H   0  0  0  0  0  0  0  0  0  0  0  0  # atno 10167 bound_to 10162
  156.0211  130.4438  150.3029 H   0  0  0  0  0  0  0  0  0  0  0  0  # atno 10718 bound_to 10713
  153.6268  135.6990  153.5290 H   0  0  0  0  0  0  0  0  0  0  0  0  # atno 10763 bound_to 10752
  153.2892  135.4162  155.1151 H   0  0  0  0  0  0  0  0  0  0  0  0  # atno 10764 bound_to 10752
  154.8531  135.3621  154.5810 H   0  0  0  0  0  0  0  0  0  0  0  0  # atno 10765 bound_to 10752
  140.0353  134.5952  155.9452 H   0  0  0  0  0  0  0  0  0  0  0  0  # atno 11005 bound_to 11000
  144.9544  139.4047  143.6386 LP  0  0  0  0  0  0  0  0  0  0  0  0  # atno 17320 bound_to 7965
  146.3315  139.8567  142.8863 LP  0  0  0  0  0  0  0  0  0  0  0  0  # atno 17321 bound_to 7965
  139.5203  144.7031  151.5435 LP  0  0  0  0  0  0  0  0  0  0  0  0  # atno 17342 bound_to 10162
  140.6365  143.8974  150.6652 LP  0  0  0  0  0  0  0  0  0  0  0  0  # atno 17343 bound_to 10162
  157.1132  131.0227  151.3039 LP  0  0  0  0  0  0  0  0  0  0  0  0  # atno 17370 bound_to 10713
  157.4688  130.7696  149.7304 LP  0  0  0  0  0  0  0  0  0  0  0  0  # atno 17371 bound_to 10713
  141.1854  133.6555  156.5196 LP  0  0  0  0  0  0  0  0  0  0  0  0  # atno 17394 bound_to 11000
  140.4157  134.7232  157.4862 LP  0  0  0  0  0  0  0  0  0  0  0  0  # atno 17395 bound_to 11000

$$$$
