AV-unprocessed.smi:2448|AV-procd|sdf|9658|dock9
  -GOLD-   2272013293D 1   1.00000     0.00000
 Structure written by MMmdl.
 38 39  0  0  0  0  0  0  0  0  2 V2000
  144.3121  137.2790  153.7584 O   0  0  0  0  0  0  0  0  0  0  0  0
  145.7076  137.0623  153.6363 C   0  0  2  0  0  0  0  0  0  0  0  0
  145.9359  135.5647  153.3538 C   0  0  0  0  0  0  0  0  0  0  0  0
  147.3238  135.1520  153.6612 N   0  3  0  0  0  0  0  0  0  0  0  0
  147.5595  133.6889  153.6680 C   0  0  1  0  0  0  0  0  0  0  0  0
  147.6929  133.1446  152.2278 C   0  0  0  0  0  0  0  0  0  0  0  0
  146.4145  132.5242  151.6938 C   0  0  0  0  0  0  0  0  0  0  0  0
  146.3417  131.1412  151.4288 C   0  0  0  0  0  0  0  0  0  0  0  0
  145.1233  130.6108  150.9586 C   0  0  0  0  0  0  0  0  0  0  0  0
  144.0198  131.3610  150.7512 N   0  0  0  0  0  0  0  0  0  0  0  0
  144.0985  132.6856  151.0008 C   0  0  0  0  0  0  0  0  0  0  0  0
  145.2674  133.3148  151.4734 C   0  0  0  0  0  0  0  0  0  0  0  0
  148.8056  133.3672  154.5154 C   0  0  0  0  0  0  0  0  0  0  0  0
  149.1245  132.0807  154.3718 F   0  0  0  0  0  0  0  0  0  0  0  0
  149.8405  134.1035  154.1117 F   0  0  0  0  0  0  0  0  0  0  0  0
  148.5738  133.6115  155.8055 F   0  0  0  0  0  0  0  0  0  0  0  0
  146.3703  137.5107  154.9494 C   0  0  0  0  0  0  0  0  0  0  0  0
  146.3648  139.0424  154.9782 C   0  0  0  0  0  0  0  0  0  0  0  0
  146.5680  139.6205  153.2750 S   0  0  0  0  0  0  0  0  0  0  0  0
  146.2816  137.9856  152.5465 C   0  0  0  0  0  0  0  0  0  0  0  0
  144.0927  138.0941  153.3325 H   0  0  0  0  0  0  0  0  0  0  0  0
  145.2547  134.9603  153.9545 H   0  0  0  0  0  0  0  0  0  0  0  0
  145.7047  135.3505  152.3103 H   0  0  0  0  0  0  0  0  0  0  0  0
  147.9488  135.5759  152.9902 H   0  0  0  0  0  0  0  0  0  0  0  0
  146.7108  133.1982  154.1483 H   0  0  0  0  0  0  0  0  0  0  0  0
  148.0132  133.9400  151.5537 H   0  0  0  0  0  0  0  0  0  0  0  0
  148.4750  132.3854  152.1889 H   0  0  0  0  0  0  0  0  0  0  0  0
  147.1951  130.4975  151.5846 H   0  0  0  0  0  0  0  0  0  0  0  0
  145.0315  129.5556  150.7487 H   0  0  0  0  0  0  0  0  0  0  0  0
  143.2018  133.2610  150.8247 H   0  0  0  0  0  0  0  0  0  0  0  0
  145.2758  134.3781  151.6643 H   0  0  0  0  0  0  0  0  0  0  0  0
  145.8821  137.0885  155.8288 H   0  0  0  0  0  0  0  0  0  0  0  0
  147.4053  137.1661  154.9682 H   0  0  0  0  0  0  0  0  0  0  0  0
  145.4066  139.4079  155.3487 H   0  0  0  0  0  0  0  0  0  0  0  0
  147.1452  139.4448  155.6244 H   0  0  0  0  0  0  0  0  0  0  0  0
  147.2482  137.6096  152.2095 H   0  0  0  0  0  0  0  0  0  0  0  0
  145.6367  138.0563  151.6698 H   0  0  0  0  0  0  0  0  0  0  0  0
  147.5517  135.5106  154.5777 H   0  0  0  0  0  0  0  0  0  0  0  0
  1  2  1  0  0  0  0
  1 21  1  0  0  0  0
  2 20  1  0  0  0  0
  2  3  1  0  0  0  0
  2 17  1  0  0  0  0
  3  4  1  0  0  0  0
  3 22  1  0  0  0  0
  3 23  1  0  0  0  0
  4  5  1  0  0  0  0
  4 24  1  0  0  0  0
  4 38  1  0  0  0  0
  5  6  1  0  0  0  0
  5 13  1  0  0  0  0
  5 25  1  0  0  0  0
  6  7  1  0  0  0  0
  6 26  1  0  0  0  0
  6 27  1  0  0  0  0
  7 12  1  0  0  0  0
  7  8  2  0  0  0  0
  8  9  1  0  0  0  0
  8 28  1  0  0  0  0
  9 10  2  0  0  0  0
  9 29  1  0  0  0  0
 10 11  1  0  0  0  0
 11 12  2  0  0  0  0
 11 30  1  0  0  0  0
 12 31  1  0  0  0  0
 13 14  1  0  0  0  0
 13 15  1  0  0  0  0
 13 16  1  0  0  0  0
 17 18  1  0  0  0  0
 17 32  1  0  0  0  0
 17 33  1  0  0  0  0
 18 19  1  0  0  0  0
 18 34  1  0  0  0  0
 18 35  1  0  0  0  0
 19 20  1  0  0  0  0
 20 36  1  0  0  0  0
 20 37  1  0  0  0  0
M  CHG  1   4   1
M  END
> <s_m_source_file>
AV-unprocessed.smi

> <i_m_source_file_index>
2448

> <i_lp_mmshare_version>
43012

> <i_f3d_flags>
0

> <s_epik_input>
W0NIMl0xU1tDSDJdW0NIMl1bQ0BAXTEoW09IXSlbQ0gyXVtOSF1bQ0BASF0oQyhGKShGKUYpW0NIMl1jMltjSF1bY0hdbltjSF1bY0hdMg==

> <s_epik_cmdline>
J2VwaWtfcHl0aG9uJywgJy1waCcsICc3LjAnLCAnLXRuJywgJzgnLCAnLW1hJywgJzIwMCcsICctbWV0YWxfYmluZGluZycsICctaW1hZScsICc8aW5maWxlLm1hZT4nLCAnLW9tYWUnLCAnPG91dGZpbGUubWFlPic=

> <r_epik_Ionization_Penalty>
1.19945

> <r_epik_Ionization_Penalty_Charging>
1.19892

> <r_epik_Ionization_Penalty_Neutral>
0.000532129

> <r_epik_State_Penalty>
0.752927

> <r_epik_Charging_Adjusted_Penalty>
1.95185

> <i_epik_Tot_Q>
1

> <i_epik_Tot_abs_Q>
1

> <r_epik_Metal_State_Penalty>
0.804507

> <b_epik_Metal_Only>
0

> <s_lp_Force_Field>
OPLS_2005

> <r_lp_Energy>
23.5245

> <b_lp_Chiralities_Consistent>
1

> <s_lp_Variant>
AV-unprocessed.smi:2448-8

> <Gold.Version>
5.8.1

> <Gold.Id.Protein>
6NUR|6NUR_protein|mol2

> <Gold.PLP.Fitness>
39.9339

> <Gold.PLP.PLP>
-29.7529

> <Gold.PLP.part.hbond>
-2.0000

> <Gold.PLP.part.metal>
0.0000

> <Gold.PLP.part.buried>
-1.8924

> <Gold.PLP.part.nonpolar>
-26.1643

> <Gold.PLP.part.repulsive>
0.2009

> <Gold.PLP.ligand.clash>
0.0000

> <Gold.PLP.ligand.torsion>
1.2183

> <Gold.PLP.Chemscore.Hbond>
3.0000

> <Gold.PLP.Chemscore.CHOScore>
1.0000

> <Gold.PLP.Chemscore.Metal>
0.0000

> <Gold.Chemscore.Hbonds>
donor molecule, donor type, donor heavy atom, donor atom, acceptor molecule, acceptor atom, score
      L1  H     4    24       P1  7948  2.00
      L1  C    11    30       P1 10186  0.36

> <Gold.PLP.Chemscore.Internal.Correction>
0.6176

> <Gold.Rescore>
     Score         DG    S(hbond)    S(metal)    S(lipo)     H(rot)  DE(clash)    DE(int)     intcor
     13.79     -15.45       1.98        0.00      81.04       2.39       0.25       1.41       ----

> <Gold.Chemscore.Fitness>
13.7941

> <Gold.Chemscore.DG>
-15.4534

> <Gold.Chemscore.ZeroCoef>
-5.4800

> <Gold.Chemscore.Hbond>
1.9766

> <Gold.Chemscore.Metal>
0.0000

> <Gold.Chemscore.Lipo>
81.0364

> <Gold.Chemscore.Internal_Hbond>
0.0000

> <Gold.Chemscore.DEClash>
0.2483

> <Gold.Chemscore.DEInternal>
1.4109

> <Gold.Chemscore.Rot>
2.3866

> <Gold.Chemscore.Internal.Correction>
   9.000000E+99

> <Gold.Chemscore.Hbonds>
donor molecule, donor type, donor heavy atom, donor atom, acceptor molecule, acceptor atom, score
      L1  H     4    24       P1  7948  1.00

> <Gold.Chemscore.Hbond.Weighted>
-6.6018

> <Gold.Chemscore.Metal.Weighted>
-0.0000

> <Gold.Chemscore.Lipo.Weighted>
-9.4813

> <Gold.Chemscore.Internal_Hbond.Weighted>
0.0000

> <Gold.Chemscore.DEClash.Weighted>
0.2483

> <Gold.Chemscore.DEInternal.Weighted>
1.4109

> <Gold.Chemscore.Rot.Weighted>
6.1096

> <Gold.Chemscore.Internal.Correction.Weighted>
   9.000000E+99

> <Gold.Protein.RotatedTorsions>
[ 6907 6896 6895 6894 ] final -123.09 input  -60.11 | X-H torsion
[ 7974 7965 7964 7962 ] final -154.63 input  175.53 | X-H torsion
[ 8008 7997 7996 7995 ] final  -33.97 input   59.86 | X-H torsion
[ 10167 10162 10161 10158 ] final   34.44 input  -65.29 | X-H torsion
[ 10718 10713 10712 10709 ] final -164.05 input   66.30 | X-H torsion
[ 10763 10752 10751 10750 ] final  134.45 input  -60.55 | X-H torsion
[ 11005 11000 10999 10996 ] final   52.19 input  -57.11 | X-H torsion

> <Gold.Protein.ActiveResidues>
 VAL166  LYS551  ARG553  GLY616  TRP617  ASP618  TYR619  PRO620  LYS621  CYS622 
 ASP623  PHE694  ASN695  SER759  ASP760  ASP761  ALA762  ILE779  LEU786  VAL792 
 PHE793  MET794  SER795  GLU796  ALA797  LYS798  CYS799  TRP800  GLU811  SER814 

> <Gold.Protein.RotatedAtoms>
  150.8637  133.7606  159.2983 H   0  0  0  0  0  0  0  0  0  0  0  0  # atno 6907 bound_to 6896
  151.5240  135.1066  159.9895 H   0  0  0  0  0  0  0  0  0  0  0  0  # atno 6908 bound_to 6896
  152.4645  133.7849  159.6926 H   0  0  0  0  0  0  0  0  0  0  0  0  # atno 6909 bound_to 6896
  144.7680  140.4361  143.5928 H   0  0  0  0  0  0  0  0  0  0  0  0  # atno 7974 bound_to 7965
  154.4133  140.1696  156.1974 H   0  0  0  0  0  0  0  0  0  0  0  0  # atno 8008 bound_to 7997
  155.9552  140.3398  155.6419 H   0  0  0  0  0  0  0  0  0  0  0  0  # atno 8009 bound_to 7997
  155.6819  140.0723  157.2472 H   0  0  0  0  0  0  0  0  0  0  0  0  # atno 8010 bound_to 7997
  140.4315  144.1318  150.6160 H   0  0  0  0  0  0  0  0  0  0  0  0  # atno 10167 bound_to 10162
  156.6334  130.8939  151.2982 H   0  0  0  0  0  0  0  0  0  0  0  0  # atno 10718 bound_to 10713
  153.8237  135.3113  155.3412 H   0  0  0  0  0  0  0  0  0  0  0  0  # atno 10763 bound_to 10752
  154.8002  135.4731  154.0260 H   0  0  0  0  0  0  0  0  0  0  0  0  # atno 10764 bound_to 10752
  153.1677  135.6872  153.8742 H   0  0  0  0  0  0  0  0  0  0  0  0  # atno 10765 bound_to 10752
  140.0869  134.5262  155.8890 H   0  0  0  0  0  0  0  0  0  0  0  0  # atno 11005 bound_to 11000
  145.6411  139.1550  143.2915 LP  0  0  0  0  0  0  0  0  0  0  0  0  # atno 17320 bound_to 7965
  146.1803  140.6508  142.9192 LP  0  0  0  0  0  0  0  0  0  0  0  0  # atno 17321 bound_to 7965
  140.4422  143.2522  151.9458 LP  0  0  0  0  0  0  0  0  0  0  0  0  # atno 17342 bound_to 10162
  139.4785  144.5644  151.8189 LP  0  0  0  0  0  0  0  0  0  0  0  0  # atno 17343 bound_to 10162
  157.7193  130.9537  150.1375 LP  0  0  0  0  0  0  0  0  0  0  0  0  # atno 17370 bound_to 10713
  156.2216  130.3674  149.8549 LP  0  0  0  0  0  0  0  0  0  0  0  0  # atno 17371 bound_to 10713
  141.2065  133.6656  156.6249 LP  0  0  0  0  0  0  0  0  0  0  0  0  # atno 17394 bound_to 11000
  140.3407  134.7851  157.4395 LP  0  0  0  0  0  0  0  0  0  0  0  0  # atno 17395 bound_to 11000

$$$$
