AV-unprocessed.smi:2562|AV-procd|sdf|10054|dock2
  -GOLD-   2272014 93D 1   1.00000     0.00000
 Structure written by MMmdl.
 29 30  0  0  0  0  0  0  0  0  2 V2000
  153.3705  141.6684  160.6215 C   0  0  0  0  0  0  0  0  0  0  0  0
  152.7591  141.7412  159.2180 C   0  0  0  0  0  0  0  0  0  0  0  0
  152.4591  140.3551  158.6313 C   0  0  0  0  0  0  0  0  0  0  0  0
  151.8562  140.4435  157.2463 C   0  0  0  0  0  0  0  0  0  0  0  0
  152.3810  139.9194  156.1246 N   0  5  0  0  0  0  0  0  0  0  0  0
  151.5775  140.1519  155.1067 N   0  0  0  0  0  0  0  0  0  0  0  0
  150.5304  140.8152  155.6210 C   0  0  0  0  0  0  0  0  0  0  0  0
  149.3580  141.3268  154.8079 C   0  0  2  0  0  0  0  0  0  0  0  0
  148.3581  142.0916  155.6992 C   0  0  0  0  0  0  0  0  0  0  0  0
  147.2241  142.5732  154.9102 N   0  0  0  0  0  0  0  0  0  0  0  0
  146.5853  141.4808  154.1800 C   0  0  0  0  0  0  0  0  0  0  0  0
  147.6221  140.7360  153.3221 C   0  0  0  0  0  0  0  0  0  0  0  0
  148.6720  140.2596  154.1558 O   0  0  0  0  0  0  0  0  0  0  0  0
  150.6923  141.0068  156.9388 N   0  0  0  0  0  0  0  0  0  0  0  0
  153.5702  142.6672  161.0097 H   0  0  0  0  0  0  0  0  0  0  0  0
  154.3124  141.1192  160.6121 H   0  0  0  0  0  0  0  0  0  0  0  0
  152.6973  141.1692  161.3188 H   0  0  0  0  0  0  0  0  0  0  0  0
  151.8401  142.3274  159.2544 H   0  0  0  0  0  0  0  0  0  0  0  0
  153.4408  142.2760  158.5558 H   0  0  0  0  0  0  0  0  0  0  0  0
  153.3728  139.7623  158.5783 H   0  0  0  0  0  0  0  0  0  0  0  0
  151.7686  139.8133  159.2784 H   0  0  0  0  0  0  0  0  0  0  0  0
  149.7620  141.9994  154.0487 H   0  0  0  0  0  0  0  0  0  0  0  0
  148.0031  141.4368  156.4962 H   0  0  0  0  0  0  0  0  0  0  0  0
  148.8562  142.9315  156.1836 H   0  0  0  0  0  0  0  0  0  0  0  0
  146.5472  143.0122  155.5257 H   0  0  0  0  0  0  0  0  0  0  0  0
  146.1237  140.7850  154.8817 H   0  0  0  0  0  0  0  0  0  0  0  0
  145.7854  141.8690  153.5493 H   0  0  0  0  0  0  0  0  0  0  0  0
  147.1548  139.8865  152.8239 H   0  0  0  0  0  0  0  0  0  0  0  0
  148.0227  141.3832  152.5400 H   0  0  0  0  0  0  0  0  0  0  0  0
  1  2  1  0  0  0  0
  1 15  1  0  0  0  0
  1 16  1  0  0  0  0
  1 17  1  0  0  0  0
  2  3  1  0  0  0  0
  2 18  1  0  0  0  0
  2 19  1  0  0  0  0
  3 20  1  0  0  0  0
  3 21  1  0  0  0  0
  3  4  1  0  0  0  0
  4 14  2  0  0  0  0
  4  5  1  0  0  0  0
  5  6  1  0  0  0  0
  6  7  2  0  0  0  0
  7 14  1  0  0  0  0
  7  8  1  0  0  0  0
  8 13  1  0  0  0  0
  8  9  1  0  0  0  0
  8 22  1  0  0  0  0
  9 10  1  0  0  0  0
  9 23  1  0  0  0  0
  9 24  1  0  0  0  0
 10 11  1  0  0  0  0
 10 25  1  0  0  0  0
 11 12  1  0  0  0  0
 11 26  1  0  0  0  0
 11 27  1  0  0  0  0
 12 13  1  0  0  0  0
 12 28  1  0  0  0  0
 12 29  1  0  0  0  0
M  CHG  1   5  -1
M  END
> <s_m_source_file>
AV-unprocessed.smi

> <i_m_source_file_index>
2562

> <i_lp_mmshare_version>
43012

> <i_f3d_flags>
0

> <s_epik_input>
W0NIM11bQ0gyXVtDSDJdYzFuW25IXWMobjEpW0NAQEhdMltDSDJdW05IXVtDSDJdW0NIMl1PMg==

> <s_epik_cmdline>
J2VwaWtfcHl0aG9uJywgJy1waCcsICc3LjAnLCAnLXRuJywgJzgnLCAnLW1hJywgJzIwMCcsICctbWV0YWxfYmluZGluZycsICctaW1hZScsICc8aW5maWxlLm1hZT4nLCAnLW9tYWUnLCAnPG91dGZpbGUubWFlPic=

> <r_epik_Ionization_Penalty>
15.949

> <r_epik_Ionization_Penalty_Charging>
14.3757

> <r_epik_Ionization_Penalty_Neutral>
1.5733

> <r_epik_State_Penalty>
7.02775

> <r_epik_Charging_Adjusted_Penalty>
21.4034

> <i_epik_Tot_Q>
-1

> <i_epik_Tot_abs_Q>
1

> <r_epik_Metal_State_Penalty>
3.10311

> <b_epik_Metal_Only>
1

> <s_lp_Force_Field>
OPLS_2005

> <r_lp_Energy>
11.5852

> <b_lp_Chiralities_Consistent>
1

> <s_lp_Variant>
AV-unprocessed.smi:2562-13

> <Gold.Version>
5.8.1

> <Gold.Id.Protein>
6NUR|6NUR_protein|mol2

> <Gold.PLP.Fitness>
33.8764

> <Gold.PLP.PLP>
-24.8803

> <Gold.PLP.part.hbond>
-3.0000

> <Gold.PLP.part.metal>
0.0000

> <Gold.PLP.part.buried>
1.2628

> <Gold.PLP.part.nonpolar>
-22.5723

> <Gold.PLP.part.repulsive>
0.2017

> <Gold.PLP.ligand.clash>
0.0000

> <Gold.PLP.ligand.torsion>
0.0092

> <Gold.PLP.Chemscore.Hbond>
3.0000

> <Gold.PLP.Chemscore.CHOScore>
0.0000

> <Gold.PLP.Chemscore.Metal>
0.0000

> <Gold.Chemscore.Hbonds>
donor molecule, donor type, donor heavy atom, donor atom, acceptor molecule, acceptor atom, score
      P1  H  7989  7998       L1     6  1.00
      P1  H  7997  8008       L1     5  2.00

> <Gold.PLP.Chemscore.Internal.Correction>
0.0145

> <Gold.Rescore>
     Score         DG    S(hbond)    S(metal)    S(lipo)     H(rot)  DE(clash)    DE(int)     intcor
     12.74     -12.80       1.58        0.00      48.94       1.44       0.04       0.02       ----

> <Gold.Chemscore.Fitness>
12.7443

> <Gold.Chemscore.DG>
-12.8027

> <Gold.Chemscore.ZeroCoef>
-5.4800

> <Gold.Chemscore.Hbond>
1.5848

> <Gold.Chemscore.Metal>
0.0000

> <Gold.Chemscore.Lipo>
48.9429

> <Gold.Chemscore.Internal_Hbond>
0.0000

> <Gold.Chemscore.DEClash>
0.0354

> <Gold.Chemscore.DEInternal>
0.0231

> <Gold.Chemscore.Rot>
1.4441

> <Gold.Chemscore.Internal.Correction>
   9.000000E+99

> <Gold.Chemscore.Hbonds>
donor molecule, donor type, donor heavy atom, donor atom, acceptor molecule, acceptor atom, score
      P1  H  7989  7998       L1     6  0.24
      P1  H  7997  8008       L1     5  0.71

> <Gold.Chemscore.Hbond.Weighted>
-5.2933

> <Gold.Chemscore.Metal.Weighted>
-0.0000

> <Gold.Chemscore.Lipo.Weighted>
-5.7263

> <Gold.Chemscore.Internal_Hbond.Weighted>
0.0000

> <Gold.Chemscore.DEClash.Weighted>
0.0354

> <Gold.Chemscore.DEInternal.Weighted>
0.0231

> <Gold.Chemscore.Rot.Weighted>
3.6969

> <Gold.Chemscore.Internal.Correction.Weighted>
   9.000000E+99

> <Gold.Protein.RotatedTorsions>
[ 6907 6896 6895 6894 ] final -147.60 input  -60.11 | X-H torsion
[ 7974 7965 7964 7962 ] final  -74.01 input  175.53 | X-H torsion
[ 8008 7997 7996 7995 ] final  -29.16 input   59.86 | X-H torsion
[ 10167 10162 10161 10158 ] final  135.80 input  -65.29 | X-H torsion
[ 10718 10713 10712 10709 ] final   -6.04 input   66.30 | X-H torsion
[ 10763 10752 10751 10750 ] final -105.86 input  -60.55 | X-H torsion
[ 11005 11000 10999 10996 ] final  -48.37 input  -57.11 | X-H torsion

> <Gold.Protein.ActiveResidues>
 VAL166  LYS551  ARG553  GLY616  TRP617  ASP618  TYR619  PRO620  LYS621  CYS622 
 ASP623  PHE694  ASN695  SER759  ASP760  ASP761  ALA762  ILE779  LEU786  VAL792 
 PHE793  MET794  SER795  GLU796  ALA797  LYS798  CYS799  TRP800  GLU811  SER814 

> <Gold.Protein.RotatedAtoms>
  151.1579  133.4864  159.2594 H   0  0  0  0  0  0  0  0  0  0  0  0  # atno 6907 bound_to 6896
  151.1485  135.0215  159.8667 H   0  0  0  0  0  0  0  0  0  0  0  0  # atno 6908 bound_to 6896
  152.5463  134.1466  159.8554 H   0  0  0  0  0  0  0  0  0  0  0  0  # atno 6909 bound_to 6896
  145.6446  140.9301  143.1017 H   0  0  0  0  0  0  0  0  0  0  0  0  # atno 7974 bound_to 7965
  154.4301  140.1826  156.1203 H   0  0  0  0  0  0  0  0  0  0  0  0  # atno 8008 bound_to 7997
  156.0148  140.3347  155.6952 H   0  0  0  0  0  0  0  0  0  0  0  0  # atno 8009 bound_to 7997
  155.6060  140.0645  157.2710 H   0  0  0  0  0  0  0  0  0  0  0  0  # atno 8010 bound_to 7997
  139.5203  144.6498  151.5335 H   0  0  0  0  0  0  0  0  0  0  0  0  # atno 10167 bound_to 10162
  156.7377  130.5200  149.5831 H   0  0  0  0  0  0  0  0  0  0  0  0  # atno 10718 bound_to 10713
  154.7975  135.4733  154.0195 H   0  0  0  0  0  0  0  0  0  0  0  0  # atno 10763 bound_to 10752
  153.1726  135.6827  153.8593 H   0  0  0  0  0  0  0  0  0  0  0  0  # atno 10764 bound_to 10752
  153.8170  135.3209  155.3384 H   0  0  0  0  0  0  0  0  0  0  0  0  # atno 10765 bound_to 10752
  141.0696  133.6683  156.3431 H   0  0  0  0  0  0  0  0  0  0  0  0  # atno 11005 bound_to 11000
  144.7144  139.8249  143.7403 LP  0  0  0  0  0  0  0  0  0  0  0  0  # atno 17320 bound_to 7965
  146.1253  139.4278  143.0203 LP  0  0  0  0  0  0  0  0  0  0  0  0  # atno 17321 bound_to 7965
  140.6298  143.9098  150.6596 LP  0  0  0  0  0  0  0  0  0  0  0  0  # atno 17342 bound_to 10162
  140.2398  143.3672  152.1496 LP  0  0  0  0  0  0  0  0  0  0  0  0  # atno 17343 bound_to 10162
  156.1486  130.6294  151.0565 LP  0  0  0  0  0  0  0  0  0  0  0  0  # atno 17370 bound_to 10713
  157.6832  131.0832  150.7314 LP  0  0  0  0  0  0  0  0  0  0  0  0  # atno 17371 bound_to 10713
  140.5701  134.5849  157.5455 LP  0  0  0  0  0  0  0  0  0  0  0  0  # atno 17394 bound_to 11000
  139.9510  134.7616  156.0448 LP  0  0  0  0  0  0  0  0  0  0  0  0  # atno 17395 bound_to 11000

$$$$
