AV-unprocessed.smi:3330|AV-procd|sdf|12813|dock4
  -GOLD-   2272019183D 1   1.00000     0.00000
 Structure written by MMmdl.
 37 38  0  0  0  0  0  0  0  0  2 V2000
  148.8895  141.5540  154.6247 C   0  0  0  0  0  0  0  0  0  0  0  0
  150.1647  141.4329  155.4826 C   0  0  2  0  0  0  0  0  0  0  0  0
  150.8506  140.1948  155.1224 N   0  0  0  0  0  0  0  0  0  0  0  0
  152.0839  140.0063  155.8705 C   0  0  0  0  0  0  0  0  0  0  0  0
  152.4122  138.5075  155.9392 C   0  0  0  0  0  0  0  0  0  0  0  0
  152.1224  137.9660  157.2698 N   0  0  0  0  0  0  0  0  0  0  0  0
  152.6413  138.4434  158.4051 C   0  0  0  0  0  0  0  0  0  0  0  0
  153.4326  139.3770  158.5425 O   0  0  0  0  0  0  0  0  0  0  0  0
  152.0728  137.6283  159.5434 C   0  0  0  0  0  0  0  0  0  0  0  0
  151.2053  136.6992  158.8551 N   0  5  0  0  0  0  0  0  0  0  0  0
  151.2751  136.9508  157.5266 C   0  0  0  0  0  0  0  0  0  0  0  0
  150.6638  136.3635  156.6343 O   0  0  0  0  0  0  0  0  0  0  0  0
  149.8706  141.4107  157.0076 C   0  0  2  0  0  0  0  0  0  0  0  0
  148.4687  141.9418  157.3650 C   0  0  0  0  0  0  0  0  0  0  0  0
  150.8863  142.1484  157.7530 N   0  0  0  0  0  0  0  0  0  0  0  0
  151.2036  143.4883  157.6613 C   0  0  0  0  0  0  0  0  0  0  0  0
  152.1962  143.7373  158.5653 C   0  0  0  0  0  0  0  0  0  0  0  0
  152.4199  142.4729  159.1775 C   0  0  0  0  0  0  0  0  0  0  0  0
  151.6368  141.5247  158.6902 N   0  0  0  0  0  0  0  0  0  0  0  0
  148.3840  142.5040  154.7957 H   0  0  0  0  0  0  0  0  0  0  0  0
  148.1823  140.7548  154.8491 H   0  0  0  0  0  0  0  0  0  0  0  0
  149.1101  141.5107  153.5584 H   0  0  0  0  0  0  0  0  0  0  0  0
  150.8185  142.2810  155.2732 H   0  0  0  0  0  0  0  0  0  0  0  0
  151.0313  140.1683  154.1291 H   0  0  0  0  0  0  0  0  0  0  0  0
  152.9023  140.5465  155.3948 H   0  0  0  0  0  0  0  0  0  0  0  0
  151.9663  140.4079  156.8781 H   0  0  0  0  0  0  0  0  0  0  0  0
  151.8404  137.9636  155.1851 H   0  0  0  0  0  0  0  0  0  0  0  0
  153.4619  138.3410  155.6907 H   0  0  0  0  0  0  0  0  0  0  0  0
  152.8801  137.1394  160.0894 H   0  0  0  0  0  0  0  0  0  0  0  0
  151.5419  138.2805  160.2376 H   0  0  0  0  0  0  0  0  0  0  0  0
  149.9168  140.3753  157.3496 H   0  0  0  0  0  0  0  0  0  0  0  0
  147.6826  141.2958  156.9753 H   0  0  0  0  0  0  0  0  0  0  0  0
  148.3058  142.9440  156.9673 H   0  0  0  0  0  0  0  0  0  0  0  0
  148.3336  141.9878  158.4462 H   0  0  0  0  0  0  0  0  0  0  0  0
  150.6985  144.1469  156.9704 H   0  0  0  0  0  0  0  0  0  0  0  0
  152.6836  144.6804  158.7632 H   0  0  0  0  0  0  0  0  0  0  0  0
  153.1228  142.2179  159.9568 H   0  0  0  0  0  0  0  0  0  0  0  0
  1  2  1  0  0  0  0
  1 20  1  0  0  0  0
  1 21  1  0  0  0  0
  1 22  1  0  0  0  0
  2  3  1  0  0  0  0
  2 13  1  0  0  0  0
  2 23  1  0  0  0  0
  3  4  1  0  0  0  0
  3 24  1  0  0  0  0
  4  5  1  0  0  0  0
  4 25  1  0  0  0  0
  4 26  1  0  0  0  0
  5  6  1  0  0  0  0
  5 27  1  0  0  0  0
  5 28  1  0  0  0  0
  6 11  1  0  0  0  0
  6  7  1  0  0  0  0
  7  8  2  0  0  0  0
  7  9  1  0  0  0  0
  9 10  1  0  0  0  0
  9 29  1  0  0  0  0
  9 30  1  0  0  0  0
 10 11  1  0  0  0  0
 11 12  2  0  0  0  0
 13 14  1  0  0  0  0
 13 15  1  0  0  0  0
 13 31  1  0  0  0  0
 14 32  1  0  0  0  0
 14 33  1  0  0  0  0
 14 34  1  0  0  0  0
 15 19  1  0  0  0  0
 15 16  1  0  0  0  0
 16 17  2  0  0  0  0
 16 35  1  0  0  0  0
 17 18  1  0  0  0  0
 17 36  1  0  0  0  0
 18 19  2  0  0  0  0
 18 37  1  0  0  0  0
M  CHG  1  10  -1
M  END
> <s_m_source_file>
AV-unprocessed.smi

> <i_m_source_file_index>
3330

> <i_lp_mmshare_version>
43012

> <i_f3d_flags>
0

> <s_epik_input>
bjFbY0hdW2NIXVtjSF1uMVtDQEBIXShbQ0gzXSlbQ0BIXShbQ0gzXSlbTkhdW0NIMl1bQ0gyXU4yQyg9TylbQ0gyXVtOSF1DMj1P

> <s_epik_cmdline>
J2VwaWtfcHl0aG9uJywgJy1waCcsICc3LjAnLCAnLXRuJywgJzgnLCAnLW1hJywgJzIwMCcsICctbWV0YWxfYmluZGluZycsICctaW1hZScsICc8aW5maWxlLm1hZT4nLCAnLW9tYWUnLCAnPG91dGZpbGUubWFlPic=

> <r_lp_tautomer_probability>
1

> <r_epik_Ionization_Penalty>
8.77477

> <r_epik_Ionization_Penalty_Charging>
6.28461

> <r_epik_Ionization_Penalty_Neutral>
2.49016

> <r_epik_State_Penalty>
8.73376

> <r_epik_Charging_Adjusted_Penalty>
15.0184

> <i_epik_Tot_Q>
-1

> <i_epik_Tot_abs_Q>
1

> <r_epik_Metal_State_Penalty>
4.73175

> <b_epik_Metal_Only>
1

> <s_lp_Force_Field>
OPLS_2005

> <r_lp_Energy>
21.1742

> <b_lp_Chiralities_Consistent>
1

> <s_lp_Variant>
AV-unprocessed.smi:3330-13

> <Gold.Version>
5.8.1

> <Gold.Id.Protein>
6NUR|6NUR_protein|mol2

> <Gold.PLP.Fitness>
42.2107

> <Gold.PLP.PLP>
-33.3559

> <Gold.PLP.part.hbond>
-3.0000

> <Gold.PLP.part.metal>
0.0000

> <Gold.PLP.part.buried>
-3.3892

> <Gold.PLP.part.nonpolar>
-27.9285

> <Gold.PLP.part.repulsive>
0.0000

> <Gold.PLP.ligand.clash>
0.0000

> <Gold.PLP.ligand.torsion>
1.6117

> <Gold.PLP.Chemscore.Hbond>
2.9840

> <Gold.PLP.Chemscore.CHOScore>
1.0000

> <Gold.PLP.Chemscore.Metal>
0.0000

> <Gold.Chemscore.Hbonds>
donor molecule, donor type, donor heavy atom, donor atom, acceptor molecule, acceptor atom, score
      P1  H  6896  6907       L1    10  1.89
      P1  H  7997  8010       L1     8  0.98
      L1  C    16    35       P1  8028  1.00

> <Gold.PLP.Chemscore.Internal.Correction>
0.1261

> <Gold.Rescore>
     Score         DG    S(hbond)    S(metal)    S(lipo)     H(rot)  DE(clash)    DE(int)     intcor
     12.71     -14.35       1.89        0.00      76.79       2.52       0.00       1.63       ----

> <Gold.Chemscore.Fitness>
12.7142

> <Gold.Chemscore.DG>
-14.3456

> <Gold.Chemscore.ZeroCoef>
-5.4800

> <Gold.Chemscore.Hbond>
1.8929

> <Gold.Chemscore.Metal>
0.0000

> <Gold.Chemscore.Lipo>
76.7878

> <Gold.Chemscore.Internal_Hbond>
0.0000

> <Gold.Chemscore.DEClash>
0.0048

> <Gold.Chemscore.DEInternal>
1.6266

> <Gold.Chemscore.Rot>
2.5160

> <Gold.Chemscore.Internal.Correction>
   9.000000E+99

> <Gold.Chemscore.Hbonds>
donor molecule, donor type, donor heavy atom, donor atom, acceptor molecule, acceptor atom, score
      P1  H  6896  6907       L1    10  0.50
      P1  H  7997  8010       L1     8  0.89

> <Gold.Chemscore.Hbond.Weighted>
-6.3224

> <Gold.Chemscore.Metal.Weighted>
-0.0000

> <Gold.Chemscore.Lipo.Weighted>
-8.9842

> <Gold.Chemscore.Internal_Hbond.Weighted>
0.0000

> <Gold.Chemscore.DEClash.Weighted>
0.0048

> <Gold.Chemscore.DEInternal.Weighted>
1.6266

> <Gold.Chemscore.Rot.Weighted>
6.4410

> <Gold.Chemscore.Internal.Correction.Weighted>
   9.000000E+99

> <Gold.Protein.RotatedTorsions>
[ 6907 6896 6895 6894 ] final  -21.66 input  -60.11 | X-H torsion
[ 7974 7965 7964 7962 ] final  109.94 input  175.53 | X-H torsion
[ 8008 7997 7996 7995 ] final   40.22 input   59.86 | X-H torsion
[ 10167 10162 10161 10158 ] final  150.08 input  -65.29 | X-H torsion
[ 10718 10713 10712 10709 ] final   27.49 input   66.30 | X-H torsion
[ 10763 10752 10751 10750 ] final  -97.54 input  -60.55 | X-H torsion
[ 11005 11000 10999 10996 ] final   99.09 input  -57.11 | X-H torsion

> <Gold.Protein.ActiveResidues>
 VAL166  LYS551  ARG553  GLY616  TRP617  ASP618  TYR619  PRO620  LYS621  CYS622 
 ASP623  PHE694  ASN695  SER759  ASP760  ASP761  ALA762  ILE779  LEU786  VAL792 
 PHE793  MET794  SER795  GLU796  ALA797  LYS798  CYS799  TRP800  GLU811  SER814 

> <Gold.Protein.RotatedAtoms>
  151.2300  135.0551  159.8983 H   0  0  0  0  0  0  0  0  0  0  0  0  # atno 6907 bound_to 6896
  152.5406  134.0548  159.8136 H   0  0  0  0  0  0  0  0  0  0  0  0  # atno 6908 bound_to 6896
  151.0726  133.5405  159.2657 H   0  0  0  0  0  0  0  0  0  0  0  0  # atno 6909 bound_to 6896
  145.2613  139.2701  143.4015 H   0  0  0  0  0  0  0  0  0  0  0  0  # atno 7974 bound_to 7965
  155.2494  140.3351  155.4284 H   0  0  0  0  0  0  0  0  0  0  0  0  # atno 8008 bound_to 7997
  156.2222  140.1814  156.7494 H   0  0  0  0  0  0  0  0  0  0  0  0  # atno 8009 bound_to 7997
  154.5843  140.0648  156.9133 H   0  0  0  0  0  0  0  0  0  0  0  0  # atno 8010 bound_to 7997
  139.4854  144.5550  151.7333 H   0  0  0  0  0  0  0  0  0  0  0  0  # atno 10167 bound_to 10162
  157.2208  130.6978  149.6269 H   0  0  0  0  0  0  0  0  0  0  0  0  # atno 10718 bound_to 10713
  154.7337  135.5043  153.9005 H   0  0  0  0  0  0  0  0  0  0  0  0  # atno 10763 bound_to 10752
  153.0974  135.6676  153.9746 H   0  0  0  0  0  0  0  0  0  0  0  0  # atno 10764 bound_to 10752
  153.9541  135.3054  155.3416 H   0  0  0  0  0  0  0  0  0  0  0  0  # atno 10765 bound_to 10752
  139.8771  134.9079  156.4554 H   0  0  0  0  0  0  0  0  0  0  0  0  # atno 11005 bound_to 11000
  146.3274  140.3031  142.8622 LP  0  0  0  0  0  0  0  0  0  0  0  0  # atno 17320 bound_to 7965
  144.9416  140.8084  143.5627 LP  0  0  0  0  0  0  0  0  0  0  0  0  # atno 17321 bound_to 7965
  140.5111  144.1024  150.5995 LP  0  0  0  0  0  0  0  0  0  0  0  0  # atno 17342 bound_to 10162
  140.3950  143.2733  152.0015 LP  0  0  0  0  0  0  0  0  0  0  0  0  # atno 17343 bound_to 10162
  155.9682  130.4520  150.5758 LP  0  0  0  0  0  0  0  0  0  0  0  0  # atno 17370 bound_to 10713
  157.3577  131.0744  151.1662 LP  0  0  0  0  0  0  0  0  0  0  0  0  # atno 17371 bound_to 10713
  140.8902  133.7854  155.9563 LP  0  0  0  0  0  0  0  0  0  0  0  0  # atno 17394 bound_to 11000
  140.8761  134.2667  157.5167 LP  0  0  0  0  0  0  0  0  0  0  0  0  # atno 17395 bound_to 11000

$$$$
