AV-unprocessed.smi:1793|AV-procd|sdf|7226|dock4
  -GOLD-   22720 8473D 1   1.00000     0.00000
 Structure written by MMmdl.
 46 48  0  0  0  0  0  0  0  0  1 V2000
  152.1582  138.1469  154.1401 C   0  0  0  0  0  0  0  0  0  0  0  0
  150.9827  137.7839  155.0591 C   0  0  2  0  0  0  0  0  0  0  0  0
  150.2477  136.6698  154.4623 N   0  0  0  0  0  0  0  0  0  0  0  0
  150.3966  135.3737  154.7726 C   0  0  0  0  0  0  0  0  0  0  0  0
  151.1912  134.9590  155.6161 O   0  0  0  0  0  0  0  0  0  0  0  0
  149.5528  134.6078  154.0619 N   0  0  0  0  0  0  0  0  0  0  0  0
  149.3253  133.2085  154.1871 C   0  0  0  0  0  0  0  0  0  0  0  0
  150.1606  132.3935  154.9896 C   0  0  0  0  0  0  0  0  0  0  0  0
  149.9378  131.0066  155.0315 C   0  0  0  0  0  0  0  0  0  0  0  0
  148.8948  130.4782  154.2534 C   0  0  0  0  0  0  0  0  0  0  0  0
  148.1010  131.2376  153.4723 N   0  0  0  0  0  0  0  0  0  0  0  0
  148.2930  132.5794  153.4328 C   0  0  0  0  0  0  0  0  0  0  0  0
  147.4190  133.3235  152.6061 N   0  0  0  0  0  0  0  0  0  0  0  0
  146.6365  132.6592  151.5692 C   0  0  0  0  0  0  0  0  0  0  0  0
  145.5733  133.6759  151.1643 C   0  0  0  0  0  0  0  0  0  0  0  0
  145.2633  134.3665  152.4887 C   0  0  0  0  0  0  0  0  0  0  0  0
  146.6110  134.3747  153.2179 C   0  0  0  0  0  0  0  0  0  0  0  0
  150.0481  138.9894  155.2924 C   0  0  1  0  0  0  0  0  0  0  0  0
  150.7417  140.2789  155.7329 C   0  0  0  0  0  0  0  0  0  0  0  0
  149.7538  141.3601  155.3315 C   0  0  0  0  0  0  0  0  0  0  0  0
  148.8783  140.6865  154.2708 C   0  0  0  0  0  0  0  0  0  0  0  0
  149.4372  139.3933  154.0768 O   0  0  0  0  0  0  0  0  0  0  0  0
  152.7558  138.9538  154.5646 H   0  0  0  0  0  0  0  0  0  0  0  0
  151.8106  138.4721  153.1589 H   0  0  0  0  0  0  0  0  0  0  0  0
  152.8200  137.2928  153.9931 H   0  0  0  0  0  0  0  0  0  0  0  0
  151.3999  137.4756  156.0196 H   0  0  0  0  0  0  0  0  0  0  0  0
  149.5644  136.9095  153.7591 H   0  0  0  0  0  0  0  0  0  0  0  0
  148.9037  135.0986  153.4642 H   0  0  0  0  0  0  0  0  0  0  0  0
  150.9816  132.8060  155.5558 H   0  0  0  0  0  0  0  0  0  0  0  0
  150.5599  130.3631  155.6359 H   0  0  0  0  0  0  0  0  0  0  0  0
  148.6960  129.4168  154.2524 H   0  0  0  0  0  0  0  0  0  0  0  0
  147.2611  132.3670  150.7248 H   0  0  0  0  0  0  0  0  0  0  0  0
  146.1515  131.7655  151.9641 H   0  0  0  0  0  0  0  0  0  0  0  0
  145.9918  134.3940  150.4576 H   0  0  0  0  0  0  0  0  0  0  0  0
  144.6980  133.2160  150.7048 H   0  0  0  0  0  0  0  0  0  0  0  0
  144.8439  135.3649  152.3618 H   0  0  0  0  0  0  0  0  0  0  0  0
  144.5449  133.7695  153.0522 H   0  0  0  0  0  0  0  0  0  0  0  0
  146.4848  134.2248  154.2911 H   0  0  0  0  0  0  0  0  0  0  0  0
  147.1075  135.3333  153.0657 H   0  0  0  0  0  0  0  0  0  0  0  0
  149.2662  138.7300  156.0092 H   0  0  0  0  0  0  0  0  0  0  0  0
  150.9775  140.2939  156.7976 H   0  0  0  0  0  0  0  0  0  0  0  0
  151.6720  140.4126  155.1789 H   0  0  0  0  0  0  0  0  0  0  0  0
  149.1465  141.6687  156.1831 H   0  0  0  0  0  0  0  0  0  0  0  0
  150.2650  142.2425  154.9451 H   0  0  0  0  0  0  0  0  0  0  0  0
  147.8519  140.5878  154.6264 H   0  0  0  0  0  0  0  0  0  0  0  0
  148.8607  141.2413  153.3325 H   0  0  0  0  0  0  0  0  0  0  0  0
  1  2  1  0  0  0  0
  1 23  1  0  0  0  0
  1 24  1  0  0  0  0
  1 25  1  0  0  0  0
  2  3  1  0  0  0  0
  2 18  1  0  0  0  0
  2 26  1  0  0  0  0
  3  4  1  0  0  0  0
  3 27  1  0  0  0  0
  4  5  2  0  0  0  0
  4  6  1  0  0  0  0
  6  7  1  0  0  0  0
  6 28  1  0  0  0  0
  7 12  1  0  0  0  0
  7  8  2  0  0  0  0
  8  9  1  0  0  0  0
  8 29  1  0  0  0  0
  9 10  2  0  0  0  0
  9 30  1  0  0  0  0
 10 11  1  0  0  0  0
 10 31  1  0  0  0  0
 11 12  2  0  0  0  0
 12 13  1  0  0  0  0
 13 17  1  0  0  0  0
 13 14  1  0  0  0  0
 14 15  1  0  0  0  0
 14 32  1  0  0  0  0
 14 33  1  0  0  0  0
 15 16  1  0  0  0  0
 15 34  1  0  0  0  0
 15 35  1  0  0  0  0
 16 17  1  0  0  0  0
 16 36  1  0  0  0  0
 16 37  1  0  0  0  0
 17 38  1  0  0  0  0
 17 39  1  0  0  0  0
 18 22  1  0  0  0  0
 18 19  1  0  0  0  0
 18 40  1  0  0  0  0
 19 20  1  0  0  0  0
 19 41  1  0  0  0  0
 19 42  1  0  0  0  0
 20 21  1  0  0  0  0
 20 43  1  0  0  0  0
 20 44  1  0  0  0  0
 21 22  1  0  0  0  0
 21 45  1  0  0  0  0
 21 46  1  0  0  0  0
M  END
> <s_m_source_file>
AV-unprocessed.smi

> <i_m_source_file_index>
1793

> <i_lp_mmshare_version>
43012

> <i_f3d_flags>
0

> <s_epik_input>
TzFbQ0gyXVtDSDJdW0NIMl1bQ0BIXTFbQ0BIXShbQ0gzXSlbTkhdQyg9TylbTkhdYzJbY0hdW2NIXVtjSF1uYzJOM1tDSDJdW0NIMl1bQ0gyXVtDSDJdMw==

> <s_epik_cmdline>
J2VwaWtfcHl0aG9uJywgJy1waCcsICc3LjAnLCAnLXRuJywgJzgnLCAnLW1hJywgJzIwMCcsICctbWV0YWxfYmluZGluZycsICctaW1hZScsICc8aW5maWxlLm1hZT4nLCAnLW9tYWUnLCAnPG91dGZpbGUubWFlPic=

> <r_lp_tautomer_probability>
1

> <r_epik_Ionization_Penalty>
0.0992086

> <r_epik_Ionization_Penalty_Charging>
0

> <r_epik_Ionization_Penalty_Neutral>
0.0992086

> <r_epik_State_Penalty>
0.0887141

> <r_epik_Charging_Adjusted_Penalty>
0.0887141

> <i_epik_Tot_Q>
0

> <i_epik_Tot_abs_Q>
0

> <r_epik_Metal_State_Penalty>
0.075945

> <b_epik_Metal_Only>
0

> <s_lp_Force_Field>
OPLS_2005

> <r_lp_Energy>
46.1922

> <b_lp_Chiralities_Consistent>
1

> <s_lp_Variant>
AV-unprocessed.smi:1793-3

> <Gold.Version>
5.8.1

> <Gold.Id.Protein>
6NUR|6NUR_protein|mol2

> <Gold.PLP.Fitness>
43.5633

> <Gold.PLP.PLP>
-37.4004

> <Gold.PLP.part.hbond>
-3.6789

> <Gold.PLP.part.metal>
0.0000

> <Gold.PLP.part.buried>
-3.4641

> <Gold.PLP.part.nonpolar>
-31.4242

> <Gold.PLP.part.repulsive>
1.5988

> <Gold.PLP.ligand.clash>
0.0000

> <Gold.PLP.ligand.torsion>
0.6012

> <Gold.PLP.Chemscore.Hbond>
2.3323

> <Gold.PLP.Chemscore.CHOScore>
0.0000

> <Gold.PLP.Chemscore.Metal>
0.0000

> <Gold.Chemscore.Hbonds>
donor molecule, donor type, donor heavy atom, donor atom, acceptor molecule, acceptor atom, score
      L1  H     3    27       P1  7948  0.66
      L1  H     6    28       P1  7948  0.74
      P1  H 10752 10764       L1     5  0.87

> <Gold.PLP.Chemscore.Internal.Correction>
0.3683

> <Gold.Rescore>
     Score         DG    S(hbond)    S(metal)    S(lipo)     H(rot)  DE(clash)    DE(int)     intcor
     13.77     -17.10       1.60        0.00      83.41       1.36       1.31       2.01       ----

> <Gold.Chemscore.Fitness>
13.7727

> <Gold.Chemscore.DG>
-17.0971

> <Gold.Chemscore.ZeroCoef>
-5.4800

> <Gold.Chemscore.Hbond>
1.5973

> <Gold.Chemscore.Metal>
0.0000

> <Gold.Chemscore.Lipo>
83.4119

> <Gold.Chemscore.Internal_Hbond>
0.0000

> <Gold.Chemscore.DEClash>
1.3101

> <Gold.Chemscore.DEInternal>
2.0143

> <Gold.Chemscore.Rot>
1.3582

> <Gold.Chemscore.Internal.Correction>
   9.000000E+99

> <Gold.Chemscore.Hbonds>
donor molecule, donor type, donor heavy atom, donor atom, acceptor molecule, acceptor atom, score
      L1  H     3    27       P1  7948  0.54
      L1  H     6    28       P1  7948  0.37
      P1  H 10752 10764       L1     5  0.36

> <Gold.Chemscore.Hbond.Weighted>
-5.3350

> <Gold.Chemscore.Metal.Weighted>
-0.0000

> <Gold.Chemscore.Lipo.Weighted>
-9.7592

> <Gold.Chemscore.Internal_Hbond.Weighted>
0.0000

> <Gold.Chemscore.DEClash.Weighted>
1.3101

> <Gold.Chemscore.DEInternal.Weighted>
2.0143

> <Gold.Chemscore.Rot.Weighted>
3.4771

> <Gold.Chemscore.Internal.Correction.Weighted>
   9.000000E+99

> <Gold.Protein.RotatedTorsions>
[ 6907 6896 6895 6894 ] final  -47.89 input  -60.11 | X-H torsion
[ 7974 7965 7964 7962 ] final -138.10 input  175.53 | X-H torsion
[ 8008 7997 7996 7995 ] final  145.36 input   59.86 | X-H torsion
[ 10167 10162 10161 10158 ] final   23.47 input  -65.29 | X-H torsion
[ 10718 10713 10712 10709 ] final -177.10 input   66.30 | X-H torsion
[ 10763 10752 10751 10750 ] final  -41.28 input  -60.55 | X-H torsion
[ 11005 11000 10999 10996 ] final -170.42 input  -57.11 | X-H torsion

> <Gold.Protein.ActiveResidues>
 VAL166  LYS551  ARG553  GLY616  TRP617  ASP618  TYR619  PRO620  LYS621  CYS622 
 ASP623  PHE694  ASN695  SER759  ASP760  ASP761  ALA762  ILE779  LEU786  VAL792 
 PHE793  MET794  SER795  GLU796  ALA797  LYS798  CYS799  TRP800  GLU811  SER814 

> <Gold.Protein.RotatedAtoms>
  150.8961  134.8369  159.7327 H   0  0  0  0  0  0  0  0  0  0  0  0  # atno 6907 bound_to 6896
  152.4865  134.4574  159.9604 H   0  0  0  0  0  0  0  0  0  0  0  0  # atno 6908 bound_to 6896
  151.4631  133.3549  159.2847 H   0  0  0  0  0  0  0  0  0  0  0  0  # atno 6909 bound_to 6896
  144.8787  140.6475  143.5220 H   0  0  0  0  0  0  0  0  0  0  0  0  # atno 7974 bound_to 7965
  156.2885  140.2211  156.5202 H   0  0  0  0  0  0  0  0  0  0  0  0  # atno 8008 bound_to 7997
  154.7535  140.0478  157.0935 H   0  0  0  0  0  0  0  0  0  0  0  0  # atno 8009 bound_to 7997
  155.0080  140.3109  155.4844 H   0  0  0  0  0  0  0  0  0  0  0  0  # atno 8010 bound_to 7997
  140.5266  143.9912  150.6444 H   0  0  0  0  0  0  0  0  0  0  0  0  # atno 10167 bound_to 10162
  156.8244  130.9631  151.3110 H   0  0  0  0  0  0  0  0  0  0  0  0  # atno 10718 bound_to 10713
  153.9598  135.6741  153.4745 H   0  0  0  0  0  0  0  0  0  0  0  0  # atno 10763 bound_to 10752
  153.0843  135.4907  154.8563 H   0  0  0  0  0  0  0  0  0  0  0  0  # atno 10764 bound_to 10752
  154.7279  135.3131  154.8901 H   0  0  0  0  0  0  0  0  0  0  0  0  # atno 10765 bound_to 10752
  140.5197  134.5721  157.5044 H   0  0  0  0  0  0  0  0  0  0  0  0  # atno 11005 bound_to 11000
  145.3995  139.1600  143.4185 LP  0  0  0  0  0  0  0  0  0  0  0  0  # atno 17320 bound_to 7965
  146.2980  140.4091  142.8714 LP  0  0  0  0  0  0  0  0  0  0  0  0  # atno 17321 bound_to 7965
  140.3276  143.3098  152.0720 LP  0  0  0  0  0  0  0  0  0  0  0  0  # atno 17342 bound_to 10162
  139.4940  144.6531  151.6631 LP  0  0  0  0  0  0  0  0  0  0  0  0  # atno 17343 bound_to 10162
  157.6440  130.8829  149.9502 LP  0  0  0  0  0  0  0  0  0  0  0  0  # atno 17370 bound_to 10713
  156.0970  130.3658  150.0288 LP  0  0  0  0  0  0  0  0  0  0  0  0  # atno 17371 bound_to 10713
  139.9613  134.7448  156.0232 LP  0  0  0  0  0  0  0  0  0  0  0  0  # atno 17394 bound_to 11000
  141.1341  133.6579  156.3544 LP  0  0  0  0  0  0  0  0  0  0  0  0  # atno 17395 bound_to 11000

$$$$
