AV-unprocessed.smi:2671|AV-procd|sdf|10348|dock5
  -GOLD-   2272014373D 1   1.00000     0.00000
 Structure written by MMmdl.
 29 30  0  0  0  0  0  0  0  0  1 V2000
  153.8304  140.1694  158.8461 O   0  0  0  0  0  0  0  0  0  0  0  0
  152.8205  140.8694  158.8339 C   0  0  0  0  0  0  0  0  0  0  0  0
  152.7673  142.2404  159.3394 C   0  0  0  0  0  0  0  0  0  0  0  0
  151.6129  142.9488  159.2865 C   0  0  0  0  0  0  0  0  0  0  0  0
  151.5371  144.3734  159.8117 C   0  0  0  0  0  0  0  0  0  0  0  0
  152.2154  145.1970  159.0128 F   0  0  0  0  0  0  0  0  0  0  0  0
  150.2692  144.7827  159.8489 F   0  0  0  0  0  0  0  0  0  0  0  0
  152.0445  144.4720  161.0415 F   0  0  0  0  0  0  0  0  0  0  0  0
  150.4483  142.3784  158.7509 N   0  0  0  0  0  0  0  0  0  0  0  0
  150.4702  141.1637  158.2980 C   0  0  0  0  0  0  0  0  0  0  0  0
  149.1272  140.1902  157.5597 S   0  0  0  0  0  0  0  0  0  0  0  0
  149.4496  140.4266  155.7883 C   0  0  0  0  0  0  0  0  0  0  0  0
  148.5618  141.5235  155.1847 C   0  0  2  0  0  0  0  0  0  0  0  0
  147.0815  141.4181  155.5536 C   0  0  0  0  0  0  0  0  0  0  0  0
  146.4296  142.1436  154.3996 C   0  0  0  0  0  0  0  0  0  0  0  0
  147.2923  141.6939  153.2248 C   0  0  0  0  0  0  0  0  0  0  0  0
  148.5906  141.4503  153.7613 O   0  0  0  0  0  0  0  0  0  0  0  0
  151.6487  140.4104  158.3376 N   0  0  0  0  0  0  0  0  0  0  0  0
  151.6307  139.4678  157.9765 H   0  0  0  0  0  0  0  0  0  0  0  0
  153.6569  142.6884  159.7576 H   0  0  0  0  0  0  0  0  0  0  0  0
  149.2958  139.4832  155.2632 H   0  0  0  0  0  0  0  0  0  0  0  0
  150.4990  140.6949  155.6618 H   0  0  0  0  0  0  0  0  0  0  0  0
  148.9371  142.5082  155.4680 H   0  0  0  0  0  0  0  0  0  0  0  0
  146.7595  140.3757  155.5684 H   0  0  0  0  0  0  0  0  0  0  0  0
  146.8501  141.8621  156.5223 H   0  0  0  0  0  0  0  0  0  0  0  0
  145.3750  141.8964  154.2750 H   0  0  0  0  0  0  0  0  0  0  0  0
  146.5154  143.2220  154.5396 H   0  0  0  0  0  0  0  0  0  0  0  0
  146.9111  140.7611  152.8074 H   0  0  0  0  0  0  0  0  0  0  0  0
  147.3233  142.4343  152.4252 H   0  0  0  0  0  0  0  0  0  0  0  0
  1  2  2  0  0  0  0
  2 18  1  0  0  0  0
  2  3  1  0  0  0  0
  3 20  1  0  0  0  0
  3  4  2  0  0  0  0
  4  5  1  0  0  0  0
  4  9  1  0  0  0  0
  5  6  1  0  0  0  0
  5  7  1  0  0  0  0
  5  8  1  0  0  0  0
  9 10  2  0  0  0  0
 10 11  1  0  0  0  0
 10 18  1  0  0  0  0
 11 12  1  0  0  0  0
 12 13  1  0  0  0  0
 12 21  1  0  0  0  0
 12 22  1  0  0  0  0
 13 17  1  0  0  0  0
 13 14  1  0  0  0  0
 13 23  1  0  0  0  0
 14 15  1  0  0  0  0
 14 24  1  0  0  0  0
 14 25  1  0  0  0  0
 15 16  1  0  0  0  0
 15 26  1  0  0  0  0
 15 27  1  0  0  0  0
 16 17  1  0  0  0  0
 16 28  1  0  0  0  0
 16 29  1  0  0  0  0
 18 19  1  0  0  0  0
M  END
> <s_m_source_file>
AV-unprocessed.smi

> <i_m_source_file_index>
2671

> <i_lp_mmshare_version>
43012

> <i_f3d_flags>
0

> <s_epik_input>
W09IXWMxW2NIXWMoQyhGKShGKUYpbmMobjEpU1tDSDJdW0NAQEhdMltDSDJdW0NIMl1bQ0gyXU8y

> <s_epik_cmdline>
J2VwaWtfcHl0aG9uJywgJy1waCcsICc3LjAnLCAnLXRuJywgJzgnLCAnLW1hJywgJzIwMCcsICctbWV0YWxfYmluZGluZycsICctaW1hZScsICc8aW5maWxlLm1hZT4nLCAnLW9tYWUnLCAnPG91dGZpbGUubWFlPic=

> <r_lp_tautomer_probability>
0.660323

> <r_epik_Ionization_Penalty>
0.14469

> <r_epik_Ionization_Penalty_Charging>
0.14469

> <r_epik_Ionization_Penalty_Neutral>
3.1007e-10

> <r_epik_State_Penalty>
0.804349

> <r_epik_Charging_Adjusted_Penalty>
0.949039

> <i_epik_Tot_Q>
0

> <i_epik_Tot_abs_Q>
0

> <r_epik_Metal_State_Penalty>
1.52783

> <b_epik_Metal_Only>
0

> <s_lp_Force_Field>
OPLS_2005

> <r_lp_Energy>
21.2239

> <b_lp_Chiralities_Consistent>
1

> <s_lp_Variant>
AV-unprocessed.smi:2671-3

> <Gold.Version>
5.8.1

> <Gold.Id.Protein>
6NUR|6NUR_protein|mol2

> <Gold.PLP.Fitness>
38.6584

> <Gold.PLP.PLP>
-35.7632

> <Gold.PLP.part.hbond>
-2.0000

> <Gold.PLP.part.metal>
0.0000

> <Gold.PLP.part.buried>
-6.6241

> <Gold.PLP.part.nonpolar>
-28.2824

> <Gold.PLP.part.repulsive>
0.6688

> <Gold.PLP.ligand.clash>
0.0000

> <Gold.PLP.ligand.torsion>
0.9531

> <Gold.PLP.Chemscore.Hbond>
1.5985

> <Gold.PLP.Chemscore.CHOScore>
0.0000

> <Gold.PLP.Chemscore.Metal>
0.0000

> <Gold.Chemscore.Hbonds>
donor molecule, donor type, donor heavy atom, donor atom, acceptor molecule, acceptor atom, score
      P1  H  7997  8010       L1     1  0.94
      P1  H  8011  8017       L1    17  0.60

> <Gold.PLP.Chemscore.Internal.Correction>
0.0059

> <Gold.Rescore>
     Score         DG    S(hbond)    S(metal)    S(lipo)     H(rot)  DE(clash)    DE(int)     intcor
     10.17     -12.07       1.13        0.00      61.15       1.69       0.78       1.12       ----

> <Gold.Chemscore.Fitness>
10.1746

> <Gold.Chemscore.DG>
-12.0718

> <Gold.Chemscore.ZeroCoef>
-5.4800

> <Gold.Chemscore.Hbond>
1.1285

> <Gold.Chemscore.Metal>
0.0000

> <Gold.Chemscore.Lipo>
61.1545

> <Gold.Chemscore.Internal_Hbond>
0.0000

> <Gold.Chemscore.DEClash>
0.7778

> <Gold.Chemscore.DEInternal>
1.1194

> <Gold.Chemscore.Rot>
1.6924

> <Gold.Chemscore.Internal.Correction>
   9.000000E+99

> <Gold.Chemscore.Hbonds>
donor molecule, donor type, donor heavy atom, donor atom, acceptor molecule, acceptor atom, score
      P1  H  7997  8010       L1     1  0.88
      P1  H  8011  8017       L1    17  0.15

> <Gold.Chemscore.Hbond.Weighted>
-3.7692

> <Gold.Chemscore.Metal.Weighted>
-0.0000

> <Gold.Chemscore.Lipo.Weighted>
-7.1551

> <Gold.Chemscore.Internal_Hbond.Weighted>
0.0000

> <Gold.Chemscore.DEClash.Weighted>
0.7778

> <Gold.Chemscore.DEInternal.Weighted>
1.1194

> <Gold.Chemscore.Rot.Weighted>
4.3324

> <Gold.Chemscore.Internal.Correction.Weighted>
   9.000000E+99

> <Gold.Protein.RotatedTorsions>
[ 6907 6896 6895 6894 ] final -130.59 input  -60.11 | X-H torsion
[ 7974 7965 7964 7962 ] final  153.30 input  175.53 | X-H torsion
[ 8008 7997 7996 7995 ] final   13.91 input   59.86 | X-H torsion
[ 10167 10162 10161 10158 ] final  -96.29 input  -65.29 | X-H torsion
[ 10718 10713 10712 10709 ] final  -71.08 input   66.30 | X-H torsion
[ 10763 10752 10751 10750 ] final  -16.66 input  -60.55 | X-H torsion
[ 11005 11000 10999 10996 ] final   74.29 input  -57.11 | X-H torsion

> <Gold.Protein.ActiveResidues>
 VAL166  LYS551  ARG553  GLY616  TRP617  ASP618  TYR619  PRO620  LYS621  CYS622 
 ASP623  PHE694  ASN695  SER759  ASP760  ASP761  ALA762  ILE779  LEU786  VAL792 
 PHE793  MET794  SER795  GLU796  ALA797  LYS798  CYS799  TRP800  GLU811  SER814 

> <Gold.Protein.RotatedAtoms>
  150.9415  133.6651  159.2789 H   0  0  0  0  0  0  0  0  0  0  0  0  # atno 6907 bound_to 6896
  151.4039  135.0974  159.9574 H   0  0  0  0  0  0  0  0  0  0  0  0  # atno 6908 bound_to 6896
  152.5071  133.8903  159.7445 H   0  0  0  0  0  0  0  0  0  0  0  0  # atno 6909 bound_to 6896
  144.8164  139.6782  143.6119 H   0  0  0  0  0  0  0  0  0  0  0  0  # atno 7974 bound_to 7965
  154.8411  140.2915  155.5659 H   0  0  0  0  0  0  0  0  0  0  0  0  # atno 8008 bound_to 7997
  156.3011  140.2514  156.3285 H   0  0  0  0  0  0  0  0  0  0  0  0  # atno 8009 bound_to 7997
  154.9125  140.0388  157.1943 H   0  0  0  0  0  0  0  0  0  0  0  0  # atno 8010 bound_to 7997
  140.2954  143.3195  152.0303 H   0  0  0  0  0  0  0  0  0  0  0  0  # atno 10167 bound_to 10162
  156.0379  130.4344  150.2391 H   0  0  0  0  0  0  0  0  0  0  0  0  # atno 10718 bound_to 10713
  153.5620  135.7009  153.5543 H   0  0  0  0  0  0  0  0  0  0  0  0  # atno 10763 bound_to 10752
  153.3421  135.4018  155.1579 H   0  0  0  0  0  0  0  0  0  0  0  0  # atno 10764 bound_to 10752
  154.8646  135.3744  154.5138 H   0  0  0  0  0  0  0  0  0  0  0  0  # atno 10765 bound_to 10752
  139.9398  134.7420  156.1130 H   0  0  0  0  0  0  0  0  0  0  0  0  # atno 11005 bound_to 11000
  146.2467  139.6113  142.9455 LP  0  0  0  0  0  0  0  0  0  0  0  0  # atno 17320 bound_to 7965
  145.5205  141.0432  143.2438 LP  0  0  0  0  0  0  0  0  0  0  0  0  # atno 17321 bound_to 7965
  139.4928  144.6495  151.6706 LP  0  0  0  0  0  0  0  0  0  0  0  0  # atno 17342 bound_to 10162
  140.5697  144.0130  150.6210 LP  0  0  0  0  0  0  0  0  0  0  0  0  # atno 17343 bound_to 10162
  157.0489  131.0057  151.3260 LP  0  0  0  0  0  0  0  0  0  0  0  0  # atno 17370 bound_to 10713
  157.5155  130.7965  149.7751 LP  0  0  0  0  0  0  0  0  0  0  0  0  # atno 17371 bound_to 10713
  141.1028  133.6671  156.2794 LP  0  0  0  0  0  0  0  0  0  0  0  0  # atno 17394 bound_to 11000
  140.5981  134.5583  157.5512 LP  0  0  0  0  0  0  0  0  0  0  0  0  # atno 17395 bound_to 11000

$$$$
