AV-unprocessed.smi:1218|AV-procd|sdf|5107|dock8
  -GOLD-   22720 4163D 1   1.00000     0.00000
 Structure written by MMmdl.
 45 46  0  0  0  0  0  0  0  0  2 V2000
  145.5883  132.2662  151.6175 C   0  0  0  0  0  0  0  0  0  0  0  0
  144.1261  132.6078  151.2935 C   0  0  0  0  0  0  0  0  0  0  0  0
  143.8667  132.4755  149.7834 C   0  0  0  0  0  0  0  0  0  0  0  0
  143.7699  134.0155  151.8190 C   0  0  0  0  0  0  0  0  0  0  0  0
  143.7212  134.0937  153.3049 N   0  3  2  0  0  0  0  0  0  0  0  0
  142.8109  135.1491  153.8111 C   0  0  0  0  0  0  0  0  0  0  0  0
  143.4621  136.5393  153.7052 C   0  0  0  0  0  0  0  0  0  0  0  0
  144.6941  136.5349  154.4145 O   0  0  0  0  0  0  0  0  0  0  0  0
  145.6375  135.6136  153.8757 C   0  0  1  0  0  0  0  0  0  0  0  0
  146.9546  135.7329  154.6639 C   0  0  0  0  0  0  0  0  0  0  0  0
  147.8257  136.7681  154.1174 N   0  0  0  0  0  0  0  0  0  0  0  0
  148.1157  137.9337  154.7156 C   0  0  0  0  0  0  0  0  0  0  0  0
  147.6589  138.2611  155.8114 O   0  0  0  0  0  0  0  0  0  0  0  0
  149.0607  138.8683  153.9528 C   0  0  0  0  0  0  0  0  0  0  0  0
  150.4323  138.7629  154.4230 N   0  0  0  0  0  0  0  0  0  0  0  0
  151.2929  137.6884  154.3270 C   0  0  0  0  0  0  0  0  0  0  0  0
  152.4740  138.0603  154.9023 C   0  0  0  0  0  0  0  0  0  0  0  0
  152.2380  139.3988  155.3235 C   0  0  0  0  0  0  0  0  0  0  0  0
  151.0168  139.8175  155.0328 N   0  0  0  0  0  0  0  0  0  0  0  0
  145.0450  134.1897  153.9735 C   0  0  0  0  0  0  0  0  0  0  0  0
  146.2759  132.9620  151.1354 H   0  0  0  0  0  0  0  0  0  0  0  0
  145.8417  131.2610  151.2793 H   0  0  0  0  0  0  0  0  0  0  0  0
  145.7741  132.3061  152.6914 H   0  0  0  0  0  0  0  0  0  0  0  0
  143.5136  131.8658  151.8044 H   0  0  0  0  0  0  0  0  0  0  0  0
  144.4566  133.1950  149.2145 H   0  0  0  0  0  0  0  0  0  0  0  0
  142.8164  132.6397  149.5415 H   0  0  0  0  0  0  0  0  0  0  0  0
  144.1283  131.4784  149.4277 H   0  0  0  0  0  0  0  0  0  0  0  0
  144.4707  134.7537  151.4294 H   0  0  0  0  0  0  0  0  0  0  0  0
  142.7946  134.2890  151.4134 H   0  0  0  0  0  0  0  0  0  0  0  0
  141.8563  135.1238  153.2845 H   0  0  0  0  0  0  0  0  0  0  0  0
  142.5873  134.9368  154.8574 H   0  0  0  0  0  0  0  0  0  0  0  0
  143.6240  136.8266  152.6652 H   0  0  0  0  0  0  0  0  0  0  0  0
  142.8079  137.2930  154.1438 H   0  0  0  0  0  0  0  0  0  0  0  0
  145.8353  135.8651  152.8327 H   0  0  0  0  0  0  0  0  0  0  0  0
  146.7585  135.9079  155.7232 H   0  0  0  0  0  0  0  0  0  0  0  0
  147.5009  134.7911  154.6051 H   0  0  0  0  0  0  0  0  0  0  0  0
  148.2452  136.5823  153.2177 H   0  0  0  0  0  0  0  0  0  0  0  0
  149.0470  138.6370  152.8868 H   0  0  0  0  0  0  0  0  0  0  0  0
  148.7135  139.8968  154.0632 H   0  0  0  0  0  0  0  0  0  0  0  0
  150.9950  136.7587  153.8648 H   0  0  0  0  0  0  0  0  0  0  0  0
  153.3704  137.4672  155.0061 H   0  0  0  0  0  0  0  0  0  0  0  0
  152.9137  140.0745  155.8268 H   0  0  0  0  0  0  0  0  0  0  0  0
  144.9075  133.9302  155.0242 H   0  0  0  0  0  0  0  0  0  0  0  0
  145.7418  133.4547  153.5730 H   0  0  0  0  0  0  0  0  0  0  0  0
  143.3134  133.2170  153.5976 H   0  0  0  0  0  0  0  0  0  0  0  0
  1  2  1  0  0  0  0
  1 21  1  0  0  0  0
  1 22  1  0  0  0  0
  1 23  1  0  0  0  0
  2  3  1  0  0  0  0
  2  4  1  0  0  0  0
  2 24  1  0  0  0  0
  3 25  1  0  0  0  0
  3 26  1  0  0  0  0
  3 27  1  0  0  0  0
  4  5  1  0  0  0  0
  4 28  1  0  0  0  0
  4 29  1  0  0  0  0
  5 20  1  0  0  0  0
  5  6  1  0  0  0  0
  5 45  1  0  0  0  0
  6  7  1  0  0  0  0
  6 30  1  0  0  0  0
  6 31  1  0  0  0  0
  7  8  1  0  0  0  0
  7 32  1  0  0  0  0
  7 33  1  0  0  0  0
  8  9  1  0  0  0  0
  9 10  1  0  0  0  0
  9 20  1  0  0  0  0
  9 34  1  0  0  0  0
 10 11  1  0  0  0  0
 10 35  1  0  0  0  0
 10 36  1  0  0  0  0
 11 12  1  0  0  0  0
 11 37  1  0  0  0  0
 12 13  2  0  0  0  0
 12 14  1  0  0  0  0
 14 15  1  0  0  0  0
 14 38  1  0  0  0  0
 14 39  1  0  0  0  0
 15 19  1  0  0  0  0
 15 16  1  0  0  0  0
 16 17  2  0  0  0  0
 16 40  1  0  0  0  0
 17 18  1  0  0  0  0
 17 41  1  0  0  0  0
 18 19  2  0  0  0  0
 18 42  1  0  0  0  0
 20 43  1  0  0  0  0
 20 44  1  0  0  0  0
M  CHG  1   5   1
M  END
> <s_m_source_file>
AV-unprocessed.smi

> <i_m_source_file_index>
1218

> <i_lp_mmshare_version>
43012

> <i_f3d_flags>
0

> <s_epik_input>
W0NIM11bQ0hdKFtDSDNdKVtDSDJdTjFbQ0gyXVtDSDJdT1tDQEhdKFtDSDJdMSlbQ0gyXVtOSF1DKD1PKVtDSDJdbjJbY0hdW2NIXVtjSF1uMg==

> <s_epik_cmdline>
J2VwaWtfcHl0aG9uJywgJy1waCcsICc3LjAnLCAnLXRuJywgJzgnLCAnLW1hJywgJzIwMCcsICctbWV0YWxfYmluZGluZycsICctaW1hZScsICc8aW5maWxlLm1hZT4nLCAnLW9tYWUnLCAnPG91dGZpbGUubWFlPic=

> <r_lp_tautomer_probability>
1

> <r_epik_Ionization_Penalty>
0.0995066

> <r_epik_Ionization_Penalty_Charging>
0.0994921

> <r_epik_Ionization_Penalty_Neutral>
1.44634e-05

> <r_epik_State_Penalty>
0.0895432

> <r_epik_Charging_Adjusted_Penalty>
0.189035

> <i_epik_Tot_Q>
1

> <i_epik_Tot_abs_Q>
1

> <r_epik_Metal_State_Penalty>
0.0895432

> <b_epik_Metal_Only>
0

> <s_lp_Force_Field>
OPLS_2005

> <r_lp_Energy>
22.0385

> <b_lp_Chiralities_Consistent>
1

> <s_lp_Variant>
AV-unprocessed.smi:1218-2

> <Gold.Version>
5.8.1

> <Gold.Id.Protein>
6NUR|6NUR_protein|mol2

> <Gold.PLP.Fitness>
45.0466

> <Gold.PLP.PLP>
-33.0899

> <Gold.PLP.part.hbond>
-3.0000

> <Gold.PLP.part.metal>
0.0000

> <Gold.PLP.part.buried>
-3.8068

> <Gold.PLP.part.nonpolar>
-27.6744

> <Gold.PLP.part.repulsive>
0.0902

> <Gold.PLP.ligand.clash>
0.0000

> <Gold.PLP.ligand.torsion>
1.0158

> <Gold.PLP.Chemscore.Hbond>
3.5500

> <Gold.PLP.Chemscore.CHOScore>
1.0657

> <Gold.PLP.Chemscore.Metal>
0.0000

> <Gold.Chemscore.Hbonds>
donor molecule, donor type, donor heavy atom, donor atom, acceptor molecule, acceptor atom, score
      L1  H     5    45       P1 10957  2.00
      L1  H    11    37       P1  7948  1.00
      P1  H  7989  7998       L1    19  0.65
      L1  C    16    40       P1  7948  0.05
      L1  C    16    40       P1  7949  1.00

> <Gold.PLP.Chemscore.Internal.Correction>
0.1411

> <Gold.Rescore>
     Score         DG    S(hbond)    S(metal)    S(lipo)     H(rot)  DE(clash)    DE(int)     intcor
     14.71     -15.79       1.95        0.00      75.48       1.96       0.04       1.04       ----

> <Gold.Chemscore.Fitness>
14.7134

> <Gold.Chemscore.DG>
-15.7867

> <Gold.Chemscore.ZeroCoef>
-5.4800

> <Gold.Chemscore.Hbond>
1.9458

> <Gold.Chemscore.Metal>
0.0000

> <Gold.Chemscore.Lipo>
75.4816

> <Gold.Chemscore.Internal_Hbond>
0.0000

> <Gold.Chemscore.DEClash>
0.0370

> <Gold.Chemscore.DEInternal>
1.0363

> <Gold.Chemscore.Rot>
1.9624

> <Gold.Chemscore.Internal.Correction>
   9.000000E+99

> <Gold.Chemscore.Hbonds>
donor molecule, donor type, donor heavy atom, donor atom, acceptor molecule, acceptor atom, score
      L1  H     5    45       P1 10957  0.95
      L1  H    11    37       P1  7948  0.97
      P1  H  7989  7998       L1    19  0.02

> <Gold.Chemscore.Hbond.Weighted>
-6.4991

> <Gold.Chemscore.Metal.Weighted>
-0.0000

> <Gold.Chemscore.Lipo.Weighted>
-8.8313

> <Gold.Chemscore.Internal_Hbond.Weighted>
0.0000

> <Gold.Chemscore.DEClash.Weighted>
0.0370

> <Gold.Chemscore.DEInternal.Weighted>
1.0363

> <Gold.Chemscore.Rot.Weighted>
5.0237

> <Gold.Chemscore.Internal.Correction.Weighted>
   9.000000E+99

> <Gold.Protein.RotatedTorsions>
[ 6907 6896 6895 6894 ] final  100.84 input  -60.11 | X-H torsion
[ 7974 7965 7964 7962 ] final  -93.52 input  175.53 | X-H torsion
[ 8008 7997 7996 7995 ] final -155.55 input   59.86 | X-H torsion
[ 10167 10162 10161 10158 ] final   34.07 input  -65.29 | X-H torsion
[ 10718 10713 10712 10709 ] final  -53.34 input   66.30 | X-H torsion
[ 10763 10752 10751 10750 ] final -112.61 input  -60.55 | X-H torsion
[ 11005 11000 10999 10996 ] final   98.57 input  -57.11 | X-H torsion

> <Gold.Protein.ActiveResidues>
 VAL166  LYS551  ARG553  GLY616  TRP617  ASP618  TYR619  PRO620  LYS621  CYS622 
 ASP623  PHE694  ASN695  SER759  ASP760  ASP761  ALA762  ILE779  LEU786  VAL792 
 PHE793  MET794  SER795  GLU796  ALA797  LYS798  CYS799  TRP800  GLU811  SER814 

> <Gold.Protein.RotatedAtoms>
  152.5363  134.0215  159.7983 H   0  0  0  0  0  0  0  0  0  0  0  0  # atno 6907 bound_to 6896
  151.0401  133.5706  159.2659 H   0  0  0  0  0  0  0  0  0  0  0  0  # atno 6908 bound_to 6896
  151.2679  135.0682  159.9176 H   0  0  0  0  0  0  0  0  0  0  0  0  # atno 6909 bound_to 6896
  145.3854  140.9522  143.2370 H   0  0  0  0  0  0  0  0  0  0  0  0  # atno 7974 bound_to 7965
  155.7036  140.0770  157.2400 H   0  0  0  0  0  0  0  0  0  0  0  0  # atno 8008 bound_to 7997
  154.4069  140.1643  156.2271 H   0  0  0  0  0  0  0  0  0  0  0  0  # atno 8009 bound_to 7997
  155.9346  140.3389  155.6279 H   0  0  0  0  0  0  0  0  0  0  0  0  # atno 8010 bound_to 7997
  140.4349  144.1272  150.6165 H   0  0  0  0  0  0  0  0  0  0  0  0  # atno 10167 bound_to 10162
  156.1543  130.4150  149.9894 H   0  0  0  0  0  0  0  0  0  0  0  0  # atno 10718 bound_to 10713
  154.8358  135.4484  154.1220 H   0  0  0  0  0  0  0  0  0  0  0  0  # atno 10763 bound_to 10752
  153.2454  135.6921  153.7744 H   0  0  0  0  0  0  0  0  0  0  0  0  # atno 10764 bound_to 10752
  153.7076  135.3362  155.3215 H   0  0  0  0  0  0  0  0  0  0  0  0  # atno 10765 bound_to 10752
  139.8772  134.9055  156.4476 H   0  0  0  0  0  0  0  0  0  0  0  0  # atno 11005 bound_to 11000
  144.8477  139.5370  143.6871 LP  0  0  0  0  0  0  0  0  0  0  0  0  # atno 17320 bound_to 7965
  146.2822  139.6908  142.9221 LP  0  0  0  0  0  0  0  0  0  0  0  0  # atno 17321 bound_to 7965
  140.4385  143.2537  151.9503 LP  0  0  0  0  0  0  0  0  0  0  0  0  # atno 17342 bound_to 10162
  139.4786  144.5677  151.8139 LP  0  0  0  0  0  0  0  0  0  0  0  0  # atno 17343 bound_to 10162
  156.7742  130.9197  151.3645 LP  0  0  0  0  0  0  0  0  0  0  0  0  # atno 17370 bound_to 10713
  157.6683  130.9027  149.9981 LP  0  0  0  0  0  0  0  0  0  0  0  0  # atno 17371 bound_to 10713
  140.8955  133.7817  155.9620 LP  0  0  0  0  0  0  0  0  0  0  0  0  # atno 17394 bound_to 11000
  140.8707  134.2729  157.5192 LP  0  0  0  0  0  0  0  0  0  0  0  0  # atno 17395 bound_to 11000

$$$$
