AV-unprocessed.smi:1579|AV-procd|sdf|6355|dock7
  -GOLD-   22720 6573D 1   1.00000     0.00000
 Structure written by MMmdl.
 47 48  0  0  0  0  0  0  0  0  2 V2000
  148.1321  131.8544  158.7148 C   0  0  0  0  0  0  0  0  0  0  0  0
  148.3527  133.3412  158.7884 C   0  0  0  0  0  0  0  0  0  0  0  0
  149.0376  133.8750  157.8306 N   0  0  0  0  0  0  0  0  0  0  0  0
  149.2953  135.2309  157.8005 N   0  0  0  0  0  0  0  0  0  0  0  0
  150.0861  135.6627  156.6415 C   0  0  0  0  0  0  0  0  0  0  0  0
  149.2303  135.7634  155.3596 C   0  0  1  0  0  0  0  0  0  0  0  0
  149.9790  136.4601  154.3826 O   0  0  0  0  0  0  0  0  0  0  0  0
  148.9033  134.3700  154.7846 C   0  0  0  0  0  0  0  0  0  0  0  0
  148.0019  134.4388  153.6058 N   0  3  2  0  0  0  0  0  0  0  0  0
  146.6588  134.9934  153.9222 C   0  0  0  0  0  0  0  0  0  0  0  0
  145.8211  135.1753  152.6455 C   0  0  0  0  0  0  0  0  0  0  0  0
  145.6855  133.8528  151.8721 C   0  0  1  0  0  0  0  0  0  0  0  0
  144.8806  134.0321  150.5774 C   0  0  0  0  0  0  0  0  0  0  0  0
  147.0863  133.2810  151.5964 C   0  0  0  0  0  0  0  0  0  0  0  0
  147.8985  133.1389  152.8947 C   0  0  0  0  0  0  0  0  0  0  0  0
  148.8760  136.1229  158.7433 C   0  0  0  0  0  0  0  0  0  0  0  0
  149.1412  137.3246  158.6803 O   0  0  0  0  0  0  0  0  0  0  0  0
  148.1001  135.5124  159.8248 C   0  0  0  0  0  0  0  0  0  0  0  0
  147.6370  136.4120  160.8318 C   0  0  0  0  0  0  0  0  0  0  0  0
  147.2682  137.1296  161.6619 N   0  0  0  0  0  0  0  0  0  0  0  0
  147.8412  134.1815  159.8667 C   0  0  0  0  0  0  0  0  0  0  0  0
  147.0419  133.4992  160.9684 C   0  0  0  0  0  0  0  0  0  0  0  0
  147.0707  131.6152  158.7821 H   0  0  0  0  0  0  0  0  0  0  0  0
  148.6459  131.3475  159.5319 H   0  0  0  0  0  0  0  0  0  0  0  0
  148.5038  131.4335  157.7793 H   0  0  0  0  0  0  0  0  0  0  0  0
  150.5931  136.6093  156.8408 H   0  0  0  0  0  0  0  0  0  0  0  0
  150.8935  134.9435  156.4924 H   0  0  0  0  0  0  0  0  0  0  0  0
  148.3119  136.3128  155.5626 H   0  0  0  0  0  0  0  0  0  0  0  0
  149.6460  136.2296  153.5280 H   0  0  0  0  0  0  0  0  0  0  0  0
  149.8398  133.8811  154.5105 H   0  0  0  0  0  0  0  0  0  0  0  0
  148.4441  133.7373  155.5457 H   0  0  0  0  0  0  0  0  0  0  0  0
  146.1429  134.3281  154.6164 H   0  0  0  0  0  0  0  0  0  0  0  0
  146.7510  135.9568  154.4221 H   0  0  0  0  0  0  0  0  0  0  0  0
  144.8338  135.5580  152.9071 H   0  0  0  0  0  0  0  0  0  0  0  0
  146.2869  135.9305  152.0104 H   0  0  0  0  0  0  0  0  0  0  0  0
  145.1467  133.1436  152.5026 H   0  0  0  0  0  0  0  0  0  0  0  0
  145.3667  134.7366  149.9016 H   0  0  0  0  0  0  0  0  0  0  0  0
  143.8792  134.4089  150.7868 H   0  0  0  0  0  0  0  0  0  0  0  0
  144.7719  133.0848  150.0486 H   0  0  0  0  0  0  0  0  0  0  0  0
  147.0043  132.3096  151.1073 H   0  0  0  0  0  0  0  0  0  0  0  0
  147.6218  133.9308  150.9024 H   0  0  0  0  0  0  0  0  0  0  0  0
  148.8961  132.7716  152.6510 H   0  0  0  0  0  0  0  0  0  0  0  0
  147.4382  132.3980  153.5503 H   0  0  0  0  0  0  0  0  0  0  0  0
  146.8078  134.1780  161.7881 H   0  0  0  0  0  0  0  0  0  0  0  0
  147.5995  132.6628  161.3911 H   0  0  0  0  0  0  0  0  0  0  0  0
  146.0989  133.1200  160.5734 H   0  0  0  0  0  0  0  0  0  0  0  0
  148.4413  135.0768  152.9572 H   0  0  0  0  0  0  0  0  0  0  0  0
  1  2  1  0  0  0  0
  1 23  1  0  0  0  0
  1 24  1  0  0  0  0
  1 25  1  0  0  0  0
  2 21  1  0  0  0  0
  2  3  2  0  0  0  0
  3  4  1  0  0  0  0
  4  5  1  0  0  0  0
  4 16  1  0  0  0  0
  5  6  1  0  0  0  0
  5 26  1  0  0  0  0
  5 27  1  0  0  0  0
  6  7  1  0  0  0  0
  6  8  1  0  0  0  0
  6 28  1  0  0  0  0
  7 29  1  0  0  0  0
  8  9  1  0  0  0  0
  8 30  1  0  0  0  0
  8 31  1  0  0  0  0
  9 15  1  0  0  0  0
  9 10  1  0  0  0  0
  9 47  1  0  0  0  0
 10 11  1  0  0  0  0
 10 32  1  0  0  0  0
 10 33  1  0  0  0  0
 11 12  1  0  0  0  0
 11 34  1  0  0  0  0
 11 35  1  0  0  0  0
 12 13  1  0  0  0  0
 12 14  1  0  0  0  0
 12 36  1  0  0  0  0
 13 37  1  0  0  0  0
 13 38  1  0  0  0  0
 13 39  1  0  0  0  0
 14 15  1  0  0  0  0
 14 40  1  0  0  0  0
 14 41  1  0  0  0  0
 15 42  1  0  0  0  0
 15 43  1  0  0  0  0
 16 17  2  0  0  0  0
 16 18  1  0  0  0  0
 18 19  1  0  0  0  0
 18 21  2  0  0  0  0
 19 20  3  0  0  0  0
 21 22  1  0  0  0  0
 22 44  1  0  0  0  0
 22 45  1  0  0  0  0
 22 46  1  0  0  0  0
M  CHG  1   9   1
M  END
> <s_m_source_file>
AV-unprocessed.smi

> <i_m_source_file_index>
1579

> <i_lp_mmshare_version>
43012

> <i_f3d_flags>
0

> <s_epik_input>
TiNDYyhjMVtDSDNdKWMoPU8pbihuYzFbQ0gzXSlbQ0gyXVtDQEhdKFtPSF0pW0NIMl1OMltDSDJdW0NIMl1bQ0hdKFtDSDNdKVtDSDJdW0NIMl0y

> <s_epik_cmdline>
J2VwaWtfcHl0aG9uJywgJy1waCcsICc3LjAnLCAnLXRuJywgJzgnLCAnLW1hJywgJzIwMCcsICctbWV0YWxfYmluZGluZycsICctaW1hZScsICc8aW5maWxlLm1hZT4nLCAnLW9tYWUnLCAnPG91dGZpbGUubWFlPic=

> <r_epik_Ionization_Penalty>
0.00136816

> <r_epik_Ionization_Penalty_Charging>
0.00136813

> <r_epik_Ionization_Penalty_Neutral>
3.19884e-08

> <r_epik_State_Penalty>
0.000910892

> <r_epik_Charging_Adjusted_Penalty>
0.00227902

> <i_epik_Tot_Q>
1

> <i_epik_Tot_abs_Q>
1

> <r_epik_Metal_State_Penalty>
-0

> <b_epik_Metal_Only>
0

> <s_lp_Force_Field>
OPLS_2005

> <r_lp_Energy>
37.5904

> <b_lp_Chiralities_Consistent>
1

> <s_lp_Variant>
AV-unprocessed.smi:1579-2

> <Gold.Version>
5.8.1

> <Gold.Id.Protein>
6NUR|6NUR_protein|mol2

> <Gold.PLP.Fitness>
43.5960

> <Gold.PLP.PLP>
-30.0715

> <Gold.PLP.part.hbond>
-5.1862

> <Gold.PLP.part.metal>
0.0000

> <Gold.PLP.part.buried>
-3.2368

> <Gold.PLP.part.nonpolar>
-22.4467

> <Gold.PLP.part.repulsive>
0.0000

> <Gold.PLP.ligand.clash>
0.0000

> <Gold.PLP.ligand.torsion>
0.3898

> <Gold.PLP.Chemscore.Hbond>
4.7600

> <Gold.PLP.Chemscore.CHOScore>
0.0000

> <Gold.PLP.Chemscore.Metal>
0.0000

> <Gold.Chemscore.Hbonds>
donor molecule, donor type, donor heavy atom, donor atom, acceptor molecule, acceptor atom, score
      L1  H     7    29       P1  7948  1.00
      L1  H     9    47       P1  7948  2.00
      P1  H  6931  6943       L1    20  0.72
      P1  H  6934  6947       L1    20  0.90

> <Gold.PLP.Chemscore.Internal.Correction>
0.0242

> <Gold.Rescore>
     Score         DG    S(hbond)    S(metal)    S(lipo)     H(rot)  DE(clash)    DE(int)     intcor
     16.42     -17.08       3.14        0.00      57.18       2.17       0.21       0.45       ----

> <Gold.Chemscore.Fitness>
16.4198

> <Gold.Chemscore.DG>
-17.0821

> <Gold.Chemscore.ZeroCoef>
-5.4800

> <Gold.Chemscore.Hbond>
3.1352

> <Gold.Chemscore.Metal>
0.0000

> <Gold.Chemscore.Lipo>
57.1765

> <Gold.Chemscore.Internal_Hbond>
0.0000

> <Gold.Chemscore.DEClash>
0.2121

> <Gold.Chemscore.DEInternal>
0.4503

> <Gold.Chemscore.Rot>
2.1715

> <Gold.Chemscore.Internal.Correction>
   9.000000E+99

> <Gold.Chemscore.Hbonds>
donor molecule, donor type, donor heavy atom, donor atom, acceptor molecule, acceptor atom, score
      L1  H     7    29       P1  7948  0.35
      L1  H     9    47       P1  7948  0.78
      P1  H  6931  6943       L1    20  0.15
      P1  H  6934  6947       L1    20  0.61

> <Gold.Chemscore.Hbond.Weighted>
-10.4716

> <Gold.Chemscore.Metal.Weighted>
-0.0000

> <Gold.Chemscore.Lipo.Weighted>
-6.6896

> <Gold.Chemscore.Internal_Hbond.Weighted>
0.0000

> <Gold.Chemscore.DEClash.Weighted>
0.2121

> <Gold.Chemscore.DEInternal.Weighted>
0.4503

> <Gold.Chemscore.Rot.Weighted>
5.5591

> <Gold.Chemscore.Internal.Correction.Weighted>
   9.000000E+99

> <Gold.Protein.RotatedTorsions>
[ 6907 6896 6895 6894 ] final  -42.13 input  -60.11 | X-H torsion
[ 7974 7965 7964 7962 ] final   80.87 input  175.53 | X-H torsion
[ 8008 7997 7996 7995 ] final  108.12 input   59.86 | X-H torsion
[ 10167 10162 10161 10158 ] final   86.68 input  -65.29 | X-H torsion
[ 10718 10713 10712 10709 ] final  -38.62 input   66.30 | X-H torsion
[ 10763 10752 10751 10750 ] final  -55.49 input  -60.55 | X-H torsion
[ 11005 11000 10999 10996 ] final  -76.16 input  -57.11 | X-H torsion

> <Gold.Protein.ActiveResidues>
 VAL166  LYS551  ARG553  GLY616  TRP617  ASP618  TYR619  PRO620  LYS621  CYS622 
 ASP623  PHE694  ASN695  SER759  ASP760  ASP761  ALA762  ILE779  LEU786  VAL792 
 PHE793  MET794  SER795  GLU796  ALA797  LYS798  CYS799  TRP800  GLU811  SER814 

> <Gold.Protein.RotatedAtoms>
  150.9588  134.8979  159.7717 H   0  0  0  0  0  0  0  0  0  0  0  0  # atno 6907 bound_to 6896
  152.5148  134.3702  159.9325 H   0  0  0  0  0  0  0  0  0  0  0  0  # atno 6908 bound_to 6896
  151.3715  133.3813  159.2735 H   0  0  0  0  0  0  0  0  0  0  0  0  # atno 6909 bound_to 6896
  145.6455  139.2435  143.2006 H   0  0  0  0  0  0  0  0  0  0  0  0  # atno 7974 bound_to 7965
  156.1878  140.3082  155.9273 H   0  0  0  0  0  0  0  0  0  0  0  0  # atno 8008 bound_to 7997
  155.3241  140.0457  157.3057 H   0  0  0  0  0  0  0  0  0  0  0  0  # atno 8009 bound_to 7997
  154.5416  140.2263  155.8640 H   0  0  0  0  0  0  0  0  0  0  0  0  # atno 8010 bound_to 7997
  139.8851  144.6418  150.8800 H   0  0  0  0  0  0  0  0  0  0  0  0  # atno 10167 bound_to 10162
  156.3017  130.4241  149.8136 H   0  0  0  0  0  0  0  0  0  0  0  0  # atno 10718 bound_to 10713
  154.1916  135.6426  153.5061 H   0  0  0  0  0  0  0  0  0  0  0  0  # atno 10763 bound_to 10752
  153.0033  135.5430  154.6409 H   0  0  0  0  0  0  0  0  0  0  0  0  # atno 10764 bound_to 10752
  154.5799  135.2924  155.0716 H   0  0  0  0  0  0  0  0  0  0  0  0  # atno 10765 bound_to 10752
  141.1651  133.6973  156.7627 H   0  0  0  0  0  0  0  0  0  0  0  0  # atno 11005 bound_to 11000
  146.1246  140.7265  142.9441 LP  0  0  0  0  0  0  0  0  0  0  0  0  # atno 17320 bound_to 7965
  144.7141  140.4148  143.7057 LP  0  0  0  0  0  0  0  0  0  0  0  0  # atno 17321 bound_to 7965
  140.7737  143.3554  151.1931 LP  0  0  0  0  0  0  0  0  0  0  0  0  # atno 17342 bound_to 10162
  139.7160  143.9299  152.2967 LP  0  0  0  0  0  0  0  0  0  0  0  0  # atno 17343 bound_to 10162
  156.5512  130.8343  151.3300 LP  0  0  0  0  0  0  0  0  0  0  0  0  # atno 17370 bound_to 10713
  157.7369  130.9787  150.2165 LP  0  0  0  0  0  0  0  0  0  0  0  0  # atno 17371 bound_to 10713
  140.2522  134.8532  157.3678 LP  0  0  0  0  0  0  0  0  0  0  0  0  # atno 17394 bound_to 11000
  140.1692  134.4631  155.7843 LP  0  0  0  0  0  0  0  0  0  0  0  0  # atno 17395 bound_to 11000

$$$$
