AV-unprocessed.smi:3025|AV-procd|sdf|11512|dock1
  -GOLD-   2272016453D 1   1.00000     0.00000
 Structure written by MMmdl.
 41 42  0  0  0  0  0  0  0  0  3 V2000
  144.0857  134.0236  150.3908 C   0  0  0  0  0  0  0  0  0  0  0  0
  144.4200  135.4626  150.7987 C   0  0  0  0  0  0  0  0  0  0  0  0
  145.0984  135.5397  152.1769 C   0  0  0  0  0  0  0  0  0  0  0  0
  145.4533  136.9717  152.6284 C   0  0  2  0  0  0  0  0  0  0  0  0
  146.1713  137.7813  151.5272 C   0  0  0  0  0  0  0  0  0  0  0  0
  146.5400  139.1959  152.0064 C   0  0  0  0  0  0  0  0  0  0  0  0
  147.3965  139.1763  153.2902 C   0  0  2  0  0  0  0  0  0  0  0  0
  148.7618  138.6526  153.0518 N   0  3  0  0  0  0  0  0  0  0  0  0
  149.6814  138.7261  154.2051 C   0  0  0  0  0  0  0  0  0  0  0  0
  151.0135  138.0401  153.8850 C   0  0  0  0  0  0  0  0  0  0  0  0
  151.9923  138.1651  155.0294 C   0  0  0  0  0  0  0  0  0  0  0  0
  152.3809  139.3201  155.6056 N   0  5  0  0  0  0  0  0  0  0  0  0
  153.2088  139.0722  156.6015 N   0  0  0  0  0  0  0  0  0  0  0  0
  153.3049  137.7376  156.6237 C   0  0  0  0  0  0  0  0  0  0  0  0
  152.5631  137.1532  155.6764 N   0  0  0  0  0  0  0  0  0  0  0  0
  146.6913  138.3546  154.3853 C   0  0  0  0  0  0  0  0  0  0  0  0
  146.3166  136.9410  153.9057 C   0  0  0  0  0  0  0  0  0  0  0  0
  143.6107  133.9987  149.4099 H   0  0  0  0  0  0  0  0  0  0  0  0
  143.4019  133.5605  151.1026 H   0  0  0  0  0  0  0  0  0  0  0  0
  144.9850  133.4092  150.3402 H   0  0  0  0  0  0  0  0  0  0  0  0
  145.0637  135.9002  150.0363 H   0  0  0  0  0  0  0  0  0  0  0  0
  143.5031  136.0530  150.8071 H   0  0  0  0  0  0  0  0  0  0  0  0
  144.4245  135.0973  152.9119 H   0  0  0  0  0  0  0  0  0  0  0  0
  145.9953  134.9187  152.1804 H   0  0  0  0  0  0  0  0  0  0  0  0
  144.5220  137.4849  152.8741 H   0  0  0  0  0  0  0  0  0  0  0  0
  147.0711  137.2552  151.2060 H   0  0  0  0  0  0  0  0  0  0  0  0
  145.5373  137.8683  150.6453 H   0  0  0  0  0  0  0  0  0  0  0  0
  147.0379  139.7438  151.2071 H   0  0  0  0  0  0  0  0  0  0  0  0
  145.6198  139.7461  152.2072 H   0  0  0  0  0  0  0  0  0  0  0  0
  147.5007  140.1978  153.6588 H   0  0  0  0  0  0  0  0  0  0  0  0
  148.6763  137.6776  152.8027 H   0  0  0  0  0  0  0  0  0  0  0  0
  149.8648  139.7673  154.4695 H   0  0  0  0  0  0  0  0  0  0  0  0
  149.2188  138.2483  155.0697 H   0  0  0  0  0  0  0  0  0  0  0  0
  150.8556  136.9821  153.6723 H   0  0  0  0  0  0  0  0  0  0  0  0
  151.4615  138.4794  152.9930 H   0  0  0  0  0  0  0  0  0  0  0  0
  153.9124  137.1913  157.3345 H   0  0  0  0  0  0  0  0  0  0  0  0
  147.3183  138.2938  155.2757 H   0  0  0  0  0  0  0  0  0  0  0  0
  145.7829  138.8751  154.6919 H   0  0  0  0  0  0  0  0  0  0  0  0
  145.7815  136.4235  154.7026 H   0  0  0  0  0  0  0  0  0  0  0  0
  147.2233  136.3626  153.7236 H   0  0  0  0  0  0  0  0  0  0  0  0
  149.1698  139.1474  152.2716 H   0  0  0  0  0  0  0  0  0  0  0  0
  1  2  1  0  0  0  0
  1 18  1  0  0  0  0
  1 19  1  0  0  0  0
  1 20  1  0  0  0  0
  2  3  1  0  0  0  0
  2 21  1  0  0  0  0
  2 22  1  0  0  0  0
  3  4  1  0  0  0  0
  3 23  1  0  0  0  0
  3 24  1  0  0  0  0
  4 17  1  0  0  0  0
  4  5  1  0  0  0  0
  4 25  1  0  0  0  0
  5  6  1  0  0  0  0
  5 26  1  0  0  0  0
  5 27  1  0  0  0  0
  6  7  1  0  0  0  0
  6 28  1  0  0  0  0
  6 29  1  0  0  0  0
  7  8  1  0  0  0  0
  7 16  1  0  0  0  0
  7 30  1  0  0  0  0
  8  9  1  0  0  0  0
  8 31  1  0  0  0  0
  8 41  1  0  0  0  0
  9 10  1  0  0  0  0
  9 32  1  0  0  0  0
  9 33  1  0  0  0  0
 10 34  1  0  0  0  0
 10 35  1  0  0  0  0
 10 11  1  0  0  0  0
 11 15  2  0  0  0  0
 11 12  1  0  0  0  0
 12 13  1  0  0  0  0
 13 14  2  0  0  0  0
 14 15  1  0  0  0  0
 14 36  1  0  0  0  0
 16 17  1  0  0  0  0
 16 37  1  0  0  0  0
 16 38  1  0  0  0  0
 17 39  1  0  0  0  0
 17 40  1  0  0  0  0
M  CHG  1   8   1
M  CHG  1  12  -1
M  END
> <s_m_source_file>
AV-unprocessed.smi

> <i_m_source_file_index>
3025

> <i_lp_mmshare_version>
43012

> <i_f3d_flags>
0

> <s_epik_input>
W0NIM11bQ0gyXVtDSDJdW0NAQEhdMVtDSDJdW0NIMl1bQ0BIXShbQ0gyXVtDSDJdMSlbTkhdW0NIMl1bQ0gyXWMybm5bY0hdW25IXTI=

> <s_epik_cmdline>
J2VwaWtfcHl0aG9uJywgJy1waCcsICc3LjAnLCAnLXRuJywgJzgnLCAnLW1hJywgJzIwMCcsICctbWV0YWxfYmluZGluZycsICctaW1hZScsICc8aW5maWxlLm1hZT4nLCAnLW9tYWUnLCAnPG91dGZpbGUubWFlPic=

> <r_lp_tautomer_probability>
0.948284

> <r_epik_Ionization_Penalty>
6.65342

> <r_epik_Ionization_Penalty_Charging>
6.65342

> <r_epik_Ionization_Penalty_Neutral>
1.40767e-13

> <r_epik_State_Penalty>
2.88894

> <r_epik_Charging_Adjusted_Penalty>
9.54236

> <i_epik_Tot_Q>
0

> <i_epik_Tot_abs_Q>
2

> <r_epik_Metal_State_Penalty>
0.664188

> <b_epik_Metal_Only>
1

> <s_lp_Force_Field>
OPLS_2005

> <r_lp_Energy>
9.37779

> <b_lp_Chiralities_Consistent>
1

> <s_lp_Variant>
AV-unprocessed.smi:3025-8

> <Gold.Version>
5.8.1

> <Gold.Id.Protein>
6NUR|6NUR_protein|mol2

> <Gold.PLP.Fitness>
44.4809

> <Gold.PLP.PLP>
-30.2071

> <Gold.PLP.part.hbond>
-4.3934

> <Gold.PLP.part.metal>
0.0000

> <Gold.PLP.part.buried>
-0.0841

> <Gold.PLP.part.nonpolar>
-26.6691

> <Gold.PLP.part.repulsive>
0.0880

> <Gold.PLP.ligand.clash>
0.0000

> <Gold.PLP.ligand.torsion>
0.0912

> <Gold.PLP.Chemscore.Hbond>
4.8000

> <Gold.PLP.Chemscore.CHOScore>
0.0000

> <Gold.PLP.Chemscore.Metal>
0.0000

> <Gold.Chemscore.Hbonds>
donor molecule, donor type, donor heavy atom, donor atom, acceptor molecule, acceptor atom, score
      L1  H     8    31       P1  7948  2.00
      L1  H     8    41       P1  7957  0.86
      P1  H  7997  8010       L1    13  1.00
      P1  H 10752 10765       L1    15  0.70

> <Gold.PLP.Chemscore.Internal.Correction>
0.0562

> <Gold.Rescore>
     Score         DG    S(hbond)    S(metal)    S(lipo)     H(rot)  DE(clash)    DE(int)     intcor
     17.96     -18.62       3.56        0.00      65.31       2.50       0.53       0.12       ----

> <Gold.Chemscore.Fitness>
17.9646

> <Gold.Chemscore.DG>
-18.6169

> <Gold.Chemscore.ZeroCoef>
-5.4800

> <Gold.Chemscore.Hbond>
3.5631

> <Gold.Chemscore.Metal>
0.0000

> <Gold.Chemscore.Lipo>
65.3090

> <Gold.Chemscore.Internal_Hbond>
0.0000

> <Gold.Chemscore.DEClash>
0.5310

> <Gold.Chemscore.DEInternal>
0.1213

> <Gold.Chemscore.Rot>
2.5019

> <Gold.Chemscore.Internal.Correction>
   9.000000E+99

> <Gold.Chemscore.Hbonds>
donor molecule, donor type, donor heavy atom, donor atom, acceptor molecule, acceptor atom, score
      L1  H     8    31       P1  7948  0.98
      L1  H     8    41       P1  7957  0.83
      P1  H  7997  8010       L1    13  0.73
      P1  H 10752 10765       L1    15  0.66

> <Gold.Chemscore.Hbond.Weighted>
-11.9006

> <Gold.Chemscore.Metal.Weighted>
-0.0000

> <Gold.Chemscore.Lipo.Weighted>
-7.6412

> <Gold.Chemscore.Internal_Hbond.Weighted>
0.0000

> <Gold.Chemscore.DEClash.Weighted>
0.5310

> <Gold.Chemscore.DEInternal.Weighted>
0.1213

> <Gold.Chemscore.Rot.Weighted>
6.4049

> <Gold.Chemscore.Internal.Correction.Weighted>
   9.000000E+99

> <Gold.Protein.RotatedTorsions>
[ 6907 6896 6895 6894 ] final  163.05 input  -60.11 | X-H torsion
[ 7974 7965 7964 7962 ] final  -34.56 input  175.53 | X-H torsion
[ 8008 7997 7996 7995 ] final   62.23 input   59.86 | X-H torsion
[ 10167 10162 10161 10158 ] final -140.88 input  -65.29 | X-H torsion
[ 10718 10713 10712 10709 ] final  150.23 input   66.30 | X-H torsion
[ 10763 10752 10751 10750 ] final -151.27 input  -60.55 | X-H torsion
[ 11005 11000 10999 10996 ] final   16.54 input  -57.11 | X-H torsion

> <Gold.Protein.ActiveResidues>
 VAL166  LYS551  ARG553  GLY616  TRP617  ASP618  TYR619  PRO620  LYS621  CYS622 
 ASP623  PHE694  ASN695  SER759  ASP760  ASP761  ALA762  ILE779  LEU786  VAL792 
 PHE793  MET794  SER795  GLU796  ALA797  LYS798  CYS799  TRP800  GLU811  SER814 

> <Gold.Protein.RotatedAtoms>
  151.9311  133.3611  159.3930 H   0  0  0  0  0  0  0  0  0  0  0  0  # atno 6907 bound_to 6896
  150.7017  134.4537  159.5357 H   0  0  0  0  0  0  0  0  0  0  0  0  # atno 6908 bound_to 6896
  152.2177  134.8442  160.0540 H   0  0  0  0  0  0  0  0  0  0  0  0  # atno 6909 bound_to 6896
  146.0819  140.6054  142.8904 H   0  0  0  0  0  0  0  0  0  0  0  0  # atno 7974 bound_to 7965
  155.6110  140.3495  155.4622 H   0  0  0  0  0  0  0  0  0  0  0  0  # atno 8008 bound_to 7997
  156.0154  140.1242  157.0436 H   0  0  0  0  0  0  0  0  0  0  0  0  # atno 8009 bound_to 7997
  154.4295  140.1073  156.5874 H   0  0  0  0  0  0  0  0  0  0  0  0  # atno 8010 bound_to 7997
  139.8239  143.7537  152.2666 H   0  0  0  0  0  0  0  0  0  0  0  0  # atno 10167 bound_to 10162
  157.2861  131.0844  151.1496 H   0  0  0  0  0  0  0  0  0  0  0  0  # atno 10718 bound_to 10713
  154.8068  135.3264  154.7410 H   0  0  0  0  0  0  0  0  0  0  0  0  # atno 10763 bound_to 10752
  153.8067  135.6899  153.4851 H   0  0  0  0  0  0  0  0  0  0  0  0  # atno 10764 bound_to 10752
  153.1819  135.4583  154.9983 H   0  0  0  0  0  0  0  0  0  0  0  0  # atno 10765 bound_to 10752
  140.4460  134.1273  155.7696 H   0  0  0  0  0  0  0  0  0  0  0  0  # atno 11005 bound_to 11000
  144.7299  140.4639  143.6945 LP  0  0  0  0  0  0  0  0  0  0  0  0  # atno 17320 bound_to 7965
  145.6202  139.1523  143.3027 LP  0  0  0  0  0  0  0  0  0  0  0  0  # atno 17321 bound_to 7965
  139.7724  144.7472  151.0206 LP  0  0  0  0  0  0  0  0  0  0  0  0  # atno 17342 bound_to 10162
  140.7811  143.4631  151.0250 LP  0  0  0  0  0  0  0  0  0  0  0  0  # atno 17343 bound_to 10162
  157.2911  130.6797  149.6115 LP  0  0  0  0  0  0  0  0  0  0  0  0  # atno 17370 bound_to 10713
  155.9665  130.4420  150.5365 LP  0  0  0  0  0  0  0  0  0  0  0  0  # atno 17371 bound_to 10713
  141.1685  133.8656  157.1643 LP  0  0  0  0  0  0  0  0  0  0  0  0  # atno 17394 bound_to 11000
  140.0038  135.0017  157.0248 LP  0  0  0  0  0  0  0  0  0  0  0  0  # atno 17395 bound_to 11000

$$$$
