AV-unprocessed.smi:2710|AV-procd|sdf|10467|dock2
  -GOLD-   2272014503D 1   1.00000     0.00000
 Structure written by MMmdl.
 53 54  0  0  0  0  0  0  0  0  2 V2000
  146.5270  138.2125  151.8005 C   0  0  0  0  0  0  0  0  0  0  0  0
  145.8548  137.1547  152.6886 C   0  0  0  0  0  0  0  0  0  0  0  0
  146.2951  135.7655  152.3876 N   0  3  1  0  0  0  0  0  0  0  0  0
  146.0266  134.8371  153.5186 C   0  0  0  0  0  0  0  0  0  0  0  0
  146.6750  133.4627  153.2854 C   0  0  0  0  0  0  0  0  0  0  0  0
  146.2071  132.8464  151.9593 C   0  0  2  0  0  0  0  0  0  0  0  0
  146.8890  131.5756  151.7307 N   0  0  0  0  0  0  0  0  0  0  0  0
  146.7853  130.4941  152.5169 C   0  0  0  0  0  0  0  0  0  0  0  0
  146.0829  130.4579  153.5264 O   0  0  0  0  0  0  0  0  0  0  0  0
  147.5467  129.4866  152.0571 N   0  0  0  0  0  0  0  0  0  0  0  0
  147.7186  128.1797  152.5895 C   0  0  0  0  0  0  0  0  0  0  0  0
  148.7762  127.2912  152.2775 C   0  0  0  0  0  0  0  0  0  0  0  0
  148.8614  126.0664  152.8395 N   0  0  0  0  0  0  0  0  0  0  0  0
  147.9288  125.7227  153.7373 C   0  0  0  0  0  0  0  0  0  0  0  0
  147.9507  124.2739  154.2553 C   0  0  0  0  0  0  0  0  0  0  0  0
  146.7329  123.9899  155.1665 C   0  0  0  0  0  0  0  0  0  0  0  0
  149.2038  124.0122  155.1237 C   0  0  0  0  0  0  0  0  0  0  0  0
  147.9390  123.3024  153.0611 C   0  0  0  0  0  0  0  0  0  0  0  0
  146.8724  126.4742  154.0737 N   0  0  0  0  0  0  0  0  0  0  0  0
  146.7753  127.7010  153.5210 C   0  0  0  0  0  0  0  0  0  0  0  0
  146.4877  133.8365  150.8131 C   0  0  0  0  0  0  0  0  0  0  0  0
  145.8522  135.2200  151.0660 C   0  0  1  0  0  0  0  0  0  0  0  0
  144.3187  135.1961  150.8865 C   0  0  0  0  0  0  0  0  0  0  0  0
  146.2714  139.2156  152.1429 H   0  0  0  0  0  0  0  0  0  0  0  0
  146.2053  138.1390  150.7617 H   0  0  0  0  0  0  0  0  0  0  0  0
  147.6130  138.1213  151.8288 H   0  0  0  0  0  0  0  0  0  0  0  0
  146.1156  137.3804  153.7233 H   0  0  0  0  0  0  0  0  0  0  0  0
  144.7694  137.2376  152.6300 H   0  0  0  0  0  0  0  0  0  0  0  0
  146.4258  135.2604  154.4410 H   0  0  0  0  0  0  0  0  0  0  0  0
  144.9518  134.7298  153.6683 H   0  0  0  0  0  0  0  0  0  0  0  0
  147.7607  133.5711  153.2826 H   0  0  0  0  0  0  0  0  0  0  0  0
  146.4327  132.7969  154.1145 H   0  0  0  0  0  0  0  0  0  0  0  0
  145.1339  132.6592  152.0268 H   0  0  0  0  0  0  0  0  0  0  0  0
  147.4893  131.5174  150.9209 H   0  0  0  0  0  0  0  0  0  0  0  0
  148.0954  129.6885  151.2341 H   0  0  0  0  0  0  0  0  0  0  0  0
  149.5675  127.5345  151.5866 H   0  0  0  0  0  0  0  0  0  0  0  0
  146.7701  122.9797  155.5756 H   0  0  0  0  0  0  0  0  0  0  0  0
  145.7888  124.0748  154.6270 H   0  0  0  0  0  0  0  0  0  0  0  0
  146.6962  124.6828  156.0079 H   0  0  0  0  0  0  0  0  0  0  0  0
  149.2568  124.7055  155.9639 H   0  0  0  0  0  0  0  0  0  0  0  0
  150.1268  124.1140  154.5518 H   0  0  0  0  0  0  0  0  0  0  0  0
  149.1988  123.0015  155.5331 H   0  0  0  0  0  0  0  0  0  0  0  0
  147.9544  122.2635  153.3925 H   0  0  0  0  0  0  0  0  0  0  0  0
  148.8064  123.4555  152.4179 H   0  0  0  0  0  0  0  0  0  0  0  0
  147.0473  123.4392  152.4481 H   0  0  0  0  0  0  0  0  0  0  0  0
  145.9291  128.3020  153.8201 H   0  0  0  0  0  0  0  0  0  0  0  0
  147.5663  133.9578  150.7001 H   0  0  0  0  0  0  0  0  0  0  0  0
  146.1308  133.4322  149.8648 H   0  0  0  0  0  0  0  0  0  0  0  0
  146.2503  135.8724  150.2898 H   0  0  0  0  0  0  0  0  0  0  0  0
  144.0524  134.7635  149.9216 H   0  0  0  0  0  0  0  0  0  0  0  0
  143.8923  136.1987  150.9071 H   0  0  0  0  0  0  0  0  0  0  0  0
  143.8184  134.6054  151.6532 H   0  0  0  0  0  0  0  0  0  0  0  0
  147.3021  135.8178  152.3277 H   0  0  0  0  0  0  0  0  0  0  0  0
  1  2  1  0  0  0  0
  1 24  1  0  0  0  0
  1 25  1  0  0  0  0
  1 26  1  0  0  0  0
  2  3  1  0  0  0  0
  2 27  1  0  0  0  0
  2 28  1  0  0  0  0
  3 22  1  0  0  0  0
  3  4  1  0  0  0  0
  3 53  1  0  0  0  0
  4  5  1  0  0  0  0
  4 29  1  0  0  0  0
  4 30  1  0  0  0  0
  5  6  1  0  0  0  0
  5 31  1  0  0  0  0
  5 32  1  0  0  0  0
  6  7  1  0  0  0  0
  6 21  1  0  0  0  0
  6 33  1  0  0  0  0
  7  8  1  0  0  0  0
  7 34  1  0  0  0  0
  8  9  2  0  0  0  0
  8 10  1  0  0  0  0
 10 11  1  0  0  0  0
 10 35  1  0  0  0  0
 11 20  1  0  0  0  0
 11 12  2  0  0  0  0
 12 13  1  0  0  0  0
 12 36  1  0  0  0  0
 13 14  2  0  0  0  0
 14 15  1  0  0  0  0
 14 19  1  0  0  0  0
 15 16  1  0  0  0  0
 15 17  1  0  0  0  0
 15 18  1  0  0  0  0
 16 37  1  0  0  0  0
 16 38  1  0  0  0  0
 16 39  1  0  0  0  0
 17 40  1  0  0  0  0
 17 41  1  0  0  0  0
 17 42  1  0  0  0  0
 18 43  1  0  0  0  0
 18 44  1  0  0  0  0
 18 45  1  0  0  0  0
 19 20  2  0  0  0  0
 20 46  1  0  0  0  0
 21 22  1  0  0  0  0
 21 47  1  0  0  0  0
 21 48  1  0  0  0  0
 22 23  1  0  0  0  0
 22 49  1  0  0  0  0
 23 50  1  0  0  0  0
 23 51  1  0  0  0  0
 23 52  1  0  0  0  0
M  CHG  1   3   1
M  END
> <s_m_source_file>
AV-unprocessed.smi

> <i_m_source_file_index>
2710

> <i_lp_mmshare_version>
43012

> <i_f3d_flags>
0

> <s_epik_input>
W0NIM11bQ0gyXU4xW0NIMl1bQ0gyXVtDQEhdKFtDSDJdW0NASF0xW0NIM10pW05IXUMoPU8pW05IXWMyW2NIXW5jKEMoW0NIM10pKFtDSDNdKVtDSDNdKW5bY0hdMg==

> <s_epik_cmdline>
J2VwaWtfcHl0aG9uJywgJy1waCcsICc3LjAnLCAnLXRuJywgJzgnLCAnLW1hJywgJzIwMCcsICctbWV0YWxfYmluZGluZycsICctaW1hZScsICc8aW5maWxlLm1hZT4nLCAnLW9tYWUnLCAnPG91dGZpbGUubWFlPic=

> <r_lp_tautomer_probability>
1

> <r_epik_Ionization_Penalty>
0.00396003

> <r_epik_Ionization_Penalty_Charging>
0.0039379

> <r_epik_Ionization_Penalty_Neutral>
2.21316e-05

> <r_epik_State_Penalty>
0.00281651

> <r_epik_Charging_Adjusted_Penalty>
0.00675441

> <i_epik_Tot_Q>
1

> <i_epik_Tot_abs_Q>
1

> <r_epik_Metal_State_Penalty>
-0

> <b_epik_Metal_Only>
0

> <s_lp_Force_Field>
OPLS_2005

> <r_lp_Energy>
21.0802

> <b_lp_Chiralities_Consistent>
1

> <s_lp_Variant>
AV-unprocessed.smi:2710-4

> <Gold.Version>
5.8.1

> <Gold.Id.Protein>
6NUR|6NUR_protein|mol2

> <Gold.PLP.Fitness>
44.7854

> <Gold.PLP.PLP>
-30.4098

> <Gold.PLP.part.hbond>
-3.7678

> <Gold.PLP.part.metal>
0.0000

> <Gold.PLP.part.buried>
-3.5105

> <Gold.PLP.part.nonpolar>
-23.5643

> <Gold.PLP.part.repulsive>
0.3164

> <Gold.PLP.ligand.clash>
0.0000

> <Gold.PLP.ligand.torsion>
0.2694

> <Gold.PLP.Chemscore.Hbond>
3.9120

> <Gold.PLP.Chemscore.CHOScore>
1.0000

> <Gold.PLP.Chemscore.Metal>
0.0000

> <Gold.Chemscore.Hbonds>
donor molecule, donor type, donor heavy atom, donor atom, acceptor molecule, acceptor atom, score
      L1  H     3    53       P1  7948  2.00
      L1  H     7    34       P1 10747  0.91
      L1  H    10    35       P1 10747  1.00
      L1  C    12    36       P1 10737  1.00

> <Gold.PLP.Chemscore.Internal.Correction>
0.1784

> <Gold.Rescore>
     Score         DG    S(hbond)    S(metal)    S(lipo)     H(rot)  DE(clash)    DE(int)     intcor
     17.31     -18.95       2.67        0.00      67.50       1.31       0.03       1.61       ----

> <Gold.Chemscore.Fitness>
17.3083

> <Gold.Chemscore.DG>
-18.9474

> <Gold.Chemscore.ZeroCoef>
-5.4800

> <Gold.Chemscore.Hbond>
2.6704

> <Gold.Chemscore.Metal>
0.0000

> <Gold.Chemscore.Lipo>
67.4955

> <Gold.Chemscore.Internal_Hbond>
0.0000

> <Gold.Chemscore.DEClash>
0.0255

> <Gold.Chemscore.DEInternal>
1.6137

> <Gold.Chemscore.Rot>
1.3081

> <Gold.Chemscore.Internal.Correction>
   9.000000E+99

> <Gold.Chemscore.Hbonds>
donor molecule, donor type, donor heavy atom, donor atom, acceptor molecule, acceptor atom, score
      L1  H     3    53       P1  7948  1.00
      L1  H     7    34       P1 10747  0.90
      L1  H    10    35       P1 10747  0.74

> <Gold.Chemscore.Hbond.Weighted>
-8.9193

> <Gold.Chemscore.Metal.Weighted>
-0.0000

> <Gold.Chemscore.Lipo.Weighted>
-7.8970

> <Gold.Chemscore.Internal_Hbond.Weighted>
0.0000

> <Gold.Chemscore.DEClash.Weighted>
0.0255

> <Gold.Chemscore.DEInternal.Weighted>
1.6137

> <Gold.Chemscore.Rot.Weighted>
3.3488

> <Gold.Chemscore.Internal.Correction.Weighted>
   9.000000E+99

> <Gold.Protein.RotatedTorsions>
[ 6907 6896 6895 6894 ] final  -58.63 input  -60.11 | X-H torsion
[ 7974 7965 7964 7962 ] final  -95.53 input  175.53 | X-H torsion
[ 8008 7997 7996 7995 ] final  114.02 input   59.86 | X-H torsion
[ 10167 10162 10161 10158 ] final   58.83 input  -65.29 | X-H torsion
[ 10718 10713 10712 10709 ] final   19.47 input   66.30 | X-H torsion
[ 10763 10752 10751 10750 ] final   75.12 input  -60.55 | X-H torsion
[ 11005 11000 10999 10996 ] final  133.98 input  -57.11 | X-H torsion

> <Gold.Protein.ActiveResidues>
 VAL166  LYS551  ARG553  GLY616  TRP617  ASP618  TYR619  PRO620  LYS621  CYS622 
 ASP623  PHE694  ASN695  SER759  ASP760  ASP761  ALA762  ILE779  LEU786  VAL792 
 PHE793  MET794  SER795  GLU796  ALA797  LYS798  CYS799  TRP800  GLU811  SER814 

> <Gold.Protein.RotatedAtoms>
  150.7992  134.7073  159.6583 H   0  0  0  0  0  0  0  0  0  0  0  0  # atno 6907 bound_to 6896
  152.4107  134.6126  160.0039 H   0  0  0  0  0  0  0  0  0  0  0  0  # atno 6908 bound_to 6896
  151.6370  133.3291  159.3157 H   0  0  0  0  0  0  0  0  0  0  0  0  # atno 6909 bound_to 6896
  145.3588  140.9488  143.2512 H   0  0  0  0  0  0  0  0  0  0  0  0  # atno 7974 bound_to 7965
  156.2295  140.2967  156.0152 H   0  0  0  0  0  0  0  0  0  0  0  0  # atno 8008 bound_to 7997
  155.2264  140.0417  157.2973 H   0  0  0  0  0  0  0  0  0  0  0  0  # atno 8009 bound_to 7997
  154.5972  140.2417  155.7849 H   0  0  0  0  0  0  0  0  0  0  0  0  # atno 8010 bound_to 7997
  140.1830  144.4163  150.6606 H   0  0  0  0  0  0  0  0  0  0  0  0  # atno 10167 bound_to 10162
  157.1109  130.6508  149.5897 H   0  0  0  0  0  0  0  0  0  0  0  0  # atno 10718 bound_to 10713
  153.0633  135.5000  154.8143 H   0  0  0  0  0  0  0  0  0  0  0  0  # atno 10763 bound_to 10752
  154.6916  135.2985  154.9474 H   0  0  0  0  0  0  0  0  0  0  0  0  # atno 10764 bound_to 10752
  154.0227  135.6740  153.4826 H   0  0  0  0  0  0  0  0  0  0  0  0  # atno 10765 bound_to 10752
  139.9886  134.9523  156.9802 H   0  0  0  0  0  0  0  0  0  0  0  0  # atno 11005 bound_to 11000
  144.8662  139.5104  143.6789 LP  0  0  0  0  0  0  0  0  0  0  0  0  # atno 17320 bound_to 7965
  146.2936  139.7212  142.9143 LP  0  0  0  0  0  0  0  0  0  0  0  0  # atno 17321 bound_to 7965
  140.6507  143.2224  151.6084 LP  0  0  0  0  0  0  0  0  0  0  0  0  # atno 17342 bound_to 10162
  139.5288  144.2978  152.1099 LP  0  0  0  0  0  0  0  0  0  0  0  0  # atno 17343 bound_to 10162
  155.9850  130.4879  150.7013 LP  0  0  0  0  0  0  0  0  0  0  0  0  # atno 17370 bound_to 10713
  157.4560  131.0878  151.0796 LP  0  0  0  0  0  0  0  0  0  0  0  0  # atno 17371 bound_to 10713
  140.4953  134.1151  155.7240 LP  0  0  0  0  0  0  0  0  0  0  0  0  # atno 17394 bound_to 11000
  141.1546  133.8906  157.2010 LP  0  0  0  0  0  0  0  0  0  0  0  0  # atno 17395 bound_to 11000

$$$$
