AV-unprocessed.smi:814|AV-procd|sdf|3824|dock6
  -GOLD-   22720 1263D 1   1.00000     0.00000
 Structure written by MMmdl.
 36 37  0  0  0  0  0  0  0  0  1 V2000
  147.3618  138.5096  153.7705 C   0  0  0  0  0  0  0  0  0  0  0  0
  147.7675  139.8829  154.0012 N   0  0  0  0  0  0  0  0  0  0  0  0
  146.9515  141.0024  153.9060 C   0  0  0  0  0  0  0  0  0  0  0  0
  147.7400  142.0901  154.1947 C   0  0  0  0  0  0  0  0  0  0  0  0
  149.0349  141.6623  154.4680 N   0  0  0  0  0  0  0  0  0  0  0  0
  148.9872  140.3390  154.3466 C   0  0  0  0  0  0  0  0  0  0  0  0
  150.1702  139.4424  154.5377 C   0  0  0  0  0  0  0  0  0  0  0  0
  150.3416  138.9986  155.9998 C   0  0  0  0  0  0  0  0  0  0  0  0
  150.5309  140.1409  156.8860 N   0  0  0  0  0  0  0  0  0  0  0  0
  151.6542  140.3999  157.5734 C   0  0  0  0  0  0  0  0  0  0  0  0
  152.6599  139.6915  157.5110 O   0  0  0  0  0  0  0  0  0  0  0  0
  151.6403  141.6450  158.4701 C   0  0  1  0  0  0  0  0  0  0  0  0
  152.9839  141.8062  159.2184 C   0  0  0  0  0  0  0  0  0  0  0  0
  153.1035  143.1571  159.9011 C   0  0  0  0  0  0  0  0  0  0  0  0
  152.3084  144.2024  159.6160 C   0  0  0  0  0  0  0  0  0  0  0  0
  151.2029  144.1527  158.5764 C   0  0  0  0  0  0  0  0  0  0  0  0
  151.3161  142.9178  157.6624 C   0  0  0  0  0  0  0  0  0  0  0  0
  146.3547  138.4801  153.3543 H   0  0  0  0  0  0  0  0  0  0  0  0
  147.3719  137.9601  154.7118 H   0  0  0  0  0  0  0  0  0  0  0  0
  148.0452  138.0315  153.0683 H   0  0  0  0  0  0  0  0  0  0  0  0
  145.9056  140.9351  153.6451 H   0  0  0  0  0  0  0  0  0  0  0  0
  147.4782  143.1374  154.2257 H   0  0  0  0  0  0  0  0  0  0  0  0
  150.0452  138.5668  153.8996 H   0  0  0  0  0  0  0  0  0  0  0  0
  151.0673  139.9491  154.1806 H   0  0  0  0  0  0  0  0  0  0  0  0
  149.4800  138.4141  156.3267 H   0  0  0  0  0  0  0  0  0  0  0  0
  151.2105  138.3464  156.0912 H   0  0  0  0  0  0  0  0  0  0  0  0
  149.7516  140.7746  156.9897 H   0  0  0  0  0  0  0  0  0  0  0  0
  150.8522  141.5197  159.2154 H   0  0  0  0  0  0  0  0  0  0  0  0
  153.0797  141.0257  159.9742 H   0  0  0  0  0  0  0  0  0  0  0  0
  153.8323  141.6981  158.5412 H   0  0  0  0  0  0  0  0  0  0  0  0
  153.8840  143.2620  160.6404 H   0  0  0  0  0  0  0  0  0  0  0  0
  152.4364  145.1345  160.1468 H   0  0  0  0  0  0  0  0  0  0  0  0
  150.2472  144.1473  159.1013 H   0  0  0  0  0  0  0  0  0  0  0  0
  151.2312  145.0624  157.9762 H   0  0  0  0  0  0  0  0  0  0  0  0
  152.1024  143.0914  156.9257 H   0  0  0  0  0  0  0  0  0  0  0  0
  150.3900  142.7934  157.0993 H   0  0  0  0  0  0  0  0  0  0  0  0
  1  2  1  0  0  0  0
  1 18  1  0  0  0  0
  1 19  1  0  0  0  0
  1 20  1  0  0  0  0
  2  6  1  0  0  0  0
  2  3  1  0  0  0  0
  3  4  2  0  0  0  0
  3 21  1  0  0  0  0
  4  5  1  0  0  0  0
  4 22  1  0  0  0  0
  5  6  2  0  0  0  0
  6  7  1  0  0  0  0
  7  8  1  0  0  0  0
  7 23  1  0  0  0  0
  7 24  1  0  0  0  0
  8  9  1  0  0  0  0
  8 25  1  0  0  0  0
  8 26  1  0  0  0  0
  9 10  1  0  0  0  0
  9 27  1  0  0  0  0
 10 11  2  0  0  0  0
 10 12  1  0  0  0  0
 12 17  1  0  0  0  0
 12 13  1  0  0  0  0
 12 28  1  0  0  0  0
 13 14  1  0  0  0  0
 13 29  1  0  0  0  0
 13 30  1  0  0  0  0
 14 15  2  0  0  0  0
 14 31  1  0  0  0  0
 15 16  1  0  0  0  0
 15 32  1  0  0  0  0
 16 17  1  0  0  0  0
 16 33  1  0  0  0  0
 16 34  1  0  0  0  0
 17 35  1  0  0  0  0
 17 36  1  0  0  0  0
M  END
> <s_m_source_file>
AV-unprocessed.smi

> <i_m_source_file_index>
814

> <i_lp_mmshare_version>
43012

> <i_f3d_flags>
0

> <s_epik_input>
W0NIM11uMVtjSF1bY0hdbmMxW0NIMl1bQ0gyXVtOSF1DKD1PKVtDQEBIXTJbQ0gyXVtDSF09W0NIXVtDSDJdW0NIMl0y

> <s_epik_cmdline>
J2VwaWtfcHl0aG9uJywgJy1waCcsICc3LjAnLCAnLXRuJywgJzgnLCAnLW1hJywgJzIwMCcsICctbWV0YWxfYmluZGluZycsICctaW1hZScsICc8aW5maWxlLm1hZT4nLCAnLW9tYWUnLCAnPG91dGZpbGUubWFlPic=

> <r_lp_tautomer_probability>
1

> <r_epik_Ionization_Penalty>
1.21249

> <r_epik_Ionization_Penalty_Charging>
1.21249

> <r_epik_Ionization_Penalty_Neutral>
1.60917e-08

> <r_epik_State_Penalty>
1.27906

> <r_epik_Charging_Adjusted_Penalty>
2.49154

> <i_epik_Tot_Q>
0

> <i_epik_Tot_abs_Q>
0

> <r_epik_Metal_State_Penalty>
0.409603

> <b_epik_Metal_Only>
0

> <s_lp_Force_Field>
OPLS_2005

> <r_lp_Energy>
6.01065

> <b_lp_Chiralities_Consistent>
1

> <s_lp_Variant>
AV-unprocessed.smi:814-4

> <Gold.Version>
5.8.1

> <Gold.Id.Protein>
6NUR|6NUR_protein|mol2

> <Gold.PLP.Fitness>
44.1641

> <Gold.PLP.PLP>
-36.2438

> <Gold.PLP.part.hbond>
-2.0000

> <Gold.PLP.part.metal>
0.0000

> <Gold.PLP.part.buried>
-2.4493

> <Gold.PLP.part.nonpolar>
-32.8868

> <Gold.PLP.part.repulsive>
0.2198

> <Gold.PLP.ligand.clash>
0.0000

> <Gold.PLP.ligand.torsion>
0.3946

> <Gold.PLP.Chemscore.Hbond>
1.1161

> <Gold.PLP.Chemscore.CHOScore>
1.7791

> <Gold.PLP.Chemscore.Metal>
0.0000

> <Gold.Chemscore.Hbonds>
donor molecule, donor type, donor heavy atom, donor atom, acceptor molecule, acceptor atom, score
      P1  H  7997  8008       L1    11  1.00
      P1  H  8011  8017       L1     5  0.03
      L1  C     3    21       P1 10175  0.96
      L1  C     4    22       P1  8028  0.81

> <Gold.PLP.Chemscore.Internal.Correction>
0.0240

> <Gold.Rescore>
     Score         DG    S(hbond)    S(metal)    S(lipo)     H(rot)  DE(clash)    DE(int)     intcor
     15.87     -16.27       0.99        0.00      98.68       1.58       0.01       0.38       ----

> <Gold.Chemscore.Fitness>
15.8732

> <Gold.Chemscore.DG>
-16.2711

> <Gold.Chemscore.ZeroCoef>
-5.4800

> <Gold.Chemscore.Hbond>
0.9857

> <Gold.Chemscore.Metal>
0.0000

> <Gold.Chemscore.Lipo>
98.6837

> <Gold.Chemscore.Internal_Hbond>
0.0000

> <Gold.Chemscore.DEClash>
0.0129

> <Gold.Chemscore.DEInternal>
0.3850

> <Gold.Chemscore.Rot>
1.5809

> <Gold.Chemscore.Internal.Correction>
   9.000000E+99

> <Gold.Chemscore.Hbonds>
donor molecule, donor type, donor heavy atom, donor atom, acceptor molecule, acceptor atom, score
      P1  H  7997  8008       L1    11  0.95

> <Gold.Chemscore.Hbond.Weighted>
-3.2923

> <Gold.Chemscore.Metal.Weighted>
-0.0000

> <Gold.Chemscore.Lipo.Weighted>
-11.5460

> <Gold.Chemscore.Internal_Hbond.Weighted>
0.0000

> <Gold.Chemscore.DEClash.Weighted>
0.0129

> <Gold.Chemscore.DEInternal.Weighted>
0.3850

> <Gold.Chemscore.Rot.Weighted>
4.0472

> <Gold.Chemscore.Internal.Correction.Weighted>
   9.000000E+99

> <Gold.Protein.RotatedTorsions>
[ 6907 6896 6895 6894 ] final  -80.44 input  -60.11 | X-H torsion
[ 7974 7965 7964 7962 ] final -125.48 input  175.53 | X-H torsion
[ 8008 7997 7996 7995 ] final  -81.99 input   59.86 | X-H torsion
[ 10167 10162 10161 10158 ] final   68.72 input  -65.29 | X-H torsion
[ 10718 10713 10712 10709 ] final -145.78 input   66.30 | X-H torsion
[ 10763 10752 10751 10750 ] final    5.17 input  -60.55 | X-H torsion
[ 11005 11000 10999 10996 ] final  136.51 input  -57.11 | X-H torsion

> <Gold.Protein.ActiveResidues>
 VAL166  LYS551  ARG553  GLY616  TRP617  ASP618  TYR619  PRO620  LYS621  CYS622 
 ASP623  PHE694  ASN695  SER759  ASP760  ASP761  ALA762  ILE779  LEU786  VAL792 
 PHE793  MET794  SER795  GLU796  ALA797  LYS798  CYS799  TRP800  GLU811  SER814 

> <Gold.Protein.RotatedAtoms>
  150.6929  134.3969  159.5101 H   0  0  0  0  0  0  0  0  0  0  0  0  # atno 6907 bound_to 6896
  152.1749  134.8800  160.0540 H   0  0  0  0  0  0  0  0  0  0  0  0  # atno 6908 bound_to 6896
  151.9813  133.3724  159.4145 H   0  0  0  0  0  0  0  0  0  0  0  0  # atno 6909 bound_to 6896
  144.9971  140.7786  143.4518 H   0  0  0  0  0  0  0  0  0  0  0  0  # atno 7974 bound_to 7965
  154.6040  140.0639  156.9406 H   0  0  0  0  0  0  0  0  0  0  0  0  # atno 8008 bound_to 7997
  155.2084  140.3320  155.4314 H   0  0  0  0  0  0  0  0  0  0  0  0  # atno 8009 bound_to 7997
  156.2336  140.1852  156.7162 H   0  0  0  0  0  0  0  0  0  0  0  0  # atno 8010 bound_to 7997
  140.0756  144.5115  150.7197 H   0  0  0  0  0  0  0  0  0  0  0  0  # atno 10167 bound_to 10162
  156.3867  130.7864  151.2062 H   0  0  0  0  0  0  0  0  0  0  0  0  # atno 10718 bound_to 10713
  153.2626  135.6924  153.7563 H   0  0  0  0  0  0  0  0  0  0  0  0  # atno 10763 bound_to 10752
  153.6616  135.3359  155.3129 H   0  0  0  0  0  0  0  0  0  0  0  0  # atno 10764 bound_to 10752
  154.8435  135.4478  154.1621 H   0  0  0  0  0  0  0  0  0  0  0  0  # atno 10765 bound_to 10752
  140.0051  134.9462  157.0157 H   0  0  0  0  0  0  0  0  0  0  0  0  # atno 11005 bound_to 11000
  145.2204  139.2162  143.5096 LP  0  0  0  0  0  0  0  0  0  0  0  0  # atno 17320 bound_to 7965
  146.3444  140.2061  142.8589 LP  0  0  0  0  0  0  0  0  0  0  0  0  # atno 17321 bound_to 7965
  140.7104  143.2500  151.4600 LP  0  0  0  0  0  0  0  0  0  0  0  0  # atno 17342 bound_to 10162
  139.5810  144.1710  152.1968 LP  0  0  0  0  0  0  0  0  0  0  0  0  # atno 17343 bound_to 10162
  157.7496  131.0328  150.4242 LP  0  0  0  0  0  0  0  0  0  0  0  0  # atno 17370 bound_to 10713
  156.4496  130.4009  149.6644 LP  0  0  0  0  0  0  0  0  0  0  0  0  # atno 17371 bound_to 10713
  140.4656  134.1439  155.7196 LP  0  0  0  0  0  0  0  0  0  0  0  0  # atno 17394 bound_to 11000
  141.1671  133.8682  157.1683 LP  0  0  0  0  0  0  0  0  0  0  0  0  # atno 17395 bound_to 11000

$$$$
