AV-unprocessed.smi:2424|AV-procd|sdf|9572|dock1
  -GOLD-   2272013203D 1   1.00000     0.00000
 Structure written by MMmdl.
 49 50  0  0  0  0  0  0  0  0  2 V2000
  150.8949  138.7410  158.4933 C   0  0  0  0  0  0  0  0  0  0  0  0
  149.7844  138.1572  157.6028 C   0  0  0  0  0  0  0  0  0  0  0  0
  149.9185  138.3789  156.0763 C   0  0  0  0  0  0  0  0  0  0  0  0
  151.2479  137.7006  155.6358 C   0  0  0  0  0  0  0  0  0  0  0  0
  151.7858  138.0851  154.2441 C   0  0  0  0  0  0  0  0  0  0  0  0
  148.6714  138.0439  155.2017 C   0  0  2  0  0  0  0  0  0  0  0  0
  148.7479  136.7814  154.4739 N   0  0  0  0  0  0  0  0  0  0  0  0
  149.0665  135.6046  155.0289 C   0  0  0  0  0  0  0  0  0  0  0  0
  149.3205  135.4721  156.2257 O   0  0  0  0  0  0  0  0  0  0  0  0
  149.0710  134.6273  154.1054 N   0  0  0  0  0  0  0  0  0  0  0  0
  149.3560  133.2659  154.2713 C   0  0  0  0  0  0  0  0  0  0  0  0
  148.6798  132.3188  153.5295 C   0  0  0  0  0  0  0  0  0  0  0  0
  148.8112  130.9747  153.5487 N   0  5  0  0  0  0  0  0  0  0  0  0
  149.7251  130.4307  154.4026 C   0  0  0  0  0  0  0  0  0  0  0  0
  149.8991  129.2149  154.4759 O   0  0  0  0  0  0  0  0  0  0  0  0
  150.5240  131.3309  155.2586 C   0  0  0  0  0  0  0  0  0  0  0  0
  151.5429  130.7216  156.2069 C   0  0  0  0  0  0  0  0  0  0  0  0
  150.3348  132.6721  155.1821 C   0  0  0  0  0  0  0  0  0  0  0  0
  148.9808  139.2531  154.3132 C   0  0  1  0  0  0  0  0  0  0  0  0
  147.8202  140.0015  153.6702 C   0  0  0  0  0  0  0  0  0  0  0  0
  149.6703  139.8263  155.5621 C   0  0  2  0  0  0  0  0  0  0  0  0
  150.8619  140.5496  155.2968 O   0  0  0  0  0  0  0  0  0  0  0  0
  151.6077  140.8574  156.4612 C   0  0  0  0  0  0  0  0  0  0  0  0
  150.7412  138.4433  159.5306 H   0  0  0  0  0  0  0  0  0  0  0  0
  150.8956  139.8307  158.4764 H   0  0  0  0  0  0  0  0  0  0  0  0
  151.8847  138.3918  158.2020 H   0  0  0  0  0  0  0  0  0  0  0  0
  149.7428  137.0874  157.8086 H   0  0  0  0  0  0  0  0  0  0  0  0
  148.8361  138.5641  157.9567 H   0  0  0  0  0  0  0  0  0  0  0  0
  152.0317  137.9197  156.3616 H   0  0  0  0  0  0  0  0  0  0  0  0
  151.1432  136.6161  155.6561 H   0  0  0  0  0  0  0  0  0  0  0  0
  152.6708  137.4944  154.0070 H   0  0  0  0  0  0  0  0  0  0  0  0
  152.0843  139.1321  154.1980 H   0  0  0  0  0  0  0  0  0  0  0  0
  151.0599  137.9086  153.4524 H   0  0  0  0  0  0  0  0  0  0  0  0
  147.7153  138.1900  155.7061 H   0  0  0  0  0  0  0  0  0  0  0  0
  148.5534  136.8075  153.4838 H   0  0  0  0  0  0  0  0  0  0  0  0
  148.8420  134.8994  153.1606 H   0  0  0  0  0  0  0  0  0  0  0  0
  147.9181  132.6976  152.8143 H   0  0  0  0  0  0  0  0  0  0  0  0
  152.0668  131.4902  156.7761 H   0  0  0  0  0  0  0  0  0  0  0  0
  152.2860  130.1490  155.6511 H   0  0  0  0  0  0  0  0  0  0  0  0
  151.0519  130.0536  156.9152 H   0  0  0  0  0  0  0  0  0  0  0  0
  150.9365  133.2969  155.8219 H   0  0  0  0  0  0  0  0  0  0  0  0
  149.7307  138.9923  153.5641 H   0  0  0  0  0  0  0  0  0  0  0  0
  147.1086  140.3524  154.4179 H   0  0  0  0  0  0  0  0  0  0  0  0
  147.2776  139.3594  152.9763 H   0  0  0  0  0  0  0  0  0  0  0  0
  148.1651  140.8695  153.1094 H   0  0  0  0  0  0  0  0  0  0  0  0
  148.9806  140.3833  156.1987 H   0  0  0  0  0  0  0  0  0  0  0  0
  152.5334  141.3580  156.1774 H   0  0  0  0  0  0  0  0  0  0  0  0
  151.8703  139.9546  157.0140 H   0  0  0  0  0  0  0  0  0  0  0  0
  151.0574  141.5270  157.1211 H   0  0  0  0  0  0  0  0  0  0  0  0
  1  2  1  0  0  0  0
  1 24  1  0  0  0  0
  1 25  1  0  0  0  0
  1 26  1  0  0  0  0
  2  3  1  0  0  0  0
  2 27  1  0  0  0  0
  2 28  1  0  0  0  0
  3 21  1  0  0  0  0
  3  4  1  0  0  0  0
  3  6  1  0  0  0  0
  4  5  1  0  0  0  0
  4 29  1  0  0  0  0
  4 30  1  0  0  0  0
  5 31  1  0  0  0  0
  5 32  1  0  0  0  0
  5 33  1  0  0  0  0
  6  7  1  0  0  0  0
  6 19  1  0  0  0  0
  6 34  1  0  0  0  0
  7  8  1  0  0  0  0
  7 35  1  0  0  0  0
  8  9  2  0  0  0  0
  8 10  1  0  0  0  0
 10 11  1  0  0  0  0
 10 36  1  0  0  0  0
 11 18  1  0  0  0  0
 11 12  2  0  0  0  0
 12 13  1  0  0  0  0
 12 37  1  0  0  0  0
 13 14  1  0  0  0  0
 14 15  2  0  0  0  0
 14 16  1  0  0  0  0
 16 17  1  0  0  0  0
 16 18  2  0  0  0  0
 17 38  1  0  0  0  0
 17 39  1  0  0  0  0
 17 40  1  0  0  0  0
 18 41  1  0  0  0  0
 19 20  1  0  0  0  0
 19 21  1  0  0  0  0
 19 42  1  0  0  0  0
 20 43  1  0  0  0  0
 20 44  1  0  0  0  0
 20 45  1  0  0  0  0
 21 22  1  0  0  0  0
 21 46  1  0  0  0  0
 22 23  1  0  0  0  0
 23 47  1  0  0  0  0
 23 48  1  0  0  0  0
 23 49  1  0  0  0  0
M  CHG  1  13  -1
M  END
> <s_m_source_file>
AV-unprocessed.smi

> <i_m_source_file_index>
2424

> <i_lp_mmshare_version>
43012

> <i_f3d_flags>
0

> <s_epik_input>
W0NIM11PW0NAQEhdMVtDQEhdKFtDSDNdKVtDQEBIXShDMShbQ0gyXVtDSDNdKVtDSDJdW0NIM10pW05IXUMoPU8pW05IXWMyW2NIXVtuSF1jKD1PKWMoW0NIM10pW2NIXTI=

> <s_epik_cmdline>
J2VwaWtfcHl0aG9uJywgJy1waCcsICc3LjAnLCAnLXRuJywgJzgnLCAnLW1hJywgJzIwMCcsICctbWV0YWxfYmluZGluZycsICctaW1hZScsICc8aW5maWxlLm1hZT4nLCAnLW9tYWUnLCAnPG91dGZpbGUubWFlPic=

> <r_lp_tautomer_probability>
1

> <r_epik_Ionization_Penalty>
7.6122

> <r_epik_Ionization_Penalty_Charging>
1.53843

> <r_epik_Ionization_Penalty_Neutral>
6.07377

> <r_epik_State_Penalty>
6.07371

> <r_epik_Charging_Adjusted_Penalty>
7.61214

> <i_epik_Tot_Q>
-1

> <i_epik_Tot_abs_Q>
1

> <r_epik_Metal_State_Penalty>
2.02136

> <b_epik_Metal_Only>
1

> <s_lp_Force_Field>
OPLS_2005

> <r_lp_Energy>
40.6297

> <b_lp_Chiralities_Consistent>
1

> <s_lp_Variant>
AV-unprocessed.smi:2424-14

> <Gold.Version>
5.8.1

> <Gold.Id.Protein>
6NUR|6NUR_protein|mol2

> <Gold.PLP.Fitness>
39.9701

> <Gold.PLP.PLP>
-32.3992

> <Gold.PLP.part.hbond>
-3.0000

> <Gold.PLP.part.metal>
0.0000

> <Gold.PLP.part.buried>
-4.0553

> <Gold.PLP.part.nonpolar>
-24.6371

> <Gold.PLP.part.repulsive>
0.2695

> <Gold.PLP.ligand.clash>
0.0000

> <Gold.PLP.ligand.torsion>
0.8118

> <Gold.PLP.Chemscore.Hbond>
2.8640

> <Gold.PLP.Chemscore.CHOScore>
0.0000

> <Gold.PLP.Chemscore.Metal>
0.0000

> <Gold.Chemscore.Hbonds>
donor molecule, donor type, donor heavy atom, donor atom, acceptor molecule, acceptor atom, score
      L1  H     7    35       P1  7948  0.94
      L1  H    10    36       P1  7948  0.94
      P1  H  7989  7998       L1    22  0.96

> <Gold.PLP.Chemscore.Internal.Correction>
0.6025

> <Gold.Rescore>
     Score         DG    S(hbond)    S(metal)    S(lipo)     H(rot)  DE(clash)    DE(int)     intcor
     15.68     -18.47       2.61        0.00      69.71       1.52       0.03       2.76       ----

> <Gold.Chemscore.Fitness>
15.6838

> <Gold.Chemscore.DG>
-18.4704

> <Gold.Chemscore.ZeroCoef>
-5.4800

> <Gold.Chemscore.Hbond>
2.6128

> <Gold.Chemscore.Metal>
0.0000

> <Gold.Chemscore.Lipo>
69.7097

> <Gold.Chemscore.Internal_Hbond>
0.0000

> <Gold.Chemscore.DEClash>
0.0257

> <Gold.Chemscore.DEInternal>
2.7609

> <Gold.Chemscore.Rot>
1.5204

> <Gold.Chemscore.Internal.Correction>
   9.000000E+99

> <Gold.Chemscore.Hbonds>
donor molecule, donor type, donor heavy atom, donor atom, acceptor molecule, acceptor atom, score
      L1  H     7    35       P1  7948  0.91
      L1  H    10    36       P1  7948  0.23
      P1  H  7989  7998       L1    22  0.88

> <Gold.Chemscore.Hbond.Weighted>
-8.7266

> <Gold.Chemscore.Metal.Weighted>
-0.0000

> <Gold.Chemscore.Lipo.Weighted>
-8.1560

> <Gold.Chemscore.Internal_Hbond.Weighted>
0.0000

> <Gold.Chemscore.DEClash.Weighted>
0.0257

> <Gold.Chemscore.DEInternal.Weighted>
2.7609

> <Gold.Chemscore.Rot.Weighted>
3.8922

> <Gold.Chemscore.Internal.Correction.Weighted>
   9.000000E+99

> <Gold.Protein.RotatedTorsions>
[ 6907 6896 6895 6894 ] final  -74.14 input  -60.11 | X-H torsion
[ 7974 7965 7964 7962 ] final   45.60 input  175.53 | X-H torsion
[ 8008 7997 7996 7995 ] final   19.45 input   59.86 | X-H torsion
[ 10167 10162 10161 10158 ] final -148.67 input  -65.29 | X-H torsion
[ 10718 10713 10712 10709 ] final   24.46 input   66.30 | X-H torsion
[ 10763 10752 10751 10750 ] final   98.24 input  -60.55 | X-H torsion
[ 11005 11000 10999 10996 ] final  120.37 input  -57.11 | X-H torsion

> <Gold.Protein.ActiveResidues>
 VAL166  LYS551  ARG553  GLY616  TRP617  ASP618  TYR619  PRO620  LYS621  CYS622 
 ASP623  PHE694  ASN695  SER759  ASP760  ASP761  ALA762  ILE779  LEU786  VAL792 
 PHE793  MET794  SER795  GLU796  ALA797  LYS798  CYS799  TRP800  GLU811  SER814 

> <Gold.Protein.RotatedAtoms>
  150.7104  134.4913  159.5516 H   0  0  0  0  0  0  0  0  0  0  0  0  # atno 6907 bound_to 6896
  152.2530  134.8110  160.0452 H   0  0  0  0  0  0  0  0  0  0  0  0  # atno 6908 bound_to 6896
  151.8851  133.3468  159.3816 H   0  0  0  0  0  0  0  0  0  0  0  0  # atno 6909 bound_to 6896
  146.0465  139.4946  142.9745 H   0  0  0  0  0  0  0  0  0  0  0  0  # atno 7974 bound_to 7965
  154.9209  140.3027  155.5217 H   0  0  0  0  0  0  0  0  0  0  0  0  # atno 8008 bound_to 7997
  156.3010  140.2371  156.4195 H   0  0  0  0  0  0  0  0  0  0  0  0  # atno 8009 bound_to 7997
  154.8332  140.0417  157.1480 H   0  0  0  0  0  0  0  0  0  0  0  0  # atno 8010 bound_to 7997
  139.7511  143.8517  152.2586 H   0  0  0  0  0  0  0  0  0  0  0  0  # atno 10167 bound_to 10162
  157.1800  130.6798  149.6110 H   0  0  0  0  0  0  0  0  0  0  0  0  # atno 10718 bound_to 10713
  153.2866  135.4155  155.1128 H   0  0  0  0  0  0  0  0  0  0  0  0  # atno 10763 bound_to 10752
  154.8507  135.3508  154.6039 H   0  0  0  0  0  0  0  0  0  0  0  0  # atno 10764 bound_to 10752
  153.6460  135.7055  153.5283 H   0  0  0  0  0  0  0  0  0  0  0  0  # atno 10765 bound_to 10752
  139.9182  134.9634  156.7796 H   0  0  0  0  0  0  0  0  0  0  0  0  # atno 11005 bound_to 11000
  145.6797  141.0194  143.1613 LP  0  0  0  0  0  0  0  0  0  0  0  0  # atno 17320 bound_to 7965
  144.7100  139.8407  143.7417 LP  0  0  0  0  0  0  0  0  0  0  0  0  # atno 17321 bound_to 7965
  139.8495  144.7171  150.9231 LP  0  0  0  0  0  0  0  0  0  0  0  0  # atno 17342 bound_to 10162
  140.7798  143.3911  151.1308 LP  0  0  0  0  0  0  0  0  0  0  0  0  # atno 17343 bound_to 10162
  155.9725  130.4650  150.6237 LP  0  0  0  0  0  0  0  0  0  0  0  0  # atno 17370 bound_to 10713
  157.3961  131.0803  151.1350 LP  0  0  0  0  0  0  0  0  0  0  0  0  # atno 17371 bound_to 10713
  140.6555  133.9693  155.7777 LP  0  0  0  0  0  0  0  0  0  0  0  0  # atno 17394 bound_to 11000
  141.0679  134.0249  157.3568 LP  0  0  0  0  0  0  0  0  0  0  0  0  # atno 17395 bound_to 11000

$$$$
