AV-unprocessed.smi:699|AV-procd|sdf|3404|dock5
  -GOLD-   22720 0383D 1   1.00000     0.00000
 Structure written by MMmdl.
 35 36  0  0  0  0  0  0  0  0  2 V2000
  147.0555  134.6384  152.8804 N   0  0  0  0  0  0  0  0  0  0  0  0
  146.4816  133.8937  151.9321 C   0  0  0  0  0  0  0  0  0  0  0  0
  146.7366  132.6973  151.8028 O   0  0  0  0  0  0  0  0  0  0  0  0
  145.4686  134.6012  151.0056 C   0  0  1  0  0  0  0  0  0  0  0  0
  144.0643  134.0021  151.1721 C   0  0  0  0  0  0  0  0  0  0  0  0
  143.4087  134.7888  152.3100 C   0  0  0  0  0  0  0  0  0  0  0  0
  144.0457  136.1836  152.2759 C   0  0  0  0  0  0  0  0  0  0  0  0
  145.2388  136.1078  151.3035 C   0  0  1  0  0  0  0  0  0  0  0  0
  146.4038  136.8158  151.8384 N   0  0  0  0  0  0  0  0  0  0  0  0
  146.3719  138.0313  152.4029 C   0  0  0  0  0  0  0  0  0  0  0  0
  145.3387  138.6844  152.5459 O   0  0  0  0  0  0  0  0  0  0  0  0
  147.5995  138.4207  152.7883 N   0  0  0  0  0  0  0  0  0  0  0  0
  147.9960  139.6415  153.3999 C   0  0  0  0  0  0  0  0  0  0  0  0
  147.1338  140.7513  153.2561 C   0  0  0  0  0  0  0  0  0  0  0  0
  147.4747  141.9807  153.8558 C   0  0  0  0  0  0  0  0  0  0  0  0
  148.6158  142.0869  154.5694 N   0  3  0  0  0  0  0  0  0  0  0  0
  149.4648  141.0519  154.7461 C   0  0  0  0  0  0  0  0  0  0  0  0
  149.1767  139.7977  154.1706 C   0  0  0  0  0  0  0  0  0  0  0  0
  147.7306  134.2214  153.5047 H   0  0  0  0  0  0  0  0  0  0  0  0
  146.8196  135.6166  152.9655 H   0  0  0  0  0  0  0  0  0  0  0  0
  145.8052  134.4776  149.9748 H   0  0  0  0  0  0  0  0  0  0  0  0
  143.4991  134.1533  150.2515 H   0  0  0  0  0  0  0  0  0  0  0  0
  144.0719  132.9289  151.3689 H   0  0  0  0  0  0  0  0  0  0  0  0
  142.3239  134.8275  152.2061 H   0  0  0  0  0  0  0  0  0  0  0  0
  143.6252  134.3091  153.2654 H   0  0  0  0  0  0  0  0  0  0  0  0
  143.3288  136.9321  151.9372 H   0  0  0  0  0  0  0  0  0  0  0  0
  144.3559  136.4712  153.2816 H   0  0  0  0  0  0  0  0  0  0  0  0
  144.9359  136.5922  150.3731 H   0  0  0  0  0  0  0  0  0  0  0  0
  147.2946  136.3474  151.7568 H   0  0  0  0  0  0  0  0  0  0  0  0
  148.3345  137.7390  152.6688 H   0  0  0  0  0  0  0  0  0  0  0  0
  146.2191  140.6663  152.6869 H   0  0  0  0  0  0  0  0  0  0  0  0
  146.8721  142.8748  153.7882 H   0  0  0  0  0  0  0  0  0  0  0  0
  150.3414  141.2547  155.3440 H   0  0  0  0  0  0  0  0  0  0  0  0
  149.8610  138.9815  154.3430 H   0  0  0  0  0  0  0  0  0  0  0  0
  148.8441  142.9848  154.9969 H   0  0  0  0  0  0  0  0  0  0  0  0
  1  2  1  0  0  0  0
  1 19  1  0  0  0  0
  1 20  1  0  0  0  0
  2  3  2  0  0  0  0
  2  4  1  0  0  0  0
  4  8  1  0  0  0  0
  4  5  1  0  0  0  0
  4 21  1  0  0  0  0
  5  6  1  0  0  0  0
  5 22  1  0  0  0  0
  5 23  1  0  0  0  0
  6  7  1  0  0  0  0
  6 24  1  0  0  0  0
  6 25  1  0  0  0  0
  7  8  1  0  0  0  0
  7 26  1  0  0  0  0
  7 27  1  0  0  0  0
  8  9  1  0  0  0  0
  8 28  1  0  0  0  0
  9 10  1  0  0  0  0
  9 29  1  0  0  0  0
 10 11  2  0  0  0  0
 10 12  1  0  0  0  0
 12 13  1  0  0  0  0
 12 30  1  0  0  0  0
 13 18  1  0  0  0  0
 13 14  2  0  0  0  0
 14 15  1  0  0  0  0
 14 31  1  0  0  0  0
 15 16  2  0  0  0  0
 15 32  1  0  0  0  0
 16 17  1  0  0  0  0
 16 35  1  0  0  0  0
 17 18  2  0  0  0  0
 17 33  1  0  0  0  0
 18 34  1  0  0  0  0
M  CHG  1  16   1
M  END
> <s_m_source_file>
AV-unprocessed.smi

> <i_m_source_file_index>
699

> <i_lp_mmshare_version>
43012

> <i_f3d_flags>
0

> <s_epik_input>
W05IMl1DKD1PKVtDQEBIXTFbQ0gyXVtDSDJdW0NIMl1bQ0BIXTFbTkhdQyg9TylbTkhdYzJbY0hdW2NIXW5bY0hdW2NIXTI=

> <s_epik_cmdline>
J2VwaWtfcHl0aG9uJywgJy1waCcsICc3LjAnLCAnLXRuJywgJzgnLCAnLW1hJywgJzIwMCcsICctbWV0YWxfYmluZGluZycsICctaW1hZScsICc8aW5maWxlLm1hZT4nLCAnLW9tYWUnLCAnPG91dGZpbGUubWFlPic=

> <r_epik_Ionization_Penalty>
1.0332

> <r_epik_Ionization_Penalty_Charging>
1.03318

> <r_epik_Ionization_Penalty_Neutral>
1.91967e-05

> <r_epik_State_Penalty>
1.08452

> <r_epik_Charging_Adjusted_Penalty>
2.11769

> <i_epik_Tot_Q>
1

> <i_epik_Tot_abs_Q>
1

> <r_epik_Metal_State_Penalty>
1.18144

> <b_epik_Metal_Only>
0

> <s_lp_Force_Field>
OPLS_2005

> <r_lp_Energy>
24.8241

> <b_lp_Chiralities_Consistent>
1

> <s_lp_Variant>
AV-unprocessed.smi:699-6

> <Gold.Version>
5.8.1

> <Gold.Id.Protein>
6NUR|6NUR_protein|mol2

> <Gold.PLP.Fitness>
41.1247

> <Gold.PLP.PLP>
-29.6697

> <Gold.PLP.part.hbond>
-4.8941

> <Gold.PLP.part.metal>
0.0000

> <Gold.PLP.part.buried>
-2.7378

> <Gold.PLP.part.nonpolar>
-27.8716

> <Gold.PLP.part.repulsive>
4.9105

> <Gold.PLP.ligand.clash>
0.0000

> <Gold.PLP.ligand.torsion>
0.2802

> <Gold.PLP.Chemscore.Hbond>
4.0000

> <Gold.PLP.Chemscore.CHOScore>
0.0000

> <Gold.PLP.Chemscore.Metal>
0.0000

> <Gold.Chemscore.Hbonds>
donor molecule, donor type, donor heavy atom, donor atom, acceptor molecule, acceptor atom, score
      L1  H     9    29       P1  7948  1.00
      L1  H    12    30       P1  7948  0.99
      L1  H    16    35       P1  8028  2.00

> <Gold.PLP.Chemscore.Internal.Correction>
0.0155

> <Gold.Rescore>
     Score         DG    S(hbond)    S(metal)    S(lipo)     H(rot)  DE(clash)    DE(int)     intcor
     11.78     -18.05       2.95        0.00      56.12       1.50       1.55       4.72       ----

> <Gold.Chemscore.Fitness>
11.7837

> <Gold.Chemscore.DG>
-18.0527

> <Gold.Chemscore.ZeroCoef>
-5.4800

> <Gold.Chemscore.Hbond>
2.9509

> <Gold.Chemscore.Metal>
0.0000

> <Gold.Chemscore.Lipo>
56.1215

> <Gold.Chemscore.Internal_Hbond>
0.0000

> <Gold.Chemscore.DEClash>
1.5515

> <Gold.Chemscore.DEInternal>
4.7175

> <Gold.Chemscore.Rot>
1.5038

> <Gold.Chemscore.Internal.Correction>
   9.000000E+99

> <Gold.Chemscore.Hbonds>
donor molecule, donor type, donor heavy atom, donor atom, acceptor molecule, acceptor atom, score
      L1  H     9    29       P1  7948  0.98
      L1  H    12    30       P1  7948  0.94
      L1  H    16    35       P1  8028  1.00

> <Gold.Chemscore.Hbond.Weighted>
-9.8561

> <Gold.Chemscore.Metal.Weighted>
-0.0000

> <Gold.Chemscore.Lipo.Weighted>
-6.5662

> <Gold.Chemscore.Internal_Hbond.Weighted>
0.0000

> <Gold.Chemscore.DEClash.Weighted>
1.5515

> <Gold.Chemscore.DEInternal.Weighted>
4.7175

> <Gold.Chemscore.Rot.Weighted>
3.8496

> <Gold.Chemscore.Internal.Correction.Weighted>
   9.000000E+99

> <Gold.Protein.RotatedTorsions>
[ 6907 6896 6895 6894 ] final  -42.28 input  -60.11 | X-H torsion
[ 7974 7965 7964 7962 ] final   -8.07 input  175.53 | X-H torsion
[ 8008 7997 7996 7995 ] final -170.79 input   59.86 | X-H torsion
[ 10167 10162 10161 10158 ] final  -15.60 input  -65.29 | X-H torsion
[ 10718 10713 10712 10709 ] final  174.52 input   66.30 | X-H torsion
[ 10763 10752 10751 10750 ] final  -86.82 input  -60.55 | X-H torsion
[ 11005 11000 10999 10996 ] final  160.29 input  -57.11 | X-H torsion

> <Gold.Protein.ActiveResidues>
 VAL166  LYS551  ARG553  GLY616  TRP617  ASP618  TYR619  PRO620  LYS621  CYS622 
 ASP623  PHE694  ASN695  SER759  ASP760  ASP761  ALA762  ILE779  LEU786  VAL792 
 PHE793  MET794  SER795  GLU796  ALA797  LYS798  CYS799  TRP800  GLU811  SER814 

> <Gold.Protein.RotatedAtoms>
  150.9570  134.8963  159.7707 H   0  0  0  0  0  0  0  0  0  0  0  0  # atno 6907 bound_to 6896
  152.5142  134.3726  159.9333 H   0  0  0  0  0  0  0  0  0  0  0  0  # atno 6908 bound_to 6896
  151.3739  133.3804  159.2737 H   0  0  0  0  0  0  0  0  0  0  0  0  # atno 6909 bound_to 6896
  146.2290  140.2413  142.8343 H   0  0  0  0  0  0  0  0  0  0  0  0  # atno 7974 bound_to 7965
  155.9230  140.1077  157.1192 H   0  0  0  0  0  0  0  0  0  0  0  0  # atno 8008 bound_to 7997
  154.4057  140.1252  156.4769 H   0  0  0  0  0  0  0  0  0  0  0  0  # atno 8009 bound_to 7997
  155.7173  140.3470  155.5002 H   0  0  0  0  0  0  0  0  0  0  0  0  # atno 8010 bound_to 7997
  140.7221  143.5201  150.9644 H   0  0  0  0  0  0  0  0  0  0  0  0  # atno 10167 bound_to 10162
  156.9483  131.0023  151.2954 H   0  0  0  0  0  0  0  0  0  0  0  0  # atno 10718 bound_to 10713
  154.6267  135.5435  153.7635 H   0  0  0  0  0  0  0  0  0  0  0  0  # atno 10763 bound_to 10752
  153.0264  135.6426  154.1361 H   0  0  0  0  0  0  0  0  0  0  0  0  # atno 10764 bound_to 10752
  154.1293  135.2915  155.3169 H   0  0  0  0  0  0  0  0  0  0  0  0  # atno 10765 bound_to 10752
  140.2045  134.8313  157.3054 H   0  0  0  0  0  0  0  0  0  0  0  0  # atno 11005 bound_to 11000
  144.9482  140.8151  143.5588 LP  0  0  0  0  0  0  0  0  0  0  0  0  # atno 17320 bound_to 7965
  145.2371  139.2089  143.5012 LP  0  0  0  0  0  0  0  0  0  0  0  0  # atno 17321 bound_to 7965
  139.8918  143.6944  152.3144 LP  0  0  0  0  0  0  0  0  0  0  0  0  # atno 17342 bound_to 10162
  139.7262  144.7592  151.0875 LP  0  0  0  0  0  0  0  0  0  0  0  0  # atno 17343 bound_to 10162
  157.5739  130.8329  149.8429 LP  0  0  0  0  0  0  0  0  0  0  0  0  # atno 17370 bound_to 10713
  156.0374  130.3748  150.1525 LP  0  0  0  0  0  0  0  0  0  0  0  0  # atno 17371 bound_to 10713
  140.2018  134.4245  155.7659 LP  0  0  0  0  0  0  0  0  0  0  0  0  # atno 17394 bound_to 11000
  141.2227  133.7075  156.8196 LP  0  0  0  0  0  0  0  0  0  0  0  0  # atno 17395 bound_to 11000

$$$$
