AV-unprocessed.smi:1342|AV-procd|sdf|5507|dock1
  -GOLD-   22720 5 93D 1   1.00000     0.00000
 Structure written by MMmdl.
 37 37  0  0  0  0  0  0  0  0  1 V2000
  146.7692  138.9789  152.2746 C   0  0  0  0  0  0  0  0  0  0  0  0
  147.5114  139.8226  153.3200 C   0  0  0  0  0  0  0  0  0  0  0  0
  148.6239  139.0889  153.9118 N   0  0  0  0  0  0  0  0  0  0  0  0
  149.7452  139.6474  154.3915 C   0  0  0  0  0  0  0  0  0  0  0  0
  149.9422  140.8639  154.4002 O   0  0  0  0  0  0  0  0  0  0  0  0
  150.7924  138.6849  154.9651 C   0  0  0  0  0  0  0  0  0  0  0  0
  150.8199  138.7337  156.4229 N   0  0  0  0  0  0  0  0  0  0  0  0
  151.8953  139.0477  157.1643 C   0  0  0  0  0  0  0  0  0  0  0  0
  153.0218  139.2021  156.6924 O   0  0  0  0  0  0  0  0  0  0  0  0
  151.6599  139.2410  158.6653 C   0  0  0  0  0  0  0  0  0  0  0  0
  152.3316  140.4995  159.1423 C   0  0  0  0  0  0  0  0  0  0  0  0
  153.2387  140.6104  160.1670 C   0  0  0  0  0  0  0  0  0  0  0  0
  153.7247  142.2629  160.4301 S   0  0  0  0  0  0  0  0  0  0  0  0
  152.6665  142.7543  159.1124 C   0  0  0  0  0  0  0  0  0  0  0  0
  152.4823  144.1778  158.6909 C   0  0  0  0  0  0  0  0  0  0  0  0
  151.9459  145.0487  159.8370 C   0  0  0  0  0  0  0  0  0  0  0  0
  151.6529  144.2973  157.4043 C   0  0  0  0  0  0  0  0  0  0  0  0
  152.0360  141.7268  158.5379 N   0  0  0  0  0  0  0  0  0  0  0  0
  145.9209  139.5285  151.8664 H   0  0  0  0  0  0  0  0  0  0  0  0
  146.3880  138.0554  152.7113 H   0  0  0  0  0  0  0  0  0  0  0  0
  147.4208  138.7121  151.4419 H   0  0  0  0  0  0  0  0  0  0  0  0
  147.8668  140.7529  152.8745 H   0  0  0  0  0  0  0  0  0  0  0  0
  146.8256  140.1034  154.1195 H   0  0  0  0  0  0  0  0  0  0  0  0
  148.5405  138.0831  153.9485 H   0  0  0  0  0  0  0  0  0  0  0  0
  150.5382  137.6705  154.6574 H   0  0  0  0  0  0  0  0  0  0  0  0
  151.7801  138.9010  154.5533 H   0  0  0  0  0  0  0  0  0  0  0  0
  149.9347  138.6252  156.8966 H   0  0  0  0  0  0  0  0  0  0  0  0
  150.5860  139.2766  158.8521 H   0  0  0  0  0  0  0  0  0  0  0  0
  152.0425  138.3760  159.2088 H   0  0  0  0  0  0  0  0  0  0  0  0
  153.6373  139.8248  160.7916 H   0  0  0  0  0  0  0  0  0  0  0  0
  153.4761  144.5589  158.4534 H   0  0  0  0  0  0  0  0  0  0  0  0
  152.6023  145.0015  160.7064 H   0  0  0  0  0  0  0  0  0  0  0  0
  150.9545  144.7215  160.1523 H   0  0  0  0  0  0  0  0  0  0  0  0
  151.8704  146.0935  159.5353 H   0  0  0  0  0  0  0  0  0  0  0  0
  152.1063  143.7293  156.5913 H   0  0  0  0  0  0  0  0  0  0  0  0
  151.5782  145.3355  157.0803 H   0  0  0  0  0  0  0  0  0  0  0  0
  150.6396  143.9212  157.5495 H   0  0  0  0  0  0  0  0  0  0  0  0
  1  2  1  0  0  0  0
  1 19  1  0  0  0  0
  1 20  1  0  0  0  0
  1 21  1  0  0  0  0
  2  3  1  0  0  0  0
  2 22  1  0  0  0  0
  2 23  1  0  0  0  0
  3  4  1  0  0  0  0
  3 24  1  0  0  0  0
  4  5  2  0  0  0  0
  4  6  1  0  0  0  0
  6  7  1  0  0  0  0
  6 25  1  0  0  0  0
  6 26  1  0  0  0  0
  7  8  1  0  0  0  0
  7 27  1  0  0  0  0
  8  9  2  0  0  0  0
  8 10  1  0  0  0  0
 10 11  1  0  0  0  0
 10 28  1  0  0  0  0
 10 29  1  0  0  0  0
 11 18  1  0  0  0  0
 11 12  2  0  0  0  0
 12 13  1  0  0  0  0
 12 30  1  0  0  0  0
 13 14  1  0  0  0  0
 14 15  1  0  0  0  0
 14 18  2  0  0  0  0
 15 16  1  0  0  0  0
 15 17  1  0  0  0  0
 15 31  1  0  0  0  0
 16 32  1  0  0  0  0
 16 33  1  0  0  0  0
 16 34  1  0  0  0  0
 17 35  1  0  0  0  0
 17 36  1  0  0  0  0
 17 37  1  0  0  0  0
M  END
> <s_m_source_file>
AV-unprocessed.smi

> <i_m_source_file_index>
1342

> <i_lp_mmshare_version>
43012

> <i_f3d_flags>
0

> <s_epik_input>
W0NIM11bQ0gyXVtOSF1DKD1PKVtDSDJdW05IXUMoPU8pW0NIMl1jMVtjSF1zYyhuMSlbQ0hdKFtDSDNdKVtDSDNd

> <s_epik_cmdline>
J2VwaWtfcHl0aG9uJywgJy1waCcsICc3LjAnLCAnLXRuJywgJzgnLCAnLW1hJywgJzIwMCcsICctbWV0YWxfYmluZGluZycsICctaW1hZScsICc8aW5maWxlLm1hZT4nLCAnLW9tYWUnLCAnPG91dGZpbGUubWFlPic=

> <r_lp_tautomer_probability>
1

> <r_epik_Ionization_Penalty>
2.79632e-05

> <r_epik_Ionization_Penalty_Charging>
0

> <r_epik_Ionization_Penalty_Neutral>
2.79632e-05

> <r_epik_State_Penalty>
-0

> <r_epik_Charging_Adjusted_Penalty>
0

> <i_epik_Tot_Q>
0

> <i_epik_Tot_abs_Q>
0

> <r_epik_Metal_State_Penalty>
-0

> <b_epik_Metal_Only>
0

> <s_lp_Force_Field>
OPLS_2005

> <r_lp_Energy>
-9.53287

> <b_lp_Chiralities_Consistent>
1

> <s_lp_Variant>
AV-unprocessed.smi:1342-1

> <Gold.Version>
5.8.1

> <Gold.Id.Protein>
6NUR|6NUR_protein|mol2

> <Gold.PLP.Fitness>
45.3429

> <Gold.PLP.PLP>
-41.3132

> <Gold.PLP.part.hbond>
-2.7700

> <Gold.PLP.part.metal>
0.0000

> <Gold.PLP.part.buried>
-2.7050

> <Gold.PLP.part.nonpolar>
-36.0473

> <Gold.PLP.part.repulsive>
0.1894

> <Gold.PLP.ligand.clash>
0.0000

> <Gold.PLP.ligand.torsion>
0.5993

> <Gold.PLP.Chemscore.Hbond>
1.6880

> <Gold.PLP.Chemscore.CHOScore>
0.0000

> <Gold.PLP.Chemscore.Metal>
0.0000

> <Gold.Chemscore.Hbonds>
donor molecule, donor type, donor heavy atom, donor atom, acceptor molecule, acceptor atom, score
      P1  H  7989  7998       L1     5  0.62
      P1  H  7997  8010       L1     9  1.00

> <Gold.PLP.Chemscore.Internal.Correction>
0.1643

> <Gold.Rescore>
     Score         DG    S(hbond)    S(metal)    S(lipo)     H(rot)  DE(clash)    DE(int)     intcor
     18.14     -18.90       1.93        0.00     105.48       2.10       0.13       0.64       ----

> <Gold.Chemscore.Fitness>
18.1389

> <Gold.Chemscore.DG>
-18.9022

> <Gold.Chemscore.ZeroCoef>
-5.4800

> <Gold.Chemscore.Hbond>
1.9311

> <Gold.Chemscore.Metal>
0.0000

> <Gold.Chemscore.Lipo>
105.4764

> <Gold.Chemscore.Internal_Hbond>
0.0000

> <Gold.Chemscore.DEClash>
0.1274

> <Gold.Chemscore.DEInternal>
0.6359

> <Gold.Chemscore.Rot>
2.0970

> <Gold.Chemscore.Internal.Correction>
   9.000000E+99

> <Gold.Chemscore.Hbonds>
donor molecule, donor type, donor heavy atom, donor atom, acceptor molecule, acceptor atom, score
      P1  H  7989  7998       L1     5  0.14
      P1  H  7997  8010       L1     9  0.99

> <Gold.Chemscore.Hbond.Weighted>
-6.4499

> <Gold.Chemscore.Metal.Weighted>
-0.0000

> <Gold.Chemscore.Lipo.Weighted>
-12.3407

> <Gold.Chemscore.Internal_Hbond.Weighted>
0.0000

> <Gold.Chemscore.DEClash.Weighted>
0.1274

> <Gold.Chemscore.DEInternal.Weighted>
0.6359

> <Gold.Chemscore.Rot.Weighted>
5.3684

> <Gold.Chemscore.Internal.Correction.Weighted>
   9.000000E+99

> <Gold.Protein.RotatedTorsions>
[ 6907 6896 6895 6894 ] final   34.46 input  -60.11 | X-H torsion
[ 7974 7965 7964 7962 ] final  146.17 input  175.53 | X-H torsion
[ 8008 7997 7996 7995 ] final   62.19 input   59.86 | X-H torsion
[ 10167 10162 10161 10158 ] final   -4.37 input  -65.29 | X-H torsion
[ 10718 10713 10712 10709 ] final   78.91 input   66.30 | X-H torsion
[ 10763 10752 10751 10750 ] final    3.64 input  -60.55 | X-H torsion
[ 11005 11000 10999 10996 ] final  -79.87 input  -57.11 | X-H torsion

> <Gold.Protein.ActiveResidues>
 VAL166  LYS551  ARG553  GLY616  TRP617  ASP618  TYR619  PRO620  LYS621  CYS622 
 ASP623  PHE694  ASN695  SER759  ASP760  ASP761  ALA762  ILE779  LEU786  VAL792 
 PHE793  MET794  SER795  GLU796  ALA797  LYS798  CYS799  TRP800  GLU811  SER814 

> <Gold.Protein.RotatedAtoms>
  152.1026  134.9330  160.0568 H   0  0  0  0  0  0  0  0  0  0  0  0  # atno 6907 bound_to 6896
  152.0539  133.4026  159.4397 H   0  0  0  0  0  0  0  0  0  0  0  0  # atno 6908 bound_to 6896
  150.6840  134.3197  159.4825 H   0  0  0  0  0  0  0  0  0  0  0  0  # atno 6909 bound_to 6896
  144.8693  139.5872  143.5894 H   0  0  0  0  0  0  0  0  0  0  0  0  # atno 7974 bound_to 7965
  155.6104  140.3495  155.4620 H   0  0  0  0  0  0  0  0  0  0  0  0  # atno 8008 bound_to 7997
  156.0159  140.1243  157.0431 H   0  0  0  0  0  0  0  0  0  0  0  0  # atno 8009 bound_to 7997
  154.4297  140.1072  156.5880 H   0  0  0  0  0  0  0  0  0  0  0  0  # atno 8010 bound_to 7997
  140.6925  143.6432  150.8417 H   0  0  0  0  0  0  0  0  0  0  0  0  # atno 10167 bound_to 10162
  157.6760  130.9890  150.1855 H   0  0  0  0  0  0  0  0  0  0  0  0  # atno 10718 bound_to 10713
  153.2809  135.6940  153.7386 H   0  0  0  0  0  0  0  0  0  0  0  0  # atno 10763 bound_to 10752
  153.6374  135.3399  155.3061 H   0  0  0  0  0  0  0  0  0  0  0  0  # atno 10764 bound_to 10752
  154.8495  135.4423  154.1862 H   0  0  0  0  0  0  0  0  0  0  0  0  # atno 10765 bound_to 10752
  141.1668  133.7125  156.8188 H   0  0  0  0  0  0  0  0  0  0  0  0  # atno 11005 bound_to 11000
  146.2918  139.7162  142.9155 LP  0  0  0  0  0  0  0  0  0  0  0  0  # atno 17320 bound_to 7965
  145.4162  141.0402  143.2989 LP  0  0  0  0  0  0  0  0  0  0  0  0  # atno 17321 bound_to 7965
  140.0146  143.5606  152.2825 LP  0  0  0  0  0  0  0  0  0  0  0  0  # atno 17342 bound_to 10162
  139.6342  144.7648  151.2472 LP  0  0  0  0  0  0  0  0  0  0  0  0  # atno 17343 bound_to 10162
  156.2578  130.3707  149.8163 LP  0  0  0  0  0  0  0  0  0  0  0  0  # atno 17370 bound_to 10713
  156.5917  130.8509  151.3409 LP  0  0  0  0  0  0  0  0  0  0  0  0  # atno 17371 bound_to 10713
  140.2134  134.8810  157.3299 LP  0  0  0  0  0  0  0  0  0  0  0  0  # atno 17394 bound_to 11000
  140.2063  134.4193  155.7636 LP  0  0  0  0  0  0  0  0  0  0  0  0  # atno 17395 bound_to 11000

$$$$
