AV-unprocessed.smi:1434|AV-procd|sdf|5855|dock7
  -GOLD-   22720 5523D 1   1.00000     0.00000
 Structure written by MMmdl.
 44 45  0  0  0  0  0  0  0  0  3 V2000
  146.4000  135.2021  162.5292 C   0  0  0  0  0  0  0  0  0  0  0  0
  147.1999  136.4598  161.4563 S   0  0  0  0  0  0  0  0  0  0  0  0
  146.1851  137.5026  161.2355 O   0  0  0  0  0  0  0  0  0  0  0  0
  148.4310  136.8570  162.1586 O   0  0  0  0  0  0  0  0  0  0  0  0
  147.4893  135.5757  160.1275 N   0  5  0  0  0  0  0  0  0  0  0  0
  148.1213  136.1906  158.9688 C   0  0  2  0  0  0  0  0  0  0  0  0
  148.1190  135.2261  157.7526 C   0  0  0  0  0  0  0  0  0  0  0  0
  148.9992  135.7169  156.5718 C   0  0  0  0  0  0  0  0  0  0  0  0
  150.4257  136.1094  157.0180 C   0  0  0  0  0  0  0  0  0  0  0  0
  150.2923  137.0986  158.1114 N   0  0  0  0  0  0  0  0  0  0  0  0
  150.7473  138.3796  158.0794 C   0  0  0  0  0  0  0  0  0  0  0  0
  150.8134  139.1014  159.0754 O   0  0  0  0  0  0  0  0  0  0  0  0
  151.0798  138.8303  156.8585 N   0  0  0  0  0  0  0  0  0  0  0  0
  151.5476  140.1803  156.5762 C   0  0  0  0  0  0  0  0  0  0  0  0
  150.5428  141.2219  157.0859 C   0  0  0  0  0  0  0  0  0  0  0  0
  151.2225  142.3544  157.8313 C   0  0  0  0  0  0  0  0  0  0  0  0
  152.0717  142.1235  158.9353 C   0  0  0  0  0  0  0  0  0  0  0  0
  152.6807  143.2219  159.5776 C   0  0  0  0  0  0  0  0  0  0  0  0
  152.4291  144.5258  159.1026 C   0  0  0  0  0  0  0  0  0  0  0  0
  151.5740  144.6987  157.9952 C   0  0  0  0  0  0  0  0  0  0  0  0
  151.0093  143.6212  157.4068 N   0  3  0  0  0  0  0  0  0  0  0  0
  149.5979  136.5463  159.2978 C   0  0  0  0  0  0  0  0  0  0  0  0
  146.1384  135.6570  163.4838 H   0  0  0  0  0  0  0  0  0  0  0  0
  147.0911  134.3765  162.6975 H   0  0  0  0  0  0  0  0  0  0  0  0
  145.4982  134.8302  162.0439 H   0  0  0  0  0  0  0  0  0  0  0  0
  147.6154  137.1129  158.6796 H   0  0  0  0  0  0  0  0  0  0  0  0
  148.4865  134.2488  158.0694 H   0  0  0  0  0  0  0  0  0  0  0  0
  147.1002  135.0664  157.3992 H   0  0  0  0  0  0  0  0  0  0  0  0
  149.0549  134.9366  155.8124 H   0  0  0  0  0  0  0  0  0  0  0  0
  148.5254  136.5725  156.0864 H   0  0  0  0  0  0  0  0  0  0  0  0
  150.9519  135.2323  157.3974 H   0  0  0  0  0  0  0  0  0  0  0  0
  151.0043  136.4509  156.1601 H   0  0  0  0  0  0  0  0  0  0  0  0
  150.9863  138.1973  156.0774 H   0  0  0  0  0  0  0  0  0  0  0  0
  152.5167  140.3386  157.0526 H   0  0  0  0  0  0  0  0  0  0  0  0
  151.6944  140.2886  155.5005 H   0  0  0  0  0  0  0  0  0  0  0  0
  149.9761  141.6370  156.2513 H   0  0  0  0  0  0  0  0  0  0  0  0
  149.8160  140.7467  157.7465 H   0  0  0  0  0  0  0  0  0  0  0  0
  152.2582  141.1185  159.2854 H   0  0  0  0  0  0  0  0  0  0  0  0
  153.3341  143.0658  160.4235 H   0  0  0  0  0  0  0  0  0  0  0  0
  152.8865  145.3803  159.5798 H   0  0  0  0  0  0  0  0  0  0  0  0
  151.3272  145.6582  157.5646 H   0  0  0  0  0  0  0  0  0  0  0  0
  149.6231  137.2294  160.1483 H   0  0  0  0  0  0  0  0  0  0  0  0
  150.1346  135.6545  159.6261 H   0  0  0  0  0  0  0  0  0  0  0  0
  150.3955  143.7701  156.6055 H   0  0  0  0  0  0  0  0  0  0  0  0
  1  2  1  0  0  0  0
  1 23  1  0  0  0  0
  1 24  1  0  0  0  0
  1 25  1  0  0  0  0
  2  3  2  0  0  0  0
  2  4  2  0  0  0  0
  2  5  1  0  0  0  0
  5  6  1  0  0  0  0
  6 22  1  0  0  0  0
  6  7  1  0  0  0  0
  6 26  1  0  0  0  0
  7  8  1  0  0  0  0
  7 27  1  0  0  0  0
  7 28  1  0  0  0  0
  8  9  1  0  0  0  0
  8 29  1  0  0  0  0
  8 30  1  0  0  0  0
  9 10  1  0  0  0  0
  9 31  1  0  0  0  0
  9 32  1  0  0  0  0
 10 11  1  0  0  0  0
 10 22  1  0  0  0  0
 11 12  2  0  0  0  0
 11 13  1  0  0  0  0
 13 14  1  0  0  0  0
 13 33  1  0  0  0  0
 14 15  1  0  0  0  0
 14 34  1  0  0  0  0
 14 35  1  0  0  0  0
 15 16  1  0  0  0  0
 15 36  1  0  0  0  0
 15 37  1  0  0  0  0
 16 21  1  0  0  0  0
 16 17  2  0  0  0  0
 17 18  1  0  0  0  0
 17 38  1  0  0  0  0
 18 19  2  0  0  0  0
 18 39  1  0  0  0  0
 19 20  1  0  0  0  0
 19 40  1  0  0  0  0
 20 21  2  0  0  0  0
 20 41  1  0  0  0  0
 21 44  1  0  0  0  0
 22 42  1  0  0  0  0
 22 43  1  0  0  0  0
M  CHG  1   5  -1
M  CHG  1  21   1
M  END
> <s_m_source_file>
AV-unprocessed.smi

> <i_m_source_file_index>
1434

> <i_lp_mmshare_version>
43012

> <i_f3d_flags>
0

> <s_epik_input>
W0NIM11TKD1PKSg9TylbTkhdW0NAQEhdMVtDSDJdW0NIMl1bQ0gyXU4oW0NIMl0xKUMoPU8pW05IXVtDSDJdW0NIMl1jMltjSF1bY0hdW2NIXVtjSF1uMg==

> <s_epik_cmdline>
J2VwaWtfcHl0aG9uJywgJy1waCcsICc3LjAnLCAnLXRuJywgJzgnLCAnLW1hJywgJzIwMCcsICctbWV0YWxfYmluZGluZycsICctaW1hZScsICc8aW5maWxlLm1hZT4nLCAnLW9tYWUnLCAnPG91dGZpbGUubWFlPic=

> <r_epik_Ionization_Penalty>
8.07847

> <r_epik_Ionization_Penalty_Charging>
8.0784

> <r_epik_Ionization_Penalty_Neutral>
6.25603e-05

> <r_epik_State_Penalty>
8.17261

> <r_epik_Charging_Adjusted_Penalty>
16.251

> <i_epik_Tot_Q>
0

> <i_epik_Tot_abs_Q>
2

> <r_epik_Metal_State_Penalty>
4.14042

> <b_epik_Metal_Only>
1

> <s_lp_Force_Field>
OPLS_2005

> <r_lp_Energy>
29.5402

> <b_lp_Chiralities_Consistent>
1

> <s_lp_Variant>
AV-unprocessed.smi:1434-7

> <Gold.Version>
5.8.1

> <Gold.Id.Protein>
6NUR|6NUR_protein|mol2

> <Gold.PLP.Fitness>
47.9499

> <Gold.PLP.PLP>
-37.2208

> <Gold.PLP.part.hbond>
-3.4343

> <Gold.PLP.part.metal>
0.0000

> <Gold.PLP.part.buried>
-5.2773

> <Gold.PLP.part.nonpolar>
-29.2750

> <Gold.PLP.part.repulsive>
0.0231

> <Gold.PLP.ligand.clash>
0.0000

> <Gold.PLP.ligand.torsion>
1.1410

> <Gold.PLP.Chemscore.Hbond>
3.9913

> <Gold.PLP.Chemscore.CHOScore>
0.0000

> <Gold.PLP.Chemscore.Metal>
0.0000

> <Gold.Chemscore.Hbonds>
donor molecule, donor type, donor heavy atom, donor atom, acceptor molecule, acceptor atom, score
      L1  H    21    44       P1  8028  2.00
      P1  H  6931  6943       L1     4  0.99
      P1  H  6934  6947       L1     3  1.00

> <Gold.PLP.Chemscore.Internal.Correction>
1.0373

> <Gold.Rescore>
     Score         DG    S(hbond)    S(metal)    S(lipo)     H(rot)  DE(clash)    DE(int)     intcor
     18.45     -20.89       2.74        0.00      92.01       1.77       0.01       2.43       ----

> <Gold.Chemscore.Fitness>
18.4487

> <Gold.Chemscore.DG>
-20.8872

> <Gold.Chemscore.ZeroCoef>
-5.4800

> <Gold.Chemscore.Hbond>
2.7435

> <Gold.Chemscore.Metal>
0.0000

> <Gold.Chemscore.Lipo>
92.0086

> <Gold.Chemscore.Internal_Hbond>
0.0000

> <Gold.Chemscore.DEClash>
0.0118

> <Gold.Chemscore.DEInternal>
2.4267

> <Gold.Chemscore.Rot>
1.7661

> <Gold.Chemscore.Internal.Correction>
   9.000000E+99

> <Gold.Chemscore.Hbonds>
donor molecule, donor type, donor heavy atom, donor atom, acceptor molecule, acceptor atom, score
      L1  H    21    44       P1  8028  0.92
      P1  H  6931  6943       L1     4  0.91
      P1  H  6934  6947       L1     3  0.50

> <Gold.Chemscore.Hbond.Weighted>
-9.1633

> <Gold.Chemscore.Metal.Weighted>
-0.0000

> <Gold.Chemscore.Lipo.Weighted>
-10.7650

> <Gold.Chemscore.Internal_Hbond.Weighted>
0.0000

> <Gold.Chemscore.DEClash.Weighted>
0.0118

> <Gold.Chemscore.DEInternal.Weighted>
2.4267

> <Gold.Chemscore.Rot.Weighted>
4.5211

> <Gold.Chemscore.Internal.Correction.Weighted>
   9.000000E+99

> <Gold.Protein.RotatedTorsions>
[ 6907 6896 6895 6894 ] final   94.52 input  -60.11 | X-H torsion
[ 7974 7965 7964 7962 ] final  -45.24 input  175.53 | X-H torsion
[ 8008 7997 7996 7995 ] final  -36.22 input   59.86 | X-H torsion
[ 10167 10162 10161 10158 ] final -102.26 input  -65.29 | X-H torsion
[ 10718 10713 10712 10709 ] final   69.85 input   66.30 | X-H torsion
[ 10763 10752 10751 10750 ] final  166.98 input  -60.55 | X-H torsion
[ 11005 11000 10999 10996 ] final  -36.11 input  -57.11 | X-H torsion

> <Gold.Protein.ActiveResidues>
 VAL166  LYS551  ARG553  GLY616  TRP617  ASP618  TYR619  PRO620  LYS621  CYS622 
 ASP623  PHE694  ASN695  SER759  ASP760  ASP761  ALA762  ILE779  LEU786  VAL792 
 PHE793  MET794  SER795  GLU796  ALA797  LYS798  CYS799  TRP800  GLU811  SER814 

> <Gold.Protein.RotatedAtoms>
  152.5449  134.1181  159.8386 H   0  0  0  0  0  0  0  0  0  0  0  0  # atno 6907 bound_to 6896
  151.1240  133.5076  159.2608 H   0  0  0  0  0  0  0  0  0  0  0  0  # atno 6908 bound_to 6896
  151.1748  135.0344  159.8821 H   0  0  0  0  0  0  0  0  0  0  0  0  # atno 6909 bound_to 6896
  145.9841  140.7252  142.9349 H   0  0  0  0  0  0  0  0  0  0  0  0  # atno 7974 bound_to 7965
  154.4078  140.1636  156.2338 H   0  0  0  0  0  0  0  0  0  0  0  0  # atno 8008 bound_to 7997
  155.9259  140.3418  155.6187 H   0  0  0  0  0  0  0  0  0  0  0  0  # atno 8009 bound_to 7997
  155.7165  140.0763  157.2339 H   0  0  0  0  0  0  0  0  0  0  0  0  # atno 8010 bound_to 7997
  140.2326  143.3596  152.0873 H   0  0  0  0  0  0  0  0  0  0  0  0  # atno 10167 bound_to 10162
  157.6368  130.9447  150.0570 H   0  0  0  0  0  0  0  0  0  0  0  0  # atno 10718 bound_to 10713
  154.3470  135.2753  155.2392 H   0  0  0  0  0  0  0  0  0  0  0  0  # atno 10763 bound_to 10752
  154.4638  135.5900  153.6277 H   0  0  0  0  0  0  0  0  0  0  0  0  # atno 10764 bound_to 10752
  152.9853  135.6071  154.3677 H   0  0  0  0  0  0  0  0  0  0  0  0  # atno 10765 bound_to 10752
  140.9849  133.7036  156.1749 H   0  0  0  0  0  0  0  0  0  0  0  0  # atno 11005 bound_to 11000
  144.6869  140.2958  143.7271 LP  0  0  0  0  0  0  0  0  0  0  0  0  # atno 17320 bound_to 7965
  145.7727  139.1863  143.2203 LP  0  0  0  0  0  0  0  0  0  0  0  0  # atno 17321 bound_to 7965
  139.5105  144.6884  151.5825 LP  0  0  0  0  0  0  0  0  0  0  0  0  # atno 17342 bound_to 10162
  140.6174  143.9323  150.6499 LP  0  0  0  0  0  0  0  0  0  0  0  0  # atno 17343 bound_to 10162
  156.1614  130.3644  149.9294 LP  0  0  0  0  0  0  0  0  0  0  0  0  # atno 17370 bound_to 10713
  156.7291  130.9036  151.3624 LP  0  0  0  0  0  0  0  0  0  0  0  0  # atno 17371 bound_to 10713
  140.7129  134.4442  157.5580 LP  0  0  0  0  0  0  0  0  0  0  0  0  # atno 17394 bound_to 11000
  139.8966  134.8655  156.2079 LP  0  0  0  0  0  0  0  0  0  0  0  0  # atno 17395 bound_to 11000

$$$$
