AV-unprocessed.smi:1043|AV-procd|sdf|4541|dock6
  -GOLD-   22720 2563D 1   1.00000     0.00000
 Structure written by MMmdl.
 34 35  0  0  0  0  0  0  0  0  2 V2000
  152.9784  138.9200  159.2255 C   0  0  0  0  0  0  0  0  0  0  0  0
  152.0526  139.0573  157.9941 C   0  0  0  0  0  0  0  0  0  0  0  0
  150.6708  138.7427  158.3884 N   0  0  0  0  0  0  0  0  0  0  0  0
  150.1744  137.6083  158.9102 C   0  0  0  0  0  0  0  0  0  0  0  0
  150.9088  136.6388  159.1116 O   0  0  0  0  0  0  0  0  0  0  0  0
  148.8508  137.6754  159.1796 N   0  5  0  0  0  0  0  0  0  0  0  0
  148.2938  136.7979  160.0302 C   0  0  0  0  0  0  0  0  0  0  0  0
  147.7493  137.1745  161.1982 N   0  0  0  0  0  0  0  0  0  0  0  0
  147.2341  136.1114  161.9277 N   0  0  0  0  0  0  0  0  0  0  0  0
  147.4132  134.9537  161.2921 C   0  0  0  0  0  0  0  0  0  0  0  0
  148.2268  135.0564  159.7455 S   0  0  0  0  0  0  0  0  0  0  0  0
  152.2035  140.4903  157.4051 C   0  0  0  0  0  0  0  0  0  0  0  0
  151.0903  141.0341  156.4813 C   0  0  0  0  0  0  0  0  0  0  0  0
  150.4853  140.0686  155.4476 C   0  0  0  0  0  0  0  0  0  0  0  0
  151.4667  139.0613  154.8337 C   0  0  0  0  0  0  0  0  0  0  0  0
  151.6513  137.8087  155.7050 C   0  0  0  0  0  0  0  0  0  0  0  0
  152.5280  138.0077  156.9546 C   0  0  0  0  0  0  0  0  0  0  0  0
  154.0238  139.0650  158.9507 H   0  0  0  0  0  0  0  0  0  0  0  0
  152.8935  137.9321  159.6800 H   0  0  0  0  0  0  0  0  0  0  0  0
  152.7499  139.6526  159.9996 H   0  0  0  0  0  0  0  0  0  0  0  0
  150.0050  139.4898  158.2577 H   0  0  0  0  0  0  0  0  0  0  0  0
  147.0661  134.0334  161.7373 H   0  0  0  0  0  0  0  0  0  0  0  0
  152.3082  141.2056  158.2221 H   0  0  0  0  0  0  0  0  0  0  0  0
  153.1544  140.5501  156.8744 H   0  0  0  0  0  0  0  0  0  0  0  0
  150.2772  141.4309  157.0900 H   0  0  0  0  0  0  0  0  0  0  0  0
  151.4950  141.8984  155.9537 H   0  0  0  0  0  0  0  0  0  0  0  0
  149.6466  139.5320  155.8929 H   0  0  0  0  0  0  0  0  0  0  0  0
  150.0452  140.6665  154.6488 H   0  0  0  0  0  0  0  0  0  0  0  0
  151.0585  138.7390  153.8750 H   0  0  0  0  0  0  0  0  0  0  0  0
  152.4241  139.5318  154.6079 H   0  0  0  0  0  0  0  0  0  0  0  0
  150.6789  137.4027  155.9860 H   0  0  0  0  0  0  0  0  0  0  0  0
  152.1182  137.0368  155.0931 H   0  0  0  0  0  0  0  0  0  0  0  0
  153.5429  138.2470  156.6344 H   0  0  0  0  0  0  0  0  0  0  0  0
  152.6072  137.0375  157.4476 H   0  0  0  0  0  0  0  0  0  0  0  0
  1  2  1  0  0  0  0
  1 18  1  0  0  0  0
  1 19  1  0  0  0  0
  1 20  1  0  0  0  0
  2 17  1  0  0  0  0
  2  3  1  0  0  0  0
  2 12  1  0  0  0  0
  3  4  1  0  0  0  0
  3 21  1  0  0  0  0
  4  5  2  0  0  0  0
  4  6  1  0  0  0  0
  6  7  1  0  0  0  0
  7 11  1  0  0  0  0
  7  8  2  0  0  0  0
  8  9  1  0  0  0  0
  9 10  2  0  0  0  0
 10 11  1  0  0  0  0
 10 22  1  0  0  0  0
 12 13  1  0  0  0  0
 12 23  1  0  0  0  0
 12 24  1  0  0  0  0
 13 14  1  0  0  0  0
 13 25  1  0  0  0  0
 13 26  1  0  0  0  0
 14 15  1  0  0  0  0
 14 27  1  0  0  0  0
 14 28  1  0  0  0  0
 15 16  1  0  0  0  0
 15 29  1  0  0  0  0
 15 30  1  0  0  0  0
 16 17  1  0  0  0  0
 16 31  1  0  0  0  0
 16 32  1  0  0  0  0
 17 33  1  0  0  0  0
 17 34  1  0  0  0  0
M  CHG  1   6  -1
M  END
> <s_m_source_file>
AV-unprocessed.smi

> <i_m_source_file_index>
1043

> <i_lp_mmshare_version>
43012

> <i_f3d_flags>
0

> <s_epik_input>
W0NIMl0xW0NIMl1bQ0gyXVtDSDJdW0NIMl1bQ0gyXUMxKFtDSDNdKVtOSF1DKD1PKVtOSF1jMm5uW2NIXXMy

> <s_epik_cmdline>
J2VwaWtfcHl0aG9uJywgJy1waCcsICc3LjAnLCAnLXRuJywgJzgnLCAnLW1hJywgJzIwMCcsICctbWV0YWxfYmluZGluZycsICctaW1hZScsICc8aW5maWxlLm1hZT4nLCAnLW9tYWUnLCAnPG91dGZpbGUubWFlPic=

> <r_lp_tautomer_probability>
1

> <r_epik_Ionization_Penalty>
4.55555

> <r_epik_Ionization_Penalty_Charging>
4.50588

> <r_epik_Ionization_Penalty_Neutral>
0.0496753

> <r_epik_State_Penalty>
4.50558

> <r_epik_Charging_Adjusted_Penalty>
9.01146

> <i_epik_Tot_Q>
-1

> <i_epik_Tot_abs_Q>
1

> <r_epik_Metal_State_Penalty>
0.822218

> <b_epik_Metal_Only>
1

> <s_lp_Force_Field>
OPLS_2005

> <r_lp_Energy>
17.5754

> <b_lp_Chiralities_Consistent>
1

> <s_lp_Variant>
AV-unprocessed.smi:1043-2

> <Gold.Version>
5.8.1

> <Gold.Id.Protein>
6NUR|6NUR_protein|mol2

> <Gold.PLP.Fitness>
33.5022

> <Gold.PLP.PLP>
-26.4386

> <Gold.PLP.part.hbond>
-3.6619

> <Gold.PLP.part.metal>
0.0000

> <Gold.PLP.part.buried>
-3.0768

> <Gold.PLP.part.nonpolar>
-18.7389

> <Gold.PLP.part.repulsive>
0.1218

> <Gold.PLP.ligand.clash>
0.0000

> <Gold.PLP.ligand.torsion>
0.6855

> <Gold.PLP.Chemscore.Hbond>
2.8080

> <Gold.PLP.Chemscore.CHOScore>
0.0000

> <Gold.PLP.Chemscore.Metal>
0.0000

> <Gold.Chemscore.Hbonds>
donor molecule, donor type, donor heavy atom, donor atom, acceptor molecule, acceptor atom, score
      P1  H  6896  6908       L1     5  1.00
      P1  H  6931  6943       L1     8  0.96
      P1  H  6934  6947       L1     8  0.83

> <Gold.PLP.Chemscore.Internal.Correction>
0.0106

> <Gold.Rescore>
     Score         DG    S(hbond)    S(metal)    S(lipo)     H(rot)  DE(clash)    DE(int)     intcor
     15.44     -17.54       2.33        0.00      58.48       1.00       0.23       1.87       ----

> <Gold.Chemscore.Fitness>
15.4374

> <Gold.Chemscore.DG>
-17.5398

> <Gold.Chemscore.ZeroCoef>
-5.4800

> <Gold.Chemscore.Hbond>
2.3288

> <Gold.Chemscore.Metal>
0.0000

> <Gold.Chemscore.Lipo>
58.4764

> <Gold.Chemscore.Internal_Hbond>
0.0000

> <Gold.Chemscore.DEClash>
0.2321

> <Gold.Chemscore.DEInternal>
1.8703

> <Gold.Chemscore.Rot>
1.0000

> <Gold.Chemscore.Internal.Correction>
   9.000000E+99

> <Gold.Chemscore.Hbonds>
donor molecule, donor type, donor heavy atom, donor atom, acceptor molecule, acceptor atom, score
      P1  H  6896  6908       L1     5  0.96
      P1  H  6931  6943       L1     8  0.36
      P1  H  6934  6947       L1     8  0.40

> <Gold.Chemscore.Hbond.Weighted>
-7.7781

> <Gold.Chemscore.Metal.Weighted>
-0.0000

> <Gold.Chemscore.Lipo.Weighted>
-6.8417

> <Gold.Chemscore.Internal_Hbond.Weighted>
0.0000

> <Gold.Chemscore.DEClash.Weighted>
0.2321

> <Gold.Chemscore.DEInternal.Weighted>
1.8703

> <Gold.Chemscore.Rot.Weighted>
2.5600

> <Gold.Chemscore.Internal.Correction.Weighted>
   9.000000E+99

> <Gold.Protein.RotatedTorsions>
[ 6907 6896 6895 6894 ] final -154.57 input  -60.11 | X-H torsion
[ 7974 7965 7964 7962 ] final  -88.41 input  175.53 | X-H torsion
[ 8008 7997 7996 7995 ] final    3.53 input   59.86 | X-H torsion
[ 10167 10162 10161 10158 ] final  100.96 input  -65.29 | X-H torsion
[ 10718 10713 10712 10709 ] final  -46.26 input   66.30 | X-H torsion
[ 10763 10752 10751 10750 ] final   36.55 input  -60.55 | X-H torsion
[ 11005 11000 10999 10996 ] final   -1.34 input  -57.11 | X-H torsion

> <Gold.Protein.ActiveResidues>
 VAL166  LYS551  ARG553  GLY616  TRP617  ASP618  TYR619  PRO620  LYS621  CYS622 
 ASP623  PHE694  ASN695  SER759  ASP760  ASP761  ALA762  ILE779  LEU786  VAL792 
 PHE793  MET794  SER795  GLU796  ALA797  LYS798  CYS799  TRP800  GLU811  SER814 

> <Gold.Protein.RotatedAtoms>
  151.2595  133.4309  159.2615 H   0  0  0  0  0  0  0  0  0  0  0  0  # atno 6907 bound_to 6896
  151.0543  134.9694  159.8238 H   0  0  0  0  0  0  0  0  0  0  0  0  # atno 6908 bound_to 6896
  152.5388  134.2548  159.8965 H   0  0  0  0  0  0  0  0  0  0  0  0  # atno 6909 bound_to 6896
  145.4536  140.9561  143.2009 H   0  0  0  0  0  0  0  0  0  0  0  0  # atno 7974 bound_to 7965
  154.7048  140.2680  155.6685 H   0  0  0  0  0  0  0  0  0  0  0  0  # atno 8008 bound_to 7997
  156.2777  140.2765  156.1595 H   0  0  0  0  0  0  0  0  0  0  0  0  # atno 8009 bound_to 7997
  155.0715  140.0372  157.2600 H   0  0  0  0  0  0  0  0  0  0  0  0  # atno 8010 bound_to 7997
  139.7481  144.6992  151.0474 H   0  0  0  0  0  0  0  0  0  0  0  0  # atno 10167 bound_to 10162
  156.2200  130.4165  149.9004 H   0  0  0  0  0  0  0  0  0  0  0  0  # atno 10718 bound_to 10713
  153.0072  135.6302  154.2003 H   0  0  0  0  0  0  0  0  0  0  0  0  # atno 10763 bound_to 10752
  154.1746  135.2816  155.3072 H   0  0  0  0  0  0  0  0  0  0  0  0  # atno 10764 bound_to 10752
  154.5882  135.5626  153.7312 H   0  0  0  0  0  0  0  0  0  0  0  0  # atno 10765 bound_to 10752
  140.6462  133.9445  155.8354 H   0  0  0  0  0  0  0  0  0  0  0  0  # atno 11005 bound_to 11000
  144.8046  139.6075  143.7056 LP  0  0  0  0  0  0  0  0  0  0  0  0  # atno 17320 bound_to 7965
  146.2491  139.6160  142.9440 LP  0  0  0  0  0  0  0  0  0  0  0  0  # atno 17321 bound_to 7965
  140.7794  143.4843  150.9977 LP  0  0  0  0  0  0  0  0  0  0  0  0  # atno 17342 bound_to 10162
  139.8530  143.7413  152.3177 LP  0  0  0  0  0  0  0  0  0  0  0  0  # atno 17343 bound_to 10162
  156.6654  130.8799  151.3554 LP  0  0  0  0  0  0  0  0  0  0  0  0  # atno 17370 bound_to 10713
  157.7083  130.9410  150.1003 LP  0  0  0  0  0  0  0  0  0  0  0  0  # atno 17371 bound_to 10713
  141.0570  134.0402  157.3709 LP  0  0  0  0  0  0  0  0  0  0  0  0  # atno 17394 bound_to 11000
  139.9062  135.0180  156.7495 LP  0  0  0  0  0  0  0  0  0  0  0  0  # atno 17395 bound_to 11000

$$$$
