AV-unprocessed.smi:438|AV-procd|sdf|2573|dock1
  -GOLD-   2262022553D 1   1.00000     0.00000
 Structure written by MMmdl.
 47 48  0  0  0  0  0  0  0  0  2 V2000
  145.6666  133.9443  159.9950 C   0  0  0  0  0  0  0  0  0  0  0  0
  146.4767  135.1392  160.4656 C   0  0  0  0  0  0  0  0  0  0  0  0
  147.2617  135.7698  159.4862 N   0  0  0  0  0  0  0  0  0  0  0  0
  147.9766  136.7807  159.8052 C   0  0  0  0  0  0  0  0  0  0  0  0
  148.9894  137.5866  158.5524 S   0  0  0  0  0  0  0  0  0  0  0  0
  150.5114  138.0288  159.4445 C   0  0  0  0  0  0  0  0  0  0  0  0
  151.4152  138.9589  158.6403 C   0  0  0  0  0  0  0  0  0  0  0  0
  151.7303  138.6715  157.4857 O   0  0  0  0  0  0  0  0  0  0  0  0
  151.8383  140.0645  159.2719 N   0  0  0  0  0  0  0  0  0  0  0  0
  152.7068  141.0969  158.7074 C   0  0  2  0  0  0  0  0  0  0  0  0
  153.5483  141.7703  159.8130 C   0  0  0  0  0  0  0  0  0  0  0  0
  152.6899  142.6424  160.7456 C   0  0  0  0  0  0  0  0  0  0  0  0
  151.8852  143.6818  159.9510 C   0  0  0  0  0  0  0  0  0  0  0  0
  151.0276  143.0145  158.8641 C   0  0  0  0  0  0  0  0  0  0  0  0
  151.8826  142.1450  157.9187 C   0  0  2  0  0  0  0  0  0  0  0  0
  151.0285  141.5157  156.8042 C   0  0  0  0  0  0  0  0  0  0  0  0
  148.0323  137.3111  161.0733 N   0  5  0  0  0  0  0  0  0  0  0  0
  147.3001  136.7546  162.0804 C   0  0  0  0  0  0  0  0  0  0  0  0
  147.3255  137.1951  163.2290 O   0  0  0  0  0  0  0  0  0  0  0  0
  146.4646  135.5855  161.7540 C   0  0  0  0  0  0  0  0  0  0  0  0
  145.6219  134.9500  162.8574 C   0  0  0  0  0  0  0  0  0  0  0  0
  144.1184  135.1711  162.6374 C   0  0  0  0  0  0  0  0  0  0  0  0
  143.3793  134.3435  163.5095 O   0  0  0  0  0  0  0  0  0  0  0  0
  145.8558  133.0776  160.6288 H   0  0  0  0  0  0  0  0  0  0  0  0
  145.9238  133.6717  158.9706 H   0  0  0  0  0  0  0  0  0  0  0  0
  144.6013  134.1727  160.0243 H   0  0  0  0  0  0  0  0  0  0  0  0
  151.0531  137.1178  159.7021 H   0  0  0  0  0  0  0  0  0  0  0  0
  150.2515  138.5263  160.3795 H   0  0  0  0  0  0  0  0  0  0  0  0
  151.5235  140.2094  160.2205 H   0  0  0  0  0  0  0  0  0  0  0  0
  153.3914  140.6182  158.0046 H   0  0  0  0  0  0  0  0  0  0  0  0
  154.0856  141.0200  160.3941 H   0  0  0  0  0  0  0  0  0  0  0  0
  154.3131  142.3939  159.3484 H   0  0  0  0  0  0  0  0  0  0  0  0
  152.0089  142.0111  161.3181 H   0  0  0  0  0  0  0  0  0  0  0  0
  153.3274  143.1449  161.4735 H   0  0  0  0  0  0  0  0  0  0  0  0
  151.2490  144.2541  160.6267 H   0  0  0  0  0  0  0  0  0  0  0  0
  152.5675  144.3968  159.4895 H   0  0  0  0  0  0  0  0  0  0  0  0
  150.2539  142.4055  159.3336 H   0  0  0  0  0  0  0  0  0  0  0  0
  150.5060  143.7827  158.2922 H   0  0  0  0  0  0  0  0  0  0  0  0
  152.5960  142.8095  157.4289 H   0  0  0  0  0  0  0  0  0  0  0  0
  150.2448  140.8737  157.2076 H   0  0  0  0  0  0  0  0  0  0  0  0
  151.6415  140.9119  156.1344 H   0  0  0  0  0  0  0  0  0  0  0  0
  150.5441  142.2850  156.2022 H   0  0  0  0  0  0  0  0  0  0  0  0
  145.9118  135.3543  163.8267 H   0  0  0  0  0  0  0  0  0  0  0  0
  145.8421  133.8831  162.9171 H   0  0  0  0  0  0  0  0  0  0  0  0
  143.8511  136.2117  162.8242 H   0  0  0  0  0  0  0  0  0  0  0  0
  143.8382  134.9417  161.6091 H   0  0  0  0  0  0  0  0  0  0  0  0
  143.6552  134.5210  164.3955 H   0  0  0  0  0  0  0  0  0  0  0  0
  1 24  1  0  0  0  0
  1 25  1  0  0  0  0
  1 26  1  0  0  0  0
  1  2  1  0  0  0  0
  2 20  2  0  0  0  0
  2  3  1  0  0  0  0
  3  4  2  0  0  0  0
  4  5  1  0  0  0  0
  4 17  1  0  0  0  0
  5  6  1  0  0  0  0
  6  7  1  0  0  0  0
  6 27  1  0  0  0  0
  6 28  1  0  0  0  0
  7  8  2  0  0  0  0
  7  9  1  0  0  0  0
  9 10  1  0  0  0  0
  9 29  1  0  0  0  0
 10 15  1  0  0  0  0
 10 11  1  0  0  0  0
 10 30  1  0  0  0  0
 11 12  1  0  0  0  0
 11 31  1  0  0  0  0
 11 32  1  0  0  0  0
 12 13  1  0  0  0  0
 12 33  1  0  0  0  0
 12 34  1  0  0  0  0
 13 14  1  0  0  0  0
 13 35  1  0  0  0  0
 13 36  1  0  0  0  0
 14 15  1  0  0  0  0
 14 37  1  0  0  0  0
 14 38  1  0  0  0  0
 15 16  1  0  0  0  0
 15 39  1  0  0  0  0
 16 40  1  0  0  0  0
 16 41  1  0  0  0  0
 16 42  1  0  0  0  0
 17 18  1  0  0  0  0
 18 19  2  0  0  0  0
 18 20  1  0  0  0  0
 20 21  1  0  0  0  0
 21 22  1  0  0  0  0
 21 43  1  0  0  0  0
 21 44  1  0  0  0  0
 22 23  1  0  0  0  0
 22 45  1  0  0  0  0
 22 46  1  0  0  0  0
 23 47  1  0  0  0  0
M  CHG  1  17  -1
M  END
> <s_m_source_file>
AV-unprocessed.smi

> <i_m_source_file_index>
438

> <i_lp_mmshare_version>
43012

> <i_f3d_flags>
0

> <s_epik_input>
W09IXVtDSDJdW0NIMl1jMWMoW09IXSluYyhuYzFbQ0gzXSlTW0NIMl1DKD1PKVtOSF1bQ0BASF0yW0NIMl1bQ0gyXVtDSDJdW0NIMl1bQ0BIXTJbQ0gzXQ==

> <s_epik_cmdline>
J2VwaWtfcHl0aG9uJywgJy1waCcsICc3LjAnLCAnLXRuJywgJzgnLCAnLW1hJywgJzIwMCcsICctbWV0YWxfYmluZGluZycsICctaW1hZScsICc8aW5maWxlLm1hZT4nLCAnLW9tYWUnLCAnPG91dGZpbGUubWFlPic=

> <r_lp_tautomer_probability>
1

> <r_epik_Ionization_Penalty>
3.69231

> <r_epik_Ionization_Penalty_Charging>
0.00434774

> <r_epik_Ionization_Penalty_Neutral>
3.68796

> <r_epik_State_Penalty>
2.13826

> <r_epik_Charging_Adjusted_Penalty>
2.14261

> <i_epik_Tot_Q>
-1

> <i_epik_Tot_abs_Q>
1

> <r_epik_Metal_State_Penalty>
0.260979

> <b_epik_Metal_Only>
0

> <s_lp_Force_Field>
OPLS_2005

> <r_lp_Energy>
17.6813

> <b_lp_Chiralities_Consistent>
1

> <s_lp_Variant>
AV-unprocessed.smi:438-11

> <Gold.Version>
5.8.1

> <Gold.Id.Protein>
6NUR|6NUR_protein|mol2

> <Gold.PLP.Fitness>
43.4640

> <Gold.PLP.PLP>
-35.8651

> <Gold.PLP.part.hbond>
-2.6049

> <Gold.PLP.part.metal>
0.0000

> <Gold.PLP.part.buried>
-5.0611

> <Gold.PLP.part.nonpolar>
-28.6708

> <Gold.PLP.part.repulsive>
0.1705

> <Gold.PLP.ligand.clash>
0.0000

> <Gold.PLP.ligand.torsion>
0.8903

> <Gold.PLP.Chemscore.Hbond>
3.0968

> <Gold.PLP.Chemscore.CHOScore>
0.0000

> <Gold.PLP.Chemscore.Metal>
0.0000

> <Gold.Chemscore.Hbonds>
donor molecule, donor type, donor heavy atom, donor atom, acceptor molecule, acceptor atom, score
      P1  H  6931  6943       L1    17  1.82
      P1  H  6934  6947       L1    17  1.34

> <Gold.PLP.Chemscore.Internal.Correction>
0.0893

> <Gold.Rescore>
     Score         DG    S(hbond)    S(metal)    S(lipo)     H(rot)  DE(clash)    DE(int)     intcor
     10.74     -11.81       0.66        0.00      96.46       2.79       0.10       0.97       ----

> <Gold.Chemscore.Fitness>
10.7408

> <Gold.Chemscore.DG>
-11.8105

> <Gold.Chemscore.ZeroCoef>
-5.4800

> <Gold.Chemscore.Hbond>
0.6569

> <Gold.Chemscore.Metal>
0.0000

> <Gold.Chemscore.Lipo>
96.4583

> <Gold.Chemscore.Internal_Hbond>
0.0000

> <Gold.Chemscore.DEClash>
0.0980

> <Gold.Chemscore.DEInternal>
0.9717

> <Gold.Chemscore.Rot>
2.7927

> <Gold.Chemscore.Internal.Correction>
   9.000000E+99

> <Gold.Chemscore.Hbonds>
donor molecule, donor type, donor heavy atom, donor atom, acceptor molecule, acceptor atom, score
      P1  H  6931  6943       L1    17  0.26
      P1  H  6934  6947       L1    17  0.10

> <Gold.Chemscore.Hbond.Weighted>
-2.1941

> <Gold.Chemscore.Metal.Weighted>
-0.0000

> <Gold.Chemscore.Lipo.Weighted>
-11.2856

> <Gold.Chemscore.Internal_Hbond.Weighted>
0.0000

> <Gold.Chemscore.DEClash.Weighted>
0.0980

> <Gold.Chemscore.DEInternal.Weighted>
0.9717

> <Gold.Chemscore.Rot.Weighted>
7.1492

> <Gold.Chemscore.Internal.Correction.Weighted>
   9.000000E+99

> <Gold.Protein.RotatedTorsions>
[ 6907 6896 6895 6894 ] final  113.15 input  -60.11 | X-H torsion
[ 7974 7965 7964 7962 ] final  -35.06 input  175.53 | X-H torsion
[ 8008 7997 7996 7995 ] final  -84.25 input   59.86 | X-H torsion
[ 10167 10162 10161 10158 ] final -106.51 input  -65.29 | X-H torsion
[ 10718 10713 10712 10709 ] final    6.43 input   66.30 | X-H torsion
[ 10763 10752 10751 10750 ] final   64.26 input  -60.55 | X-H torsion
[ 11005 11000 10999 10996 ] final  -24.56 input  -57.11 | X-H torsion

> <Gold.Protein.ActiveResidues>
 VAL166  LYS551  ARG553  GLY616  TRP617  ASP618  TYR619  PRO620  LYS621  CYS622 
 ASP623  PHE694  ASN695  SER759  ASP760  ASP761  ALA762  ILE779  LEU786  VAL792 
 PHE793  MET794  SER795  GLU796  ALA797  LYS798  CYS799  TRP800  GLU811  SER814 

> <Gold.Protein.RotatedAtoms>
  152.4877  133.8416  159.7155 H   0  0  0  0  0  0  0  0  0  0  0  0  # atno 6907 bound_to 6896
  150.8978  133.7149  159.2894 H   0  0  0  0  0  0  0  0  0  0  0  0  # atno 6908 bound_to 6896
  151.4600  135.1041  159.9774 H   0  0  0  0  0  0  0  0  0  0  0  0  # atno 6909 bound_to 6896
  146.0778  140.6114  142.8922 H   0  0  0  0  0  0  0  0  0  0  0  0  # atno 7974 bound_to 7965
  154.6278  140.0607  156.9695 H   0  0  0  0  0  0  0  0  0  0  0  0  # atno 8008 bound_to 7997
  155.1714  140.3291  155.4373 H   0  0  0  0  0  0  0  0  0  0  0  0  # atno 8009 bound_to 7997
  156.2467  140.1913  156.6815 H   0  0  0  0  0  0  0  0  0  0  0  0  # atno 8010 bound_to 7997
  140.1869  143.3922  152.1237 H   0  0  0  0  0  0  0  0  0  0  0  0  # atno 10167 bound_to 10162
  156.9220  130.5794  149.5648 H   0  0  0  0  0  0  0  0  0  0  0  0  # atno 10718 bound_to 10713
  153.0049  135.5399  154.6482 H   0  0  0  0  0  0  0  0  0  0  0  0  # atno 10763 bound_to 10752
  154.5721  135.2842  155.0819 H   0  0  0  0  0  0  0  0  0  0  0  0  # atno 10764 bound_to 10752
  154.1981  135.6488  153.5131 H   0  0  0  0  0  0  0  0  0  0  0  0  # atno 10765 bound_to 10752
  140.8856  133.7623  156.0357 H   0  0  0  0  0  0  0  0  0  0  0  0  # atno 11005 bound_to 11000
  144.7273  140.4564  143.6964 LP  0  0  0  0  0  0  0  0  0  0  0  0  # atno 17320 bound_to 7965
  145.6274  139.1532  143.2988 LP  0  0  0  0  0  0  0  0  0  0  0  0  # atno 17321 bound_to 7965
  139.5272  144.7117  151.5186 LP  0  0  0  0  0  0  0  0  0  0  0  0  # atno 17342 bound_to 10162
  140.6482  143.8751  150.6758 LP  0  0  0  0  0  0  0  0  0  0  0  0  # atno 17343 bound_to 10162
  156.0486  130.5559  150.8939 LP  0  0  0  0  0  0  0  0  0  0  0  0  # atno 17370 bound_to 10713
  157.5901  131.0944  150.9132 LP  0  0  0  0  0  0  0  0  0  0  0  0  # atno 17371 bound_to 10713
  140.8408  134.3068  157.5314 LP  0  0  0  0  0  0  0  0  0  0  0  0  # atno 17394 bound_to 11000
  139.8724  134.9415  156.3799 LP  0  0  0  0  0  0  0  0  0  0  0  0  # atno 17395 bound_to 11000

$$$$
