AV-unprocessed.smi:2439|AV-procd|sdf|9613|dock1
  -GOLD-   2272013243D 1   1.00000     0.00000
 Structure written by MMmdl.
 40 42  0  0  0  0  0  0  0  0  1 V2000
  151.3935  136.5984  154.5542 N   0  0  0  0  0  0  0  0  0  0  0  0
  150.9272  137.6296  154.7944 C   0  0  0  0  0  0  0  0  0  0  0  0
  150.3398  138.9292  155.0972 C   0  0  0  0  0  0  0  0  0  0  0  0
  149.7910  139.6918  154.0452 C   0  0  0  0  0  0  0  0  0  0  0  0
  149.2217  140.9461  154.3311 C   0  0  0  0  0  0  0  0  0  0  0  0
  149.2241  141.3895  155.6661 C   0  0  0  0  0  0  0  0  0  0  0  0
  149.7453  140.6708  156.6820 N   0  0  0  0  0  0  0  0  0  0  0  0
  150.2978  139.4619  156.4140 C   0  0  0  0  0  0  0  0  0  0  0  0
  150.8335  138.7377  157.4938 N   0  0  0  0  0  0  0  0  0  0  0  0
  151.3586  139.4180  158.6694 C   0  0  0  0  0  0  0  0  0  0  0  0
  152.5298  140.3497  158.3050 C   0  0  2  0  0  0  0  0  0  0  0  0
  153.3349  140.8107  159.5352 C   0  0  0  0  0  0  0  0  0  0  0  0
  152.6080  141.7696  160.3588 N   0  0  0  0  0  0  0  0  0  0  0  0
  153.4138  142.1991  161.5010 C   0  0  0  0  0  0  0  0  0  0  0  0
  152.6636  143.1823  162.4129 C   0  0  0  0  0  0  0  0  0  0  0  0
  152.1951  144.4022  161.6075 C   0  0  0  0  0  0  0  0  0  0  0  0
  151.3954  143.9460  160.3777 C   0  0  0  0  0  0  0  0  0  0  0  0
  152.1914  142.9170  159.5475 C   0  0  2  0  0  0  0  0  0  0  0  0
  151.3692  142.4607  158.3260 C   0  0  0  0  0  0  0  0  0  0  0  0
  152.0948  141.4950  157.5689 O   0  0  0  0  0  0  0  0  0  0  0  0
  149.8034  139.3245  153.0288 H   0  0  0  0  0  0  0  0  0  0  0  0
  148.7935  141.5525  153.5469 H   0  0  0  0  0  0  0  0  0  0  0  0
  148.7960  142.3464  155.9260 H   0  0  0  0  0  0  0  0  0  0  0  0
  151.0054  137.7473  157.3944 H   0  0  0  0  0  0  0  0  0  0  0  0
  150.5616  139.9695  159.1679 H   0  0  0  0  0  0  0  0  0  0  0  0
  151.7046  138.6623  159.3753 H   0  0  0  0  0  0  0  0  0  0  0  0
  153.2069  139.7931  157.6558 H   0  0  0  0  0  0  0  0  0  0  0  0
  153.6161  139.9435  160.1342 H   0  0  0  0  0  0  0  0  0  0  0  0
  154.2677  141.2621  159.1932 H   0  0  0  0  0  0  0  0  0  0  0  0
  153.7122  141.3285  162.0863 H   0  0  0  0  0  0  0  0  0  0  0  0
  154.3359  142.6646  161.1493 H   0  0  0  0  0  0  0  0  0  0  0  0
  151.8038  142.6829  162.8617 H   0  0  0  0  0  0  0  0  0  0  0  0
  153.3061  143.4982  163.2350 H   0  0  0  0  0  0  0  0  0  0  0  0
  151.5895  145.0594  162.2321 H   0  0  0  0  0  0  0  0  0  0  0  0
  153.0605  144.9832  161.2866 H   0  0  0  0  0  0  0  0  0  0  0  0
  150.4508  143.5066  160.7020 H   0  0  0  0  0  0  0  0  0  0  0  0
  151.1406  144.8104  159.7635 H   0  0  0  0  0  0  0  0  0  0  0  0
  153.0867  143.4152  159.1712 H   0  0  0  0  0  0  0  0  0  0  0  0
  150.4059  142.0520  158.6327 H   0  0  0  0  0  0  0  0  0  0  0  0
  151.1522  143.3109  157.6791 H   0  0  0  0  0  0  0  0  0  0  0  0
  1  2  3  0  0  0  0
  2  3  1  0  0  0  0
  3  8  1  0  0  0  0
  3  4  2  0  0  0  0
  4  5  1  0  0  0  0
  4 21  1  0  0  0  0
  5  6  2  0  0  0  0
  5 22  1  0  0  0  0
  6  7  1  0  0  0  0
  6 23  1  0  0  0  0
  7  8  2  0  0  0  0
  8  9  1  0  0  0  0
  9 10  1  0  0  0  0
  9 24  1  0  0  0  0
 10 11  1  0  0  0  0
 10 25  1  0  0  0  0
 10 26  1  0  0  0  0
 11 20  1  0  0  0  0
 11 12  1  0  0  0  0
 11 27  1  0  0  0  0
 12 13  1  0  0  0  0
 12 28  1  0  0  0  0
 12 29  1  0  0  0  0
 13 18  1  0  0  0  0
 13 14  1  0  0  0  0
 14 15  1  0  0  0  0
 14 30  1  0  0  0  0
 14 31  1  0  0  0  0
 15 16  1  0  0  0  0
 15 32  1  0  0  0  0
 15 33  1  0  0  0  0
 16 17  1  0  0  0  0
 16 34  1  0  0  0  0
 16 35  1  0  0  0  0
 17 18  1  0  0  0  0
 17 36  1  0  0  0  0
 17 37  1  0  0  0  0
 18 19  1  0  0  0  0
 18 38  1  0  0  0  0
 19 20  1  0  0  0  0
 19 39  1  0  0  0  0
 19 40  1  0  0  0  0
M  END
> <s_m_source_file>
AV-unprocessed.smi

> <i_m_source_file_index>
2439

> <i_lp_mmshare_version>
43012

> <i_f3d_flags>
0

> <s_epik_input>
TiNDYzFbY0hdW2NIXVtjSF1uYzFbTkhdW0NIMl1bQ0BIXShbQ0gyXTIpT1tDSDJdW0NAQEhdKE4yMylbQ0gyXVtDSDJdW0NIMl1bQ0gyXTM=

> <s_epik_cmdline>
J2VwaWtfcHl0aG9uJywgJy1waCcsICc3LjAnLCAnLXRuJywgJzgnLCAnLW1hJywgJzIwMCcsICctbWV0YWxfYmluZGluZycsICctaW1hZScsICc8aW5maWxlLm1hZT4nLCAnLW9tYWUnLCAnPG91dGZpbGUubWFlPic=

> <r_epik_Ionization_Penalty>
1.22355

> <r_epik_Ionization_Penalty_Charging>
0

> <r_epik_Ionization_Penalty_Neutral>
1.22355

> <r_epik_State_Penalty>
1.29103

> <r_epik_Charging_Adjusted_Penalty>
1.29103

> <i_epik_Tot_Q>
0

> <i_epik_Tot_abs_Q>
0

> <r_epik_Metal_State_Penalty>
1.29103

> <b_epik_Metal_Only>
0

> <s_lp_Force_Field>
OPLS_2005

> <r_lp_Energy>
40.6055

> <b_lp_Chiralities_Consistent>
1

> <s_lp_Variant>
AV-unprocessed.smi:2439-11

> <Gold.Version>
5.8.1

> <Gold.Id.Protein>
6NUR|6NUR_protein|mol2

> <Gold.PLP.Fitness>
41.6081

> <Gold.PLP.PLP>
-36.0865

> <Gold.PLP.part.hbond>
-1.0000

> <Gold.PLP.part.metal>
0.0000

> <Gold.PLP.part.buried>
-0.7698

> <Gold.PLP.part.nonpolar>
-34.3136

> <Gold.PLP.part.repulsive>
0.2201

> <Gold.PLP.ligand.clash>
0.0000

> <Gold.PLP.ligand.torsion>
0.2468

> <Gold.PLP.Chemscore.Hbond>
1.0000

> <Gold.PLP.Chemscore.CHOScore>
1.0000

> <Gold.PLP.Chemscore.Metal>
0.0000

> <Gold.Chemscore.Hbonds>
donor molecule, donor type, donor heavy atom, donor atom, acceptor molecule, acceptor atom, score
      P1  H 10752 10765       L1     1  1.00
      L1  C     6    23       P1  8028  1.00

> <Gold.PLP.Chemscore.Internal.Correction>
0.0152

> <Gold.Rescore>
     Score         DG    S(hbond)    S(metal)    S(lipo)     H(rot)  DE(clash)    DE(int)     intcor
     17.37     -18.25       1.00        0.00     108.01       1.25       0.46       0.42       ----

> <Gold.Chemscore.Fitness>
17.3716

> <Gold.Chemscore.DG>
-18.2518

> <Gold.Chemscore.ZeroCoef>
-5.4800

> <Gold.Chemscore.Hbond>
0.9971

> <Gold.Chemscore.Metal>
0.0000

> <Gold.Chemscore.Lipo>
108.0145

> <Gold.Chemscore.Internal_Hbond>
0.0000

> <Gold.Chemscore.DEClash>
0.4637

> <Gold.Chemscore.DEInternal>
0.4165

> <Gold.Chemscore.Rot>
1.2485

> <Gold.Chemscore.Internal.Correction>
   9.000000E+99

> <Gold.Chemscore.Hbonds>
donor molecule, donor type, donor heavy atom, donor atom, acceptor molecule, acceptor atom, score
      P1  H 10752 10765       L1     1  1.00

> <Gold.Chemscore.Hbond.Weighted>
-3.3302

> <Gold.Chemscore.Metal.Weighted>
-0.0000

> <Gold.Chemscore.Lipo.Weighted>
-12.6377

> <Gold.Chemscore.Internal_Hbond.Weighted>
0.0000

> <Gold.Chemscore.DEClash.Weighted>
0.4637

> <Gold.Chemscore.DEInternal.Weighted>
0.4165

> <Gold.Chemscore.Rot.Weighted>
3.1961

> <Gold.Chemscore.Internal.Correction.Weighted>
   9.000000E+99

> <Gold.Protein.RotatedTorsions>
[ 6907 6896 6895 6894 ] final   29.64 input  -60.11 | X-H torsion
[ 7974 7965 7964 7962 ] final   43.41 input  175.53 | X-H torsion
[ 8008 7997 7996 7995 ] final  -81.40 input   59.86 | X-H torsion
[ 10167 10162 10161 10158 ] final   81.17 input  -65.29 | X-H torsion
[ 10718 10713 10712 10709 ] final -101.63 input   66.30 | X-H torsion
[ 10763 10752 10751 10750 ] final  166.18 input  -60.55 | X-H torsion
[ 11005 11000 10999 10996 ] final -115.41 input  -57.11 | X-H torsion

> <Gold.Protein.ActiveResidues>
 VAL166  LYS551  ARG553  GLY616  TRP617  ASP618  TYR619  PRO620  LYS621  CYS622 
 ASP623  PHE694  ASN695  SER759  ASP760  ASP761  ALA762  ILE779  LEU786  VAL792 
 PHE793  MET794  SER795  GLU796  ALA797  LYS798  CYS799  TRP800  GLU811  SER814 

> <Gold.Protein.RotatedAtoms>
  152.0344  134.9748  160.0572 H   0  0  0  0  0  0  0  0  0  0  0  0  # atno 6907 bound_to 6896
  152.1212  133.4350  159.4685 H   0  0  0  0  0  0  0  0  0  0  0  0  # atno 6908 bound_to 6896
  150.6849  134.2451  159.4531 H   0  0  0  0  0  0  0  0  0  0  0  0  # atno 6909 bound_to 6896
  146.0657  139.5189  142.9629 H   0  0  0  0  0  0  0  0  0  0  0  0  # atno 7974 bound_to 7965
  154.5979  140.0648  156.9329 H   0  0  0  0  0  0  0  0  0  0  0  0  # atno 8008 bound_to 7997
  155.2182  140.3328  155.4301 H   0  0  0  0  0  0  0  0  0  0  0  0  # atno 8009 bound_to 7997
  156.2299  140.1836  156.7252 H   0  0  0  0  0  0  0  0  0  0  0  0  # atno 8010 bound_to 7997
  139.9421  144.6083  150.8242 H   0  0  0  0  0  0  0  0  0  0  0  0  # atno 10167 bound_to 10162
  156.0201  130.5382  150.6991 H   0  0  0  0  0  0  0  0  0  0  0  0  # atno 10718 bound_to 10713
  154.3352  135.2754  155.2451 H   0  0  0  0  0  0  0  0  0  0  0  0  # atno 10763 bound_to 10752
  154.4746  135.5874  153.6349 H   0  0  0  0  0  0  0  0  0  0  0  0  # atno 10764 bound_to 10752
  152.9862  135.6096  154.3548 H   0  0  0  0  0  0  0  0  0  0  0  0  # atno 10765 bound_to 10752
  141.0489  133.9718  157.2870 H   0  0  0  0  0  0  0  0  0  0  0  0  # atno 11005 bound_to 11000
  145.6481  141.0269  143.1775 LP  0  0  0  0  0  0  0  0  0  0  0  0  # atno 17320 bound_to 7965
  144.7201  139.8059  143.7385 LP  0  0  0  0  0  0  0  0  0  0  0  0  # atno 17321 bound_to 7965
  140.7608  143.3159  151.2734 LP  0  0  0  0  0  0  0  0  0  0  0  0  # atno 17342 bound_to 10162
  139.6696  144.0043  152.2745 LP  0  0  0  0  0  0  0  0  0  0  0  0  # atno 17343 bound_to 10162
  157.4655  131.0888  151.0699 LP  0  0  0  0  0  0  0  0  0  0  0  0  # atno 17370 bound_to 10713
  157.1174  130.6047  149.5497 LP  0  0  0  0  0  0  0  0  0  0  0  0  # atno 17371 bound_to 10713
  139.9334  135.0198  156.8476 LP  0  0  0  0  0  0  0  0  0  0  0  0  # atno 17394 bound_to 11000
  140.6093  134.0097  155.7570 LP  0  0  0  0  0  0  0  0  0  0  0  0  # atno 17395 bound_to 11000

$$$$
