AV-unprocessed.smi:2438|AV-procd|sdf|9601|dock1
  -GOLD-   2272013233D 1   1.00000     0.00000
 Structure written by MMmdl.
 44 45  0  0  0  0  0  0  0  0  2 V2000
  150.7385  141.3130  157.2556 C   0  0  0  0  0  0  0  0  0  0  0  0
  151.1132  139.9047  157.2933 N   0  0  0  0  0  0  0  0  0  0  0  0
  152.4904  139.6157  157.6692 C   0  0  0  0  0  0  0  0  0  0  0  0
  150.6367  139.0983  156.2403 C   0  0  0  0  0  0  0  0  0  0  0  0
  150.9487  139.4588  154.9740 N   0  0  0  0  0  0  0  0  0  0  0  0
  150.5294  138.7123  153.9478 C   0  0  0  0  0  0  0  0  0  0  0  0
  149.7973  137.6027  154.1079 N   0  3  0  0  0  0  0  0  0  0  0  0
  149.4546  137.1995  155.3545 C   0  0  0  0  0  0  0  0  0  0  0  0
  149.8683  137.9355  156.4913 C   0  0  0  0  0  0  0  0  0  0  0  0
  149.5156  137.5962  157.8303 N   0  0  0  0  0  0  0  0  0  0  0  0
  148.5535  136.7682  158.2708 C   0  0  0  0  0  0  0  0  0  0  0  0
  147.7853  136.1271  157.5550 O   0  0  0  0  0  0  0  0  0  0  0  0
  148.5401  136.7188  159.6104 N   0  0  0  0  0  0  0  0  0  0  0  0
  147.6234  135.9308  160.4304 C   0  0  2  0  0  0  0  0  0  0  0  0
  147.8281  136.2758  161.9163 C   0  0  0  0  0  0  0  0  0  0  0  0
  146.9389  135.4064  162.8174 C   0  0  0  0  0  0  0  0  0  0  0  0
  147.1760  133.9102  162.5585 C   0  0  0  0  0  0  0  0  0  0  0  0
  146.9605  133.5474  161.0736 C   0  0  2  0  0  0  0  0  0  0  0  0
  147.1782  132.0435  160.8080 C   0  0  0  0  0  0  0  0  0  0  0  0
  148.3205  131.6253  161.3539 F   0  0  0  0  0  0  0  0  0  0  0  0
  146.1711  131.3383  161.3230 F   0  0  0  0  0  0  0  0  0  0  0  0
  147.2179  131.8130  159.4957 F   0  0  0  0  0  0  0  0  0  0  0  0
  147.8564  134.4294  160.1768 C   0  0  0  0  0  0  0  0  0  0  0  0
  149.6778  141.4284  157.0285 H   0  0  0  0  0  0  0  0  0  0  0  0
  151.3162  141.8513  156.5028 H   0  0  0  0  0  0  0  0  0  0  0  0
  150.9252  141.7782  158.2237 H   0  0  0  0  0  0  0  0  0  0  0  0
  152.6524  138.5501  157.8320 H   0  0  0  0  0  0  0  0  0  0  0  0
  152.7480  140.1366  158.5918 H   0  0  0  0  0  0  0  0  0  0  0  0
  153.1755  139.9491  156.8887 H   0  0  0  0  0  0  0  0  0  0  0  0
  150.7723  138.9935  152.9336 H   0  0  0  0  0  0  0  0  0  0  0  0
  148.8472  136.3084  155.3765 H   0  0  0  0  0  0  0  0  0  0  0  0
  150.0980  138.0125  158.5427 H   0  0  0  0  0  0  0  0  0  0  0  0
  149.2162  137.2791  160.1085 H   0  0  0  0  0  0  0  0  0  0  0  0
  146.5885  136.1591  160.1688 H   0  0  0  0  0  0  0  0  0  0  0  0
  148.8738  136.1281  162.1911 H   0  0  0  0  0  0  0  0  0  0  0  0
  147.6089  137.3300  162.0903 H   0  0  0  0  0  0  0  0  0  0  0  0
  147.1341  135.6375  163.8650 H   0  0  0  0  0  0  0  0  0  0  0  0
  145.8903  135.6472  162.6383 H   0  0  0  0  0  0  0  0  0  0  0  0
  148.1903  133.6465  162.8607 H   0  0  0  0  0  0  0  0  0  0  0  0
  146.5060  133.3251  163.1891 H   0  0  0  0  0  0  0  0  0  0  0  0
  145.9219  133.7730  160.8259 H   0  0  0  0  0  0  0  0  0  0  0  0
  147.6637  134.2056  159.1269 H   0  0  0  0  0  0  0  0  0  0  0  0
  148.9045  134.1851  160.3557 H   0  0  0  0  0  0  0  0  0  0  0  0
  149.4884  137.0607  153.3004 H   0  0  0  0  0  0  0  0  0  0  0  0
  1  2  1  0  0  0  0
  1 24  1  0  0  0  0
  1 25  1  0  0  0  0
  1 26  1  0  0  0  0
  2  3  1  0  0  0  0
  2  4  1  0  0  0  0
  3 27  1  0  0  0  0
  3 28  1  0  0  0  0
  3 29  1  0  0  0  0
  4  9  1  0  0  0  0
  4  5  2  0  0  0  0
  5  6  1  0  0  0  0
  6  7  2  0  0  0  0
  6 30  1  0  0  0  0
  7  8  1  0  0  0  0
  7 44  1  0  0  0  0
  8  9  2  0  0  0  0
  8 31  1  0  0  0  0
  9 10  1  0  0  0  0
 10 11  1  0  0  0  0
 10 32  1  0  0  0  0
 11 12  2  0  0  0  0
 11 13  1  0  0  0  0
 13 14  1  0  0  0  0
 13 33  1  0  0  0  0
 14 23  1  0  0  0  0
 14 15  1  0  0  0  0
 14 34  1  0  0  0  0
 15 16  1  0  0  0  0
 15 35  1  0  0  0  0
 15 36  1  0  0  0  0
 16 17  1  0  0  0  0
 16 37  1  0  0  0  0
 16 38  1  0  0  0  0
 17 18  1  0  0  0  0
 17 39  1  0  0  0  0
 17 40  1  0  0  0  0
 18 19  1  0  0  0  0
 18 23  1  0  0  0  0
 18 41  1  0  0  0  0
 19 20  1  0  0  0  0
 19 21  1  0  0  0  0
 19 22  1  0  0  0  0
 23 42  1  0  0  0  0
 23 43  1  0  0  0  0
M  CHG  1   7   1
M  END
> <s_m_source_file>
AV-unprocessed.smi

> <i_m_source_file_index>
2438

> <i_lp_mmshare_version>
43012

> <i_f3d_flags>
0

> <s_epik_input>
W0NIM11OKFtDSDNdKWMxbltjSF1uW2NIXWMxW05IXUMoPU8pW05IXVtDQEBIXTJbQ0gyXVtDSDJdW0NIMl1bQ0BASF0oQyhGKShGKUYpW0NIMl0y

> <s_epik_cmdline>
J2VwaWtfcHl0aG9uJywgJy1waCcsICc3LjAnLCAnLXRuJywgJzgnLCAnLW1hJywgJzIwMCcsICctbWV0YWxfYmluZGluZycsICctaW1hZScsICc8aW5maWxlLm1hZT4nLCAnLW9tYWUnLCAnPG91dGZpbGUubWFlPic=

> <r_lp_tautomer_probability>
0.999336

> <r_epik_Ionization_Penalty>
2.11643

> <r_epik_Ionization_Penalty_Charging>
2.11639

> <r_epik_Ionization_Penalty_Neutral>
4.47523e-05

> <r_epik_State_Penalty>
2.25369

> <r_epik_Charging_Adjusted_Penalty>
4.37008

> <i_epik_Tot_Q>
1

> <i_epik_Tot_abs_Q>
1

> <r_epik_Metal_State_Penalty>
2.27019

> <b_epik_Metal_Only>
0

> <s_lp_Force_Field>
OPLS_2005

> <r_lp_Energy>
18.5992

> <b_lp_Chiralities_Consistent>
1

> <s_lp_Variant>
AV-unprocessed.smi:2438-7

> <Gold.Version>
5.8.1

> <Gold.Id.Protein>
6NUR|6NUR_protein|mol2

> <Gold.PLP.Fitness>
40.4168

> <Gold.PLP.PLP>
-31.6138

> <Gold.PLP.part.hbond>
-1.7015

> <Gold.PLP.part.metal>
0.0000

> <Gold.PLP.part.buried>
-5.0741

> <Gold.PLP.part.nonpolar>
-25.6400

> <Gold.PLP.part.repulsive>
0.3670

> <Gold.PLP.ligand.clash>
0.0000

> <Gold.PLP.ligand.torsion>
0.7039

> <Gold.PLP.Chemscore.Hbond>
2.2925

> <Gold.PLP.Chemscore.CHOScore>
0.9884

> <Gold.PLP.Chemscore.Metal>
0.0000

> <Gold.Chemscore.Hbonds>
donor molecule, donor type, donor heavy atom, donor atom, acceptor molecule, acceptor atom, score
      L1  H     7    44       P1  7948  2.00
      P1  H  7989  7998       L1     5  0.21
      L1  C     6    30       P1  7957  1.00

> <Gold.PLP.Chemscore.Internal.Correction>
0.3681

> <Gold.Rescore>
     Score         DG    S(hbond)    S(metal)    S(lipo)     H(rot)  DE(clash)    DE(int)     intcor
     11.73     -13.28       1.00        0.00      66.62       1.31       0.01       1.54       ----

> <Gold.Chemscore.Fitness>
11.7328

> <Gold.Chemscore.DG>
-13.2762

> <Gold.Chemscore.ZeroCoef>
-5.4800

> <Gold.Chemscore.Hbond>
1.0029

> <Gold.Chemscore.Metal>
0.0000

> <Gold.Chemscore.Lipo>
66.6205

> <Gold.Chemscore.Internal_Hbond>
0.0000

> <Gold.Chemscore.DEClash>
0.0051

> <Gold.Chemscore.DEInternal>
1.5383

> <Gold.Chemscore.Rot>
1.3078

> <Gold.Chemscore.Internal.Correction>
   9.000000E+99

> <Gold.Chemscore.Hbonds>
donor molecule, donor type, donor heavy atom, donor atom, acceptor molecule, acceptor atom, score
      L1  H     7    44       P1  7948  0.85

> <Gold.Chemscore.Hbond.Weighted>
-3.3496

> <Gold.Chemscore.Metal.Weighted>
-0.0000

> <Gold.Chemscore.Lipo.Weighted>
-7.7946

> <Gold.Chemscore.Internal_Hbond.Weighted>
0.0000

> <Gold.Chemscore.DEClash.Weighted>
0.0051

> <Gold.Chemscore.DEInternal.Weighted>
1.5383

> <Gold.Chemscore.Rot.Weighted>
3.3481

> <Gold.Chemscore.Internal.Correction.Weighted>
   9.000000E+99

> <Gold.Protein.RotatedTorsions>
[ 6907 6896 6895 6894 ] final   36.06 input  -60.11 | X-H torsion
[ 7974 7965 7964 7962 ] final  -17.10 input  175.53 | X-H torsion
[ 8008 7997 7996 7995 ] final -160.32 input   59.86 | X-H torsion
[ 10167 10162 10161 10158 ] final  165.29 input  -65.29 | X-H torsion
[ 10718 10713 10712 10709 ] final  135.69 input   66.30 | X-H torsion
[ 10763 10752 10751 10750 ] final    3.63 input  -60.55 | X-H torsion
[ 11005 11000 10999 10996 ] final -145.67 input  -57.11 | X-H torsion

> <Gold.Protein.ActiveResidues>
 VAL166  LYS551  ARG553  GLY616  TRP617  ASP618  TYR619  PRO620  LYS621  CYS622 
 ASP623  PHE694  ASN695  SER759  ASP760  ASP761  ALA762  ILE779  LEU786  VAL792 
 PHE793  MET794  SER795  GLU796  ALA797  LYS798  CYS799  TRP800  GLU811  SER814 

> <Gold.Protein.RotatedAtoms>
  152.1247  134.9180  160.0561 H   0  0  0  0  0  0  0  0  0  0  0  0  # atno 6907 bound_to 6896
  152.0307  133.3931  159.4304 H   0  0  0  0  0  0  0  0  0  0  0  0  # atno 6908 bound_to 6896
  150.6851  134.3445  159.4926 H   0  0  0  0  0  0  0  0  0  0  0  0  # atno 6909 bound_to 6896
  146.1957  140.3730  142.8441 H   0  0  0  0  0  0  0  0  0  0  0  0  # atno 7974 bound_to 7965
  155.7758  140.0858  157.2085 H   0  0  0  0  0  0  0  0  0  0  0  0  # atno 8008 bound_to 7997
  154.3993  140.1517  156.3051 H   0  0  0  0  0  0  0  0  0  0  0  0  # atno 8009 bound_to 7997
  155.8703  140.3426  155.5819 H   0  0  0  0  0  0  0  0  0  0  0  0  # atno 8010 bound_to 7997
  139.4903  144.4147  151.9257 H   0  0  0  0  0  0  0  0  0  0  0  0  # atno 10167 bound_to 10162
  157.4544  131.1068  150.9995 H   0  0  0  0  0  0  0  0  0  0  0  0  # atno 10718 bound_to 10713
  153.2809  135.6940  153.7386 H   0  0  0  0  0  0  0  0  0  0  0  0  # atno 10763 bound_to 10752
  153.6373  135.3399  155.3061 H   0  0  0  0  0  0  0  0  0  0  0  0  # atno 10764 bound_to 10752
  154.8495  135.4423  154.1862 H   0  0  0  0  0  0  0  0  0  0  0  0  # atno 10765 bound_to 10752
  140.7899  134.2980  157.5017 H   0  0  0  0  0  0  0  0  0  0  0  0  # atno 11005 bound_to 11000
  144.8576  140.7092  143.6128 LP  0  0  0  0  0  0  0  0  0  0  0  0  # atno 17320 bound_to 7965
  145.3651  139.1672  143.4362 LP  0  0  0  0  0  0  0  0  0  0  0  0  # atno 17321 bound_to 7965
  140.3590  144.2996  150.5936 LP  0  0  0  0  0  0  0  0  0  0  0  0  # atno 17342 bound_to 10162
  140.5420  143.2222  151.8070 LP  0  0  0  0  0  0  0  0  0  0  0  0  # atno 17343 bound_to 10162
  157.0814  130.5904  149.5421 LP  0  0  0  0  0  0  0  0  0  0  0  0  # atno 17370 bound_to 10713
  156.0001  130.5078  150.7630 LP  0  0  0  0  0  0  0  0  0  0  0  0  # atno 17371 bound_to 10713
  139.8732  134.9368  156.3671 LP  0  0  0  0  0  0  0  0  0  0  0  0  # atno 17394 bound_to 11000
  140.9400  133.7521  156.0134 LP  0  0  0  0  0  0  0  0  0  0  0  0  # atno 17395 bound_to 11000

$$$$
