AV-unprocessed.smi:1184|AV-procd|sdf|4970|dock2
  -GOLD-   22720 3563D 1   1.00000     0.00000
 Structure written by MMmdl.
 43 44  0  0  0  0  0  0  0  0  2 V2000
  146.2653  132.8105  150.6427 C   0  0  0  0  0  0  0  0  0  0  0  0
  146.2448  131.9093  151.8846 C   0  0  0  0  0  0  0  0  0  0  0  0
  147.5869  131.7762  152.4983 N   0  3  2  0  0  0  0  0  0  0  0  0
  147.6386  130.8303  153.6331 C   0  0  0  0  0  0  0  0  0  0  0  0
  148.7939  131.3122  154.5049 C   0  0  0  0  0  0  0  0  0  0  0  0
  148.6808  132.8313  154.3897 C   0  0  1  0  0  0  0  0  0  0  0  0
  149.9630  133.6048  154.7518 C   0  0  0  0  0  0  0  0  0  0  0  0
  149.6707  134.9531  155.2248 N   0  0  0  0  0  0  0  0  0  0  0  0
  150.5191  135.7274  155.9196 C   0  0  0  0  0  0  0  0  0  0  0  0
  151.6551  135.3732  156.2337 O   0  0  0  0  0  0  0  0  0  0  0  0
  150.0159  137.1178  156.3100 C   0  0  0  0  0  0  0  0  0  0  0  0
  150.8439  138.1802  155.6320 C   0  0  0  0  0  0  0  0  0  0  0  0
  152.2330  138.4475  155.8024 C   0  0  0  0  0  0  0  0  0  0  0  0
  153.2199  137.7445  156.6898 C   0  0  0  0  0  0  0  0  0  0  0  0
  152.6385  139.4555  155.0488 N   0  0  0  0  0  0  0  0  0  0  0  0
  151.5084  139.8905  154.3501 O   0  0  0  0  0  0  0  0  0  0  0  0
  150.4546  139.1156  154.7122 C   0  0  0  0  0  0  0  0  0  0  0  0
  149.1459  139.4325  154.0704 C   0  0  0  0  0  0  0  0  0  0  0  0
  148.2081  133.0484  152.9445 C   0  0  0  0  0  0  0  0  0  0  0  0
  145.2788  132.8497  150.1802 H   0  0  0  0  0  0  0  0  0  0  0  0
  146.9655  132.4361  149.8955 H   0  0  0  0  0  0  0  0  0  0  0  0
  146.5519  133.8330  150.8892 H   0  0  0  0  0  0  0  0  0  0  0  0
  145.5330  132.2853  152.6209 H   0  0  0  0  0  0  0  0  0  0  0  0
  145.8967  130.9185  151.5887 H   0  0  0  0  0  0  0  0  0  0  0  0
  146.7087  130.8838  154.2022 H   0  0  0  0  0  0  0  0  0  0  0  0
  147.7671  129.8020  153.2938 H   0  0  0  0  0  0  0  0  0  0  0  0
  148.7221  130.9570  155.5335 H   0  0  0  0  0  0  0  0  0  0  0  0
  149.7432  130.9673  154.0919 H   0  0  0  0  0  0  0  0  0  0  0  0
  147.8734  133.1539  155.0498 H   0  0  0  0  0  0  0  0  0  0  0  0
  150.5071  133.0822  155.5391 H   0  0  0  0  0  0  0  0  0  0  0  0
  150.6343  133.6500  153.8926 H   0  0  0  0  0  0  0  0  0  0  0  0
  148.7545  135.3236  155.0170 H   0  0  0  0  0  0  0  0  0  0  0  0
  148.9638  137.2064  156.0366 H   0  0  0  0  0  0  0  0  0  0  0  0
  150.0516  137.2116  157.3958 H   0  0  0  0  0  0  0  0  0  0  0  0
  152.7412  137.3756  157.5969 H   0  0  0  0  0  0  0  0  0  0  0  0
  154.0295  138.4085  156.9935 H   0  0  0  0  0  0  0  0  0  0  0  0
  153.6632  136.8904  156.1780 H   0  0  0  0  0  0  0  0  0  0  0  0
  148.4504  138.5984  154.1622 H   0  0  0  0  0  0  0  0  0  0  0  0
  149.2758  139.6454  153.0094 H   0  0  0  0  0  0  0  0  0  0  0  0
  148.6903  140.3052  154.5381 H   0  0  0  0  0  0  0  0  0  0  0  0
  149.0470  133.2647  152.2819 H   0  0  0  0  0  0  0  0  0  0  0  0
  147.5210  133.8940  152.8888 H   0  0  0  0  0  0  0  0  0  0  0  0
  148.1999  131.3958  151.7913 H   0  0  0  0  0  0  0  0  0  0  0  0
  1  2  1  0  0  0  0
  1 20  1  0  0  0  0
  1 21  1  0  0  0  0
  1 22  1  0  0  0  0
  2  3  1  0  0  0  0
  2 23  1  0  0  0  0
  2 24  1  0  0  0  0
  3 19  1  0  0  0  0
  3  4  1  0  0  0  0
  3 43  1  0  0  0  0
  4  5  1  0  0  0  0
  4 25  1  0  0  0  0
  4 26  1  0  0  0  0
  5  6  1  0  0  0  0
  5 27  1  0  0  0  0
  5 28  1  0  0  0  0
  6  7  1  0  0  0  0
  6 19  1  0  0  0  0
  6 29  1  0  0  0  0
  7  8  1  0  0  0  0
  7 30  1  0  0  0  0
  7 31  1  0  0  0  0
  8  9  1  0  0  0  0
  8 32  1  0  0  0  0
  9 10  2  0  0  0  0
  9 11  1  0  0  0  0
 11 12  1  0  0  0  0
 11 33  1  0  0  0  0
 11 34  1  0  0  0  0
 12 17  2  0  0  0  0
 12 13  1  0  0  0  0
 13 14  1  0  0  0  0
 13 15  2  0  0  0  0
 14 35  1  0  0  0  0
 14 36  1  0  0  0  0
 14 37  1  0  0  0  0
 15 16  1  0  0  0  0
 16 17  1  0  0  0  0
 17 18  1  0  0  0  0
 18 38  1  0  0  0  0
 18 39  1  0  0  0  0
 18 40  1  0  0  0  0
 19 41  1  0  0  0  0
 19 42  1  0  0  0  0
M  CHG  1   3   1
M  END
> <s_m_source_file>
AV-unprocessed.smi

> <i_m_source_file_index>
1184

> <i_lp_mmshare_version>
43012

> <i_f3d_flags>
0

> <s_epik_input>
W0NIM11bQ0gyXU4xW0NIMl1bQ0gyXVtDQEhdKFtDSDJdMSlbQ0gyXVtOSF1DKD1PKVtDSDJdYzJjKFtDSDNdKW5vYzJbQ0gzXQ==

> <s_epik_cmdline>
J2VwaWtfcHl0aG9uJywgJy1waCcsICc3LjAnLCAnLXRuJywgJzgnLCAnLW1hJywgJzIwMCcsICctbWV0YWxfYmluZGluZycsICctaW1hZScsICc8aW5maWxlLm1hZT4nLCAnLW9tYWUnLCAnPG91dGZpbGUubWFlPic=

> <r_epik_Ionization_Penalty>
0.000590726

> <r_epik_Ionization_Penalty_Charging>
0.000590692

> <r_epik_Ionization_Penalty_Neutral>
3.44741e-08

> <r_epik_State_Penalty>
0.000371644

> <r_epik_Charging_Adjusted_Penalty>
0.000962336

> <i_epik_Tot_Q>
1

> <i_epik_Tot_abs_Q>
1

> <r_epik_Metal_State_Penalty>
-0

> <b_epik_Metal_Only>
0

> <s_lp_Force_Field>
OPLS_2005

> <r_lp_Energy>
22.2982

> <b_lp_Chiralities_Consistent>
1

> <s_lp_Variant>
AV-unprocessed.smi:1184-2

> <Gold.Version>
5.8.1

> <Gold.Id.Protein>
6NUR|6NUR_protein|mol2

> <Gold.PLP.Fitness>
42.6415

> <Gold.PLP.PLP>
-31.5107

> <Gold.PLP.part.hbond>
-3.7840

> <Gold.PLP.part.metal>
0.0000

> <Gold.PLP.part.buried>
-4.3418

> <Gold.PLP.part.nonpolar>
-23.0873

> <Gold.PLP.part.repulsive>
0.1184

> <Gold.PLP.ligand.clash>
0.0000

> <Gold.PLP.ligand.torsion>
0.4704

> <Gold.PLP.Chemscore.Hbond>
4.0000

> <Gold.PLP.Chemscore.CHOScore>
0.0000

> <Gold.PLP.Chemscore.Metal>
0.0000

> <Gold.Chemscore.Hbonds>
donor molecule, donor type, donor heavy atom, donor atom, acceptor molecule, acceptor atom, score
      L1  H     3    43       P1 10747  1.00
      P1  H  7989  7998       L1    16  0.42
      P1  H  7997  8009       L1    15  0.73
      P1  H 10752 10765       L1    10  1.00

> <Gold.PLP.Chemscore.Internal.Correction>
0.0716

> <Gold.Rescore>
     Score         DG    S(hbond)    S(metal)    S(lipo)     H(rot)  DE(clash)    DE(int)     intcor
     22.12     -22.83       3.88        0.00      74.07       1.67       0.05       0.66       ----

> <Gold.Chemscore.Fitness>
22.1152

> <Gold.Chemscore.DG>
-22.8255

> <Gold.Chemscore.ZeroCoef>
-5.4800

> <Gold.Chemscore.Hbond>
3.8774

> <Gold.Chemscore.Metal>
0.0000

> <Gold.Chemscore.Lipo>
74.0706

> <Gold.Chemscore.Internal_Hbond>
0.0000

> <Gold.Chemscore.DEClash>
0.0544

> <Gold.Chemscore.DEInternal>
0.6560

> <Gold.Chemscore.Rot>
1.6684

> <Gold.Chemscore.Internal.Correction>
   9.000000E+99

> <Gold.Chemscore.Hbonds>
donor molecule, donor type, donor heavy atom, donor atom, acceptor molecule, acceptor atom, score
      L1  H     3    43       P1 10747  1.00
      P1  H  7989  7998       L1    16  0.40
      P1  H  7997  8009       L1    15  0.29
      P1  H 10752 10765       L1    10  0.94

> <Gold.Chemscore.Hbond.Weighted>
-12.9505

> <Gold.Chemscore.Metal.Weighted>
-0.0000

> <Gold.Chemscore.Lipo.Weighted>
-8.6663

> <Gold.Chemscore.Internal_Hbond.Weighted>
0.0000

> <Gold.Chemscore.DEClash.Weighted>
0.0544

> <Gold.Chemscore.DEInternal.Weighted>
0.6560

> <Gold.Chemscore.Rot.Weighted>
4.2712

> <Gold.Chemscore.Internal.Correction.Weighted>
   9.000000E+99

> <Gold.Protein.RotatedTorsions>
[ 6907 6896 6895 6894 ] final   93.99 input  -60.11 | X-H torsion
[ 7974 7965 7964 7962 ] final  123.73 input  175.53 | X-H torsion
[ 8008 7997 7996 7995 ] final -149.35 input   59.86 | X-H torsion
[ 10167 10162 10161 10158 ] final  -42.49 input  -65.29 | X-H torsion
[ 10718 10713 10712 10709 ] final  176.06 input   66.30 | X-H torsion
[ 10763 10752 10751 10750 ] final -161.16 input  -60.55 | X-H torsion
[ 11005 11000 10999 10996 ] final  -90.34 input  -57.11 | X-H torsion

> <Gold.Protein.ActiveResidues>
 VAL166  LYS551  ARG553  GLY616  TRP617  ASP618  TYR619  PRO620  LYS621  CYS622 
 ASP623  PHE694  ASN695  SER759  ASP760  ASP761  ALA762  ILE779  LEU786  VAL792 
 PHE793  MET794  SER795  GLU796  ALA797  LYS798  CYS799  TRP800  GLU811  SER814 

> <Gold.Protein.RotatedAtoms>
  152.5451  134.1263  159.8419 H   0  0  0  0  0  0  0  0  0  0  0  0  # atno 6907 bound_to 6896
  151.1313  133.5027  159.2606 H   0  0  0  0  0  0  0  0  0  0  0  0  # atno 6908 bound_to 6896
  151.1672  135.0311  159.8790 H   0  0  0  0  0  0  0  0  0  0  0  0  # atno 6909 bound_to 6896
  145.0926  139.3576  143.4853 H   0  0  0  0  0  0  0  0  0  0  0  0  # atno 7974 bound_to 7965
  155.6062  140.0667  157.2719 H   0  0  0  0  0  0  0  0  0  0  0  0  # atno 8008 bound_to 7997
  154.4265  140.1809  156.1272 H   0  0  0  0  0  0  0  0  0  0  0  0  # atno 8009 bound_to 7997
  156.0121  140.3325  155.6954 H   0  0  0  0  0  0  0  0  0  0  0  0  # atno 8010 bound_to 7997
  140.6967  143.3035  151.3217 H   0  0  0  0  0  0  0  0  0  0  0  0  # atno 10167 bound_to 10162
  156.9257  130.9955  151.2996 H   0  0  0  0  0  0  0  0  0  0  0  0  # atno 10718 bound_to 10713
  154.7328  135.3050  154.8863 H   0  0  0  0  0  0  0  0  0  0  0  0  # atno 10763 bound_to 10752
  153.9701  135.6743  153.4751 H   0  0  0  0  0  0  0  0  0  0  0  0  # atno 10764 bound_to 10752
  153.0934  135.4948  154.8654 H   0  0  0  0  0  0  0  0  0  0  0  0  # atno 10765 bound_to 10752
  141.1567  133.7686  156.9723 H   0  0  0  0  0  0  0  0  0  0  0  0  # atno 11005 bound_to 11000
  146.3531  140.0767  142.8620 LP  0  0  0  0  0  0  0  0  0  0  0  0  # atno 17320 bound_to 7965
  145.1048  140.9368  143.4691 LP  0  0  0  0  0  0  0  0  0  0  0  0  # atno 17321 bound_to 7965
  139.6432  144.0501  152.2570 LP  0  0  0  0  0  0  0  0  0  0  0  0  # atno 17342 bound_to 10162
  140.0013  144.6291  150.7727 LP  0  0  0  0  0  0  0  0  0  0  0  0  # atno 17343 bound_to 10162
  157.5879  130.8423  149.8616 LP  0  0  0  0  0  0  0  0  0  0  0  0  # atno 17370 bound_to 10713
  156.0470  130.3726  150.1293 LP  0  0  0  0  0  0  0  0  0  0  0  0  # atno 17371 bound_to 10713
  140.1121  134.9470  157.2080 LP  0  0  0  0  0  0  0  0  0  0  0  0  # atno 17394 bound_to 11000
  140.3181  134.2948  155.7252 LP  0  0  0  0  0  0  0  0  0  0  0  0  # atno 17395 bound_to 11000

$$$$
