AV-unprocessed.smi:1083|AV-procd|sdf|4715|dock6
  -GOLD-   22720 3243D 1   1.00000     0.00000
 Structure written by MMmdl.
 43 45  0  0  0  0  0  0  0  0  1 V2000
  152.8675  140.6292  157.9905 O   0  0  0  0  0  0  0  0  0  0  0  0
  151.9628  141.3842  157.6342 C   0  0  0  0  0  0  0  0  0  0  0  0
  151.0499  141.1061  156.6896 N   0  0  0  0  0  0  0  0  0  0  0  0
  150.9553  139.9352  155.8863 C   0  0  0  0  0  0  0  0  0  0  0  0
  152.0039  138.9870  155.8126 C   0  0  0  0  0  0  0  0  0  0  0  0
  151.8251  137.8256  155.0403 C   0  0  0  0  0  0  0  0  0  0  0  0
  150.5982  137.6473  154.3771 C   0  0  0  0  0  0  0  0  0  0  0  0
  149.5853  138.5349  154.4478 N   0  0  0  0  0  0  0  0  0  0  0  0
  149.7497  139.6596  155.1865 C   0  0  0  0  0  0  0  0  0  0  0  0
  148.6805  140.5773  155.2189 N   0  0  0  0  0  0  0  0  0  0  0  0
  148.3587  141.1465  153.9149 C   0  0  0  0  0  0  0  0  0  0  0  0
  147.3758  142.3181  154.0810 C   0  0  0  0  0  0  0  0  0  0  0  0
  146.2186  141.8778  154.7864 O   0  0  0  0  0  0  0  0  0  0  0  0
  146.5353  141.3932  156.0885 C   0  0  0  0  0  0  0  0  0  0  0  0
  147.4919  140.1940  155.9746 C   0  0  0  0  0  0  0  0  0  0  0  0
  151.7812  142.6147  158.1332 N   0  0  0  0  0  0  0  0  0  0  0  0
  152.6231  143.2445  159.1468 C   0  0  0  0  0  0  0  0  0  0  0  0
  152.4867  142.5178  160.4992 C   0  0  0  0  0  0  0  0  0  0  0  0
  152.2077  143.6034  161.5407 C   0  0  0  0  0  0  0  0  0  0  0  0
  151.4996  144.7059  160.7602 C   0  0  0  0  0  0  0  0  0  0  0  0
  152.1960  144.7038  159.3997 C   0  0  0  0  0  0  0  0  0  0  0  0
  150.4278  141.8589  156.4337 H   0  0  0  0  0  0  0  0  0  0  0  0
  152.9303  139.1238  156.3495 H   0  0  0  0  0  0  0  0  0  0  0  0
  152.6073  137.0847  154.9654 H   0  0  0  0  0  0  0  0  0  0  0  0
  150.4229  136.7663  153.7779 H   0  0  0  0  0  0  0  0  0  0  0  0
  149.2586  141.4892  153.4041 H   0  0  0  0  0  0  0  0  0  0  0  0
  147.9141  140.3719  153.2885 H   0  0  0  0  0  0  0  0  0  0  0  0
  147.8461  143.1467  154.6131 H   0  0  0  0  0  0  0  0  0  0  0  0
  147.0740  142.6970  153.1046 H   0  0  0  0  0  0  0  0  0  0  0  0
  146.9798  142.1903  156.6867 H   0  0  0  0  0  0  0  0  0  0  0  0
  145.6148  141.0936  156.5898 H   0  0  0  0  0  0  0  0  0  0  0  0
  146.9864  139.3674  155.4730 H   0  0  0  0  0  0  0  0  0  0  0  0
  147.7783  139.8473  156.9682 H   0  0  0  0  0  0  0  0  0  0  0  0
  151.0129  143.1639  157.7767 H   0  0  0  0  0  0  0  0  0  0  0  0
  153.6662  143.2204  158.8256 H   0  0  0  0  0  0  0  0  0  0  0  0
  151.6483  141.8195  160.4805 H   0  0  0  0  0  0  0  0  0  0  0  0
  153.3784  141.9406  160.7461 H   0  0  0  0  0  0  0  0  0  0  0  0
  151.6177  143.2374  162.3812 H   0  0  0  0  0  0  0  0  0  0  0  0
  153.1504  143.9836  161.9366 H   0  0  0  0  0  0  0  0  0  0  0  0
  150.4465  144.4503  160.6351 H   0  0  0  0  0  0  0  0  0  0  0  0
  151.5520  145.6747  161.2578 H   0  0  0  0  0  0  0  0  0  0  0  0
  153.0857  145.3327  159.4519 H   0  0  0  0  0  0  0  0  0  0  0  0
  151.5612  145.1156  158.6136 H   0  0  0  0  0  0  0  0  0  0  0  0
  1  2  2  0  0  0  0
  2  3  1  0  0  0  0
  2 16  1  0  0  0  0
  3  4  1  0  0  0  0
  3 22  1  0  0  0  0
  4  9  1  0  0  0  0
  4  5  2  0  0  0  0
  5  6  1  0  0  0  0
  5 23  1  0  0  0  0
  6  7  2  0  0  0  0
  6 24  1  0  0  0  0
  7  8  1  0  0  0  0
  7 25  1  0  0  0  0
  8  9  2  0  0  0  0
  9 10  1  0  0  0  0
 10 15  1  0  0  0  0
 10 11  1  0  0  0  0
 11 12  1  0  0  0  0
 11 26  1  0  0  0  0
 11 27  1  0  0  0  0
 12 13  1  0  0  0  0
 12 28  1  0  0  0  0
 12 29  1  0  0  0  0
 13 14  1  0  0  0  0
 14 15  1  0  0  0  0
 14 30  1  0  0  0  0
 14 31  1  0  0  0  0
 15 32  1  0  0  0  0
 15 33  1  0  0  0  0
 16 17  1  0  0  0  0
 16 34  1  0  0  0  0
 17 21  1  0  0  0  0
 17 18  1  0  0  0  0
 17 35  1  0  0  0  0
 18 19  1  0  0  0  0
 18 36  1  0  0  0  0
 18 37  1  0  0  0  0
 19 20  1  0  0  0  0
 19 38  1  0  0  0  0
 19 39  1  0  0  0  0
 20 21  1  0  0  0  0
 20 40  1  0  0  0  0
 20 41  1  0  0  0  0
 21 42  1  0  0  0  0
 21 43  1  0  0  0  0
M  END
> <s_m_source_file>
AV-unprocessed.smi

> <i_m_source_file_index>
1083

> <i_lp_mmshare_version>
43012

> <i_f3d_flags>
0

> <s_epik_input>
W0NIMl0xW0NIMl1bQ0gyXVtDSDJdW0NIXTFbTkhdQyg9TylbTkhdYzJbY0hdW2NIXVtjSF1uYzJOM1tDSDJdW0NIMl1PW0NIMl1bQ0gyXTM=

> <s_epik_cmdline>
J2VwaWtfcHl0aG9uJywgJy1waCcsICc3LjAnLCAnLXRuJywgJzgnLCAnLW1hJywgJzIwMCcsICctbWV0YWxfYmluZGluZycsICctaW1hZScsICc8aW5maWxlLm1hZT4nLCAnLW9tYWUnLCAnPG91dGZpbGUubWFlPic=

> <r_lp_tautomer_probability>
1

> <r_epik_Ionization_Penalty>
0.00217669

> <r_epik_Ionization_Penalty_Charging>
0

> <r_epik_Ionization_Penalty_Neutral>
0.00217669

> <r_epik_State_Penalty>
0.00146536

> <r_epik_Charging_Adjusted_Penalty>
0.00146536

> <i_epik_Tot_Q>
0

> <i_epik_Tot_abs_Q>
0

> <r_epik_Metal_State_Penalty>
-0

> <b_epik_Metal_Only>
0

> <s_lp_Force_Field>
OPLS_2005

> <r_lp_Energy>
35.5183

> <b_lp_Chiralities_Consistent>
1

> <s_lp_Variant>
AV-unprocessed.smi:1083-1

> <Gold.Version>
5.8.1

> <Gold.Id.Protein>
6NUR|6NUR_protein|mol2

> <Gold.PLP.Fitness>
45.0420

> <Gold.PLP.PLP>
-39.9888

> <Gold.PLP.part.hbond>
-1.0000

> <Gold.PLP.part.metal>
0.0000

> <Gold.PLP.part.buried>
-2.9237

> <Gold.PLP.part.nonpolar>
-36.4930

> <Gold.PLP.part.repulsive>
0.5611

> <Gold.PLP.ligand.clash>
0.0000

> <Gold.PLP.ligand.torsion>
0.2079

> <Gold.PLP.Chemscore.Hbond>
0.7020

> <Gold.PLP.Chemscore.CHOScore>
1.0511

> <Gold.PLP.Chemscore.Metal>
0.0000

> <Gold.Chemscore.Hbonds>
donor molecule, donor type, donor heavy atom, donor atom, acceptor molecule, acceptor atom, score
      P1  H  7997  8009       L1     1  0.69
      L1  C     7    25       P1  7948  0.63
      L1  C     7    25       P1  7949  0.40

> <Gold.PLP.Chemscore.Internal.Correction>
0.2095

> <Gold.Rescore>
     Score         DG    S(hbond)    S(metal)    S(lipo)     H(rot)  DE(clash)    DE(int)     intcor
     15.92     -17.47       0.92        0.00     102.23       1.19       0.01       1.53       ----

> <Gold.Chemscore.Fitness>
15.9224

> <Gold.Chemscore.DG>
-17.4678

> <Gold.Chemscore.ZeroCoef>
-5.4800

> <Gold.Chemscore.Hbond>
0.9209

> <Gold.Chemscore.Metal>
0.0000

> <Gold.Chemscore.Lipo>
102.2287

> <Gold.Chemscore.Internal_Hbond>
0.0000

> <Gold.Chemscore.DEClash>
0.0107

> <Gold.Chemscore.DEInternal>
1.5347

> <Gold.Chemscore.Rot>
1.1909

> <Gold.Chemscore.Internal.Correction>
   9.000000E+99

> <Gold.Chemscore.Hbonds>
donor molecule, donor type, donor heavy atom, donor atom, acceptor molecule, acceptor atom, score
      P1  H  7997  8009       L1     1  0.66

> <Gold.Chemscore.Hbond.Weighted>
-3.0757

> <Gold.Chemscore.Metal.Weighted>
-0.0000

> <Gold.Chemscore.Lipo.Weighted>
-11.9608

> <Gold.Chemscore.Internal_Hbond.Weighted>
0.0000

> <Gold.Chemscore.DEClash.Weighted>
0.0107

> <Gold.Chemscore.DEInternal.Weighted>
1.5347

> <Gold.Chemscore.Rot.Weighted>
3.0487

> <Gold.Chemscore.Internal.Correction.Weighted>
   9.000000E+99

> <Gold.Protein.RotatedTorsions>
[ 6907 6896 6895 6894 ] final  168.80 input  -60.11 | X-H torsion
[ 7974 7965 7964 7962 ] final -131.23 input  175.53 | X-H torsion
[ 8008 7997 7996 7995 ] final  154.67 input   59.86 | X-H torsion
[ 10167 10162 10161 10158 ] final -119.75 input  -65.29 | X-H torsion
[ 10718 10713 10712 10709 ] final -108.78 input   66.30 | X-H torsion
[ 10763 10752 10751 10750 ] final   20.61 input  -60.55 | X-H torsion
[ 11005 11000 10999 10996 ] final   -3.72 input  -57.11 | X-H torsion

> <Gold.Protein.ActiveResidues>
 VAL166  LYS551  ARG553  GLY616  TRP617  ASP618  TYR619  PRO620  LYS621  CYS622 
 ASP623  PHE694  ASN695  SER759  ASP760  ASP761  ALA762  ILE779  LEU786  VAL792 
 PHE793  MET794  SER795  GLU796  ALA797  LYS798  CYS799  TRP800  GLU811  SER814 

> <Gold.Protein.RotatedAtoms>
  151.8420  133.3425  159.3645 H   0  0  0  0  0  0  0  0  0  0  0  0  # atno 6907 bound_to 6896
  150.7232  134.5382  159.5743 H   0  0  0  0  0  0  0  0  0  0  0  0  # atno 6908 bound_to 6896
  152.2857  134.7779  160.0439 H   0  0  0  0  0  0  0  0  0  0  0  0  # atno 6909 bound_to 6896
  144.9399  140.7226  143.4853 H   0  0  0  0  0  0  0  0  0  0  0  0  # atno 7974 bound_to 7965
  156.2519  140.1960  156.6681 H   0  0  0  0  0  0  0  0  0  0  0  0  # atno 8008 bound_to 7997
  154.6413  140.0583  156.9874 H   0  0  0  0  0  0  0  0  0  0  0  0  # atno 8009 bound_to 7997
  155.1558  140.3255  155.4424 H   0  0  0  0  0  0  0  0  0  0  0  0  # atno 8010 bound_to 7997
  140.0432  143.5132  152.2119 H   0  0  0  0  0  0  0  0  0  0  0  0  # atno 10167 bound_to 10162
  156.0503  130.5730  150.8008 H   0  0  0  0  0  0  0  0  0  0  0  0  # atno 10718 bound_to 10713
  153.1063  135.6685  153.9581 H   0  0  0  0  0  0  0  0  0  0  0  0  # atno 10763 bound_to 10752
  153.9137  135.3022  155.3450 H   0  0  0  0  0  0  0  0  0  0  0  0  # atno 10764 bound_to 10752
  154.7484  135.5046  153.9321 H   0  0  0  0  0  0  0  0  0  0  0  0  # atno 10765 bound_to 10752
  140.6724  133.9225  155.8503 H   0  0  0  0  0  0  0  0  0  0  0  0  # atno 11005 bound_to 11000
  145.3008  139.1851  143.4691 LP  0  0  0  0  0  0  0  0  0  0  0  0  # atno 17320 bound_to 7965
  146.3281  140.2998  142.8620 LP  0  0  0  0  0  0  0  0  0  0  0  0  # atno 17321 bound_to 7965
  139.6000  144.7579  151.3194 LP  0  0  0  0  0  0  0  0  0  0  0  0  # atno 17342 bound_to 10162
  140.7250  143.7028  150.7831 LP  0  0  0  0  0  0  0  0  0  0  0  0  # atno 17343 bound_to 10162
  157.5422  131.0941  150.9812 LP  0  0  0  0  0  0  0  0  0  0  0  0  # atno 17370 bound_to 10713
  157.0092  130.5630  149.5319 LP  0  0  0  0  0  0  0  0  0  0  0  0  # atno 17371 bound_to 10713
  141.0382  134.0659  157.3934 LP  0  0  0  0  0  0  0  0  0  0  0  0  # atno 17394 bound_to 11000
  139.8977  135.0151  156.7115 LP  0  0  0  0  0  0  0  0  0  0  0  0  # atno 17395 bound_to 11000

$$$$
