AV-unprocessed.smi:1362|AV-procd|sdf|5558|dock2
  -GOLD-   22720 5153D 1   1.00000     0.00000
 Structure written by MMmdl.
 39 39  0  0  0  0  0  0  0  0  1 V2000
  148.0069  141.3425  153.4992 C   0  0  0  0  0  0  0  0  0  0  0  0
  148.8570  140.8937  154.6688 C   0  0  0  0  0  0  0  0  0  0  0  0
  150.0510  140.4133  154.5496 N   0  0  0  0  0  0  0  0  0  0  0  0
  150.7409  140.0289  155.7078 C   0  0  0  0  0  0  0  0  0  0  0  0
  152.1363  139.4703  155.4857 C   0  0  0  0  0  0  0  0  0  0  0  0
  150.1830  140.1527  156.9478 C   0  0  0  0  0  0  0  0  0  0  0  0
  150.9093  139.7385  158.2269 C   0  0  0  0  0  0  0  0  0  0  0  0
  152.1920  140.5103  158.5460 C   0  0  0  0  0  0  0  0  0  0  0  0
  153.2853  139.9452  158.5118 O   0  0  0  0  0  0  0  0  0  0  0  0
  152.0397  141.8095  158.8444 N   0  0  0  0  0  0  0  0  0  0  0  0
  153.1212  142.7545  159.1189 C   0  0  2  0  0  0  0  0  0  0  0  0
  153.7008  142.4575  160.5148 C   0  0  0  0  0  0  0  0  0  0  0  0
  152.6067  144.2101  158.9626 C   0  0  0  0  0  0  0  0  0  0  0  0
  151.7015  144.6380  160.1351 C   0  0  0  0  0  0  0  0  0  0  0  0
  151.8621  144.4315  157.6335 C   0  0  0  0  0  0  0  0  0  0  0  0
  148.8194  140.7032  157.0721 C   0  0  0  0  0  0  0  0  0  0  0  0
  148.2213  140.8543  158.1363 O   0  0  0  0  0  0  0  0  0  0  0  0
  148.2308  141.0468  155.9046 N   0  0  0  0  0  0  0  0  0  0  0  0
  147.2962  141.4275  155.9367 H   0  0  0  0  0  0  0  0  0  0  0  0
  147.8258  140.5051  152.8248 H   0  0  0  0  0  0  0  0  0  0  0  0
  148.5191  142.1275  152.9423 H   0  0  0  0  0  0  0  0  0  0  0  0
  147.0418  141.7308  153.8279 H   0  0  0  0  0  0  0  0  0  0  0  0
  152.8832  140.1107  155.9546 H   0  0  0  0  0  0  0  0  0  0  0  0
  152.3724  139.4047  154.4230 H   0  0  0  0  0  0  0  0  0  0  0  0
  152.2231  138.4683  155.9062 H   0  0  0  0  0  0  0  0  0  0  0  0
  150.2181  139.8508  159.0630 H   0  0  0  0  0  0  0  0  0  0  0  0
  151.1493  138.6750  158.2072 H   0  0  0  0  0  0  0  0  0  0  0  0
  151.1015  142.1826  158.8529 H   0  0  0  0  0  0  0  0  0  0  0  0
  153.9133  142.6020  158.3832 H   0  0  0  0  0  0  0  0  0  0  0  0
  154.5922  143.0507  160.7167 H   0  0  0  0  0  0  0  0  0  0  0  0
  153.9945  141.4113  160.6051 H   0  0  0  0  0  0  0  0  0  0  0  0
  152.9731  142.6656  161.2999 H   0  0  0  0  0  0  0  0  0  0  0  0
  153.4712  144.8759  158.9644 H   0  0  0  0  0  0  0  0  0  0  0  0
  150.8333  143.9841  160.2228 H   0  0  0  0  0  0  0  0  0  0  0  0
  151.3363  145.6562  159.9972 H   0  0  0  0  0  0  0  0  0  0  0  0
  152.2299  144.6185  161.0884 H   0  0  0  0  0  0  0  0  0  0  0  0
  151.0187  143.7477  157.5325 H   0  0  0  0  0  0  0  0  0  0  0  0
  152.5155  144.2893  156.7733 H   0  0  0  0  0  0  0  0  0  0  0  0
  151.4731  145.4479  157.5668 H   0  0  0  0  0  0  0  0  0  0  0  0
  1  2  1  0  0  0  0
  1 20  1  0  0  0  0
  1 21  1  0  0  0  0
  1 22  1  0  0  0  0
  2 18  1  0  0  0  0
  2  3  2  0  0  0  0
  3  4  1  0  0  0  0
  4  5  1  0  0  0  0
  4  6  2  0  0  0  0
  5 23  1  0  0  0  0
  5 24  1  0  0  0  0
  5 25  1  0  0  0  0
  6  7  1  0  0  0  0
  6 16  1  0  0  0  0
  7  8  1  0  0  0  0
  7 26  1  0  0  0  0
  7 27  1  0  0  0  0
  8  9  2  0  0  0  0
  8 10  1  0  0  0  0
 10 11  1  0  0  0  0
 10 28  1  0  0  0  0
 11 12  1  0  0  0  0
 11 13  1  0  0  0  0
 11 29  1  0  0  0  0
 12 30  1  0  0  0  0
 12 31  1  0  0  0  0
 12 32  1  0  0  0  0
 13 14  1  0  0  0  0
 13 15  1  0  0  0  0
 13 33  1  0  0  0  0
 14 34  1  0  0  0  0
 14 35  1  0  0  0  0
 14 36  1  0  0  0  0
 15 37  1  0  0  0  0
 15 38  1  0  0  0  0
 15 39  1  0  0  0  0
 16 17  2  0  0  0  0
 16 18  1  0  0  0  0
 18 19  1  0  0  0  0
M  END
> <s_m_source_file>
AV-unprocessed.smi

> <i_m_source_file_index>
1362

> <i_lp_mmshare_version>
43012

> <i_f3d_flags>
0

> <s_epik_input>
W0NIM11jMW5jKFtDSDNdKWMoYyg9TylbbkhdMSlbQ0gyXUMoPU8pW05IXVtDQEhdKFtDSDNdKVtDSF0oW0NIM10pW0NIM10=

> <s_epik_cmdline>
J2VwaWtfcHl0aG9uJywgJy1waCcsICc3LjAnLCAnLXRuJywgJzgnLCAnLW1hJywgJzIwMCcsICctbWV0YWxfYmluZGluZycsICctaW1hZScsICc8aW5maWxlLm1hZT4nLCAnLW9tYWUnLCAnPG91dGZpbGUubWFlPic=

> <r_lp_tautomer_probability>
0.839158

> <r_epik_Ionization_Penalty>
0.000388977

> <r_epik_Ionization_Penalty_Charging>
0.000356458

> <r_epik_Ionization_Penalty_Neutral>
3.25191e-05

> <r_epik_State_Penalty>
0.0469868

> <r_epik_Charging_Adjusted_Penalty>
0.0473433

> <i_epik_Tot_Q>
0

> <i_epik_Tot_abs_Q>
0

> <r_epik_Metal_State_Penalty>
0.223288

> <b_epik_Metal_Only>
0

> <s_lp_Force_Field>
OPLS_2005

> <r_lp_Energy>
7.29912

> <b_lp_Chiralities_Consistent>
1

> <s_lp_Variant>
AV-unprocessed.smi:1362-1

> <Gold.Version>
5.8.1

> <Gold.Id.Protein>
6NUR|6NUR_protein|mol2

> <Gold.PLP.Fitness>
43.8480

> <Gold.PLP.PLP>
-38.9448

> <Gold.PLP.part.hbond>
-3.0000

> <Gold.PLP.part.metal>
0.0000

> <Gold.PLP.part.buried>
-4.0213

> <Gold.PLP.part.nonpolar>
-32.1094

> <Gold.PLP.part.repulsive>
0.2168

> <Gold.PLP.ligand.clash>
0.0000

> <Gold.PLP.ligand.torsion>
0.3811

> <Gold.PLP.Chemscore.Hbond>
1.8664

> <Gold.PLP.Chemscore.CHOScore>
0.0000

> <Gold.PLP.Chemscore.Metal>
0.0000

> <Gold.Chemscore.Hbonds>
donor molecule, donor type, donor heavy atom, donor atom, acceptor molecule, acceptor atom, score
      P1  H  7989  7998       L1     3  0.79
      P1  H  7997  8008       L1     9  1.00

> <Gold.PLP.Chemscore.Internal.Correction>
0.0662

> <Gold.Rescore>
     Score         DG    S(hbond)    S(metal)    S(lipo)     H(rot)  DE(clash)    DE(int)     intcor
     14.98     -15.27       1.00        0.00      92.04       1.69       0.00       0.29       ----

> <Gold.Chemscore.Fitness>
14.9768

> <Gold.Chemscore.DG>
-15.2710

> <Gold.Chemscore.ZeroCoef>
-5.4800

> <Gold.Chemscore.Hbond>
1.0039

> <Gold.Chemscore.Metal>
0.0000

> <Gold.Chemscore.Lipo>
92.0391

> <Gold.Chemscore.Internal_Hbond>
0.0000

> <Gold.Chemscore.DEClash>
0.0009

> <Gold.Chemscore.DEInternal>
0.2933

> <Gold.Chemscore.Rot>
1.6916

> <Gold.Chemscore.Internal.Correction>
   9.000000E+99

> <Gold.Chemscore.Hbonds>
donor molecule, donor type, donor heavy atom, donor atom, acceptor molecule, acceptor atom, score
      P1  H  7989  7998       L1     3  0.13
      P1  H  7997  8008       L1     9  0.96

> <Gold.Chemscore.Hbond.Weighted>
-3.3529

> <Gold.Chemscore.Metal.Weighted>
-0.0000

> <Gold.Chemscore.Lipo.Weighted>
-10.7686

> <Gold.Chemscore.Internal_Hbond.Weighted>
0.0000

> <Gold.Chemscore.DEClash.Weighted>
0.0009

> <Gold.Chemscore.DEInternal.Weighted>
0.2933

> <Gold.Chemscore.Rot.Weighted>
4.3305

> <Gold.Chemscore.Internal.Correction.Weighted>
   9.000000E+99

> <Gold.Protein.RotatedTorsions>
[ 6907 6896 6895 6894 ] final  -85.63 input  -60.11 | X-H torsion
[ 7974 7965 7964 7962 ] final   98.48 input  175.53 | X-H torsion
[ 8008 7997 7996 7995 ] final  -89.08 input   59.86 | X-H torsion
[ 10167 10162 10161 10158 ] final  -45.99 input  -65.29 | X-H torsion
[ 10718 10713 10712 10709 ] final    3.43 input   66.30 | X-H torsion
[ 10763 10752 10751 10750 ] final   68.71 input  -60.55 | X-H torsion
[ 11005 11000 10999 10996 ] final  -27.31 input  -57.11 | X-H torsion

> <Gold.Protein.ActiveResidues>
 VAL166  LYS551  ARG553  GLY616  TRP617  ASP618  TYR619  PRO620  LYS621  CYS622 
 ASP623  PHE694  ASN695  SER759  ASP760  ASP761  ALA762  ILE779  LEU786  VAL792 
 PHE793  MET794  SER795  GLU796  ALA797  LYS798  CYS799  TRP800  GLU811  SER814 

> <Gold.Protein.RotatedAtoms>
  150.6869  134.3175  159.4772 H   0  0  0  0  0  0  0  0  0  0  0  0  # atno 6907 bound_to 6896
  152.1054  134.9309  160.0577 H   0  0  0  0  0  0  0  0  0  0  0  0  # atno 6908 bound_to 6896
  152.0573  133.4011  159.4439 H   0  0  0  0  0  0  0  0  0  0  0  0  # atno 6909 bound_to 6896
  145.4116  139.2333  143.3245 H   0  0  0  0  0  0  0  0  0  0  0  0  # atno 7974 bound_to 7965
  154.6824  140.0546  157.0279 H   0  0  0  0  0  0  0  0  0  0  0  0  # atno 8008 bound_to 7997
  155.0933  140.3221  155.4549 H   0  0  0  0  0  0  0  0  0  0  0  0  # atno 8009 bound_to 7997
  156.2699  140.2044  156.6060 H   0  0  0  0  0  0  0  0  0  0  0  0  # atno 8010 bound_to 7997
  140.6835  143.2852  151.3719 H   0  0  0  0  0  0  0  0  0  0  0  0  # atno 10167 bound_to 10162
  156.8778  130.5643  149.5654 H   0  0  0  0  0  0  0  0  0  0  0  0  # atno 10718 bound_to 10713
  153.0249  135.5237  154.7177 H   0  0  0  0  0  0  0  0  0  0  0  0  # atno 10763 bound_to 10752
  154.6241  135.2892  155.0294 H   0  0  0  0  0  0  0  0  0  0  0  0  # atno 10764 bound_to 10752
  154.1270  135.6599  153.4967 H   0  0  0  0  0  0  0  0  0  0  0  0  # atno 10765 bound_to 10752
  140.9107  133.7462  156.0667 H   0  0  0  0  0  0  0  0  0  0  0  0  # atno 11005 bound_to 11000
  146.2702  140.4828  142.8817 LP  0  0  0  0  0  0  0  0  0  0  0  0  # atno 17320 bound_to 7965
  144.8305  140.6699  143.6294 LP  0  0  0  0  0  0  0  0  0  0  0  0  # atno 17321 bound_to 7965
  139.6176  144.0972  152.2360 LP  0  0  0  0  0  0  0  0  0  0  0  0  # atno 17342 bound_to 10162
  140.0406  144.6010  150.7414 LP  0  0  0  0  0  0  0  0  0  0  0  0  # atno 17343 bound_to 10162
  156.0693  130.5729  150.9351 LP  0  0  0  0  0  0  0  0  0  0  0  0  # atno 17370 bound_to 10713
  157.6158  131.0933  150.8712 LP  0  0  0  0  0  0  0  0  0  0  0  0  # atno 17371 bound_to 10713
  140.8113  134.3396  157.5411 LP  0  0  0  0  0  0  0  0  0  0  0  0  # atno 17394 bound_to 11000
  139.8757  134.9256  156.3378 LP  0  0  0  0  0  0  0  0  0  0  0  0  # atno 17395 bound_to 11000

$$$$
