AV-unprocessed.smi:931|AV-procd|sdf|4198|dock5
  -GOLD-   22720 2103D 1   1.00000     0.00000
 Structure written by MMmdl.
 36 37  0  0  0  0  0  0  0  0  1 V2000
  149.8865  144.7155  160.2246 C   0  0  0  0  0  0  0  0  0  0  0  0
  151.3902  144.9750  160.3941 C   0  0  0  0  0  0  0  0  0  0  0  0
  152.0022  145.7584  159.2237 C   0  0  0  0  0  0  0  0  0  0  0  0
  152.1483  143.7192  160.6900 C   0  0  0  0  0  0  0  0  0  0  0  0
  152.3732  142.7574  159.7892 N   0  0  0  0  0  0  0  0  0  0  0  0
  153.1015  141.6851  160.3133 C   0  0  0  0  0  0  0  0  0  0  0  0
  153.4562  140.5214  159.4389 C   0  0  0  0  0  0  0  0  0  0  0  0
  152.2325  139.6470  159.1175 C   0  0  0  0  0  0  0  0  0  0  0  0
  151.5115  140.1321  157.9463 N   0  0  0  0  0  0  0  0  0  0  0  0
  151.8783  139.9172  156.6730 C   0  0  0  0  0  0  0  0  0  0  0  0
  152.8588  139.2482  156.3473 O   0  0  0  0  0  0  0  0  0  0  0  0
  151.0200  140.4400  155.7827 N   0  0  0  0  0  0  0  0  0  0  0  0
  150.2939  139.8132  154.6819 C   0  0  0  0  0  0  0  0  0  0  0  0
  149.4896  141.1081  154.5965 C   0  0  0  0  0  0  0  0  0  0  0  0
  150.0238  141.4867  155.9758 C   0  0  0  0  0  0  0  0  0  0  0  0
  153.4300  141.8495  161.6356 C   0  0  0  0  0  0  0  0  0  0  0  0
  152.8334  143.3576  162.2710 S   0  0  0  0  0  0  0  0  0  0  0  0
  149.4703  144.2323  161.1090 H   0  0  0  0  0  0  0  0  0  0  0  0
  149.6889  144.0706  159.3678 H   0  0  0  0  0  0  0  0  0  0  0  0
  149.3421  145.6475  160.0713 H   0  0  0  0  0  0  0  0  0  0  0  0
  151.4942  145.6098  161.2748 H   0  0  0  0  0  0  0  0  0  0  0  0
  153.0469  146.0020  159.4190 H   0  0  0  0  0  0  0  0  0  0  0  0
  151.4703  146.6956  159.0575 H   0  0  0  0  0  0  0  0  0  0  0  0
  151.9610  145.1843  158.2973 H   0  0  0  0  0  0  0  0  0  0  0  0
  153.9047  140.8822  158.5126 H   0  0  0  0  0  0  0  0  0  0  0  0
  154.2217  139.9132  159.9227 H   0  0  0  0  0  0  0  0  0  0  0  0
  152.5490  138.6228  158.9190 H   0  0  0  0  0  0  0  0  0  0  0  0
  151.5596  139.6034  159.9756 H   0  0  0  0  0  0  0  0  0  0  0  0
  150.6748  140.6716  158.1144 H   0  0  0  0  0  0  0  0  0  0  0  0
  150.8940  139.6099  153.7942 H   0  0  0  0  0  0  0  0  0  0  0  0
  149.7003  138.9480  154.9819 H   0  0  0  0  0  0  0  0  0  0  0  0
  149.8418  141.7754  153.8081 H   0  0  0  0  0  0  0  0  0  0  0  0
  148.4092  140.9665  154.5549 H   0  0  0  0  0  0  0  0  0  0  0  0
  149.3236  141.2840  156.7879 H   0  0  0  0  0  0  0  0  0  0  0  0
  150.4293  142.4976  156.0293 H   0  0  0  0  0  0  0  0  0  0  0  0
  153.9884  141.1780  162.2710 H   0  0  0  0  0  0  0  0  0  0  0  0
  1  2  1  0  0  0  0
  1 18  1  0  0  0  0
  1 19  1  0  0  0  0
  1 20  1  0  0  0  0
  2  3  1  0  0  0  0
  2  4  1  0  0  0  0
  2 21  1  0  0  0  0
  3 22  1  0  0  0  0
  3 23  1  0  0  0  0
  3 24  1  0  0  0  0
  4 17  1  0  0  0  0
  4  5  2  0  0  0  0
  5  6  1  0  0  0  0
  6  7  1  0  0  0  0
  6 16  2  0  0  0  0
  7  8  1  0  0  0  0
  7 25  1  0  0  0  0
  7 26  1  0  0  0  0
  8  9  1  0  0  0  0
  8 27  1  0  0  0  0
  8 28  1  0  0  0  0
  9 10  1  0  0  0  0
  9 29  1  0  0  0  0
 10 11  2  0  0  0  0
 10 12  1  0  0  0  0
 12 15  1  0  0  0  0
 12 13  1  0  0  0  0
 13 14  1  0  0  0  0
 13 30  1  0  0  0  0
 13 31  1  0  0  0  0
 14 15  1  0  0  0  0
 14 32  1  0  0  0  0
 14 33  1  0  0  0  0
 15 34  1  0  0  0  0
 15 35  1  0  0  0  0
 16 17  1  0  0  0  0
 16 36  1  0  0  0  0
M  END
> <s_m_source_file>
AV-unprocessed.smi

> <i_m_source_file_index>
931

> <i_lp_mmshare_version>
43012

> <i_f3d_flags>
0

> <s_epik_input>
W0NIM11bQ0hdKFtDSDNdKWMxbmMoW2NIXXMxKVtDSDJdW0NIMl1bTkhdQyg9TylOMltDSDJdW0NIMl1bQ0gyXTI=

> <s_epik_cmdline>
J2VwaWtfcHl0aG9uJywgJy1waCcsICc3LjAnLCAnLXRuJywgJzgnLCAnLW1hJywgJzIwMCcsICctbWV0YWxfYmluZGluZycsICctaW1hZScsICc8aW5maWxlLm1hZT4nLCAnLW9tYWUnLCAnPG91dGZpbGUubWFlPic=

> <r_epik_Ionization_Penalty>
0.00159927

> <r_epik_Ionization_Penalty_Charging>
0

> <r_epik_Ionization_Penalty_Neutral>
0.00159927

> <r_epik_State_Penalty>
0.00102964

> <r_epik_Charging_Adjusted_Penalty>
0.00102964

> <i_epik_Tot_Q>
0

> <i_epik_Tot_abs_Q>
0

> <r_epik_Metal_State_Penalty>
-0

> <b_epik_Metal_Only>
0

> <s_lp_Force_Field>
OPLS_2005

> <r_lp_Energy>
8.94744

> <b_lp_Chiralities_Consistent>
1

> <s_lp_Variant>
AV-unprocessed.smi:931-1

> <Gold.Version>
5.8.1

> <Gold.Id.Protein>
6NUR|6NUR_protein|mol2

> <Gold.PLP.Fitness>
44.3177

> <Gold.PLP.PLP>
-43.1545

> <Gold.PLP.part.hbond>
-1.0000

> <Gold.PLP.part.metal>
0.0000

> <Gold.PLP.part.buried>
-3.3007

> <Gold.PLP.part.nonpolar>
-38.6473

> <Gold.PLP.part.repulsive>
0.0814

> <Gold.PLP.ligand.clash>
0.0000

> <Gold.PLP.ligand.torsion>
1.1175

> <Gold.PLP.Chemscore.Hbond>
1.0000

> <Gold.PLP.Chemscore.CHOScore>
0.0000

> <Gold.PLP.Chemscore.Metal>
0.0000

> <Gold.Chemscore.Hbonds>
donor molecule, donor type, donor heavy atom, donor atom, acceptor molecule, acceptor atom, score
      P1  H  7997  8008       L1    11  1.00

> <Gold.PLP.Chemscore.Internal.Correction>
0.3982

> <Gold.Rescore>
     Score         DG    S(hbond)    S(metal)    S(lipo)     H(rot)  DE(clash)    DE(int)     intcor
     16.91     -18.29       0.98        0.00     113.91       1.48       0.34       1.05       ----

> <Gold.Chemscore.Fitness>
16.9096

> <Gold.Chemscore.DG>
-18.2932

> <Gold.Chemscore.ZeroCoef>
-5.4800

> <Gold.Chemscore.Hbond>
0.9839

> <Gold.Chemscore.Metal>
0.0000

> <Gold.Chemscore.Lipo>
113.9121

> <Gold.Chemscore.Internal_Hbond>
0.0000

> <Gold.Chemscore.DEClash>
0.3375

> <Gold.Chemscore.DEInternal>
1.0461

> <Gold.Chemscore.Rot>
1.4847

> <Gold.Chemscore.Internal.Correction>
   9.000000E+99

> <Gold.Chemscore.Hbonds>
donor molecule, donor type, donor heavy atom, donor atom, acceptor molecule, acceptor atom, score
      P1  H  7997  8008       L1    11  0.88

> <Gold.Chemscore.Hbond.Weighted>
-3.2864

> <Gold.Chemscore.Metal.Weighted>
-0.0000

> <Gold.Chemscore.Lipo.Weighted>
-13.3277

> <Gold.Chemscore.Internal_Hbond.Weighted>
0.0000

> <Gold.Chemscore.DEClash.Weighted>
0.3375

> <Gold.Chemscore.DEInternal.Weighted>
1.0461

> <Gold.Chemscore.Rot.Weighted>
3.8009

> <Gold.Chemscore.Internal.Correction.Weighted>
   9.000000E+99

> <Gold.Protein.RotatedTorsions>
[ 6907 6896 6895 6894 ] final  111.74 input  -60.11 | X-H torsion
[ 7974 7965 7964 7962 ] final  -78.62 input  175.53 | X-H torsion
[ 8008 7997 7996 7995 ] final  -51.76 input   59.86 | X-H torsion
[ 10167 10162 10161 10158 ] final  -30.28 input  -65.29 | X-H torsion
[ 10718 10713 10712 10709 ] final   87.97 input   66.30 | X-H torsion
[ 10763 10752 10751 10750 ] final   26.88 input  -60.55 | X-H torsion
[ 11005 11000 10999 10996 ] final -105.03 input  -57.11 | X-H torsion

> <Gold.Protein.ActiveResidues>
 VAL166  LYS551  ARG553  GLY616  TRP617  ASP618  TYR619  PRO620  LYS621  CYS622 
 ASP623  PHE694  ASN695  SER759  ASP760  ASP761  ALA762  ILE779  LEU786  VAL792 
 PHE793  MET794  SER795  GLU796  ALA797  LYS798  CYS799  TRP800  GLU811  SER814 

> <Gold.Protein.RotatedAtoms>
  152.4954  133.8615  159.7252 H   0  0  0  0  0  0  0  0  0  0  0  0  # atno 6907 bound_to 6896
  150.9125  133.6970  159.2858 H   0  0  0  0  0  0  0  0  0  0  0  0  # atno 6908 bound_to 6896
  151.4375  135.1021  159.9713 H   0  0  0  0  0  0  0  0  0  0  0  0  # atno 6909 bound_to 6896
  145.5841  140.9443  143.1328 H   0  0  0  0  0  0  0  0  0  0  0  0  # atno 7974 bound_to 7965
  154.4090  140.1240  156.4881 H   0  0  0  0  0  0  0  0  0  0  0  0  # atno 8008 bound_to 7997
  155.7017  140.3494  155.4916 H   0  0  0  0  0  0  0  0  0  0  0  0  # atno 8009 bound_to 7997
  155.9379  140.1081  157.1070 H   0  0  0  0  0  0  0  0  0  0  0  0  # atno 8010 bound_to 7997
  140.7251  143.3861  151.1513 H   0  0  0  0  0  0  0  0  0  0  0  0  # atno 10167 bound_to 10162
  157.6945  131.0276  150.3203 H   0  0  0  0  0  0  0  0  0  0  0  0  # atno 10718 bound_to 10713
  153.0592  135.6550  154.0502 H   0  0  0  0  0  0  0  0  0  0  0  0  # atno 10763 bound_to 10752
  154.0174  135.2923  155.3386 H   0  0  0  0  0  0  0  0  0  0  0  0  # atno 10764 bound_to 10752
  154.6923  135.5278  153.8477 H   0  0  0  0  0  0  0  0  0  0  0  0  # atno 10765 bound_to 10752
  141.1073  133.8773  157.1684 H   0  0  0  0  0  0  0  0  0  0  0  0  # atno 11005 bound_to 11000
  144.7381  139.7528  143.7321 LP  0  0  0  0  0  0  0  0  0  0  0  0  # atno 17320 bound_to 7965
  146.1695  139.4840  142.9936 LP  0  0  0  0  0  0  0  0  0  0  0  0  # atno 17321 bound_to 7965
  139.7458  143.8854  152.3063 LP  0  0  0  0  0  0  0  0  0  0  0  0  # atno 17342 bound_to 10162
  139.8691  144.7078  150.9009 LP  0  0  0  0  0  0  0  0  0  0  0  0  # atno 17343 bound_to 10162
  156.3692  130.3860  149.7189 LP  0  0  0  0  0  0  0  0  0  0  0  0  # atno 17370 bound_to 10713
  156.4610  130.7951  151.2972 LP  0  0  0  0  0  0  0  0  0  0  0  0  # atno 17371 bound_to 10713
  139.9949  135.0050  157.0059 LP  0  0  0  0  0  0  0  0  0  0  0  0  # atno 17394 bound_to 11000
  140.4869  134.1232  155.7226 LP  0  0  0  0  0  0  0  0  0  0  0  0  # atno 17395 bound_to 11000

$$$$
