AV-unprocessed.smi:2402|AV-procd|sdf|9505|dock6
  -GOLD-   2272013133D 1   1.00000     0.00000
 Structure written by MMmdl.
 38 39  0  0  0  0  0  0  0  0  1 V2000
  152.0043  145.7722  160.5986 C   0  0  0  0  0  0  0  0  0  0  0  0
  152.0384  144.4449  159.8704 C   0  0  0  0  0  0  0  0  0  0  0  0
  152.8724  143.3997  160.3116 C   0  0  0  0  0  0  0  0  0  0  0  0
  152.8582  142.1890  159.5916 C   0  0  0  0  0  0  0  0  0  0  0  0
  153.7344  141.0259  160.0071 C   0  0  0  0  0  0  0  0  0  0  0  0
  152.0852  141.9883  158.5028 N   0  0  0  0  0  0  0  0  0  0  0  0
  151.2775  142.9876  158.0688 C   0  0  0  0  0  0  0  0  0  0  0  0
  150.4325  142.8803  156.9320 N   0  0  0  0  0  0  0  0  0  0  0  0
  150.1800  141.7918  156.1836 C   0  0  0  0  0  0  0  0  0  0  0  0
  150.6219  140.6620  156.3954 O   0  0  0  0  0  0  0  0  0  0  0  0
  149.3693  142.0861  155.1569 N   0  0  0  0  0  0  0  0  0  0  0  0
  148.9075  141.1267  154.1599 C   0  0  2  0  0  0  0  0  0  0  0  0
  147.6354  141.6041  153.5148 C   0  0  0  0  0  0  0  0  0  0  0  0
  146.6547  140.7070  153.5872 C   0  0  0  0  0  0  0  0  0  0  0  0
  147.0656  139.4471  154.3029 C   0  0  2  0  0  0  0  0  0  0  0  0
  146.0947  139.0838  155.4386 C   0  0  0  0  0  0  0  0  0  0  0  0
  144.7883  138.9179  154.9299 O   0  0  0  0  0  0  0  0  0  0  0  0
  148.5080  139.7622  154.7804 C   0  0  0  0  0  0  0  0  0  0  0  0
  151.2316  144.2334  158.7342 C   0  0  0  0  0  0  0  0  0  0  0  0
  149.6576  140.9956  153.3778 H   0  0  0  0  0  0  0  0  0  0  0  0
  147.0843  138.6461  153.5626 H   0  0  0  0  0  0  0  0  0  0  0  0
  152.7862  145.8287  161.3565 H   0  0  0  0  0  0  0  0  0  0  0  0
  151.0408  145.9076  161.0902 H   0  0  0  0  0  0  0  0  0  0  0  0
  152.1516  146.5936  159.8968 H   0  0  0  0  0  0  0  0  0  0  0  0
  153.5067  143.5227  161.1774 H   0  0  0  0  0  0  0  0  0  0  0  0
  154.1631  141.1882  160.9964 H   0  0  0  0  0  0  0  0  0  0  0  0
  154.5519  140.8983  159.2971 H   0  0  0  0  0  0  0  0  0  0  0  0
  153.1559  140.1021  160.0358 H   0  0  0  0  0  0  0  0  0  0  0  0
  149.9802  143.7357  156.6461 H   0  0  0  0  0  0  0  0  0  0  0  0
  149.0489  143.0381  155.0570 H   0  0  0  0  0  0  0  0  0  0  0  0
  147.5600  142.5687  153.0347 H   0  0  0  0  0  0  0  0  0  0  0  0
  145.6644  140.8369  153.1758 H   0  0  0  0  0  0  0  0  0  0  0  0
  146.4068  138.1681  155.9425 H   0  0  0  0  0  0  0  0  0  0  0  0
  146.0742  139.8746  156.1890 H   0  0  0  0  0  0  0  0  0  0  0  0
  144.7320  139.3568  154.0950 H   0  0  0  0  0  0  0  0  0  0  0  0
  149.2017  138.9766  154.4791 H   0  0  0  0  0  0  0  0  0  0  0  0
  148.5461  139.8090  155.8701 H   0  0  0  0  0  0  0  0  0  0  0  0
  150.5844  145.0223  158.3780 H   0  0  0  0  0  0  0  0  0  0  0  0
  1  2  1  0  0  0  0
  1 22  1  0  0  0  0
  1 23  1  0  0  0  0
  1 24  1  0  0  0  0
  2 19  1  0  0  0  0
  2  3  2  0  0  0  0
  3  4  1  0  0  0  0
  3 25  1  0  0  0  0
  4  5  1  0  0  0  0
  4  6  2  0  0  0  0
  5 26  1  0  0  0  0
  5 27  1  0  0  0  0
  5 28  1  0  0  0  0
  6  7  1  0  0  0  0
  7  8  1  0  0  0  0
  7 19  2  0  0  0  0
  8  9  1  0  0  0  0
  8 29  1  0  0  0  0
  9 10  2  0  0  0  0
  9 11  1  0  0  0  0
 11 12  1  0  0  0  0
 11 30  1  0  0  0  0
 12 20  1  0  0  0  0
 12 18  1  0  0  0  0
 12 13  1  0  0  0  0
 13 14  2  0  0  0  0
 13 31  1  0  0  0  0
 14 15  1  0  0  0  0
 14 32  1  0  0  0  0
 15 21  1  0  0  0  0
 15 16  1  0  0  0  0
 15 18  1  0  0  0  0
 16 17  1  0  0  0  0
 16 33  1  0  0  0  0
 16 34  1  0  0  0  0
 17 35  1  0  0  0  0
 18 36  1  0  0  0  0
 18 37  1  0  0  0  0
 19 38  1  0  0  0  0
M  END
> <s_m_source_file>
AV-unprocessed.smi

> <i_m_source_file_index>
2402

> <i_lp_mmshare_version>
43012

> <i_f3d_flags>
0

> <s_epik_input>
W0NIM11jMVtjSF1jKFtDSDNdKW5jKFtjSF0xKVtOSF1DKD1PKVtOSF1bQ0BASF0yW0NIXT1bQ0hdW0NAQEhdKFtDSDJdMilbQ0gyXVtPSF0=

> <s_epik_cmdline>
J2VwaWtfcHl0aG9uJywgJy1waCcsICc3LjAnLCAnLXRuJywgJzgnLCAnLW1hJywgJzIwMCcsICctbWV0YWxfYmluZGluZycsICctaW1hZScsICc8aW5maWxlLm1hZT4nLCAnLW9tYWUnLCAnPG91dGZpbGUubWFlPic=

> <r_lp_tautomer_probability>
1

> <r_epik_Ionization_Penalty>
0.000257495

> <r_epik_Ionization_Penalty_Charging>
0

> <r_epik_Ionization_Penalty_Neutral>
0.000257495

> <r_epik_State_Penalty>
-0

> <r_epik_Charging_Adjusted_Penalty>
0

> <i_epik_Tot_Q>
0

> <i_epik_Tot_abs_Q>
0

> <r_epik_Metal_State_Penalty>
-0

> <b_epik_Metal_Only>
0

> <s_lp_Force_Field>
OPLS_2005

> <r_lp_Energy>
18.4158

> <b_lp_Chiralities_Consistent>
1

> <s_lp_Variant>
AV-unprocessed.smi:2402-1

> <Gold.Version>
5.8.1

> <Gold.Id.Protein>
6NUR|6NUR_protein|mol2

> <Gold.PLP.Fitness>
45.9873

> <Gold.PLP.PLP>
-37.6514

> <Gold.PLP.part.hbond>
-3.0000

> <Gold.PLP.part.metal>
0.0000

> <Gold.PLP.part.buried>
-4.0410

> <Gold.PLP.part.nonpolar>
-30.8816

> <Gold.PLP.part.repulsive>
0.2689

> <Gold.PLP.ligand.clash>
0.0000

> <Gold.PLP.ligand.torsion>
0.3031

> <Gold.PLP.Chemscore.Hbond>
2.9760

> <Gold.PLP.Chemscore.CHOScore>
0.0000

> <Gold.PLP.Chemscore.Metal>
0.0000

> <Gold.Chemscore.Hbonds>
donor molecule, donor type, donor heavy atom, donor atom, acceptor molecule, acceptor atom, score
      L1  H     8    29       P1  8028  1.00
      L1  H    11    30       P1  8028  1.00
      L1  H    17    35       P1 10175  0.52

> <Gold.PLP.Chemscore.Internal.Correction>
0.0141

> <Gold.Rescore>
     Score         DG    S(hbond)    S(metal)    S(lipo)     H(rot)  DE(clash)    DE(int)     intcor
     18.07     -21.68       2.87        0.00      95.53       1.78       0.64       2.98       ----

> <Gold.Chemscore.Fitness>
18.0686

> <Gold.Chemscore.DG>
-21.6845

> <Gold.Chemscore.ZeroCoef>
-5.4800

> <Gold.Chemscore.Hbond>
2.8731

> <Gold.Chemscore.Metal>
0.0000

> <Gold.Chemscore.Lipo>
95.5270

> <Gold.Chemscore.Internal_Hbond>
0.0000

> <Gold.Chemscore.DEClash>
0.6405

> <Gold.Chemscore.DEInternal>
2.9754

> <Gold.Chemscore.Rot>
1.7844

> <Gold.Chemscore.Internal.Correction>
   9.000000E+99

> <Gold.Chemscore.Hbonds>
donor molecule, donor type, donor heavy atom, donor atom, acceptor molecule, acceptor atom, score
      L1  H     8    29       P1  8028  0.98
      L1  H    11    30       P1  8028  0.97
      L1  H    17    35       P1 10175  0.51

> <Gold.Chemscore.Hbond.Weighted>
-9.5960

> <Gold.Chemscore.Metal.Weighted>
-0.0000

> <Gold.Chemscore.Lipo.Weighted>
-11.1767

> <Gold.Chemscore.Internal_Hbond.Weighted>
0.0000

> <Gold.Chemscore.DEClash.Weighted>
0.6405

> <Gold.Chemscore.DEInternal.Weighted>
2.9754

> <Gold.Chemscore.Rot.Weighted>
4.5681

> <Gold.Chemscore.Internal.Correction.Weighted>
   9.000000E+99

> <Gold.Protein.RotatedTorsions>
[ 6907 6896 6895 6894 ] final -179.46 input  -60.11 | X-H torsion
[ 7974 7965 7964 7962 ] final   14.41 input  175.53 | X-H torsion
[ 8008 7997 7996 7995 ] final   37.31 input   59.86 | X-H torsion
[ 10167 10162 10161 10158 ] final -158.48 input  -65.29 | X-H torsion
[ 10718 10713 10712 10709 ] final   85.77 input   66.30 | X-H torsion
[ 10763 10752 10751 10750 ] final   91.13 input  -60.55 | X-H torsion
[ 11005 11000 10999 10996 ] final -153.46 input  -57.11 | X-H torsion

> <Gold.Protein.ActiveResidues>
 VAL166  LYS551  ARG553  GLY616  TRP617  ASP618  TYR619  PRO620  LYS621  CYS622 
 ASP623  PHE694  ASN695  SER759  ASP760  ASP761  ALA762  ILE779  LEU786  VAL792 
 PHE793  MET794  SER795  GLU796  ALA797  LYS798  CYS799  TRP800  GLU811  SER814 

> <Gold.Protein.RotatedAtoms>
  151.6539  133.3319  159.3157 H   0  0  0  0  0  0  0  0  0  0  0  0  # atno 6907 bound_to 6896
  150.7947  134.7001  159.6555 H   0  0  0  0  0  0  0  0  0  0  0  0  # atno 6908 bound_to 6896
  152.4032  134.6255  160.0113 H   0  0  0  0  0  0  0  0  0  0  0  0  # atno 6909 bound_to 6896
  146.2305  139.9045  142.8534 H   0  0  0  0  0  0  0  0  0  0  0  0  # atno 7974 bound_to 7965
  155.2016  140.3316  155.4342 H   0  0  0  0  0  0  0  0  0  0  0  0  # atno 8008 bound_to 7997
  156.2404  140.1892  156.7052 H   0  0  0  0  0  0  0  0  0  0  0  0  # atno 8009 bound_to 7997
  154.6137  140.0605  156.9513 H   0  0  0  0  0  0  0  0  0  0  0  0  # atno 8010 bound_to 7997
  139.6689  143.9781  152.2271 H   0  0  0  0  0  0  0  0  0  0  0  0  # atno 10167 bound_to 10162
  157.6919  131.0188  150.2873 H   0  0  0  0  0  0  0  0  0  0  0  0  # atno 10718 bound_to 10713
  153.2049  135.4409  155.0311 H   0  0  0  0  0  0  0  0  0  0  0  0  # atno 10763 bound_to 10752
  154.8168  135.3319  154.7156 H   0  0  0  0  0  0  0  0  0  0  0  0  # atno 10764 bound_to 10752
  153.7598  135.6992  153.4983 H   0  0  0  0  0  0  0  0  0  0  0  0  # atno 10765 bound_to 10752
  140.7079  134.3865  157.5201 H   0  0  0  0  0  0  0  0  0  0  0  0  # atno 11005 bound_to 11000
  145.2290  140.9965  143.4001 LP  0  0  0  0  0  0  0  0  0  0  0  0  # atno 17320 bound_to 7965
  144.9546  139.4045  143.6386 LP  0  0  0  0  0  0  0  0  0  0  0  0  # atno 17321 bound_to 7965
  139.9540  144.6602  150.8144 LP  0  0  0  0  0  0  0  0  0  0  0  0  # atno 17342 bound_to 10162
  140.7610  143.3164  151.2723 LP  0  0  0  0  0  0  0  0  0  0  0  0  # atno 17343 bound_to 10162
  156.3410  130.3815  149.7409 LP  0  0  0  0  0  0  0  0  0  0  0  0  # atno 17370 bound_to 10713
  156.4918  130.8088  151.3098 LP  0  0  0  0  0  0  0  0  0  0  0  0  # atno 17371 bound_to 10713
  139.8879  134.8869  156.2501 LP  0  0  0  0  0  0  0  0  0  0  0  0  # atno 17394 bound_to 11000
  141.0109  133.7096  156.1110 LP  0  0  0  0  0  0  0  0  0  0  0  0  # atno 17395 bound_to 11000

$$$$
