AV-unprocessed.smi:3046|AV-procd|sdf|11617|dock7
  -GOLD-   2272017 03D 1   1.00000     0.00000
 Structure written by MMmdl.
 37 37  0  0  0  0  0  0  0  0  1 V2000
  152.1965  143.8538  160.9843 C   0  0  0  0  0  0  0  0  0  0  0  0
  151.6384  144.4232  159.9055 C   0  0  0  0  0  0  0  0  0  0  0  0
  151.8786  143.9746  158.4800 C   0  0  0  0  0  0  0  0  0  0  0  0
  150.6414  143.4976  157.8828 N   0  0  0  0  0  0  0  0  0  0  0  0
  150.0465  142.3346  158.1842 C   0  0  0  0  0  0  0  0  0  0  0  0
  150.4999  141.5419  159.0108 O   0  0  0  0  0  0  0  0  0  0  0  0
  148.7589  142.0188  157.4133 C   0  0  2  0  0  0  0  0  0  0  0  0
  147.5583  141.8273  158.3616 C   0  0  0  0  0  0  0  0  0  0  0  0
  148.9635  140.8279  156.5741 N   0  0  0  0  0  0  0  0  0  0  0  0
  148.8682  141.0982  155.1411 C   0  0  2  0  0  0  0  0  0  0  0  0
  147.5039  141.7513  154.8810 C   0  0  0  0  0  0  0  0  0  0  0  0
  149.0206  139.7821  154.3475 C   0  0  0  0  0  0  0  0  0  0  0  0
  150.3836  139.2796  154.3290 N   0  0  0  0  0  0  0  0  0  0  0  0
  150.8467  138.0821  153.8257 C   0  0  0  0  0  0  0  0  0  0  0  0
  152.1941  138.0435  154.0436 C   0  0  0  0  0  0  0  0  0  0  0  0
  152.4682  139.2844  154.6837 C   0  0  0  0  0  0  0  0  0  0  0  0
  151.3834  140.0239  154.8492 N   0  0  0  0  0  0  0  0  0  0  0  0
  152.8685  143.0132  160.8906 H   0  0  0  0  0  0  0  0  0  0  0  0
  151.9873  144.2230  161.9775 H   0  0  0  0  0  0  0  0  0  0  0  0
  150.9743  145.2652  160.0384 H   0  0  0  0  0  0  0  0  0  0  0  0
  152.2592  144.8202  157.9056 H   0  0  0  0  0  0  0  0  0  0  0  0
  152.6355  143.1887  158.4523 H   0  0  0  0  0  0  0  0  0  0  0  0
  150.2063  144.0883  157.1888 H   0  0  0  0  0  0  0  0  0  0  0  0
  148.5589  142.8822  156.7767 H   0  0  0  0  0  0  0  0  0  0  0  0
  147.4361  142.6872  159.0212 H   0  0  0  0  0  0  0  0  0  0  0  0
  147.6764  140.9419  158.9875 H   0  0  0  0  0  0  0  0  0  0  0  0
  146.6261  141.7140  157.8084 H   0  0  0  0  0  0  0  0  0  0  0  0
  148.3229  140.0890  156.8271 H   0  0  0  0  0  0  0  0  0  0  0  0
  149.6357  141.8040  154.8197 H   0  0  0  0  0  0  0  0  0  0  0  0
  147.3771  141.9814  153.8229 H   0  0  0  0  0  0  0  0  0  0  0  0
  147.4038  142.6867  155.4329 H   0  0  0  0  0  0  0  0  0  0  0  0
  146.6827  141.0978  155.1781 H   0  0  0  0  0  0  0  0  0  0  0  0
  148.3707  139.0094  154.7611 H   0  0  0  0  0  0  0  0  0  0  0  0
  148.7035  139.9304  153.3142 H   0  0  0  0  0  0  0  0  0  0  0  0
  150.1846  137.3604  153.3700 H   0  0  0  0  0  0  0  0  0  0  0  0
  152.8791  137.2495  153.7854 H   0  0  0  0  0  0  0  0  0  0  0  0
  153.4164  139.6673  155.0312 H   0  0  0  0  0  0  0  0  0  0  0  0
  1  2  2  0  0  0  0
  1 18  1  0  0  0  0
  1 19  1  0  0  0  0
  2  3  1  0  0  0  0
  2 20  1  0  0  0  0
  3  4  1  0  0  0  0
  3 21  1  0  0  0  0
  3 22  1  0  0  0  0
  4  5  1  0  0  0  0
  4 23  1  0  0  0  0
  5  6  2  0  0  0  0
  5  7  1  0  0  0  0
  7  8  1  0  0  0  0
  7  9  1  0  0  0  0
  7 24  1  0  0  0  0
  8 25  1  0  0  0  0
  8 26  1  0  0  0  0
  8 27  1  0  0  0  0
  9 10  1  0  0  0  0
  9 28  1  0  0  0  0
 10 11  1  0  0  0  0
 10 12  1  0  0  0  0
 10 29  1  0  0  0  0
 11 30  1  0  0  0  0
 11 31  1  0  0  0  0
 11 32  1  0  0  0  0
 12 13  1  0  0  0  0
 12 33  1  0  0  0  0
 12 34  1  0  0  0  0
 13 17  1  0  0  0  0
 13 14  1  0  0  0  0
 14 15  2  0  0  0  0
 14 35  1  0  0  0  0
 15 16  1  0  0  0  0
 15 36  1  0  0  0  0
 16 17  2  0  0  0  0
 16 37  1  0  0  0  0
M  END
> <s_m_source_file>
AV-unprocessed.smi

> <i_m_source_file_index>
3046

> <i_lp_mmshare_version>
43012

> <i_f3d_flags>
0

> <s_epik_input>
W0NIMl09W0NIXVtDSDJdW05IXUMoPU8pW0NASF0oW0NIM10pW05IXVtDQEhdKFtDSDNdKVtDSDJdbjFbY0hdW2NIXVtjSF1uMQ==

> <s_epik_cmdline>
J2VwaWtfcHl0aG9uJywgJy1waCcsICc3LjAnLCAnLXRuJywgJzgnLCAnLW1hJywgJzIwMCcsICctbWV0YWxfYmluZGluZycsICctaW1hZScsICc8aW5maWxlLm1hZT4nLCAnLW9tYWUnLCAnPG91dGZpbGUubWFlPic=

> <r_lp_tautomer_probability>
1

> <r_epik_Ionization_Penalty>
0.950627

> <r_epik_Ionization_Penalty_Charging>
0

> <r_epik_Ionization_Penalty_Neutral>
0.950627

> <r_epik_State_Penalty>
0.994814

> <r_epik_Charging_Adjusted_Penalty>
0.994814

> <i_epik_Tot_Q>
0

> <i_epik_Tot_abs_Q>
0

> <r_epik_Metal_State_Penalty>
0.994788

> <b_epik_Metal_Only>
0

> <s_lp_Force_Field>
OPLS_2005

> <r_lp_Energy>
5.49444

> <b_lp_Chiralities_Consistent>
1

> <s_lp_Variant>
AV-unprocessed.smi:3046-5

> <Gold.Version>
5.8.1

> <Gold.Id.Protein>
6NUR|6NUR_protein|mol2

> <Gold.PLP.Fitness>
44.5467

> <Gold.PLP.PLP>
-37.5864

> <Gold.PLP.part.hbond>
-2.5829

> <Gold.PLP.part.metal>
0.0000

> <Gold.PLP.part.buried>
-2.2294

> <Gold.PLP.part.nonpolar>
-33.7592

> <Gold.PLP.part.repulsive>
0.0749

> <Gold.PLP.ligand.clash>
0.0000

> <Gold.PLP.ligand.torsion>
0.9755

> <Gold.PLP.Chemscore.Hbond>
1.8500

> <Gold.PLP.Chemscore.CHOScore>
1.0686

> <Gold.PLP.Chemscore.Metal>
0.0000

> <Gold.Chemscore.Hbonds>
donor molecule, donor type, donor heavy atom, donor atom, acceptor molecule, acceptor atom, score
      L1  H     4    23       P1  8028  0.84
      P1  H  7989  7998       L1    17  0.49
      L1  C    14    35       P1  7948  0.89
      L1  C    14    35       P1  7949  0.11

> <Gold.PLP.Chemscore.Internal.Correction>
0.1555

> <Gold.Rescore>
     Score         DG    S(hbond)    S(metal)    S(lipo)     H(rot)  DE(clash)    DE(int)     intcor
     12.57     -13.97       1.19        0.00      86.23       2.17       0.41       0.99       ----

> <Gold.Chemscore.Fitness>
12.5743

> <Gold.Chemscore.DG>
-13.9692

> <Gold.Chemscore.ZeroCoef>
-5.4800

> <Gold.Chemscore.Hbond>
1.1874

> <Gold.Chemscore.Metal>
0.0000

> <Gold.Chemscore.Lipo>
86.2261

> <Gold.Chemscore.Internal_Hbond>
0.0000

> <Gold.Chemscore.DEClash>
0.4055

> <Gold.Chemscore.DEInternal>
0.9894

> <Gold.Chemscore.Rot>
2.1739

> <Gold.Chemscore.Internal.Correction>
   9.000000E+99

> <Gold.Chemscore.Hbonds>
donor molecule, donor type, donor heavy atom, donor atom, acceptor molecule, acceptor atom, score
      L1  H     4    23       P1  8028  0.72
      P1  H  7989  7998       L1    17  0.01

> <Gold.Chemscore.Hbond.Weighted>
-3.9659

> <Gold.Chemscore.Metal.Weighted>
-0.0000

> <Gold.Chemscore.Lipo.Weighted>
-10.0885

> <Gold.Chemscore.Internal_Hbond.Weighted>
0.0000

> <Gold.Chemscore.DEClash.Weighted>
0.4055

> <Gold.Chemscore.DEInternal.Weighted>
0.9894

> <Gold.Chemscore.Rot.Weighted>
5.5652

> <Gold.Chemscore.Internal.Correction.Weighted>
   9.000000E+99

> <Gold.Protein.RotatedTorsions>
[ 6907 6896 6895 6894 ] final    8.77 input  -60.11 | X-H torsion
[ 7974 7965 7964 7962 ] final  -75.60 input  175.53 | X-H torsion
[ 8008 7997 7996 7995 ] final  -90.40 input   59.86 | X-H torsion
[ 10167 10162 10161 10158 ] final  112.31 input  -65.29 | X-H torsion
[ 10718 10713 10712 10709 ] final   33.98 input   66.30 | X-H torsion
[ 10763 10752 10751 10750 ] final -167.46 input  -60.55 | X-H torsion
[ 11005 11000 10999 10996 ] final  -84.04 input  -57.11 | X-H torsion

> <Gold.Protein.ActiveResidues>
 VAL166  LYS551  ARG553  GLY616  TRP617  ASP618  TYR619  PRO620  LYS621  CYS622 
 ASP623  PHE694  ASN695  SER759  ASP760  ASP761  ALA762  ILE779  LEU786  VAL792 
 PHE793  MET794  SER795  GLU796  ALA797  LYS798  CYS799  TRP800  GLU811  SER814 

> <Gold.Protein.RotatedAtoms>
  151.7114  135.0912  160.0268 H   0  0  0  0  0  0  0  0  0  0  0  0  # atno 6907 bound_to 6896
  152.3659  133.6352  159.6059 H   0  0  0  0  0  0  0  0  0  0  0  0  # atno 6908 bound_to 6896
  150.7638  133.9265  159.3455 H   0  0  0  0  0  0  0  0  0  0  0  0  # atno 6909 bound_to 6896
  145.6238  140.9356  143.1123 H   0  0  0  0  0  0  0  0  0  0  0  0  # atno 7974 bound_to 7965
  154.6981  140.0531  157.0431 H   0  0  0  0  0  0  0  0  0  0  0  0  # atno 8008 bound_to 7997
  155.0723  140.3201  155.4608 H   0  0  0  0  0  0  0  0  0  0  0  0  # atno 8009 bound_to 7997
  156.2751  140.2079  156.5850 H   0  0  0  0  0  0  0  0  0  0  0  0  # atno 8010 bound_to 7997
  139.6546  144.7129  151.1983 H   0  0  0  0  0  0  0  0  0  0  0  0  # atno 10167 bound_to 10162
  157.3046  130.7368  149.6687 H   0  0  0  0  0  0  0  0  0  0  0  0  # atno 10718 bound_to 10713
  154.6729  135.2942  154.9717 H   0  0  0  0  0  0  0  0  0  0  0  0  # atno 10763 bound_to 10752
  154.0738  135.6614  153.4832 H   0  0  0  0  0  0  0  0  0  0  0  0  # atno 10764 bound_to 10752
  153.0498  135.5181  154.7734 H   0  0  0  0  0  0  0  0  0  0  0  0  # atno 10765 bound_to 10752
  141.1653  133.7325  156.8809 H   0  0  0  0  0  0  0  0  0  0  0  0  # atno 11005 bound_to 11000
  144.7220  139.7998  143.7378 LP  0  0  0  0  0  0  0  0  0  0  0  0  # atno 17320 bound_to 7965
  146.1410  139.4467  143.0109 LP  0  0  0  0  0  0  0  0  0  0  0  0  # atno 17321 bound_to 7965
  140.7553  143.6094  150.8620 LP  0  0  0  0  0  0  0  0  0  0  0  0  # atno 17342 bound_to 10162
  139.9746  143.6019  152.2963 LP  0  0  0  0  0  0  0  0  0  0  0  0  # atno 17343 bound_to 10162
  155.9673  130.4269  150.4722 LP  0  0  0  0  0  0  0  0  0  0  0  0  # atno 17370 bound_to 10713
  157.2709  131.0587  151.2260 LP  0  0  0  0  0  0  0  0  0  0  0  0  # atno 17371 bound_to 10713
  140.1715  134.9096  157.2839 LP  0  0  0  0  0  0  0  0  0  0  0  0  # atno 17394 bound_to 11000
  140.2496  134.3698  155.7447 LP  0  0  0  0  0  0  0  0  0  0  0  0  # atno 17395 bound_to 11000

$$$$
