AV-unprocessed.smi:3284|AV-procd|sdf|12579|dock1
  -GOLD-   2272018503D 1   1.00000     0.00000
 Structure written by MMmdl.
 45 46  0  0  0  0  0  0  0  0  3 V2000
  147.8564  140.9168  154.0872 C   0  0  0  0  0  0  0  0  0  0  0  0
  146.6660  141.7090  154.6037 C   0  0  0  0  0  0  0  0  0  0  0  0
  146.0949  142.6668  153.8467 C   0  0  0  0  0  0  0  0  0  0  0  0
  144.8668  143.4679  154.2422 C   0  0  0  0  0  0  0  0  0  0  0  0
  144.4177  143.2119  155.6902 C   0  0  0  0  0  0  0  0  0  0  0  0
  144.6178  141.7401  156.0922 C   0  0  2  0  0  0  0  0  0  0  0  0
  143.9660  141.4208  157.4486 C   0  0  0  0  0  0  0  0  0  0  0  0
  146.1146  141.3314  155.9853 C   0  0  2  0  0  0  0  0  0  0  0  0
  146.9777  141.8996  157.1433 C   0  0  0  0  0  0  0  0  0  0  0  0
  148.4232  141.9009  156.8432 N   0  3  0  0  0  0  0  0  0  0  0  0
  149.2824  141.6135  158.0087 C   0  0  0  0  0  0  0  0  0  0  0  0
  150.7677  141.6243  157.6158 C   0  0  0  0  0  0  0  0  0  0  0  0
  151.4718  142.9138  157.9281 C   0  0  0  0  0  0  0  0  0  0  0  0
  151.1323  144.1266  157.4710 N   0  3  0  0  0  0  0  0  0  0  0  0
  151.9690  145.0826  157.9792 C   0  0  0  0  0  0  0  0  0  0  0  0
  152.8514  144.4280  158.7974 C   0  0  0  0  0  0  0  0  0  0  0  0
  152.5174  143.0986  158.7528 N   0  0  0  0  0  0  0  0  0  0  0  0
  153.1773  142.0131  159.4810 C   0  0  0  0  0  0  0  0  0  0  0  0
  147.6880  139.8469  154.2125 H   0  0  0  0  0  0  0  0  0  0  0  0
  148.7753  141.1891  154.6032 H   0  0  0  0  0  0  0  0  0  0  0  0
  148.0174  141.1021  153.0246 H   0  0  0  0  0  0  0  0  0  0  0  0
  146.4960  142.8834  152.8672 H   0  0  0  0  0  0  0  0  0  0  0  0
  145.0594  144.5304  154.0904 H   0  0  0  0  0  0  0  0  0  0  0  0
  144.0646  143.1934  153.5563 H   0  0  0  0  0  0  0  0  0  0  0  0
  144.9763  143.8590  156.3668 H   0  0  0  0  0  0  0  0  0  0  0  0
  143.3711  143.4992  155.7979 H   0  0  0  0  0  0  0  0  0  0  0  0
  144.0777  141.1382  155.3589 H   0  0  0  0  0  0  0  0  0  0  0  0
  144.3259  142.0793  158.2392 H   0  0  0  0  0  0  0  0  0  0  0  0
  144.1603  140.3908  157.7482 H   0  0  0  0  0  0  0  0  0  0  0  0
  142.8842  141.5472  157.3952 H   0  0  0  0  0  0  0  0  0  0  0  0
  146.1434  140.2427  156.0531 H   0  0  0  0  0  0  0  0  0  0  0  0
  146.6669  142.9171  157.3827 H   0  0  0  0  0  0  0  0  0  0  0  0
  146.8436  141.3049  158.0458 H   0  0  0  0  0  0  0  0  0  0  0  0
  148.6026  141.2095  156.1288 H   0  0  0  0  0  0  0  0  0  0  0  0
  149.0985  142.3597  158.7832 H   0  0  0  0  0  0  0  0  0  0  0  0
  149.0049  140.6421  158.4199 H   0  0  0  0  0  0  0  0  0  0  0  0
  151.3152  140.8383  158.1373 H   0  0  0  0  0  0  0  0  0  0  0  0
  150.8686  141.4425  156.5457 H   0  0  0  0  0  0  0  0  0  0  0  0
  151.8727  146.1298  157.7317 H   0  0  0  0  0  0  0  0  0  0  0  0
  153.6691  144.8026  159.3968 H   0  0  0  0  0  0  0  0  0  0  0  0
  153.9319  142.4278  160.1503 H   0  0  0  0  0  0  0  0  0  0  0  0
  153.6579  141.3415  158.7689 H   0  0  0  0  0  0  0  0  0  0  0  0
  152.4379  141.4666  160.0672 H   0  0  0  0  0  0  0  0  0  0  0  0
  148.6666  142.8114  156.4790 H   0  0  0  0  0  0  0  0  0  0  0  0
  150.3632  144.3115  156.8393 H   0  0  0  0  0  0  0  0  0  0  0  0
  1  2  1  0  0  0  0
  1 19  1  0  0  0  0
  1 20  1  0  0  0  0
  1 21  1  0  0  0  0
  2  8  1  0  0  0  0
  2  3  2  0  0  0  0
  3  4  1  0  0  0  0
  3 22  1  0  0  0  0
  4  5  1  0  0  0  0
  4 23  1  0  0  0  0
  4 24  1  0  0  0  0
  5  6  1  0  0  0  0
  5 25  1  0  0  0  0
  5 26  1  0  0  0  0
  6  7  1  0  0  0  0
  6  8  1  0  0  0  0
  6 27  1  0  0  0  0
  7 28  1  0  0  0  0
  7 29  1  0  0  0  0
  7 30  1  0  0  0  0
  8  9  1  0  0  0  0
  8 31  1  0  0  0  0
  9 10  1  0  0  0  0
  9 32  1  0  0  0  0
  9 33  1  0  0  0  0
 10 11  1  0  0  0  0
 10 34  1  0  0  0  0
 10 44  1  0  0  0  0
 11 12  1  0  0  0  0
 11 35  1  0  0  0  0
 11 36  1  0  0  0  0
 12 13  1  0  0  0  0
 12 37  1  0  0  0  0
 12 38  1  0  0  0  0
 13 17  1  0  0  0  0
 13 14  2  0  0  0  0
 14 15  1  0  0  0  0
 14 45  1  0  0  0  0
 15 16  2  0  0  0  0
 15 39  1  0  0  0  0
 16 17  1  0  0  0  0
 16 40  1  0  0  0  0
 17 18  1  0  0  0  0
 18 41  1  0  0  0  0
 18 42  1  0  0  0  0
 18 43  1  0  0  0  0
M  CHG  1  10   1
M  CHG  1  14   1
M  END
> <s_m_source_file>
AV-unprocessed.smi

> <i_m_source_file_index>
3284

> <i_lp_mmshare_version>
43012

> <i_f3d_flags>
0

> <s_epik_input>
W0NIM11DMT1bQ0hdW0NIMl1bQ0gyXVtDQEBIXShbQ0gzXSlbQ0BIXTFbQ0gyXVtOSF1bQ0gyXVtDSDJdYzJuW2NIXVtjSF1uMltDSDNd

> <s_epik_cmdline>
J2VwaWtfcHl0aG9uJywgJy1waCcsICc3LjAnLCAnLXRuJywgJzgnLCAnLW1hJywgJzIwMCcsICctbWV0YWxfYmluZGluZycsICctaW1hZScsICc8aW5maWxlLm1hZT4nLCAnLW9tYWUnLCAnPG91dGZpbGUubWFlPic=

> <r_lp_tautomer_probability>
1

> <r_epik_Ionization_Penalty>
0.892846

> <r_epik_Ionization_Penalty_Charging>
0.00275802

> <r_epik_Ionization_Penalty_Neutral>
0.890088

> <r_epik_State_Penalty>
0.485211

> <r_epik_Charging_Adjusted_Penalty>
0.487969

> <i_epik_Tot_Q>
2

> <i_epik_Tot_abs_Q>
2

> <r_epik_Metal_State_Penalty>
4.22898

> <b_epik_Metal_Only>
0

> <s_lp_Force_Field>
OPLS_2005

> <r_lp_Energy>
23.7341

> <b_lp_Chiralities_Consistent>
1

> <s_lp_Variant>
AV-unprocessed.smi:3284-8

> <Gold.Version>
5.8.1

> <Gold.Id.Protein>
6NUR|6NUR_protein|mol2

> <Gold.PLP.Fitness>
50.8610

> <Gold.PLP.PLP>
-40.7952

> <Gold.PLP.part.hbond>
-2.0000

> <Gold.PLP.part.metal>
0.0000

> <Gold.PLP.part.buried>
-5.6457

> <Gold.PLP.part.nonpolar>
-32.2840

> <Gold.PLP.part.repulsive>
0.0700

> <Gold.PLP.ligand.clash>
0.6393

> <Gold.PLP.ligand.torsion>
0.7215

> <Gold.PLP.Chemscore.Hbond>
4.0000

> <Gold.PLP.Chemscore.CHOScore>
0.0000

> <Gold.PLP.Chemscore.Metal>
0.0000

> <Gold.Chemscore.Hbonds>
donor molecule, donor type, donor heavy atom, donor atom, acceptor molecule, acceptor atom, score
      L1  H    10    44       P1  8028  1.76
      L1  H    14    45       P1  8028  2.00

> <Gold.PLP.Chemscore.Internal.Correction>
0.1480

> <Gold.Rescore>
     Score         DG    S(hbond)    S(metal)    S(lipo)     H(rot)  DE(clash)    DE(int)     intcor
     14.47     -16.79       1.72        0.00      84.80       1.70       0.21       2.11       ----

> <Gold.Chemscore.Fitness>
14.4711

> <Gold.Chemscore.DG>
-16.7877

> <Gold.Chemscore.ZeroCoef>
-5.4800

> <Gold.Chemscore.Hbond>
1.7177

> <Gold.Chemscore.Metal>
0.0000

> <Gold.Chemscore.Lipo>
84.8031

> <Gold.Chemscore.Internal_Hbond>
0.0000

> <Gold.Chemscore.DEClash>
0.2066

> <Gold.Chemscore.DEInternal>
2.1101

> <Gold.Chemscore.Rot>
1.6997

> <Gold.Chemscore.Internal.Correction>
   9.000000E+99

> <Gold.Chemscore.Hbonds>
donor molecule, donor type, donor heavy atom, donor atom, acceptor molecule, acceptor atom, score
      L1  H    10    44       P1  8028  0.82
      L1  H    14    45       P1  8028  0.96

> <Gold.Chemscore.Hbond.Weighted>
-5.7370

> <Gold.Chemscore.Metal.Weighted>
-0.0000

> <Gold.Chemscore.Lipo.Weighted>
-9.9220

> <Gold.Chemscore.Internal_Hbond.Weighted>
0.0000

> <Gold.Chemscore.DEClash.Weighted>
0.2066

> <Gold.Chemscore.DEInternal.Weighted>
2.1101

> <Gold.Chemscore.Rot.Weighted>
4.3512

> <Gold.Chemscore.Internal.Correction.Weighted>
   9.000000E+99

> <Gold.Protein.RotatedTorsions>
[ 6907 6896 6895 6894 ] final    4.53 input  -60.11 | X-H torsion
[ 7974 7965 7964 7962 ] final  -23.43 input  175.53 | X-H torsion
[ 8008 7997 7996 7995 ] final   72.08 input   59.86 | X-H torsion
[ 10167 10162 10161 10158 ] final  168.21 input  -65.29 | X-H torsion
[ 10718 10713 10712 10709 ] final  118.78 input   66.30 | X-H torsion
[ 10763 10752 10751 10750 ] final  -26.48 input  -60.55 | X-H torsion
[ 11005 11000 10999 10996 ] final  -13.72 input  -57.11 | X-H torsion

> <Gold.Protein.ActiveResidues>
 VAL166  LYS551  ARG553  GLY616  TRP617  ASP618  TYR619  PRO620  LYS621  CYS622 
 ASP623  PHE694  ASN695  SER759  ASP760  ASP761  ALA762  ILE779  LEU786  VAL792 
 PHE793  MET794  SER795  GLU796  ALA797  LYS798  CYS799  TRP800  GLU811  SER814 

> <Gold.Protein.RotatedAtoms>
  151.6427  135.1011  160.0144 H   0  0  0  0  0  0  0  0  0  0  0  0  # atno 6907 bound_to 6896
  152.4045  133.6863  159.6353 H   0  0  0  0  0  0  0  0  0  0  0  0  # atno 6908 bound_to 6896
  150.7941  133.8651  159.3283 H   0  0  0  0  0  0  0  0  0  0  0  0  # atno 6909 bound_to 6896
  146.1616  140.4615  142.8569 H   0  0  0  0  0  0  0  0  0  0  0  0  # atno 7974 bound_to 7965
  155.7635  140.3486  155.5210 H   0  0  0  0  0  0  0  0  0  0  0  0  # atno 8008 bound_to 7997
  155.8891  140.1015  157.1452 H   0  0  0  0  0  0  0  0  0  0  0  0  # atno 8009 bound_to 7997
  154.4032  140.1308  156.4280 H   0  0  0  0  0  0  0  0  0  0  0  0  # atno 8010 bound_to 7997
  139.4963  144.3839  151.9592 H   0  0  0  0  0  0  0  0  0  0  0  0  # atno 10167 bound_to 10162
  157.6007  131.1051  150.7804 H   0  0  0  0  0  0  0  0  0  0  0  0  # atno 10718 bound_to 10713
  153.7166  135.6947  153.5023 H   0  0  0  0  0  0  0  0  0  0  0  0  # atno 10763 bound_to 10752
  153.2234  135.4362  155.0514 H   0  0  0  0  0  0  0  0  0  0  0  0  # atno 10764 bound_to 10752
  154.8298  135.3466  154.6701 H   0  0  0  0  0  0  0  0  0  0  0  0  # atno 10765 bound_to 10752
  140.7790  133.8378  155.9275 H   0  0  0  0  0  0  0  0  0  0  0  0  # atno 11005 bound_to 11000
  144.8035  140.6257  143.6462 LP  0  0  0  0  0  0  0  0  0  0  0  0  # atno 17320 bound_to 7965
  145.4573  139.1516  143.3885 LP  0  0  0  0  0  0  0  0  0  0  0  0  # atno 17321 bound_to 7965
  140.3275  144.3355  150.5995 LP  0  0  0  0  0  0  0  0  0  0  0  0  # atno 17342 bound_to 10162
  140.5672  143.2185  151.7663 LP  0  0  0  0  0  0  0  0  0  0  0  0  # atno 17343 bound_to 10162
  156.8204  130.4982  149.5344 LP  0  0  0  0  0  0  0  0  0  0  0  0  # atno 17370 bound_to 10713
  156.1079  130.6018  151.0001 LP  0  0  0  0  0  0  0  0  0  0  0  0  # atno 17371 bound_to 10713
  140.9500  134.1790  157.4734 LP  0  0  0  0  0  0  0  0  0  0  0  0  # atno 17394 bound_to 11000
  139.8745  134.9905  156.5508 LP  0  0  0  0  0  0  0  0  0  0  0  0  # atno 17395 bound_to 11000

$$$$
