AV-unprocessed.smi:189|AV-procd|sdf|1490|dock7
  -GOLD-   2262019313D 1   1.00000     0.00000
 Structure written by MMmdl.
 53 57  0  0  0  0  0  0  0  0  1 V2000
  156.8313  140.1680  159.4324 C   0  0  0  0  0  0  0  0  0  0  0  0
  155.5034  139.7007  160.0518 C   0  0  1  0  0  0  0  0  0  0  0  0
  155.2078  140.3952  161.3892 C   0  0  0  0  0  0  0  0  0  0  0  0
  154.4064  141.6471  161.0046 C   0  0  2  0  0  0  0  0  0  0  0  0
  153.2072  141.9399  161.9237 C   0  0  0  0  0  0  0  0  0  0  0  0
  152.3702  143.1355  161.4220 C   0  0  0  0  0  0  0  0  0  0  0  0
  152.2350  143.1989  159.8837 C   0  0  0  0  0  0  0  0  0  0  0  0
  152.5364  141.8497  159.2155 C   0  0  0  0  0  0  0  0  0  0  0  0
  153.9896  141.4131  159.5360 C   0  0  2  0  0  0  0  0  0  0  0  0
  154.3689  140.0377  159.1947 N   0  0  0  0  0  0  0  0  0  0  0  0
  153.3785  139.1158  159.0973 C   0  0  0  0  0  0  0  0  0  0  0  0
  153.0185  138.3637  160.1715 N   0  0  0  0  0  0  0  0  0  0  0  0
  152.0218  137.4797  160.0668 C   0  0  0  0  0  0  0  0  0  0  0  0
  151.2663  137.1952  159.0039 N   0  0  0  0  0  0  0  0  0  0  0  0
  151.6262  137.9478  157.9245 C   0  0  0  0  0  0  0  0  0  0  0  0
  152.6604  138.9239  157.8873 C   0  0  0  0  0  0  0  0  0  0  0  0
  152.7331  139.4955  156.6234 N   0  0  0  0  0  0  0  0  0  0  0  0
  151.7933  138.8904  155.9498 C   0  0  0  0  0  0  0  0  0  0  0  0
  151.0849  137.9398  156.6509 N   0  0  0  0  0  0  0  0  0  0  0  0
  149.9954  137.1176  156.1487 C   0  0  0  0  0  0  0  0  0  0  0  0
  150.4742  135.8867  155.3442 C   0  0  2  0  0  0  0  0  0  0  0  0
  151.4018  136.3078  154.3593 O   0  0  0  0  0  0  0  0  0  0  0  0
  149.3513  135.1173  154.6523 C   0  0  0  0  0  0  0  0  0  0  0  0
  149.8510  133.6799  154.6880 C   0  0  0  0  0  0  0  0  0  0  0  0
  150.4507  133.5956  155.9692 O   0  0  0  0  0  0  0  0  0  0  0  0
  151.1470  134.8118  156.2213 C   0  0  0  0  0  0  0  0  0  0  0  0
  157.6728  139.9035  160.0729 H   0  0  0  0  0  0  0  0  0  0  0  0
  156.8567  141.2481  159.2846 H   0  0  0  0  0  0  0  0  0  0  0  0
  156.9953  139.6957  158.4634 H   0  0  0  0  0  0  0  0  0  0  0  0
  155.5714  138.6222  160.2039 H   0  0  0  0  0  0  0  0  0  0  0  0
  154.6022  139.7375  162.0136 H   0  0  0  0  0  0  0  0  0  0  0  0
  156.1097  140.6313  161.9550 H   0  0  0  0  0  0  0  0  0  0  0  0
  155.0739  142.5097  161.0297 H   0  0  0  0  0  0  0  0  0  0  0  0
  152.5696  141.0554  161.9674 H   0  0  0  0  0  0  0  0  0  0  0  0
  153.5435  142.1213  162.9448 H   0  0  0  0  0  0  0  0  0  0  0  0
  151.3805  143.0828  161.8770 H   0  0  0  0  0  0  0  0  0  0  0  0
  152.8119  144.0679  161.7751 H   0  0  0  0  0  0  0  0  0  0  0  0
  151.2370  143.5437  159.6119 H   0  0  0  0  0  0  0  0  0  0  0  0
  152.9287  143.9443  159.4924 H   0  0  0  0  0  0  0  0  0  0  0  0
  151.8073  141.1258  159.5813 H   0  0  0  0  0  0  0  0  0  0  0  0
  152.3939  141.9190  158.1368 H   0  0  0  0  0  0  0  0  0  0  0  0
  154.6339  142.0436  158.9215 H   0  0  0  0  0  0  0  0  0  0  0  0
  151.7964  136.9223  160.9639 H   0  0  0  0  0  0  0  0  0  0  0  0
  151.5926  139.1207  154.9136 H   0  0  0  0  0  0  0  0  0  0  0  0
  149.3813  136.8025  156.9935 H   0  0  0  0  0  0  0  0  0  0  0  0
  149.3578  137.7468  155.5262 H   0  0  0  0  0  0  0  0  0  0  0  0
  151.0155  136.1768  153.5069 H   0  0  0  0  0  0  0  0  0  0  0  0
  148.4333  135.1807  155.2378 H   0  0  0  0  0  0  0  0  0  0  0  0
  149.1278  135.4714  153.6450 H   0  0  0  0  0  0  0  0  0  0  0  0
  149.0498  132.9505  154.5686 H   0  0  0  0  0  0  0  0  0  0  0  0
  150.6011  133.5033  153.9156 H   0  0  0  0  0  0  0  0  0  0  0  0
  152.2030  134.6848  155.9778 H   0  0  0  0  0  0  0  0  0  0  0  0
  151.0854  135.0441  157.2849 H   0  0  0  0  0  0  0  0  0  0  0  0
  1  2  1  0  0  0  0
  1 27  1  0  0  0  0
  1 28  1  0  0  0  0
  1 29  1  0  0  0  0
  2 10  1  0  0  0  0
  2  3  1  0  0  0  0
  2 30  1  0  0  0  0
  3  4  1  0  0  0  0
  3 31  1  0  0  0  0
  3 32  1  0  0  0  0
  4  9  1  0  0  0  0
  4  5  1  0  0  0  0
  4 33  1  0  0  0  0
  5  6  1  0  0  0  0
  5 34  1  0  0  0  0
  5 35  1  0  0  0  0
  6  7  1  0  0  0  0
  6 36  1  0  0  0  0
  6 37  1  0  0  0  0
  7  8  1  0  0  0  0
  7 38  1  0  0  0  0
  7 39  1  0  0  0  0
  8  9  1  0  0  0  0
  8 40  1  0  0  0  0
  8 41  1  0  0  0  0
  9 10  1  0  0  0  0
  9 42  1  0  0  0  0
 10 11  1  0  0  0  0
 11 16  1  0  0  0  0
 11 12  2  0  0  0  0
 12 13  1  0  0  0  0
 13 14  2  0  0  0  0
 13 43  1  0  0  0  0
 14 15  1  0  0  0  0
 15 19  1  0  0  0  0
 15 16  2  0  0  0  0
 16 17  1  0  0  0  0
 17 18  2  0  0  0  0
 18 19  1  0  0  0  0
 18 44  1  0  0  0  0
 19 20  1  0  0  0  0
 20 21  1  0  0  0  0
 20 45  1  0  0  0  0
 20 46  1  0  0  0  0
 21 26  1  0  0  0  0
 21 22  1  0  0  0  0
 21 23  1  0  0  0  0
 22 47  1  0  0  0  0
 23 24  1  0  0  0  0
 23 48  1  0  0  0  0
 23 49  1  0  0  0  0
 24 25  1  0  0  0  0
 24 50  1  0  0  0  0
 24 51  1  0  0  0  0
 25 26  1  0  0  0  0
 26 52  1  0  0  0  0
 26 53  1  0  0  0  0
M  END
> <s_m_source_file>
AV-unprocessed.smi

> <i_m_source_file_index>
189

> <i_lp_mmshare_version>
43012

> <i_f3d_flags>
0

> <s_epik_input>
W0NIMl0xW0NIMl1bQ0gyXVtDSDJdW0NASF0oW0NASF0xMilOKFtDQEhdKFtDSDNdKVtDSDJdMiljKG5bY0hdbjMpYyhjMzQpbltjSF1uNFtDSDJdW0NAQF01KFtPSF0pW0NIMl1bQ0gyXU9bQ0gyXTU=

> <s_epik_cmdline>
J2VwaWtfcHl0aG9uJywgJy1waCcsICc3LjAnLCAnLXRuJywgJzgnLCAnLW1hJywgJzIwMCcsICctbWV0YWxfYmluZGluZycsICctaW1hZScsICc8aW5maWxlLm1hZT4nLCAnLW9tYWUnLCAnPG91dGZpbGUubWFlPic=

> <r_lp_tautomer_probability>
1

> <r_epik_Ionization_Penalty>
0.00594261

> <r_epik_Ionization_Penalty_Charging>
0

> <r_epik_Ionization_Penalty_Neutral>
0.00594261

> <r_epik_State_Penalty>
0.00429776

> <r_epik_Charging_Adjusted_Penalty>
0.00429776

> <i_epik_Tot_Q>
0

> <i_epik_Tot_abs_Q>
0

> <r_epik_Metal_State_Penalty>
-0

> <b_epik_Metal_Only>
0

> <s_lp_Force_Field>
OPLS_2005

> <r_lp_Energy>
66.7565

> <b_lp_Chiralities_Consistent>
1

> <s_lp_Variant>
AV-unprocessed.smi:189-16

> <Gold.Version>
5.8.1

> <Gold.Id.Protein>
6NUR|6NUR_protein|mol2

> <Gold.PLP.Fitness>
48.7235

> <Gold.PLP.PLP>
-40.5621

> <Gold.PLP.part.hbond>
-4.4441

> <Gold.PLP.part.metal>
0.0000

> <Gold.PLP.part.buried>
-1.3105

> <Gold.PLP.part.nonpolar>
-33.7706

> <Gold.PLP.part.repulsive>
0.0000

> <Gold.PLP.ligand.clash>
0.0000

> <Gold.PLP.ligand.torsion>
1.0674

> <Gold.PLP.Chemscore.Hbond>
3.4062

> <Gold.PLP.Chemscore.CHOScore>
0.0000

> <Gold.PLP.Chemscore.Metal>
0.0000

> <Gold.Chemscore.Hbonds>
donor molecule, donor type, donor heavy atom, donor atom, acceptor molecule, acceptor atom, score
      L1  H    22    47       P1  7949  0.95
      P1  H  6896  6907       L1    14  0.08
      P1  H  7997  8009       L1    10  0.72
      P1  H  7997  8010       L1    17  0.54
      P1  H 10752 10765       L1    22  1.00

> <Gold.PLP.Chemscore.Internal.Correction>
0.0777

> <Gold.Rescore>
     Score         DG    S(hbond)    S(metal)    S(lipo)     H(rot)  DE(clash)    DE(int)     intcor
     17.24     -19.89       1.86        0.00     114.46       2.03       0.79       1.85       ----

> <Gold.Chemscore.Fitness>
17.2420

> <Gold.Chemscore.DG>
-19.8892

> <Gold.Chemscore.ZeroCoef>
-5.4800

> <Gold.Chemscore.Hbond>
1.8604

> <Gold.Chemscore.Metal>
0.0000

> <Gold.Chemscore.Lipo>
114.4569

> <Gold.Chemscore.Internal_Hbond>
0.0000

> <Gold.Chemscore.DEClash>
0.7942

> <Gold.Chemscore.DEInternal>
1.8530

> <Gold.Chemscore.Rot>
2.0297

> <Gold.Chemscore.Internal.Correction>
   9.000000E+99

> <Gold.Chemscore.Hbonds>
donor molecule, donor type, donor heavy atom, donor atom, acceptor molecule, acceptor atom, score
      L1  H    22    47       P1  7949  0.19
      P1  H  6896  6907       L1    14  0.01
      P1  H  7997  8009       L1    10  0.06
      P1  H  7997  8010       L1    17  0.51
      P1  H 10752 10765       L1    22  0.49

> <Gold.Chemscore.Hbond.Weighted>
-6.2137

> <Gold.Chemscore.Metal.Weighted>
-0.0000

> <Gold.Chemscore.Lipo.Weighted>
-13.3915

> <Gold.Chemscore.Internal_Hbond.Weighted>
0.0000

> <Gold.Chemscore.DEClash.Weighted>
0.7942

> <Gold.Chemscore.DEInternal.Weighted>
1.8530

> <Gold.Chemscore.Rot.Weighted>
5.1960

> <Gold.Chemscore.Internal.Correction.Weighted>
   9.000000E+99

> <Gold.Protein.RotatedTorsions>
[ 6907 6896 6895 6894 ] final  -39.91 input  -60.11 | X-H torsion
[ 7974 7965 7964 7962 ] final  -42.13 input  175.53 | X-H torsion
[ 8008 7997 7996 7995 ] final  106.63 input   59.86 | X-H torsion
[ 10167 10162 10161 10158 ] final   74.96 input  -65.29 | X-H torsion
[ 10718 10713 10712 10709 ] final    1.31 input   66.30 | X-H torsion
[ 10763 10752 10751 10750 ] final  159.91 input  -60.55 | X-H torsion
[ 11005 11000 10999 10996 ] final   73.61 input  -57.11 | X-H torsion

> <Gold.Protein.ActiveResidues>
 VAL166  LYS551  ARG553  GLY616  TRP617  ASP618  TYR619  PRO620  LYS621  CYS622 
 ASP623  PHE694  ASN695  SER759  ASP760  ASP761  ALA762  ILE779  LEU786  VAL792 
 PHE793  MET794  SER795  GLU796  ALA797  LYS798  CYS799  TRP800  GLU811  SER814 

> <Gold.Protein.RotatedAtoms>
  150.9847  134.9195  159.7864 H   0  0  0  0  0  0  0  0  0  0  0  0  # atno 6907 bound_to 6896
  152.5233  134.3363  159.9211 H   0  0  0  0  0  0  0  0  0  0  0  0  # atno 6908 bound_to 6896
  151.3369  133.3937  159.2702 H   0  0  0  0  0  0  0  0  0  0  0  0  # atno 6909 bound_to 6896
  146.0145  140.6924  142.9208 H   0  0  0  0  0  0  0  0  0  0  0  0  # atno 7974 bound_to 7965
  156.1759  140.3109  155.9058 H   0  0  0  0  0  0  0  0  0  0  0  0  # atno 8008 bound_to 7997
  155.3488  140.0470  157.3063 H   0  0  0  0  0  0  0  0  0  0  0  0  # atno 8009 bound_to 7997
  154.5290  140.2224  155.8849 H   0  0  0  0  0  0  0  0  0  0  0  0  # atno 8010 bound_to 7997
  140.0081  144.5635  150.7681 H   0  0  0  0  0  0  0  0  0  0  0  0  # atno 10167 bound_to 10162
  156.8463  130.5538  149.5673 H   0  0  0  0  0  0  0  0  0  0  0  0  # atno 10718 bound_to 10713
  154.2392  135.2775  155.2860 H   0  0  0  0  0  0  0  0  0  0  0  0  # atno 10763 bound_to 10752
  154.5559  135.5661  153.6967 H   0  0  0  0  0  0  0  0  0  0  0  0  # atno 10764 bound_to 10752
  153.0003  135.6286  154.2536 H   0  0  0  0  0  0  0  0  0  0  0  0  # atno 10765 bound_to 10752
  139.9431  134.7362  156.1047 H   0  0  0  0  0  0  0  0  0  0  0  0  # atno 11005 bound_to 11000
  144.6966  140.3457  143.7191 LP  0  0  0  0  0  0  0  0  0  0  0  0  # atno 17320 bound_to 7965
  145.7290  139.1731  143.2441 LP  0  0  0  0  0  0  0  0  0  0  0  0  # atno 17321 bound_to 7965
  140.7392  143.2789  151.3659 LP  0  0  0  0  0  0  0  0  0  0  0  0  # atno 17342 bound_to 10162
  139.6224  144.0880  152.2404 LP  0  0  0  0  0  0  0  0  0  0  0  0  # atno 17343 bound_to 10162
  156.0852  130.5853  150.9636 LP  0  0  0  0  0  0  0  0  0  0  0  0  # atno 17370 bound_to 10713
  157.6328  131.0919  150.8408 LP  0  0  0  0  0  0  0  0  0  0  0  0  # atno 17371 bound_to 10713
  141.1073  133.6655  156.2894 LP  0  0  0  0  0  0  0  0  0  0  0  0  # atno 17394 bound_to 11000
  140.5901  134.5659  157.5498 LP  0  0  0  0  0  0  0  0  0  0  0  0  # atno 17395 bound_to 11000

$$$$
