AV-unprocessed.smi:798|AV-procd|sdf|3779|dock4
  -GOLD-   22720 1213D 1   1.00000     0.00000
 Structure written by MMmdl.
 33 35  0  0  0  0  0  0  0  0  2 V2000
  149.8428  136.2713  159.1231 O   0  0  0  0  0  0  0  0  0  0  0  0
  149.0446  137.2108  159.0976 C   0  0  0  0  0  0  0  0  0  0  0  0
  148.0677  137.4579  159.9999 N   0  5  0  0  0  0  0  0  0  0  0  0
  147.6831  136.4973  160.8562 C   0  0  0  0  0  0  0  0  0  0  0  0
  147.8969  136.5871  162.1786 N   0  0  0  0  0  0  0  0  0  0  0  0
  147.4121  135.4951  162.8859 N   0  0  0  0  0  0  0  0  0  0  0  0
  146.8354  134.6085  162.0750 C   0  0  0  0  0  0  0  0  0  0  0  0
  146.8307  135.0274  160.3748 S   0  0  0  0  0  0  0  0  0  0  0  0
  149.0960  138.1065  158.1020 N   0  0  0  0  0  0  0  0  0  0  0  0
  150.0305  138.0894  156.9784 C   0  0  2  0  0  0  0  0  0  0  0  0
  151.4646  137.8032  157.4755 C   0  0  1  0  0  0  0  0  0  0  0  0
  152.3372  137.4031  156.2721 C   0  0  0  0  0  0  0  0  0  0  0  0
  152.5174  138.7418  155.5322 C   0  0  0  0  0  0  0  0  0  0  0  0
  151.7056  139.7286  156.3986 C   0  0  2  0  0  0  0  0  0  0  0  0
  151.9992  139.1963  157.7955 C   0  0  0  0  0  0  0  0  0  0  0  0
  150.1801  139.4755  156.2988 C   0  0  1  0  0  0  0  0  0  0  0  0
  149.5698  139.5523  154.8857 C   0  0  0  0  0  0  0  0  0  0  0  0
  150.0757  140.6706  154.1871 O   0  0  0  0  0  0  0  0  0  0  0  0
  146.4072  133.7039  162.4806 H   0  0  0  0  0  0  0  0  0  0  0  0
  148.4245  138.8596  158.1234 H   0  0  0  0  0  0  0  0  0  0  0  0
  149.7204  137.3193  156.2692 H   0  0  0  0  0  0  0  0  0  0  0  0
  151.5150  137.0883  158.2979 H   0  0  0  0  0  0  0  0  0  0  0  0
  153.3015  137.0152  156.6026 H   0  0  0  0  0  0  0  0  0  0  0  0
  151.8665  136.6413  155.6495 H   0  0  0  0  0  0  0  0  0  0  0  0
  153.5704  139.0258  155.5223 H   0  0  0  0  0  0  0  0  0  0  0  0
  152.1877  138.7010  154.4952 H   0  0  0  0  0  0  0  0  0  0  0  0
  151.9833  140.7720  156.2459 H   0  0  0  0  0  0  0  0  0  0  0  0
  151.4402  139.7064  158.5822 H   0  0  0  0  0  0  0  0  0  0  0  0
  153.0605  139.2052  158.0503 H   0  0  0  0  0  0  0  0  0  0  0  0
  149.6828  140.2308  156.9114 H   0  0  0  0  0  0  0  0  0  0  0  0
  149.7576  138.6466  154.3103 H   0  0  0  0  0  0  0  0  0  0  0  0
  148.4870  139.6557  154.9552 H   0  0  0  0  0  0  0  0  0  0  0  0
  149.7095  140.6696  153.3159 H   0  0  0  0  0  0  0  0  0  0  0  0
  1  2  2  0  0  0  0
  2  3  1  0  0  0  0
  2  9  1  0  0  0  0
  3  4  1  0  0  0  0
  4  8  1  0  0  0  0
  4  5  2  0  0  0  0
  5  6  1  0  0  0  0
  6  7  2  0  0  0  0
  7  8  1  0  0  0  0
  7 19  1  0  0  0  0
  9 10  1  0  0  0  0
  9 20  1  0  0  0  0
 10 16  1  0  0  0  0
 10 11  1  0  0  0  0
 10 21  1  0  0  0  0
 11 15  1  0  0  0  0
 11 12  1  0  0  0  0
 11 22  1  0  0  0  0
 12 13  1  0  0  0  0
 12 23  1  0  0  0  0
 12 24  1  0  0  0  0
 13 14  1  0  0  0  0
 13 25  1  0  0  0  0
 13 26  1  0  0  0  0
 14 15  1  0  0  0  0
 14 16  1  0  0  0  0
 14 27  1  0  0  0  0
 15 28  1  0  0  0  0
 15 29  1  0  0  0  0
 16 17  1  0  0  0  0
 16 30  1  0  0  0  0
 17 18  1  0  0  0  0
 17 31  1  0  0  0  0
 17 32  1  0  0  0  0
 18 33  1  0  0  0  0
M  CHG  1   3  -1
M  END
> <s_m_source_file>
AV-unprocessed.smi

> <i_m_source_file_index>
798

> <i_lp_mmshare_version>
43012

> <i_f3d_flags>
0

> <s_epik_input>
W0NIMl0xW0NIMl1bQ0BASF0oW0NIMl0yKVtDQEBIXShbQ0gyXVtPSF0pW0NAQEhdKFtDQEhdMTIpW05IXUMoPU8pW05IXWMzbm5bY0hdczM=

> <s_epik_cmdline>
J2VwaWtfcHl0aG9uJywgJy1waCcsICc3LjAnLCAnLXRuJywgJzgnLCAnLW1hJywgJzIwMCcsICctbWV0YWxfYmluZGluZycsICctaW1hZScsICc8aW5maWxlLm1hZT4nLCAnLW9tYWUnLCAnPG91dGZpbGUubWFlPic=

> <r_lp_tautomer_probability>
1

> <r_epik_Ionization_Penalty>
4.53732

> <r_epik_Ionization_Penalty_Charging>
4.48632

> <r_epik_Ionization_Penalty_Neutral>
0.0510007

> <r_epik_State_Penalty>
4.48602

> <r_epik_Charging_Adjusted_Penalty>
8.97234

> <i_epik_Tot_Q>
-1

> <i_epik_Tot_abs_Q>
1

> <r_epik_Metal_State_Penalty>
0.812492

> <b_epik_Metal_Only>
1

> <s_lp_Force_Field>
OPLS_2005

> <r_lp_Energy>
47.3134

> <b_lp_Chiralities_Consistent>
1

> <s_lp_Variant>
AV-unprocessed.smi:798-11

> <Gold.Version>
5.8.1

> <Gold.Id.Protein>
6NUR|6NUR_protein|mol2

> <Gold.PLP.Fitness>
39.1115

> <Gold.PLP.PLP>
-28.0563

> <Gold.PLP.part.hbond>
-6.0992

> <Gold.PLP.part.metal>
0.0000

> <Gold.PLP.part.buried>
-4.9752

> <Gold.PLP.part.nonpolar>
-18.3866

> <Gold.PLP.part.repulsive>
0.1144

> <Gold.PLP.ligand.clash>
0.0000

> <Gold.PLP.ligand.torsion>
1.0682

> <Gold.PLP.Chemscore.Hbond>
4.3880

> <Gold.PLP.Chemscore.CHOScore>
0.0000

> <Gold.PLP.Chemscore.Metal>
0.0000

> <Gold.Chemscore.Hbonds>
donor molecule, donor type, donor heavy atom, donor atom, acceptor molecule, acceptor atom, score
      L1  H    18    33       P1  7957  0.47
      P1  H  6896  6908       L1     1  1.00
      P1  H  6931  6943       L1     5  0.60
      P1  H  6934  6947       L1     3  1.19
      P1  H  7989  7998       L1    18  0.29

> <Gold.PLP.Chemscore.Internal.Correction>
0.0276

> <Gold.Rescore>
     Score         DG    S(hbond)    S(metal)    S(lipo)     H(rot)  DE(clash)    DE(int)     intcor
     14.87     -17.33       3.00        0.00      57.78       1.92       0.02       2.44       ----

> <Gold.Chemscore.Fitness>
14.8720

> <Gold.Chemscore.DG>
-17.3302

> <Gold.Chemscore.ZeroCoef>
-5.4800

> <Gold.Chemscore.Hbond>
2.9960

> <Gold.Chemscore.Metal>
0.0000

> <Gold.Chemscore.Lipo>
57.7804

> <Gold.Chemscore.Internal_Hbond>
0.0000

> <Gold.Chemscore.DEClash>
0.0174

> <Gold.Chemscore.DEInternal>
2.4408

> <Gold.Chemscore.Rot>
1.9207

> <Gold.Chemscore.Internal.Correction>
   9.000000E+99

> <Gold.Chemscore.Hbonds>
donor molecule, donor type, donor heavy atom, donor atom, acceptor molecule, acceptor atom, score
      L1  H    18    33       P1  7957  0.47
      P1  H  6896  6908       L1     1  1.00
      P1  H  6931  6943       L1     5  0.04
      P1  H  6934  6947       L1     3  0.13
      P1  H  7989  7998       L1    18  0.01

> <Gold.Chemscore.Hbond.Weighted>
-10.0068

> <Gold.Chemscore.Metal.Weighted>
-0.0000

> <Gold.Chemscore.Lipo.Weighted>
-6.7603

> <Gold.Chemscore.Internal_Hbond.Weighted>
0.0000

> <Gold.Chemscore.DEClash.Weighted>
0.0174

> <Gold.Chemscore.DEInternal.Weighted>
2.4408

> <Gold.Chemscore.Rot.Weighted>
4.9169

> <Gold.Chemscore.Internal.Correction.Weighted>
   9.000000E+99

> <Gold.Protein.RotatedTorsions>
[ 6907 6896 6895 6894 ] final -163.58 input  -60.11 | X-H torsion
[ 7974 7965 7964 7962 ] final -122.31 input  175.53 | X-H torsion
[ 8008 7997 7996 7995 ] final   27.36 input   59.86 | X-H torsion
[ 10167 10162 10161 10158 ] final   60.46 input  -65.29 | X-H torsion
[ 10718 10713 10712 10709 ] final   75.48 input   66.30 | X-H torsion
[ 10763 10752 10751 10750 ] final  -87.53 input  -60.55 | X-H torsion
[ 11005 11000 10999 10996 ] final  132.47 input  -57.11 | X-H torsion

> <Gold.Protein.ActiveResidues>
 VAL166  LYS551  ARG553  GLY616  TRP617  ASP618  TYR619  PRO620  LYS621  CYS622 
 ASP623  PHE694  ASN695  SER759  ASP760  ASP761  ALA762  ILE779  LEU786  VAL792 
 PHE793  MET794  SER795  GLU796  ALA797  LYS798  CYS799  TRP800  GLU811  SER814 

> <Gold.Protein.RotatedAtoms>
  151.3983  133.3766  159.2728 H   0  0  0  0  0  0  0  0  0  0  0  0  # atno 6907 bound_to 6896
  150.9452  134.8859  159.7648 H   0  0  0  0  0  0  0  0  0  0  0  0  # atno 6908 bound_to 6896
  152.5089  134.3936  159.9444 H   0  0  0  0  0  0  0  0  0  0  0  0  # atno 6909 bound_to 6896
  145.0309  140.8066  143.4324 H   0  0  0  0  0  0  0  0  0  0  0  0  # atno 7974 bound_to 7965
  155.0417  140.3170  155.4722 H   0  0  0  0  0  0  0  0  0  0  0  0  # atno 8008 bound_to 7997
  156.2853  140.2162  156.5484 H   0  0  0  0  0  0  0  0  0  0  0  0  # atno 8009 bound_to 7997
  154.7284  140.0483  157.0692 H   0  0  0  0  0  0  0  0  0  0  0  0  # atno 8010 bound_to 7997
  140.1653  144.4330  150.6688 H   0  0  0  0  0  0  0  0  0  0  0  0  # atno 10167 bound_to 10162
  157.6636  130.9728  150.1360 H   0  0  0  0  0  0  0  0  0  0  0  0  # atno 10718 bound_to 10713
  154.6346  135.5410  153.7719 H   0  0  0  0  0  0  0  0  0  0  0  0  # atno 10763 bound_to 10752
  153.0302  135.6444  154.1250 H   0  0  0  0  0  0  0  0  0  0  0  0  # atno 10764 bound_to 10752
  154.1178  135.2922  155.3195 H   0  0  0  0  0  0  0  0  0  0  0  0  # atno 10765 bound_to 10752
  139.9792  134.9553  156.9587 H   0  0  0  0  0  0  0  0  0  0  0  0  # atno 11005 bound_to 11000
  145.1772  139.2371  143.5311 LP  0  0  0  0  0  0  0  0  0  0  0  0  # atno 17320 bound_to 7965
  146.3498  140.1537  142.8592 LP  0  0  0  0  0  0  0  0  0  0  0  0  # atno 17321 bound_to 7965
  140.6617  143.2254  151.5841 LP  0  0  0  0  0  0  0  0  0  0  0  0  # atno 17342 bound_to 10162
  139.5362  144.2774  152.1256 LP  0  0  0  0  0  0  0  0  0  0  0  0  # atno 17343 bound_to 10162
  156.2194  130.3673  149.8573 LP  0  0  0  0  0  0  0  0  0  0  0  0  # atno 17370 bound_to 10713
  156.6430  130.8713  151.3517 LP  0  0  0  0  0  0  0  0  0  0  0  0  # atno 17371 bound_to 10713
  140.5131  134.0982  155.7275 LP  0  0  0  0  0  0  0  0  0  0  0  0  # atno 17394 bound_to 11000
  141.1466  133.9044  157.2200 LP  0  0  0  0  0  0  0  0  0  0  0  0  # atno 17395 bound_to 11000

$$$$
