AV-unprocessed.smi:1736|AV-procd|sdf|6992|dock9
  -GOLD-   22720 8203D 1   1.00000     0.00000
 Structure written by MMmdl.
 44 45  0  0  0  0  0  0  0  0  1 V2000
  152.9369  138.2673  155.6354 C   0  0  0  0  0  0  0  0  0  0  0  0
  151.5000  138.4942  155.6282 N   0  0  0  0  0  0  0  0  0  0  0  0
  151.1810  139.9174  155.5641 C   0  0  0  0  0  0  0  0  0  0  0  0
  149.6598  140.1561  155.5692 C   0  0  0  0  0  0  0  0  0  0  0  0
  148.9949  139.4782  154.4438 N   0  0  0  0  0  0  0  0  0  0  0  0
  147.5402  139.7714  154.3071 C   0  0  0  0  0  0  0  0  0  0  0  0
  146.6575  138.9032  155.2362 C   0  0  0  0  0  0  0  0  0  0  0  0
  147.2386  141.2532  154.6466 C   0  0  0  0  0  0  0  0  0  0  0  0
  147.0396  139.5371  152.8508 C   0  0  0  0  0  0  0  0  0  0  0  0
  147.0416  138.1255  152.4678 N   0  0  0  0  0  0  0  0  0  0  0  0
  145.9681  137.4102  152.1037 C   0  0  0  0  0  0  0  0  0  0  0  0
  144.8250  137.8652  152.0628 O   0  0  0  0  0  0  0  0  0  0  0  0
  146.3093  136.1507  151.7875 N   0  0  0  0  0  0  0  0  0  0  0  0
  145.4483  135.1111  151.3563 C   0  0  0  0  0  0  0  0  0  0  0  0
  145.6189  133.6988  151.4537 C   0  0  0  0  0  0  0  0  0  0  0  0
  144.5854  133.0538  150.9309 N   0  0  0  0  0  0  0  0  0  0  0  0
  143.7607  134.0359  150.5028 N   0  0  0  0  0  0  0  0  0  0  0  0
  144.2472  135.3022  150.7410 C   0  0  0  0  0  0  0  0  0  0  0  0
  149.3332  138.0471  154.5107 C   0  0  0  0  0  0  0  0  0  0  0  0
  150.8558  137.8194  154.5056 C   0  0  0  0  0  0  0  0  0  0  0  0
  142.8794  133.8278  150.0552 H   0  0  0  0  0  0  0  0  0  0  0  0
  153.4014  138.7609  156.4896 H   0  0  0  0  0  0  0  0  0  0  0  0
  153.4019  138.6514  154.7265 H   0  0  0  0  0  0  0  0  0  0  0  0
  153.1589  137.2020  155.7068 H   0  0  0  0  0  0  0  0  0  0  0  0
  151.6285  140.4329  156.4146 H   0  0  0  0  0  0  0  0  0  0  0  0
  151.6175  140.3595  154.6668 H   0  0  0  0  0  0  0  0  0  0  0  0
  149.2483  139.8130  156.5186 H   0  0  0  0  0  0  0  0  0  0  0  0
  149.4975  141.2315  155.5242 H   0  0  0  0  0  0  0  0  0  0  0  0
  145.6024  139.1539  155.1188 H   0  0  0  0  0  0  0  0  0  0  0  0
  146.8979  139.0491  156.2890 H   0  0  0  0  0  0  0  0  0  0  0  0
  146.7524  137.8396  155.0190 H   0  0  0  0  0  0  0  0  0  0  0  0
  146.2192  141.5275  154.3723 H   0  0  0  0  0  0  0  0  0  0  0  0
  147.9098  141.9324  154.1198 H   0  0  0  0  0  0  0  0  0  0  0  0
  147.3322  141.4607  155.7124 H   0  0  0  0  0  0  0  0  0  0  0  0
  146.0248  139.9126  152.7216 H   0  0  0  0  0  0  0  0  0  0  0  0
  147.6339  140.1243  152.1481 H   0  0  0  0  0  0  0  0  0  0  0  0
  147.9402  137.6658  152.4598 H   0  0  0  0  0  0  0  0  0  0  0  0
  147.2873  135.9119  151.8594 H   0  0  0  0  0  0  0  0  0  0  0  0
  146.4323  133.1257  151.8734 H   0  0  0  0  0  0  0  0  0  0  0  0
  143.7120  136.1975  150.4603 H   0  0  0  0  0  0  0  0  0  0  0  0
  148.9080  137.5962  155.4076 H   0  0  0  0  0  0  0  0  0  0  0  0
  148.9187  137.5099  153.6600 H   0  0  0  0  0  0  0  0  0  0  0  0
  151.2760  138.1747  153.5632 H   0  0  0  0  0  0  0  0  0  0  0  0
  151.0594  136.7491  154.5535 H   0  0  0  0  0  0  0  0  0  0  0  0
  1  2  1  0  0  0  0
  1 22  1  0  0  0  0
  1 23  1  0  0  0  0
  1 24  1  0  0  0  0
  2 20  1  0  0  0  0
  2  3  1  0  0  0  0
  3  4  1  0  0  0  0
  3 25  1  0  0  0  0
  3 26  1  0  0  0  0
  4  5  1  0  0  0  0
  4 27  1  0  0  0  0
  4 28  1  0  0  0  0
  5  6  1  0  0  0  0
  5 19  1  0  0  0  0
  6  7  1  0  0  0  0
  6  8  1  0  0  0  0
  6  9  1  0  0  0  0
  7 29  1  0  0  0  0
  7 30  1  0  0  0  0
  7 31  1  0  0  0  0
  8 32  1  0  0  0  0
  8 33  1  0  0  0  0
  8 34  1  0  0  0  0
  9 10  1  0  0  0  0
  9 35  1  0  0  0  0
  9 36  1  0  0  0  0
 10 11  1  0  0  0  0
 10 37  1  0  0  0  0
 11 12  2  0  0  0  0
 11 13  1  0  0  0  0
 13 14  1  0  0  0  0
 13 38  1  0  0  0  0
 14 18  2  0  0  0  0
 14 15  1  0  0  0  0
 15 16  2  0  0  0  0
 15 39  1  0  0  0  0
 16 17  1  0  0  0  0
 17 21  1  0  0  0  0
 17 18  1  0  0  0  0
 18 40  1  0  0  0  0
 19 20  1  0  0  0  0
 19 41  1  0  0  0  0
 19 42  1  0  0  0  0
 20 43  1  0  0  0  0
 20 44  1  0  0  0  0
M  END
> <s_m_source_file>
AV-unprocessed.smi

> <i_m_source_file_index>
1736

> <i_lp_mmshare_version>
43012

> <i_f3d_flags>
0

> <s_epik_input>
W0NIM11OMVtDSDJdW0NIMl1OKFtDSDJdW0NIMl0xKUMoW0NIM10pKFtDSDNdKVtDSDJdW05IXUMoPU8pW05IXWMyW2NIXW5bbkhdW2NIXTI=

> <s_epik_cmdline>
J2VwaWtfcHl0aG9uJywgJy1waCcsICc3LjAnLCAnLXRuJywgJzgnLCAnLW1hJywgJzIwMCcsICctbWV0YWxfYmluZGluZycsICctaW1hZScsICc8aW5maWxlLm1hZT4nLCAnLW9tYWUnLCAnPG91dGZpbGUubWFlPic=

> <r_lp_tautomer_probability>
0.5

> <r_epik_Ionization_Penalty>
3.08539

> <r_epik_Ionization_Penalty_Charging>
0

> <r_epik_Ionization_Penalty_Neutral>
3.08539

> <r_epik_State_Penalty>
2.1584

> <r_epik_Charging_Adjusted_Penalty>
2.1584

> <i_epik_Tot_Q>
0

> <i_epik_Tot_abs_Q>
0

> <r_epik_Metal_State_Penalty>
2.1584

> <b_epik_Metal_Only>
0

> <s_lp_Force_Field>
OPLS_2005

> <r_lp_Energy>
53.1153

> <b_lp_Chiralities_Consistent>
1

> <s_lp_Variant>
AV-unprocessed.smi:1736-3

> <Gold.Version>
5.8.1

> <Gold.Id.Protein>
6NUR|6NUR_protein|mol2

> <Gold.PLP.Fitness>
35.6954

> <Gold.PLP.PLP>
-25.2633

> <Gold.PLP.part.hbond>
-3.0000

> <Gold.PLP.part.metal>
0.0000

> <Gold.PLP.part.buried>
-3.6375

> <Gold.PLP.part.nonpolar>
-25.3474

> <Gold.PLP.part.repulsive>
5.8215

> <Gold.PLP.ligand.clash>
0.0000

> <Gold.PLP.ligand.torsion>
0.7320

> <Gold.PLP.Chemscore.Hbond>
2.9520

> <Gold.PLP.Chemscore.CHOScore>
1.0000

> <Gold.PLP.Chemscore.Metal>
0.0000

> <Gold.Chemscore.Hbonds>
donor molecule, donor type, donor heavy atom, donor atom, acceptor molecule, acceptor atom, score
      L1  H    10    37       P1  7948  0.94
      L1  H    13    38       P1  7948  1.00
      L1  H    17    21       P1 10186  0.98
      L1  C    18    40       P1 10171  1.00

> <Gold.PLP.Chemscore.Internal.Correction>
0.0401

> <Gold.Rescore>
     Score         DG    S(hbond)    S(metal)    S(lipo)     H(rot)  DE(clash)    DE(int)     intcor
     14.68     -18.67       2.87        0.00      65.59       1.59       1.68       2.32       ----

> <Gold.Chemscore.Fitness>
14.6751

> <Gold.Chemscore.DG>
-18.6741

> <Gold.Chemscore.ZeroCoef>
-5.4800

> <Gold.Chemscore.Hbond>
2.8716

> <Gold.Chemscore.Metal>
0.0000

> <Gold.Chemscore.Lipo>
65.5871

> <Gold.Chemscore.Internal_Hbond>
0.0000

> <Gold.Chemscore.DEClash>
1.6761

> <Gold.Chemscore.DEInternal>
2.3228

> <Gold.Chemscore.Rot>
1.5901

> <Gold.Chemscore.Internal.Correction>
   9.000000E+99

> <Gold.Chemscore.Hbonds>
donor molecule, donor type, donor heavy atom, donor atom, acceptor molecule, acceptor atom, score
      L1  H    10    37       P1  7948  0.91
      L1  H    13    38       P1  7948  0.98
      L1  H    17    21       P1 10186  0.87

> <Gold.Chemscore.Hbond.Weighted>
-9.5910

> <Gold.Chemscore.Metal.Weighted>
-0.0000

> <Gold.Chemscore.Lipo.Weighted>
-7.6737

> <Gold.Chemscore.Internal_Hbond.Weighted>
0.0000

> <Gold.Chemscore.DEClash.Weighted>
1.6761

> <Gold.Chemscore.DEInternal.Weighted>
2.3228

> <Gold.Chemscore.Rot.Weighted>
4.0706

> <Gold.Chemscore.Internal.Correction.Weighted>
   9.000000E+99

> <Gold.Protein.RotatedTorsions>
[ 6907 6896 6895 6894 ] final  -85.09 input  -60.11 | X-H torsion
[ 7974 7965 7964 7962 ] final  -32.56 input  175.53 | X-H torsion
[ 8008 7997 7996 7995 ] final  -61.27 input   59.86 | X-H torsion
[ 10167 10162 10161 10158 ] final   77.55 input  -65.29 | X-H torsion
[ 10718 10713 10712 10709 ] final  -77.52 input   66.30 | X-H torsion
[ 10763 10752 10751 10750 ] final   11.89 input  -60.55 | X-H torsion
[ 11005 11000 10999 10996 ] final   13.02 input  -57.11 | X-H torsion

> <Gold.Protein.ActiveResidues>
 VAL166  LYS551  ARG553  GLY616  TRP617  ASP618  TYR619  PRO620  LYS621  CYS622 
 ASP623  PHE694  ASN695  SER759  ASP760  ASP761  ALA762  ILE779  LEU786  VAL792 
 PHE793  MET794  SER795  GLU796  ALA797  LYS798  CYS799  TRP800  GLU811  SER814 

> <Gold.Protein.RotatedAtoms>
  150.6872  134.3258  159.4805 H   0  0  0  0  0  0  0  0  0  0  0  0  # atno 6907 bound_to 6896
  152.1128  134.9259  160.0575 H   0  0  0  0  0  0  0  0  0  0  0  0  # atno 6908 bound_to 6896
  152.0495  133.3978  159.4408 H   0  0  0  0  0  0  0  0  0  0  0  0  # atno 6909 bound_to 6896
  146.0980  140.5807  142.8834 H   0  0  0  0  0  0  0  0  0  0  0  0  # atno 7974 bound_to 7965
  154.4440  140.1021  156.6405 H   0  0  0  0  0  0  0  0  0  0  0  0  # atno 8008 bound_to 7997
  155.5507  140.3485  155.4449 H   0  0  0  0  0  0  0  0  0  0  0  0  # atno 8009 bound_to 7997
  156.0531  140.1308  157.0016 H   0  0  0  0  0  0  0  0  0  0  0  0  # atno 8010 bound_to 7997
  139.9804  144.5830  150.7905 H   0  0  0  0  0  0  0  0  0  0  0  0  # atno 10167 bound_to 10162
  156.0142  130.4493  150.3358 H   0  0  0  0  0  0  0  0  0  0  0  0  # atno 10718 bound_to 10713
  153.1879  135.6838  153.8391 H   0  0  0  0  0  0  0  0  0  0  0  0  # atno 10763 bound_to 10752
  153.7700  135.3197  155.3351 H   0  0  0  0  0  0  0  0  0  0  0  0  # atno 10764 bound_to 10752
  154.8100  135.4724  154.0588 H   0  0  0  0  0  0  0  0  0  0  0  0  # atno 10765 bound_to 10752
  140.4855  134.0893  155.7760 H   0  0  0  0  0  0  0  0  0  0  0  0  # atno 11005 bound_to 11000
  144.7410  140.4943  143.6869 LP  0  0  0  0  0  0  0  0  0  0  0  0  # atno 17320 bound_to 7965
  145.5910  139.1495  143.3182 LP  0  0  0  0  0  0  0  0  0  0  0  0  # atno 17321 bound_to 7965
  140.7491  143.2933  151.3272 LP  0  0  0  0  0  0  0  0  0  0  0  0  # atno 17342 bound_to 10162
  139.6414  144.0533  152.2557 LP  0  0  0  0  0  0  0  0  0  0  0  0  # atno 17343 bound_to 10162
  157.1455  131.0307  151.2909 LP  0  0  0  0  0  0  0  0  0  0  0  0  # atno 17370 bound_to 10713
  157.4436  130.7558  149.7090 LP  0  0  0  0  0  0  0  0  0  0  0  0  # atno 17371 bound_to 10713
  141.1510  133.8968  157.2097 LP  0  0  0  0  0  0  0  0  0  0  0  0  # atno 17394 bound_to 11000
  139.9801  135.0101  156.9727 LP  0  0  0  0  0  0  0  0  0  0  0  0  # atno 17395 bound_to 11000

$$$$
