AV-unprocessed.smi:1026|AV-procd|sdf|4468|dock1
  -GOLD-   22720 2443D 1   1.00000     0.00000
 Structure written by MMmdl.
 40 41  0  0  0  0  0  0  0  0  1 V2000
  144.2058  135.9863  152.8949 C   0  0  0  0  0  0  0  0  0  0  0  0
  145.0476  136.3919  154.1095 C   0  0  0  0  0  0  0  0  0  0  0  0
  146.0432  137.4555  153.7870 C   0  0  0  0  0  0  0  0  0  0  0  0
  146.8020  138.0560  154.7073 N   0  0  0  0  0  0  0  0  0  0  0  0
  147.6310  139.0423  154.1637 C   0  0  0  0  0  0  0  0  0  0  0  0
  148.5575  139.8124  155.0549 C   0  0  0  0  0  0  0  0  0  0  0  0
  149.2984  140.9288  154.3003 C   0  0  0  0  0  0  0  0  0  0  0  0
  149.6936  142.0092  155.1964 N   0  0  0  0  0  0  0  0  0  0  0  0
  150.5897  141.8959  156.1915 C   0  0  0  0  0  0  0  0  0  0  0  0
  151.1900  140.8534  156.4456 O   0  0  0  0  0  0  0  0  0  0  0  0
  150.7922  143.0199  156.9025 N   0  0  0  0  0  0  0  0  0  0  0  0
  151.6909  143.2339  158.0390 C   0  0  0  0  0  0  0  0  0  0  0  0
  151.5876  142.0607  159.0369 C   0  0  0  0  0  0  0  0  0  0  0  0
  152.5526  142.2102  160.2221 C   0  0  0  0  0  0  0  0  0  0  0  0
  152.1790  143.6949  161.1942 S   0  0  0  0  0  0  0  0  0  0  0  0
  152.2943  144.9224  159.8647 C   0  0  0  0  0  0  0  0  0  0  0  0
  151.3464  144.5793  158.7063 C   0  0  0  0  0  0  0  0  0  0  0  0
  147.4806  139.1876  152.8070 C   0  0  0  0  0  0  0  0  0  0  0  0
  146.2865  138.0931  152.1647 S   0  0  0  0  0  0  0  0  0  0  0  0
  143.4868  135.2116  153.1619 H   0  0  0  0  0  0  0  0  0  0  0  0
  144.8339  135.5967  152.0934 H   0  0  0  0  0  0  0  0  0  0  0  0
  143.6483  136.8369  152.5015 H   0  0  0  0  0  0  0  0  0  0  0  0
  144.3984  136.7477  154.9104 H   0  0  0  0  0  0  0  0  0  0  0  0
  145.5787  135.5237  154.5007 H   0  0  0  0  0  0  0  0  0  0  0  0
  147.9989  140.2459  155.8852 H   0  0  0  0  0  0  0  0  0  0  0  0
  149.2801  139.1314  155.5063 H   0  0  0  0  0  0  0  0  0  0  0  0
  150.1751  140.5295  153.7872 H   0  0  0  0  0  0  0  0  0  0  0  0
  148.6518  141.3475  153.5288 H   0  0  0  0  0  0  0  0  0  0  0  0
  149.2512  142.9055  155.0552 H   0  0  0  0  0  0  0  0  0  0  0  0
  150.2670  143.8305  156.6075 H   0  0  0  0  0  0  0  0  0  0  0  0
  152.7180  143.3030  157.6758 H   0  0  0  0  0  0  0  0  0  0  0  0
  150.5648  141.9744  159.4066 H   0  0  0  0  0  0  0  0  0  0  0  0
  151.8055  141.1215  158.5273 H   0  0  0  0  0  0  0  0  0  0  0  0
  152.4838  141.3408  160.8759 H   0  0  0  0  0  0  0  0  0  0  0  0
  153.5829  142.2649  159.8697 H   0  0  0  0  0  0  0  0  0  0  0  0
  152.0498  145.9029  160.2737 H   0  0  0  0  0  0  0  0  0  0  0  0
  153.3254  144.9709  159.5130 H   0  0  0  0  0  0  0  0  0  0  0  0
  151.3988  145.3763  157.9634 H   0  0  0  0  0  0  0  0  0  0  0  0
  150.3171  144.5666  159.0675 H   0  0  0  0  0  0  0  0  0  0  0  0
  147.9952  139.8722  152.1491 H   0  0  0  0  0  0  0  0  0  0  0  0
  1  2  1  0  0  0  0
  1 20  1  0  0  0  0
  1 21  1  0  0  0  0
  1 22  1  0  0  0  0
  2  3  1  0  0  0  0
  2 23  1  0  0  0  0
  2 24  1  0  0  0  0
  3 19  1  0  0  0  0
  3  4  2  0  0  0  0
  4  5  1  0  0  0  0
  5  6  1  0  0  0  0
  5 18  2  0  0  0  0
  6  7  1  0  0  0  0
  6 25  1  0  0  0  0
  6 26  1  0  0  0  0
  7  8  1  0  0  0  0
  7 27  1  0  0  0  0
  7 28  1  0  0  0  0
  8  9  1  0  0  0  0
  8 29  1  0  0  0  0
  9 10  2  0  0  0  0
  9 11  1  0  0  0  0
 11 12  1  0  0  0  0
 11 30  1  0  0  0  0
 12 17  1  0  0  0  0
 12 13  1  0  0  0  0
 12 31  1  0  0  0  0
 13 14  1  0  0  0  0
 13 32  1  0  0  0  0
 13 33  1  0  0  0  0
 14 15  1  0  0  0  0
 14 34  1  0  0  0  0
 14 35  1  0  0  0  0
 15 16  1  0  0  0  0
 16 17  1  0  0  0  0
 16 36  1  0  0  0  0
 16 37  1  0  0  0  0
 17 38  1  0  0  0  0
 17 39  1  0  0  0  0
 18 19  1  0  0  0  0
 18 40  1  0  0  0  0
M  END
> <s_m_source_file>
AV-unprocessed.smi

> <i_m_source_file_index>
1026

> <i_lp_mmshare_version>
43012

> <i_f3d_flags>
0

> <s_epik_input>
W0NIM11bQ0gyXWMxbmMoW2NIXXMxKVtDSDJdW0NIMl1bTkhdQyg9TylbTkhdW0NIXTJbQ0gyXVtDSDJdU1tDSDJdW0NIMl0y

> <s_epik_cmdline>
J2VwaWtfcHl0aG9uJywgJy1waCcsICc3LjAnLCAnLXRuJywgJzgnLCAnLW1hJywgJzIwMCcsICctbWV0YWxfYmluZGluZycsICctaW1hZScsICc8aW5maWxlLm1hZT4nLCAnLW9tYWUnLCAnPG91dGZpbGUubWFlPic=

> <r_epik_Ionization_Penalty>
0.00199316

> <r_epik_Ionization_Penalty_Charging>
0

> <r_epik_Ionization_Penalty_Neutral>
0.00199316

> <r_epik_State_Penalty>
0.00132065

> <r_epik_Charging_Adjusted_Penalty>
0.00132065

> <i_epik_Tot_Q>
0

> <i_epik_Tot_abs_Q>
0

> <r_epik_Metal_State_Penalty>
-0

> <b_epik_Metal_Only>
0

> <s_lp_Force_Field>
OPLS_2005

> <r_lp_Energy>
4.0728

> <b_lp_Chiralities_Consistent>
1

> <s_lp_Variant>
AV-unprocessed.smi:1026-1

> <Gold.Version>
5.8.1

> <Gold.Id.Protein>
6NUR|6NUR_protein|mol2

> <Gold.PLP.Fitness>
44.9497

> <Gold.PLP.PLP>
-36.6678

> <Gold.PLP.part.hbond>
-2.0000

> <Gold.PLP.part.metal>
0.0000

> <Gold.PLP.part.buried>
-4.1648

> <Gold.PLP.part.nonpolar>
-31.8491

> <Gold.PLP.part.repulsive>
0.3196

> <Gold.PLP.ligand.clash>
0.0000

> <Gold.PLP.ligand.torsion>
0.3786

> <Gold.PLP.Chemscore.Hbond>
2.0000

> <Gold.PLP.Chemscore.CHOScore>
1.0000

> <Gold.PLP.Chemscore.Metal>
0.0000

> <Gold.Chemscore.Hbonds>
donor molecule, donor type, donor heavy atom, donor atom, acceptor molecule, acceptor atom, score
      L1  H     8    29       P1  8028  1.00
      L1  H    11    30       P1  8028  1.00
      L1  C    18    40       P1  7957  0.62

> <Gold.PLP.Chemscore.Internal.Correction>
0.0391

> <Gold.Rescore>
     Score         DG    S(hbond)    S(metal)    S(lipo)     H(rot)  DE(clash)    DE(int)     intcor
     18.62     -19.91       1.88        0.00     104.06       1.58       0.22       1.06       ----

> <Gold.Chemscore.Fitness>
18.6228

> <Gold.Chemscore.DG>
-19.9063

> <Gold.Chemscore.ZeroCoef>
-5.4800

> <Gold.Chemscore.Hbond>
1.8826

> <Gold.Chemscore.Metal>
0.0000

> <Gold.Chemscore.Lipo>
104.0604

> <Gold.Chemscore.Internal_Hbond>
0.0000

> <Gold.Chemscore.DEClash>
0.2225

> <Gold.Chemscore.DEInternal>
1.0610

> <Gold.Chemscore.Rot>
1.5768

> <Gold.Chemscore.Internal.Correction>
   9.000000E+99

> <Gold.Chemscore.Hbonds>
donor molecule, donor type, donor heavy atom, donor atom, acceptor molecule, acceptor atom, score
      L1  H     8    29       P1  8028  0.95
      L1  H    11    30       P1  8028  0.98

> <Gold.Chemscore.Hbond.Weighted>
-6.2879

> <Gold.Chemscore.Metal.Weighted>
-0.0000

> <Gold.Chemscore.Lipo.Weighted>
-12.1751

> <Gold.Chemscore.Internal_Hbond.Weighted>
0.0000

> <Gold.Chemscore.DEClash.Weighted>
0.2225

> <Gold.Chemscore.DEInternal.Weighted>
1.0610

> <Gold.Chemscore.Rot.Weighted>
4.0367

> <Gold.Chemscore.Internal.Correction.Weighted>
   9.000000E+99

> <Gold.Protein.RotatedTorsions>
[ 6907 6896 6895 6894 ] final  153.63 input  -60.11 | X-H torsion
[ 7974 7965 7964 7962 ] final    7.96 input  175.53 | X-H torsion
[ 8008 7997 7996 7995 ] final  106.45 input   59.86 | X-H torsion
[ 10167 10162 10161 10158 ] final -101.02 input  -65.29 | X-H torsion
[ 10718 10713 10712 10709 ] final  -40.99 input   66.30 | X-H torsion
[ 10763 10752 10751 10750 ] final -116.62 input  -60.55 | X-H torsion
[ 11005 11000 10999 10996 ] final -130.58 input  -57.11 | X-H torsion

> <Gold.Protein.ActiveResidues>
 VAL166  LYS551  ARG553  GLY616  TRP617  ASP618  TYR619  PRO620  LYS621  CYS622 
 ASP623  PHE694  ASN695  SER759  ASP760  ASP761  ALA762  ILE779  LEU786  VAL792 
 PHE793  MET794  SER795  GLU796  ALA797  LYS798  CYS799  TRP800  GLU811  SER814 

> <Gold.Protein.RotatedAtoms>
  152.0699  133.4102  159.4454 H   0  0  0  0  0  0  0  0  0  0  0  0  # atno 6907 bound_to 6896
  150.6864  134.3103  159.4753 H   0  0  0  0  0  0  0  0  0  0  0  0  # atno 6908 bound_to 6896
  152.0934  134.9391  160.0622 H   0  0  0  0  0  0  0  0  0  0  0  0  # atno 6909 bound_to 6896
  146.2421  140.0004  142.8416 H   0  0  0  0  0  0  0  0  0  0  0  0  # atno 7974 bound_to 7965
  156.1744  140.3112  155.9032 H   0  0  0  0  0  0  0  0  0  0  0  0  # atno 8008 bound_to 7997
  155.3518  140.0471  157.3063 H   0  0  0  0  0  0  0  0  0  0  0  0  # atno 8009 bound_to 7997
  154.5275  140.2219  155.8874 H   0  0  0  0  0  0  0  0  0  0  0  0  # atno 8010 bound_to 7997
  140.2458  143.3507  152.0760 H   0  0  0  0  0  0  0  0  0  0  0  0  # atno 10167 bound_to 10162
  156.2752  130.4211  149.8395 H   0  0  0  0  0  0  0  0  0  0  0  0  # atno 10718 bound_to 10713
  154.8526  135.4339  154.1850 H   0  0  0  0  0  0  0  0  0  0  0  0  # atno 10763 bound_to 10752
  153.2932  135.6963  153.7279 H   0  0  0  0  0  0  0  0  0  0  0  0  # atno 10764 bound_to 10752
  153.6438  135.3463  155.3054 H   0  0  0  0  0  0  0  0  0  0  0  0  # atno 10765 bound_to 10752
  140.9333  134.1290  157.4215 H   0  0  0  0  0  0  0  0  0  0  0  0  # atno 11005 bound_to 11000
  145.1420  140.9577  143.4483 LP  0  0  0  0  0  0  0  0  0  0  0  0  # atno 17320 bound_to 7965
  145.0286  139.3360  143.6036 LP  0  0  0  0  0  0  0  0  0  0  0  0  # atno 17321 bound_to 7965
  139.5062  144.6810  151.6009 LP  0  0  0  0  0  0  0  0  0  0  0  0  # atno 17342 bound_to 10162
  140.6079  143.9491  150.6432 LP  0  0  0  0  0  0  0  0  0  0  0  0  # atno 17343 bound_to 10162
  156.5862  130.8487  151.3396 LP  0  0  0  0  0  0  0  0  0  0  0  0  # atno 17370 bound_to 10713
  157.7297  130.9675  150.1799 LP  0  0  0  0  0  0  0  0  0  0  0  0  # atno 17371 bound_to 10713
  139.8801  135.0012  156.6056 LP  0  0  0  0  0  0  0  0  0  0  0  0  # atno 17394 bound_to 11000
  140.7833  133.8642  155.8585 LP  0  0  0  0  0  0  0  0  0  0  0  0  # atno 17395 bound_to 11000

$$$$
