AV-unprocessed.smi:2309|AV-procd|sdf|9254|dock4
  -GOLD-   2272012473D 1   1.00000     0.00000
 Structure written by MMmdl.
 34 35  0  0  0  0  0  0  0  0  1 V2000
  145.6488  142.3306  156.5031 C   0  0  0  0  0  0  0  0  0  0  0  0
  147.1165  142.0245  156.2631 C   0  0  0  0  0  0  0  0  0  0  0  0
  147.9394  142.0867  157.3915 N   0  0  0  0  0  0  0  0  0  0  0  0
  149.2045  141.8443  157.2812 C   0  0  0  0  0  0  0  0  0  0  0  0
  149.7880  141.5132  156.0471 N   0  0  0  0  0  0  0  0  0  0  0  0
  151.2405  141.2677  156.0573 C   0  0  0  0  0  0  0  0  0  0  0  0
  151.6875  140.4340  157.2792 C   0  0  1  0  0  0  0  0  0  0  0  0
  152.7124  139.5492  156.8669 O   0  0  0  0  0  0  0  0  0  0  0  0
  152.1520  141.3444  158.4146 C   0  0  0  0  0  0  0  0  0  0  0  0
  151.9276  142.7384  158.3279 C   0  0  0  0  0  0  0  0  0  0  0  0
  152.3379  143.5987  159.3638 C   0  0  0  0  0  0  0  0  0  0  0  0
  152.0580  145.2961  159.2368 Cl  0  0  0  0  0  0  0  0  0  0  0  0
  152.9739  143.0731  160.5028 C   0  0  0  0  0  0  0  0  0  0  0  0
  153.1925  141.6874  160.6055 C   0  0  0  0  0  0  0  0  0  0  0  0
  152.7828  140.8207  159.5723 C   0  0  0  0  0  0  0  0  0  0  0  0
  153.0621  139.1257  159.7695 Cl  0  0  0  0  0  0  0  0  0  0  0  0
  149.0578  141.4318  154.8973 C   0  0  0  0  0  0  0  0  0  0  0  0
  149.5795  141.1455  153.8182 O   0  0  0  0  0  0  0  0  0  0  0  0
  147.6195  141.7106  155.0381 C   0  0  0  0  0  0  0  0  0  0  0  0
  146.7732  141.6308  153.7737 C   0  0  0  0  0  0  0  0  0  0  0  0
  145.0303  141.4759  156.2281 H   0  0  0  0  0  0  0  0  0  0  0  0
  145.3369  143.1923  155.9123 H   0  0  0  0  0  0  0  0  0  0  0  0
  145.4565  142.5576  157.5525 H   0  0  0  0  0  0  0  0  0  0  0  0
  149.8903  141.8857  158.1292 H   0  0  0  0  0  0  0  0  0  0  0  0
  151.5900  140.8062  155.1312 H   0  0  0  0  0  0  0  0  0  0  0  0
  151.7459  142.2353  156.0804 H   0  0  0  0  0  0  0  0  0  0  0  0
  150.8692  139.8065  157.6294 H   0  0  0  0  0  0  0  0  0  0  0  0
  152.3168  138.7273  156.6191 H   0  0  0  0  0  0  0  0  0  0  0  0
  151.4332  143.1570  157.4634 H   0  0  0  0  0  0  0  0  0  0  0  0
  153.2899  143.7297  161.3002 H   0  0  0  0  0  0  0  0  0  0  0  0
  153.6744  141.2870  161.4853 H   0  0  0  0  0  0  0  0  0  0  0  0
  147.1299  142.3518  153.0373 H   0  0  0  0  0  0  0  0  0  0  0  0
  145.7184  141.8358  153.9486 H   0  0  0  0  0  0  0  0  0  0  0  0
  146.8445  140.6351  153.3351 H   0  0  0  0  0  0  0  0  0  0  0  0
  1  2  1  0  0  0  0
  1 21  1  0  0  0  0
  1 22  1  0  0  0  0
  1 23  1  0  0  0  0
  2 19  2  0  0  0  0
  2  3  1  0  0  0  0
  3  4  2  0  0  0  0
  4  5  1  0  0  0  0
  4 24  1  0  0  0  0
  5  6  1  0  0  0  0
  5 17  1  0  0  0  0
  6  7  1  0  0  0  0
  6 25  1  0  0  0  0
  6 26  1  0  0  0  0
  7  8  1  0  0  0  0
  7  9  1  0  0  0  0
  7 27  1  0  0  0  0
  8 28  1  0  0  0  0
  9 15  1  0  0  0  0
  9 10  2  0  0  0  0
 10 11  1  0  0  0  0
 10 29  1  0  0  0  0
 11 12  1  0  0  0  0
 11 13  2  0  0  0  0
 13 14  1  0  0  0  0
 13 30  1  0  0  0  0
 14 15  2  0  0  0  0
 14 31  1  0  0  0  0
 15 16  1  0  0  0  0
 17 18  2  0  0  0  0
 17 19  1  0  0  0  0
 19 20  1  0  0  0  0
 20 32  1  0  0  0  0
 20 33  1  0  0  0  0
 20 34  1  0  0  0  0
M  END
> <s_m_source_file>
AV-unprocessed.smi

> <i_m_source_file_index>
2309

> <i_lp_mmshare_version>
43012

> <i_f3d_flags>
0

> <s_epik_input>
W0NIM11jMW5bY0hdbihjKD1PKWMxW0NIM10pW0NIMl1bQ0BIXShbT0hdKWMyW2NIXWMoQ2wpW2NIXVtjSF1jMkNs

> <s_epik_cmdline>
J2VwaWtfcHl0aG9uJywgJy1waCcsICc3LjAnLCAnLXRuJywgJzgnLCAnLW1hJywgJzIwMCcsICctbWV0YWxfYmluZGluZycsICctaW1hZScsICc8aW5maWxlLm1hZT4nLCAnLW9tYWUnLCAnPG91dGZpbGUubWFlPic=

> <r_lp_tautomer_probability>
1

> <r_epik_Ionization_Penalty>
5.09224e-05

> <r_epik_Ionization_Penalty_Charging>
7.56727e-08

> <r_epik_Ionization_Penalty_Neutral>
5.08468e-05

> <r_epik_State_Penalty>
-0

> <r_epik_Charging_Adjusted_Penalty>
7.56727e-08

> <i_epik_Tot_Q>
0

> <i_epik_Tot_abs_Q>
0

> <r_epik_Metal_State_Penalty>
-0

> <b_epik_Metal_Only>
0

> <s_lp_Force_Field>
OPLS_2005

> <r_lp_Energy>
18.7705

> <b_lp_Chiralities_Consistent>
1

> <s_lp_Variant>
AV-unprocessed.smi:2309-2

> <Gold.Version>
5.8.1

> <Gold.Id.Protein>
6NUR|6NUR_protein|mol2

> <Gold.PLP.Fitness>
48.3601

> <Gold.PLP.PLP>
-43.5070

> <Gold.PLP.part.hbond>
-3.0000

> <Gold.PLP.part.metal>
0.0000

> <Gold.PLP.part.buried>
-5.4454

> <Gold.PLP.part.nonpolar>
-37.0275

> <Gold.PLP.part.repulsive>
2.0550

> <Gold.PLP.ligand.clash>
0.0000

> <Gold.PLP.ligand.torsion>
0.9259

> <Gold.PLP.Chemscore.Hbond>
2.2320

> <Gold.PLP.Chemscore.CHOScore>
0.0000

> <Gold.PLP.Chemscore.Metal>
0.0000

> <Gold.Chemscore.Hbonds>
donor molecule, donor type, donor heavy atom, donor atom, acceptor molecule, acceptor atom, score
      P1  H  7989  7998       L1    18  0.30
      P1  H  7997  8008       L1     8  1.00
      P1  H  8011  8017       L1    18  0.88

> <Gold.PLP.Chemscore.Internal.Correction>
0.0088

> <Gold.Rescore>
     Score         DG    S(hbond)    S(metal)    S(lipo)     H(rot)  DE(clash)    DE(int)     intcor
     18.55     -20.63       2.17        0.00     109.69       1.93       1.30       0.77       ----

> <Gold.Chemscore.Fitness>
18.5515

> <Gold.Chemscore.DG>
-20.6281

> <Gold.Chemscore.ZeroCoef>
-5.4800

> <Gold.Chemscore.Hbond>
2.1694

> <Gold.Chemscore.Metal>
0.0000

> <Gold.Chemscore.Lipo>
109.6931

> <Gold.Chemscore.Internal_Hbond>
0.0000

> <Gold.Chemscore.DEClash>
1.3046

> <Gold.Chemscore.DEInternal>
0.7720

> <Gold.Chemscore.Rot>
1.9265

> <Gold.Chemscore.Internal.Correction>
   9.000000E+99

> <Gold.Chemscore.Hbonds>
donor molecule, donor type, donor heavy atom, donor atom, acceptor molecule, acceptor atom, score
      P1  H  7989  7998       L1    18  0.28
      P1  H  7997  8008       L1     8  0.99
      P1  H  8011  8017       L1    18  0.85

> <Gold.Chemscore.Hbond.Weighted>
-7.2457

> <Gold.Chemscore.Metal.Weighted>
-0.0000

> <Gold.Chemscore.Lipo.Weighted>
-12.8341

> <Gold.Chemscore.Internal_Hbond.Weighted>
0.0000

> <Gold.Chemscore.DEClash.Weighted>
1.3046

> <Gold.Chemscore.DEInternal.Weighted>
0.7720

> <Gold.Chemscore.Rot.Weighted>
4.9317

> <Gold.Chemscore.Internal.Correction.Weighted>
   9.000000E+99

> <Gold.Protein.RotatedTorsions>
[ 6907 6896 6895 6894 ] final  -79.48 input  -60.11 | X-H torsion
[ 7974 7965 7964 7962 ] final   51.20 input  175.53 | X-H torsion
[ 8008 7997 7996 7995 ] final  -54.55 input   59.86 | X-H torsion
[ 10167 10162 10161 10158 ] final -113.26 input  -65.29 | X-H torsion
[ 10718 10713 10712 10709 ] final   35.00 input   66.30 | X-H torsion
[ 10763 10752 10751 10750 ] final  165.64 input  -60.55 | X-H torsion
[ 11005 11000 10999 10996 ] final   35.14 input  -57.11 | X-H torsion

> <Gold.Protein.ActiveResidues>
 VAL166  LYS551  ARG553  GLY616  TRP617  ASP618  TYR619  PRO620  LYS621  CYS622 
 ASP623  PHE694  ASN695  SER759  ASP760  ASP761  ALA762  ILE779  LEU786  VAL792 
 PHE793  MET794  SER795  GLU796  ALA797  LYS798  CYS799  TRP800  GLU811  SER814 

> <Gold.Protein.RotatedAtoms>
  150.6949  134.4115  159.5163 H   0  0  0  0  0  0  0  0  0  0  0  0  # atno 6907 bound_to 6896
  152.1872  134.8700  160.0530 H   0  0  0  0  0  0  0  0  0  0  0  0  # atno 6908 bound_to 6896
  151.9669  133.3678  159.4093 H   0  0  0  0  0  0  0  0  0  0  0  0  # atno 6909 bound_to 6896
  145.9937  139.4365  143.0058 H   0  0  0  0  0  0  0  0  0  0  0  0  # atno 7974 bound_to 7965
  154.4166  140.1174  156.5333 H   0  0  0  0  0  0  0  0  0  0  0  0  # atno 8008 bound_to 7997
  155.6583  140.3496  155.4754 H   0  0  0  0  0  0  0  0  0  0  0  0  # atno 8009 bound_to 7997
  155.9734  140.1146  157.0781 H   0  0  0  0  0  0  0  0  0  0  0  0  # atno 8010 bound_to 7997
  140.1138  143.4504  152.1735 H   0  0  0  0  0  0  0  0  0  0  0  0  # atno 10167 bound_to 10162
  157.3173  130.7430  149.6762 H   0  0  0  0  0  0  0  0  0  0  0  0  # atno 10718 bound_to 10713
  154.3270  135.2755  155.2491 H   0  0  0  0  0  0  0  0  0  0  0  0  # atno 10763 bound_to 10752
  154.4819  135.5856  153.6399 H   0  0  0  0  0  0  0  0  0  0  0  0  # atno 10764 bound_to 10752
  152.9870  135.6113  154.3459 H   0  0  0  0  0  0  0  0  0  0  0  0  # atno 10765 bound_to 10752
  140.2457  134.3362  155.7909 H   0  0  0  0  0  0  0  0  0  0  0  0  # atno 11005 bound_to 11000
  145.7592  140.9942  143.1209 LP  0  0  0  0  0  0  0  0  0  0  0  0  # atno 17320 bound_to 7965
  144.6897  139.9309  143.7471 LP  0  0  0  0  0  0  0  0  0  0  0  0  # atno 17321 bound_to 7965
  139.5605  144.7402  151.4169 LP  0  0  0  0  0  0  0  0  0  0  0  0  # atno 17342 bound_to 10162
  140.6911  143.7859  150.7257 LP  0  0  0  0  0  0  0  0  0  0  0  0  # atno 17343 bound_to 10162
  155.9682  130.4233  150.4559 LP  0  0  0  0  0  0  0  0  0  0  0  0  # atno 17370 bound_to 10713
  157.2568  131.0558  151.2345 LP  0  0  0  0  0  0  0  0  0  0  0  0  # atno 17371 bound_to 10713
  141.2206  133.7324  156.8957 LP  0  0  0  0  0  0  0  0  0  0  0  0  # atno 17394 bound_to 11000
  140.1608  134.9167  157.2712 LP  0  0  0  0  0  0  0  0  0  0  0  0  # atno 17395 bound_to 11000

$$$$
