AV-unprocessed.smi:250|AV-procd|sdf|1931|dock9
  -GOLD-   2262021 53D 1   1.00000     0.00000
 Structure written by MMmdl.
 56 60  0  0  0  0  0  0  0  0  1 V2000
  153.1955  143.5210  163.2131 C   0  0  0  0  0  0  0  0  0  0  0  0
  153.5923  142.3860  162.3903 N   0  0  0  0  0  0  0  0  0  0  0  0
  154.4659  141.4101  162.7159 C   0  0  0  0  0  0  0  0  0  0  0  0
  155.1049  141.3234  163.7625 O   0  0  0  0  0  0  0  0  0  0  0  0
  154.5234  140.5362  161.6961 N   0  0  0  0  0  0  0  0  0  0  0  0
  153.8536  141.0845  160.5403 C   0  0  1  0  0  0  0  0  0  0  0  0
  153.1243  140.1892  159.5423 C   0  0  0  0  0  0  0  0  0  0  0  0
  152.4923  141.0723  158.5487 N   0  0  0  0  0  0  0  0  0  0  0  0
  152.0986  140.4580  157.4053 C   0  0  0  0  0  0  0  0  0  0  0  0
  152.8059  139.3977  156.9310 N   0  0  0  0  0  0  0  0  0  0  0  0
  152.4359  138.7923  155.7989 C   0  0  0  0  0  0  0  0  0  0  0  0
  151.4088  139.0786  154.9971 N   0  0  0  0  0  0  0  0  0  0  0  0
  150.6903  140.1368  155.4700 C   0  0  0  0  0  0  0  0  0  0  0  0
  150.9588  140.8718  156.6595 C   0  0  0  0  0  0  0  0  0  0  0  0
  149.9933  141.8560  156.8345 N   0  0  0  0  0  0  0  0  0  0  0  0
  149.2068  141.7177  155.8031 C   0  0  0  0  0  0  0  0  0  0  0  0
  149.5636  140.7242  154.9192 N   0  0  0  0  0  0  0  0  0  0  0  0
  148.8645  140.3582  153.6959 C   0  0  0  0  0  0  0  0  0  0  0  0
  147.4592  139.7101  153.8871 C   0  0  0  0  0  0  0  0  0  0  0  0
  146.7876  139.4199  152.5107 C   0  0  0  0  0  0  0  0  0  0  0  0
  147.4867  138.4804  151.7195 O   0  0  0  0  0  0  0  0  0  0  0  0
  147.5476  138.4354  154.7654 C   0  0  0  0  0  0  0  0  0  0  0  0
  146.1689  137.9497  155.2439 C   0  0  0  0  0  0  0  0  0  0  0  0
  145.5255  138.9822  155.9793 O   0  0  0  0  0  0  0  0  0  0  0  0
  145.2714  140.1410  155.1964 C   0  0  0  0  0  0  0  0  0  0  0  0
  146.5953  140.7310  154.6712 C   0  0  0  0  0  0  0  0  0  0  0  0
  151.6666  142.1929  159.0453 C   0  0  0  0  0  0  0  0  0  0  0  0
  152.3610  143.0043  160.1734 C   0  0  0  0  0  0  0  0  0  0  0  0
  152.8481  141.9904  161.2101 C   0  0  2  0  0  0  0  0  0  0  0  0
  154.6039  141.6681  160.0002 H   0  0  0  0  0  0  0  0  0  0  0  0
  151.9891  141.4158  161.5670 H   0  0  0  0  0  0  0  0  0  0  0  0
  153.9228  143.7227  164.0007 H   0  0  0  0  0  0  0  0  0  0  0  0
  152.2297  143.3282  163.6804 H   0  0  0  0  0  0  0  0  0  0  0  0
  153.1084  144.4206  162.6036 H   0  0  0  0  0  0  0  0  0  0  0  0
  155.1175  139.7205  161.6644 H   0  0  0  0  0  0  0  0  0  0  0  0
  153.8296  139.4974  159.0843 H   0  0  0  0  0  0  0  0  0  0  0  0
  152.3600  139.5896  160.0387 H   0  0  0  0  0  0  0  0  0  0  0  0
  153.0523  137.9608  155.4900 H   0  0  0  0  0  0  0  0  0  0  0  0
  148.3445  142.3501  155.6496 H   0  0  0  0  0  0  0  0  0  0  0  0
  148.7812  141.2610  153.0894 H   0  0  0  0  0  0  0  0  0  0  0  0
  149.5098  139.6844  153.1306 H   0  0  0  0  0  0  0  0  0  0  0  0
  145.7813  139.0241  152.6331 H   0  0  0  0  0  0  0  0  0  0  0  0
  146.6802  140.3428  151.9401 H   0  0  0  0  0  0  0  0  0  0  0  0
  148.3993  138.7255  151.6980 H   0  0  0  0  0  0  0  0  0  0  0  0
  148.0595  137.6281  154.2419 H   0  0  0  0  0  0  0  0  0  0  0  0
  148.1524  138.6484  155.6477 H   0  0  0  0  0  0  0  0  0  0  0  0
  145.5447  137.6314  154.4082 H   0  0  0  0  0  0  0  0  0  0  0  0
  146.2876  137.0830  155.8941 H   0  0  0  0  0  0  0  0  0  0  0  0
  144.5815  139.9035  154.3870 H   0  0  0  0  0  0  0  0  0  0  0  0
  144.7651  140.8756  155.8228 H   0  0  0  0  0  0  0  0  0  0  0  0
  147.1560  141.0962  155.5331 H   0  0  0  0  0  0  0  0  0  0  0  0
  146.3901  141.6076  154.0554 H   0  0  0  0  0  0  0  0  0  0  0  0
  151.4191  142.8620  158.2201 H   0  0  0  0  0  0  0  0  0  0  0  0
  150.7242  141.7908  159.4199 H   0  0  0  0  0  0  0  0  0  0  0  0
  153.1952  143.5828  159.7743 H   0  0  0  0  0  0  0  0  0  0  0  0
  151.6605  143.7122  160.6165 H   0  0  0  0  0  0  0  0  0  0  0  0
  1  2  1  0  0  0  0
  1 32  1  0  0  0  0
  1 33  1  0  0  0  0
  1 34  1  0  0  0  0
  2 29  1  0  0  0  0
  2  3  1  0  0  0  0
  3  4  2  0  0  0  0
  3  5  1  0  0  0  0
  5  6  1  0  0  0  0
  5 35  1  0  0  0  0
  6 30  1  0  0  0  0
  6 29  1  0  0  0  0
  6  7  1  0  0  0  0
  7  8  1  0  0  0  0
  7 36  1  0  0  0  0
  7 37  1  0  0  0  0
  8  9  1  0  0  0  0
  8 27  1  0  0  0  0
  9 14  1  0  0  0  0
  9 10  2  0  0  0  0
 10 11  1  0  0  0  0
 11 12  2  0  0  0  0
 11 38  1  0  0  0  0
 12 13  1  0  0  0  0
 13 17  1  0  0  0  0
 13 14  2  0  0  0  0
 14 15  1  0  0  0  0
 15 16  2  0  0  0  0
 16 17  1  0  0  0  0
 16 39  1  0  0  0  0
 17 18  1  0  0  0  0
 18 19  1  0  0  0  0
 18 40  1  0  0  0  0
 18 41  1  0  0  0  0
 19 26  1  0  0  0  0
 19 20  1  0  0  0  0
 19 22  1  0  0  0  0
 20 21  1  0  0  0  0
 20 42  1  0  0  0  0
 20 43  1  0  0  0  0
 21 44  1  0  0  0  0
 22 23  1  0  0  0  0
 22 45  1  0  0  0  0
 22 46  1  0  0  0  0
 23 24  1  0  0  0  0
 23 47  1  0  0  0  0
 23 48  1  0  0  0  0
 24 25  1  0  0  0  0
 25 26  1  0  0  0  0
 25 49  1  0  0  0  0
 25 50  1  0  0  0  0
 26 51  1  0  0  0  0
 26 52  1  0  0  0  0
 27 28  1  0  0  0  0
 27 53  1  0  0  0  0
 27 54  1  0  0  0  0
 28 29  1  0  0  0  0
 28 55  1  0  0  0  0
 28 56  1  0  0  0  0
 29 31  1  0  0  0  0
M  END
> <s_m_source_file>
AV-unprocessed.smi

> <i_m_source_file_index>
250

> <i_lp_mmshare_version>
43012

> <i_f3d_flags>
0

> <s_epik_input>
Tz1DKFtOSF0xKU4oW0NIM10pW0NASF0oW0NASF0xMilbQ0gyXVtDSDJdTihbQ0gyXTIpYyhuW2NIXW4zKWMoYzM0KW5bY0hdbjRbQ0gyXUM1KFtDSDJdW09IXSlbQ0gyXVtDSDJdT1tDSDJdW0NIMl01

> <s_epik_cmdline>
J2VwaWtfcHl0aG9uJywgJy1waCcsICc3LjAnLCAnLXRuJywgJzgnLCAnLW1hJywgJzIwMCcsICctbWV0YWxfYmluZGluZycsICctaW1hZScsICc8aW5maWxlLm1hZT4nLCAnLW9tYWUnLCAnPG91dGZpbGUubWFlPic=

> <r_lp_tautomer_probability>
1

> <r_epik_Ionization_Penalty>
0.00229024

> <r_epik_Ionization_Penalty_Charging>
0

> <r_epik_Ionization_Penalty_Neutral>
0.00229024

> <r_epik_State_Penalty>
0.0013961

> <r_epik_Charging_Adjusted_Penalty>
0.0013961

> <i_epik_Tot_Q>
0

> <i_epik_Tot_abs_Q>
0

> <r_epik_Metal_State_Penalty>
-0

> <b_epik_Metal_Only>
0

> <s_lp_Force_Field>
OPLS_2005

> <r_lp_Energy>
73.7244

> <b_lp_Chiralities_Consistent>
1

> <s_lp_Variant>
AV-unprocessed.smi:250-2

> <Gold.Version>
5.8.1

> <Gold.Id.Protein>
6NUR|6NUR_protein|mol2

> <Gold.PLP.Fitness>
57.3246

> <Gold.PLP.PLP>
-49.9146

> <Gold.PLP.part.hbond>
-5.6047

> <Gold.PLP.part.metal>
0.0000

> <Gold.PLP.part.buried>
3.2812

> <Gold.PLP.part.nonpolar>
-46.2050

> <Gold.PLP.part.repulsive>
0.1930

> <Gold.PLP.ligand.clash>
0.0000

> <Gold.PLP.ligand.torsion>
0.3029

> <Gold.PLP.Chemscore.Hbond>
1.9760

> <Gold.PLP.Chemscore.CHOScore>
0.5995

> <Gold.PLP.Chemscore.Metal>
0.0000

> <Gold.Chemscore.Hbonds>
donor molecule, donor type, donor heavy atom, donor atom, acceptor molecule, acceptor atom, score
      L1  H    21    44       P1  7957  0.88
      P1  H  7997  8009       L1    10  1.00
      L1  C    16    39       P1  8028  0.68

> <Gold.PLP.Chemscore.Internal.Correction>
0.2891

> <Gold.Rescore>
     Score         DG    S(hbond)    S(metal)    S(lipo)     H(rot)  DE(clash)    DE(int)     intcor
     11.82     -16.32       1.45        0.00      99.93       2.22       2.12       2.38       ----

> <Gold.Chemscore.Fitness>
11.8241

> <Gold.Chemscore.DG>
-16.3240

> <Gold.Chemscore.ZeroCoef>
-5.4800

> <Gold.Chemscore.Hbond>
1.4454

> <Gold.Chemscore.Metal>
0.0000

> <Gold.Chemscore.Lipo>
99.9317

> <Gold.Chemscore.Internal_Hbond>
0.0000

> <Gold.Chemscore.DEClash>
2.1218

> <Gold.Chemscore.DEInternal>
2.3780

> <Gold.Chemscore.Rot>
2.2170

> <Gold.Chemscore.Internal.Correction>
   9.000000E+99

> <Gold.Chemscore.Hbonds>
donor molecule, donor type, donor heavy atom, donor atom, acceptor molecule, acceptor atom, score
      L1  H    21    44       P1  7957  0.52
      P1  H  7997  8009       L1    10  0.28

> <Gold.Chemscore.Hbond.Weighted>
-4.8276

> <Gold.Chemscore.Metal.Weighted>
-0.0000

> <Gold.Chemscore.Lipo.Weighted>
-11.6920

> <Gold.Chemscore.Internal_Hbond.Weighted>
0.0000

> <Gold.Chemscore.DEClash.Weighted>
2.1218

> <Gold.Chemscore.DEInternal.Weighted>
2.3780

> <Gold.Chemscore.Rot.Weighted>
5.6756

> <Gold.Chemscore.Internal.Correction.Weighted>
   9.000000E+99

> <Gold.Protein.RotatedTorsions>
[ 6907 6896 6895 6894 ] final  -44.54 input  -60.11 | X-H torsion
[ 7974 7965 7964 7962 ] final -127.96 input  175.53 | X-H torsion
[ 8008 7997 7996 7995 ] final  174.17 input   59.86 | X-H torsion
[ 10167 10162 10161 10158 ] final  153.94 input  -65.29 | X-H torsion
[ 10718 10713 10712 10709 ] final   95.35 input   66.30 | X-H torsion
[ 10763 10752 10751 10750 ] final  154.30 input  -60.55 | X-H torsion
[ 11005 11000 10999 10996 ] final  126.52 input  -57.11 | X-H torsion

> <Gold.Protein.ActiveResidues>
 VAL166  LYS551  ARG553  GLY616  TRP617  ASP618  TYR619  PRO620  LYS621  CYS622 
 ASP623  PHE694  ASN695  SER759  ASP760  ASP761  ALA762  ILE779  LEU786  VAL792 
 PHE793  MET794  SER795  GLU796  ALA797  LYS798  CYS799  TRP800  GLU811  SER814 

> <Gold.Protein.RotatedAtoms>
  150.9317  134.8732  159.7555 H   0  0  0  0  0  0  0  0  0  0  0  0  # atno 6907 bound_to 6896
  152.5041  134.4069  159.9445 H   0  0  0  0  0  0  0  0  0  0  0  0  # atno 6908 bound_to 6896
  151.4095  133.3692  159.2777 H   0  0  0  0  0  0  0  0  0  0  0  0  # atno 6909 bound_to 6896
  144.9718  140.7553  143.4666 H   0  0  0  0  0  0  0  0  0  0  0  0  # atno 7974 bound_to 7965
  156.1002  140.1441  156.9478 H   0  0  0  0  0  0  0  0  0  0  0  0  # atno 8008 bound_to 7997
  154.4697  140.0914  156.7159 H   0  0  0  0  0  0  0  0  0  0  0  0  # atno 8009 bound_to 7997
  155.4773  140.3444  155.4337 H   0  0  0  0  0  0  0  0  0  0  0  0  # atno 8010 bound_to 7997
  139.4825  144.5230  151.7845 H   0  0  0  0  0  0  0  0  0  0  0  0  # atno 10167 bound_to 10162
  157.6939  131.0543  150.4326 H   0  0  0  0  0  0  0  0  0  0  0  0  # atno 10718 bound_to 10713
  154.1501  135.2815  155.3137 H   0  0  0  0  0  0  0  0  0  0  0  0  # atno 10763 bound_to 10752
  154.6224  135.5463  153.7593 H   0  0  0  0  0  0  0  0  0  0  0  0  # atno 10764 bound_to 10752
  153.0223  135.6442  154.1645 H   0  0  0  0  0  0  0  0  0  0  0  0  # atno 10765 bound_to 10752
  139.9460  134.9629  156.8719 H   0  0  0  0  0  0  0  0  0  0  0  0  # atno 11005 bound_to 11000
  145.2548  139.2017  143.4923 LP  0  0  0  0  0  0  0  0  0  0  0  0  # atno 17320 bound_to 7965
  146.3384  140.2467  142.8597 LP  0  0  0  0  0  0  0  0  0  0  0  0  # atno 17321 bound_to 7965
  140.4747  144.1537  150.5923 LP  0  0  0  0  0  0  0  0  0  0  0  0  # atno 17342 bound_to 10162
  140.4344  143.2554  151.9554 LP  0  0  0  0  0  0  0  0  0  0  0  0  # atno 17343 bound_to 10162
  156.4691  130.4049  149.6529 LP  0  0  0  0  0  0  0  0  0  0  0  0  # atno 17370 bound_to 10713
  156.3616  130.7484  151.2457 LP  0  0  0  0  0  0  0  0  0  0  0  0  # atno 17371 bound_to 10713
  140.5833  134.0331  155.7472 LP  0  0  0  0  0  0  0  0  0  0  0  0  # atno 17394 bound_to 11000
  141.1111  133.9615  157.2909 LP  0  0  0  0  0  0  0  0  0  0  0  0  # atno 17395 bound_to 11000

$$$$
