AV-unprocessed.smi:2660|AV-procd|sdf|10314|dock6
  -GOLD-   2272014333D 1   1.00000     0.00000
 Structure written by MMmdl.
 36 37  0  0  0  0  0  0  0  0  1 V2000
  155.2742  139.7141  161.6660 N   0  0  0  0  0  0  0  0  0  0  0  0
  154.5403  139.5839  160.5537 C   0  0  0  0  0  0  0  0  0  0  0  0
  154.5934  138.5231  159.9313 O   0  0  0  0  0  0  0  0  0  0  0  0
  153.7341  140.7786  160.2129 C   0  0  0  0  0  0  0  0  0  0  0  0
  153.6924  141.8796  160.9968 C   0  0  0  0  0  0  0  0  0  0  0  0
  152.8951  143.0151  160.6241 C   0  0  0  0  0  0  0  0  0  0  0  0
  152.1916  143.0024  159.4766 C   0  0  0  0  0  0  0  0  0  0  0  0
  151.3260  144.2038  159.0759 C   0  0  0  0  0  0  0  0  0  0  0  0
  151.4100  145.1828  159.9781 F   0  0  0  0  0  0  0  0  0  0  0  0
  151.7149  144.7242  157.9137 F   0  0  0  0  0  0  0  0  0  0  0  0
  150.0396  143.8606  158.9999 F   0  0  0  0  0  0  0  0  0  0  0  0
  152.2441  141.8565  158.6224 N   0  0  0  0  0  0  0  0  0  0  0  0
  151.5037  141.8424  157.3356 C   0  0  0  0  0  0  0  0  0  0  0  0
  150.3139  140.8418  157.3350 C   0  0  2  0  0  0  0  0  0  0  0  0
  150.7735  139.5685  156.9300 O   0  0  0  0  0  0  0  0  0  0  0  0
  149.1759  141.3135  156.4406 C   0  0  0  0  0  0  0  0  0  0  0  0
  149.3606  141.3887  155.0431 C   0  0  0  0  0  0  0  0  0  0  0  0
  148.3094  141.8176  154.2099 C   0  0  0  0  0  0  0  0  0  0  0  0
  147.0671  142.1734  154.7687 C   0  0  0  0  0  0  0  0  0  0  0  0
  146.8762  142.0999  156.1618 C   0  0  0  0  0  0  0  0  0  0  0  0
  147.9274  141.6716  156.9957 C   0  0  0  0  0  0  0  0  0  0  0  0
  152.9622  140.7262  158.9444 C   0  0  0  0  0  0  0  0  0  0  0  0
  152.9445  139.7466  158.1933 O   0  0  0  0  0  0  0  0  0  0  0  0
  155.8531  138.9464  161.9742 H   0  0  0  0  0  0  0  0  0  0  0  0
  155.2461  140.5744  162.1932 H   0  0  0  0  0  0  0  0  0  0  0  0
  154.2476  141.9490  161.9204 H   0  0  0  0  0  0  0  0  0  0  0  0
  152.8676  143.8678  161.2859 H   0  0  0  0  0  0  0  0  0  0  0  0
  151.1347  142.8530  157.1479 H   0  0  0  0  0  0  0  0  0  0  0  0
  152.1285  141.6839  156.4620 H   0  0  0  0  0  0  0  0  0  0  0  0
  149.9257  140.7161  158.3468 H   0  0  0  0  0  0  0  0  0  0  0  0
  151.0896  139.1089  157.6930 H   0  0  0  0  0  0  0  0  0  0  0  0
  150.3078  141.1126  154.6034 H   0  0  0  0  0  0  0  0  0  0  0  0
  148.4564  141.8717  153.1414 H   0  0  0  0  0  0  0  0  0  0  0  0
  146.2609  142.5011  154.1289 H   0  0  0  0  0  0  0  0  0  0  0  0
  145.9228  142.3708  156.5910 H   0  0  0  0  0  0  0  0  0  0  0  0
  147.7721  141.6151  158.0632 H   0  0  0  0  0  0  0  0  0  0  0  0
  1  2  1  0  0  0  0
  1 24  1  0  0  0  0
  1 25  1  0  0  0  0
  2  3  2  0  0  0  0
  2  4  1  0  0  0  0
  4 22  1  0  0  0  0
  4  5  2  0  0  0  0
  5  6  1  0  0  0  0
  5 26  1  0  0  0  0
  6  7  2  0  0  0  0
  6 27  1  0  0  0  0
  7  8  1  0  0  0  0
  7 12  1  0  0  0  0
  8  9  1  0  0  0  0
  8 10  1  0  0  0  0
  8 11  1  0  0  0  0
 12 13  1  0  0  0  0
 12 22  1  0  0  0  0
 13 14  1  0  0  0  0
 13 28  1  0  0  0  0
 13 29  1  0  0  0  0
 14 15  1  0  0  0  0
 14 16  1  0  0  0  0
 14 30  1  0  0  0  0
 15 31  1  0  0  0  0
 16 21  1  0  0  0  0
 16 17  2  0  0  0  0
 17 18  1  0  0  0  0
 17 32  1  0  0  0  0
 18 19  2  0  0  0  0
 18 33  1  0  0  0  0
 19 20  1  0  0  0  0
 19 34  1  0  0  0  0
 20 21  2  0  0  0  0
 20 35  1  0  0  0  0
 21 36  1  0  0  0  0
 22 23  2  0  0  0  0
M  END
> <s_m_source_file>
AV-unprocessed.smi

> <i_m_source_file_index>
2660

> <i_lp_mmshare_version>
43012

> <i_f3d_flags>
0

> <s_epik_input>
W05IMl1DKD1PKWMxW2NIXVtjSF1jKEMoRikoRilGKW4oYzE9TylbQ0gyXVtDQEhdKFtPSF0pYzJbY0hdW2NIXVtjSF1bY0hdW2NIXTI=

> <s_epik_cmdline>
J2VwaWtfcHl0aG9uJywgJy1waCcsICc3LjAnLCAnLXRuJywgJzgnLCAnLW1hJywgJzIwMCcsICctbWV0YWxfYmluZGluZycsICctaW1hZScsICc8aW5maWxlLm1hZT4nLCAnLW9tYWUnLCAnPG91dGZpbGUubWFlPic=

> <r_lp_tautomer_probability>
1

> <r_epik_Ionization_Penalty>
1.58596e-06

> <r_epik_Ionization_Penalty_Charging>
5.13453e-09

> <r_epik_Ionization_Penalty_Neutral>
1.58083e-06

> <r_epik_State_Penalty>
-0

> <r_epik_Charging_Adjusted_Penalty>
5.13453e-09

> <i_epik_Tot_Q>
0

> <i_epik_Tot_abs_Q>
0

> <r_epik_Metal_State_Penalty>
-0

> <b_epik_Metal_Only>
0

> <s_lp_Force_Field>
OPLS_2005

> <r_lp_Energy>
35.2508

> <b_lp_Chiralities_Consistent>
1

> <s_lp_Variant>
AV-unprocessed.smi:2660-1

> <Gold.Version>
5.8.1

> <Gold.Id.Protein>
6NUR|6NUR_protein|mol2

> <Gold.PLP.Fitness>
52.5080

> <Gold.PLP.PLP>
-50.4417

> <Gold.PLP.part.hbond>
-1.0000

> <Gold.PLP.part.metal>
0.0000

> <Gold.PLP.part.buried>
-5.2044

> <Gold.PLP.part.nonpolar>
-42.8315

> <Gold.PLP.part.repulsive>
0.0000

> <Gold.PLP.ligand.clash>
3.4252

> <Gold.PLP.ligand.torsion>
0.4919

> <Gold.PLP.Chemscore.Hbond>
0.9913

> <Gold.PLP.Chemscore.CHOScore>
0.0000

> <Gold.PLP.Chemscore.Metal>
0.0000

> <Gold.Chemscore.Hbonds>
donor molecule, donor type, donor heavy atom, donor atom, acceptor molecule, acceptor atom, score
      P1  H  7997  8009       L1    23  0.98

> <Gold.PLP.Chemscore.Internal.Correction>
3.5016

> <Gold.Rescore>
     Score         DG    S(hbond)    S(metal)    S(lipo)     H(rot)  DE(clash)    DE(int)     intcor
      7.66     -14.27       0.84        0.00      99.57       2.21       0.67       5.94       ----

> <Gold.Chemscore.Fitness>
7.6589

> <Gold.Chemscore.DG>
-14.2719

> <Gold.Chemscore.ZeroCoef>
-5.4800

> <Gold.Chemscore.Hbond>
0.8370

> <Gold.Chemscore.Metal>
0.0000

> <Gold.Chemscore.Lipo>
99.5742

> <Gold.Chemscore.Internal_Hbond>
0.0000

> <Gold.Chemscore.DEClash>
0.6737

> <Gold.Chemscore.DEInternal>
5.9392

> <Gold.Chemscore.Rot>
2.2086

> <Gold.Chemscore.Internal.Correction>
   9.000000E+99

> <Gold.Chemscore.Hbonds>
donor molecule, donor type, donor heavy atom, donor atom, acceptor molecule, acceptor atom, score
      P1  H  7997  8009       L1    23  0.31

> <Gold.Chemscore.Hbond.Weighted>
-2.7957

> <Gold.Chemscore.Metal.Weighted>
-0.0000

> <Gold.Chemscore.Lipo.Weighted>
-11.6502

> <Gold.Chemscore.Internal_Hbond.Weighted>
0.0000

> <Gold.Chemscore.DEClash.Weighted>
0.6737

> <Gold.Chemscore.DEInternal.Weighted>
5.9392

> <Gold.Chemscore.Rot.Weighted>
5.6540

> <Gold.Chemscore.Internal.Correction.Weighted>
   9.000000E+99

> <Gold.Protein.RotatedTorsions>
[ 6907 6896 6895 6894 ] final -132.03 input  -60.11 | X-H torsion
[ 7974 7965 7964 7962 ] final   43.62 input  175.53 | X-H torsion
[ 8008 7997 7996 7995 ] final  152.12 input   59.86 | X-H torsion
[ 10167 10162 10161 10158 ] final  114.40 input  -65.29 | X-H torsion
[ 10718 10713 10712 10709 ] final   50.06 input   66.30 | X-H torsion
[ 10763 10752 10751 10750 ] final  137.94 input  -60.55 | X-H torsion
[ 11005 11000 10999 10996 ] final   88.96 input  -57.11 | X-H torsion

> <Gold.Protein.ActiveResidues>
 VAL166  LYS551  ARG553  GLY616  TRP617  ASP618  TYR619  PRO620  LYS621  CYS622 
 ASP623  PHE694  ASN695  SER759  ASP760  ASP761  ALA762  ILE779  LEU786  VAL792 
 PHE793  MET794  SER795  GLU796  ALA797  LYS798  CYS799  TRP800  GLU811  SER814 

> <Gold.Protein.RotatedAtoms>
  150.9577  133.6479  159.2759 H   0  0  0  0  0  0  0  0  0  0  0  0  # atno 6907 bound_to 6896
  151.3813  135.0939  159.9506 H   0  0  0  0  0  0  0  0  0  0  0  0  # atno 6908 bound_to 6896
  152.5135  133.9111  159.7543 H   0  0  0  0  0  0  0  0  0  0  0  0  # atno 6909 bound_to 6896
  146.0639  139.5166  142.9640 H   0  0  0  0  0  0  0  0  0  0  0  0  # atno 7974 bound_to 7965
  156.2643  140.2029  156.6283 H   0  0  0  0  0  0  0  0  0  0  0  0  # atno 8008 bound_to 7997
  154.6703  140.0551  157.0182 H   0  0  0  0  0  0  0  0  0  0  0  0  # atno 8009 bound_to 7997
  155.1147  140.3219  155.4515 H   0  0  0  0  0  0  0  0  0  0  0  0  # atno 8010 bound_to 7997
  139.6391  144.7122  151.2273 H   0  0  0  0  0  0  0  0  0  0  0  0  # atno 10167 bound_to 10162
  157.4847  130.8338  149.8134 H   0  0  0  0  0  0  0  0  0  0  0  0  # atno 10718 bound_to 10713
  153.8813  135.3044  155.3445 H   0  0  0  0  0  0  0  0  0  0  0  0  # atno 10763 bound_to 10752
  154.7760  135.4861  153.9748 H   0  0  0  0  0  0  0  0  0  0  0  0  # atno 10764 bound_to 10752
  153.1349  135.6812  153.9215 H   0  0  0  0  0  0  0  0  0  0  0  0  # atno 10765 bound_to 10752
  139.8885  134.8521  156.3074 H   0  0  0  0  0  0  0  0  0  0  0  0  # atno 11005 bound_to 11000
  145.6511  141.0263  143.1760 LP  0  0  0  0  0  0  0  0  0  0  0  0  # atno 17320 bound_to 7965
  144.7191  139.8092  143.7388 LP  0  0  0  0  0  0  0  0  0  0  0  0  # atno 17321 bound_to 7965
  140.7481  143.6343  150.8394 LP  0  0  0  0  0  0  0  0  0  0  0  0  # atno 17342 bound_to 10162
  139.9978  143.5777  152.2887 LP  0  0  0  0  0  0  0  0  0  0  0  0  # atno 17343 bound_to 10162
  156.0140  130.3821  150.2169 LP  0  0  0  0  0  0  0  0  0  0  0  0  # atno 17370 bound_to 10713
  157.0356  131.0020  151.3299 LP  0  0  0  0  0  0  0  0  0  0  0  0  # atno 17371 bound_to 10713
  140.9873  133.7230  156.0760 LP  0  0  0  0  0  0  0  0  0  0  0  0  # atno 17394 bound_to 11000
  140.7672  134.3873  157.5515 LP  0  0  0  0  0  0  0  0  0  0  0  0  # atno 17395 bound_to 11000

$$$$
