AV-unprocessed.smi:848|AV-procd|sdf|3940|dock3
  -GOLD-   22720 1403D 1   1.00000     0.00000
 Structure written by MMmdl.
 46 48  0  0  0  0  0  0  0  0  1 V2000
  154.3876  133.9160  162.9184 C   0  0  0  0  0  0  0  0  0  0  0  0
  154.5533  135.4209  162.9712 C   0  0  0  0  0  0  0  0  0  0  0  0
  154.9548  136.0511  164.1659 C   0  0  0  0  0  0  0  0  0  0  0  0
  155.1019  137.4513  164.2105 C   0  0  0  0  0  0  0  0  0  0  0  0
  155.5401  138.1302  165.4919 C   0  0  0  0  0  0  0  0  0  0  0  0
  154.8460  138.2184  163.0561 C   0  0  0  0  0  0  0  0  0  0  0  0
  154.4441  137.6039  161.8526 C   0  0  0  0  0  0  0  0  0  0  0  0
  154.2128  138.4329  160.7760 O   0  0  0  0  0  0  0  0  0  0  0  0
  153.2442  138.0367  159.8127 C   0  0  0  0  0  0  0  0  0  0  0  0
  153.0562  139.1463  158.7646 C   0  0  1  0  0  0  0  0  0  0  0  0
  153.8505  138.8553  157.6318 O   0  0  0  0  0  0  0  0  0  0  0  0
  151.5837  139.3960  158.3784 C   0  0  0  0  0  0  0  0  0  0  0  0
  151.3654  140.7401  157.8602 N   0  0  0  0  0  0  0  0  0  0  0  0
  150.7910  141.1094  156.6870 C   0  0  0  0  0  0  0  0  0  0  0  0
  150.2676  140.0917  155.7130 C   0  0  0  0  0  0  0  0  0  0  0  0
  150.9086  140.1187  154.4536 O   0  0  0  0  0  0  0  0  0  0  0  0
  150.7175  142.4255  156.4718 N   0  0  0  0  0  0  0  0  0  0  0  0
  151.3006  142.9554  157.6053 C   0  0  0  0  0  0  0  0  0  0  0  0
  151.5263  144.2992  157.9804 C   0  0  0  0  0  0  0  0  0  0  0  0
  152.1476  144.6025  159.2097 C   0  0  0  0  0  0  0  0  0  0  0  0
  152.5511  143.5687  160.0796 C   0  0  0  0  0  0  0  0  0  0  0  0
  152.3358  142.2231  159.7247 C   0  0  0  0  0  0  0  0  0  0  0  0
  151.7156  141.9263  158.4964 C   0  0  0  0  0  0  0  0  0  0  0  0
  154.3007  136.1937  161.8193 C   0  0  0  0  0  0  0  0  0  0  0  0
  154.7112  133.4464  163.8477 H   0  0  0  0  0  0  0  0  0  0  0  0
  154.9779  133.4976  162.1029 H   0  0  0  0  0  0  0  0  0  0  0  0
  153.3413  133.6582  162.7525 H   0  0  0  0  0  0  0  0  0  0  0  0
  155.1504  135.4611  165.0498 H   0  0  0  0  0  0  0  0  0  0  0  0
  155.0996  139.1242  165.5759 H   0  0  0  0  0  0  0  0  0  0  0  0
  156.6253  138.2323  165.5094 H   0  0  0  0  0  0  0  0  0  0  0  0
  155.2351  137.5517  166.3645 H   0  0  0  0  0  0  0  0  0  0  0  0
  154.9599  139.2923  163.0905 H   0  0  0  0  0  0  0  0  0  0  0  0
  153.5966  137.1341  159.3108 H   0  0  0  0  0  0  0  0  0  0  0  0
  152.2890  137.8015  160.2855 H   0  0  0  0  0  0  0  0  0  0  0  0
  153.4635  140.0665  159.1850 H   0  0  0  0  0  0  0  0  0  0  0  0
  153.9967  137.9223  157.5984 H   0  0  0  0  0  0  0  0  0  0  0  0
  151.2424  138.6651  157.6455 H   0  0  0  0  0  0  0  0  0  0  0  0
  150.9457  139.2642  159.2530 H   0  0  0  0  0  0  0  0  0  0  0  0
  150.3861  139.0922  156.1299 H   0  0  0  0  0  0  0  0  0  0  0  0
  149.2006  140.2599  155.5659 H   0  0  0  0  0  0  0  0  0  0  0  0
  150.4538  139.5287  153.8727 H   0  0  0  0  0  0  0  0  0  0  0  0
  151.2201  145.0976  157.3207 H   0  0  0  0  0  0  0  0  0  0  0  0
  152.3148  145.6332  159.4862 H   0  0  0  0  0  0  0  0  0  0  0  0
  153.0254  143.8099  161.0196 H   0  0  0  0  0  0  0  0  0  0  0  0
  152.6432  141.4288  160.3885 H   0  0  0  0  0  0  0  0  0  0  0  0
  153.9952  135.6810  160.9200 H   0  0  0  0  0  0  0  0  0  0  0  0
  1  2  1  0  0  0  0
  1 25  1  0  0  0  0
  1 26  1  0  0  0  0
  1 27  1  0  0  0  0
  2 24  1  0  0  0  0
  2  3  2  0  0  0  0
  3  4  1  0  0  0  0
  3 28  1  0  0  0  0
  4  5  1  0  0  0  0
  4  6  2  0  0  0  0
  5 29  1  0  0  0  0
  5 30  1  0  0  0  0
  5 31  1  0  0  0  0
  6  7  1  0  0  0  0
  6 32  1  0  0  0  0
  7  8  1  0  0  0  0
  7 24  2  0  0  0  0
  8  9  1  0  0  0  0
  9 10  1  0  0  0  0
  9 33  1  0  0  0  0
  9 34  1  0  0  0  0
 10 11  1  0  0  0  0
 10 12  1  0  0  0  0
 10 35  1  0  0  0  0
 11 36  1  0  0  0  0
 12 13  1  0  0  0  0
 12 37  1  0  0  0  0
 12 38  1  0  0  0  0
 13 23  1  0  0  0  0
 13 14  1  0  0  0  0
 14 15  1  0  0  0  0
 14 17  2  0  0  0  0
 15 16  1  0  0  0  0
 15 39  1  0  0  0  0
 15 40  1  0  0  0  0
 16 41  1  0  0  0  0
 17 18  1  0  0  0  0
 18 23  2  0  0  0  0
 18 19  1  0  0  0  0
 19 20  2  0  0  0  0
 19 42  1  0  0  0  0
 20 21  1  0  0  0  0
 20 43  1  0  0  0  0
 21 22  2  0  0  0  0
 21 44  1  0  0  0  0
 22 23  1  0  0  0  0
 22 45  1  0  0  0  0
 24 46  1  0  0  0  0
M  END
> <s_m_source_file>
AV-unprocessed.smi

> <i_m_source_file_index>
848

> <i_lp_mmshare_version>
43012

> <i_f3d_flags>
0

> <s_epik_input>
W0NIM11jMVtjSF1jKFtDSDNdKVtjSF1jKFtjSF0xKU9bQ0gyXVtDQEhdKFtPSF0pW0NIMl1uKGMobjIpW0NIMl1bT0hdKWMoYzIzKVtjSF1bY0hdW2NIXVtjSF0z

> <s_epik_cmdline>
J2VwaWtfcHl0aG9uJywgJy1waCcsICc3LjAnLCAnLXRuJywgJzgnLCAnLW1hJywgJzIwMCcsICctbWV0YWxfYmluZGluZycsICctaW1hZScsICc8aW5maWxlLm1hZT4nLCAnLW9tYWUnLCAnPG91dGZpbGUubWFlPic=

> <r_lp_tautomer_probability>
1

> <r_epik_Ionization_Penalty>
0.0554234

> <r_epik_Ionization_Penalty_Charging>
0

> <r_epik_Ionization_Penalty_Neutral>
0.0554234

> <r_epik_State_Penalty>
0.0476717

> <r_epik_Charging_Adjusted_Penalty>
0.0476717

> <i_epik_Tot_Q>
0

> <i_epik_Tot_abs_Q>
0

> <r_epik_Metal_State_Penalty>
4.96399e-05

> <b_epik_Metal_Only>
0

> <s_lp_Force_Field>
OPLS_2005

> <r_lp_Energy>
17.6838

> <b_lp_Chiralities_Consistent>
1

> <s_lp_Variant>
AV-unprocessed.smi:848-2

> <Gold.Version>
5.8.1

> <Gold.Id.Protein>
6NUR|6NUR_protein|mol2

> <Gold.PLP.Fitness>
55.0802

> <Gold.PLP.PLP>
-51.3346

> <Gold.PLP.part.hbond>
-2.0000

> <Gold.PLP.part.metal>
0.0000

> <Gold.PLP.part.buried>
-7.0023

> <Gold.PLP.part.nonpolar>
-43.1041

> <Gold.PLP.part.repulsive>
0.3568

> <Gold.PLP.ligand.clash>
0.0000

> <Gold.PLP.ligand.torsion>
1.1966

> <Gold.PLP.Chemscore.Hbond>
2.0000

> <Gold.PLP.Chemscore.CHOScore>
0.0000

> <Gold.PLP.Chemscore.Metal>
0.0000

> <Gold.Chemscore.Hbonds>
donor molecule, donor type, donor heavy atom, donor atom, acceptor molecule, acceptor atom, score
      P1  H  7989  7998       L1    16  0.68
      P1  H  7997  8008       L1    11  0.94

> <Gold.PLP.Chemscore.Internal.Correction>
0.1387

> <Gold.Rescore>
     Score         DG    S(hbond)    S(metal)    S(lipo)     H(rot)  DE(clash)    DE(int)     intcor
     19.11     -20.46       1.71        0.00     143.86       2.96       0.13       1.22       ----

> <Gold.Chemscore.Fitness>
19.1092

> <Gold.Chemscore.DG>
-20.4645

> <Gold.Chemscore.ZeroCoef>
-5.4800

> <Gold.Chemscore.Hbond>
1.7128

> <Gold.Chemscore.Metal>
0.0000

> <Gold.Chemscore.Lipo>
143.8586

> <Gold.Chemscore.Internal_Hbond>
0.0000

> <Gold.Chemscore.DEClash>
0.1322

> <Gold.Chemscore.DEInternal>
1.2231

> <Gold.Chemscore.Rot>
2.9561

> <Gold.Chemscore.Internal.Correction>
   9.000000E+99

> <Gold.Chemscore.Hbonds>
donor molecule, donor type, donor heavy atom, donor atom, acceptor molecule, acceptor atom, score
      P1  H  7989  7998       L1    16  0.15
      P1  H  7997  8008       L1    11  0.84

> <Gold.Chemscore.Hbond.Weighted>
-5.7207

> <Gold.Chemscore.Metal.Weighted>
-0.0000

> <Gold.Chemscore.Lipo.Weighted>
-16.8315

> <Gold.Chemscore.Internal_Hbond.Weighted>
0.0000

> <Gold.Chemscore.DEClash.Weighted>
0.1322

> <Gold.Chemscore.DEInternal.Weighted>
1.2231

> <Gold.Chemscore.Rot.Weighted>
7.5677

> <Gold.Chemscore.Internal.Correction.Weighted>
   9.000000E+99

> <Gold.Protein.RotatedTorsions>
[ 6907 6896 6895 6894 ] final  145.80 input  -60.11 | X-H torsion
[ 7974 7965 7964 7962 ] final -118.99 input  175.53 | X-H torsion
[ 8008 7997 7996 7995 ] final  -85.68 input   59.86 | X-H torsion
[ 10167 10162 10161 10158 ] final  106.40 input  -65.29 | X-H torsion
[ 10718 10713 10712 10709 ] final  -22.09 input   66.30 | X-H torsion
[ 10763 10752 10751 10750 ] final  155.95 input  -60.55 | X-H torsion
[ 11005 11000 10999 10996 ] final -126.19 input  -57.11 | X-H torsion

> <Gold.Protein.ActiveResidues>
 VAL166  LYS551  ARG553  GLY616  TRP617  ASP618  TYR619  PRO620  LYS621  CYS622 
 ASP623  PHE694  ASN695  SER759  ASP760  ASP761  ALA762  ILE779  LEU786  VAL792 
 PHE793  MET794  SER795  GLU796  ALA797  LYS798  CYS799  TRP800  GLU811  SER814 

> <Gold.Protein.RotatedAtoms>
  152.1762  133.4676  159.4934 H   0  0  0  0  0  0  0  0  0  0  0  0  # atno 6907 bound_to 6896
  150.6927  134.1891  159.4287 H   0  0  0  0  0  0  0  0  0  0  0  0  # atno 6908 bound_to 6896
  151.9800  135.0033  160.0607 H   0  0  0  0  0  0  0  0  0  0  0  0  # atno 6909 bound_to 6896
  145.0676  140.8335  143.4115 H   0  0  0  0  0  0  0  0  0  0  0  0  # atno 7974 bound_to 7965
  154.6434  140.0588  156.9872 H   0  0  0  0  0  0  0  0  0  0  0  0  # atno 8008 bound_to 7997
  155.1481  140.3271  155.4418 H   0  0  0  0  0  0  0  0  0  0  0  0  # atno 8009 bound_to 7997
  156.2542  140.1952  156.6594 H   0  0  0  0  0  0  0  0  0  0  0  0  # atno 8010 bound_to 7997
  139.7012  144.7094  151.1181 H   0  0  0  0  0  0  0  0  0  0  0  0  # atno 10167 bound_to 10162
  156.5092  130.4606  149.6657 H   0  0  0  0  0  0  0  0  0  0  0  0  # atno 10718 bound_to 10713
  154.1766  135.2801  155.3065 H   0  0  0  0  0  0  0  0  0  0  0  0  # atno 10763 bound_to 10752
  154.6035  135.5522  153.7402 H   0  0  0  0  0  0  0  0  0  0  0  0  # atno 10764 bound_to 10752
  153.0149  135.6397  154.1905 H   0  0  0  0  0  0  0  0  0  0  0  0  # atno 10765 bound_to 10752
  140.9701  134.0817  157.3878 H   0  0  0  0  0  0  0  0  0  0  0  0  # atno 11005 bound_to 11000
  145.1332  139.2619  143.5528 LP  0  0  0  0  0  0  0  0  0  0  0  0  # atno 17320 bound_to 7965
  146.3527  140.0989  142.8609 LP  0  0  0  0  0  0  0  0  0  0  0  0  # atno 17321 bound_to 7965
  140.7710  143.5421  150.9301 LP  0  0  0  0  0  0  0  0  0  0  0  0  # atno 17342 bound_to 10162
  139.9102  143.6729  152.3116 LP  0  0  0  0  0  0  0  0  0  0  0  0  # atno 17343 bound_to 10162
  156.3257  130.7304  151.2224 LP  0  0  0  0  0  0  0  0  0  0  0  0  # atno 17370 bound_to 10713
  157.7453  131.0443  150.4789 LP  0  0  0  0  0  0  0  0  0  0  0  0  # atno 17371 bound_to 10713
  139.8909  135.0115  156.6761 LP  0  0  0  0  0  0  0  0  0  0  0  0  # atno 17394 bound_to 11000
  140.7341  133.9033  155.8232 LP  0  0  0  0  0  0  0  0  0  0  0  0  # atno 17395 bound_to 11000

$$$$
