AV-unprocessed.smi:72|AV-procd|sdf|698|dock10
  -GOLD-   2262017 13D 1   1.00000     0.00000
 Structure written by MMmdl.
 30 31  0  0  0  0  0  0  0  0  2 V2000
  145.5884  135.8522  151.7959 N   0  0  0  0  0  0  0  0  0  0  0  0
  145.8266  136.8733  152.6919 C   0  0  0  0  0  0  0  0  0  0  0  0
  146.9965  137.5970  152.5451 N   0  3  0  0  0  0  0  0  0  0  0  0
  147.3768  138.6127  153.3313 C   0  0  0  0  0  0  0  0  0  0  0  0
  146.5991  138.9755  154.3297 N   0  0  0  0  0  0  0  0  0  0  0  0
  146.9953  140.1173  155.2290 C   0  0  1  0  0  0  0  0  0  0  0  0
  148.2646  139.8332  155.7340 O   0  0  0  0  0  0  0  0  0  0  0  0
  149.0883  140.9903  155.6406 C   0  0  1  0  0  0  0  0  0  0  0  0
  150.5800  140.6127  155.6714 C   0  0  0  0  0  0  0  0  0  0  0  0
  150.9149  139.8528  154.5302 O   0  0  0  0  0  0  0  0  0  0  0  0
  148.5754  141.7119  154.3865 C   0  0  1  0  0  0  0  0  0  0  0  0
  149.1455  141.1568  153.2123 O   0  0  0  0  0  0  0  0  0  0  0  0
  147.0746  141.4618  154.4756 C   0  0  1  0  0  0  0  0  0  0  0  0
  146.4331  141.5077  153.2122 O   0  0  0  0  0  0  0  0  0  0  0  0
  145.3722  138.2996  154.5552 C   0  0  0  0  0  0  0  0  0  0  0  0
  144.6269  138.6424  155.4719 O   0  0  0  0  0  0  0  0  0  0  0  0
  145.0637  137.2459  153.6821 N   0  0  0  0  0  0  0  0  0  0  0  0
  146.2860  140.1319  156.0577 H   0  0  0  0  0  0  0  0  0  0  0  0
  148.8612  141.6078  156.5120 H   0  0  0  0  0  0  0  0  0  0  0  0
  148.8079  142.7772  154.4076 H   0  0  0  0  0  0  0  0  0  0  0  0
  146.6234  142.2159  155.1219 H   0  0  0  0  0  0  0  0  0  0  0  0
  144.7615  135.2722  151.8268 H   0  0  0  0  0  0  0  0  0  0  0  0
  146.2123  135.6044  151.0415 H   0  0  0  0  0  0  0  0  0  0  0  0
  148.3139  139.1183  153.1375 H   0  0  0  0  0  0  0  0  0  0  0  0
  151.1903  141.5161  155.6732 H   0  0  0  0  0  0  0  0  0  0  0  0
  150.8368  140.0561  156.5729 H   0  0  0  0  0  0  0  0  0  0  0  0
  150.4503  139.0304  154.5678 H   0  0  0  0  0  0  0  0  0  0  0  0
  149.8414  140.5705  153.4698 H   0  0  0  0  0  0  0  0  0  0  0  0
  145.6081  141.0513  153.2796 H   0  0  0  0  0  0  0  0  0  0  0  0
  147.6089  137.3370  151.7851 H   0  0  0  0  0  0  0  0  0  0  0  0
  1  2  1  0  0  0  0
  1 22  1  0  0  0  0
  1 23  1  0  0  0  0
  2 17  2  0  0  0  0
  2  3  1  0  0  0  0
  3  4  2  0  0  0  0
  3 30  1  0  0  0  0
  4  5  1  0  0  0  0
  4 24  1  0  0  0  0
  5  6  1  0  0  0  0
  5 15  1  0  0  0  0
  6 18  1  0  0  0  0
  6 13  1  0  0  0  0
  6  7  1  0  0  0  0
  7  8  1  0  0  0  0
  8 19  1  0  0  0  0
  8  9  1  0  0  0  0
  8 11  1  0  0  0  0
  9 10  1  0  0  0  0
  9 25  1  0  0  0  0
  9 26  1  0  0  0  0
 10 27  1  0  0  0  0
 11 20  1  0  0  0  0
 11 12  1  0  0  0  0
 11 13  1  0  0  0  0
 12 28  1  0  0  0  0
 13 21  1  0  0  0  0
 13 14  1  0  0  0  0
 14 29  1  0  0  0  0
 15 16  2  0  0  0  0
 15 17  1  0  0  0  0
M  CHG  1   3   1
M  END
> <s_m_source_file>
AV-unprocessed.smi

> <i_m_source_file_index>
72

> <i_lp_mmshare_version>
43012

> <i_f3d_flags>
0

> <s_epik_input>
W05IMl1jMW5bY0hdbihjKD1PKW4xKVtDQEBIXTJPW0NASF0oW0NIMl1bT0hdKVtDQEBIXShbT0hdKVtDQEhdMltPSF0=

> <s_epik_cmdline>
J2VwaWtfcHl0aG9uJywgJy1waCcsICc3LjAnLCAnLXRuJywgJzgnLCAnLW1hJywgJzIwMCcsICctbWV0YWxfYmluZGluZycsICctaW1hZScsICc8aW5maWxlLm1hZT4nLCAnLW9tYWUnLCAnPG91dGZpbGUubWFlPic=

> <r_lp_tautomer_probability>
4.77166e-05

> <r_epik_Ionization_Penalty>
0.104979

> <r_epik_Ionization_Penalty_Charging>
0.0999619

> <r_epik_Ionization_Penalty_Neutral>
0.00501745

> <r_epik_State_Penalty>
2.51541

> <r_epik_Charging_Adjusted_Penalty>
2.61537

> <i_epik_Tot_Q>
1

> <i_epik_Tot_abs_Q>
1

> <r_epik_Metal_State_Penalty>
3.53763

> <b_epik_Metal_Only>
0

> <s_epik_Chemistry_Notes>
This compound contains an acetal/aminal-like group ( X-CH(R)-Y where X, Y are N, S, or O) that may be acid/base labile, releasing an aldehyde.

> <s_lp_Force_Field>
OPLS_2005

> <r_lp_Energy>
38.8596

> <b_lp_Chiralities_Consistent>
1

> <s_lp_Variant>
AV-unprocessed.smi:72-36

> <Gold.Version>
5.8.1

> <Gold.Id.Protein>
6NUR|6NUR_protein|mol2

> <Gold.PLP.Fitness>
34.8747

> <Gold.PLP.PLP>
-20.4311

> <Gold.PLP.part.hbond>
-5.3227

> <Gold.PLP.part.metal>
0.0000

> <Gold.PLP.part.buried>
-2.5676

> <Gold.PLP.part.nonpolar>
-12.4508

> <Gold.PLP.part.repulsive>
0.2909

> <Gold.PLP.ligand.clash>
0.0000

> <Gold.PLP.ligand.torsion>
0.0586

> <Gold.PLP.Chemscore.Hbond>
3.8665

> <Gold.PLP.Chemscore.CHOScore>
0.9787

> <Gold.PLP.Chemscore.Metal>
0.0000

> <Gold.Chemscore.Hbonds>
donor molecule, donor type, donor heavy atom, donor atom, acceptor molecule, acceptor atom, score
      L1  H     3    30       P1  7948  1.15
      L1  H    14    29       P1 10175  0.70
      P1  H  7989  7998       L1    10  1.00
      P1  H  8011  8017       L1    12  1.00
      L1  C     4    24       P1  7957  1.00

> <Gold.PLP.Chemscore.Internal.Correction>
0.0252

> <Gold.Rescore>
     Score         DG    S(hbond)    S(metal)    S(lipo)     H(rot)  DE(clash)    DE(int)     intcor
      8.68      -8.90       3.37        0.00      22.29       4.08       0.00       0.22       ----

> <Gold.Chemscore.Fitness>
8.6843

> <Gold.Chemscore.DG>
-8.9039

> <Gold.Chemscore.ZeroCoef>
-5.4800

> <Gold.Chemscore.Hbond>
3.3701

> <Gold.Chemscore.Metal>
0.0000

> <Gold.Chemscore.Lipo>
22.2939

> <Gold.Chemscore.Internal_Hbond>
0.0000

> <Gold.Chemscore.DEClash>
0.0000

> <Gold.Chemscore.DEInternal>
0.2197

> <Gold.Chemscore.Rot>
4.0783

> <Gold.Chemscore.Internal.Correction>
   9.000000E+99

> <Gold.Chemscore.Hbonds>
donor molecule, donor type, donor heavy atom, donor atom, acceptor molecule, acceptor atom, score
      L1  H     3    30       P1  7948  0.58
      L1  H    14    29       P1 10175  0.29
      P1  H  7989  7998       L1    10  0.60
      P1  H  8011  8017       L1    12  0.45

> <Gold.Chemscore.Hbond.Weighted>
-11.2560

> <Gold.Chemscore.Metal.Weighted>
-0.0000

> <Gold.Chemscore.Lipo.Weighted>
-2.6084

> <Gold.Chemscore.Internal_Hbond.Weighted>
0.0000

> <Gold.Chemscore.DEClash.Weighted>
0.0000

> <Gold.Chemscore.DEInternal.Weighted>
0.2197

> <Gold.Chemscore.Rot.Weighted>
10.4404

> <Gold.Chemscore.Internal.Correction.Weighted>
   9.000000E+99

> <Gold.Protein.RotatedTorsions>
[ 6907 6896 6895 6894 ] final -114.91 input  -60.11 | X-H torsion
[ 7974 7965 7964 7962 ] final   33.98 input  175.53 | X-H torsion
[ 8008 7997 7996 7995 ] final   43.24 input   59.86 | X-H torsion
[ 10167 10162 10161 10158 ] final  -77.04 input  -65.29 | X-H torsion
[ 10718 10713 10712 10709 ] final -142.70 input   66.30 | X-H torsion
[ 10763 10752 10751 10750 ] final  -23.57 input  -60.55 | X-H torsion
[ 11005 11000 10999 10996 ] final   -1.46 input  -57.11 | X-H torsion

> <Gold.Protein.ActiveResidues>
 VAL166  LYS551  ARG553  GLY616  TRP617  ASP618  TYR619  PRO620  LYS621  CYS622 
 ASP623  PHE694  ASN695  SER759  ASP760  ASP761  ALA762  ILE779  LEU786  VAL792 
 PHE793  MET794  SER795  GLU796  ALA797  LYS798  CYS799  TRP800  GLU811  SER814 

> <Gold.Protein.RotatedAtoms>
  150.7938  133.8733  159.3264 H   0  0  0  0  0  0  0  0  0  0  0  0  # atno 6907 bound_to 6896
  151.6564  135.0993  160.0180 H   0  0  0  0  0  0  0  0  0  0  0  0  # atno 6908 bound_to 6896
  152.4016  133.6788  159.6357 H   0  0  0  0  0  0  0  0  0  0  0  0  # atno 6909 bound_to 6896
  146.1384  139.6327  142.9180 H   0  0  0  0  0  0  0  0  0  0  0  0  # atno 7974 bound_to 7965
  155.2994  140.3384  155.4248 H   0  0  0  0  0  0  0  0  0  0  0  0  # atno 8008 bound_to 7997
  156.2008  140.1732  156.7942 H   0  0  0  0  0  0  0  0  0  0  0  0  # atno 8009 bound_to 7997
  154.5557  140.0697  156.8723 H   0  0  0  0  0  0  0  0  0  0  0  0  # atno 8010 bound_to 7997
  140.4805  143.2403  151.8066 H   0  0  0  0  0  0  0  0  0  0  0  0  # atno 10167 bound_to 10162
  156.3491  130.7678  151.1828 H   0  0  0  0  0  0  0  0  0  0  0  0  # atno 10718 bound_to 10713
  153.6699  135.6972  153.5150 H   0  0  0  0  0  0  0  0  0  0  0  0  # atno 10763 bound_to 10752
  153.2566  135.4258  155.0851 H   0  0  0  0  0  0  0  0  0  0  0  0  # atno 10764 bound_to 10752
  154.8429  135.3544  154.6243 H   0  0  0  0  0  0  0  0  0  0  0  0  # atno 10765 bound_to 10752
  140.6476  133.9434  155.8361 H   0  0  0  0  0  0  0  0  0  0  0  0  # atno 11005 bound_to 11000
  145.5103  141.0435  143.2491 LP  0  0  0  0  0  0  0  0  0  0  0  0  # atno 17320 bound_to 7965
  144.7765  139.6619  143.7172 LP  0  0  0  0  0  0  0  0  0  0  0  0  # atno 17321 bound_to 7965
  139.4832  144.4779  151.9344 LP  0  0  0  0  0  0  0  0  0  0  0  0  # atno 17342 bound_to 10162
  140.3864  144.2671  150.5903 LP  0  0  0  0  0  0  0  0  0  0  0  0  # atno 17343 bound_to 10162
  157.7458  131.0433  150.4735 LP  0  0  0  0  0  0  0  0  0  0  0  0  # atno 17370 bound_to 10713
  156.4927  130.4099  149.6397 LP  0  0  0  0  0  0  0  0  0  0  0  0  # atno 17371 bound_to 10713
  141.0561  134.0414  157.3721 LP  0  0  0  0  0  0  0  0  0  0  0  0  # atno 17394 bound_to 11000
  139.9057  135.0179  156.7476 LP  0  0  0  0  0  0  0  0  0  0  0  0  # atno 17395 bound_to 11000

$$$$
