AV-unprocessed.smi:2505|AV-procd|sdf|9855|dock7
  -GOLD-   2272013483D 1   1.00000     0.00000
 Structure written by MMmdl.
 48 52  0  0  0  0  0  0  0  0  1 V2000
  145.8909  138.7872  153.0895 O   0  0  0  0  0  0  0  0  0  0  0  0
  146.7337  137.9030  152.9542 C   0  0  0  0  0  0  0  0  0  0  0  0
  148.0071  137.9817  153.3856 N   0  0  0  0  0  0  0  0  0  0  0  0
  148.6372  139.0350  154.0990 C   0  0  0  0  0  0  0  0  0  0  0  0
  147.9670  140.1303  154.6977 C   0  0  0  0  0  0  0  0  0  0  0  0
  148.6379  141.0870  155.3755 N   0  0  0  0  0  0  0  0  0  0  0  0
  149.9653  140.9583  155.4522 C   0  0  0  0  0  0  0  0  0  0  0  0
  150.6977  142.0034  156.2352 C   0  0  0  0  0  0  0  0  0  0  0  0
  151.5978  141.6186  157.3917 C   0  0  0  0  0  0  0  0  0  0  0  0
  150.2990  142.3258  157.6611 C   0  0  0  0  0  0  0  0  0  0  0  0
  150.6986  139.9605  154.9507 N   0  0  0  0  0  0  0  0  0  0  0  0
  150.0364  138.9989  154.2728 C   0  0  0  0  0  0  0  0  0  0  0  0
  146.4511  136.7659  152.2960 N   0  0  0  0  0  0  0  0  0  0  0  0
  145.1686  136.3680  151.7015 C   0  0  2  0  0  0  0  0  0  0  0  0
  144.0231  136.2121  152.7319 C   0  0  2  0  0  0  0  0  0  0  0  0
  144.1175  136.7013  154.1573 C   0  0  0  0  0  0  0  0  0  0  0  0
  144.5439  135.4452  154.9230 C   0  0  0  0  0  0  0  0  0  0  0  0
  145.1000  134.5828  153.9331 O   0  0  0  0  0  0  0  0  0  0  0  0
  144.3214  134.7214  152.7476 C   0  0  2  0  0  0  0  0  0  0  0  0
  145.1034  134.8475  151.4246 C   0  0  0  0  0  0  0  0  0  0  0  0
  146.3870  134.0294  151.2767 C   0  0  0  0  0  0  0  0  0  0  0  0
  145.9839  132.6788  150.6825 C   0  0  0  0  0  0  0  0  0  0  0  0
  144.6820  132.9399  149.9195 C   0  0  0  0  0  0  0  0  0  0  0  0
  144.3358  134.4101  150.1774 C   0  0  0  0  0  0  0  0  0  0  0  0
  148.6071  137.2115  153.1288 H   0  0  0  0  0  0  0  0  0  0  0  0
  146.8955  140.2489  154.6657 H   0  0  0  0  0  0  0  0  0  0  0  0
  151.0153  142.8255  155.5967 H   0  0  0  0  0  0  0  0  0  0  0  0
  151.6594  140.5655  157.6597 H   0  0  0  0  0  0  0  0  0  0  0  0
  152.5163  142.1869  157.5221 H   0  0  0  0  0  0  0  0  0  0  0  0
  150.3480  143.3673  157.9719 H   0  0  0  0  0  0  0  0  0  0  0  0
  149.4964  141.7432  158.1094 H   0  0  0  0  0  0  0  0  0  0  0  0
  150.6310  138.1944  153.8648 H   0  0  0  0  0  0  0  0  0  0  0  0
  147.2199  136.1288  152.1440 H   0  0  0  0  0  0  0  0  0  0  0  0
  144.8818  136.9560  150.8280 H   0  0  0  0  0  0  0  0  0  0  0  0
  143.0573  136.4112  152.2647 H   0  0  0  0  0  0  0  0  0  0  0  0
  144.8459  137.5021  154.2744 H   0  0  0  0  0  0  0  0  0  0  0  0
  143.1631  137.0777  154.5266 H   0  0  0  0  0  0  0  0  0  0  0  0
  145.2619  135.6595  155.7147 H   0  0  0  0  0  0  0  0  0  0  0  0
  143.6769  134.9569  155.3703 H   0  0  0  0  0  0  0  0  0  0  0  0
  143.4346  134.0864  152.7288 H   0  0  0  0  0  0  0  0  0  0  0  0
  147.0709  134.5335  150.5921 H   0  0  0  0  0  0  0  0  0  0  0  0
  146.9218  133.9037  152.2185 H   0  0  0  0  0  0  0  0  0  0  0  0
  146.7650  132.2689  150.0416 H   0  0  0  0  0  0  0  0  0  0  0  0
  145.8032  131.9598  151.4827 H   0  0  0  0  0  0  0  0  0  0  0  0
  144.7892  132.7416  148.8526 H   0  0  0  0  0  0  0  0  0  0  0  0
  143.8924  132.2892  150.2972 H   0  0  0  0  0  0  0  0  0  0  0  0
  143.2592  134.5525  150.2769 H   0  0  0  0  0  0  0  0  0  0  0  0
  144.6507  135.0074  149.3205 H   0  0  0  0  0  0  0  0  0  0  0  0
  1  2  2  0  0  0  0
  2  3  1  0  0  0  0
  2 13  1  0  0  0  0
  3  4  1  0  0  0  0
  3 25  1  0  0  0  0
  4 12  1  0  0  0  0
  4  5  2  0  0  0  0
  5  6  1  0  0  0  0
  5 26  1  0  0  0  0
  6  7  2  0  0  0  0
  7  8  1  0  0  0  0
  7 11  1  0  0  0  0
  8 10  1  0  0  0  0
  8  9  1  0  0  0  0
  8 27  1  0  0  0  0
  9 10  1  0  0  0  0
  9 28  1  0  0  0  0
  9 29  1  0  0  0  0
 10 30  1  0  0  0  0
 10 31  1  0  0  0  0
 11 12  2  0  0  0  0
 12 32  1  0  0  0  0
 13 14  1  0  0  0  0
 13 33  1  0  0  0  0
 14 20  1  0  0  0  0
 14 15  1  0  0  0  0
 14 34  1  0  0  0  0
 15 19  1  0  0  0  0
 15 16  1  0  0  0  0
 15 35  1  0  0  0  0
 16 17  1  0  0  0  0
 16 36  1  0  0  0  0
 16 37  1  0  0  0  0
 17 18  1  0  0  0  0
 17 38  1  0  0  0  0
 17 39  1  0  0  0  0
 18 19  1  0  0  0  0
 19 20  1  0  0  0  0
 19 40  1  0  0  0  0
 20 24  1  0  0  0  0
 20 21  1  0  0  0  0
 21 22  1  0  0  0  0
 21 41  1  0  0  0  0
 21 42  1  0  0  0  0
 22 23  1  0  0  0  0
 22 43  1  0  0  0  0
 22 44  1  0  0  0  0
 23 24  1  0  0  0  0
 23 45  1  0  0  0  0
 23 46  1  0  0  0  0
 24 47  1  0  0  0  0
 24 48  1  0  0  0  0
M  END
> <s_m_source_file>
AV-unprocessed.smi

> <i_m_source_file_index>
2505

> <i_lp_mmshare_version>
43012

> <i_f3d_flags>
0

> <s_epik_input>
W0NIMl0xW0NIMl1bQ0hdMWMobltjSF0yKW5bY0hdYzJbTkhdQyg9TylbTkhdW0NAQEhdM1tDQEBIXShbQ0gyXVtDSDJdTzQpW0NASF00QzM1W0NIMl1bQ0gyXVtDSDJdW0NIMl01

> <s_epik_cmdline>
J2VwaWtfcHl0aG9uJywgJy1waCcsICc3LjAnLCAnLXRuJywgJzgnLCAnLW1hJywgJzIwMCcsICctbWV0YWxfYmluZGluZycsICctaW1hZScsICc8aW5maWxlLm1hZT4nLCAnLW9tYWUnLCAnPG91dGZpbGUubWFlPic=

> <r_lp_tautomer_probability>
1

> <r_epik_Ionization_Penalty>
2.6075e-05

> <r_epik_Ionization_Penalty_Charging>
0

> <r_epik_Ionization_Penalty_Neutral>
2.6075e-05

> <r_epik_State_Penalty>
-0

> <r_epik_Charging_Adjusted_Penalty>
0

> <i_epik_Tot_Q>
0

> <i_epik_Tot_abs_Q>
0

> <r_epik_Metal_State_Penalty>
-0

> <b_epik_Metal_Only>
0

> <s_lp_Force_Field>
OPLS_2005

> <r_lp_Energy>
63.7277

> <b_lp_Chiralities_Consistent>
1

> <s_lp_Variant>
AV-unprocessed.smi:2505-3

> <Gold.Version>
5.8.1

> <Gold.Id.Protein>
6NUR|6NUR_protein|mol2

> <Gold.PLP.Fitness>
42.0518

> <Gold.PLP.PLP>
-34.3547

> <Gold.PLP.part.hbond>
-2.8834

> <Gold.PLP.part.metal>
0.0000

> <Gold.PLP.part.buried>
-4.4755

> <Gold.PLP.part.nonpolar>
-29.0643

> <Gold.PLP.part.repulsive>
2.3091

> <Gold.PLP.ligand.clash>
0.0000

> <Gold.PLP.ligand.torsion>
0.2088

> <Gold.PLP.Chemscore.Hbond>
2.6000

> <Gold.PLP.Chemscore.CHOScore>
0.0000

> <Gold.PLP.Chemscore.Metal>
0.0000

> <Gold.Chemscore.Hbonds>
donor molecule, donor type, donor heavy atom, donor atom, acceptor molecule, acceptor atom, score
      L1  H     3    25       P1  7948  0.83
      L1  H    13    33       P1  7948  0.77
      P1  H  7989  7998       L1    11  1.00

> <Gold.PLP.Chemscore.Internal.Correction>
0.3147

> <Gold.Rescore>
     Score         DG    S(hbond)    S(metal)    S(lipo)     H(rot)  DE(clash)    DE(int)     intcor
     15.55     -19.50       1.94        0.00      90.23       1.17       1.41       2.55       ----

> <Gold.Chemscore.Fitness>
15.5461

> <Gold.Chemscore.DG>
-19.4970

> <Gold.Chemscore.ZeroCoef>
-5.4800

> <Gold.Chemscore.Hbond>
1.9361

> <Gold.Chemscore.Metal>
0.0000

> <Gold.Chemscore.Lipo>
90.2307

> <Gold.Chemscore.Internal_Hbond>
0.0000

> <Gold.Chemscore.DEClash>
1.4051

> <Gold.Chemscore.DEInternal>
2.5459

> <Gold.Chemscore.Rot>
1.1744

> <Gold.Chemscore.Internal.Correction>
   9.000000E+99

> <Gold.Chemscore.Hbonds>
donor molecule, donor type, donor heavy atom, donor atom, acceptor molecule, acceptor atom, score
      L1  H     3    25       P1  7948  0.81
      L1  H    13    33       P1  7948  0.76
      P1  H  7989  7998       L1    11  0.09

> <Gold.Chemscore.Hbond.Weighted>
-6.4665

> <Gold.Chemscore.Metal.Weighted>
-0.0000

> <Gold.Chemscore.Lipo.Weighted>
-10.5570

> <Gold.Chemscore.Internal_Hbond.Weighted>
0.0000

> <Gold.Chemscore.DEClash.Weighted>
1.4051

> <Gold.Chemscore.DEInternal.Weighted>
2.5459

> <Gold.Chemscore.Rot.Weighted>
3.0064

> <Gold.Chemscore.Internal.Correction.Weighted>
   9.000000E+99

> <Gold.Protein.RotatedTorsions>
[ 6907 6896 6895 6894 ] final  -36.63 input  -60.11 | X-H torsion
[ 7974 7965 7964 7962 ] final  -82.90 input  175.53 | X-H torsion
[ 8008 7997 7996 7995 ] final  -21.43 input   59.86 | X-H torsion
[ 10167 10162 10161 10158 ] final   66.92 input  -65.29 | X-H torsion
[ 10718 10713 10712 10709 ] final -141.53 input   66.30 | X-H torsion
[ 10763 10752 10751 10750 ] final -109.84 input  -60.55 | X-H torsion
[ 11005 11000 10999 10996 ] final    0.13 input  -57.11 | X-H torsion

> <Gold.Protein.ActiveResidues>
 VAL166  LYS551  ARG553  GLY616  TRP617  ASP618  TYR619  PRO620  LYS621  CYS622 
 ASP623  PHE694  ASN695  SER759  ASP760  ASP761  ALA762  ILE779  LEU786  VAL792 
 PHE793  MET794  SER795  GLU796  ALA797  LYS798  CYS799  TRP800  GLU811  SER814 

> <Gold.Protein.RotatedAtoms>
  151.0248  134.9496  159.8078 H   0  0  0  0  0  0  0  0  0  0  0  0  # atno 6907 bound_to 6896
  152.5333  134.2857  159.9034 H   0  0  0  0  0  0  0  0  0  0  0  0  # atno 6908 bound_to 6896
  151.2865  133.4143  159.2664 H   0  0  0  0  0  0  0  0  0  0  0  0  # atno 6909 bound_to 6896
  145.5272  140.9525  143.1623 H   0  0  0  0  0  0  0  0  0  0  0  0  # atno 7974 bound_to 7965
  154.4706  140.2035  156.0005 H   0  0  0  0  0  0  0  0  0  0  0  0  # atno 8008 bound_to 7997
  156.1004  140.3245  155.7904 H   0  0  0  0  0  0  0  0  0  0  0  0  # atno 8009 bound_to 7997
  155.4807  140.0538  157.2958 H   0  0  0  0  0  0  0  0  0  0  0  0  # atno 8010 bound_to 7997
  140.0952  144.4953  150.7073 H   0  0  0  0  0  0  0  0  0  0  0  0  # atno 10167 bound_to 10162
  156.3352  130.7607  151.1733 H   0  0  0  0  0  0  0  0  0  0  0  0  # atno 10718 bound_to 10713
  154.8215  135.4586  154.0794 H   0  0  0  0  0  0  0  0  0  0  0  0  # atno 10763 bound_to 10752
  153.2143  135.6886  153.8082 H   0  0  0  0  0  0  0  0  0  0  0  0  # atno 10764 bound_to 10752
  153.7522  135.3296  155.3300 H   0  0  0  0  0  0  0  0  0  0  0  0  # atno 10765 bound_to 10752
  140.6299  133.9584  155.8269 H   0  0  0  0  0  0  0  0  0  0  0  0  # atno 11005 bound_to 11000
  144.7645  139.6878  143.7220 LP  0  0  0  0  0  0  0  0  0  0  0  0  # atno 17320 bound_to 7965
  146.2068  139.5397  142.9707 LP  0  0  0  0  0  0  0  0  0  0  0  0  # atno 17321 bound_to 7965
  140.7007  143.2433  151.4871 LP  0  0  0  0  0  0  0  0  0  0  0  0  # atno 17342 bound_to 10162
  139.5702  144.1946  152.1825 LP  0  0  0  0  0  0  0  0  0  0  0  0  # atno 17343 bound_to 10162
  157.7437  131.0470  150.4922 LP  0  0  0  0  0  0  0  0  0  0  0  0  # atno 17370 bound_to 10713
  156.5094  130.4136  149.6309 LP  0  0  0  0  0  0  0  0  0  0  0  0  # atno 17371 bound_to 10713
  141.0682  134.0244  157.3563 LP  0  0  0  0  0  0  0  0  0  0  0  0  # atno 17394 bound_to 11000
  139.9120  135.0191  156.7730 LP  0  0  0  0  0  0  0  0  0  0  0  0  # atno 17395 bound_to 11000

$$$$
