AV-unprocessed.smi:2129|AV-procd|sdf|8684|dock3
  -GOLD-   2272011433D 1   1.00000     0.00000
 Structure written by MMmdl.
 33 33  0  0  0  0  0  0  0  0  2 V2000
  152.8005  142.8518  160.8551 C   0  0  0  0  0  0  0  0  0  0  0  0
  152.3274  142.4114  159.4581 C   0  0  0  0  0  0  0  0  0  0  0  0
  151.7547  143.5368  158.5523 C   0  0  0  0  0  0  0  0  0  0  0  0
  150.6032  144.2624  159.2827 C   0  0  0  0  0  0  0  0  0  0  0  0
  152.8502  144.5747  158.2389 C   0  0  0  0  0  0  0  0  0  0  0  0
  151.2837  143.0096  157.2650 N   0  0  0  0  0  0  0  0  0  0  0  0
  150.3074  142.1137  157.0353 C   0  0  0  0  0  0  0  0  0  0  0  0
  149.6146  141.6104  157.9201 O   0  0  0  0  0  0  0  0  0  0  0  0
  150.0693  141.7476  155.5648 C   0  0  0  0  0  0  0  0  0  0  0  0
  150.4206  140.3500  155.2669 N   0  0  0  0  0  0  0  0  0  0  0  0
  151.7031  139.9037  155.6316 C   0  0  0  0  0  0  0  0  0  0  0  0
  152.1105  138.6424  155.3937 C   0  0  0  0  0  0  0  0  0  0  0  0
  151.1822  137.7291  154.7385 C   0  0  0  0  0  0  0  0  0  0  0  0
  151.5357  136.5726  154.5168 O   0  0  0  0  0  0  0  0  0  0  0  0
  149.9505  138.2106  154.4002 N   0  5  0  0  0  0  0  0  0  0  0  0
  149.5501  139.4964  154.6475 C   0  0  0  0  0  0  0  0  0  0  0  0
  148.4334  139.9106  154.3339 O   0  0  0  0  0  0  0  0  0  0  0  0
  153.1938  141.9999  161.4095 H   0  0  0  0  0  0  0  0  0  0  0  0
  151.9870  143.2738  161.4442 H   0  0  0  0  0  0  0  0  0  0  0  0
  153.5965  143.5944  160.7985 H   0  0  0  0  0  0  0  0  0  0  0  0
  153.1646  141.9257  158.9559 H   0  0  0  0  0  0  0  0  0  0  0  0
  151.5753  141.6303  159.5767 H   0  0  0  0  0  0  0  0  0  0  0  0
  150.9590  144.7454  160.1935 H   0  0  0  0  0  0  0  0  0  0  0  0
  149.8064  143.5790  159.5761 H   0  0  0  0  0  0  0  0  0  0  0  0
  150.1577  145.0356  158.6555 H   0  0  0  0  0  0  0  0  0  0  0  0
  153.2781  144.9890  159.1522 H   0  0  0  0  0  0  0  0  0  0  0  0
  152.4517  145.4078  157.6584 H   0  0  0  0  0  0  0  0  0  0  0  0
  153.6668  144.1435  157.6594 H   0  0  0  0  0  0  0  0  0  0  0  0
  151.7778  143.3477  156.4522 H   0  0  0  0  0  0  0  0  0  0  0  0
  149.0204  141.9375  155.3344 H   0  0  0  0  0  0  0  0  0  0  0  0
  150.6322  142.4198  154.9141 H   0  0  0  0  0  0  0  0  0  0  0  0
  152.3307  140.6438  156.1061 H   0  0  0  0  0  0  0  0  0  0  0  0
  153.0998  138.3157  155.6780 H   0  0  0  0  0  0  0  0  0  0  0  0
  1  2  1  0  0  0  0
  1 18  1  0  0  0  0
  1 19  1  0  0  0  0
  1 20  1  0  0  0  0
  2  3  1  0  0  0  0
  2 21  1  0  0  0  0
  2 22  1  0  0  0  0
  3  4  1  0  0  0  0
  3  5  1  0  0  0  0
  3  6  1  0  0  0  0
  4 23  1  0  0  0  0
  4 24  1  0  0  0  0
  4 25  1  0  0  0  0
  5 26  1  0  0  0  0
  5 27  1  0  0  0  0
  5 28  1  0  0  0  0
  6  7  1  0  0  0  0
  6 29  1  0  0  0  0
  7  8  2  0  0  0  0
  7  9  1  0  0  0  0
  9 10  1  0  0  0  0
  9 30  1  0  0  0  0
  9 31  1  0  0  0  0
 10 16  1  0  0  0  0
 10 11  1  0  0  0  0
 11 12  2  0  0  0  0
 11 32  1  0  0  0  0
 12 13  1  0  0  0  0
 12 33  1  0  0  0  0
 13 14  2  0  0  0  0
 13 15  1  0  0  0  0
 15 16  1  0  0  0  0
 16 17  2  0  0  0  0
M  CHG  1  15  -1
M  END
> <s_m_source_file>
AV-unprocessed.smi

> <i_m_source_file_index>
2129

> <i_lp_mmshare_version>
43012

> <i_f3d_flags>
0

> <s_epik_input>
W0NIM11bQ0gyXUMoW0NIM10pKFtDSDNdKVtOSF1DKD1PKVtDSDJdbjFbY0hdW2NIXWMoPU8pW25IXWMxPU8=

> <s_epik_cmdline>
J2VwaWtfcHl0aG9uJywgJy1waCcsICc3LjAnLCAnLXRuJywgJzgnLCAnLW1hJywgJzIwMCcsICctbWV0YWxfYmluZGluZycsICctaW1hZScsICc8aW5maWxlLm1hZT4nLCAnLW9tYWUnLCAnPG91dGZpbGUubWFlPic=

> <r_lp_tautomer_probability>
0.999537

> <r_epik_Ionization_Penalty>
3.14534

> <r_epik_Ionization_Penalty_Charging>
2.92803e-08

> <r_epik_Ionization_Penalty_Neutral>
3.14534

> <r_epik_State_Penalty>
3.14446

> <r_epik_Charging_Adjusted_Penalty>
3.14446

> <i_epik_Tot_Q>
-1

> <i_epik_Tot_abs_Q>
1

> <r_epik_Metal_State_Penalty>
0.465837

> <b_epik_Metal_Only>
1

> <s_lp_Force_Field>
OPLS_2005

> <r_lp_Energy>
14.5296

> <b_lp_Chiralities_Consistent>
1

> <s_lp_Variant>
AV-unprocessed.smi:2129-2

> <Gold.Version>
5.8.1

> <Gold.Id.Protein>
6NUR|6NUR_protein|mol2

> <Gold.PLP.Fitness>
41.0828

> <Gold.PLP.PLP>
-38.2800

> <Gold.PLP.part.hbond>
-0.9302

> <Gold.PLP.part.metal>
0.0000

> <Gold.PLP.part.buried>
-3.3034

> <Gold.PLP.part.nonpolar>
-34.4210

> <Gold.PLP.part.repulsive>
0.8553

> <Gold.PLP.ligand.clash>
0.0000

> <Gold.PLP.ligand.torsion>
0.1224

> <Gold.PLP.Chemscore.Hbond>
1.0000

> <Gold.PLP.Chemscore.CHOScore>
0.0000

> <Gold.PLP.Chemscore.Metal>
0.0000

> <Gold.Chemscore.Hbonds>
donor molecule, donor type, donor heavy atom, donor atom, acceptor molecule, acceptor atom, score
      P1  H 10752 10764       L1    14  1.00

> <Gold.PLP.Chemscore.Internal.Correction>
0.0476

> <Gold.Rescore>
     Score         DG    S(hbond)    S(metal)    S(lipo)     H(rot)  DE(clash)    DE(int)     intcor
     13.47     -13.60       0.99        0.00      82.69       1.90       0.08       0.05       ----

> <Gold.Chemscore.Fitness>
13.4739

> <Gold.Chemscore.DG>
-13.6020

> <Gold.Chemscore.ZeroCoef>
-5.4800

> <Gold.Chemscore.Hbond>
0.9937

> <Gold.Chemscore.Metal>
0.0000

> <Gold.Chemscore.Lipo>
82.6922

> <Gold.Chemscore.Internal_Hbond>
0.0000

> <Gold.Chemscore.DEClash>
0.0766

> <Gold.Chemscore.DEInternal>
0.0515

> <Gold.Chemscore.Rot>
1.9031

> <Gold.Chemscore.Internal.Correction>
   9.000000E+99

> <Gold.Chemscore.Hbonds>
donor molecule, donor type, donor heavy atom, donor atom, acceptor molecule, acceptor atom, score
      P1  H 10752 10764       L1    14  1.00

> <Gold.Chemscore.Hbond.Weighted>
-3.3190

> <Gold.Chemscore.Metal.Weighted>
-0.0000

> <Gold.Chemscore.Lipo.Weighted>
-9.6750

> <Gold.Chemscore.Internal_Hbond.Weighted>
0.0000

> <Gold.Chemscore.DEClash.Weighted>
0.0766

> <Gold.Chemscore.DEInternal.Weighted>
0.0515

> <Gold.Chemscore.Rot.Weighted>
4.8720

> <Gold.Chemscore.Internal.Correction.Weighted>
   9.000000E+99

> <Gold.Protein.RotatedTorsions>
[ 6907 6896 6895 6894 ] final  179.15 input  -60.11 | X-H torsion
[ 7974 7965 7964 7962 ] final  -90.37 input  175.53 | X-H torsion
[ 8008 7997 7996 7995 ] final  -47.54 input   59.86 | X-H torsion
[ 10167 10162 10161 10158 ] final    2.38 input  -65.29 | X-H torsion
[ 10718 10713 10712 10709 ] final   35.76 input   66.30 | X-H torsion
[ 10763 10752 10751 10750 ] final  -80.69 input  -60.55 | X-H torsion
[ 11005 11000 10999 10996 ] final -109.28 input  -57.11 | X-H torsion

> <Gold.Protein.ActiveResidues>
 VAL166  LYS551  ARG553  GLY616  TRP617  ASP618  TYR619  PRO620  LYS621  CYS622 
 ASP623  PHE694  ASN695  SER759  ASP760  ASP761  ALA762  ILE779  LEU786  VAL792 
 PHE793  MET794  SER795  GLU796  ALA797  LYS798  CYS799  TRP800  GLU811  SER814 

> <Gold.Protein.RotatedAtoms>
  151.6762  133.3313  159.3208 H   0  0  0  0  0  0  0  0  0  0  0  0  # atno 6907 bound_to 6896
  150.7844  134.6820  159.6458 H   0  0  0  0  0  0  0  0  0  0  0  0  # atno 6908 bound_to 6896
  152.3910  134.6445  160.0159 H   0  0  0  0  0  0  0  0  0  0  0  0  # atno 6909 bound_to 6896
  145.4273  140.9554  143.2147 H   0  0  0  0  0  0  0  0  0  0  0  0  # atno 7974 bound_to 7965
  154.4018  140.1344  156.4192 H   0  0  0  0  0  0  0  0  0  0  0  0  # atno 8008 bound_to 7997
  155.7659  140.3485  155.5201 H   0  0  0  0  0  0  0  0  0  0  0  0  # atno 8009 bound_to 7997
  155.8814  140.0988  157.1473 H   0  0  0  0  0  0  0  0  0  0  0  0  # atno 8010 bound_to 7997
  140.6638  143.7234  150.7788 H   0  0  0  0  0  0  0  0  0  0  0  0  # atno 10167 bound_to 10162
  157.3266  130.7476  149.6820 H   0  0  0  0  0  0  0  0  0  0  0  0  # atno 10718 bound_to 10713
  154.5543  135.5652  153.6950 H   0  0  0  0  0  0  0  0  0  0  0  0  # atno 10763 bound_to 10752
  152.9999  135.6258  154.2331 H   0  0  0  0  0  0  0  0  0  0  0  0  # atno 10764 bound_to 10752
  154.2267  135.2867  155.2885 H   0  0  0  0  0  0  0  0  0  0  0  0  # atno 10765 bound_to 10752
  141.0856  133.9145  157.2193 H   0  0  0  0  0  0  0  0  0  0  0  0  # atno 11005 bound_to 11000
  144.8206  139.5799  143.6989 LP  0  0  0  0  0  0  0  0  0  0  0  0  # atno 17320 bound_to 7965
  146.2625  139.6444  142.9352 LP  0  0  0  0  0  0  0  0  0  0  0  0  # atno 17321 bound_to 7965
  140.0908  143.4880  152.2480 LP  0  0  0  0  0  0  0  0  0  0  0  0  # atno 17342 bound_to 10162
  139.5880  144.7539  151.3472 LP  0  0  0  0  0  0  0  0  0  0  0  0  # atno 17343 bound_to 10162
  155.9691  130.4207  150.4436 LP  0  0  0  0  0  0  0  0  0  0  0  0  # atno 17370 bound_to 10713
  157.2461  131.0536  151.2407 LP  0  0  0  0  0  0  0  0  0  0  0  0  # atno 17371 bound_to 10713
  139.9674  135.0138  156.9422 LP  0  0  0  0  0  0  0  0  0  0  0  0  # atno 17394 bound_to 11000
  140.5371  134.0757  155.7331 LP  0  0  0  0  0  0  0  0  0  0  0  0  # atno 17395 bound_to 11000

$$$$
