AV-unprocessed.smi:438|AV-procd|sdf|2563|dock3
  -GOLD-   2262022533D 1   1.00000     0.00000
 Structure written by MMmdl.
 48 49  0  0  0  0  0  0  0  0  1 V2000
  144.9421  137.0009  154.9824 C   0  0  0  0  0  0  0  0  0  0  0  0
  145.8561  137.6803  153.9781 C   0  0  0  0  0  0  0  0  0  0  0  0
  146.8610  138.4885  154.5239 N   0  0  0  0  0  0  0  0  0  0  0  0
  147.6921  139.1061  153.7466 C   0  0  0  0  0  0  0  0  0  0  0  0
  149.0732  140.2014  154.1816 S   0  0  0  0  0  0  0  0  0  0  0  0
  148.8630  140.3339  155.9793 C   0  0  0  0  0  0  0  0  0  0  0  0
  149.9137  141.2358  156.6217 C   0  0  0  0  0  0  0  0  0  0  0  0
  150.7556  141.7962  155.9202 O   0  0  0  0  0  0  0  0  0  0  0  0
  149.8566  141.3647  157.9562 N   0  0  0  0  0  0  0  0  0  0  0  0
  150.7565  142.1794  158.7698 C   0  0  2  0  0  0  0  0  0  0  0  0
  150.7726  143.6279  158.2361 C   0  0  0  0  0  0  0  0  0  0  0  0
  151.7600  144.5098  159.0135 C   0  0  0  0  0  0  0  0  0  0  0  0
  153.1699  143.9052  158.9937 C   0  0  0  0  0  0  0  0  0  0  0  0
  153.1611  142.4722  159.5460 C   0  0  0  0  0  0  0  0  0  0  0  0
  152.1794  141.5656  158.7763 C   0  0  1  0  0  0  0  0  0  0  0  0
  152.2031  140.1368  159.3491 C   0  0  0  0  0  0  0  0  0  0  0  0
  147.5951  138.9757  152.3606 N   0  0  0  0  0  0  0  0  0  0  0  0
  146.6578  138.2281  151.7362 C   0  0  0  0  0  0  0  0  0  0  0  0
  146.6249  138.1673  150.5082 O   0  0  0  0  0  0  0  0  0  0  0  0
  145.7205  137.5289  152.6309 C   0  0  0  0  0  0  0  0  0  0  0  0
  144.6508  136.6475  151.9921 C   0  0  0  0  0  0  0  0  0  0  0  0
  144.9193  135.1533  152.2229 C   0  0  0  0  0  0  0  0  0  0  0  0
  146.2534  134.8485  151.8798 O   0  0  0  0  0  0  0  0  0  0  0  0
  143.8956  137.1849  154.7385 H   0  0  0  0  0  0  0  0  0  0  0  0
  145.1180  137.3720  155.9928 H   0  0  0  0  0  0  0  0  0  0  0  0
  145.1150  135.9245  154.9847 H   0  0  0  0  0  0  0  0  0  0  0  0
  148.9039  139.3358  156.4181 H   0  0  0  0  0  0  0  0  0  0  0  0
  147.8735  140.7385  156.1943 H   0  0  0  0  0  0  0  0  0  0  0  0
  149.1304  140.8646  158.4479 H   0  0  0  0  0  0  0  0  0  0  0  0
  150.3914  142.1931  159.7988 H   0  0  0  0  0  0  0  0  0  0  0  0
  151.0444  143.6291  157.1796 H   0  0  0  0  0  0  0  0  0  0  0  0
  149.7741  144.0628  158.2966 H   0  0  0  0  0  0  0  0  0  0  0  0
  151.7789  145.5129  158.5864 H   0  0  0  0  0  0  0  0  0  0  0  0
  151.4214  144.6180  160.0448 H   0  0  0  0  0  0  0  0  0  0  0  0
  153.5544  143.9030  157.9730 H   0  0  0  0  0  0  0  0  0  0  0  0
  153.8487  144.5258  159.5793 H   0  0  0  0  0  0  0  0  0  0  0  0
  154.1688  142.0581  159.4946 H   0  0  0  0  0  0  0  0  0  0  0  0
  152.8915  142.4933  160.6029 H   0  0  0  0  0  0  0  0  0  0  0  0
  152.5271  141.5088  157.7434 H   0  0  0  0  0  0  0  0  0  0  0  0
  151.8391  140.1173  160.3769 H   0  0  0  0  0  0  0  0  0  0  0  0
  153.2157  139.7324  159.3483 H   0  0  0  0  0  0  0  0  0  0  0  0
  151.5843  139.4560  158.7644 H   0  0  0  0  0  0  0  0  0  0  0  0
  148.2580  139.4720  151.7828 H   0  0  0  0  0  0  0  0  0  0  0  0
  144.5893  136.8470  150.9225 H   0  0  0  0  0  0  0  0  0  0  0  0
  143.6709  136.9178  152.3888 H   0  0  0  0  0  0  0  0  0  0  0  0
  144.7520  134.8877  153.2671 H   0  0  0  0  0  0  0  0  0  0  0  0
  144.2494  134.5408  151.6184 H   0  0  0  0  0  0  0  0  0  0  0  0
  146.2692  134.5265  150.9915 H   0  0  0  0  0  0  0  0  0  0  0  0
  1 24  1  0  0  0  0
  1 25  1  0  0  0  0
  1 26  1  0  0  0  0
  1  2  1  0  0  0  0
  2 20  2  0  0  0  0
  2  3  1  0  0  0  0
  3  4  2  0  0  0  0
  4  5  1  0  0  0  0
  4 17  1  0  0  0  0
  5  6  1  0  0  0  0
  6  7  1  0  0  0  0
  6 27  1  0  0  0  0
  6 28  1  0  0  0  0
  7  8  2  0  0  0  0
  7  9  1  0  0  0  0
  9 10  1  0  0  0  0
  9 29  1  0  0  0  0
 10 15  1  0  0  0  0
 10 11  1  0  0  0  0
 10 30  1  0  0  0  0
 11 12  1  0  0  0  0
 11 31  1  0  0  0  0
 11 32  1  0  0  0  0
 12 13  1  0  0  0  0
 12 33  1  0  0  0  0
 12 34  1  0  0  0  0
 13 14  1  0  0  0  0
 13 35  1  0  0  0  0
 13 36  1  0  0  0  0
 14 15  1  0  0  0  0
 14 37  1  0  0  0  0
 14 38  1  0  0  0  0
 15 16  1  0  0  0  0
 15 39  1  0  0  0  0
 16 40  1  0  0  0  0
 16 41  1  0  0  0  0
 16 42  1  0  0  0  0
 17 43  1  0  0  0  0
 17 18  1  0  0  0  0
 18 19  2  0  0  0  0
 18 20  1  0  0  0  0
 20 21  1  0  0  0  0
 21 22  1  0  0  0  0
 21 44  1  0  0  0  0
 21 45  1  0  0  0  0
 22 23  1  0  0  0  0
 22 46  1  0  0  0  0
 22 47  1  0  0  0  0
 23 48  1  0  0  0  0
M  END
> <s_m_source_file>
AV-unprocessed.smi

> <i_m_source_file_index>
438

> <i_lp_mmshare_version>
43012

> <i_f3d_flags>
0

> <s_epik_input>
W09IXVtDSDJdW0NIMl1jMWMoW09IXSluYyhuYzFbQ0gzXSlTW0NIMl1DKD1PKVtOSF1bQ0BASF0yW0NIMl1bQ0gyXVtDSDJdW0NIMl1bQ0BIXTJbQ0gzXQ==

> <s_epik_cmdline>
J2VwaWtfcHl0aG9uJywgJy1waCcsICc3LjAnLCAnLXRuJywgJzgnLCAnLW1hJywgJzIwMCcsICctbWV0YWxfYmluZGluZycsICctaW1hZScsICc8aW5maWxlLm1hZT4nLCAnLW9tYWUnLCAnPG91dGZpbGUubWFlPic=

> <r_lp_tautomer_probability>
0.660323

> <r_epik_Ionization_Penalty>
0.00860626

> <r_epik_Ionization_Penalty_Charging>
0.00860522

> <r_epik_Ionization_Penalty_Neutral>
1.04215e-06

> <r_epik_State_Penalty>
0.156825

> <r_epik_Charging_Adjusted_Penalty>
0.16543

> <i_epik_Tot_Q>
0

> <i_epik_Tot_abs_Q>
0

> <r_epik_Metal_State_Penalty>
0.752038

> <b_epik_Metal_Only>
0

> <s_lp_Force_Field>
OPLS_2005

> <r_lp_Energy>
14.035

> <b_lp_Chiralities_Consistent>
1

> <s_lp_Variant>
AV-unprocessed.smi:438-1

> <Gold.Version>
5.8.1

> <Gold.Id.Protein>
6NUR|6NUR_protein|mol2

> <Gold.PLP.Fitness>
40.6045

> <Gold.PLP.PLP>
-35.1197

> <Gold.PLP.part.hbond>
-3.9903

> <Gold.PLP.part.metal>
0.0000

> <Gold.PLP.part.buried>
-2.5365

> <Gold.PLP.part.nonpolar>
-31.2483

> <Gold.PLP.part.repulsive>
2.1176

> <Gold.PLP.ligand.clash>
0.0000

> <Gold.PLP.ligand.torsion>
0.2203

> <Gold.PLP.Chemscore.Hbond>
1.9440

> <Gold.PLP.Chemscore.CHOScore>
0.0000

> <Gold.PLP.Chemscore.Metal>
0.0000

> <Gold.Chemscore.Hbonds>
donor molecule, donor type, donor heavy atom, donor atom, acceptor molecule, acceptor atom, score
      L1  H    17    43       P1  7957  1.00
      P1  H  7954  7966       L1    19  0.91

> <Gold.PLP.Chemscore.Internal.Correction>
0.0935

> <Gold.Rescore>
     Score         DG    S(hbond)    S(metal)    S(lipo)     H(rot)  DE(clash)    DE(int)     intcor
     12.91     -15.77       1.93        0.00      95.60       2.86       1.57       1.28       ----

> <Gold.Chemscore.Fitness>
12.9133

> <Gold.Chemscore.DG>
-15.7659

> <Gold.Chemscore.ZeroCoef>
-5.4800

> <Gold.Chemscore.Hbond>
1.9262

> <Gold.Chemscore.Metal>
0.0000

> <Gold.Chemscore.Lipo>
95.6032

> <Gold.Chemscore.Internal_Hbond>
0.0000

> <Gold.Chemscore.DEClash>
1.5680

> <Gold.Chemscore.DEInternal>
1.2846

> <Gold.Chemscore.Rot>
2.8645

> <Gold.Chemscore.Internal.Correction>
   9.000000E+99

> <Gold.Chemscore.Hbonds>
donor molecule, donor type, donor heavy atom, donor atom, acceptor molecule, acceptor atom, score
      L1  H    17    43       P1  7957  0.96
      P1  H  7954  7966       L1    19  0.70

> <Gold.Chemscore.Hbond.Weighted>
-6.4334

> <Gold.Chemscore.Metal.Weighted>
-0.0000

> <Gold.Chemscore.Lipo.Weighted>
-11.1856

> <Gold.Chemscore.Internal_Hbond.Weighted>
0.0000

> <Gold.Chemscore.DEClash.Weighted>
1.5680

> <Gold.Chemscore.DEInternal.Weighted>
1.2846

> <Gold.Chemscore.Rot.Weighted>
7.3331

> <Gold.Chemscore.Internal.Correction.Weighted>
   9.000000E+99

> <Gold.Protein.RotatedTorsions>
[ 6907 6896 6895 6894 ] final   51.28 input  -60.11 | X-H torsion
[ 7974 7965 7964 7962 ] final  166.75 input  175.53 | X-H torsion
[ 8008 7997 7996 7995 ] final   33.15 input   59.86 | X-H torsion
[ 10167 10162 10161 10158 ] final  152.20 input  -65.29 | X-H torsion
[ 10718 10713 10712 10709 ] final -113.23 input   66.30 | X-H torsion
[ 10763 10752 10751 10750 ] final -164.03 input  -60.55 | X-H torsion
[ 11005 11000 10999 10996 ] final -121.02 input  -57.11 | X-H torsion

> <Gold.Protein.ActiveResidues>
 VAL166  LYS551  ARG553  GLY616  TRP617  ASP618  TYR619  PRO620  LYS621  CYS622 
 ASP623  PHE694  ASN695  SER759  ASP760  ASP761  ALA762  ILE779  LEU786  VAL792 
 PHE793  MET794  SER795  GLU796  ALA797  LYS798  CYS799  TRP800  GLU811  SER814 

> <Gold.Protein.RotatedAtoms>
  152.3109  134.7498  160.0336 H   0  0  0  0  0  0  0  0  0  0  0  0  # atno 6907 bound_to 6896
  151.7979  133.3361  159.3526 H   0  0  0  0  0  0  0  0  0  0  0  0  # atno 6908 bound_to 6896
  150.7320  134.5712  159.5935 H   0  0  0  0  0  0  0  0  0  0  0  0  # atno 6909 bound_to 6896
  144.7450  139.8660  143.6385 H   0  0  0  0  0  0  0  0  0  0  0  0  # atno 7974 bound_to 7965
  155.1339  140.3260  155.4467 H   0  0  0  0  0  0  0  0  0  0  0  0  # atno 8008 bound_to 7997
  156.2626  140.2005  156.6407 H   0  0  0  0  0  0  0  0  0  0  0  0  # atno 8009 bound_to 7997
  154.6592  140.0549  157.0029 H   0  0  0  0  0  0  0  0  0  0  0  0  # atno 8010 bound_to 7997
  139.4834  144.5378  151.7616 H   0  0  0  0  0  0  0  0  0  0  0  0  # atno 10167 bound_to 10162
  156.0753  130.5962  150.8614 H   0  0  0  0  0  0  0  0  0  0  0  0  # atno 10718 bound_to 10713
  154.7067  135.2998  154.9260 H   0  0  0  0  0  0  0  0  0  0  0  0  # atno 10763 bound_to 10752
  154.0175  135.6687  153.4774 H   0  0  0  0  0  0  0  0  0  0  0  0  # atno 10764 bound_to 10752
  153.0722  135.5054  154.8241 H   0  0  0  0  0  0  0  0  0  0  0  0  # atno 10765 bound_to 10752
  141.0101  134.0277  157.3425 H   0  0  0  0  0  0  0  0  0  0  0  0  # atno 11005 bound_to 11000
  146.1314  139.4350  143.0166 LP  0  0  0  0  0  0  0  0  0  0  0  0  # atno 17320 bound_to 7965
  145.7157  141.0091  143.1429 LP  0  0  0  0  0  0  0  0  0  0  0  0  # atno 17321 bound_to 7965
  140.4913  144.1306  150.5951 LP  0  0  0  0  0  0  0  0  0  0  0  0  # atno 17342 bound_to 10162
  140.4168  143.2630  151.9765 LP  0  0  0  0  0  0  0  0  0  0  0  0  # atno 17343 bound_to 10162
  157.5846  131.0946  150.9217 LP  0  0  0  0  0  0  0  0  0  0  0  0  # atno 17370 bound_to 10713
  156.9405  130.5383  149.5280 LP  0  0  0  0  0  0  0  0  0  0  0  0  # atno 17371 bound_to 10713
  139.9085  135.0185  156.7590 LP  0  0  0  0  0  0  0  0  0  0  0  0  # atno 17394 bound_to 11000
  140.6748  133.9527  155.7877 LP  0  0  0  0  0  0  0  0  0  0  0  0  # atno 17395 bound_to 11000

$$$$
