AV-unprocessed.smi:1589|AV-procd|sdf|6393|dock8
  -GOLD-   22720 7 33D 1   1.00000     0.00000
 Structure written by MMmdl.
 44 45  0  0  0  0  0  0  0  0  2 V2000
  148.7170  141.7023  156.6416 C   0  0  0  0  0  0  0  0  0  0  0  0
  149.8676  140.8242  157.1775 C   0  0  0  0  0  0  0  0  0  0  0  0
  150.8496  141.7229  157.9575 C   0  0  0  0  0  0  0  0  0  0  0  0
  150.5516  140.0427  156.0962 N   0  3  0  0  0  0  0  0  0  0  0  0
  149.6036  139.3299  155.1854 C   0  0  0  0  0  0  0  0  0  0  0  0
  150.3283  138.4850  154.1218 C   0  0  0  0  0  0  0  0  0  0  0  0
  151.2418  137.5571  154.7963 N   0  0  0  0  0  0  0  0  0  0  0  0
  151.0368  136.2314  155.0029 C   0  0  0  0  0  0  0  0  0  0  0  0
  151.6786  135.5836  155.8299 O   0  0  0  0  0  0  0  0  0  0  0  0
  150.1119  135.6824  154.1927 N   0  0  0  0  0  0  0  0  0  0  0  0
  149.6445  134.3443  154.1950 C   0  0  0  0  0  0  0  0  0  0  0  0
  148.5246  133.7761  153.5244 C   0  0  0  0  0  0  0  0  0  0  0  0
  148.4250  132.4806  153.7804 N   0  0  0  0  0  0  0  0  0  0  0  0
  149.4664  132.2003  154.6033 N   0  0  0  0  0  0  0  0  0  0  0  0
  149.6608  130.8412  155.0821 C   0  0  0  0  0  0  0  0  0  0  0  0
  149.8412  129.8391  153.9356 C   0  0  0  0  0  0  0  0  0  0  0  0
  151.0157  129.2070  153.8698 N   0  0  0  0  0  0  0  0  0  0  0  0
  148.9424  129.6296  153.1224 O   0  0  0  0  0  0  0  0  0  0  0  0
  150.2265  133.3203  154.8796 C   0  0  0  0  0  0  0  0  0  0  0  0
  152.2817  138.3044  155.5024 C   0  0  0  0  0  0  0  0  0  0  0  0
  151.6271  139.1427  156.6150 C   0  0  0  0  0  0  0  0  0  0  0  0
  148.3091  142.3377  157.4283 H   0  0  0  0  0  0  0  0  0  0  0  0
  147.8811  141.1080  156.2727 H   0  0  0  0  0  0  0  0  0  0  0  0
  149.0552  142.3554  155.8362 H   0  0  0  0  0  0  0  0  0  0  0  0
  149.4355  140.1119  157.8822 H   0  0  0  0  0  0  0  0  0  0  0  0
  150.3201  142.3613  158.6654 H   0  0  0  0  0  0  0  0  0  0  0  0
  151.4114  142.3739  157.2866 H   0  0  0  0  0  0  0  0  0  0  0  0
  151.5610  141.1458  158.5478 H   0  0  0  0  0  0  0  0  0  0  0  0
  148.9459  138.6908  155.7770 H   0  0  0  0  0  0  0  0  0  0  0  0
  148.9711  140.0436  154.6596 H   0  0  0  0  0  0  0  0  0  0  0  0
  149.5965  137.9962  153.4785 H   0  0  0  0  0  0  0  0  0  0  0  0
  150.9027  139.1342  153.4592 H   0  0  0  0  0  0  0  0  0  0  0  0
  149.6725  136.2993  153.5254 H   0  0  0  0  0  0  0  0  0  0  0  0
  147.7943  134.2371  152.8766 H   0  0  0  0  0  0  0  0  0  0  0  0
  150.5366  130.8295  155.7323 H   0  0  0  0  0  0  0  0  0  0  0  0
  148.8045  130.5424  155.6888 H   0  0  0  0  0  0  0  0  0  0  0  0
  151.1909  128.5387  153.1335 H   0  0  0  0  0  0  0  0  0  0  0  0
  151.7279  129.4038  154.5583 H   0  0  0  0  0  0  0  0  0  0  0  0
  151.0964  133.2871  155.5190 H   0  0  0  0  0  0  0  0  0  0  0  0
  153.0511  137.6562  155.9247 H   0  0  0  0  0  0  0  0  0  0  0  0
  152.8036  138.9549  154.7988 H   0  0  0  0  0  0  0  0  0  0  0  0
  152.4133  139.7231  157.0952 H   0  0  0  0  0  0  0  0  0  0  0  0
  151.2083  138.4801  157.3744 H   0  0  0  0  0  0  0  0  0  0  0  0
  151.0225  140.7214  155.5152 H   0  0  0  0  0  0  0  0  0  0  0  0
  1  2  1  0  0  0  0
  1 22  1  0  0  0  0
  1 23  1  0  0  0  0
  1 24  1  0  0  0  0
  2  3  1  0  0  0  0
  2  4  1  0  0  0  0
  2 25  1  0  0  0  0
  3 26  1  0  0  0  0
  3 27  1  0  0  0  0
  3 28  1  0  0  0  0
  4 21  1  0  0  0  0
  4  5  1  0  0  0  0
  4 44  1  0  0  0  0
  5  6  1  0  0  0  0
  5 29  1  0  0  0  0
  5 30  1  0  0  0  0
  6  7  1  0  0  0  0
  6 31  1  0  0  0  0
  6 32  1  0  0  0  0
  7  8  1  0  0  0  0
  7 20  1  0  0  0  0
  8  9  2  0  0  0  0
  8 10  1  0  0  0  0
 10 11  1  0  0  0  0
 10 33  1  0  0  0  0
 11 19  2  0  0  0  0
 11 12  1  0  0  0  0
 12 13  2  0  0  0  0
 12 34  1  0  0  0  0
 13 14  1  0  0  0  0
 14 15  1  0  0  0  0
 14 19  1  0  0  0  0
 15 16  1  0  0  0  0
 15 35  1  0  0  0  0
 15 36  1  0  0  0  0
 16 17  1  0  0  0  0
 16 18  2  0  0  0  0
 17 37  1  0  0  0  0
 17 38  1  0  0  0  0
 19 39  1  0  0  0  0
 20 21  1  0  0  0  0
 20 40  1  0  0  0  0
 20 41  1  0  0  0  0
 21 42  1  0  0  0  0
 21 43  1  0  0  0  0
M  CHG  1   4   1
M  END
> <s_m_source_file>
AV-unprocessed.smi

> <i_m_source_file_index>
1589

> <i_lp_mmshare_version>
43012

> <i_f3d_flags>
0

> <s_epik_input>
W0NIM11bQ0hdKFtDSDNdKU4xW0NIMl1bQ0gyXU4oW0NIMl1bQ0gyXTEpQyg9TylbTkhdYzJbY0hdbm4oW2NIXTIpW0NIMl1DKD1PKVtOSDJd

> <s_epik_cmdline>
J2VwaWtfcHl0aG9uJywgJy1waCcsICc3LjAnLCAnLXRuJywgJzgnLCAnLW1hJywgJzIwMCcsICctbWV0YWxfYmluZGluZycsICctaW1hZScsICc8aW5maWxlLm1hZT4nLCAnLW9tYWUnLCAnPG91dGZpbGUubWFlPic=

> <r_lp_tautomer_probability>
1

> <r_epik_Ionization_Penalty>
0.241469

> <r_epik_Ionization_Penalty_Charging>
0.241445

> <r_epik_Ionization_Penalty_Neutral>
2.46507e-05

> <r_epik_State_Penalty>
0.232445

> <r_epik_Charging_Adjusted_Penalty>
0.47389

> <i_epik_Tot_Q>
1

> <i_epik_Tot_abs_Q>
1

> <r_epik_Metal_State_Penalty>
0.232446

> <b_epik_Metal_Only>
0

> <s_lp_Force_Field>
OPLS_2005

> <r_lp_Energy>
56.898

> <b_lp_Chiralities_Consistent>
1

> <s_lp_Variant>
AV-unprocessed.smi:1589-1

> <Gold.Version>
5.8.1

> <Gold.Id.Protein>
6NUR|6NUR_protein|mol2

> <Gold.PLP.Fitness>
40.5801

> <Gold.PLP.PLP>
-30.9432

> <Gold.PLP.part.hbond>
-4.0000

> <Gold.PLP.part.metal>
0.0000

> <Gold.PLP.part.buried>
-0.2055

> <Gold.PLP.part.nonpolar>
-26.0983

> <Gold.PLP.part.repulsive>
0.4547

> <Gold.PLP.ligand.clash>
0.0000

> <Gold.PLP.ligand.torsion>
0.1845

> <Gold.PLP.Chemscore.Hbond>
2.8873

> <Gold.PLP.Chemscore.CHOScore>
0.4070

> <Gold.PLP.Chemscore.Metal>
0.0000

> <Gold.Chemscore.Hbonds>
donor molecule, donor type, donor heavy atom, donor atom, acceptor molecule, acceptor atom, score
      L1  H    10    33       P1  7948  0.77
      L1  H    17    37       P1 10737  1.00
      P1  H 10752 10763       L1     9  1.00
      L1  C    12    34       P1  7948  0.51

> <Gold.PLP.Chemscore.Internal.Correction>
0.1231

> <Gold.Rescore>
     Score         DG    S(hbond)    S(metal)    S(lipo)     H(rot)  DE(clash)    DE(int)     intcor
     13.18     -15.10       2.19        0.00      60.03       1.84       0.35       1.57       ----

> <Gold.Chemscore.Fitness>
13.1764

> <Gold.Chemscore.DG>
-15.0995

> <Gold.Chemscore.ZeroCoef>
-5.4800

> <Gold.Chemscore.Hbond>
2.1870

> <Gold.Chemscore.Metal>
0.0000

> <Gold.Chemscore.Lipo>
60.0274

> <Gold.Chemscore.Internal_Hbond>
0.0000

> <Gold.Chemscore.DEClash>
0.3507

> <Gold.Chemscore.DEInternal>
1.5724

> <Gold.Chemscore.Rot>
1.8392

> <Gold.Chemscore.Internal.Correction>
   9.000000E+99

> <Gold.Chemscore.Hbonds>
donor molecule, donor type, donor heavy atom, donor atom, acceptor molecule, acceptor atom, score
      L1  H    10    33       P1  7948  0.26
      L1  H    17    37       P1 10737  0.95
      P1  H 10752 10763       L1     9  0.43

> <Gold.Chemscore.Hbond.Weighted>
-7.3046

> <Gold.Chemscore.Metal.Weighted>
-0.0000

> <Gold.Chemscore.Lipo.Weighted>
-7.0232

> <Gold.Chemscore.Internal_Hbond.Weighted>
0.0000

> <Gold.Chemscore.DEClash.Weighted>
0.3507

> <Gold.Chemscore.DEInternal.Weighted>
1.5724

> <Gold.Chemscore.Rot.Weighted>
4.7083

> <Gold.Chemscore.Internal.Correction.Weighted>
   9.000000E+99

> <Gold.Protein.RotatedTorsions>
[ 6907 6896 6895 6894 ] final  112.65 input  -60.11 | X-H torsion
[ 7974 7965 7964 7962 ] final   26.48 input  175.53 | X-H torsion
[ 8008 7997 7996 7995 ] final  149.00 input   59.86 | X-H torsion
[ 10167 10162 10161 10158 ] final -128.09 input  -65.29 | X-H torsion
[ 10718 10713 10712 10709 ] final   90.05 input   66.30 | X-H torsion
[ 10763 10752 10751 10750 ] final   97.98 input  -60.55 | X-H torsion
[ 11005 11000 10999 10996 ] final  174.26 input  -57.11 | X-H torsion

> <Gold.Protein.ActiveResidues>
 VAL166  LYS551  ARG553  GLY616  TRP617  ASP618  TYR619  PRO620  LYS621  CYS622 
 ASP623  PHE694  ASN695  SER759  ASP760  ASP761  ALA762  ILE779  LEU786  VAL792 
 PHE793  MET794  SER795  GLU796  ALA797  LYS798  CYS799  TRP800  GLU811  SER814 

> <Gold.Protein.RotatedAtoms>
  152.4905  133.8486  159.7189 H   0  0  0  0  0  0  0  0  0  0  0  0  # atno 6907 bound_to 6896
  150.9030  133.7085  159.2881 H   0  0  0  0  0  0  0  0  0  0  0  0  # atno 6908 bound_to 6896
  151.4520  135.1035  159.9753 H   0  0  0  0  0  0  0  0  0  0  0  0  # atno 6909 bound_to 6896
  146.1835  139.7322  142.8883 H   0  0  0  0  0  0  0  0  0  0  0  0  # atno 7974 bound_to 7965
  156.2771  140.2113  156.5788 H   0  0  0  0  0  0  0  0  0  0  0  0  # atno 8008 bound_to 7997
  154.7076  140.0515  157.0542 H   0  0  0  0  0  0  0  0  0  0  0  0  # atno 8009 bound_to 7997
  155.0650  140.3170  155.4651 H   0  0  0  0  0  0  0  0  0  0  0  0  # atno 8010 bound_to 7997
  139.9540  143.6024  152.2466 H   0  0  0  0  0  0  0  0  0  0  0  0  # atno 10167 bound_to 10162
  157.6958  131.0356  150.3519 H   0  0  0  0  0  0  0  0  0  0  0  0  # atno 10718 bound_to 10713
  153.2835  135.4164  155.1101 H   0  0  0  0  0  0  0  0  0  0  0  0  # atno 10763 bound_to 10752
  154.8497  135.3501  154.6079 H   0  0  0  0  0  0  0  0  0  0  0  0  # atno 10764 bound_to 10752
  153.6500  135.7053  153.5270 H   0  0  0  0  0  0  0  0  0  0  0  0  # atno 10765 bound_to 10752
  140.3494  134.7208  157.4257 H   0  0  0  0  0  0  0  0  0  0  0  0  # atno 11005 bound_to 11000
  145.4007  141.0384  143.3072 LP  0  0  0  0  0  0  0  0  0  0  0  0  # atno 17320 bound_to 7965
  144.8356  139.5555  143.6924 LP  0  0  0  0  0  0  0  0  0  0  0  0  # atno 17321 bound_to 7965
  139.6606  144.7662  151.1970 LP  0  0  0  0  0  0  0  0  0  0  0  0  # atno 17342 bound_to 10162
  140.7574  143.6016  150.8694 LP  0  0  0  0  0  0  0  0  0  0  0  0  # atno 17343 bound_to 10162
  156.3966  130.3908  149.6990 LP  0  0  0  0  0  0  0  0  0  0  0  0  # atno 17370 bound_to 10713
  156.4322  130.7820  151.2840 LP  0  0  0  0  0  0  0  0  0  0  0  0  # atno 17371 bound_to 10713
  140.0715  134.5856  155.8637 LP  0  0  0  0  0  0  0  0  0  0  0  0  # atno 17394 bound_to 11000
  141.2016  133.6620  156.5961 LP  0  0  0  0  0  0  0  0  0  0  0  0  # atno 17395 bound_to 11000

$$$$
