AV-unprocessed.smi:2782|AV-procd|sdf|10722|dock9
  -GOLD-   2272015163D 1   1.00000     0.00000
 Structure written by MMmdl.
 38 39  0  0  0  0  0  0  0  0  1 V2000
  150.3602  144.2853  158.7859 C   0  0  0  0  0  0  0  0  0  0  0  0
  151.3405  143.1692  159.0832 C   0  0  0  0  0  0  0  0  0  0  0  0
  152.1803  143.2558  160.2102 C   0  0  0  0  0  0  0  0  0  0  0  0
  153.0861  142.2175  160.4921 C   0  0  0  0  0  0  0  0  0  0  0  0
  153.1582  141.0925  159.6484 C   0  0  0  0  0  0  0  0  0  0  0  0
  154.2743  139.8291  160.0242 Cl  0  0  0  0  0  0  0  0  0  0  0  0
  152.3290  140.9942  158.5089 C   0  0  0  0  0  0  0  0  0  0  0  0
  152.4668  139.8707  157.7213 O   0  0  0  0  0  0  0  0  0  0  0  0
  151.3326  139.3923  157.0094 C   0  0  0  0  0  0  0  0  0  0  0  0
  151.4625  139.7903  155.5277 C   0  0  1  0  0  0  0  0  0  0  0  0
  152.8292  139.7446  155.1719 O   0  0  0  0  0  0  0  0  0  0  0  0
  150.6840  138.8700  154.5591 C   0  0  0  0  0  0  0  0  0  0  0  0
  149.2761  139.2572  154.4072 N   0  0  0  0  0  0  0  0  0  0  0  0
  148.3822  138.2057  154.5274 N   0  0  0  0  0  0  0  0  0  0  0  0
  147.1075  138.4016  154.4450 C   0  0  0  0  0  0  0  0  0  0  0  0
  146.2105  137.2140  154.6263 C   0  0  0  0  0  0  0  0  0  0  0  0
  146.6056  139.7385  154.1917 C   0  0  0  0  0  0  0  0  0  0  0  0
  147.4793  140.7612  154.0728 C   0  0  0  0  0  0  0  0  0  0  0  0
  148.9215  140.5575  154.1904 C   0  0  0  0  0  0  0  0  0  0  0  0
  149.7416  141.4712  154.1055 O   0  0  0  0  0  0  0  0  0  0  0  0
  151.4119  142.0418  158.2389 C   0  0  0  0  0  0  0  0  0  0  0  0
  150.8199  145.2574  158.9666 H   0  0  0  0  0  0  0  0  0  0  0  0
  149.4826  144.1953  159.4264 H   0  0  0  0  0  0  0  0  0  0  0  0
  150.0312  144.2559  157.7467 H   0  0  0  0  0  0  0  0  0  0  0  0
  152.1298  144.1155  160.8623 H   0  0  0  0  0  0  0  0  0  0  0  0
  153.7267  142.2844  161.3594 H   0  0  0  0  0  0  0  0  0  0  0  0
  151.3018  138.3057  157.1084 H   0  0  0  0  0  0  0  0  0  0  0  0
  150.4013  139.7941  157.4118 H   0  0  0  0  0  0  0  0  0  0  0  0
  151.1399  140.8246  155.4027 H   0  0  0  0  0  0  0  0  0  0  0  0
  152.9801  138.9683  154.6549 H   0  0  0  0  0  0  0  0  0  0  0  0
  151.1689  138.8663  153.5810 H   0  0  0  0  0  0  0  0  0  0  0  0
  150.7442  137.8375  154.9091 H   0  0  0  0  0  0  0  0  0  0  0  0
  146.3703  136.4819  153.8342 H   0  0  0  0  0  0  0  0  0  0  0  0
  145.1604  137.5064  154.6067 H   0  0  0  0  0  0  0  0  0  0  0  0
  146.4021  136.7268  155.5832 H   0  0  0  0  0  0  0  0  0  0  0  0
  145.5422  139.9064  154.1052 H   0  0  0  0  0  0  0  0  0  0  0  0
  147.1042  141.7571  153.8883 H   0  0  0  0  0  0  0  0  0  0  0  0
  150.7494  141.9997  157.3879 H   0  0  0  0  0  0  0  0  0  0  0  0
  1  2  1  0  0  0  0
  1 22  1  0  0  0  0
  1 23  1  0  0  0  0
  1 24  1  0  0  0  0
  2 21  1  0  0  0  0
  2  3  2  0  0  0  0
  3  4  1  0  0  0  0
  3 25  1  0  0  0  0
  4  5  2  0  0  0  0
  4 26  1  0  0  0  0
  5  6  1  0  0  0  0
  5  7  1  0  0  0  0
  7  8  1  0  0  0  0
  7 21  2  0  0  0  0
  8  9  1  0  0  0  0
  9 10  1  0  0  0  0
  9 27  1  0  0  0  0
  9 28  1  0  0  0  0
 10 11  1  0  0  0  0
 10 12  1  0  0  0  0
 10 29  1  0  0  0  0
 11 30  1  0  0  0  0
 12 13  1  0  0  0  0
 12 31  1  0  0  0  0
 12 32  1  0  0  0  0
 13 19  1  0  0  0  0
 13 14  1  0  0  0  0
 14 15  2  0  0  0  0
 15 16  1  0  0  0  0
 15 17  1  0  0  0  0
 16 33  1  0  0  0  0
 16 34  1  0  0  0  0
 16 35  1  0  0  0  0
 17 18  2  0  0  0  0
 17 36  1  0  0  0  0
 18 19  1  0  0  0  0
 18 37  1  0  0  0  0
 19 20  2  0  0  0  0
 21 38  1  0  0  0  0
M  END
> <s_m_source_file>
AV-unprocessed.smi

> <i_m_source_file_index>
2782

> <i_lp_mmshare_version>
43012

> <i_f3d_flags>
0

> <s_epik_input>
W0NIM11jMVtjSF1bY0hdYyhDbCljKFtjSF0xKU9bQ0gyXVtDQEhdKFtPSF0pW0NIMl1uMm5jKFtDSDNdKVtjSF1bY0hdYzI9Tw==

> <s_epik_cmdline>
J2VwaWtfcHl0aG9uJywgJy1waCcsICc3LjAnLCAnLXRuJywgJzgnLCAnLW1hJywgJzIwMCcsICctbWV0YWxfYmluZGluZycsICctaW1hZScsICc8aW5maWxlLm1hZT4nLCAnLW9tYWUnLCAnPG91dGZpbGUubWFlPic=

> <r_lp_tautomer_probability>
1

> <r_epik_Ionization_Penalty>
2.96353e-07

> <r_epik_Ionization_Penalty_Charging>
1.79179e-07

> <r_epik_Ionization_Penalty_Neutral>
1.17174e-07

> <r_epik_State_Penalty>
-0

> <r_epik_Charging_Adjusted_Penalty>
1.79179e-07

> <i_epik_Tot_Q>
0

> <i_epik_Tot_abs_Q>
0

> <r_epik_Metal_State_Penalty>
-0

> <b_epik_Metal_Only>
0

> <s_lp_Force_Field>
OPLS_2005

> <r_lp_Energy>
25.2407

> <b_lp_Chiralities_Consistent>
1

> <s_lp_Variant>
AV-unprocessed.smi:2782-2

> <Gold.Version>
5.8.1

> <Gold.Id.Protein>
6NUR|6NUR_protein|mol2

> <Gold.PLP.Fitness>
42.3230

> <Gold.PLP.PLP>
-39.1919

> <Gold.PLP.part.hbond>
-5.0000

> <Gold.PLP.part.metal>
0.0000

> <Gold.PLP.part.buried>
-3.3015

> <Gold.PLP.part.nonpolar>
-31.6954

> <Gold.PLP.part.repulsive>
0.3236

> <Gold.PLP.ligand.clash>
0.0000

> <Gold.PLP.ligand.torsion>
1.3875

> <Gold.PLP.Chemscore.Hbond>
1.9528

> <Gold.PLP.Chemscore.CHOScore>
0.0000

> <Gold.PLP.Chemscore.Metal>
0.0000

> <Gold.Chemscore.Hbonds>
donor molecule, donor type, donor heavy atom, donor atom, acceptor molecule, acceptor atom, score
      P1  H  7989  7998       L1    20  0.25
      P1  H  7997  8008       L1    11  1.00
      P1  H  8011  8017       L1    20  0.62

> <Gold.PLP.Chemscore.Internal.Correction>
0.0477

> <Gold.Rescore>
     Score         DG    S(hbond)    S(metal)    S(lipo)     H(rot)  DE(clash)    DE(int)     intcor
     16.14     -19.27       2.07        0.00     107.44       2.22       0.48       2.66       ----

> <Gold.Chemscore.Fitness>
16.1354

> <Gold.Chemscore.DG>
-19.2738

> <Gold.Chemscore.ZeroCoef>
-5.4800

> <Gold.Chemscore.Hbond>
2.0679

> <Gold.Chemscore.Metal>
0.0000

> <Gold.Chemscore.Lipo>
107.4357

> <Gold.Chemscore.Internal_Hbond>
0.0000

> <Gold.Chemscore.DEClash>
0.4811

> <Gold.Chemscore.DEInternal>
2.6573

> <Gold.Chemscore.Rot>
2.2199

> <Gold.Chemscore.Internal.Correction>
   9.000000E+99

> <Gold.Chemscore.Hbonds>
donor molecule, donor type, donor heavy atom, donor atom, acceptor molecule, acceptor atom, score
      P1  H  7989  7998       L1    20  0.22
      P1  H  7997  8008       L1    11  0.45
      P1  H  8011  8017       L1    20  0.57

> <Gold.Chemscore.Hbond.Weighted>
-6.9067

> <Gold.Chemscore.Metal.Weighted>
-0.0000

> <Gold.Chemscore.Lipo.Weighted>
-12.5700

> <Gold.Chemscore.Internal_Hbond.Weighted>
0.0000

> <Gold.Chemscore.DEClash.Weighted>
0.4811

> <Gold.Chemscore.DEInternal.Weighted>
2.6573

> <Gold.Chemscore.Rot.Weighted>
5.6829

> <Gold.Chemscore.Internal.Correction.Weighted>
   9.000000E+99

> <Gold.Protein.RotatedTorsions>
[ 6907 6896 6895 6894 ] final   -3.16 input  -60.11 | X-H torsion
[ 7974 7965 7964 7962 ] final  -50.27 input  175.53 | X-H torsion
[ 8008 7997 7996 7995 ] final   -7.68 input   59.86 | X-H torsion
[ 10167 10162 10161 10158 ] final  124.71 input  -65.29 | X-H torsion
[ 10718 10713 10712 10709 ] final  178.53 input   66.30 | X-H torsion
[ 10763 10752 10751 10750 ] final   35.31 input  -60.55 | X-H torsion
[ 11005 11000 10999 10996 ] final   55.95 input  -57.11 | X-H torsion

> <Gold.Protein.ActiveResidues>
 VAL166  LYS551  ARG553  GLY616  TRP617  ASP618  TYR619  PRO620  LYS621  CYS622 
 ASP623  PHE694  ASN695  SER759  ASP760  ASP761  ALA762  ILE779  LEU786  VAL792 
 PHE793  MET794  SER795  GLU796  ALA797  LYS798  CYS799  TRP800  GLU811  SER814 

> <Gold.Protein.RotatedAtoms>
  151.5183  135.1066  159.9871 H   0  0  0  0  0  0  0  0  0  0  0  0  # atno 6907 bound_to 6896
  152.4632  133.7862  159.6888 H   0  0  0  0  0  0  0  0  0  0  0  0  # atno 6908 bound_to 6896
  150.8603  133.7589  159.3020 H   0  0  0  0  0  0  0  0  0  0  0  0  # atno 6909 bound_to 6896
  145.9316  140.7744  142.9597 H   0  0  0  0  0  0  0  0  0  0  0  0  # atno 7974 bound_to 7965
  154.5815  140.2401  155.8048 H   0  0  0  0  0  0  0  0  0  0  0  0  # atno 8008 bound_to 7997
  156.2182  140.3006  155.9846 H   0  0  0  0  0  0  0  0  0  0  0  0  # atno 8009 bound_to 7997
  155.2533  140.0411  157.2979 H   0  0  0  0  0  0  0  0  0  0  0  0  # atno 8010 bound_to 7997
  139.5726  144.6947  151.3737 H   0  0  0  0  0  0  0  0  0  0  0  0  # atno 10167 bound_to 10162
  156.8892  130.9842  151.3052 H   0  0  0  0  0  0  0  0  0  0  0  0  # atno 10718 bound_to 10713
  153.0125  135.6337  154.1807 H   0  0  0  0  0  0  0  0  0  0  0  0  # atno 10763 bound_to 10752
  154.1548  135.2827  155.3127 H   0  0  0  0  0  0  0  0  0  0  0  0  # atno 10764 bound_to 10752
  154.6026  135.5582  153.7451 H   0  0  0  0  0  0  0  0  0  0  0  0  # atno 10765 bound_to 10752
  140.0567  134.5661  155.9200 H   0  0  0  0  0  0  0  0  0  0  0  0  # atno 11005 bound_to 11000
  144.6765  140.2136  143.7374 LP  0  0  0  0  0  0  0  0  0  0  0  0  # atno 17320 bound_to 7965
  145.8419  139.2134  143.1823 LP  0  0  0  0  0  0  0  0  0  0  0  0  # atno 17321 bound_to 7965
  140.7010  143.7631  150.7403 LP  0  0  0  0  0  0  0  0  0  0  0  0  # atno 17342 bound_to 10162
  140.1142  143.4671  152.2352 LP  0  0  0  0  0  0  0  0  0  0  0  0  # atno 17343 bound_to 10162
  157.6094  130.8571  149.8927 LP  0  0  0  0  0  0  0  0  0  0  0  0  # atno 17370 bound_to 10713
  156.0637  130.3695  150.0924 LP  0  0  0  0  0  0  0  0  0  0  0  0  # atno 17371 bound_to 10713
  141.1955  133.6587  156.5645 LP  0  0  0  0  0  0  0  0  0  0  0  0  # atno 17394 bound_to 11000
  140.3834  134.7504  157.4675 LP  0  0  0  0  0  0  0  0  0  0  0  0  # atno 17395 bound_to 11000

$$$$
