AV-unprocessed.smi:1994|AV-procd|sdf|8075|dock7
  -GOLD-   2272010283D 1   1.00000     0.00000
 Structure written by MMmdl.
 40 42  0  0  0  0  0  0  0  0  2 V2000
  146.9768  140.4299  156.8776 C   0  0  0  0  0  0  0  0  0  0  0  0
  146.2494  141.5187  156.1626 C   0  0  0  0  0  0  0  0  0  0  0  0
  145.2266  142.2653  156.6673 N   0  3  0  0  0  0  0  0  0  0  0  0
  144.7929  143.1822  155.7083 C   0  0  0  0  0  0  0  0  0  0  0  0
  143.7886  144.1443  155.7544 C   0  0  0  0  0  0  0  0  0  0  0  0
  143.6026  144.9210  154.5916 C   0  0  0  0  0  0  0  0  0  0  0  0
  144.3978  144.7267  153.4434 C   0  0  0  0  0  0  0  0  0  0  0  0
  145.4126  143.7473  153.4082 C   0  0  0  0  0  0  0  0  0  0  0  0
  145.5903  142.9855  154.5625 C   0  0  0  0  0  0  0  0  0  0  0  0
  146.4762  141.9534  154.8900 N   0  0  0  0  0  0  0  0  0  0  0  0
  147.4531  141.5028  153.8873 C   0  0  0  0  0  0  0  0  0  0  0  0
  148.7870  141.0421  154.5096 C   0  0  1  0  0  0  0  0  0  0  0  0
  149.7724  140.9331  153.5022 O   0  0  0  0  0  0  0  0  0  0  0  0
  149.2924  142.0103  155.5881 C   0  0  0  0  0  0  0  0  0  0  0  0
  150.2250  141.3248  156.4129 O   0  0  0  0  0  0  0  0  0  0  0  0
  150.9694  142.0597  157.3108 C   0  0  0  0  0  0  0  0  0  0  0  0
  151.0312  143.4766  157.3207 C   0  0  0  0  0  0  0  0  0  0  0  0
  151.8182  144.1496  158.2755 C   0  0  0  0  0  0  0  0  0  0  0  0
  152.5517  143.4192  159.2285 C   0  0  0  0  0  0  0  0  0  0  0  0
  152.4975  142.0133  159.2254 C   0  0  0  0  0  0  0  0  0  0  0  0
  151.7108  141.3391  158.2716 C   0  0  0  0  0  0  0  0  0  0  0  0
  151.6656  139.9853  158.2805 F   0  0  0  0  0  0  0  0  0  0  0  0
  146.6747  140.3902  157.9244 H   0  0  0  0  0  0  0  0  0  0  0  0
  148.0526  140.6012  156.8346 H   0  0  0  0  0  0  0  0  0  0  0  0
  146.7585  139.4668  156.4160 H   0  0  0  0  0  0  0  0  0  0  0  0
  143.1778  144.2946  156.6325 H   0  0  0  0  0  0  0  0  0  0  0  0
  142.8348  145.6811  154.5802 H   0  0  0  0  0  0  0  0  0  0  0  0
  144.2265  145.3411  152.5716 H   0  0  0  0  0  0  0  0  0  0  0  0
  146.0167  143.6051  152.5239 H   0  0  0  0  0  0  0  0  0  0  0  0
  146.9980  140.6889  153.3213 H   0  0  0  0  0  0  0  0  0  0  0  0
  147.6126  142.3158  153.1777 H   0  0  0  0  0  0  0  0  0  0  0  0
  148.6668  140.0540  154.9544 H   0  0  0  0  0  0  0  0  0  0  0  0
  149.4633  140.3279  152.8460 H   0  0  0  0  0  0  0  0  0  0  0  0
  149.7826  142.8635  155.1157 H   0  0  0  0  0  0  0  0  0  0  0  0
  148.4539  142.3838  156.1788 H   0  0  0  0  0  0  0  0  0  0  0  0
  150.4847  144.0712  156.6047 H   0  0  0  0  0  0  0  0  0  0  0  0
  151.8590  145.2289  158.2761 H   0  0  0  0  0  0  0  0  0  0  0  0
  153.1550  143.9363  159.9601 H   0  0  0  0  0  0  0  0  0  0  0  0
  153.0598  141.4505  159.9558 H   0  0  0  0  0  0  0  0  0  0  0  0
  144.8524  142.1518  157.6007 H   0  0  0  0  0  0  0  0  0  0  0  0
  1  2  1  0  0  0  0
  1 23  1  0  0  0  0
  1 24  1  0  0  0  0
  1 25  1  0  0  0  0
  2 10  1  0  0  0  0
  2  3  2  0  0  0  0
  3  4  1  0  0  0  0
  3 40  1  0  0  0  0
  4  9  2  0  0  0  0
  4  5  1  0  0  0  0
  5  6  2  0  0  0  0
  5 26  1  0  0  0  0
  6  7  1  0  0  0  0
  6 27  1  0  0  0  0
  7  8  2  0  0  0  0
  7 28  1  0  0  0  0
  8  9  1  0  0  0  0
  8 29  1  0  0  0  0
  9 10  1  0  0  0  0
 10 11  1  0  0  0  0
 11 12  1  0  0  0  0
 11 30  1  0  0  0  0
 11 31  1  0  0  0  0
 12 13  1  0  0  0  0
 12 14  1  0  0  0  0
 12 32  1  0  0  0  0
 13 33  1  0  0  0  0
 14 15  1  0  0  0  0
 14 34  1  0  0  0  0
 14 35  1  0  0  0  0
 15 16  1  0  0  0  0
 16 21  1  0  0  0  0
 16 17  2  0  0  0  0
 17 18  1  0  0  0  0
 17 36  1  0  0  0  0
 18 19  2  0  0  0  0
 18 37  1  0  0  0  0
 19 20  1  0  0  0  0
 19 38  1  0  0  0  0
 20 21  2  0  0  0  0
 20 39  1  0  0  0  0
 21 22  1  0  0  0  0
M  CHG  1   3   1
M  END
> <s_m_source_file>
AV-unprocessed.smi

> <i_m_source_file_index>
1994

> <i_lp_mmshare_version>
43012

> <i_f3d_flags>
0

> <s_epik_input>
W2NIXTFbY0hdW2NIXVtjSF1jKGMxMiluKGMobjIpW0NIM10pW0NIMl1bQ0BIXShbT0hdKVtDSDJdT2MzW2NIXVtjSF1bY0hdW2NIXWMzRg==

> <s_epik_cmdline>
J2VwaWtfcHl0aG9uJywgJy1waCcsICc3LjAnLCAnLXRuJywgJzgnLCAnLW1hJywgJzIwMCcsICctbWV0YWxfYmluZGluZycsICctaW1hZScsICc8aW5maWxlLm1hZT4nLCAnLW9tYWUnLCAnPG91dGZpbGUubWFlPic=

> <r_lp_tautomer_probability>
1

> <r_epik_Ionization_Penalty>
1.03916

> <r_epik_Ionization_Penalty_Charging>
1.03916

> <r_epik_Ionization_Penalty_Neutral>
2.3993e-06

> <r_epik_State_Penalty>
1.09101

> <r_epik_Charging_Adjusted_Penalty>
2.13018

> <i_epik_Tot_Q>
1

> <i_epik_Tot_abs_Q>
1

> <r_epik_Metal_State_Penalty>
5.08156

> <b_epik_Metal_Only>
0

> <s_lp_Force_Field>
OPLS_2005

> <r_lp_Energy>
18.0159

> <b_lp_Chiralities_Consistent>
1

> <s_lp_Variant>
AV-unprocessed.smi:1994-4

> <Gold.Version>
5.8.1

> <Gold.Id.Protein>
6NUR|6NUR_protein|mol2

> <Gold.PLP.Fitness>
54.5053

> <Gold.PLP.PLP>
-50.1913

> <Gold.PLP.part.hbond>
-2.5810

> <Gold.PLP.part.metal>
0.0000

> <Gold.PLP.part.buried>
-1.8270

> <Gold.PLP.part.nonpolar>
-45.9516

> <Gold.PLP.part.repulsive>
0.0695

> <Gold.PLP.ligand.clash>
0.0000

> <Gold.PLP.ligand.torsion>
0.7743

> <Gold.PLP.Chemscore.Hbond>
1.9440

> <Gold.PLP.Chemscore.CHOScore>
0.0000

> <Gold.PLP.Chemscore.Metal>
0.0000

> <Gold.Chemscore.Hbonds>
donor molecule, donor type, donor heavy atom, donor atom, acceptor molecule, acceptor atom, score
      L1  H    13    33       P1  7957  0.78
      P1  H  7989  7998       L1    13  0.29
      P1  H  8011  8017       L1    13  0.70

> <Gold.PLP.Chemscore.Internal.Correction>
0.0307

> <Gold.Rescore>
     Score         DG    S(hbond)    S(metal)    S(lipo)     H(rot)  DE(clash)    DE(int)     intcor
     14.80     -17.74       1.06        0.00     124.17       2.27       1.65       1.28       ----

> <Gold.Chemscore.Fitness>
14.8040

> <Gold.Chemscore.DG>
-17.7355

> <Gold.Chemscore.ZeroCoef>
-5.4800

> <Gold.Chemscore.Hbond>
1.0600

> <Gold.Chemscore.Metal>
0.0000

> <Gold.Chemscore.Lipo>
124.1696

> <Gold.Chemscore.Internal_Hbond>
0.0000

> <Gold.Chemscore.DEClash>
1.6484

> <Gold.Chemscore.DEInternal>
1.2831

> <Gold.Chemscore.Rot>
2.2706

> <Gold.Chemscore.Internal.Correction>
   9.000000E+99

> <Gold.Chemscore.Hbonds>
donor molecule, donor type, donor heavy atom, donor atom, acceptor molecule, acceptor atom, score
      L1  H    13    33       P1  7957  0.78
      P1  H  7989  7998       L1    13  0.18
      P1  H  8011  8017       L1    13  0.06

> <Gold.Chemscore.Hbond.Weighted>
-3.5405

> <Gold.Chemscore.Metal.Weighted>
-0.0000

> <Gold.Chemscore.Lipo.Weighted>
-14.5278

> <Gold.Chemscore.Internal_Hbond.Weighted>
0.0000

> <Gold.Chemscore.DEClash.Weighted>
1.6484

> <Gold.Chemscore.DEInternal.Weighted>
1.2831

> <Gold.Chemscore.Rot.Weighted>
5.8128

> <Gold.Chemscore.Internal.Correction.Weighted>
   9.000000E+99

> <Gold.Protein.RotatedTorsions>
[ 6907 6896 6895 6894 ] final  -88.32 input  -60.11 | X-H torsion
[ 7974 7965 7964 7962 ] final -176.74 input  175.53 | X-H torsion
[ 8008 7997 7996 7995 ] final  -73.91 input   59.86 | X-H torsion
[ 10167 10162 10161 10158 ] final   92.20 input  -65.29 | X-H torsion
[ 10718 10713 10712 10709 ] final   56.91 input   66.30 | X-H torsion
[ 10763 10752 10751 10750 ] final -157.34 input  -60.55 | X-H torsion
[ 11005 11000 10999 10996 ] final  -24.13 input  -57.11 | X-H torsion

> <Gold.Protein.ActiveResidues>
 VAL166  LYS551  ARG553  GLY616  TRP617  ASP618  TYR619  PRO620  LYS621  CYS622 
 ASP623  PHE694  ASN695  SER759  ASP760  ASP761  ALA762  ILE779  LEU786  VAL792 
 PHE793  MET794  SER795  GLU796  ALA797  LYS798  CYS799  TRP800  GLU811  SER814 

> <Gold.Protein.RotatedAtoms>
  150.6868  134.2760  159.4607 H   0  0  0  0  0  0  0  0  0  0  0  0  # atno 6907 bound_to 6896
  152.0678  134.9550  160.0584 H   0  0  0  0  0  0  0  0  0  0  0  0  # atno 6908 bound_to 6896
  152.0952  133.4186  159.4599 H   0  0  0  0  0  0  0  0  0  0  0  0  # atno 6909 bound_to 6896
  144.7127  140.1125  143.6410 H   0  0  0  0  0  0  0  0  0  0  0  0  # atno 7974 bound_to 7965
  154.5286  140.0771  156.8304 H   0  0  0  0  0  0  0  0  0  0  0  0  # atno 8008 bound_to 7997
  155.3423  140.3408  155.4221 H   0  0  0  0  0  0  0  0  0  0  0  0  # atno 8009 bound_to 7997
  156.1758  140.1635  156.8353 H   0  0  0  0  0  0  0  0  0  0  0  0  # atno 8010 bound_to 7997
  139.8300  144.6691  150.9411 H   0  0  0  0  0  0  0  0  0  0  0  0  # atno 10167 bound_to 10162
  157.5471  130.8738  149.8907 H   0  0  0  0  0  0  0  0  0  0  0  0  # atno 10718 bound_to 10713
  154.7643  135.3127  154.8316 H   0  0  0  0  0  0  0  0  0  0  0  0  # atno 10763 bound_to 10752
  153.9068  135.6810  153.4757 H   0  0  0  0  0  0  0  0  0  0  0  0  # atno 10764 bound_to 10752
  153.1248  135.4806  154.9186 H   0  0  0  0  0  0  0  0  0  0  0  0  # atno 10765 bound_to 10752
  140.8816  133.7650  156.0309 H   0  0  0  0  0  0  0  0  0  0  0  0  # atno 11005 bound_to 11000
  145.9442  139.2689  143.1250 LP  0  0  0  0  0  0  0  0  0  0  0  0  # atno 17320 bound_to 7965
  145.9391  140.8992  143.0317 LP  0  0  0  0  0  0  0  0  0  0  0  0  # atno 17321 bound_to 7965
  140.7807  143.4010  151.1149 LP  0  0  0  0  0  0  0  0  0  0  0  0  # atno 17342 bound_to 10162
  139.7664  143.8559  152.3111 LP  0  0  0  0  0  0  0  0  0  0  0  0  # atno 17343 bound_to 10162
  156.0544  130.3711  150.1125 LP  0  0  0  0  0  0  0  0  0  0  0  0  # atno 17370 bound_to 10713
  156.9300  130.9711  151.3534 LP  0  0  0  0  0  0  0  0  0  0  0  0  # atno 17371 bound_to 10713
  140.8454  134.3017  157.5297 LP  0  0  0  0  0  0  0  0  0  0  0  0  # atno 17394 bound_to 11000
  139.8720  134.9439  156.3865 LP  0  0  0  0  0  0  0  0  0  0  0  0  # atno 17395 bound_to 11000

$$$$
