AV-unprocessed.smi:310|AV-procd|sdf|2295|dock2
  -GOLD-   2262022193D 1   1.00000     0.00000
 Structure written by MMmdl.
 41 43  0  0  0  0  0  0  0  0  1 V2000
  149.2598  129.8812  154.4433 C   0  0  0  0  0  0  0  0  0  0  0  0
  149.5337  131.3305  154.6569 C   0  0  0  0  0  0  0  0  0  0  0  0
  149.3399  132.4388  153.8812 C   0  0  0  0  0  0  0  0  0  0  0  0
  149.8229  133.4924  154.7021 C   0  0  0  0  0  0  0  0  0  0  0  0
  149.7966  134.8368  154.2510 N   0  0  0  0  0  0  0  0  0  0  0  0
  150.4635  135.8862  154.7617 C   0  0  0  0  0  0  0  0  0  0  0  0
  151.2302  135.8391  155.7240 O   0  0  0  0  0  0  0  0  0  0  0  0
  150.1899  137.0124  154.0866 N   0  0  0  0  0  0  0  0  0  0  0  0
  150.7379  138.3312  154.3903 C   0  0  0  0  0  0  0  0  0  0  0  0
  152.2311  138.1989  154.7611 C   0  0  0  0  0  0  0  0  0  0  0  0
  152.7942  139.5380  155.2670 C   0  0  0  0  0  0  0  0  0  0  0  0
  151.9910  139.9830  156.4141 N   0  0  0  0  0  0  0  0  0  0  0  0
  152.3968  140.0188  157.7082 C   0  0  0  0  0  0  0  0  0  0  0  0
  153.5033  139.6056  158.0586 O   0  0  0  0  0  0  0  0  0  0  0  0
  151.4490  140.6131  158.7067 C   0  0  0  0  0  0  0  0  0  0  0  0
  150.9461  142.0270  158.4747 C   0  0  0  0  0  0  0  0  0  0  0  0
  151.9700  141.7599  159.5471 C   0  0  0  0  0  0  0  0  0  0  0  0
  150.6178  140.3034  156.0054 C   0  0  0  0  0  0  0  0  0  0  0  0
  149.9316  139.0121  155.5213 C   0  0  0  0  0  0  0  0  0  0  0  0
  150.2716  133.0660  155.8727 N   0  0  0  0  0  0  0  0  0  0  0  0
  150.0888  131.6781  155.8495 O   0  0  0  0  0  0  0  0  0  0  0  0
  148.7495  129.7161  153.4941 H   0  0  0  0  0  0  0  0  0  0  0  0
  148.6288  129.4857  155.2394 H   0  0  0  0  0  0  0  0  0  0  0  0
  150.1885  129.3105  154.4317 H   0  0  0  0  0  0  0  0  0  0  0  0
  148.9194  132.4851  152.8877 H   0  0  0  0  0  0  0  0  0  0  0  0
  149.2011  135.0203  153.4573 H   0  0  0  0  0  0  0  0  0  0  0  0
  149.5502  136.9564  153.3077 H   0  0  0  0  0  0  0  0  0  0  0  0
  150.6757  138.9589  153.4990 H   0  0  0  0  0  0  0  0  0  0  0  0
  152.3582  137.4412  155.5361 H   0  0  0  0  0  0  0  0  0  0  0  0
  152.8018  137.8573  153.8969 H   0  0  0  0  0  0  0  0  0  0  0  0
  153.8583  139.4498  155.4819 H   0  0  0  0  0  0  0  0  0  0  0  0
  152.7297  140.2861  154.4755 H   0  0  0  0  0  0  0  0  0  0  0  0
  150.7322  139.9342  159.1648 H   0  0  0  0  0  0  0  0  0  0  0  0
  151.2813  142.5756  157.5964 H   0  0  0  0  0  0  0  0  0  0  0  0
  149.9266  142.2438  158.7866 H   0  0  0  0  0  0  0  0  0  0  0  0
  151.6469  141.7969  160.5853 H   0  0  0  0  0  0  0  0  0  0  0  0
  152.9856  142.1091  159.3673 H   0  0  0  0  0  0  0  0  0  0  0  0
  150.0291  140.7535  156.8056 H   0  0  0  0  0  0  0  0  0  0  0  0
  150.6392  141.0419  155.2027 H   0  0  0  0  0  0  0  0  0  0  0  0
  148.9201  139.2361  155.1805 H   0  0  0  0  0  0  0  0  0  0  0  0
  149.8281  138.3275  156.3646 H   0  0  0  0  0  0  0  0  0  0  0  0
  1  2  1  0  0  0  0
  1 22  1  0  0  0  0
  1 23  1  0  0  0  0
  1 24  1  0  0  0  0
  2 21  1  0  0  0  0
  2  3  2  0  0  0  0
  3  4  1  0  0  0  0
  3 25  1  0  0  0  0
  4  5  1  0  0  0  0
  4 20  2  0  0  0  0
  5  6  1  0  0  0  0
  5 26  1  0  0  0  0
  6  7  2  0  0  0  0
  6  8  1  0  0  0  0
  8  9  1  0  0  0  0
  8 27  1  0  0  0  0
  9 19  1  0  0  0  0
  9 10  1  0  0  0  0
  9 28  1  0  0  0  0
 10 11  1  0  0  0  0
 10 29  1  0  0  0  0
 10 30  1  0  0  0  0
 11 12  1  0  0  0  0
 11 31  1  0  0  0  0
 11 32  1  0  0  0  0
 12 13  1  0  0  0  0
 12 18  1  0  0  0  0
 13 14  2  0  0  0  0
 13 15  1  0  0  0  0
 15 17  1  0  0  0  0
 15 16  1  0  0  0  0
 15 33  1  0  0  0  0
 16 17  1  0  0  0  0
 16 34  1  0  0  0  0
 16 35  1  0  0  0  0
 17 36  1  0  0  0  0
 17 37  1  0  0  0  0
 18 19  1  0  0  0  0
 18 38  1  0  0  0  0
 18 39  1  0  0  0  0
 19 40  1  0  0  0  0
 19 41  1  0  0  0  0
 20 21  1  0  0  0  0
M  END
> <s_m_source_file>
AV-unprocessed.smi

> <i_m_source_file_index>
310

> <i_lp_mmshare_version>
43012

> <i_f3d_flags>
0

> <s_epik_input>
W0NIM11jMVtjSF1jKG5vMSlbTkhdQyg9TylbTkhdW0NIXTJbQ0gyXVtDSDJdTihbQ0gyXVtDSDJdMilDKD1PKVtDSF0zW0NIMl1bQ0gyXTM=

> <s_epik_cmdline>
J2VwaWtfcHl0aG9uJywgJy1waCcsICc3LjAnLCAnLXRuJywgJzgnLCAnLW1hJywgJzIwMCcsICctbWV0YWxfYmluZGluZycsICctaW1hZScsICc8aW5maWxlLm1hZT4nLCAnLW9tYWUnLCAnPG91dGZpbGUubWFlPic=

> <r_lp_tautomer_probability>
1

> <r_epik_Ionization_Penalty>
2.91812e-05

> <r_epik_Ionization_Penalty_Charging>
0

> <r_epik_Ionization_Penalty_Neutral>
2.91812e-05

> <r_epik_State_Penalty>
-0

> <r_epik_Charging_Adjusted_Penalty>
0

> <i_epik_Tot_Q>
0

> <i_epik_Tot_abs_Q>
0

> <r_epik_Metal_State_Penalty>
0.00922567

> <b_epik_Metal_Only>
0

> <s_lp_Force_Field>
OPLS_2005

> <r_lp_Energy>
27.9216

> <b_lp_Chiralities_Consistent>
1

> <s_lp_Variant>
AV-unprocessed.smi:310-1

> <Gold.Version>
5.8.1

> <Gold.Id.Protein>
6NUR|6NUR_protein|mol2

> <Gold.PLP.Fitness>
44.9085

> <Gold.PLP.PLP>
-34.6405

> <Gold.PLP.part.hbond>
-5.1294

> <Gold.PLP.part.metal>
0.0000

> <Gold.PLP.part.buried>
1.0543

> <Gold.PLP.part.nonpolar>
-30.4534

> <Gold.PLP.part.repulsive>
0.1588

> <Gold.PLP.ligand.clash>
0.4291

> <Gold.PLP.ligand.torsion>
0.4091

> <Gold.PLP.Chemscore.Hbond>
3.7969

> <Gold.PLP.Chemscore.CHOScore>
0.0000

> <Gold.PLP.Chemscore.Metal>
0.0000

> <Gold.Chemscore.Hbonds>
donor molecule, donor type, donor heavy atom, donor atom, acceptor molecule, acceptor atom, score
      L1  H     5    26       P1  7948  0.73
      L1  H     8    27       P1  7948  1.00
      P1  H  7997  8008       L1    14  1.00
      P1  H 10752 10763       L1     7  1.00

> <Gold.PLP.Chemscore.Internal.Correction>
0.1249

> <Gold.Rescore>
     Score         DG    S(hbond)    S(metal)    S(lipo)     H(rot)  DE(clash)    DE(int)     intcor
     15.80     -20.74       2.98        0.00      72.94       1.26       1.59       3.36       ----

> <Gold.Chemscore.Fitness>
15.7959

> <Gold.Chemscore.DG>
-20.7428

> <Gold.Chemscore.ZeroCoef>
-5.4800

> <Gold.Chemscore.Hbond>
2.9815

> <Gold.Chemscore.Metal>
0.0000

> <Gold.Chemscore.Lipo>
72.9426

> <Gold.Chemscore.Internal_Hbond>
0.0000

> <Gold.Chemscore.DEClash>
1.5910

> <Gold.Chemscore.DEInternal>
3.3560

> <Gold.Chemscore.Rot>
1.2615

> <Gold.Chemscore.Internal.Correction>
   9.000000E+99

> <Gold.Chemscore.Hbonds>
donor molecule, donor type, donor heavy atom, donor atom, acceptor molecule, acceptor atom, score
      L1  H     5    26       P1  7948  0.12
      L1  H     8    27       P1  7948  0.75
      P1  H  7997  8008       L1    14  0.88
      P1  H 10752 10763       L1     7  0.38

> <Gold.Chemscore.Hbond.Weighted>
-9.9581

> <Gold.Chemscore.Metal.Weighted>
-0.0000

> <Gold.Chemscore.Lipo.Weighted>
-8.5343

> <Gold.Chemscore.Internal_Hbond.Weighted>
0.0000

> <Gold.Chemscore.DEClash.Weighted>
1.5910

> <Gold.Chemscore.DEInternal.Weighted>
3.3560

> <Gold.Chemscore.Rot.Weighted>
3.2295

> <Gold.Chemscore.Internal.Correction.Weighted>
   9.000000E+99

> <Gold.Protein.RotatedTorsions>
[ 6907 6896 6895 6894 ] final  -32.59 input  -60.11 | X-H torsion
[ 7974 7965 7964 7962 ] final   13.49 input  175.53 | X-H torsion
[ 8008 7997 7996 7995 ] final  -94.74 input   59.86 | X-H torsion
[ 10167 10162 10161 10158 ] final   23.70 input  -65.29 | X-H torsion
[ 10718 10713 10712 10709 ] final  -60.63 input   66.30 | X-H torsion
[ 10763 10752 10751 10750 ] final   76.15 input  -60.55 | X-H torsion
[ 11005 11000 10999 10996 ] final -109.42 input  -57.11 | X-H torsion

> <Gold.Protein.ActiveResidues>
 VAL166  LYS551  ARG553  GLY616  TRP617  ASP618  TYR619  PRO620  LYS621  CYS622 
 ASP623  PHE694  ASN695  SER759  ASP760  ASP761  ALA762  ILE779  LEU786  VAL792 
 PHE793  MET794  SER795  GLU796  ALA797  LYS798  CYS799  TRP800  GLU811  SER814 

> <Gold.Protein.RotatedAtoms>
  151.0768  134.9833  159.8335 H   0  0  0  0  0  0  0  0  0  0  0  0  # atno 6907 bound_to 6896
  152.5415  134.2231  159.8805 H   0  0  0  0  0  0  0  0  0  0  0  0  # atno 6908 bound_to 6896
  151.2258  133.4433  159.2635 H   0  0  0  0  0  0  0  0  0  0  0  0  # atno 6909 bound_to 6896
  146.2328  139.9180  142.8514 H   0  0  0  0  0  0  0  0  0  0  0  0  # atno 7974 bound_to 7965
  154.7523  140.0486  157.0904 H   0  0  0  0  0  0  0  0  0  0  0  0  # atno 8008 bound_to 7997
  155.0042  140.3128  155.4836 H   0  0  0  0  0  0  0  0  0  0  0  0  # atno 8009 bound_to 7997
  156.2887  140.2196  156.5153 H   0  0  0  0  0  0  0  0  0  0  0  0  # atno 8010 bound_to 7997
  140.5248  143.9942  150.6435 H   0  0  0  0  0  0  0  0  0  0  0  0  # atno 10167 bound_to 10162
  156.0977  130.4190  150.0881 H   0  0  0  0  0  0  0  0  0  0  0  0  # atno 10718 bound_to 10713
  153.0705  135.4962  154.8294 H   0  0  0  0  0  0  0  0  0  0  0  0  # atno 10763 bound_to 10752
  154.7015  135.3002  154.9336 H   0  0  0  0  0  0  0  0  0  0  0  0  # atno 10764 bound_to 10752
  154.0058  135.6760  153.4815 H   0  0  0  0  0  0  0  0  0  0  0  0  # atno 10765 bound_to 10752
  141.0848  133.9157  157.2209 H   0  0  0  0  0  0  0  0  0  0  0  0  # atno 11005 bound_to 11000
  145.2164  140.9917  143.4071 LP  0  0  0  0  0  0  0  0  0  0  0  0  # atno 17320 bound_to 7965
  144.9647  139.3943  143.6338 LP  0  0  0  0  0  0  0  0  0  0  0  0  # atno 17321 bound_to 7965
  140.3301  143.3083  152.0696 LP  0  0  0  0  0  0  0  0  0  0  0  0  # atno 17342 bound_to 10162
  139.4935  144.6515  151.6665 LP  0  0  0  0  0  0  0  0  0  0  0  0  # atno 17343 bound_to 10162
  156.8876  130.9577  151.3592 LP  0  0  0  0  0  0  0  0  0  0  0  0  # atno 17370 bound_to 10713
  157.6141  130.8605  149.9000 LP  0  0  0  0  0  0  0  0  0  0  0  0  # atno 17371 bound_to 10713
  139.9665  135.0140  156.9401 LP  0  0  0  0  0  0  0  0  0  0  0  0  # atno 17394 bound_to 11000
  140.5387  134.0741  155.7335 LP  0  0  0  0  0  0  0  0  0  0  0  0  # atno 17395 bound_to 11000

$$$$
