AV-unprocessed.smi:2520|AV-procd|sdf|9911|dock4
  -GOLD-   2272013543D 1   1.00000     0.00000
 Structure written by MMmdl.
 41 44  0  0  0  0  0  0  0  0  1 V2000
  146.4840  138.7726  154.5689 O   0  0  0  0  0  0  0  0  0  0  0  0
  147.1913  138.1264  153.7979 C   0  0  0  0  0  0  0  0  0  0  0  0
  148.5323  138.2796  153.7889 N   0  0  0  0  0  0  0  0  0  0  0  0
  149.3878  139.1192  154.5600 C   0  0  0  0  0  0  0  0  0  0  0  0
  150.7587  138.7907  154.4907 C   0  0  0  0  0  0  0  0  0  0  0  0
  151.6706  139.5631  155.2299 C   0  0  0  0  0  0  0  0  0  0  0  0
  151.1473  140.6174  155.9972 C   0  0  0  0  0  0  0  0  0  0  0  0
  149.8265  140.8954  156.0397 N   0  0  0  0  0  0  0  0  0  0  0  0
  148.9657  140.1549  155.3336 N   0  0  0  0  0  0  0  0  0  0  0  0
  146.6897  137.2354  152.9283 N   0  0  0  0  0  0  0  0  0  0  0  0
  145.2712  136.9466  152.7585 C   0  0  2  0  0  0  0  0  0  0  0  0
  144.5779  136.6134  154.0896 C   0  0  1  0  0  0  0  0  0  0  0  0
  143.5235  137.5374  154.6344 C   0  0  0  0  0  0  0  0  0  0  0  0
  142.2236  136.9083  154.1247 C   0  0  0  0  0  0  0  0  0  0  0  0
  142.6203  136.1154  153.0076 O   0  0  0  0  0  0  0  0  0  0  0  0
  143.8625  135.4995  153.3397 C   0  0  1  0  0  0  0  0  0  0  0  0
  144.9639  135.5158  152.2579 C   0  0  0  0  0  0  0  0  0  0  0  0
  146.0259  134.4203  152.3913 C   0  0  0  0  0  0  0  0  0  0  0  0
  145.5245  133.2290  151.5741 C   0  0  0  0  0  0  0  0  0  0  0  0
  144.6236  133.8305  150.4908 C   0  0  0  0  0  0  0  0  0  0  0  0
  144.5282  135.3273  150.8074 C   0  0  0  0  0  0  0  0  0  0  0  0
  149.0175  137.6633  153.1533 H   0  0  0  0  0  0  0  0  0  0  0  0
  151.1069  137.9670  153.8846 H   0  0  0  0  0  0  0  0  0  0  0  0
  152.7303  139.3553  155.2095 H   0  0  0  0  0  0  0  0  0  0  0  0
  151.7964  141.2476  156.5868 H   0  0  0  0  0  0  0  0  0  0  0  0
  147.3347  136.7408  152.3286 H   0  0  0  0  0  0  0  0  0  0  0  0
  144.7250  137.7057  152.1938 H   0  0  0  0  0  0  0  0  0  0  0  0
  145.2675  136.2146  154.8362 H   0  0  0  0  0  0  0  0  0  0  0  0
  143.5400  137.5985  155.7228 H   0  0  0  0  0  0  0  0  0  0  0  0
  143.6487  138.5460  154.2398 H   0  0  0  0  0  0  0  0  0  0  0  0
  141.7895  136.2574  154.8851 H   0  0  0  0  0  0  0  0  0  0  0  0
  141.4770  137.6519  153.8454 H   0  0  0  0  0  0  0  0  0  0  0  0
  143.7552  134.5744  153.9080 H   0  0  0  0  0  0  0  0  0  0  0  0
  146.9766  134.7530  151.9731 H   0  0  0  0  0  0  0  0  0  0  0  0
  146.2161  134.1424  153.4284 H   0  0  0  0  0  0  0  0  0  0  0  0
  146.3466  132.6477  151.1554 H   0  0  0  0  0  0  0  0  0  0  0  0
  144.9394  132.5630  152.2096 H   0  0  0  0  0  0  0  0  0  0  0  0
  145.0284  133.6674  149.4914 H   0  0  0  0  0  0  0  0  0  0  0  0
  143.6369  133.3671  150.5248 H   0  0  0  0  0  0  0  0  0  0  0  0
  143.5258  135.7102  150.6156 H   0  0  0  0  0  0  0  0  0  0  0  0
  145.2005  135.8781  150.1483 H   0  0  0  0  0  0  0  0  0  0  0  0
  1  2  2  0  0  0  0
  2  3  1  0  0  0  0
  2 10  1  0  0  0  0
  3  4  1  0  0  0  0
  3 22  1  0  0  0  0
  4  9  1  0  0  0  0
  4  5  2  0  0  0  0
  5  6  1  0  0  0  0
  5 23  1  0  0  0  0
  6  7  2  0  0  0  0
  6 24  1  0  0  0  0
  7  8  1  0  0  0  0
  7 25  1  0  0  0  0
  8  9  2  0  0  0  0
 10 11  1  0  0  0  0
 10 26  1  0  0  0  0
 11 17  1  0  0  0  0
 11 12  1  0  0  0  0
 11 27  1  0  0  0  0
 12 16  1  0  0  0  0
 12 13  1  0  0  0  0
 12 28  1  0  0  0  0
 13 14  1  0  0  0  0
 13 29  1  0  0  0  0
 13 30  1  0  0  0  0
 14 15  1  0  0  0  0
 14 31  1  0  0  0  0
 14 32  1  0  0  0  0
 15 16  1  0  0  0  0
 16 17  1  0  0  0  0
 16 33  1  0  0  0  0
 17 21  1  0  0  0  0
 17 18  1  0  0  0  0
 18 19  1  0  0  0  0
 18 34  1  0  0  0  0
 18 35  1  0  0  0  0
 19 20  1  0  0  0  0
 19 36  1  0  0  0  0
 19 37  1  0  0  0  0
 20 21  1  0  0  0  0
 20 38  1  0  0  0  0
 20 39  1  0  0  0  0
 21 40  1  0  0  0  0
 21 41  1  0  0  0  0
M  END
> <s_m_source_file>
AV-unprocessed.smi

> <i_m_source_file_index>
2520

> <i_lp_mmshare_version>
43012

> <i_f3d_flags>
0

> <s_epik_input>
bjFuW2NIXVtjSF1bY0hdYzFbTkhdQyg9TylbTkhdW0NAQEhdMltDQEBIXShbQ0gyXVtDSDJdTzMpW0NASF0zQzI0W0NIMl1bQ0gyXVtDSDJdW0NIMl00

> <s_epik_cmdline>
J2VwaWtfcHl0aG9uJywgJy1waCcsICc3LjAnLCAnLXRuJywgJzgnLCAnLW1hJywgJzIwMCcsICctbWV0YWxfYmluZGluZycsICctaW1hZScsICc8aW5maWxlLm1hZT4nLCAnLW9tYWUnLCAnPG91dGZpbGUubWFlPic=

> <r_lp_tautomer_probability>
1

> <r_epik_Ionization_Penalty>
0.00552561

> <r_epik_Ionization_Penalty_Charging>
0

> <r_epik_Ionization_Penalty_Neutral>
0.00552561

> <r_epik_State_Penalty>
-0

> <r_epik_Charging_Adjusted_Penalty>
0

> <i_epik_Tot_Q>
0

> <i_epik_Tot_abs_Q>
0

> <r_epik_Metal_State_Penalty>
-0

> <b_epik_Metal_Only>
0

> <s_lp_Force_Field>
OPLS_2005

> <r_lp_Energy>
61.2745

> <b_lp_Chiralities_Consistent>
1

> <s_lp_Variant>
AV-unprocessed.smi:2520-5

> <Gold.Version>
5.8.1

> <Gold.Id.Protein>
6NUR|6NUR_protein|mol2

> <Gold.PLP.Fitness>
35.1045

> <Gold.PLP.PLP>
-29.4544

> <Gold.PLP.part.hbond>
-2.3125

> <Gold.PLP.part.metal>
0.0000

> <Gold.PLP.part.buried>
-3.5616

> <Gold.PLP.part.nonpolar>
-24.8520

> <Gold.PLP.part.repulsive>
0.5129

> <Gold.PLP.ligand.clash>
0.0000

> <Gold.PLP.ligand.torsion>
0.2557

> <Gold.PLP.Chemscore.Hbond>
1.9920

> <Gold.PLP.Chemscore.CHOScore>
0.0000

> <Gold.PLP.Chemscore.Metal>
0.0000

> <Gold.Chemscore.Hbonds>
donor molecule, donor type, donor heavy atom, donor atom, acceptor molecule, acceptor atom, score
      L1  H     3    22       P1  7948  1.00
      L1  H    10    26       P1  7948  1.00

> <Gold.PLP.Chemscore.Internal.Correction>
0.1855

> <Gold.Rescore>
     Score         DG    S(hbond)    S(metal)    S(lipo)     H(rot)  DE(clash)    DE(int)     intcor
     14.23     -16.97       1.91        0.00      65.70       1.00       0.05       2.70       ----

> <Gold.Chemscore.Fitness>
14.2276

> <Gold.Chemscore.DG>
-16.9704

> <Gold.Chemscore.ZeroCoef>
-5.4800

> <Gold.Chemscore.Hbond>
1.9054

> <Gold.Chemscore.Metal>
0.0000

> <Gold.Chemscore.Lipo>
65.6968

> <Gold.Chemscore.Internal_Hbond>
0.0000

> <Gold.Chemscore.DEClash>
0.0476

> <Gold.Chemscore.DEInternal>
2.6952

> <Gold.Chemscore.Rot>
1.0000

> <Gold.Chemscore.Internal.Correction>
   9.000000E+99

> <Gold.Chemscore.Hbonds>
donor molecule, donor type, donor heavy atom, donor atom, acceptor molecule, acceptor atom, score
      L1  H     3    22       P1  7948  0.95
      L1  H    10    26       P1  7948  0.97

> <Gold.Chemscore.Hbond.Weighted>
-6.3639

> <Gold.Chemscore.Metal.Weighted>
-0.0000

> <Gold.Chemscore.Lipo.Weighted>
-7.6865

> <Gold.Chemscore.Internal_Hbond.Weighted>
0.0000

> <Gold.Chemscore.DEClash.Weighted>
0.0476

> <Gold.Chemscore.DEInternal.Weighted>
2.6952

> <Gold.Chemscore.Rot.Weighted>
2.5600

> <Gold.Chemscore.Internal.Correction.Weighted>
   9.000000E+99

> <Gold.Protein.RotatedTorsions>
[ 6907 6896 6895 6894 ] final    8.56 input  -60.11 | X-H torsion
[ 7974 7965 7964 7962 ] final -156.23 input  175.53 | X-H torsion
[ 8008 7997 7996 7995 ] final -123.06 input   59.86 | X-H torsion
[ 10167 10162 10161 10158 ] final   25.84 input  -65.29 | X-H torsion
[ 10718 10713 10712 10709 ] final  126.23 input   66.30 | X-H torsion
[ 10763 10752 10751 10750 ] final   88.20 input  -60.55 | X-H torsion
[ 11005 11000 10999 10996 ] final  -42.13 input  -57.11 | X-H torsion

> <Gold.Protein.ActiveResidues>
 VAL166  LYS551  ARG553  GLY616  TRP617  ASP618  TYR619  PRO620  LYS621  CYS622 
 ASP623  PHE694  ASN695  SER759  ASP760  ASP761  ALA762  ILE779  LEU786  VAL792 
 PHE793  MET794  SER795  GLU796  ALA797  LYS798  CYS799  TRP800  GLU811  SER814 

> <Gold.Protein.RotatedAtoms>
  151.7080  135.0918  160.0262 H   0  0  0  0  0  0  0  0  0  0  0  0  # atno 6907 bound_to 6896
  152.3679  133.6376  159.6073 H   0  0  0  0  0  0  0  0  0  0  0  0  # atno 6908 bound_to 6896
  150.7651  133.9234  159.3446 H   0  0  0  0  0  0  0  0  0  0  0  0  # atno 6909 bound_to 6896
  144.7603  140.4139  143.5982 H   0  0  0  0  0  0  0  0  0  0  0  0  # atno 7974 bound_to 7965
  155.1744  140.0409  157.2869 H   0  0  0  0  0  0  0  0  0  0  0  0  # atno 8008 bound_to 7997
  154.6247  140.2509  155.7479 H   0  0  0  0  0  0  0  0  0  0  0  0  # atno 8009 bound_to 7997
  156.2452  140.2887  156.0571 H   0  0  0  0  0  0  0  0  0  0  0  0  # atno 8010 bound_to 7997
  140.5072  144.0218  150.6357 H   0  0  0  0  0  0  0  0  0  0  0  0  # atno 10167 bound_to 10162
  157.5437  131.1096  150.8817 H   0  0  0  0  0  0  0  0  0  0  0  0  # atno 10718 bound_to 10713
  153.1744  135.4515  154.9946 H   0  0  0  0  0  0  0  0  0  0  0  0  # atno 10763 bound_to 10752
  154.7988  135.3248  154.7603 H   0  0  0  0  0  0  0  0  0  0  0  0  # atno 10764 bound_to 10752
  153.8075  135.6957  153.4901 H   0  0  0  0  0  0  0  0  0  0  0  0  # atno 10765 bound_to 10752
  141.0294  133.6826  156.2552 H   0  0  0  0  0  0  0  0  0  0  0  0  # atno 11005 bound_to 11000
  145.6643  139.1587  143.2791 LP  0  0  0  0  0  0  0  0  0  0  0  0  # atno 17320 bound_to 7965
  146.1658  140.6720  142.9256 LP  0  0  0  0  0  0  0  0  0  0  0  0  # atno 17321 bound_to 7965
  140.3531  143.2951  152.0465 LP  0  0  0  0  0  0  0  0  0  0  0  0  # atno 17342 bound_to 10162
  139.4887  144.6359  151.6977 LP  0  0  0  0  0  0  0  0  0  0  0  0  # atno 17343 bound_to 10162
  156.9363  130.5368  149.5279 LP  0  0  0  0  0  0  0  0  0  0  0  0  # atno 17370 bound_to 10713
  156.0517  130.5586  150.9004 LP  0  0  0  0  0  0  0  0  0  0  0  0  # atno 17371 bound_to 10713
  140.6433  134.5143  157.5571 LP  0  0  0  0  0  0  0  0  0  0  0  0  # atno 17394 bound_to 11000
  139.9198  134.8172  156.1249 LP  0  0  0  0  0  0  0  0  0  0  0  0  # atno 17395 bound_to 11000

$$$$
