AV-unprocessed.smi:2768|AV-procd|sdf|10654|dock4
  -GOLD-   2272015103D 1   1.00000     0.00000
 Structure written by MMmdl.
 34 35  0  0  0  0  0  0  0  0  2 V2000
  152.5200  139.9724  155.3274 O   0  0  0  0  0  0  0  0  0  0  0  0
  151.4177  139.9556  155.8878 C   0  0  0  0  0  0  0  0  0  0  0  0
  150.9482  140.7390  156.9018 N   0  5  0  0  0  0  0  0  0  0  0  0
  151.7877  141.6168  157.7222 C   0  0  2  0  0  0  0  0  0  0  0  0
  152.4495  140.8073  158.8653 C   0  0  0  0  0  0  0  0  0  0  0  0
  153.2744  141.6865  159.8388 C   0  0  0  0  0  0  0  0  0  0  0  0
  152.4454  142.8346  160.4516 C   0  0  0  0  0  0  0  0  0  0  0  0
  151.7799  143.6588  159.3263 C   0  0  0  0  0  0  0  0  0  0  0  0
  150.9647  142.7933  158.3269 C   0  0  2  0  0  0  0  0  0  0  0  0
  149.8046  142.3121  158.9818 O   0  0  0  0  0  0  0  0  0  0  0  0
  150.3845  138.9091  155.4092 C   0  0  0  0  0  0  0  0  0  0  0  0
  150.9956  138.1012  154.5403 F   0  0  0  0  0  0  0  0  0  0  0  0
  149.9457  138.1504  156.4210 F   0  0  0  0  0  0  0  0  0  0  0  0
  149.1935  139.5972  154.7433 C   0  0  0  0  0  0  0  0  0  0  0  0
  148.1779  138.8472  154.1058 C   0  0  0  0  0  0  0  0  0  0  0  0
  147.1054  139.5339  153.5055 C   0  0  0  0  0  0  0  0  0  0  0  0
  147.0831  140.9400  153.5606 C   0  0  0  0  0  0  0  0  0  0  0  0
  148.1412  141.5997  154.2157 C   0  0  0  0  0  0  0  0  0  0  0  0
  149.1731  140.9512  154.7954 N   0  0  0  0  0  0  0  0  0  0  0  0
  152.5967  142.0506  157.1320 H   0  0  0  0  0  0  0  0  0  0  0  0
  150.6204  143.4348  157.5146 H   0  0  0  0  0  0  0  0  0  0  0  0
  151.6826  140.2794  159.4343 H   0  0  0  0  0  0  0  0  0  0  0  0
  153.0948  140.0361  158.4430 H   0  0  0  0  0  0  0  0  0  0  0  0
  153.6734  141.0626  160.6389 H   0  0  0  0  0  0  0  0  0  0  0  0
  154.1442  142.1006  159.3247 H   0  0  0  0  0  0  0  0  0  0  0  0
  151.6791  142.4228  161.1095 H   0  0  0  0  0  0  0  0  0  0  0  0
  153.0776  143.4734  161.0684 H   0  0  0  0  0  0  0  0  0  0  0  0
  151.1365  144.4225  159.7648 H   0  0  0  0  0  0  0  0  0  0  0  0
  152.5554  144.2062  158.7865 H   0  0  0  0  0  0  0  0  0  0  0  0
  150.0552  141.5409  159.4691 H   0  0  0  0  0  0  0  0  0  0  0  0
  148.2183  137.7688  154.0701 H   0  0  0  0  0  0  0  0  0  0  0  0
  146.3137  138.9911  153.0108 H   0  0  0  0  0  0  0  0  0  0  0  0
  146.2763  141.4988  153.1105 H   0  0  0  0  0  0  0  0  0  0  0  0
  148.1582  142.6778  154.2767 H   0  0  0  0  0  0  0  0  0  0  0  0
  1  2  2  0  0  0  0
  2  3  1  0  0  0  0
  2 11  1  0  0  0  0
  3  4  1  0  0  0  0
  4 20  1  0  0  0  0
  4  9  1  0  0  0  0
  4  5  1  0  0  0  0
  5  6  1  0  0  0  0
  5 22  1  0  0  0  0
  5 23  1  0  0  0  0
  6  7  1  0  0  0  0
  6 24  1  0  0  0  0
  6 25  1  0  0  0  0
  7  8  1  0  0  0  0
  7 26  1  0  0  0  0
  7 27  1  0  0  0  0
  8  9  1  0  0  0  0
  8 28  1  0  0  0  0
  8 29  1  0  0  0  0
  9 21  1  0  0  0  0
  9 10  1  0  0  0  0
 10 30  1  0  0  0  0
 11 12  1  0  0  0  0
 11 13  1  0  0  0  0
 11 14  1  0  0  0  0
 14 19  1  0  0  0  0
 14 15  2  0  0  0  0
 15 16  1  0  0  0  0
 15 31  1  0  0  0  0
 16 17  2  0  0  0  0
 16 32  1  0  0  0  0
 17 18  1  0  0  0  0
 17 33  1  0  0  0  0
 18 19  2  0  0  0  0
 18 34  1  0  0  0  0
M  CHG  1   3  -1
M  END
> <s_m_source_file>
AV-unprocessed.smi

> <i_m_source_file_index>
2768

> <i_lp_mmshare_version>
43012

> <i_f3d_flags>
0

> <s_epik_input>
bjFbY0hdW2NIXVtjSF1bY0hdYzFDKEYpKEYpQyg9TylbTkhdW0NAQEhdMltDSDJdW0NIMl1bQ0gyXVtDSDJdW0NASF0yW09IXQ==

> <s_epik_cmdline>
J2VwaWtfcHl0aG9uJywgJy1waCcsICc3LjAnLCAnLXRuJywgJzgnLCAnLW1hJywgJzIwMCcsICctbWV0YWxfYmluZGluZycsICctaW1hZScsICc8aW5maWxlLm1hZT4nLCAnLW9tYWUnLCAnPG91dGZpbGUubWFlPic=

> <r_lp_tautomer_probability>
1

> <r_epik_Ionization_Penalty>
5.70553

> <r_epik_Ionization_Penalty_Charging>
5.70553

> <r_epik_Ionization_Penalty_Neutral>
5.5493e-06

> <r_epik_State_Penalty>
5.70549

> <r_epik_Charging_Adjusted_Penalty>
11.411

> <i_epik_Tot_Q>
-1

> <i_epik_Tot_abs_Q>
1

> <r_epik_Metal_State_Penalty>
1.6859

> <b_epik_Metal_Only>
1

> <s_lp_Force_Field>
OPLS_2005

> <r_lp_Energy>
28.0633

> <b_lp_Chiralities_Consistent>
1

> <s_lp_Variant>
AV-unprocessed.smi:2768-7

> <Gold.Version>
5.8.1

> <Gold.Id.Protein>
6NUR|6NUR_protein|mol2

> <Gold.PLP.Fitness>
44.5961

> <Gold.PLP.PLP>
-38.9080

> <Gold.PLP.part.hbond>
-3.0000

> <Gold.PLP.part.metal>
0.0000

> <Gold.PLP.part.buried>
-4.3571

> <Gold.PLP.part.nonpolar>
-32.1506

> <Gold.PLP.part.repulsive>
0.1627

> <Gold.PLP.ligand.clash>
0.0000

> <Gold.PLP.ligand.torsion>
0.5726

> <Gold.PLP.Chemscore.Hbond>
1.2653

> <Gold.PLP.Chemscore.CHOScore>
1.0000

> <Gold.PLP.Chemscore.Metal>
0.0000

> <Gold.Chemscore.Hbonds>
donor molecule, donor type, donor heavy atom, donor atom, acceptor molecule, acceptor atom, score
      P1  H  7989  7998       L1     1  0.23
      P1  H  7997  8010       L1     1  1.00
      L1  C    18    34       P1  8028  0.98

> <Gold.PLP.Chemscore.Internal.Correction>
0.0376

> <Gold.Rescore>
     Score         DG    S(hbond)    S(metal)    S(lipo)     H(rot)  DE(clash)    DE(int)     intcor
     13.25     -15.32       0.99        0.00      98.46       1.95       0.14       1.94       ----

> <Gold.Chemscore.Fitness>
13.2454

> <Gold.Chemscore.DG>
-15.3222

> <Gold.Chemscore.ZeroCoef>
-5.4800

> <Gold.Chemscore.Hbond>
0.9925

> <Gold.Chemscore.Metal>
0.0000

> <Gold.Chemscore.Lipo>
98.4609

> <Gold.Chemscore.Internal_Hbond>
0.0000

> <Gold.Chemscore.DEClash>
0.1373

> <Gold.Chemscore.DEInternal>
1.9396

> <Gold.Chemscore.Rot>
1.9503

> <Gold.Chemscore.Internal.Correction>
   9.000000E+99

> <Gold.Chemscore.Hbonds>
donor molecule, donor type, donor heavy atom, donor atom, acceptor molecule, acceptor atom, score
      P1  H  7989  7998       L1     1  0.02
      P1  H  7997  8010       L1     1  0.95

> <Gold.Chemscore.Hbond.Weighted>
-3.3151

> <Gold.Chemscore.Metal.Weighted>
-0.0000

> <Gold.Chemscore.Lipo.Weighted>
-11.5199

> <Gold.Chemscore.Internal_Hbond.Weighted>
0.0000

> <Gold.Chemscore.DEClash.Weighted>
0.1373

> <Gold.Chemscore.DEInternal.Weighted>
1.9396

> <Gold.Chemscore.Rot.Weighted>
4.9928

> <Gold.Chemscore.Internal.Correction.Weighted>
   9.000000E+99

> <Gold.Protein.RotatedTorsions>
[ 6907 6896 6895 6894 ] final  118.21 input  -60.11 | X-H torsion
[ 7974 7965 7964 7962 ] final  -80.87 input  175.53 | X-H torsion
[ 8008 7997 7996 7995 ] final   91.04 input   59.86 | X-H torsion
[ 10167 10162 10161 10158 ] final -135.29 input  -65.29 | X-H torsion
[ 10718 10713 10712 10709 ] final   -5.64 input   66.30 | X-H torsion
[ 10763 10752 10751 10750 ] final   79.90 input  -60.55 | X-H torsion
[ 11005 11000 10999 10996 ] final   26.57 input  -57.11 | X-H torsion

> <Gold.Protein.ActiveResidues>
 VAL166  LYS551  ARG553  GLY616  TRP617  ASP618  TYR619  PRO620  LYS621  CYS622 
 ASP623  PHE694  ASN695  SER759  ASP760  ASP761  ALA762  ILE779  LEU786  VAL792 
 PHE793  MET794  SER795  GLU796  ALA797  LYS798  CYS799  TRP800  GLU811  SER814 

> <Gold.Protein.RotatedAtoms>
  152.4559  133.7721  159.6804 H   0  0  0  0  0  0  0  0  0  0  0  0  # atno 6907 bound_to 6896
  150.8485  133.7814  159.3040 H   0  0  0  0  0  0  0  0  0  0  0  0  # atno 6908 bound_to 6896
  151.5417  135.1071  159.9980 H   0  0  0  0  0  0  0  0  0  0  0  0  # atno 6909 bound_to 6896
  145.5541  140.9492  143.1483 H   0  0  0  0  0  0  0  0  0  0  0  0  # atno 7974 bound_to 7965
  156.0191  140.3342  155.7020 H   0  0  0  0  0  0  0  0  0  0  0  0  # atno 8008 bound_to 7997
  155.6048  140.0659  157.2740 H   0  0  0  0  0  0  0  0  0  0  0  0  # atno 8009 bound_to 7997
  154.4309  140.1804  156.1199 H   0  0  0  0  0  0  0  0  0  0  0  0  # atno 8010 bound_to 7997
  139.8793  143.6858  152.2629 H   0  0  0  0  0  0  0  0  0  0  0  0  # atno 10167 bound_to 10162
  156.7437  130.5217  149.5819 H   0  0  0  0  0  0  0  0  0  0  0  0  # atno 10718 bound_to 10713
  153.0989  135.4823  154.8831 H   0  0  0  0  0  0  0  0  0  0  0  0  # atno 10763 bound_to 10752
  154.7357  135.3070  154.8818 H   0  0  0  0  0  0  0  0  0  0  0  0  # atno 10764 bound_to 10752
  153.9441  135.6831  153.4797 H   0  0  0  0  0  0  0  0  0  0  0  0  # atno 10765 bound_to 10752
  140.3356  134.2389  155.7696 H   0  0  0  0  0  0  0  0  0  0  0  0  # atno 11005 bound_to 11000
  144.7515  139.7183  143.7271 LP  0  0  0  0  0  0  0  0  0  0  0  0  # atno 17320 bound_to 7965
  146.1896  139.5129  142.9814 LP  0  0  0  0  0  0  0  0  0  0  0  0  # atno 17321 bound_to 7965
  139.7210  144.7602  151.0955 LP  0  0  0  0  0  0  0  0  0  0  0  0  # atno 17342 bound_to 10162
  140.7747  143.5207  150.9540 LP  0  0  0  0  0  0  0  0  0  0  0  0  # atno 17343 bound_to 10162
  156.1448  130.6269  151.0516 LP  0  0  0  0  0  0  0  0  0  0  0  0  # atno 17370 bound_to 10713
  157.6807  131.0838  150.7376 LP  0  0  0  0  0  0  0  0  0  0  0  0  # atno 17371 bound_to 10713
  141.2052  133.7866  157.0246 LP  0  0  0  0  0  0  0  0  0  0  0  0  # atno 17394 bound_to 11000
  140.0824  134.9640  157.1645 LP  0  0  0  0  0  0  0  0  0  0  0  0  # atno 17395 bound_to 11000

$$$$
