AV-unprocessed.smi:2558|AV-procd|sdf|10032|dock1
  -GOLD-   2272014 73D 1   1.00000     0.00000
 Structure written by MMmdl.
 43 44  0  0  0  0  0  0  0  0  1 V2000
  148.5067  137.8100  157.4704 C   0  0  0  0  0  0  0  0  0  0  0  0
  149.0726  136.1031  157.8623 S   0  0  0  0  0  0  0  0  0  0  0  0
  149.2962  135.3882  156.5956 O   0  0  0  0  0  0  0  0  0  0  0  0
  150.1708  136.1923  158.8373 O   0  0  0  0  0  0  0  0  0  0  0  0
  147.6741  135.4200  158.6700 N   0  0  0  0  0  0  0  0  0  0  0  0
  146.4362  135.1817  158.0204 C   0  0  0  0  0  0  0  0  0  0  0  0
  145.4028  134.9992  158.6681 O   0  0  0  0  0  0  0  0  0  0  0  0
  146.4695  135.2863  156.6749 N   0  0  0  0  0  0  0  0  0  0  0  0
  145.4469  135.1737  155.8053 C   0  0  0  0  0  0  0  0  0  0  0  0
  144.2700  134.9819  156.1155 O   0  0  0  0  0  0  0  0  0  0  0  0
  145.8932  135.3208  154.5450 N   0  0  0  0  0  0  0  0  0  0  0  0
  145.1603  135.2875  153.3275 C   0  0  0  0  0  0  0  0  0  0  0  0
  145.7560  135.8667  152.1880 C   0  0  0  0  0  0  0  0  0  0  0  0
  145.0647  135.8402  150.9623 C   0  0  0  0  0  0  0  0  0  0  0  0
  143.7993  135.2242  150.9210 C   0  0  0  0  0  0  0  0  0  0  0  0
  143.2203  134.6514  151.9970 N   0  0  0  0  0  0  0  0  0  0  0  0
  143.8887  134.6811  153.1703 C   0  0  0  0  0  0  0  0  0  0  0  0
  147.7938  135.2351  160.1443 C   0  0  0  0  0  0  0  0  0  0  0  0
  147.1706  133.9070  160.6249 C   0  0  0  0  0  0  0  0  0  0  0  0
  147.4044  133.7096  162.1318 C   0  0  0  0  0  0  0  0  0  0  0  0
  146.8905  134.9124  162.9418 C   0  0  0  0  0  0  0  0  0  0  0  0
  147.5281  136.2282  162.4629 C   0  0  0  0  0  0  0  0  0  0  0  0
  147.2896  136.4486  160.9603 C   0  0  0  0  0  0  0  0  0  0  0  0
  149.3064  138.3486  156.9626 H   0  0  0  0  0  0  0  0  0  0  0  0
  148.2516  138.3304  158.3934 H   0  0  0  0  0  0  0  0  0  0  0  0
  147.6308  137.7694  156.8237 H   0  0  0  0  0  0  0  0  0  0  0  0
  147.3779  135.4558  156.2697 H   0  0  0  0  0  0  0  0  0  0  0  0
  146.8749  135.5347  154.4477 H   0  0  0  0  0  0  0  0  0  0  0  0
  146.7300  136.3302  152.2504 H   0  0  0  0  0  0  0  0  0  0  0  0
  145.4941  136.2815  150.0750 H   0  0  0  0  0  0  0  0  0  0  0  0
  143.2399  135.1860  149.9981 H   0  0  0  0  0  0  0  0  0  0  0  0
  143.3837  134.1855  153.9840 H   0  0  0  0  0  0  0  0  0  0  0  0
  148.8555  135.1669  160.3801 H   0  0  0  0  0  0  0  0  0  0  0  0
  146.0988  133.8852  160.4313 H   0  0  0  0  0  0  0  0  0  0  0  0
  147.6019  133.0710  160.0735 H   0  0  0  0  0  0  0  0  0  0  0  0
  146.9106  132.7973  162.4672 H   0  0  0  0  0  0  0  0  0  0  0  0
  148.4695  133.5707  162.3211 H   0  0  0  0  0  0  0  0  0  0  0  0
  145.8056  134.9775  162.8494 H   0  0  0  0  0  0  0  0  0  0  0  0
  147.1017  134.7628  164.0010 H   0  0  0  0  0  0  0  0  0  0  0  0
  147.1219  137.0664  163.0296 H   0  0  0  0  0  0  0  0  0  0  0  0
  148.5998  136.2096  162.6654 H   0  0  0  0  0  0  0  0  0  0  0  0
  147.7986  137.3568  160.6356 H   0  0  0  0  0  0  0  0  0  0  0  0
  146.2244  136.6156  160.8025 H   0  0  0  0  0  0  0  0  0  0  0  0
  1  2  1  0  0  0  0
  1 24  1  0  0  0  0
  1 25  1  0  0  0  0
  1 26  1  0  0  0  0
  2  3  2  0  0  0  0
  2  4  2  0  0  0  0
  2  5  1  0  0  0  0
  5  6  1  0  0  0  0
  5 18  1  0  0  0  0
  6  7  2  0  0  0  0
  6  8  1  0  0  0  0
  8  9  1  0  0  0  0
  8 27  1  0  0  0  0
  9 10  2  0  0  0  0
  9 11  1  0  0  0  0
 11 12  1  0  0  0  0
 11 28  1  0  0  0  0
 12 17  1  0  0  0  0
 12 13  2  0  0  0  0
 13 14  1  0  0  0  0
 13 29  1  0  0  0  0
 14 15  2  0  0  0  0
 14 30  1  0  0  0  0
 15 16  1  0  0  0  0
 15 31  1  0  0  0  0
 16 17  2  0  0  0  0
 17 32  1  0  0  0  0
 18 23  1  0  0  0  0
 18 19  1  0  0  0  0
 18 33  1  0  0  0  0
 19 20  1  0  0  0  0
 19 34  1  0  0  0  0
 19 35  1  0  0  0  0
 20 21  1  0  0  0  0
 20 36  1  0  0  0  0
 20 37  1  0  0  0  0
 21 22  1  0  0  0  0
 21 38  1  0  0  0  0
 21 39  1  0  0  0  0
 22 23  1  0  0  0  0
 22 40  1  0  0  0  0
 22 41  1  0  0  0  0
 23 42  1  0  0  0  0
 23 43  1  0  0  0  0
M  END
> <s_m_source_file>
AV-unprocessed.smi

> <i_m_source_file_index>
2558

> <i_lp_mmshare_version>
43012

> <i_f3d_flags>
0

> <s_epik_input>
W0NIMl0xW0NIMl1bQ0gyXVtDSDJdW0NIMl1bQ0hdMU4oUyg9TykoPU8pW0NIM10pQyg9TylbTkhdQyg9TylbTkhdYzJbY0hdW2NIXVtjSF1uW2NIXTI=

> <s_epik_cmdline>
J2VwaWtfcHl0aG9uJywgJy1waCcsICc3LjAnLCAnLXRuJywgJzgnLCAnLW1hJywgJzIwMCcsICctbWV0YWxfYmluZGluZycsICctaW1hZScsICc8aW5maWxlLm1hZT4nLCAnLW9tYWUnLCAnPG91dGZpbGUubWFlPic=

> <r_epik_Ionization_Penalty>
0.00647128

> <r_epik_Ionization_Penalty_Charging>
0

> <r_epik_Ionization_Penalty_Neutral>
0.00647128

> <r_epik_State_Penalty>
0.00476147

> <r_epik_Charging_Adjusted_Penalty>
0.00476147

> <i_epik_Tot_Q>
0

> <i_epik_Tot_abs_Q>
0

> <r_epik_Metal_State_Penalty>
0.0176635

> <b_epik_Metal_Only>
0

> <s_lp_Force_Field>
OPLS_2005

> <r_lp_Energy>
21.3267

> <b_lp_Chiralities_Consistent>
1

> <s_lp_Variant>
AV-unprocessed.smi:2558-1

> <Gold.Version>
5.8.1

> <Gold.Id.Protein>
6NUR|6NUR_protein|mol2

> <Gold.PLP.Fitness>
36.0319

> <Gold.PLP.PLP>
-28.3702

> <Gold.PLP.part.hbond>
-1.0000

> <Gold.PLP.part.metal>
0.0000

> <Gold.PLP.part.buried>
-3.4531

> <Gold.PLP.part.nonpolar>
-24.6462

> <Gold.PLP.part.repulsive>
0.2437

> <Gold.PLP.ligand.clash>
0.0000

> <Gold.PLP.ligand.torsion>
1.7455

> <Gold.PLP.Chemscore.Hbond>
1.0000

> <Gold.PLP.Chemscore.CHOScore>
1.9996

> <Gold.PLP.Chemscore.Metal>
0.0000

> <Gold.Chemscore.Hbonds>
donor molecule, donor type, donor heavy atom, donor atom, acceptor molecule, acceptor atom, score
      P1  H  6896  6907       L1     4  1.00
      L1  C    15    31       P1 10186  1.00
      L1  C    17    32       P1 10957  0.70

> <Gold.PLP.Chemscore.Internal.Correction>
2.1540

> <Gold.Rescore>
     Score         DG    S(hbond)    S(metal)    S(lipo)     H(rot)  DE(clash)    DE(int)     intcor
     11.04     -14.26       0.98        0.00      69.02       1.00       0.02       3.21       ----

> <Gold.Chemscore.Fitness>
11.0361

> <Gold.Chemscore.DG>
-14.2621

> <Gold.Chemscore.ZeroCoef>
-5.4800

> <Gold.Chemscore.Hbond>
0.9779

> <Gold.Chemscore.Metal>
0.0000

> <Gold.Chemscore.Lipo>
69.0238

> <Gold.Chemscore.Internal_Hbond>
0.0000

> <Gold.Chemscore.DEClash>
0.0163

> <Gold.Chemscore.DEInternal>
3.2097

> <Gold.Chemscore.Rot>
1.0000

> <Gold.Chemscore.Internal.Correction>
   9.000000E+99

> <Gold.Chemscore.Hbonds>
donor molecule, donor type, donor heavy atom, donor atom, acceptor molecule, acceptor atom, score
      P1  H  6896  6907       L1     4  0.99

> <Gold.Chemscore.Hbond.Weighted>
-3.2663

> <Gold.Chemscore.Metal.Weighted>
-0.0000

> <Gold.Chemscore.Lipo.Weighted>
-8.0758

> <Gold.Chemscore.Internal_Hbond.Weighted>
0.0000

> <Gold.Chemscore.DEClash.Weighted>
0.0163

> <Gold.Chemscore.DEInternal.Weighted>
3.2097

> <Gold.Chemscore.Rot.Weighted>
2.5600

> <Gold.Chemscore.Internal.Correction.Weighted>
   9.000000E+99

> <Gold.Protein.RotatedTorsions>
[ 6907 6896 6895 6894 ] final  -42.58 input  -60.11 | X-H torsion
[ 7974 7965 7964 7962 ] final   74.82 input  175.53 | X-H torsion
[ 8008 7997 7996 7995 ] final  166.39 input   59.86 | X-H torsion
[ 10167 10162 10161 10158 ] final  -17.59 input  -65.29 | X-H torsion
[ 10718 10713 10712 10709 ] final  121.83 input   66.30 | X-H torsion
[ 10763 10752 10751 10750 ] final -167.65 input  -60.55 | X-H torsion
[ 11005 11000 10999 10996 ] final -119.31 input  -57.11 | X-H torsion

> <Gold.Protein.ActiveResidues>
 VAL166  LYS551  ARG553  GLY616  TRP617  ASP618  TYR619  PRO620  LYS621  CYS622 
 ASP623  PHE694  ASN695  SER759  ASP760  ASP761  ALA762  ILE779  LEU786  VAL792 
 PHE793  MET794  SER795  GLU796  ALA797  LYS798  CYS799  TRP800  GLU811  SER814 

> <Gold.Protein.RotatedAtoms>
  150.9536  134.8933  159.7686 H   0  0  0  0  0  0  0  0  0  0  0  0  # atno 6907 bound_to 6896
  152.5129  134.3772  159.9348 H   0  0  0  0  0  0  0  0  0  0  0  0  # atno 6908 bound_to 6896
  151.3787  133.3788  159.2742 H   0  0  0  0  0  0  0  0  0  0  0  0  # atno 6909 bound_to 6896
  145.7235  139.2657  143.1582 H   0  0  0  0  0  0  0  0  0  0  0  0  # atno 7974 bound_to 7965
  156.1722  140.1645  156.8426 H   0  0  0  0  0  0  0  0  0  0  0  0  # atno 8008 bound_to 7997
  154.5269  140.0765  156.8309 H   0  0  0  0  0  0  0  0  0  0  0  0  # atno 8009 bound_to 7997
  155.3488  140.3389  155.4241 H   0  0  0  0  0  0  0  0  0  0  0  0  # atno 8010 bound_to 7997
  140.7249  143.5000  150.9882 H   0  0  0  0  0  0  0  0  0  0  0  0  # atno 10167 bound_to 10162
  157.5788  131.1077  150.8227 H   0  0  0  0  0  0  0  0  0  0  0  0  # atno 10718 bound_to 10713
  154.6710  135.2939  154.9741 H   0  0  0  0  0  0  0  0  0  0  0  0  # atno 10763 bound_to 10752
  154.0769  135.6610  153.4836 H   0  0  0  0  0  0  0  0  0  0  0  0  # atno 10764 bound_to 10752
  153.0487  135.5188  154.7706 H   0  0  0  0  0  0  0  0  0  0  0  0  # atno 10765 bound_to 10752
  141.0224  134.0104  157.3263 H   0  0  0  0  0  0  0  0  0  0  0  0  # atno 11005 bound_to 11000
  146.0604  140.7977  142.9737 LP  0  0  0  0  0  0  0  0  0  0  0  0  # atno 17320 bound_to 7965
  144.6911  140.3188  143.7236 LP  0  0  0  0  0  0  0  0  0  0  0  0  # atno 17321 bound_to 7965
  139.8709  143.7194  152.3166 LP  0  0  0  0  0  0  0  0  0  0  0  0  # atno 17342 bound_to 10162
  139.7442  144.7551  151.0605 LP  0  0  0  0  0  0  0  0  0  0  0  0  # atno 17343 bound_to 10162
  156.8679  130.5136  149.5299 LP  0  0  0  0  0  0  0  0  0  0  0  0  # atno 17370 bound_to 10713
  156.0833  130.5838  150.9603 LP  0  0  0  0  0  0  0  0  0  0  0  0  # atno 17371 bound_to 10713
  139.9154  135.0196  156.7862 LP  0  0  0  0  0  0  0  0  0  0  0  0  # atno 17394 bound_to 11000
  140.6549  133.9697  155.7774 LP  0  0  0  0  0  0  0  0  0  0  0  0  # atno 17395 bound_to 11000

$$$$
