AV-unprocessed.smi:3068|AV-procd|sdf|11701|dock1
  -GOLD-   2272017103D 1   1.00000     0.00000
 Structure written by MMmdl.
 40 42  0  0  0  0  0  0  0  0  2 V2000
  148.6394  142.0023  154.0309 N   0  0  0  0  0  0  0  0  0  0  0  0
  149.2119  141.0791  154.4302 C   0  0  0  0  0  0  0  0  0  0  0  0
  149.9325  139.9160  154.9319 C   0  0  0  0  0  0  0  0  0  0  0  0
  150.7231  139.2641  154.0482 N   0  0  0  0  0  0  0  0  0  0  0  0
  151.3974  138.1853  154.4998 C   0  0  0  0  0  0  0  0  0  0  0  0
  151.2854  137.7514  155.8348 C   0  0  0  0  0  0  0  0  0  0  0  0
  150.4979  138.3944  156.7231 N   0  0  0  0  0  0  0  0  0  0  0  0
  149.8142  139.4805  156.2823 C   0  0  0  0  0  0  0  0  0  0  0  0
  148.9886  140.1617  157.1964 N   0  0  0  0  0  0  0  0  0  0  0  0
  149.0767  141.6042  157.3915 C   0  0  0  0  0  0  0  0  0  0  0  0
  150.5225  142.0807  157.6114 C   0  0  1  0  0  0  0  0  0  0  0  0
  150.5681  143.4466  158.3193 C   0  0  0  0  0  0  0  0  0  0  0  0
  151.9704  143.8417  158.6016 N   0  3  1  0  0  0  0  0  0  0  0  0
  152.1025  145.1790  159.2366 C   0  0  0  0  0  0  0  0  0  0  0  0
  151.7054  145.1594  160.7254 C   0  0  0  0  0  0  0  0  0  0  0  0
  152.4909  144.0871  161.4925 C   0  0  0  0  0  0  0  0  0  0  0  0
  152.3284  142.7180  160.8169 C   0  0  0  0  0  0  0  0  0  0  0  0
  152.7260  142.7825  159.3257 C   0  0  1  0  0  0  0  0  0  0  0  0
  152.5631  141.4284  158.6078 C   0  0  0  0  0  0  0  0  0  0  0  0
  151.1842  141.1265  158.4349 O   0  0  0  0  0  0  0  0  0  0  0  0
  152.0276  137.6662  153.7931 H   0  0  0  0  0  0  0  0  0  0  0  0
  151.8272  136.8876  156.1904 H   0  0  0  0  0  0  0  0  0  0  0  0
  148.3864  139.6309  157.8100 H   0  0  0  0  0  0  0  0  0  0  0  0
  148.6342  142.1139  156.5350 H   0  0  0  0  0  0  0  0  0  0  0  0
  148.4632  141.8730  158.2518 H   0  0  0  0  0  0  0  0  0  0  0  0
  151.0353  142.1567  156.6509 H   0  0  0  0  0  0  0  0  0  0  0  0
  150.1010  144.2045  157.6893 H   0  0  0  0  0  0  0  0  0  0  0  0
  149.9904  143.4043  159.2429 H   0  0  0  0  0  0  0  0  0  0  0  0
  153.1412  145.4990  159.1444 H   0  0  0  0  0  0  0  0  0  0  0  0
  151.5066  145.9115  158.6908 H   0  0  0  0  0  0  0  0  0  0  0  0
  151.8876  146.1386  161.1688 H   0  0  0  0  0  0  0  0  0  0  0  0
  150.6357  144.9753  160.8276 H   0  0  0  0  0  0  0  0  0  0  0  0
  153.5469  144.3586  161.5246 H   0  0  0  0  0  0  0  0  0  0  0  0
  152.1501  144.0392  162.5271 H   0  0  0  0  0  0  0  0  0  0  0  0
  152.9445  141.9818  161.3345 H   0  0  0  0  0  0  0  0  0  0  0  0
  151.2977  142.3775  160.9221 H   0  0  0  0  0  0  0  0  0  0  0  0
  153.7822  143.0525  159.2796 H   0  0  0  0  0  0  0  0  0  0  0  0
  153.0603  141.4446  157.6365 H   0  0  0  0  0  0  0  0  0  0  0  0
  153.0333  140.6315  159.1844 H   0  0  0  0  0  0  0  0  0  0  0  0
  152.4079  143.9222  157.6947 H   0  0  0  0  0  0  0  0  0  0  0  0
  1  2  3  0  0  0  0
  2  3  1  0  0  0  0
  3  8  1  0  0  0  0
  3  4  2  0  0  0  0
  4  5  1  0  0  0  0
  5  6  2  0  0  0  0
  5 21  1  0  0  0  0
  6  7  1  0  0  0  0
  6 22  1  0  0  0  0
  7  8  2  0  0  0  0
  8  9  1  0  0  0  0
  9 10  1  0  0  0  0
  9 23  1  0  0  0  0
 10 11  1  0  0  0  0
 10 24  1  0  0  0  0
 10 25  1  0  0  0  0
 11 20  1  0  0  0  0
 11 12  1  0  0  0  0
 11 26  1  0  0  0  0
 12 13  1  0  0  0  0
 12 27  1  0  0  0  0
 12 28  1  0  0  0  0
 13 18  1  0  0  0  0
 13 14  1  0  0  0  0
 13 40  1  0  0  0  0
 14 15  1  0  0  0  0
 14 29  1  0  0  0  0
 14 30  1  0  0  0  0
 15 16  1  0  0  0  0
 15 31  1  0  0  0  0
 15 32  1  0  0  0  0
 16 17  1  0  0  0  0
 16 33  1  0  0  0  0
 16 34  1  0  0  0  0
 17 18  1  0  0  0  0
 17 35  1  0  0  0  0
 17 36  1  0  0  0  0
 18 19  1  0  0  0  0
 18 37  1  0  0  0  0
 19 20  1  0  0  0  0
 19 38  1  0  0  0  0
 19 39  1  0  0  0  0
M  CHG  1  13   1
M  END
> <s_m_source_file>
AV-unprocessed.smi

> <i_m_source_file_index>
3068

> <i_lp_mmshare_version>
43012

> <i_f3d_flags>
0

> <s_epik_input>
TiNDYzFuW2NIXVtjSF1uYzFbTkhdW0NIMl1bQ0BIXShbQ0gyXTIpT1tDSDJdW0NAQEhdKE4yMylbQ0gyXVtDSDJdW0NIMl1bQ0gyXTM=

> <s_epik_cmdline>
J2VwaWtfcHl0aG9uJywgJy1waCcsICc3LjAnLCAnLXRuJywgJzgnLCAnLW1hJywgJzIwMCcsICctbWV0YWxfYmluZGluZycsICctaW1hZScsICc8aW5maWxlLm1hZT4nLCAnLW9tYWUnLCAnPG91dGZpbGUubWFlPic=

> <r_epik_Ionization_Penalty>
0.0804321

> <r_epik_Ionization_Penalty_Charging>
0.0803403

> <r_epik_Ionization_Penalty_Neutral>
9.17277e-05

> <r_epik_State_Penalty>
0.0711481

> <r_epik_Charging_Adjusted_Penalty>
0.151488

> <i_epik_Tot_Q>
1

> <i_epik_Tot_abs_Q>
1

> <r_epik_Metal_State_Penalty>
0.0711481

> <b_epik_Metal_Only>
0

> <s_lp_Force_Field>
OPLS_2005

> <r_lp_Energy>
39.2156

> <b_lp_Chiralities_Consistent>
1

> <s_lp_Variant>
AV-unprocessed.smi:3068-4

> <Gold.Version>
5.8.1

> <Gold.Id.Protein>
6NUR|6NUR_protein|mol2

> <Gold.PLP.Fitness>
39.9762

> <Gold.PLP.PLP>
-38.0963

> <Gold.PLP.part.hbond>
-2.0000

> <Gold.PLP.part.metal>
0.0000

> <Gold.PLP.part.buried>
-5.2324

> <Gold.PLP.part.nonpolar>
-31.0370

> <Gold.PLP.part.repulsive>
0.4755

> <Gold.PLP.ligand.clash>
0.0000

> <Gold.PLP.ligand.torsion>
0.7134

> <Gold.PLP.Chemscore.Hbond>
1.1015

> <Gold.PLP.Chemscore.CHOScore>
0.0000

> <Gold.PLP.Chemscore.Metal>
0.0000

> <Gold.Chemscore.Hbonds>
donor molecule, donor type, donor heavy atom, donor atom, acceptor molecule, acceptor atom, score
      P1  H  7989  7998       L1     4  0.70
      P1  H  8011  8017       L1     1  0.36

> <Gold.PLP.Chemscore.Internal.Correction>
0.0021

> <Gold.Rescore>
     Score         DG    S(hbond)    S(metal)    S(lipo)     H(rot)  DE(clash)    DE(int)     intcor
     15.12     -16.91       0.66        0.00     107.81       1.32       0.14       1.65       ----

> <Gold.Chemscore.Fitness>
15.1205

> <Gold.Chemscore.DG>
-16.9119

> <Gold.Chemscore.ZeroCoef>
-5.4800

> <Gold.Chemscore.Hbond>
0.6574

> <Gold.Chemscore.Metal>
0.0000

> <Gold.Chemscore.Lipo>
107.8079

> <Gold.Chemscore.Internal_Hbond>
0.0000

> <Gold.Chemscore.DEClash>
0.1372

> <Gold.Chemscore.DEInternal>
1.6541

> <Gold.Chemscore.Rot>
1.3193

> <Gold.Chemscore.Internal.Correction>
   9.000000E+99

> <Gold.Chemscore.Hbonds>
donor molecule, donor type, donor heavy atom, donor atom, acceptor molecule, acceptor atom, score
      P1  H  7989  7998       L1     4  0.07
      P1  H  8011  8017       L1     1  0.09

> <Gold.Chemscore.Hbond.Weighted>
-2.1957

> <Gold.Chemscore.Metal.Weighted>
-0.0000

> <Gold.Chemscore.Lipo.Weighted>
-12.6135

> <Gold.Chemscore.Internal_Hbond.Weighted>
0.0000

> <Gold.Chemscore.DEClash.Weighted>
0.1372

> <Gold.Chemscore.DEInternal.Weighted>
1.6541

> <Gold.Chemscore.Rot.Weighted>
3.3774

> <Gold.Chemscore.Internal.Correction.Weighted>
   9.000000E+99

> <Gold.Protein.RotatedTorsions>
[ 6907 6896 6895 6894 ] final  -11.91 input  -60.11 | X-H torsion
[ 7974 7965 7964 7962 ] final   13.94 input  175.53 | X-H torsion
[ 8008 7997 7996 7995 ] final   97.38 input   59.86 | X-H torsion
[ 10167 10162 10161 10158 ] final  -15.89 input  -65.29 | X-H torsion
[ 10718 10713 10712 10709 ] final   74.19 input   66.30 | X-H torsion
[ 10763 10752 10751 10750 ] final   56.47 input  -60.55 | X-H torsion
[ 11005 11000 10999 10996 ] final   81.46 input  -57.11 | X-H torsion

> <Gold.Protein.ActiveResidues>
 VAL166  LYS551  ARG553  GLY616  TRP617  ASP618  TYR619  PRO620  LYS621  CYS622 
 ASP623  PHE694  ASN695  SER759  ASP760  ASP761  ALA762  ILE779  LEU786  VAL792 
 PHE793  MET794  SER795  GLU796  ALA797  LYS798  CYS799  TRP800  GLU811  SER814 

> <Gold.Protein.RotatedAtoms>
  151.3787  135.0936  159.9488 H   0  0  0  0  0  0  0  0  0  0  0  0  # atno 6907 bound_to 6896
  152.5114  133.9093  159.7490 H   0  0  0  0  0  0  0  0  0  0  0  0  # atno 6908 bound_to 6896
  150.9522  133.6482  159.2799 H   0  0  0  0  0  0  0  0  0  0  0  0  # atno 6909 bound_to 6896
  146.2317  139.9114  142.8524 H   0  0  0  0  0  0  0  0  0  0  0  0  # atno 7974 bound_to 7965
  156.0895  140.3259  155.7797 H   0  0  0  0  0  0  0  0  0  0  0  0  # atno 8008 bound_to 7997
  155.5020  140.0570  157.2955 H   0  0  0  0  0  0  0  0  0  0  0  0  # atno 8009 bound_to 7997
  154.4629  140.1975  156.0212 H   0  0  0  0  0  0  0  0  0  0  0  0  # atno 8010 bound_to 7997
  140.7225  143.5172  150.9677 H   0  0  0  0  0  0  0  0  0  0  0  0  # atno 10167 bound_to 10162
  157.6581  130.9666  150.1176 H   0  0  0  0  0  0  0  0  0  0  0  0  # atno 10718 bound_to 10713
  152.9832  135.5675  154.5233 H   0  0  0  0  0  0  0  0  0  0  0  0  # atno 10763 bound_to 10752
  154.4718  135.2785  155.1639 H   0  0  0  0  0  0  0  0  0  0  0  0  # atno 10764 bound_to 10752
  154.3184  135.6274  153.5550 H   0  0  0  0  0  0  0  0  0  0  0  0  # atno 10765 bound_to 10752
  139.9097  134.7998  156.2045 H   0  0  0  0  0  0  0  0  0  0  0  0  # atno 11005 bound_to 11000
  145.2226  140.9941  143.4037 LP  0  0  0  0  0  0  0  0  0  0  0  0  # atno 17320 bound_to 7965
  144.9597  139.3993  143.6361 LP  0  0  0  0  0  0  0  0  0  0  0  0  # atno 17321 bound_to 7965
  139.8888  143.6979  152.3148 LP  0  0  0  0  0  0  0  0  0  0  0  0  # atno 17342 bound_to 10162
  139.7288  144.7587  151.0836 LP  0  0  0  0  0  0  0  0  0  0  0  0  # atno 17343 bound_to 10162
  156.2056  130.3663  149.8733 LP  0  0  0  0  0  0  0  0  0  0  0  0  # atno 17370 bound_to 10713
  156.6626  130.8788  151.3549 LP  0  0  0  0  0  0  0  0  0  0  0  0  # atno 17371 bound_to 10713
  141.0504  133.6891  156.1761 LP  0  0  0  0  0  0  0  0  0  0  0  0  # atno 17394 bound_to 11000
  140.6819  134.4758  157.5589 LP  0  0  0  0  0  0  0  0  0  0  0  0  # atno 17395 bound_to 11000

$$$$
