AV-unprocessed.smi:2342|AV-procd|sdf|9355|dock9
  -GOLD-   2272012573D 1   1.00000     0.00000
 Structure written by MMmdl.
 38 38  0  0  0  0  0  0  0  0  2 V2000
  149.2928  138.4679  159.2441 C   0  0  0  0  0  0  0  0  0  0  0  0
  150.1319  137.9548  158.0545 C   0  0  1  0  0  0  0  0  0  0  0  0
  151.4073  138.8012  157.8094 C   0  0  0  0  0  0  0  0  0  0  0  0
  152.0649  139.1763  159.0558 N   0  0  0  0  0  0  0  0  0  0  0  0
  153.3879  139.1470  159.2786 C   0  0  0  0  0  0  0  0  0  0  0  0
  154.2059  138.7063  158.4713 O   0  0  0  0  0  0  0  0  0  0  0  0
  153.8618  139.7247  160.6131 C   0  0  0  0  0  0  0  0  0  0  0  0
  153.3244  141.1166  160.7834 C   0  0  0  0  0  0  0  0  0  0  0  0
  153.4425  141.9159  161.8921 C   0  0  0  0  0  0  0  0  0  0  0  0
  152.7098  143.4760  161.6475 S   0  0  0  0  0  0  0  0  0  0  0  0
  152.2483  142.9821  160.0143 C   0  0  0  0  0  0  0  0  0  0  0  0
  151.5241  143.8534  159.0165 C   0  0  0  0  0  0  0  0  0  0  0  0
  150.2675  143.1230  158.5039 C   0  0  0  0  0  0  0  0  0  0  0  0
  152.4149  144.1671  157.7951 C   0  0  0  0  0  0  0  0  0  0  0  0
  151.1435  145.1956  159.6711 C   0  0  0  0  0  0  0  0  0  0  0  0
  152.6318  141.7314  159.7352 N   0  0  0  0  0  0  0  0  0  0  0  0
  150.4575  136.4603  158.2459 C   0  0  0  0  0  0  0  0  0  0  0  0
  151.1411  135.8795  157.3731 O   0  0  0  0  0  0  0  0  0  0  0  0
  150.0059  135.9113  159.2754 O   0  5  0  0  0  0  0  0  0  0  0  0
  148.4221  137.8389  159.4319 H   0  0  0  0  0  0  0  0  0  0  0  0
  148.9162  139.4729  159.0557 H   0  0  0  0  0  0  0  0  0  0  0  0
  149.8830  138.5023  160.1603 H   0  0  0  0  0  0  0  0  0  0  0  0
  149.5096  138.0144  157.1606 H   0  0  0  0  0  0  0  0  0  0  0  0
  152.1283  138.2339  157.2195 H   0  0  0  0  0  0  0  0  0  0  0  0
  151.1742  139.6996  157.2347 H   0  0  0  0  0  0  0  0  0  0  0  0
  151.4742  139.5562  159.7812 H   0  0  0  0  0  0  0  0  0  0  0  0
  153.5318  139.0758  161.4256 H   0  0  0  0  0  0  0  0  0  0  0  0
  154.9522  139.7264  160.6412 H   0  0  0  0  0  0  0  0  0  0  0  0
  153.9286  141.6868  162.8290 H   0  0  0  0  0  0  0  0  0  0  0  0
  149.7267  143.7252  157.7730 H   0  0  0  0  0  0  0  0  0  0  0  0
  149.5749  142.8992  159.3162 H   0  0  0  0  0  0  0  0  0  0  0  0
  150.5260  142.1778  158.0251 H   0  0  0  0  0  0  0  0  0  0  0  0
  152.7095  143.2592  157.2672 H   0  0  0  0  0  0  0  0  0  0  0  0
  153.3246  144.6940  158.0855 H   0  0  0  0  0  0  0  0  0  0  0  0
  151.8927  144.7999  157.0764 H   0  0  0  0  0  0  0  0  0  0  0  0
  150.6328  145.8516  158.9656 H   0  0  0  0  0  0  0  0  0  0  0  0
  152.0260  145.7243  160.0339 H   0  0  0  0  0  0  0  0  0  0  0  0
  150.4752  145.0509  160.5206 H   0  0  0  0  0  0  0  0  0  0  0  0
  1  2  1  0  0  0  0
  1 20  1  0  0  0  0
  1 21  1  0  0  0  0
  1 22  1  0  0  0  0
  2  3  1  0  0  0  0
  2 17  1  0  0  0  0
  2 23  1  0  0  0  0
  3  4  1  0  0  0  0
  3 24  1  0  0  0  0
  3 25  1  0  0  0  0
  4  5  1  0  0  0  0
  4 26  1  0  0  0  0
  5  6  2  0  0  0  0
  5  7  1  0  0  0  0
  7  8  1  0  0  0  0
  7 27  1  0  0  0  0
  7 28  1  0  0  0  0
  8 16  1  0  0  0  0
  8  9  2  0  0  0  0
  9 10  1  0  0  0  0
  9 29  1  0  0  0  0
 10 11  1  0  0  0  0
 11 12  1  0  0  0  0
 11 16  2  0  0  0  0
 12 13  1  0  0  0  0
 12 14  1  0  0  0  0
 12 15  1  0  0  0  0
 13 30  1  0  0  0  0
 13 31  1  0  0  0  0
 13 32  1  0  0  0  0
 14 33  1  0  0  0  0
 14 34  1  0  0  0  0
 14 35  1  0  0  0  0
 15 36  1  0  0  0  0
 15 37  1  0  0  0  0
 15 38  1  0  0  0  0
 17 18  2  0  0  0  0
 17 19  1  0  0  0  0
M  CHG  1  19  -1
M  END
> <s_m_source_file>
AV-unprocessed.smi

> <i_m_source_file_index>
2342

> <i_lp_mmshare_version>
43012

> <i_f3d_flags>
0

> <s_epik_input>
Tz1DKFtPSF0pW0NASF0oW0NIM10pW0NIMl1bTkhdQyg9TylbQ0gyXWMxW2NIXXNjKG4xKUMoW0NIM10pKFtDSDNdKVtDSDNd

> <s_epik_cmdline>
J2VwaWtfcHl0aG9uJywgJy1waCcsICc3LjAnLCAnLXRuJywgJzgnLCAnLW1hJywgJzIwMCcsICctbWV0YWxfYmluZGluZycsICctaW1hZScsICc8aW5maWxlLm1hZT4nLCAnLW9tYWUnLCAnPG91dGZpbGUubWFlPic=

> <r_epik_Ionization_Penalty>
0.00120065

> <r_epik_Ionization_Penalty_Charging>
0.00115909

> <r_epik_Ionization_Penalty_Neutral>
4.15663e-05

> <r_epik_State_Penalty>
0.00076313

> <r_epik_Charging_Adjusted_Penalty>
0.00192222

> <i_epik_Tot_Q>
-1

> <i_epik_Tot_abs_Q>
1

> <r_epik_Metal_State_Penalty>
-0

> <b_epik_Metal_Only>
0

> <s_lp_Force_Field>
OPLS_2005

> <r_lp_Energy>
-2.08659

> <b_lp_Chiralities_Consistent>
1

> <s_lp_Variant>
AV-unprocessed.smi:2342-2

> <Gold.Version>
5.8.1

> <Gold.Id.Protein>
6NUR|6NUR_protein|mol2

> <Gold.PLP.Fitness>
50.4471

> <Gold.PLP.PLP>
-39.0558

> <Gold.PLP.part.hbond>
-2.8619

> <Gold.PLP.part.metal>
0.0000

> <Gold.PLP.part.buried>
-5.5081

> <Gold.PLP.part.nonpolar>
-31.9233

> <Gold.PLP.part.repulsive>
0.0928

> <Gold.PLP.ligand.clash>
0.0000

> <Gold.PLP.ligand.torsion>
0.5278

> <Gold.PLP.Chemscore.Hbond>
4.1200

> <Gold.PLP.Chemscore.CHOScore>
0.0000

> <Gold.PLP.Chemscore.Metal>
0.0000

> <Gold.Chemscore.Hbonds>
donor molecule, donor type, donor heavy atom, donor atom, acceptor molecule, acceptor atom, score
      P1  H  6896  6909       L1    19  1.68
      P1  H  7997  8008       L1     6  0.86

> <Gold.PLP.Chemscore.Internal.Correction>
0.0868

> <Gold.Rescore>
     Score         DG    S(hbond)    S(metal)    S(lipo)     H(rot)  DE(clash)    DE(int)     intcor
     17.18     -19.10       2.32        0.00     102.28       2.38       0.07       1.85       ----

> <Gold.Chemscore.Fitness>
17.1768

> <Gold.Chemscore.DG>
-19.0978

> <Gold.Chemscore.ZeroCoef>
-5.4800

> <Gold.Chemscore.Hbond>
2.3195

> <Gold.Chemscore.Metal>
0.0000

> <Gold.Chemscore.Lipo>
102.2784

> <Gold.Chemscore.Internal_Hbond>
0.0000

> <Gold.Chemscore.DEClash>
0.0686

> <Gold.Chemscore.DEInternal>
1.8524

> <Gold.Chemscore.Rot>
2.3812

> <Gold.Chemscore.Internal.Correction>
   9.000000E+99

> <Gold.Chemscore.Hbonds>
donor molecule, donor type, donor heavy atom, donor atom, acceptor molecule, acceptor atom, score
      P1  H  6896  6909       L1    19  0.64
      P1  H  7997  8008       L1     6  0.77

> <Gold.Chemscore.Hbond.Weighted>
-7.7471

> <Gold.Chemscore.Metal.Weighted>
-0.0000

> <Gold.Chemscore.Lipo.Weighted>
-11.9666

> <Gold.Chemscore.Internal_Hbond.Weighted>
0.0000

> <Gold.Chemscore.DEClash.Weighted>
0.0686

> <Gold.Chemscore.DEInternal.Weighted>
1.8524

> <Gold.Chemscore.Rot.Weighted>
6.0959

> <Gold.Chemscore.Internal.Correction.Weighted>
   9.000000E+99

> <Gold.Protein.RotatedTorsions>
[ 6907 6896 6895 6894 ] final   47.52 input  -60.11 | X-H torsion
[ 7974 7965 7964 7962 ] final  -40.31 input  175.53 | X-H torsion
[ 8008 7997 7996 7995 ] final -131.56 input   59.86 | X-H torsion
[ 10167 10162 10161 10158 ] final   63.53 input  -65.29 | X-H torsion
[ 10718 10713 10712 10709 ] final  -43.92 input   66.30 | X-H torsion
[ 10763 10752 10751 10750 ] final  112.14 input  -60.55 | X-H torsion
[ 11005 11000 10999 10996 ] final  158.41 input  -57.11 | X-H torsion

> <Gold.Protein.ActiveResidues>
 VAL166  LYS551  ARG553  GLY616  TRP617  ASP618  TYR619  PRO620  LYS621  CYS622 
 ASP623  PHE694  ASN695  SER759  ASP760  ASP761  ALA762  ILE779  LEU786  VAL792 
 PHE793  MET794  SER795  GLU796  ALA797  LYS798  CYS799  TRP800  GLU811  SER814 

> <Gold.Protein.RotatedAtoms>
  152.2690  134.7953  160.0417 H   0  0  0  0  0  0  0  0  0  0  0  0  # atno 6907 bound_to 6896
  151.8573  133.3445  159.3700 H   0  0  0  0  0  0  0  0  0  0  0  0  # atno 6908 bound_to 6896
  150.7144  134.5169  159.5679 H   0  0  0  0  0  0  0  0  0  0  0  0  # atno 6909 bound_to 6896
  146.0316  140.6724  142.9130 H   0  0  0  0  0  0  0  0  0  0  0  0  # atno 7974 bound_to 7965
  155.3144  140.0459  157.3036 H   0  0  0  0  0  0  0  0  0  0  0  0  # atno 8008 bound_to 7997
  154.5415  140.2289  155.8600 H   0  0  0  0  0  0  0  0  0  0  0  0  # atno 8009 bound_to 7997
  156.1885  140.3056  155.9291 H   0  0  0  0  0  0  0  0  0  0  0  0  # atno 8010 bound_to 7997
  140.1320  144.4634  150.6859 H   0  0  0  0  0  0  0  0  0  0  0  0  # atno 10167 bound_to 10162
  156.2440  130.4182  149.8727 H   0  0  0  0  0  0  0  0  0  0  0  0  # atno 10718 bound_to 10713
  153.4735  135.3695  155.2403 H   0  0  0  0  0  0  0  0  0  0  0  0  # atno 10763 bound_to 10752
  154.8756  135.3937  154.3784 H   0  0  0  0  0  0  0  0  0  0  0  0  # atno 10764 bound_to 10752
  153.4377  135.7083  153.6254 H   0  0  0  0  0  0  0  0  0  0  0  0  # atno 10765 bound_to 10752
  140.1863  134.8440  157.2861 H   0  0  0  0  0  0  0  0  0  0  0  0  # atno 11005 bound_to 11000
  144.7033  140.3746  143.7138 LP  0  0  0  0  0  0  0  0  0  0  0  0  # atno 17320 bound_to 7965
  145.7031  139.1666  143.2581 LP  0  0  0  0  0  0  0  0  0  0  0  0  # atno 17321 bound_to 7965
  140.6811  143.2327  151.5381 LP  0  0  0  0  0  0  0  0  0  0  0  0  # atno 17342 bound_to 10162
  139.5514  144.2385  152.1538 LP  0  0  0  0  0  0  0  0  0  0  0  0  # atno 17343 bound_to 10162
  156.6299  130.8661  151.3493 LP  0  0  0  0  0  0  0  0  0  0  0  0  # atno 17370 bound_to 10713
  157.7187  130.9530  150.1354 LP  0  0  0  0  0  0  0  0  0  0  0  0  # atno 17371 bound_to 10713
  140.2210  134.4023  155.7566 LP  0  0  0  0  0  0  0  0  0  0  0  0  # atno 17394 bound_to 11000
  141.2225  133.7166  156.8490 LP  0  0  0  0  0  0  0  0  0  0  0  0  # atno 17395 bound_to 11000

$$$$
