AV-unprocessed.smi:1330|AV-procd|sdf|5485|dock10
  -GOLD-   22720 5 63D 1   1.00000     0.00000
 Structure written by MMmdl.
 42 43  0  0  0  0  0  0  0  0  1 V2000
  150.4105  143.1210  158.5777 C   0  0  0  0  0  0  0  0  0  0  0  0
  151.3882  141.9818  158.6850 C   0  0  0  0  0  0  0  0  0  0  0  0
  151.1286  140.9258  157.9858 N   0  0  0  0  0  0  0  0  0  0  0  0
  151.9609  139.8250  158.0115 N   0  0  0  0  0  0  0  0  0  0  0  0
  151.5141  138.7205  157.1554 C   0  0  0  0  0  0  0  0  0  0  0  0
  152.3157  138.6524  155.8362 C   0  0  2  0  0  0  0  0  0  0  0  0
  152.5400  139.9687  155.3729 O   0  0  0  0  0  0  0  0  0  0  0  0
  151.5550  137.9022  154.7331 C   0  0  0  0  0  0  0  0  0  0  0  0
  151.7170  136.5091  154.9406 O   0  0  0  0  0  0  0  0  0  0  0  0
  150.8004  135.9750  155.8813 C   0  0  0  0  0  0  0  0  0  0  0  0
  150.4220  134.5411  155.5594 C   0  0  0  0  0  0  0  0  0  0  0  0
  150.8465  133.4821  156.3913 C   0  0  0  0  0  0  0  0  0  0  0  0
  150.5061  132.1524  156.0751 C   0  0  0  0  0  0  0  0  0  0  0  0
  149.7456  131.8741  154.9229 C   0  0  0  0  0  0  0  0  0  0  0  0
  149.3304  130.2450  154.5351 Cl  0  0  0  0  0  0  0  0  0  0  0  0
  149.3274  132.9266  154.0856 C   0  0  0  0  0  0  0  0  0  0  0  0
  149.6675  134.2565  154.4018 C   0  0  0  0  0  0  0  0  0  0  0  0
  153.1092  139.7344  158.7421 C   0  0  0  0  0  0  0  0  0  0  0  0
  153.8304  138.7356  158.7227 O   0  0  0  0  0  0  0  0  0  0  0  0
  153.3953  140.9323  159.5347 C   0  0  0  0  0  0  0  0  0  0  0  0
  154.5872  140.8787  160.3182 C   0  0  0  0  0  0  0  0  0  0  0  0
  155.5443  140.8440  160.9685 N   0  0  0  0  0  0  0  0  0  0  0  0
  152.5831  142.0189  159.5223 C   0  0  0  0  0  0  0  0  0  0  0  0
  152.8367  143.2882  160.3241 C   0  0  0  0  0  0  0  0  0  0  0  0
  150.9113  144.0323  158.2504 H   0  0  0  0  0  0  0  0  0  0  0  0
  149.9421  143.3196  159.5417 H   0  0  0  0  0  0  0  0  0  0  0  0
  149.6147  142.9085  157.8618 H   0  0  0  0  0  0  0  0  0  0  0  0
  151.6282  137.7878  157.7111 H   0  0  0  0  0  0  0  0  0  0  0  0
  150.4433  138.7876  156.9526 H   0  0  0  0  0  0  0  0  0  0  0  0
  153.2823  138.1693  155.9849 H   0  0  0  0  0  0  0  0  0  0  0  0
  151.9947  140.1156  154.6151 H   0  0  0  0  0  0  0  0  0  0  0  0
  150.4978  138.1731  154.7412 H   0  0  0  0  0  0  0  0  0  0  0  0
  151.9563  138.1672  153.7532 H   0  0  0  0  0  0  0  0  0  0  0  0
  151.2380  136.0163  156.8802 H   0  0  0  0  0  0  0  0  0  0  0  0
  149.8897  136.5754  155.8978 H   0  0  0  0  0  0  0  0  0  0  0  0
  151.4345  133.6828  157.2750 H   0  0  0  0  0  0  0  0  0  0  0  0
  150.8314  131.3469  156.7169 H   0  0  0  0  0  0  0  0  0  0  0  0
  148.7471  132.7155  153.1994 H   0  0  0  0  0  0  0  0  0  0  0  0
  149.3466  135.0578  153.7522 H   0  0  0  0  0  0  0  0  0  0  0  0
  153.7111  143.2014  160.9681 H   0  0  0  0  0  0  0  0  0  0  0  0
  151.9840  143.5168  160.9638 H   0  0  0  0  0  0  0  0  0  0  0  0
  153.0021  144.1338  159.6561 H   0  0  0  0  0  0  0  0  0  0  0  0
  1  2  1  0  0  0  0
  1 25  1  0  0  0  0
  1 26  1  0  0  0  0
  1 27  1  0  0  0  0
  2 23  1  0  0  0  0
  2  3  2  0  0  0  0
  3  4  1  0  0  0  0
  4  5  1  0  0  0  0
  4 18  1  0  0  0  0
  5  6  1  0  0  0  0
  5 28  1  0  0  0  0
  5 29  1  0  0  0  0
  6  7  1  0  0  0  0
  6  8  1  0  0  0  0
  6 30  1  0  0  0  0
  7 31  1  0  0  0  0
  8  9  1  0  0  0  0
  8 32  1  0  0  0  0
  8 33  1  0  0  0  0
  9 10  1  0  0  0  0
 10 11  1  0  0  0  0
 10 34  1  0  0  0  0
 10 35  1  0  0  0  0
 11 17  1  0  0  0  0
 11 12  2  0  0  0  0
 12 13  1  0  0  0  0
 12 36  1  0  0  0  0
 13 14  2  0  0  0  0
 13 37  1  0  0  0  0
 14 15  1  0  0  0  0
 14 16  1  0  0  0  0
 16 17  2  0  0  0  0
 16 38  1  0  0  0  0
 17 39  1  0  0  0  0
 18 19  2  0  0  0  0
 18 20  1  0  0  0  0
 20 21  1  0  0  0  0
 20 23  2  0  0  0  0
 21 22  3  0  0  0  0
 23 24  1  0  0  0  0
 24 40  1  0  0  0  0
 24 41  1  0  0  0  0
 24 42  1  0  0  0  0
M  END
> <s_m_source_file>
AV-unprocessed.smi

> <i_m_source_file_index>
1330

> <i_lp_mmshare_version>
43012

> <i_f3d_flags>
0

> <s_epik_input>
TiNDYyhjMVtDSDNdKWMoPU8pbihuYzFbQ0gzXSlbQ0gyXVtDQEhdKFtPSF0pW0NIMl1PW0NIMl1jMltjSF1bY0hdYyhDbClbY0hdW2NIXTI=

> <s_epik_cmdline>
J2VwaWtfcHl0aG9uJywgJy1waCcsICc3LjAnLCAnLXRuJywgJzgnLCAnLW1hJywgJzIwMCcsICctbWV0YWxfYmluZGluZycsICctaW1hZScsICc8aW5maWxlLm1hZT4nLCAnLW9tYWUnLCAnPG91dGZpbGUubWFlPic=

> <r_lp_tautomer_probability>
1

> <r_epik_Ionization_Penalty>
6.27695e-08

> <r_epik_Ionization_Penalty_Charging>
2.19172e-10

> <r_epik_Ionization_Penalty_Neutral>
6.25504e-08

> <r_epik_State_Penalty>
-0

> <r_epik_Charging_Adjusted_Penalty>
2.19172e-10

> <i_epik_Tot_Q>
0

> <i_epik_Tot_abs_Q>
0

> <r_epik_Metal_State_Penalty>
-0

> <b_epik_Metal_Only>
0

> <s_lp_Force_Field>
OPLS_2005

> <r_lp_Energy>
28.5495

> <b_lp_Chiralities_Consistent>
1

> <s_lp_Variant>
AV-unprocessed.smi:1330-1

> <Gold.Version>
5.8.1

> <Gold.Id.Protein>
6NUR|6NUR_protein|mol2

> <Gold.PLP.Fitness>
50.1007

> <Gold.PLP.PLP>
-45.8005

> <Gold.PLP.part.hbond>
-4.4932

> <Gold.PLP.part.metal>
0.0000

> <Gold.PLP.part.buried>
-4.6198

> <Gold.PLP.part.nonpolar>
-37.3730

> <Gold.PLP.part.repulsive>
0.1237

> <Gold.PLP.ligand.clash>
0.0000

> <Gold.PLP.ligand.torsion>
1.0372

> <Gold.PLP.Chemscore.Hbond>
2.0965

> <Gold.PLP.Chemscore.CHOScore>
0.0000

> <Gold.PLP.Chemscore.Metal>
0.0000

> <Gold.Chemscore.Hbonds>
donor molecule, donor type, donor heavy atom, donor atom, acceptor molecule, acceptor atom, score
      P1  H  7997  8009       L1    19  0.05
      P1  H  7997  8010       L1     7  1.00
      P1  H 10752 10765       L1     9  1.00

> <Gold.PLP.Chemscore.Internal.Correction>
0.0852

> <Gold.Rescore>
     Score         DG    S(hbond)    S(metal)    S(lipo)     H(rot)  DE(clash)    DE(int)     intcor
     16.78     -17.95       1.85        0.00     107.94       2.48       0.26       0.92       ----

> <Gold.Chemscore.Fitness>
16.7781

> <Gold.Chemscore.DG>
-17.9541

> <Gold.Chemscore.ZeroCoef>
-5.4800

> <Gold.Chemscore.Hbond>
1.8528

> <Gold.Chemscore.Metal>
0.0000

> <Gold.Chemscore.Lipo>
107.9365

> <Gold.Chemscore.Internal_Hbond>
0.0000

> <Gold.Chemscore.DEClash>
0.2594

> <Gold.Chemscore.DEInternal>
0.9165

> <Gold.Chemscore.Rot>
2.4777

> <Gold.Chemscore.Internal.Correction>
   9.000000E+99

> <Gold.Chemscore.Hbonds>
donor molecule, donor type, donor heavy atom, donor atom, acceptor molecule, acceptor atom, score
      P1  H  7997  8010       L1     7  0.28
      P1  H 10752 10765       L1     9  0.96

> <Gold.Chemscore.Hbond.Weighted>
-6.1884

> <Gold.Chemscore.Metal.Weighted>
-0.0000

> <Gold.Chemscore.Lipo.Weighted>
-12.6286

> <Gold.Chemscore.Internal_Hbond.Weighted>
0.0000

> <Gold.Chemscore.DEClash.Weighted>
0.2594

> <Gold.Chemscore.DEInternal.Weighted>
0.9165

> <Gold.Chemscore.Rot.Weighted>
6.3428

> <Gold.Chemscore.Internal.Correction.Weighted>
   9.000000E+99

> <Gold.Protein.RotatedTorsions>
[ 6907 6896 6895 6894 ] final  109.79 input  -60.11 | X-H torsion
[ 7974 7965 7964 7962 ] final   -5.12 input  175.53 | X-H torsion
[ 8008 7997 7996 7995 ] final  109.52 input   59.86 | X-H torsion
[ 10167 10162 10161 10158 ] final  -87.36 input  -65.29 | X-H torsion
[ 10718 10713 10712 10709 ] final   96.57 input   66.30 | X-H torsion
[ 10763 10752 10751 10750 ] final  167.91 input  -60.55 | X-H torsion
[ 11005 11000 10999 10996 ] final -147.79 input  -57.11 | X-H torsion

> <Gold.Protein.ActiveResidues>
 VAL166  LYS551  ARG553  GLY616  TRP617  ASP618  TYR619  PRO620  LYS621  CYS622 
 ASP623  PHE694  ASN695  SER759  ASP760  ASP761  ALA762  ILE779  LEU786  VAL792 
 PHE793  MET794  SER795  GLU796  ALA797  LYS798  CYS799  TRP800  GLU811  SER814 

> <Gold.Protein.RotatedAtoms>
  152.5051  133.8893  159.7385 H   0  0  0  0  0  0  0  0  0  0  0  0  # atno 6907 bound_to 6896
  150.9336  133.6729  159.2812 H   0  0  0  0  0  0  0  0  0  0  0  0  # atno 6908 bound_to 6896
  151.4065  135.0983  159.9624 H   0  0  0  0  0  0  0  0  0  0  0  0  # atno 6909 bound_to 6896
  146.2359  140.1973  142.8333 H   0  0  0  0  0  0  0  0  0  0  0  0  # atno 7974 bound_to 7965
  156.1985  140.3056  155.9477 H   0  0  0  0  0  0  0  0  0  0  0  0  # atno 8008 bound_to 7997
  155.3010  140.0446  157.3046 H   0  0  0  0  0  0  0  0  0  0  0  0  # atno 8009 bound_to 7997
  154.5540  140.2300  155.8449 H   0  0  0  0  0  0  0  0  0  0  0  0  # atno 8010 bound_to 7997
  140.3852  143.2730  151.9334 H   0  0  0  0  0  0  0  0  0  0  0  0  # atno 10167 bound_to 10162
  157.6925  131.0582  150.4511 H   0  0  0  0  0  0  0  0  0  0  0  0  # atno 10718 bound_to 10713
  154.3607  135.2753  155.2321 H   0  0  0  0  0  0  0  0  0  0  0  0  # atno 10763 bound_to 10752
  154.4511  135.5931  153.6195 H   0  0  0  0  0  0  0  0  0  0  0  0  # atno 10764 bound_to 10752
  152.9843  135.6042  154.3828 H   0  0  0  0  0  0  0  0  0  0  0  0  # atno 10765 bound_to 10752
  140.7679  134.3222  157.5083 H   0  0  0  0  0  0  0  0  0  0  0  0  # atno 11005 bound_to 11000
  144.9810  140.8459  143.5397 LP  0  0  0  0  0  0  0  0  0  0  0  0  # atno 17320 bound_to 7965
  145.1967  139.2273  143.5214 LP  0  0  0  0  0  0  0  0  0  0  0  0  # atno 17321 bound_to 7965
  139.4792  144.5781  151.7978 LP  0  0  0  0  0  0  0  0  0  0  0  0  # atno 17342 bound_to 10162
  140.4897  144.1329  150.5948 LP  0  0  0  0  0  0  0  0  0  0  0  0  # atno 17343 bound_to 10162
  156.4862  130.4085  149.6432 LP  0  0  0  0  0  0  0  0  0  0  0  0  # atno 17370 bound_to 10713
  156.3460  130.7407  151.2359 LP  0  0  0  0  0  0  0  0  0  0  0  0  # atno 17371 bound_to 10713
  139.8760  134.9243  156.3346 LP  0  0  0  0  0  0  0  0  0  0  0  0  # atno 17394 bound_to 11000
  140.9601  133.7394  156.0390 LP  0  0  0  0  0  0  0  0  0  0  0  0  # atno 17395 bound_to 11000

$$$$
