AV-unprocessed.smi:2224|AV-procd|sdf|8996|dock10
  -GOLD-   2272012203D 1   1.00000     0.00000
 Structure written by MMmdl.
 44 46  0  0  0  0  0  0  0  0  1 V2000
  153.4645  144.9190  157.3217 C   0  0  0  0  0  0  0  0  0  0  0  0
  152.5430  144.5055  158.4500 C   0  0  0  0  0  0  0  0  0  0  0  0
  153.0331  143.7901  159.5593 C   0  0  0  0  0  0  0  0  0  0  0  0
  152.1238  143.4344  160.5748 C   0  0  0  0  0  0  0  0  0  0  0  0
  152.5820  142.6649  161.7958 C   0  0  0  0  0  0  0  0  0  0  0  0
  150.8105  143.7453  160.5305 N   0  0  0  0  0  0  0  0  0  0  0  0
  150.3276  144.4338  159.4665 C   0  0  0  0  0  0  0  0  0  0  0  0
  148.9667  144.8133  159.3251 N   0  0  0  0  0  0  0  0  0  0  0  0
  147.9871  144.7557  160.2442 C   0  0  0  0  0  0  0  0  0  0  0  0
  148.1102  144.3325  161.3940 O   0  0  0  0  0  0  0  0  0  0  0  0
  146.8309  145.2115  159.7445 N   0  0  0  0  0  0  0  0  0  0  0  0
  145.5591  145.2456  160.4688 C   0  0  1  0  0  0  0  0  0  0  0  0
  144.3672  145.6480  159.5714 C   0  0  1  0  0  0  0  0  0  0  0  0
  144.5399  146.2036  158.1788 C   0  0  0  0  0  0  0  0  0  0  0  0
  144.3505  144.9676  157.2946 C   0  0  0  0  0  0  0  0  0  0  0  0
  144.5998  143.8597  158.1574 O   0  0  0  0  0  0  0  0  0  0  0  0
  144.0482  144.1682  159.4359 C   0  0  1  0  0  0  0  0  0  0  0  0
  144.9275  143.8405  160.6614 C   0  0  0  0  0  0  0  0  0  0  0  0
  145.8248  142.6008  160.5434 C   0  0  0  0  0  0  0  0  0  0  0  0
  144.1458  143.6812  161.9688 C   0  0  0  0  0  0  0  0  0  0  0  0
  151.1724  144.8309  158.4058 C   0  0  0  0  0  0  0  0  0  0  0  0
  154.5040  144.6811  157.5505 H   0  0  0  0  0  0  0  0  0  0  0  0
  153.3918  145.9927  157.1476 H   0  0  0  0  0  0  0  0  0  0  0  0
  153.1899  144.4017  156.4023 H   0  0  0  0  0  0  0  0  0  0  0  0
  154.0769  143.5207  159.6303 H   0  0  0  0  0  0  0  0  0  0  0  0
  153.6688  142.5829  161.8263 H   0  0  0  0  0  0  0  0  0  0  0  0
  152.1638  141.6582  161.7855 H   0  0  0  0  0  0  0  0  0  0  0  0
  152.2542  143.1648  162.7078 H   0  0  0  0  0  0  0  0  0  0  0  0
  148.7075  145.1670  158.4165 H   0  0  0  0  0  0  0  0  0  0  0  0
  146.8159  145.5326  158.7876 H   0  0  0  0  0  0  0  0  0  0  0  0
  145.5923  145.8316  161.3892 H   0  0  0  0  0  0  0  0  0  0  0  0
  143.6004  146.1600  160.1548 H   0  0  0  0  0  0  0  0  0  0  0  0
  143.7993  146.9690  157.9456 H   0  0  0  0  0  0  0  0  0  0  0  0
  145.5232  146.6501  158.0326 H   0  0  0  0  0  0  0  0  0  0  0  0
  143.3229  144.9102  156.9331 H   0  0  0  0  0  0  0  0  0  0  0  0
  145.0172  144.9617  156.4320 H   0  0  0  0  0  0  0  0  0  0  0  0
  142.9871  143.9300  159.5242 H   0  0  0  0  0  0  0  0  0  0  0  0
  145.2446  141.6794  160.5996 H   0  0  0  0  0  0  0  0  0  0  0  0
  146.5677  142.5706  161.3410 H   0  0  0  0  0  0  0  0  0  0  0  0
  146.3664  142.5720  159.5978 H   0  0  0  0  0  0  0  0  0  0  0  0
  143.5358  142.7774  161.9647 H   0  0  0  0  0  0  0  0  0  0  0  0
  143.4723  144.5215  162.1400 H   0  0  0  0  0  0  0  0  0  0  0  0
  144.8136  143.6253  162.8290 H   0  0  0  0  0  0  0  0  0  0  0  0
  150.7754  145.3785  157.5632 H   0  0  0  0  0  0  0  0  0  0  0  0
  1  2  1  0  0  0  0
  1 22  1  0  0  0  0
  1 23  1  0  0  0  0
  1 24  1  0  0  0  0
  2 21  1  0  0  0  0
  2  3  2  0  0  0  0
  3  4  1  0  0  0  0
  3 25  1  0  0  0  0
  4  5  1  0  0  0  0
  4  6  2  0  0  0  0
  5 26  1  0  0  0  0
  5 27  1  0  0  0  0
  5 28  1  0  0  0  0
  6  7  1  0  0  0  0
  7  8  1  0  0  0  0
  7 21  2  0  0  0  0
  8  9  1  0  0  0  0
  8 29  1  0  0  0  0
  9 10  2  0  0  0  0
  9 11  1  0  0  0  0
 11 12  1  0  0  0  0
 11 30  1  0  0  0  0
 12 18  1  0  0  0  0
 12 13  1  0  0  0  0
 12 31  1  0  0  0  0
 13 17  1  0  0  0  0
 13 14  1  0  0  0  0
 13 32  1  0  0  0  0
 14 15  1  0  0  0  0
 14 33  1  0  0  0  0
 14 34  1  0  0  0  0
 15 16  1  0  0  0  0
 15 35  1  0  0  0  0
 15 36  1  0  0  0  0
 16 17  1  0  0  0  0
 17 18  1  0  0  0  0
 17 37  1  0  0  0  0
 18 19  1  0  0  0  0
 18 20  1  0  0  0  0
 19 38  1  0  0  0  0
 19 39  1  0  0  0  0
 19 40  1  0  0  0  0
 20 41  1  0  0  0  0
 20 42  1  0  0  0  0
 20 43  1  0  0  0  0
 21 44  1  0  0  0  0
M  END
> <s_m_source_file>
AV-unprocessed.smi

> <i_m_source_file_index>
2224

> <i_lp_mmshare_version>
43012

> <i_f3d_flags>
0

> <s_epik_input>
W0NIM11jMVtjSF1jKFtDSDNdKW5jKFtjSF0xKVtOSF1DKD1PKVtOSF1bQ0BIXTJDKFtDSDNdKShbQ0gzXSlbQ0BIXShbQ0BASF0yMylPW0NIMl1bQ0gyXTM=

> <s_epik_cmdline>
J2VwaWtfcHl0aG9uJywgJy1waCcsICc3LjAnLCAnLXRuJywgJzgnLCAnLW1hJywgJzIwMCcsICctbWV0YWxfYmluZGluZycsICctaW1hZScsICc8aW5maWxlLm1hZT4nLCAnLW9tYWUnLCAnPG91dGZpbGUubWFlPic=

> <r_lp_tautomer_probability>
1

> <r_epik_Ionization_Penalty>
0.000276544

> <r_epik_Ionization_Penalty_Charging>
0

> <r_epik_Ionization_Penalty_Neutral>
0.000276544

> <r_epik_State_Penalty>
-0

> <r_epik_Charging_Adjusted_Penalty>
0

> <i_epik_Tot_Q>
0

> <i_epik_Tot_abs_Q>
0

> <r_epik_Metal_State_Penalty>
-0

> <b_epik_Metal_Only>
0

> <s_lp_Force_Field>
OPLS_2005

> <r_lp_Energy>
39.8946

> <b_lp_Chiralities_Consistent>
1

> <s_lp_Variant>
AV-unprocessed.smi:2224-6

> <Gold.Version>
5.8.1

> <Gold.Id.Protein>
6NUR|6NUR_protein|mol2

> <Gold.PLP.Fitness>
49.6877

> <Gold.PLP.PLP>
-41.2946

> <Gold.PLP.part.hbond>
-4.0000

> <Gold.PLP.part.metal>
0.0000

> <Gold.PLP.part.buried>
-5.0411

> <Gold.PLP.part.nonpolar>
-33.3259

> <Gold.PLP.part.repulsive>
0.6331

> <Gold.PLP.ligand.clash>
0.0000

> <Gold.PLP.ligand.torsion>
0.1231

> <Gold.PLP.Chemscore.Hbond>
2.8172

> <Gold.PLP.Chemscore.CHOScore>
0.0000

> <Gold.PLP.Chemscore.Metal>
0.0000

> <Gold.Chemscore.Hbonds>
donor molecule, donor type, donor heavy atom, donor atom, acceptor molecule, acceptor atom, score
      L1  H     8    29       P1  8029  1.00
      L1  H    11    30       P1  8029  0.93
      P1  H  6933  6944       L1    10  1.00

> <Gold.PLP.Chemscore.Internal.Correction>
0.1876

> <Gold.Rescore>
     Score         DG    S(hbond)    S(metal)    S(lipo)     H(rot)  DE(clash)    DE(int)     intcor
     22.42     -26.04       2.72        0.00     119.89       1.00       2.18       1.43       ----

> <Gold.Chemscore.Fitness>
22.4201

> <Gold.Chemscore.DG>
-26.0369

> <Gold.Chemscore.ZeroCoef>
-5.4800

> <Gold.Chemscore.Hbond>
2.7214

> <Gold.Chemscore.Metal>
0.0000

> <Gold.Chemscore.Lipo>
119.8915

> <Gold.Chemscore.Internal_Hbond>
0.0000

> <Gold.Chemscore.DEClash>
2.1839

> <Gold.Chemscore.DEInternal>
1.4329

> <Gold.Chemscore.Rot>
1.0000

> <Gold.Chemscore.Internal.Correction>
   9.000000E+99

> <Gold.Chemscore.Hbonds>
donor molecule, donor type, donor heavy atom, donor atom, acceptor molecule, acceptor atom, score
      L1  H     8    29       P1  8029  0.95
      L1  H    11    30       P1  8029  0.90
      P1  H  6933  6944       L1    10  0.79

> <Gold.Chemscore.Hbond.Weighted>
-9.0896

> <Gold.Chemscore.Metal.Weighted>
-0.0000

> <Gold.Chemscore.Lipo.Weighted>
-14.0273

> <Gold.Chemscore.Internal_Hbond.Weighted>
0.0000

> <Gold.Chemscore.DEClash.Weighted>
2.1839

> <Gold.Chemscore.DEInternal.Weighted>
1.4329

> <Gold.Chemscore.Rot.Weighted>
2.5600

> <Gold.Chemscore.Internal.Correction.Weighted>
   9.000000E+99

> <Gold.Protein.RotatedTorsions>
[ 6907 6896 6895 6894 ] final  113.69 input  -60.11 | X-H torsion
[ 7974 7965 7964 7962 ] final   -4.14 input  175.53 | X-H torsion
[ 8008 7997 7996 7995 ] final  161.24 input   59.86 | X-H torsion
[ 10167 10162 10161 10158 ] final  151.45 input  -65.29 | X-H torsion
[ 10718 10713 10712 10709 ] final  161.65 input   66.30 | X-H torsion
[ 10763 10752 10751 10750 ] final  -42.34 input  -60.55 | X-H torsion
[ 11005 11000 10999 10996 ] final  -68.39 input  -57.11 | X-H torsion

> <Gold.Protein.ActiveResidues>
 VAL166  LYS551  ARG553  GLY616  TRP617  ASP618  TYR619  PRO620  LYS621  CYS622 
 ASP623  PHE694  ASN695  SER759  ASP760  ASP761  ALA762  ILE779  LEU786  VAL792 
 PHE793  MET794  SER795  GLU796  ALA797  LYS798  CYS799  TRP800  GLU811  SER814 

> <Gold.Protein.RotatedAtoms>
  152.4846  133.8340  159.7117 H   0  0  0  0  0  0  0  0  0  0  0  0  # atno 6907 bound_to 6896
  150.8922  133.7218  159.2908 H   0  0  0  0  0  0  0  0  0  0  0  0  # atno 6908 bound_to 6896
  151.4687  135.1048  159.9797 H   0  0  0  0  0  0  0  0  0  0  0  0  # atno 6909 bound_to 6896
  146.2378  140.1826  142.8332 H   0  0  0  0  0  0  0  0  0  0  0  0  # atno 7974 bound_to 7965
  156.2117  140.1782  156.7681 H   0  0  0  0  0  0  0  0  0  0  0  0  # atno 8008 bound_to 7997
  154.5732  140.0679  156.9024 H   0  0  0  0  0  0  0  0  0  0  0  0  # atno 8009 bound_to 7997
  155.2636  140.3337  155.4273 H   0  0  0  0  0  0  0  0  0  0  0  0  # atno 8010 bound_to 7997
  139.4840  144.5440  151.7516 H   0  0  0  0  0  0  0  0  0  0  0  0  # atno 10167 bound_to 10162
  157.1336  131.0523  151.2360 H   0  0  0  0  0  0  0  0  0  0  0  0  # atno 10718 bound_to 10713
  153.9775  135.6721  153.4749 H   0  0  0  0  0  0  0  0  0  0  0  0  # atno 10763 bound_to 10752
  153.0764  135.4946  154.8409 H   0  0  0  0  0  0  0  0  0  0  0  0  # atno 10764 bound_to 10752
  154.7184  135.3112  154.9048 H   0  0  0  0  0  0  0  0  0  0  0  0  # atno 10765 bound_to 10752
  141.1531  133.6740  156.6439 H   0  0  0  0  0  0  0  0  0  0  0  0  # atno 11005 bound_to 11000
  144.9922  140.8557  143.5332 LP  0  0  0  0  0  0  0  0  0  0  0  0  # atno 17320 bound_to 7965
  145.1833  139.2340  143.5281 LP  0  0  0  0  0  0  0  0  0  0  0  0  # atno 17321 bound_to 7965
  140.4983  144.1207  150.5965 LP  0  0  0  0  0  0  0  0  0  0  0  0  # atno 17342 bound_to 10162
  140.4091  143.2665  151.9855 LP  0  0  0  0  0  0  0  0  0  0  0  0  # atno 17343 bound_to 10162
  157.4370  130.7523  149.7037 LP  0  0  0  0  0  0  0  0  0  0  0  0  # atno 17370 bound_to 10713
  155.9803  130.4031  150.3538 LP  0  0  0  0  0  0  0  0  0  0  0  0  # atno 17371 bound_to 10713
  140.3372  134.7879  157.4370 LP  0  0  0  0  0  0  0  0  0  0  0  0  # atno 17394 bound_to 11000
  140.0968  134.5527  155.8391 LP  0  0  0  0  0  0  0  0  0  0  0  0  # atno 17395 bound_to 11000

$$$$
