AV-unprocessed.smi:99|AV-procd|sdf|889|dock4
  -GOLD-   2262017373D 1   1.00000     0.00000
 Structure written by MMmdl.
 52 55  0  0  0  0  0  0  0  0  2 V2000
  148.4794  132.3035  159.4672 O   0  0  0  0  0  0  0  0  0  0  0  0
  147.9262  133.4047  159.4303 C   0  0  0  0  0  0  0  0  0  0  0  0
  147.4105  133.9429  158.3079 O   0  0  0  0  0  0  0  0  0  0  0  0
  147.7013  133.3647  157.0466 C   0  0  0  0  0  0  0  0  0  0  0  0
  149.1783  133.6300  156.6922 C   0  0  2  0  0  0  0  0  0  0  0  0
  149.6794  134.6233  157.5764 O   0  0  0  0  0  0  0  0  0  0  0  0
  149.4364  135.8939  157.0509 C   0  0  1  0  0  0  0  0  0  0  0  0
  150.6513  136.7542  157.3286 N   0  0  0  0  0  0  0  0  0  0  0  0
  150.5007  137.9807  157.9523 C   0  0  0  0  0  0  0  0  0  0  0  0
  151.5613  138.7722  158.2121 C   0  0  0  0  0  0  0  0  0  0  0  0
  152.8978  138.3274  157.8274 C   0  0  0  0  0  0  0  0  0  0  0  0
  153.8585  139.0584  158.0605 O   0  0  0  0  0  0  0  0  0  0  0  0
  153.0206  137.1100  157.2230 N   0  5  0  0  0  0  0  0  0  0  0  0
  151.9498  136.3030  156.9650 C   0  0  0  0  0  0  0  0  0  0  0  0
  152.0561  135.1950  156.4395 O   0  0  0  0  0  0  0  0  0  0  0  0
  149.1310  135.7385  155.5434 C   0  0  1  0  0  0  0  0  0  0  0  0
  149.9342  136.5356  154.6922 O   0  0  0  0  0  0  0  0  0  0  0  0
  149.3994  134.2563  155.3094 C   0  0  2  0  0  0  0  0  0  0  0  0
  148.5043  133.6951  154.3563 O   0  0  0  0  0  0  0  0  0  0  0  0
  148.5864  132.3967  154.0008 C   0  0  0  0  0  0  0  0  0  0  0  0
  149.3947  131.6023  154.4850 O   0  0  0  0  0  0  0  0  0  0  0  0
  147.5867  132.0224  152.9592 C   0  0  0  0  0  0  0  0  0  0  0  0
  147.0934  130.6973  152.9147 C   0  0  0  0  0  0  0  0  0  0  0  0
  146.1452  130.3171  151.9452 C   0  0  0  0  0  0  0  0  0  0  0  0
  145.6784  131.2571  151.0083 C   0  0  0  0  0  0  0  0  0  0  0  0
  146.1616  132.5782  151.0411 C   0  0  0  0  0  0  0  0  0  0  0  0
  147.1102  132.9603  152.0095 C   0  0  0  0  0  0  0  0  0  0  0  0
  147.7578  134.2812  160.6251 C   0  0  0  0  0  0  0  0  0  0  0  0
  147.7962  135.6862  160.4653 C   0  0  0  0  0  0  0  0  0  0  0  0
  147.6403  136.5390  161.5754 C   0  0  0  0  0  0  0  0  0  0  0  0
  147.4447  135.9973  162.8591 C   0  0  0  0  0  0  0  0  0  0  0  0
  147.4049  134.6014  163.0315 C   0  0  0  0  0  0  0  0  0  0  0  0
  147.5599  133.7468  161.9225 C   0  0  0  0  0  0  0  0  0  0  0  0
  147.5157  132.2920  157.1129 H   0  0  0  0  0  0  0  0  0  0  0  0
  147.0362  133.7648  156.2800 H   0  0  0  0  0  0  0  0  0  0  0  0
  149.7514  132.7073  156.7888 H   0  0  0  0  0  0  0  0  0  0  0  0
  148.6013  136.3240  157.6046 H   0  0  0  0  0  0  0  0  0  0  0  0
  149.5158  138.3136  158.2446 H   0  0  0  0  0  0  0  0  0  0  0  0
  151.4254  139.7254  158.7016 H   0  0  0  0  0  0  0  0  0  0  0  0
  148.0772  135.9730  155.3864 H   0  0  0  0  0  0  0  0  0  0  0  0
  149.6232  136.4337  153.8055 H   0  0  0  0  0  0  0  0  0  0  0  0
  150.4431  134.1011  155.0300 H   0  0  0  0  0  0  0  0  0  0  0  0
  147.4360  129.9580  153.6243 H   0  0  0  0  0  0  0  0  0  0  0  0
  145.7751  129.3026  151.9215 H   0  0  0  0  0  0  0  0  0  0  0  0
  144.9505  130.9656  150.2657 H   0  0  0  0  0  0  0  0  0  0  0  0
  145.8038  133.3010  150.3229 H   0  0  0  0  0  0  0  0  0  0  0  0
  147.4589  133.9826  152.0059 H   0  0  0  0  0  0  0  0  0  0  0  0
  147.9458  136.1253  159.4893 H   0  0  0  0  0  0  0  0  0  0  0  0
  147.6713  137.6102  161.4409 H   0  0  0  0  0  0  0  0  0  0  0  0
  147.3255  136.6516  163.7100 H   0  0  0  0  0  0  0  0  0  0  0  0
  147.2556  134.1841  164.0165 H   0  0  0  0  0  0  0  0  0  0  0  0
  147.5237  132.6802  162.0901 H   0  0  0  0  0  0  0  0  0  0  0  0
  1  2  2  0  0  0  0
  2  3  1  0  0  0  0
  2 28  1  0  0  0  0
  3  4  1  0  0  0  0
  4  5  1  0  0  0  0
  4 34  1  0  0  0  0
  4 35  1  0  0  0  0
  5 18  1  0  0  0  0
  5  6  1  0  0  0  0
  5 36  1  0  0  0  0
  6  7  1  0  0  0  0
  7  8  1  0  0  0  0
  7 16  1  0  0  0  0
  7 37  1  0  0  0  0
  8 14  1  0  0  0  0
  8  9  1  0  0  0  0
  9 10  2  0  0  0  0
  9 38  1  0  0  0  0
 10 11  1  0  0  0  0
 10 39  1  0  0  0  0
 11 12  2  0  0  0  0
 11 13  1  0  0  0  0
 13 14  1  0  0  0  0
 14 15  2  0  0  0  0
 16 17  1  0  0  0  0
 16 18  1  0  0  0  0
 16 40  1  0  0  0  0
 17 41  1  0  0  0  0
 18 19  1  0  0  0  0
 18 42  1  0  0  0  0
 19 20  1  0  0  0  0
 20 21  2  0  0  0  0
 20 22  1  0  0  0  0
 22 27  1  0  0  0  0
 22 23  2  0  0  0  0
 23 24  1  0  0  0  0
 23 43  1  0  0  0  0
 24 25  2  0  0  0  0
 24 44  1  0  0  0  0
 25 26  1  0  0  0  0
 25 45  1  0  0  0  0
 26 27  2  0  0  0  0
 26 46  1  0  0  0  0
 27 47  1  0  0  0  0
 28 33  1  0  0  0  0
 28 29  2  0  0  0  0
 29 30  1  0  0  0  0
 29 48  1  0  0  0  0
 30 31  2  0  0  0  0
 30 49  1  0  0  0  0
 31 32  1  0  0  0  0
 31 50  1  0  0  0  0
 32 33  2  0  0  0  0
 32 51  1  0  0  0  0
 33 52  1  0  0  0  0
M  CHG  1  13  -1
M  END
> <s_m_source_file>
AV-unprocessed.smi

> <i_m_source_file_index>
99

> <i_lp_mmshare_version>
43012

> <i_f3d_flags>
0

> <s_epik_input>
W2NIXTFbY0hdW2NIXVtjSF1bY0hdYzFDKD1PKU9bQ0gyXVtDQEBIXTJPW0NAQEhdKG4zW2NIXVtjSF1jKD1PKVtuSF1jMz1PKVtDQEBIXShbT0hdKVtDQEhdMk9DKD1PKWM0W2NIXVtjSF1bY0hdW2NIXVtjSF00

> <s_epik_cmdline>
J2VwaWtfcHl0aG9uJywgJy1waCcsICc3LjAnLCAnLXRuJywgJzgnLCAnLW1hJywgJzIwMCcsICctbWV0YWxfYmluZGluZycsICctaW1hZScsICc8aW5maWxlLm1hZT4nLCAnLW9tYWUnLCAnPG91dGZpbGUubWFlPic=

> <r_lp_tautomer_probability>
1

> <r_epik_Ionization_Penalty>
2.89159

> <r_epik_Ionization_Penalty_Charging>
2.1077e-08

> <r_epik_Ionization_Penalty_Neutral>
2.89159

> <r_epik_State_Penalty>
2.88671

> <r_epik_Charging_Adjusted_Penalty>
2.88671

> <i_epik_Tot_Q>
-1

> <i_epik_Tot_abs_Q>
1

> <r_epik_Metal_State_Penalty>
0.0727308

> <b_epik_Metal_Only>
1

> <s_epik_Chemistry_Notes>
This compound has an ester and may undergo hydrolysis at high or low pH. This compound contains an acetal/aminal-like group ( X-CH(R)-Y where X, Y are N, S, or O) that may be acid/base labile, releasing an aldehyde.

> <s_lp_Force_Field>
OPLS_2005

> <r_lp_Energy>
49.6514

> <b_lp_Chiralities_Consistent>
1

> <s_lp_Variant>
AV-unprocessed.smi:99-25

> <Gold.Version>
5.8.1

> <Gold.Id.Protein>
6NUR|6NUR_protein|mol2

> <Gold.PLP.Fitness>
55.0164

> <Gold.PLP.PLP>
-48.0487

> <Gold.PLP.part.hbond>
-4.0000

> <Gold.PLP.part.metal>
0.0000

> <Gold.PLP.part.buried>
-5.1617

> <Gold.PLP.part.nonpolar>
-39.8596

> <Gold.PLP.part.repulsive>
0.1385

> <Gold.PLP.ligand.clash>
0.8310

> <Gold.PLP.ligand.torsion>
1.7783

> <Gold.PLP.Chemscore.Hbond>
3.6231

> <Gold.PLP.Chemscore.CHOScore>
0.0000

> <Gold.PLP.Chemscore.Metal>
0.0000

> <Gold.Chemscore.Hbonds>
donor molecule, donor type, donor heavy atom, donor atom, acceptor molecule, acceptor atom, score
      L1  H    17    41       P1  7948  0.99
      P1  H  6896  6909       L1     6  0.63
      P1  H  7997  8010       L1    12  1.00
      P1  H 10752 10763       L1    15  1.00

> <Gold.PLP.Chemscore.Internal.Correction>
0.4861

> <Gold.Rescore>
     Score         DG    S(hbond)    S(metal)    S(lipo)     H(rot)  DE(clash)    DE(int)     intcor
     14.52     -22.17       3.41        0.00     113.92       3.13       0.07       7.57       ----

> <Gold.Chemscore.Fitness>
14.5241

> <Gold.Chemscore.DG>
-22.1690

> <Gold.Chemscore.ZeroCoef>
-5.4800

> <Gold.Chemscore.Hbond>
3.4086

> <Gold.Chemscore.Metal>
0.0000

> <Gold.Chemscore.Lipo>
113.9210

> <Gold.Chemscore.Internal_Hbond>
0.0000

> <Gold.Chemscore.DEClash>
0.0743

> <Gold.Chemscore.DEInternal>
7.5707

> <Gold.Chemscore.Rot>
3.1346

> <Gold.Chemscore.Internal.Correction>
   9.000000E+99

> <Gold.Chemscore.Hbonds>
donor molecule, donor type, donor heavy atom, donor atom, acceptor molecule, acceptor atom, score
      L1  H    17    41       P1  7948  0.56
      P1  H  6896  6909       L1     6  0.57
      P1  H  7997  8010       L1    12  0.97
      P1  H 10752 10763       L1    15  0.49

> <Gold.Chemscore.Hbond.Weighted>
-11.3848

> <Gold.Chemscore.Metal.Weighted>
-0.0000

> <Gold.Chemscore.Lipo.Weighted>
-13.3288

> <Gold.Chemscore.Internal_Hbond.Weighted>
0.0000

> <Gold.Chemscore.DEClash.Weighted>
0.0743

> <Gold.Chemscore.DEInternal.Weighted>
7.5707

> <Gold.Chemscore.Rot.Weighted>
8.0246

> <Gold.Chemscore.Internal.Correction.Weighted>
   9.000000E+99

> <Gold.Protein.RotatedTorsions>
[ 6907 6896 6895 6894 ] final    5.03 input  -60.11 | X-H torsion
[ 7974 7965 7964 7962 ] final  139.45 input  175.53 | X-H torsion
[ 8008 7997 7996 7995 ] final   27.82 input   59.86 | X-H torsion
[ 10167 10162 10161 10158 ] final    5.05 input  -65.29 | X-H torsion
[ 10718 10713 10712 10709 ] final   77.52 input   66.30 | X-H torsion
[ 10763 10752 10751 10750 ] final   90.37 input  -60.55 | X-H torsion
[ 11005 11000 10999 10996 ] final   44.27 input  -57.11 | X-H torsion

> <Gold.Protein.ActiveResidues>
 VAL166  LYS551  ARG553  GLY616  TRP617  ASP618  TYR619  PRO620  LYS621  CYS622 
 ASP623  PHE694  ASN695  SER759  ASP760  ASP761  ALA762  ILE779  LEU786  VAL792 
 PHE793  MET794  SER795  GLU796  ALA797  LYS798  CYS799  TRP800  GLU811  SER814 

> <Gold.Protein.RotatedAtoms>
  151.6509  135.1001  160.0160 H   0  0  0  0  0  0  0  0  0  0  0  0  # atno 6907 bound_to 6896
  152.4001  133.6801  159.6318 H   0  0  0  0  0  0  0  0  0  0  0  0  # atno 6908 bound_to 6896
  150.7902  133.8722  159.3303 H   0  0  0  0  0  0  0  0  0  0  0  0  # atno 6909 bound_to 6896
  144.9278  139.5086  143.5632 H   0  0  0  0  0  0  0  0  0  0  0  0  # atno 7974 bound_to 7965
  155.0490  140.3177  155.4698 H   0  0  0  0  0  0  0  0  0  0  0  0  # atno 8008 bound_to 7997
  156.2838  140.2149  156.5559 H   0  0  0  0  0  0  0  0  0  0  0  0  # atno 8009 bound_to 7997
  154.7226  140.0488  157.0641 H   0  0  0  0  0  0  0  0  0  0  0  0  # atno 8010 bound_to 7997
  140.6502  143.7562  150.7563 H   0  0  0  0  0  0  0  0  0  0  0  0  # atno 10167 bound_to 10162
  157.6713  130.9825  150.1653 H   0  0  0  0  0  0  0  0  0  0  0  0  # atno 10718 bound_to 10713
  153.1969  135.4436  155.0218 H   0  0  0  0  0  0  0  0  0  0  0  0  # atno 10763 bound_to 10752
  154.8124  135.3300  154.7272 H   0  0  0  0  0  0  0  0  0  0  0  0  # atno 10764 bound_to 10752
  153.7721  135.6984  153.4960 H   0  0  0  0  0  0  0  0  0  0  0  0  # atno 10765 bound_to 10752
  140.1568  134.4392  155.8344 H   0  0  0  0  0  0  0  0  0  0  0  0  # atno 11005 bound_to 11000
  146.3233  139.8205  142.8928 LP  0  0  0  0  0  0  0  0  0  0  0  0  # atno 17320 bound_to 7965
  145.3191  141.0239  143.3510 LP  0  0  0  0  0  0  0  0  0  0  0  0  # atno 17321 bound_to 7965
  140.1212  143.4611  152.2312 LP  0  0  0  0  0  0  0  0  0  0  0  0  # atno 17342 bound_to 10162
  139.5717  144.7466  151.3873 LP  0  0  0  0  0  0  0  0  0  0  0  0  # atno 17343 bound_to 10162
  156.2420  130.3692  149.8327 LP  0  0  0  0  0  0  0  0  0  0  0  0  # atno 17370 bound_to 10713
  156.6124  130.8592  151.3457 LP  0  0  0  0  0  0  0  0  0  0  0  0  # atno 17371 bound_to 10713
  141.2205  133.6896  156.7521 LP  0  0  0  0  0  0  0  0  0  0  0  0  # atno 17394 bound_to 11000
  140.2538  134.8520  157.3693 LP  0  0  0  0  0  0  0  0  0  0  0  0  # atno 17395 bound_to 11000

$$$$
