AV-unprocessed.smi:1727|AV-procd|sdf|6965|dock4
  -GOLD-   22720 8173D 1   1.00000     0.00000
 Structure written by MMmdl.
 49 51  0  0  0  0  0  0  0  0  1 V2000
  152.2058  144.7369  162.0143 C   0  0  0  0  0  0  0  0  0  0  0  0
  152.3806  143.3362  161.4230 C   0  0  0  0  0  0  0  0  0  0  0  0
  152.1681  142.3694  162.1549 O   0  0  0  0  0  0  0  0  0  0  0  0
  152.7559  143.2055  160.1277 N   0  0  0  0  0  0  0  0  0  0  0  0
  152.8792  141.9017  159.4653 C   0  0  0  0  0  0  0  0  0  0  0  0
  151.7368  141.7524  158.4446 C   0  0  0  0  0  0  0  0  0  0  0  0
  151.7329  142.9176  157.4323 C   0  0  0  0  0  0  0  0  0  0  0  0
  150.5368  142.8394  156.5996 N   0  0  0  0  0  0  0  0  0  0  0  0
  150.0376  141.7153  156.0669 C   0  0  0  0  0  0  0  0  0  0  0  0
  150.5404  140.6027  156.2257 O   0  0  0  0  0  0  0  0  0  0  0  0
  148.9445  141.9717  155.3297 N   0  0  0  0  0  0  0  0  0  0  0  0
  148.1708  141.0509  154.5694 C   0  0  0  0  0  0  0  0  0  0  0  0
  148.7021  139.8016  154.1662 C   0  0  0  0  0  0  0  0  0  0  0  0
  147.8803  138.8917  153.4795 C   0  0  0  0  0  0  0  0  0  0  0  0
  146.5466  139.2569  153.2332 C   0  0  0  0  0  0  0  0  0  0  0  0
  146.0220  140.4363  153.6218 N   0  0  0  0  0  0  0  0  0  0  0  0
  146.8060  141.3313  154.2724 C   0  0  0  0  0  0  0  0  0  0  0  0
  146.2059  142.5582  154.6388 N   0  0  0  0  0  0  0  0  0  0  0  0
  145.1376  142.5932  155.6326 C   0  0  0  0  0  0  0  0  0  0  0  0
  144.4920  143.9664  155.4716 C   0  0  0  0  0  0  0  0  0  0  0  0
  144.5912  144.1980  153.9673 C   0  0  0  0  0  0  0  0  0  0  0  0
  145.9119  143.5232  153.5831 C   0  0  0  0  0  0  0  0  0  0  0  0
  151.8092  144.2862  158.1477 C   0  0  0  0  0  0  0  0  0  0  0  0
  152.9481  144.3126  159.1825 C   0  0  0  0  0  0  0  0  0  0  0  0
  151.4523  145.2990  161.4620 H   0  0  0  0  0  0  0  0  0  0  0  0
  153.1472  145.2863  161.9915 H   0  0  0  0  0  0  0  0  0  0  0  0
  151.8808  144.6773  163.0536 H   0  0  0  0  0  0  0  0  0  0  0  0
  153.8443  141.8421  158.9601 H   0  0  0  0  0  0  0  0  0  0  0  0
  152.8603  141.0671  160.1674 H   0  0  0  0  0  0  0  0  0  0  0  0
  151.8288  140.8007  157.9202 H   0  0  0  0  0  0  0  0  0  0  0  0
  150.7853  141.7208  158.9780 H   0  0  0  0  0  0  0  0  0  0  0  0
  152.6170  142.8087  156.8014 H   0  0  0  0  0  0  0  0  0  0  0  0
  150.0572  143.7075  156.4117 H   0  0  0  0  0  0  0  0  0  0  0  0
  148.7059  142.9450  155.2058 H   0  0  0  0  0  0  0  0  0  0  0  0
  149.7189  139.5190  154.3941 H   0  0  0  0  0  0  0  0  0  0  0  0
  148.2601  137.9320  153.1615 H   0  0  0  0  0  0  0  0  0  0  0  0
  145.8806  138.5827  152.7154 H   0  0  0  0  0  0  0  0  0  0  0  0
  144.3957  141.8190  155.4325 H   0  0  0  0  0  0  0  0  0  0  0  0
  145.5272  142.4444  156.6401 H   0  0  0  0  0  0  0  0  0  0  0  0
  143.4682  144.0019  155.8445 H   0  0  0  0  0  0  0  0  0  0  0  0
  145.0754  144.7188  156.0042 H   0  0  0  0  0  0  0  0  0  0  0  0
  143.7632  143.6961  153.4649 H   0  0  0  0  0  0  0  0  0  0  0  0
  144.5596  145.2530  153.6950 H   0  0  0  0  0  0  0  0  0  0  0  0
  146.7109  144.2645  153.5525 H   0  0  0  0  0  0  0  0  0  0  0  0
  145.8482  143.0531  152.6008 H   0  0  0  0  0  0  0  0  0  0  0  0
  151.9535  145.0847  157.4189 H   0  0  0  0  0  0  0  0  0  0  0  0
  150.8640  144.4947  158.6512 H   0  0  0  0  0  0  0  0  0  0  0  0
  152.9934  145.2912  159.6578 H   0  0  0  0  0  0  0  0  0  0  0  0
  153.9085  144.1907  158.6797 H   0  0  0  0  0  0  0  0  0  0  0  0
  1  2  1  0  0  0  0
  1 25  1  0  0  0  0
  1 26  1  0  0  0  0
  1 27  1  0  0  0  0
  2  3  2  0  0  0  0
  2  4  1  0  0  0  0
  4 24  1  0  0  0  0
  4  5  1  0  0  0  0
  5  6  1  0  0  0  0
  5 28  1  0  0  0  0
  5 29  1  0  0  0  0
  6  7  1  0  0  0  0
  6 30  1  0  0  0  0
  6 31  1  0  0  0  0
  7  8  1  0  0  0  0
  7 23  1  0  0  0  0
  7 32  1  0  0  0  0
  8  9  1  0  0  0  0
  8 33  1  0  0  0  0
  9 10  2  0  0  0  0
  9 11  1  0  0  0  0
 11 12  1  0  0  0  0
 11 34  1  0  0  0  0
 12 17  1  0  0  0  0
 12 13  2  0  0  0  0
 13 14  1  0  0  0  0
 13 35  1  0  0  0  0
 14 15  2  0  0  0  0
 14 36  1  0  0  0  0
 15 16  1  0  0  0  0
 15 37  1  0  0  0  0
 16 17  2  0  0  0  0
 17 18  1  0  0  0  0
 18 22  1  0  0  0  0
 18 19  1  0  0  0  0
 19 20  1  0  0  0  0
 19 38  1  0  0  0  0
 19 39  1  0  0  0  0
 20 21  1  0  0  0  0
 20 40  1  0  0  0  0
 20 41  1  0  0  0  0
 21 22  1  0  0  0  0
 21 42  1  0  0  0  0
 21 43  1  0  0  0  0
 22 44  1  0  0  0  0
 22 45  1  0  0  0  0
 23 24  1  0  0  0  0
 23 46  1  0  0  0  0
 23 47  1  0  0  0  0
 24 48  1  0  0  0  0
 24 49  1  0  0  0  0
M  END
> <s_m_source_file>
AV-unprocessed.smi

> <i_m_source_file_index>
1727

> <i_lp_mmshare_version>
43012

> <i_f3d_flags>
0

> <s_epik_input>
W0NIM11DKD1PKU4xW0NIMl1bQ0gyXVtDSF0oW0NIMl1bQ0gyXTEpW05IXUMoPU8pW05IXWMyW2NIXVtjSF1bY0hdbmMyTjNbQ0gyXVtDSDJdW0NIMl1bQ0gyXTM=

> <s_epik_cmdline>
J2VwaWtfcHl0aG9uJywgJy1waCcsICc3LjAnLCAnLXRuJywgJzgnLCAnLW1hJywgJzIwMCcsICctbWV0YWxfYmluZGluZycsICctaW1hZScsICc8aW5maWxlLm1hZT4nLCAnLW9tYWUnLCAnPG91dGZpbGUubWFlPic=

> <r_lp_tautomer_probability>
1

> <r_epik_Ionization_Penalty>
0.102256

> <r_epik_Ionization_Penalty_Charging>
0

> <r_epik_Ionization_Penalty_Neutral>
0.102256

> <r_epik_State_Penalty>
0.0916633

> <r_epik_Charging_Adjusted_Penalty>
0.0916633

> <i_epik_Tot_Q>
0

> <i_epik_Tot_abs_Q>
0

> <r_epik_Metal_State_Penalty>
0.0781079

> <b_epik_Metal_Only>
0

> <s_lp_Force_Field>
OPLS_2005

> <r_lp_Energy>
49.5361

> <b_lp_Chiralities_Consistent>
1

> <s_lp_Variant>
AV-unprocessed.smi:1727-1

> <Gold.Version>
5.8.1

> <Gold.Id.Protein>
6NUR|6NUR_protein|mol2

> <Gold.PLP.Fitness>
47.9933

> <Gold.PLP.PLP>
-40.8667

> <Gold.PLP.part.hbond>
-2.6893

> <Gold.PLP.part.metal>
0.0000

> <Gold.PLP.part.buried>
-1.3889

> <Gold.PLP.part.nonpolar>
-41.4336

> <Gold.PLP.part.repulsive>
4.0156

> <Gold.PLP.ligand.clash>
0.0000

> <Gold.PLP.ligand.torsion>
0.4877

> <Gold.PLP.Chemscore.Hbond>
2.5688

> <Gold.PLP.Chemscore.CHOScore>
0.0177

> <Gold.PLP.Chemscore.Metal>
0.0000

> <Gold.Chemscore.Hbonds>
donor molecule, donor type, donor heavy atom, donor atom, acceptor molecule, acceptor atom, score
      L1  H     8    33       P1  8028  1.00
      L1  H    11    34       P1  8028  1.00
      P1  H  6933  6945       L1     3  0.57
      L1  C    15    37       P1 10175  0.02

> <Gold.PLP.Chemscore.Internal.Correction>
0.3427

> <Gold.Rescore>
     Score         DG    S(hbond)    S(metal)    S(lipo)     H(rot)  DE(clash)    DE(int)     intcor
     17.09     -24.63       2.56        0.00     117.07       1.21       4.23       3.31       ----

> <Gold.Chemscore.Fitness>
17.0938

> <Gold.Chemscore.DG>
-24.6318

> <Gold.Chemscore.ZeroCoef>
-5.4800

> <Gold.Chemscore.Hbond>
2.5618

> <Gold.Chemscore.Metal>
0.0000

> <Gold.Chemscore.Lipo>
117.0697

> <Gold.Chemscore.Internal_Hbond>
0.0000

> <Gold.Chemscore.DEClash>
4.2252

> <Gold.Chemscore.DEInternal>
3.3128

> <Gold.Chemscore.Rot>
1.2117

> <Gold.Chemscore.Internal.Correction>
   9.000000E+99

> <Gold.Chemscore.Hbonds>
donor molecule, donor type, donor heavy atom, donor atom, acceptor molecule, acceptor atom, score
      L1  H     8    33       P1  8028  0.99
      L1  H    11    34       P1  8028  0.96
      P1  H  6933  6945       L1     3  0.47

> <Gold.Chemscore.Hbond.Weighted>
-8.5566

> <Gold.Chemscore.Metal.Weighted>
-0.0000

> <Gold.Chemscore.Lipo.Weighted>
-13.6972

> <Gold.Chemscore.Internal_Hbond.Weighted>
0.0000

> <Gold.Chemscore.DEClash.Weighted>
4.2252

> <Gold.Chemscore.DEInternal.Weighted>
3.3128

> <Gold.Chemscore.Rot.Weighted>
3.1019

> <Gold.Chemscore.Internal.Correction.Weighted>
   9.000000E+99

> <Gold.Protein.RotatedTorsions>
[ 6907 6896 6895 6894 ] final -134.99 input  -60.11 | X-H torsion
[ 7974 7965 7964 7962 ] final   79.44 input  175.53 | X-H torsion
[ 8008 7997 7996 7995 ] final  -65.13 input   59.86 | X-H torsion
[ 10167 10162 10161 10158 ] final   84.39 input  -65.29 | X-H torsion
[ 10718 10713 10712 10709 ] final  -86.80 input   66.30 | X-H torsion
[ 10763 10752 10751 10750 ] final -138.69 input  -60.55 | X-H torsion
[ 11005 11000 10999 10996 ] final   18.83 input  -57.11 | X-H torsion

> <Gold.Protein.ActiveResidues>
 VAL166  LYS551  ARG553  GLY616  TRP617  ASP618  TYR619  PRO620  LYS621  CYS622 
 ASP623  PHE694  ASN695  SER759  ASP760  ASP761  ALA762  ILE779  LEU786  VAL792 
 PHE793  MET794  SER795  GLU796  ALA797  LYS798  CYS799  TRP800  GLU811  SER814 

> <Gold.Protein.RotatedAtoms>
  150.9925  133.6136  159.2706 H   0  0  0  0  0  0  0  0  0  0  0  0  # atno 6907 bound_to 6896
  151.3352  135.0850  159.9362 H   0  0  0  0  0  0  0  0  0  0  0  0  # atno 6908 bound_to 6896
  152.5250  133.9546  159.7743 H   0  0  0  0  0  0  0  0  0  0  0  0  # atno 6909 bound_to 6896
  145.6642  139.2479  143.1905 H   0  0  0  0  0  0  0  0  0  0  0  0  # atno 7974 bound_to 7965
  154.4653  140.0939  156.7003 H   0  0  0  0  0  0  0  0  0  0  0  0  # atno 8008 bound_to 7997
  155.4876  140.3469  155.4331 H   0  0  0  0  0  0  0  0  0  0  0  0  # atno 8009 bound_to 7997
  156.0945  140.1406  156.9538 H   0  0  0  0  0  0  0  0  0  0  0  0  # atno 8010 bound_to 7997
  139.9086  144.6286  150.8561 H   0  0  0  0  0  0  0  0  0  0  0  0  # atno 10167 bound_to 10162
  155.9988  130.4777  150.4770 H   0  0  0  0  0  0  0  0  0  0  0  0  # atno 10718 bound_to 10713
  154.8630  135.3604  154.5425 H   0  0  0  0  0  0  0  0  0  0  0  0  # atno 10763 bound_to 10752
  153.6046  135.7011  153.5375 H   0  0  0  0  0  0  0  0  0  0  0  0  # atno 10764 bound_to 10752
  153.3261  135.4137  155.1418 H   0  0  0  0  0  0  0  0  0  0  0  0  # atno 10765 bound_to 10752
  140.4205  134.1524  155.7672 H   0  0  0  0  0  0  0  0  0  0  0  0  # atno 11005 bound_to 11000
  146.1100  140.7440  142.9508 LP  0  0  0  0  0  0  0  0  0  0  0  0  # atno 17320 bound_to 7965
  144.7079  140.3923  143.7104 LP  0  0  0  0  0  0  0  0  0  0  0  0  # atno 17321 bound_to 7965
  140.7690  143.3383  151.2262 LP  0  0  0  0  0  0  0  0  0  0  0  0  # atno 17342 bound_to 10162
  139.6962  143.9608  152.2884 LP  0  0  0  0  0  0  0  0  0  0  0  0  # atno 17343 bound_to 10162
  157.2779  131.0601  151.2217 LP  0  0  0  0  0  0  0  0  0  0  0  0  # atno 17370 bound_to 10713
  157.3274  130.6968  149.6304 LP  0  0  0  0  0  0  0  0  0  0  0  0  # atno 17371 bound_to 10713
  141.1786  133.8462  157.1337 LP  0  0  0  0  0  0  0  0  0  0  0  0  # atno 17394 bound_to 11000
  140.0204  134.9948  157.0579 LP  0  0  0  0  0  0  0  0  0  0  0  0  # atno 17395 bound_to 11000

$$$$
