AV-unprocessed.smi:2179|AV-procd|sdf|8858|dock4
  -GOLD-   2272012 53D 1   1.00000     0.00000
 Structure written by MMmdl.
 47 48  0  0  0  0  0  0  0  0  1 V2000
  144.3382  135.3476  150.3493 C   0  0  0  0  0  0  0  0  0  0  0  0
  145.1503  135.8815  151.5240 C   0  0  0  0  0  0  0  0  0  0  0  0
  145.7890  135.1064  152.2353 O   0  0  0  0  0  0  0  0  0  0  0  0
  145.1190  137.2095  151.7132 N   0  0  0  0  0  0  0  0  0  0  0  0
  145.8299  137.9169  152.7724 C   0  0  0  0  0  0  0  0  0  0  0  0
  146.8207  138.9537  152.2056 C   0  0  0  0  0  0  0  0  0  0  0  0
  147.5592  139.6338  153.2636 N   0  0  0  0  0  0  0  0  0  0  0  0
  148.2014  139.0320  154.2774 C   0  0  0  0  0  0  0  0  0  0  0  0
  148.2171  137.8123  154.4447 O   0  0  0  0  0  0  0  0  0  0  0  0
  148.9887  139.9439  155.1729 C   0  0  0  0  0  0  0  0  0  0  0  0
  149.4196  141.2181  154.7438 C   0  0  0  0  0  0  0  0  0  0  0  0
  150.1494  142.0306  155.6324 C   0  0  0  0  0  0  0  0  0  0  0  0
  150.4243  141.5555  156.9367 C   0  0  0  0  0  0  0  0  0  0  0  0
  151.1643  142.3475  157.8412 N   0  0  0  0  0  0  0  0  0  0  0  0
  152.1887  141.6539  158.6153 C   0  0  0  0  0  0  0  0  0  0  0  0
  152.6303  142.5166  159.8111 C   0  0  1  0  0  0  0  0  0  0  0  0
  153.7986  141.8828  160.5737 C   0  0  0  0  0  0  0  0  0  0  0  0
  153.0507  143.7991  159.3474 O   0  0  0  0  0  0  0  0  0  0  0  0
  152.0628  144.5226  158.6102 C   0  0  2  0  0  0  0  0  0  0  0  0
  150.9232  145.0328  159.5100 C   0  0  0  0  0  0  0  0  0  0  0  0
  151.5716  143.6843  157.4139 C   0  0  0  0  0  0  0  0  0  0  0  0
  150.0004  140.3357  157.3494 N   0  0  0  0  0  0  0  0  0  0  0  0
  149.3006  139.5602  156.4944 C   0  0  0  0  0  0  0  0  0  0  0  0
  144.7094  135.7603  149.4110 H   0  0  0  0  0  0  0  0  0  0  0  0
  143.2876  135.6188  150.4568 H   0  0  0  0  0  0  0  0  0  0  0  0
  144.4060  134.2606  150.2943 H   0  0  0  0  0  0  0  0  0  0  0  0
  144.5643  137.7687  151.0813 H   0  0  0  0  0  0  0  0  0  0  0  0
  145.0714  138.4401  153.3549 H   0  0  0  0  0  0  0  0  0  0  0  0
  146.3090  137.2208  153.4633 H   0  0  0  0  0  0  0  0  0  0  0  0
  147.5230  138.4895  151.5123 H   0  0  0  0  0  0  0  0  0  0  0  0
  146.2752  139.7002  151.6257 H   0  0  0  0  0  0  0  0  0  0  0  0
  147.6293  140.6384  153.1919 H   0  0  0  0  0  0  0  0  0  0  0  0
  149.2044  141.5773  153.7479 H   0  0  0  0  0  0  0  0  0  0  0  0
  150.5013  142.9950  155.2981 H   0  0  0  0  0  0  0  0  0  0  0  0
  151.8378  140.6908  158.9823 H   0  0  0  0  0  0  0  0  0  0  0  0
  153.0394  141.4517  157.9633 H   0  0  0  0  0  0  0  0  0  0  0  0
  151.7981  142.6310  160.5061 H   0  0  0  0  0  0  0  0  0  0  0  0
  153.5266  140.9019  160.9645 H   0  0  0  0  0  0  0  0  0  0  0  0
  154.0957  142.5054  161.4180 H   0  0  0  0  0  0  0  0  0  0  0  0
  154.6693  141.7578  159.9294 H   0  0  0  0  0  0  0  0  0  0  0  0
  152.5663  145.4037  158.2118 H   0  0  0  0  0  0  0  0  0  0  0  0
  150.2589  145.6937  158.9527 H   0  0  0  0  0  0  0  0  0  0  0  0
  151.3179  145.5984  160.3541 H   0  0  0  0  0  0  0  0  0  0  0  0
  150.3121  144.2219  159.9056 H   0  0  0  0  0  0  0  0  0  0  0  0
  152.3730  143.5862  156.6807 H   0  0  0  0  0  0  0  0  0  0  0  0
  150.7465  144.2007  156.9214 H   0  0  0  0  0  0  0  0  0  0  0  0
  148.9920  138.5999  156.8812 H   0  0  0  0  0  0  0  0  0  0  0  0
  1  2  1  0  0  0  0
  1 24  1  0  0  0  0
  1 25  1  0  0  0  0
  1 26  1  0  0  0  0
  2  3  2  0  0  0  0
  2  4  1  0  0  0  0
  4  5  1  0  0  0  0
  4 27  1  0  0  0  0
  5  6  1  0  0  0  0
  5 28  1  0  0  0  0
  5 29  1  0  0  0  0
  6  7  1  0  0  0  0
  6 30  1  0  0  0  0
  6 31  1  0  0  0  0
  7  8  1  0  0  0  0
  7 32  1  0  0  0  0
  8  9  2  0  0  0  0
  8 10  1  0  0  0  0
 10 23  1  0  0  0  0
 10 11  2  0  0  0  0
 11 12  1  0  0  0  0
 11 33  1  0  0  0  0
 12 13  2  0  0  0  0
 12 34  1  0  0  0  0
 13 14  1  0  0  0  0
 13 22  1  0  0  0  0
 14 21  1  0  0  0  0
 14 15  1  0  0  0  0
 15 16  1  0  0  0  0
 15 35  1  0  0  0  0
 15 36  1  0  0  0  0
 16 17  1  0  0  0  0
 16 18  1  0  0  0  0
 16 37  1  0  0  0  0
 17 38  1  0  0  0  0
 17 39  1  0  0  0  0
 17 40  1  0  0  0  0
 18 19  1  0  0  0  0
 19 20  1  0  0  0  0
 19 21  1  0  0  0  0
 19 41  1  0  0  0  0
 20 42  1  0  0  0  0
 20 43  1  0  0  0  0
 20 44  1  0  0  0  0
 21 45  1  0  0  0  0
 21 46  1  0  0  0  0
 22 23  2  0  0  0  0
 23 47  1  0  0  0  0
M  END
> <s_m_source_file>
AV-unprocessed.smi

> <i_m_source_file_index>
2179

> <i_lp_mmshare_version>
43012

> <i_f3d_flags>
0

> <s_epik_input>
W0NIM11DKD1PKVtOSF1bQ0gyXVtDSDJdW05IXUMoPU8pYzFbY0hdW2NIXWMobltjSF0xKU4yW0NIMl1bQ0BASF0oW0NIM10pT1tDQEBIXShbQ0gzXSlbQ0gyXTI=

> <s_epik_cmdline>
J2VwaWtfcHl0aG9uJywgJy1waCcsICc3LjAnLCAnLXRuJywgJzgnLCAnLW1hJywgJzIwMCcsICctbWV0YWxfYmluZGluZycsICctaW1hZScsICc8aW5maWxlLm1hZT4nLCAnLW9tYWUnLCAnPG91dGZpbGUubWFlPic=

> <r_lp_tautomer_probability>
1

> <r_epik_Ionization_Penalty>
2.00433e-05

> <r_epik_Ionization_Penalty_Charging>
0

> <r_epik_Ionization_Penalty_Neutral>
2.00433e-05

> <r_epik_State_Penalty>
-0

> <r_epik_Charging_Adjusted_Penalty>
0

> <i_epik_Tot_Q>
0

> <i_epik_Tot_abs_Q>
0

> <r_epik_Metal_State_Penalty>
-0

> <b_epik_Metal_Only>
0

> <s_lp_Force_Field>
OPLS_2005

> <r_lp_Energy>
19.9446

> <b_lp_Chiralities_Consistent>
1

> <s_lp_Variant>
AV-unprocessed.smi:2179-3

> <Gold.Version>
5.8.1

> <Gold.Id.Protein>
6NUR|6NUR_protein|mol2

> <Gold.PLP.Fitness>
47.1663

> <Gold.PLP.PLP>
-44.8480

> <Gold.PLP.part.hbond>
-2.0000

> <Gold.PLP.part.metal>
0.0000

> <Gold.PLP.part.buried>
-3.4966

> <Gold.PLP.part.nonpolar>
-39.2531

> <Gold.PLP.part.repulsive>
0.8200

> <Gold.PLP.ligand.clash>
0.0000

> <Gold.PLP.ligand.torsion>
0.5261

> <Gold.PLP.Chemscore.Hbond>
1.0000

> <Gold.PLP.Chemscore.CHOScore>
0.0000

> <Gold.PLP.Chemscore.Metal>
0.0000

> <Gold.Chemscore.Hbonds>
donor molecule, donor type, donor heavy atom, donor atom, acceptor molecule, acceptor atom, score
      L1  H     4    27       P1 10171  1.00

> <Gold.PLP.Chemscore.Internal.Correction>
0.3705

> <Gold.Rescore>
     Score         DG    S(hbond)    S(metal)    S(lipo)     H(rot)  DE(clash)    DE(int)     intcor
     16.15     -16.74       1.00        0.00     108.35       1.86       0.17       0.42       ----

> <Gold.Chemscore.Fitness>
16.1477

> <Gold.Chemscore.DG>
-16.7369

> <Gold.Chemscore.ZeroCoef>
-5.4800

> <Gold.Chemscore.Hbond>
0.9992

> <Gold.Chemscore.Metal>
0.0000

> <Gold.Chemscore.Lipo>
108.3535

> <Gold.Chemscore.Internal_Hbond>
0.0000

> <Gold.Chemscore.DEClash>
0.1736

> <Gold.Chemscore.DEInternal>
0.4155

> <Gold.Chemscore.Rot>
1.8586

> <Gold.Chemscore.Internal.Correction>
   9.000000E+99

> <Gold.Chemscore.Hbonds>
donor molecule, donor type, donor heavy atom, donor atom, acceptor molecule, acceptor atom, score
      L1  H     4    27       P1 10171  1.00

> <Gold.Chemscore.Hbond.Weighted>
-3.3374

> <Gold.Chemscore.Metal.Weighted>
-0.0000

> <Gold.Chemscore.Lipo.Weighted>
-12.6774

> <Gold.Chemscore.Internal_Hbond.Weighted>
0.0000

> <Gold.Chemscore.DEClash.Weighted>
0.1736

> <Gold.Chemscore.DEInternal.Weighted>
0.4155

> <Gold.Chemscore.Rot.Weighted>
4.7579

> <Gold.Chemscore.Internal.Correction.Weighted>
   9.000000E+99

> <Gold.Protein.RotatedTorsions>
[ 6907 6896 6895 6894 ] final   -1.98 input  -60.11 | X-H torsion
[ 7974 7965 7964 7962 ] final  -65.82 input  175.53 | X-H torsion
[ 8008 7997 7996 7995 ] final  167.72 input   59.86 | X-H torsion
[ 10167 10162 10161 10158 ] final -110.77 input  -65.29 | X-H torsion
[ 10718 10713 10712 10709 ] final  -25.92 input   66.30 | X-H torsion
[ 10763 10752 10751 10750 ] final   15.97 input  -60.55 | X-H torsion
[ 11005 11000 10999 10996 ] final   34.76 input  -57.11 | X-H torsion

> <Gold.Protein.ActiveResidues>
 VAL166  LYS551  ARG553  GLY616  TRP617  ASP618  TYR619  PRO620  LYS621  CYS622 
 ASP623  PHE694  ASN695  SER759  ASP760  ASP761  ALA762  ILE779  LEU786  VAL792 
 PHE793  MET794  SER795  GLU796  ALA797  LYS798  CYS799  TRP800  GLU811  SER814 

> <Gold.Protein.RotatedAtoms>
  151.5373  135.1068  159.9917 H   0  0  0  0  0  0  0  0  0  0  0  0  # atno 6907 bound_to 6896
  152.4551  133.7703  159.6806 H   0  0  0  0  0  0  0  0  0  0  0  0  # atno 6908 bound_to 6896
  150.8492  133.7747  159.3056 H   0  0  0  0  0  0  0  0  0  0  0  0  # atno 6909 bound_to 6896
  145.7495  140.8915  143.0487 H   0  0  0  0  0  0  0  0  0  0  0  0  # atno 7974 bound_to 7965
  156.1609  140.1609  156.8614 H   0  0  0  0  0  0  0  0  0  0  0  0  # atno 8008 bound_to 7997
  154.5160  140.0789  156.8117 H   0  0  0  0  0  0  0  0  0  0  0  0  # atno 8009 bound_to 7997
  155.3709  140.3400  155.4245 H   0  0  0  0  0  0  0  0  0  0  0  0  # atno 8010 bound_to 7997
  140.1409  143.4280  152.1563 H   0  0  0  0  0  0  0  0  0  0  0  0  # atno 10167 bound_to 10162
  156.4580  130.4498  149.6947 H   0  0  0  0  0  0  0  0  0  0  0  0  # atno 10718 bound_to 10713
  153.1475  135.6772  153.8933 H   0  0  0  0  0  0  0  0  0  0  0  0  # atno 10763 bound_to 10752
  153.8370  135.3110  155.3424 H   0  0  0  0  0  0  0  0  0  0  0  0  # atno 10764 bound_to 10752
  154.7836  135.4874  153.9983 H   0  0  0  0  0  0  0  0  0  0  0  0  # atno 10765 bound_to 10752
  140.2496  134.3319  155.7895 H   0  0  0  0  0  0  0  0  0  0  0  0  # atno 11005 bound_to 11000
  144.6853  139.9571  143.7479 LP  0  0  0  0  0  0  0  0  0  0  0  0  # atno 17320 bound_to 7965
  146.0371  139.3387  143.0720 LP  0  0  0  0  0  0  0  0  0  0  0  0  # atno 17321 bound_to 7965
  139.5472  144.7308  151.4545 LP  0  0  0  0  0  0  0  0  0  0  0  0  # atno 17342 bound_to 10162
  140.6761  143.8187  150.7060 LP  0  0  0  0  0  0  0  0  0  0  0  0  # atno 17343 bound_to 10162
  156.3746  130.7548  151.2535 LP  0  0  0  0  0  0  0  0  0  0  0  0  # atno 17370 bound_to 10713
  157.7499  131.0313  150.4176 LP  0  0  0  0  0  0  0  0  0  0  0  0  # atno 17371 bound_to 10713
  141.2203  133.7346  156.9016 LP  0  0  0  0  0  0  0  0  0  0  0  0  # atno 17394 bound_to 11000
  140.1571  134.9191  157.2667 LP  0  0  0  0  0  0  0  0  0  0  0  0  # atno 17395 bound_to 11000

$$$$
