AV-unprocessed.smi:1057|AV-procd|sdf|4651|dock10
  -GOLD-   22720 3163D 1   1.00000     0.00000
 Structure written by MMmdl.
 45 46  0  0  0  0  0  0  0  0  2 V2000
  137.2952  136.2853  157.5818 C   0  0  0  0  0  0  0  0  0  0  0  0
  138.2821  137.0037  157.6133 C   0  0  0  0  0  0  0  0  0  0  0  0
  139.4704  137.8680  157.6653 C   0  0  0  0  0  0  0  0  0  0  0  0
  139.7313  138.5090  156.3852 N   0  0  0  0  0  0  0  0  0  0  0  0
  139.9008  137.8501  155.2303 C   0  0  0  0  0  0  0  0  0  0  0  0
  139.8436  136.6225  155.1408 O   0  0  0  0  0  0  0  0  0  0  0  0
  140.1520  138.7195  153.9922 C   0  0  0  0  0  0  0  0  0  0  0  0
  141.4956  138.5517  153.4431 N   0  0  0  0  0  0  0  0  0  0  0  0
  142.0466  137.3792  153.0972 C   0  0  0  0  0  0  0  0  0  0  0  0
  141.4825  136.2940  153.2360 O   0  0  0  0  0  0  0  0  0  0  0  0
  143.2677  137.5523  152.5652 N   0  0  0  0  0  0  0  0  0  0  0  0
  144.1562  136.5574  152.0681 C   0  0  0  0  0  0  0  0  0  0  0  0
  143.7002  135.3414  151.4985 C   0  0  0  0  0  0  0  0  0  0  0  0
  144.6353  134.3878  151.0483 C   0  0  0  0  0  0  0  0  0  0  0  0
  146.0097  134.6592  151.1817 C   0  0  0  0  0  0  0  0  0  0  0  0
  146.4120  135.8199  151.7409 N   0  3  0  0  0  0  0  0  0  0  0  0
  145.5532  136.7685  152.1879 C   0  0  0  0  0  0  0  0  0  0  0  0
  146.0808  137.9397  152.7547 N   0  0  0  0  0  0  0  0  0  0  0  0
  146.7912  137.7075  154.0092 C   0  0  0  0  0  0  0  0  0  0  0  0
  147.1315  139.0414  154.6960 C   0  0  0  0  0  0  0  0  0  0  0  0
  147.9031  139.9695  153.7436 C   0  0  0  0  0  0  0  0  0  0  0  0
  147.1253  140.1512  152.4299 C   0  0  0  0  0  0  0  0  0  0  0  0
  146.7866  138.7896  151.7992 C   0  0  0  0  0  0  0  0  0  0  0  0
  136.4342  135.6556  157.5583 H   0  0  0  0  0  0  0  0  0  0  0  0
  139.3116  138.6195  158.4400 H   0  0  0  0  0  0  0  0  0  0  0  0
  140.3249  137.2575  157.9602 H   0  0  0  0  0  0  0  0  0  0  0  0
  139.7883  139.5172  156.3773 H   0  0  0  0  0  0  0  0  0  0  0  0
  139.4308  138.4431  153.2229 H   0  0  0  0  0  0  0  0  0  0  0  0
  139.9685  139.7688  154.2302 H   0  0  0  0  0  0  0  0  0  0  0  0
  142.0270  139.3954  153.2854 H   0  0  0  0  0  0  0  0  0  0  0  0
  143.5571  138.5084  152.4183 H   0  0  0  0  0  0  0  0  0  0  0  0
  142.6477  135.1173  151.4127 H   0  0  0  0  0  0  0  0  0  0  0  0
  144.3010  133.4579  150.6119 H   0  0  0  0  0  0  0  0  0  0  0  0
  146.7935  133.9856  150.8666 H   0  0  0  0  0  0  0  0  0  0  0  0
  146.1798  137.0939  154.6724 H   0  0  0  0  0  0  0  0  0  0  0  0
  147.7069  137.1492  153.8100 H   0  0  0  0  0  0  0  0  0  0  0  0
  146.2111  139.5319  155.0162 H   0  0  0  0  0  0  0  0  0  0  0  0
  147.7158  138.8598  155.5983 H   0  0  0  0  0  0  0  0  0  0  0  0
  148.0760  140.9367  154.2164 H   0  0  0  0  0  0  0  0  0  0  0  0
  148.8853  139.5446  153.5324 H   0  0  0  0  0  0  0  0  0  0  0  0
  146.2042  140.7023  152.6249 H   0  0  0  0  0  0  0  0  0  0  0  0
  147.7053  140.7540  151.7307 H   0  0  0  0  0  0  0  0  0  0  0  0
  147.7032  138.2936  151.4769 H   0  0  0  0  0  0  0  0  0  0  0  0
  146.1710  138.9348  150.9104 H   0  0  0  0  0  0  0  0  0  0  0  0
  147.4137  135.9907  151.8313 H   0  0  0  0  0  0  0  0  0  0  0  0
  1  2  3  0  0  0  0
  1 24  1  0  0  0  0
  2  3  1  0  0  0  0
  3  4  1  0  0  0  0
  3 25  1  0  0  0  0
  3 26  1  0  0  0  0
  4  5  1  0  0  0  0
  4 27  1  0  0  0  0
  5  6  2  0  0  0  0
  5  7  1  0  0  0  0
  7  8  1  0  0  0  0
  7 28  1  0  0  0  0
  7 29  1  0  0  0  0
  8  9  1  0  0  0  0
  8 30  1  0  0  0  0
  9 10  2  0  0  0  0
  9 11  1  0  0  0  0
 11 12  1  0  0  0  0
 11 31  1  0  0  0  0
 12 17  1  0  0  0  0
 12 13  2  0  0  0  0
 13 14  1  0  0  0  0
 13 32  1  0  0  0  0
 14 15  2  0  0  0  0
 14 33  1  0  0  0  0
 15 16  1  0  0  0  0
 15 34  1  0  0  0  0
 16 17  2  0  0  0  0
 16 45  1  0  0  0  0
 17 18  1  0  0  0  0
 18 23  1  0  0  0  0
 18 19  1  0  0  0  0
 19 20  1  0  0  0  0
 19 35  1  0  0  0  0
 19 36  1  0  0  0  0
 20 21  1  0  0  0  0
 20 37  1  0  0  0  0
 20 38  1  0  0  0  0
 21 22  1  0  0  0  0
 21 39  1  0  0  0  0
 21 40  1  0  0  0  0
 22 23  1  0  0  0  0
 22 41  1  0  0  0  0
 22 42  1  0  0  0  0
 23 43  1  0  0  0  0
 23 44  1  0  0  0  0
M  CHG  1  16   1
M  END
> <s_m_source_file>
AV-unprocessed.smi

> <i_m_source_file_index>
1057

> <i_lp_mmshare_version>
43012

> <i_f3d_flags>
0

> <s_epik_input>
W0NIXSNDW0NIMl1bTkhdQyg9TylbQ0gyXVtOSF1DKD1PKVtOSF1jMVtjSF1bY0hdW2NIXW5jMU4yW0NIMl1bQ0gyXVtDSDJdW0NIMl1bQ0gyXTI=

> <s_epik_cmdline>
J2VwaWtfcHl0aG9uJywgJy1waCcsICc3LjAnLCAnLXRuJywgJzgnLCAnLW1hJywgJzIwMCcsICctbWV0YWxfYmluZGluZycsICctaW1hZScsICc8aW5maWxlLm1hZT4nLCAnLW9tYWUnLCAnPG91dGZpbGUubWFlPic=

> <r_lp_tautomer_probability>
0.999994

> <r_epik_Ionization_Penalty>
0.641093

> <r_epik_Ionization_Penalty_Charging>
0.641074

> <r_epik_Ionization_Penalty_Neutral>
1.89753e-05

> <r_epik_State_Penalty>
0.658761

> <r_epik_Charging_Adjusted_Penalty>
1.29984

> <i_epik_Tot_Q>
1

> <i_epik_Tot_abs_Q>
1

> <r_epik_Metal_State_Penalty>
0.833895

> <b_epik_Metal_Only>
0

> <s_lp_Force_Field>
OPLS_2005

> <r_lp_Energy>
23.0781

> <b_lp_Chiralities_Consistent>
1

> <s_lp_Variant>
AV-unprocessed.smi:1057-2

> <Gold.Version>
5.8.1

> <Gold.Id.Protein>
6NUR|6NUR_protein|mol2

> <Gold.PLP.Fitness>
43.8851

> <Gold.PLP.PLP>
-29.5519

> <Gold.PLP.part.hbond>
-5.0000

> <Gold.PLP.part.metal>
0.0000

> <Gold.PLP.part.buried>
-0.4043

> <Gold.PLP.part.nonpolar>
-25.2465

> <Gold.PLP.part.repulsive>
0.5694

> <Gold.PLP.ligand.clash>
0.0000

> <Gold.PLP.ligand.torsion>
0.3694

> <Gold.PLP.Chemscore.Hbond>
4.9588

> <Gold.PLP.Chemscore.CHOScore>
0.0000

> <Gold.PLP.Chemscore.Metal>
0.0000

> <Gold.Chemscore.Hbonds>
donor molecule, donor type, donor heavy atom, donor atom, acceptor molecule, acceptor atom, score
      L1  H     8    30       P1 10175  0.96
      L1  H    11    31       P1 10175  1.00
      L1  H    16    45       P1  7948  1.98
      P1  H 11000 11005       L1     6  0.98

> <Gold.PLP.Chemscore.Internal.Correction>
0.1957

> <Gold.Rescore>
     Score         DG    S(hbond)    S(metal)    S(lipo)     H(rot)  DE(clash)    DE(int)     intcor
     14.76     -20.63       3.77        0.00      61.49       1.82       1.64       4.23       ----

> <Gold.Chemscore.Fitness>
14.7559

> <Gold.Chemscore.DG>
-20.6315

> <Gold.Chemscore.ZeroCoef>
-5.4800

> <Gold.Chemscore.Hbond>
3.7740

> <Gold.Chemscore.Metal>
0.0000

> <Gold.Chemscore.Lipo>
61.4949

> <Gold.Chemscore.Internal_Hbond>
0.0000

> <Gold.Chemscore.DEClash>
1.6414

> <Gold.Chemscore.DEInternal>
4.2342

> <Gold.Chemscore.Rot>
1.8159

> <Gold.Chemscore.Internal.Correction>
   9.000000E+99

> <Gold.Chemscore.Hbonds>
donor molecule, donor type, donor heavy atom, donor atom, acceptor molecule, acceptor atom, score
      L1  H     8    30       P1 10175  0.83
      L1  H    11    31       P1 10175  0.99
      L1  H    16    45       P1  7948  0.92
      P1  H 11000 11005       L1     6  0.90

> <Gold.Chemscore.Hbond.Weighted>
-12.6052

> <Gold.Chemscore.Metal.Weighted>
-0.0000

> <Gold.Chemscore.Lipo.Weighted>
-7.1949

> <Gold.Chemscore.Internal_Hbond.Weighted>
0.0000

> <Gold.Chemscore.DEClash.Weighted>
1.6414

> <Gold.Chemscore.DEInternal.Weighted>
4.2342

> <Gold.Chemscore.Rot.Weighted>
4.6486

> <Gold.Chemscore.Internal.Correction.Weighted>
   9.000000E+99

> <Gold.Protein.RotatedTorsions>
[ 6907 6896 6895 6894 ] final  -12.23 input  -60.11 | X-H torsion
[ 7974 7965 7964 7962 ] final  101.99 input  175.53 | X-H torsion
[ 8008 7997 7996 7995 ] final   -8.58 input   59.86 | X-H torsion
[ 10167 10162 10161 10158 ] final  110.67 input  -65.29 | X-H torsion
[ 10718 10713 10712 10709 ] final  -86.91 input   66.30 | X-H torsion
[ 10763 10752 10751 10750 ] final  -94.77 input  -60.55 | X-H torsion
[ 11005 11000 10999 10996 ] final   82.44 input  -57.11 | X-H torsion

> <Gold.Protein.ActiveResidues>
 VAL166  LYS551  ARG553  GLY616  TRP617  ASP618  TYR619  PRO620  LYS621  CYS622 
 ASP623  PHE694  ASN695  SER759  ASP760  ASP761  ALA762  ILE779  LEU786  VAL792 
 PHE793  MET794  SER795  GLU796  ALA797  LYS798  CYS799  TRP800  GLU811  SER814 

> <Gold.Protein.RotatedAtoms>
  151.3737  135.0927  159.9473 H   0  0  0  0  0  0  0  0  0  0  0  0  # atno 6907 bound_to 6896
  152.5128  133.9139  159.7512 H   0  0  0  0  0  0  0  0  0  0  0  0  # atno 6908 bound_to 6896
  150.9558  133.6444  159.2792 H   0  0  0  0  0  0  0  0  0  0  0  0  # atno 6909 bound_to 6896
  145.3650  139.2410  143.3486 H   0  0  0  0  0  0  0  0  0  0  0  0  # atno 7974 bound_to 7965
  154.5728  140.2377  155.8167 H   0  0  0  0  0  0  0  0  0  0  0  0  # atno 8008 bound_to 7997
  156.2120  140.3023  155.9711 H   0  0  0  0  0  0  0  0  0  0  0  0  # atno 8009 bound_to 7997
  155.2681  140.0417  157.2995 H   0  0  0  0  0  0  0  0  0  0  0  0  # atno 8010 bound_to 7997
  139.6671  144.7127  151.1757 H   0  0  0  0  0  0  0  0  0  0  0  0  # atno 10167 bound_to 10162
  155.9987  130.4781  150.4786 H   0  0  0  0  0  0  0  0  0  0  0  0  # atno 10718 bound_to 10713
  154.7086  135.5145  153.8632 H   0  0  0  0  0  0  0  0  0  0  0  0  # atno 10763 bound_to 10752
  153.0762  135.6617  154.0150 H   0  0  0  0  0  0  0  0  0  0  0  0  # atno 10764 bound_to 10752
  153.9996  135.3012  155.3383 H   0  0  0  0  0  0  0  0  0  0  0  0  # atno 10765 bound_to 10752
  139.9063  134.8071  156.2175 H   0  0  0  0  0  0  0  0  0  0  0  0  # atno 11005 bound_to 11000
  146.2911  140.4291  142.8739 LP  0  0  0  0  0  0  0  0  0  0  0  0  # atno 17320 bound_to 7965
  144.8618  140.7151  143.6102 LP  0  0  0  0  0  0  0  0  0  0  0  0  # atno 17321 bound_to 7965
  140.7603  143.5903  150.8803 LP  0  0  0  0  0  0  0  0  0  0  0  0  # atno 17342 bound_to 10162
  139.9565  143.6212  152.3014 LP  0  0  0  0  0  0  0  0  0  0  0  0  # atno 17343 bound_to 10162
  157.2794  131.0603  151.2208 LP  0  0  0  0  0  0  0  0  0  0  0  0  # atno 17370 bound_to 10713
  157.3259  130.6961  149.6296 LP  0  0  0  0  0  0  0  0  0  0  0  0  # atno 17371 bound_to 10713
  141.0427  133.6929  156.1626 LP  0  0  0  0  0  0  0  0  0  0  0  0  # atno 17394 bound_to 11000
  140.6931  134.4644  157.5588 LP  0  0  0  0  0  0  0  0  0  0  0  0  # atno 17395 bound_to 11000

$$$$
