AV-unprocessed.smi:37|AV-procd|sdf|327|dock6
  -GOLD-   2262016153D 1   1.00000     0.00000
 Structure written by MMmdl.
 43 44  0  0  0  0  0  0  0  0  2 V2000
  147.7986  136.3127  162.5324 C   0  0  0  0  0  0  0  0  0  0  0  0
  147.7353  135.5766  161.1873 C   0  0  0  0  0  0  0  0  0  0  0  0
  148.0946  136.4847  160.0130 C   0  0  0  0  0  0  0  0  0  0  0  0
  147.4924  137.5395  159.8104 O   0  0  0  0  0  0  0  0  0  0  0  0
  149.0969  135.9948  159.2666 O   0  0  0  0  0  0  0  0  0  0  0  0
  149.2301  136.4036  157.9158 C   0  0  0  0  0  0  0  0  0  0  0  0
  150.3847  137.4075  157.8028 C   0  0  2  0  0  0  0  0  0  0  0  0
  150.2123  138.4983  158.7005 O   0  0  0  0  0  0  0  0  0  0  0  0
  150.8555  139.6357  158.1994 C   0  0  1  0  0  0  0  0  0  0  0  0
  151.9621  140.0571  159.1398 N   0  0  0  0  0  0  0  0  0  0  0  0
  152.1445  141.3852  159.4894 C   0  0  0  0  0  0  0  0  0  0  0  0
  153.1342  141.7560  160.3272 C   0  0  0  0  0  0  0  0  0  0  0  0
  153.2847  143.0515  160.6523 F   0  0  0  0  0  0  0  0  0  0  0  0
  154.0345  140.7438  160.8771 C   0  0  0  0  0  0  0  0  0  0  0  0
  154.9380  141.0889  161.6373 O   0  0  0  0  0  0  0  0  0  0  0  0
  153.8287  139.4435  160.5171 N   0  5  0  0  0  0  0  0  0  0  0  0
  152.8259  139.0626  159.6728 C   0  0  0  0  0  0  0  0  0  0  0  0
  152.6231  137.8917  159.3498 O   0  0  0  0  0  0  0  0  0  0  0  0
  151.3615  139.2984  156.7800 C   0  0  1  0  0  0  0  0  0  0  0  0
  153.2845  138.7528  156.7241 Br  0  0  0  0  0  0  0  0  0  0  0  0
  150.5183  138.0832  156.4357 C   0  0  2  0  0  0  0  0  0  0  0  0
  149.2355  138.4783  155.9593 O   0  0  0  0  0  0  0  0  0  0  0  0
  149.1242  139.3533  154.9438 C   0  0  0  0  0  0  0  0  0  0  0  0
  150.0576  139.8916  154.3484 O   0  0  0  0  0  0  0  0  0  0  0  0
  147.6711  139.6547  154.5833 C   0  0  0  0  0  0  0  0  0  0  0  0
  147.5521  140.7226  153.4872 C   0  0  0  0  0  0  0  0  0  0  0  0
  147.4888  135.6541  163.3437 H   0  0  0  0  0  0  0  0  0  0  0  0
  147.1386  137.1808  162.5413 H   0  0  0  0  0  0  0  0  0  0  0  0
  148.8100  136.6553  162.7546 H   0  0  0  0  0  0  0  0  0  0  0  0
  148.4145  134.7238  161.1950 H   0  0  0  0  0  0  0  0  0  0  0  0
  146.7320  135.1799  161.0303 H   0  0  0  0  0  0  0  0  0  0  0  0
  149.4417  135.5265  157.3027 H   0  0  0  0  0  0  0  0  0  0  0  0
  148.3004  136.8439  157.5521 H   0  0  0  0  0  0  0  0  0  0  0  0
  151.3274  136.9109  158.0393 H   0  0  0  0  0  0  0  0  0  0  0  0
  150.1254  140.4468  158.2129 H   0  0  0  0  0  0  0  0  0  0  0  0
  151.4863  142.1464  159.0984 H   0  0  0  0  0  0  0  0  0  0  0  0
  151.2304  140.1436  156.1035 H   0  0  0  0  0  0  0  0  0  0  0  0
  151.0073  137.4266  155.7144 H   0  0  0  0  0  0  0  0  0  0  0  0
  147.1901  138.7312  154.2599 H   0  0  0  0  0  0  0  0  0  0  0  0
  147.1478  139.9866  155.4804 H   0  0  0  0  0  0  0  0  0  0  0  0
  146.5050  140.9469  153.2829 H   0  0  0  0  0  0  0  0  0  0  0  0
  148.0050  140.3901  152.5523 H   0  0  0  0  0  0  0  0  0  0  0  0
  148.0373  141.6529  153.7850 H   0  0  0  0  0  0  0  0  0  0  0  0
  1  2  1  0  0  0  0
  1 27  1  0  0  0  0
  1 28  1  0  0  0  0
  1 29  1  0  0  0  0
  2  3  1  0  0  0  0
  2 30  1  0  0  0  0
  2 31  1  0  0  0  0
  3  4  2  0  0  0  0
  3  5  1  0  0  0  0
  5  6  1  0  0  0  0
  6  7  1  0  0  0  0
  6 32  1  0  0  0  0
  6 33  1  0  0  0  0
  7 21  1  0  0  0  0
  7  8  1  0  0  0  0
  7 34  1  0  0  0  0
  8  9  1  0  0  0  0
  9 10  1  0  0  0  0
  9 19  1  0  0  0  0
  9 35  1  0  0  0  0
 10 17  1  0  0  0  0
 10 11  1  0  0  0  0
 11 12  2  0  0  0  0
 11 36  1  0  0  0  0
 12 13  1  0  0  0  0
 12 14  1  0  0  0  0
 14 15  2  0  0  0  0
 14 16  1  0  0  0  0
 16 17  1  0  0  0  0
 17 18  2  0  0  0  0
 19 20  1  0  0  0  0
 19 21  1  0  0  0  0
 19 37  1  0  0  0  0
 21 22  1  0  0  0  0
 21 38  1  0  0  0  0
 22 23  1  0  0  0  0
 23 24  2  0  0  0  0
 23 25  1  0  0  0  0
 25 26  1  0  0  0  0
 25 39  1  0  0  0  0
 25 40  1  0  0  0  0
 26 41  1  0  0  0  0
 26 42  1  0  0  0  0
 26 43  1  0  0  0  0
M  CHG  1  16  -1
M  END
> <s_m_source_file>
AV-unprocessed.smi

> <i_m_source_file_index>
37

> <i_lp_mmshare_version>
43012

> <i_f3d_flags>
0

> <s_epik_input>
W0NIM11bQ0gyXUMoPU8pT1tDSDJdW0NAQEhdMU9bQ0BASF0objJbY0hdYyhGKWMoPU8pW25IXWMyPU8pW0NAQEhdKEJyKVtDQEhdMU9DKD1PKVtDSDJdW0NIM10=

> <s_epik_cmdline>
J2VwaWtfcHl0aG9uJywgJy1waCcsICc3LjAnLCAnLXRuJywgJzgnLCAnLW1hJywgJzIwMCcsICctbWV0YWxfYmluZGluZycsICctaW1hZScsICc8aW5maWxlLm1hZT4nLCAnLW9tYWUnLCAnPG91dGZpbGUubWFlPic=

> <r_epik_Ionization_Penalty>
1.08158

> <r_epik_Ionization_Penalty_Charging>
9.05154e-09

> <r_epik_Ionization_Penalty_Neutral>
1.08158

> <r_epik_State_Penalty>
1.13706

> <r_epik_Charging_Adjusted_Penalty>
1.13706

> <i_epik_Tot_Q>
-1

> <i_epik_Tot_abs_Q>
1

> <r_epik_Metal_State_Penalty>
0.00343535

> <b_epik_Metal_Only>
0

> <s_epik_Chemistry_Notes>
This compound has an ester and may undergo hydrolysis at high or low pH. This compound contains an acetal/aminal-like group ( X-CH(R)-Y where X, Y are N, S, or O) that may be acid/base labile, releasing an aldehyde.

> <s_lp_Force_Field>
OPLS_2005

> <r_lp_Energy>
34.9368

> <b_lp_Chiralities_Consistent>
1

> <s_lp_Variant>
AV-unprocessed.smi:37-25

> <Gold.Version>
5.8.1

> <Gold.Id.Protein>
6NUR|6NUR_protein|mol2

> <Gold.PLP.Fitness>
38.9302

> <Gold.PLP.PLP>
-35.5115

> <Gold.PLP.part.hbond>
-3.7589

> <Gold.PLP.part.metal>
0.0000

> <Gold.PLP.part.buried>
-3.2096

> <Gold.PLP.part.nonpolar>
-28.6371

> <Gold.PLP.part.repulsive>
0.1351

> <Gold.PLP.ligand.clash>
0.0000

> <Gold.PLP.ligand.torsion>
1.1737

> <Gold.PLP.Chemscore.Hbond>
1.8320

> <Gold.PLP.Chemscore.CHOScore>
0.0000

> <Gold.PLP.Chemscore.Metal>
0.0000

> <Gold.Chemscore.Hbonds>
donor molecule, donor type, donor heavy atom, donor atom, acceptor molecule, acceptor atom, score
      P1  H  6934  6947       L1     4  0.82
      P1  H  7989  7998       L1    24  0.99

> <Gold.PLP.Chemscore.Internal.Correction>
0.2702

> <Gold.Rescore>
     Score         DG    S(hbond)    S(metal)    S(lipo)     H(rot)  DE(clash)    DE(int)     intcor
      1.81     -11.08       1.86        0.00      66.34       3.27       1.36       7.91       ----

> <Gold.Chemscore.Fitness>
1.8062

> <Gold.Chemscore.DG>
-11.0751

> <Gold.Chemscore.ZeroCoef>
-5.4800

> <Gold.Chemscore.Hbond>
1.8553

> <Gold.Chemscore.Metal>
0.0000

> <Gold.Chemscore.Lipo>
66.3404

> <Gold.Chemscore.Internal_Hbond>
0.0000

> <Gold.Chemscore.DEClash>
1.3553

> <Gold.Chemscore.DEInternal>
7.9137

> <Gold.Chemscore.Rot>
3.2669

> <Gold.Chemscore.Internal.Correction>
   9.000000E+99

> <Gold.Chemscore.Hbonds>
donor molecule, donor type, donor heavy atom, donor atom, acceptor molecule, acceptor atom, score
      P1  H  6934  6947       L1     4  0.81
      P1  H  7989  7998       L1    24  0.90

> <Gold.Chemscore.Hbond.Weighted>
-6.1967

> <Gold.Chemscore.Metal.Weighted>
-0.0000

> <Gold.Chemscore.Lipo.Weighted>
-7.7618

> <Gold.Chemscore.Internal_Hbond.Weighted>
0.0000

> <Gold.Chemscore.DEClash.Weighted>
1.3553

> <Gold.Chemscore.DEInternal.Weighted>
7.9137

> <Gold.Chemscore.Rot.Weighted>
8.3634

> <Gold.Chemscore.Internal.Correction.Weighted>
   9.000000E+99

> <Gold.Protein.RotatedTorsions>
[ 6907 6896 6895 6894 ] final  102.10 input  -60.11 | X-H torsion
[ 7974 7965 7964 7962 ] final  -32.59 input  175.53 | X-H torsion
[ 8008 7997 7996 7995 ] final  -95.18 input   59.86 | X-H torsion
[ 10167 10162 10161 10158 ] final -116.15 input  -65.29 | X-H torsion
[ 10718 10713 10712 10709 ] final -145.00 input   66.30 | X-H torsion
[ 10763 10752 10751 10750 ] final  -18.29 input  -60.55 | X-H torsion
[ 11005 11000 10999 10996 ] final  177.13 input  -57.11 | X-H torsion

> <Gold.Protein.ActiveResidues>
 VAL166  LYS551  ARG553  GLY616  TRP617  ASP618  TYR619  PRO620  LYS621  CYS622 
 ASP623  PHE694  ASN695  SER759  ASP760  ASP761  ALA762  ILE779  LEU786  VAL792 
 PHE793  MET794  SER795  GLU796  ALA797  LYS798  CYS799  TRP800  GLU811  SER814 

> <Gold.Protein.RotatedAtoms>
  152.5333  134.0027  159.7901 H   0  0  0  0  0  0  0  0  0  0  0  0  # atno 6907 bound_to 6896
  151.0243  133.5840  159.2675 H   0  0  0  0  0  0  0  0  0  0  0  0  # atno 6908 bound_to 6896
  151.2868  135.0737  159.9243 H   0  0  0  0  0  0  0  0  0  0  0  0  # atno 6909 bound_to 6896
  146.0978  140.5812  142.8835 H   0  0  0  0  0  0  0  0  0  0  0  0  # atno 7974 bound_to 7965
  154.7581  140.0482  157.0950 H   0  0  0  0  0  0  0  0  0  0  0  0  # atno 8008 bound_to 7997
  154.9973  140.3120  155.4862 H   0  0  0  0  0  0  0  0  0  0  0  0  # atno 8009 bound_to 7997
  156.2898  140.2208  156.5081 H   0  0  0  0  0  0  0  0  0  0  0  0  # atno 8010 bound_to 7997
  140.0824  143.4776  152.1918 H   0  0  0  0  0  0  0  0  0  0  0  0  # atno 10167 bound_to 10162
  156.3771  130.7818  151.2005 H   0  0  0  0  0  0  0  0  0  0  0  0  # atno 10718 bound_to 10713
  153.5870  135.7003  153.5439 H   0  0  0  0  0  0  0  0  0  0  0  0  # atno 10763 bound_to 10752
  153.3212  135.4073  155.1417 H   0  0  0  0  0  0  0  0  0  0  0  0  # atno 10764 bound_to 10752
  154.8607  135.3696  154.5400 H   0  0  0  0  0  0  0  0  0  0  0  0  # atno 10765 bound_to 10752
  140.3807  134.6949  157.4449 H   0  0  0  0  0  0  0  0  0  0  0  0  # atno 11005 bound_to 11000
  144.7408  140.4938  143.6870 LP  0  0  0  0  0  0  0  0  0  0  0  0  # atno 17320 bound_to 7965
  145.5915  139.1496  143.3180 LP  0  0  0  0  0  0  0  0  0  0  0  0  # atno 17321 bound_to 7965
  139.5772  144.7493  151.3734 LP  0  0  0  0  0  0  0  0  0  0  0  0  # atno 17342 bound_to 10162
  140.7071  143.7486  150.7501 LP  0  0  0  0  0  0  0  0  0  0  0  0  # atno 17343 bound_to 10162
  157.7489  131.0355  150.4366 LP  0  0  0  0  0  0  0  0  0  0  0  0  # atno 17370 bound_to 10713
  156.4604  130.4030  149.6580 LP  0  0  0  0  0  0  0  0  0  0  0  0  # atno 17371 bound_to 10713
  140.0481  134.6170  155.8896 LP  0  0  0  0  0  0  0  0  0  0  0  0  # atno 17394 bound_to 11000
  141.1924  133.6575  156.5502 LP  0  0  0  0  0  0  0  0  0  0  0  0  # atno 17395 bound_to 11000

$$$$
