AV-unprocessed.smi:2480|AV-procd|sdf|9770|dock2
  -GOLD-   2272013413D 1   1.00000     0.00000
 Structure written by MMmdl.
 33 34  0  0  0  0  0  0  0  0  3 V2000
  150.8729  142.8107  157.6889 O   0  0  0  0  0  0  0  0  0  0  0  0
  151.5297  141.8433  158.0677 C   0  0  0  0  0  0  0  0  0  0  0  0
  151.4175  140.5943  157.5733 N   0  0  0  0  0  0  0  0  0  0  0  0
  150.5696  140.1013  156.5393 C   0  0  0  0  0  0  0  0  0  0  0  0
  149.3882  140.7737  156.1393 C   0  0  0  0  0  0  0  0  0  0  0  0
  148.5771  140.1973  155.1439 C   0  0  0  0  0  0  0  0  0  0  0  0
  148.8564  139.0207  154.5501 N   0  0  0  0  0  0  0  0  0  0  0  0
  149.9714  138.3704  154.9408 C   0  0  0  0  0  0  0  0  0  0  0  0
  150.8652  138.8537  155.9232 C   0  0  0  0  0  0  0  0  0  0  0  0
  152.0521  138.0506  156.2711 N   0  3  0  0  0  0  0  0  0  0  0  0
  152.8679  138.5495  157.0388 O   0  0  0  0  0  0  0  0  0  0  0  0
  152.1573  136.9223  155.8023 O   0  5  0  0  0  0  0  0  0  0  0  0
  152.4554  141.9708  159.0369 N   0  0  0  0  0  0  0  0  0  0  0  0
  152.8358  143.1709  159.7859 C   0  0  1  0  0  0  0  0  0  0  0  0
  152.9741  144.3621  158.8472 C   0  0  0  0  0  0  0  0  0  0  0  0
  152.4898  145.5862  159.1171 C   0  0  0  0  0  0  0  0  0  0  0  0
  151.7541  145.9317  160.3983 C   0  0  0  0  0  0  0  0  0  0  0  0
  151.9336  144.8517  161.4801 C   0  0  0  0  0  0  0  0  0  0  0  0
  151.7989  143.4359  160.8983 C   0  0  0  0  0  0  0  0  0  0  0  0
  152.0819  139.9261  157.9360 H   0  0  0  0  0  0  0  0  0  0  0  0
  149.0753  141.7047  156.5853 H   0  0  0  0  0  0  0  0  0  0  0  0
  147.6713  140.6910  154.8245 H   0  0  0  0  0  0  0  0  0  0  0  0
  150.1585  137.4296  154.4440 H   0  0  0  0  0  0  0  0  0  0  0  0
  152.9380  141.1245  159.3032 H   0  0  0  0  0  0  0  0  0  0  0  0
  153.8057  143.0254  160.2641 H   0  0  0  0  0  0  0  0  0  0  0  0
  153.4915  144.1934  157.9141 H   0  0  0  0  0  0  0  0  0  0  0  0
  152.6064  146.3799  158.3937 H   0  0  0  0  0  0  0  0  0  0  0  0
  152.1098  146.8927  160.7703 H   0  0  0  0  0  0  0  0  0  0  0  0
  150.6976  146.0544  160.1586 H   0  0  0  0  0  0  0  0  0  0  0  0
  152.9195  144.9555  161.9349 H   0  0  0  0  0  0  0  0  0  0  0  0
  151.2086  145.0034  162.2803 H   0  0  0  0  0  0  0  0  0  0  0  0
  150.7893  143.3185  160.5012 H   0  0  0  0  0  0  0  0  0  0  0  0
  151.9053  142.6932  161.6900 H   0  0  0  0  0  0  0  0  0  0  0  0
  1  2  2  0  0  0  0
  2  3  1  0  0  0  0
  2 13  1  0  0  0  0
  3  4  1  0  0  0  0
  3 20  1  0  0  0  0
  4  9  1  0  0  0  0
  4  5  2  0  0  0  0
  5  6  1  0  0  0  0
  5 21  1  0  0  0  0
  6  7  2  0  0  0  0
  6 22  1  0  0  0  0
  7  8  1  0  0  0  0
  8  9  2  0  0  0  0
  8 23  1  0  0  0  0
  9 10  1  0  0  0  0
 10 11  2  0  0  0  0
 10 12  1  0  0  0  0
 13 14  1  0  0  0  0
 13 24  1  0  0  0  0
 14 19  1  0  0  0  0
 14 15  1  0  0  0  0
 14 25  1  0  0  0  0
 15 16  2  0  0  0  0
 15 26  1  0  0  0  0
 16 17  1  0  0  0  0
 16 27  1  0  0  0  0
 17 18  1  0  0  0  0
 17 28  1  0  0  0  0
 17 29  1  0  0  0  0
 18 19  1  0  0  0  0
 18 30  1  0  0  0  0
 18 31  1  0  0  0  0
 19 32  1  0  0  0  0
 19 33  1  0  0  0  0
M  CHG  1  10   1
M  CHG  1  12  -1
M  END
> <s_m_source_file>
AV-unprocessed.smi

> <i_m_source_file_index>
2480

> <i_lp_mmshare_version>
43012

> <i_f3d_flags>
0

> <s_epik_input>
W0NIMl0xW0NIMl1bQ0gyXVtDSF09W0NIXVtDQEhdMVtOSF1DKD1PKVtOSF1jMltjSF1bY0hdbltjSF1jMltOK10oPU8pW08tXQ==

> <s_epik_cmdline>
J2VwaWtfcHl0aG9uJywgJy1waCcsICc3LjAnLCAnLXRuJywgJzgnLCAnLW1hJywgJzIwMCcsICctbWV0YWxfYmluZGluZycsICctaW1hZScsICc8aW5maWxlLm1hZT4nLCAnLW9tYWUnLCAnPG91dGZpbGUubWFlPic=

> <r_lp_tautomer_probability>
1

> <r_epik_Ionization_Penalty>
0.000149203

> <r_epik_Ionization_Penalty_Charging>
0

> <r_epik_Ionization_Penalty_Neutral>
0.000149203

> <r_epik_State_Penalty>
-0

> <r_epik_Charging_Adjusted_Penalty>
0

> <i_epik_Tot_Q>
0

> <i_epik_Tot_abs_Q>
2

> <r_epik_Metal_State_Penalty>
-0

> <b_epik_Metal_Only>
0

> <s_lp_Force_Field>
OPLS_2005

> <r_lp_Energy>
27.1636

> <b_lp_Chiralities_Consistent>
1

> <s_lp_Variant>
AV-unprocessed.smi:2480-2

> <Gold.Version>
5.8.1

> <Gold.Id.Protein>
6NUR|6NUR_protein|mol2

> <Gold.PLP.Fitness>
48.4124

> <Gold.PLP.PLP>
-40.7701

> <Gold.PLP.part.hbond>
-2.0000

> <Gold.PLP.part.metal>
0.0000

> <Gold.PLP.part.buried>
-3.3234

> <Gold.PLP.part.nonpolar>
-36.1505

> <Gold.PLP.part.repulsive>
1.0874

> <Gold.PLP.ligand.clash>
0.0000

> <Gold.PLP.ligand.torsion>
0.3420

> <Gold.PLP.Chemscore.Hbond>
1.6720

> <Gold.PLP.Chemscore.CHOScore>
1.0997

> <Gold.PLP.Chemscore.Metal>
0.0000

> <Gold.Chemscore.Hbonds>
donor molecule, donor type, donor heavy atom, donor atom, acceptor molecule, acceptor atom, score
      P1  H  7997  8009       L1    11  0.15
      P1  H 10752 10764       L1    12  0.16

> <Gold.PLP.Chemscore.Internal.Correction>
0.0111

> <Gold.Rescore>
     Score         DG    S(hbond)    S(metal)    S(lipo)     H(rot)  DE(clash)    DE(int)     intcor
     16.85     -21.19       1.76        0.00     105.79       1.00       0.10       4.24       ----

> <Gold.Chemscore.Fitness>
16.8461

> <Gold.Chemscore.DG>
-21.1857

> <Gold.Chemscore.ZeroCoef>
-5.4800

> <Gold.Chemscore.Hbond>
1.7629

> <Gold.Chemscore.Metal>
0.0000

> <Gold.Chemscore.Lipo>
105.7916

> <Gold.Chemscore.Internal_Hbond>
0.0000

> <Gold.Chemscore.DEClash>
0.0957

> <Gold.Chemscore.DEInternal>
4.2440

> <Gold.Chemscore.Rot>
1.0000

> <Gold.Chemscore.Internal.Correction>
   9.000000E+99

> <Gold.Chemscore.Hbonds>
donor molecule, donor type, donor heavy atom, donor atom, acceptor molecule, acceptor atom, score
      P1  H  7997  8009       L1    11  0.15
      P1  H 10752 10764       L1    12  0.16

> <Gold.Chemscore.Hbond.Weighted>
-5.8881

> <Gold.Chemscore.Metal.Weighted>
-0.0000

> <Gold.Chemscore.Lipo.Weighted>
-12.3776

> <Gold.Chemscore.Internal_Hbond.Weighted>
0.0000

> <Gold.Chemscore.DEClash.Weighted>
0.0957

> <Gold.Chemscore.DEInternal.Weighted>
4.2440

> <Gold.Chemscore.Rot.Weighted>
2.5600

> <Gold.Chemscore.Internal.Correction.Weighted>
   9.000000E+99

> <Gold.Protein.RotatedTorsions>
[ 6907 6896 6895 6894 ] final    4.52 input  -60.11 | X-H torsion
[ 7974 7965 7964 7962 ] final -109.25 input  175.53 | X-H torsion
[ 8008 7997 7996 7995 ] final -150.84 input   59.86 | X-H torsion
[ 10167 10162 10161 10158 ] final -145.11 input  -65.29 | X-H torsion
[ 10718 10713 10712 10709 ] final -137.40 input   66.30 | X-H torsion
[ 10763 10752 10751 10750 ] final  -88.33 input  -60.55 | X-H torsion
[ 11005 11000 10999 10996 ] final -158.38 input  -57.11 | X-H torsion

> <Gold.Protein.ActiveResidues>
 VAL166  LYS551  ARG553  GLY616  TRP617  ASP618  TYR619  PRO620  LYS621  CYS622 
 ASP623  PHE694  ASN695  SER759  ASP760  ASP761  ALA762  ILE779  LEU786  VAL792 
 PHE793  MET794  SER795  GLU796  ALA797  LYS798  CYS799  TRP800  GLU811  SER814 

> <Gold.Protein.RotatedAtoms>
  151.6426  135.1011  160.0144 H   0  0  0  0  0  0  0  0  0  0  0  0  # atno 6907 bound_to 6896
  152.4046  133.6865  159.6353 H   0  0  0  0  0  0  0  0  0  0  0  0  # atno 6908 bound_to 6896
  150.7942  133.8649  159.3283 H   0  0  0  0  0  0  0  0  0  0  0  0  # atno 6909 bound_to 6896
  145.1829  140.8979  143.3469 H   0  0  0  0  0  0  0  0  0  0  0  0  # atno 7974 bound_to 7965
  155.6300  140.0690  157.2652 H   0  0  0  0  0  0  0  0  0  0  0  0  # atno 8008 bound_to 7997
  154.4208  140.1769  156.1511 H   0  0  0  0  0  0  0  0  0  0  0  0  # atno 8009 bound_to 7997
  155.9941  140.3342  155.6784 H   0  0  0  0  0  0  0  0  0  0  0  0  # atno 8010 bound_to 7997
  139.7836  143.8066  152.2642 H   0  0  0  0  0  0  0  0  0  0  0  0  # atno 10167 bound_to 10162
  156.2877  130.7357  151.1373 H   0  0  0  0  0  0  0  0  0  0  0  0  # atno 10718 bound_to 10713
  154.6433  135.5381  153.7815 H   0  0  0  0  0  0  0  0  0  0  0  0  # atno 10763 bound_to 10752
  153.0346  135.6464  154.1126 H   0  0  0  0  0  0  0  0  0  0  0  0  # atno 10764 bound_to 10752
  154.1049  135.2930  155.3223 H   0  0  0  0  0  0  0  0  0  0  0  0  # atno 10765 bound_to 10752
  140.6543  134.4417  157.5235 H   0  0  0  0  0  0  0  0  0  0  0  0  # atno 11005 bound_to 11000
  145.0118  139.3503  143.6116 LP  0  0  0  0  0  0  0  0  0  0  0  0  # atno 17320 bound_to 7965
  146.3450  139.9384  142.8744 LP  0  0  0  0  0  0  0  0  0  0  0  0  # atno 17321 bound_to 7965
  139.8136  144.7325  150.9665 LP  0  0  0  0  0  0  0  0  0  0  0  0  # atno 17342 bound_to 10162
  140.7819  143.4227  151.0817 LP  0  0  0  0  0  0  0  0  0  0  0  0  # atno 17343 bound_to 10162
  157.7333  131.0592  150.5582 LP  0  0  0  0  0  0  0  0  0  0  0  0  # atno 17370 bound_to 10713
  156.5695  130.4276  149.6026 LP  0  0  0  0  0  0  0  0  0  0  0  0  # atno 17371 bound_to 10713
  139.9035  134.8502  156.1799 LP  0  0  0  0  0  0  0  0  0  0  0  0  # atno 17394 bound_to 11000
  141.0513  133.6887  156.1778 LP  0  0  0  0  0  0  0  0  0  0  0  0  # atno 17395 bound_to 11000

$$$$
