AV-unprocessed.smi:2103|AV-procd|sdf|8582|dock3
  -GOLD-   2272011313D 1   1.00000     0.00000
 Structure written by MMmdl.
 38 39  0  0  0  0  0  0  0  0  1 V2000
  146.0468  140.6414  158.7528 C   0  0  0  0  0  0  0  0  0  0  0  0
  146.1678  141.1477  157.4016 N   0  0  0  0  0  0  0  0  0  0  0  0
  145.0948  141.8845  156.8435 C   0  0  0  0  0  0  0  0  0  0  0  0
  144.0532  142.1119  157.4596 O   0  0  0  0  0  0  0  0  0  0  0  0
  145.3245  142.3432  155.4787 C   0  0  0  0  0  0  0  0  0  0  0  0
  146.4782  142.0599  154.8355 C   0  0  0  0  0  0  0  0  0  0  0  0
  147.5067  141.3284  155.4008 N   0  0  0  0  0  0  0  0  0  0  0  0
  148.7269  141.0722  154.6240 C   0  0  0  0  0  0  0  0  0  0  0  0
  150.0213  141.2690  155.4263 C   0  0  0  0  0  0  0  0  0  0  0  0
  151.0076  140.5572  155.2307 O   0  0  0  0  0  0  0  0  0  0  0  0
  149.9927  142.2483  156.3427 N   0  0  0  0  0  0  0  0  0  0  0  0
  151.1012  142.6263  157.2142 C   0  0  0  0  0  0  0  0  0  0  0  0
  150.9767  141.9440  158.5934 C   0  0  0  0  0  0  0  0  0  0  0  0
  152.0921  142.3988  159.5487 C   0  0  0  0  0  0  0  0  0  0  0  0
  152.1163  143.9286  159.6917 C   0  0  0  0  0  0  0  0  0  0  0  0
  152.2487  144.6108  158.3214 C   0  0  0  0  0  0  0  0  0  0  0  0
  151.1327  144.1594  157.3654 C   0  0  0  0  0  0  0  0  0  0  0  0
  147.3667  140.8450  156.7194 C   0  0  0  0  0  0  0  0  0  0  0  0
  148.2643  140.1824  157.2460 O   0  0  0  0  0  0  0  0  0  0  0  0
  145.1733  141.0579  159.2535 H   0  0  0  0  0  0  0  0  0  0  0  0
  146.9431  140.9393  159.3003 H   0  0  0  0  0  0  0  0  0  0  0  0
  145.9660  139.5558  158.6800 H   0  0  0  0  0  0  0  0  0  0  0  0
  144.5601  142.9178  154.9764 H   0  0  0  0  0  0  0  0  0  0  0  0
  146.6008  142.4258  153.8263 H   0  0  0  0  0  0  0  0  0  0  0  0
  148.7089  140.0596  154.2171 H   0  0  0  0  0  0  0  0  0  0  0  0
  148.7566  141.7350  153.7578 H   0  0  0  0  0  0  0  0  0  0  0  0
  149.1392  142.7791  156.4388 H   0  0  0  0  0  0  0  0  0  0  0  0
  152.0368  142.3118  156.7473 H   0  0  0  0  0  0  0  0  0  0  0  0
  150.0061  142.1759  159.0343 H   0  0  0  0  0  0  0  0  0  0  0  0
  151.0145  140.8597  158.4851 H   0  0  0  0  0  0  0  0  0  0  0  0
  151.9551  141.9362  160.5265 H   0  0  0  0  0  0  0  0  0  0  0  0
  153.0559  142.0514  159.1746 H   0  0  0  0  0  0  0  0  0  0  0  0
  151.2008  144.2646  160.1803 H   0  0  0  0  0  0  0  0  0  0  0  0
  152.9408  144.2291  160.3388 H   0  0  0  0  0  0  0  0  0  0  0  0
  152.2192  145.6940  158.4421 H   0  0  0  0  0  0  0  0  0  0  0  0
  153.2205  144.3740  157.8863 H   0  0  0  0  0  0  0  0  0  0  0  0
  151.2728  144.6293  156.3912 H   0  0  0  0  0  0  0  0  0  0  0  0
  150.1722  144.5129  157.7433 H   0  0  0  0  0  0  0  0  0  0  0  0
  1  2  1  0  0  0  0
  1 20  1  0  0  0  0
  1 21  1  0  0  0  0
  1 22  1  0  0  0  0
  2 18  1  0  0  0  0
  2  3  1  0  0  0  0
  3  4  2  0  0  0  0
  3  5  1  0  0  0  0
  5  6  2  0  0  0  0
  5 23  1  0  0  0  0
  6  7  1  0  0  0  0
  6 24  1  0  0  0  0
  7  8  1  0  0  0  0
  7 18  1  0  0  0  0
  8  9  1  0  0  0  0
  8 25  1  0  0  0  0
  8 26  1  0  0  0  0
  9 10  2  0  0  0  0
  9 11  1  0  0  0  0
 11 12  1  0  0  0  0
 11 27  1  0  0  0  0
 12 17  1  0  0  0  0
 12 13  1  0  0  0  0
 12 28  1  0  0  0  0
 13 14  1  0  0  0  0
 13 29  1  0  0  0  0
 13 30  1  0  0  0  0
 14 15  1  0  0  0  0
 14 31  1  0  0  0  0
 14 32  1  0  0  0  0
 15 16  1  0  0  0  0
 15 33  1  0  0  0  0
 15 34  1  0  0  0  0
 16 17  1  0  0  0  0
 16 35  1  0  0  0  0
 16 36  1  0  0  0  0
 17 37  1  0  0  0  0
 17 38  1  0  0  0  0
 18 19  2  0  0  0  0
M  END
> <s_m_source_file>
AV-unprocessed.smi

> <i_m_source_file_index>
2103

> <i_lp_mmshare_version>
43012

> <i_f3d_flags>
0

> <s_epik_input>
W0NIM11uMWMoPU8pW2NIXVtjSF1uKGMxPU8pW0NIMl1DKD1PKVtOSF1bQ0hdMltDSDJdW0NIMl1bQ0gyXVtDSDJdW0NIMl0y

> <s_epik_cmdline>
J2VwaWtfcHl0aG9uJywgJy1waCcsICc3LjAnLCAnLXRuJywgJzgnLCAnLW1hJywgJzIwMCcsICctbWV0YWxfYmluZGluZycsICctaW1hZScsICc8aW5maWxlLm1hZT4nLCAnLW9tYWUnLCAnPG91dGZpbGUubWFlPic=

> <r_lp_tautomer_probability>
1

> <r_epik_Ionization_Penalty>
3.18221e-08

> <r_epik_Ionization_Penalty_Charging>
1.27752e-08

> <r_epik_Ionization_Penalty_Neutral>
1.90469e-08

> <r_epik_State_Penalty>
-0

> <r_epik_Charging_Adjusted_Penalty>
1.27752e-08

> <i_epik_Tot_Q>
0

> <i_epik_Tot_abs_Q>
0

> <r_epik_Metal_State_Penalty>
-0

> <b_epik_Metal_Only>
0

> <s_lp_Force_Field>
OPLS_2005

> <r_lp_Energy>
16.4869

> <b_lp_Chiralities_Consistent>
1

> <s_lp_Variant>
AV-unprocessed.smi:2103-1

> <Gold.Version>
5.8.1

> <Gold.Id.Protein>
6NUR|6NUR_protein|mol2

> <Gold.PLP.Fitness>
43.2679

> <Gold.PLP.PLP>
-39.8613

> <Gold.PLP.part.hbond>
-2.0000

> <Gold.PLP.part.metal>
0.0000

> <Gold.PLP.part.buried>
-2.5375

> <Gold.PLP.part.nonpolar>
-35.0648

> <Gold.PLP.part.repulsive>
0.2343

> <Gold.PLP.ligand.clash>
0.0000

> <Gold.PLP.ligand.torsion>
0.8864

> <Gold.PLP.Chemscore.Hbond>
1.7248

> <Gold.PLP.Chemscore.CHOScore>
0.0000

> <Gold.PLP.Chemscore.Metal>
0.0000

> <Gold.Chemscore.Hbonds>
donor molecule, donor type, donor heavy atom, donor atom, acceptor molecule, acceptor atom, score
      L1  H    11    27       P1  8028  0.39
      P1  H  7989  7998       L1    10  0.94

> <Gold.PLP.Chemscore.Internal.Correction>
0.0050

> <Gold.Rescore>
     Score         DG    S(hbond)    S(metal)    S(lipo)     H(rot)  DE(clash)    DE(int)     intcor
     13.01     -15.07       1.09        0.00      84.40       1.54       0.06       2.00       ----

> <Gold.Chemscore.Fitness>
13.0082

> <Gold.Chemscore.DG>
-15.0679

> <Gold.Chemscore.ZeroCoef>
-5.4800

> <Gold.Chemscore.Hbond>
1.0931

> <Gold.Chemscore.Metal>
0.0000

> <Gold.Chemscore.Lipo>
84.4017

> <Gold.Chemscore.Internal_Hbond>
0.0000

> <Gold.Chemscore.DEClash>
0.0562

> <Gold.Chemscore.DEInternal>
2.0035

> <Gold.Chemscore.Rot>
1.5383

> <Gold.Chemscore.Internal.Correction>
   9.000000E+99

> <Gold.Chemscore.Hbonds>
donor molecule, donor type, donor heavy atom, donor atom, acceptor molecule, acceptor atom, score
      L1  H    11    27       P1  8028  0.39
      P1  H  7989  7998       L1    10  0.59

> <Gold.Chemscore.Hbond.Weighted>
-3.6509

> <Gold.Chemscore.Metal.Weighted>
-0.0000

> <Gold.Chemscore.Lipo.Weighted>
-9.8750

> <Gold.Chemscore.Internal_Hbond.Weighted>
0.0000

> <Gold.Chemscore.DEClash.Weighted>
0.0562

> <Gold.Chemscore.DEInternal.Weighted>
2.0035

> <Gold.Chemscore.Rot.Weighted>
3.9380

> <Gold.Chemscore.Internal.Correction.Weighted>
   9.000000E+99

> <Gold.Protein.RotatedTorsions>
[ 6907 6896 6895 6894 ] final -108.13 input  -60.11 | X-H torsion
[ 7974 7965 7964 7962 ] final  -74.51 input  175.53 | X-H torsion
[ 8008 7997 7996 7995 ] final   68.57 input   59.86 | X-H torsion
[ 10167 10162 10161 10158 ] final   97.45 input  -65.29 | X-H torsion
[ 10718 10713 10712 10709 ] final  142.03 input   66.30 | X-H torsion
[ 10763 10752 10751 10750 ] final  -67.51 input  -60.55 | X-H torsion
[ 11005 11000 10999 10996 ] final -126.38 input  -57.11 | X-H torsion

> <Gold.Protein.ActiveResidues>
 VAL166  LYS551  ARG553  GLY616  TRP617  ASP618  TYR619  PRO620  LYS621  CYS622 
 ASP623  PHE694  ASN695  SER759  ASP760  ASP761  ALA762  ILE779  LEU786  VAL792 
 PHE793  MET794  SER795  GLU796  ALA797  LYS798  CYS799  TRP800  GLU811  SER814 

> <Gold.Protein.RotatedAtoms>
  150.7483  133.9724  159.3549 H   0  0  0  0  0  0  0  0  0  0  0  0  # atno 6907 bound_to 6896
  151.7658  135.0796  160.0362 H   0  0  0  0  0  0  0  0  0  0  0  0  # atno 6908 bound_to 6896
  152.3372  133.5988  159.5887 H   0  0  0  0  0  0  0  0  0  0  0  0  # atno 6909 bound_to 6896
  145.6382  140.9318  143.1050 H   0  0  0  0  0  0  0  0  0  0  0  0  # atno 7974 bound_to 7965
  155.7103  140.3494  155.4971 H   0  0  0  0  0  0  0  0  0  0  0  0  # atno 8008 bound_to 7997
  155.9362  140.1093  157.1115 H   0  0  0  0  0  0  0  0  0  0  0  0  # atno 8009 bound_to 7997
  154.4094  140.1221  156.4853 H   0  0  0  0  0  0  0  0  0  0  0  0  # atno 8010 bound_to 7997
  139.7800  144.6892  151.0036 H   0  0  0  0  0  0  0  0  0  0  0  0  # atno 10167 bound_to 10162
  157.3852  131.0997  151.0700 H   0  0  0  0  0  0  0  0  0  0  0  0  # atno 10718 bound_to 10713
  154.3755  135.6086  153.5762 H   0  0  0  0  0  0  0  0  0  0  0  0  # atno 10763 bound_to 10752
  152.9789  135.5848  154.4472 H   0  0  0  0  0  0  0  0  0  0  0  0  # atno 10764 bound_to 10752
  154.4232  135.2846  155.1939 H   0  0  0  0  0  0  0  0  0  0  0  0  # atno 10765 bound_to 10752
  140.9686  134.0837  157.3894 H   0  0  0  0  0  0  0  0  0  0  0  0  # atno 11005 bound_to 11000
  144.7167  139.8170  143.7396 LP  0  0  0  0  0  0  0  0  0  0  0  0  # atno 17320 bound_to 7965
  146.1302  139.4336  143.0173 LP  0  0  0  0  0  0  0  0  0  0  0  0  # atno 17321 bound_to 7965
  140.7818  143.4494  151.0435 LP  0  0  0  0  0  0  0  0  0  0  0  0  # atno 17342 bound_to 10162
  139.8175  143.7866  152.3175 LP  0  0  0  0  0  0  0  0  0  0  0  0  # atno 17343 bound_to 10162
  157.1754  130.6286  149.5654 LP  0  0  0  0  0  0  0  0  0  0  0  0  # atno 17370 bound_to 10713
  155.9785  130.4771  150.6659 LP  0  0  0  0  0  0  0  0  0  0  0  0  # atno 17371 bound_to 10713
  139.8904  135.0111  156.6731 LP  0  0  0  0  0  0  0  0  0  0  0  0  # atno 17394 bound_to 11000
  140.7363  133.9016  155.8246 LP  0  0  0  0  0  0  0  0  0  0  0  0  # atno 17395 bound_to 11000

$$$$
