AV-unprocessed.smi:3244|AV-procd|sdf|12400|dock8
  -GOLD-   2272018273D 1   1.00000     0.00000
 Structure written by MMmdl.
 40 41  0  0  0  0  0  0  0  0  1 V2000
  152.3160  139.1034  158.3341 C   0  0  0  0  0  0  0  0  0  0  0  0
  152.0989  140.5035  157.7365 C   0  0  0  0  0  0  0  0  0  0  0  0
  151.7428  141.4940  158.7664 N   0  0  0  0  0  0  0  0  0  0  0  0
  150.6053  142.2267  158.6422 C   0  0  0  0  0  0  0  0  0  0  0  0
  150.3501  143.1788  159.3809 O   0  0  0  0  0  0  0  0  0  0  0  0
  149.5779  141.8735  157.5574 C   0  0  0  0  0  0  0  0  0  0  0  0
  148.4338  142.7939  157.5713 N   0  0  0  0  0  0  0  0  0  0  0  0
  147.1436  142.1111  157.5694 C   0  0  2  0  0  0  0  0  0  0  0  0
  146.8465  141.5459  156.1698 C   0  0  0  0  0  0  0  0  0  0  0  0
  146.0544  143.1116  158.0073 C   0  0  0  0  0  0  0  0  0  0  0  0
  146.1177  143.4177  159.4272 N   0  0  0  0  0  0  0  0  0  0  0  0
  146.4418  144.6144  160.0314 C   0  0  0  0  0  0  0  0  0  0  0  0
  146.3654  144.4227  161.3811 C   0  0  0  0  0  0  0  0  0  0  0  0
  145.9885  143.0565  161.5073 C   0  0  0  0  0  0  0  0  0  0  0  0
  145.8441  142.4569  160.3366 N   0  0  0  0  0  0  0  0  0  0  0  0
  152.7771  141.7710  159.7306 C   0  0  0  0  0  0  0  0  0  0  0  0
  152.4536  142.5071  161.0186 C   0  0  0  0  0  0  0  0  0  0  0  0
  153.2523  143.1957  159.9469 C   0  0  0  0  0  0  0  0  0  0  0  0
  152.5465  138.3819  157.5503 H   0  0  0  0  0  0  0  0  0  0  0  0
  151.4218  138.7553  158.8521 H   0  0  0  0  0  0  0  0  0  0  0  0
  153.1419  139.0890  159.0455 H   0  0  0  0  0  0  0  0  0  0  0  0
  152.9968  140.8239  157.2055 H   0  0  0  0  0  0  0  0  0  0  0  0
  151.3274  140.4321  156.9713 H   0  0  0  0  0  0  0  0  0  0  0  0
  150.0677  141.9193  156.5844 H   0  0  0  0  0  0  0  0  0  0  0  0
  149.2467  140.8437  157.6817 H   0  0  0  0  0  0  0  0  0  0  0  0
  148.4746  143.4623  156.8151 H   0  0  0  0  0  0  0  0  0  0  0  0
  147.1589  141.2906  158.2890 H   0  0  0  0  0  0  0  0  0  0  0  0
  145.8624  141.0774  156.1420 H   0  0  0  0  0  0  0  0  0  0  0  0
  147.5697  140.7852  155.8764 H   0  0  0  0  0  0  0  0  0  0  0  0
  146.8594  142.3306  155.4123 H   0  0  0  0  0  0  0  0  0  0  0  0
  146.1251  144.0374  157.4331 H   0  0  0  0  0  0  0  0  0  0  0  0
  145.0658  142.6980  157.8044 H   0  0  0  0  0  0  0  0  0  0  0  0
  146.6913  145.4939  159.4564 H   0  0  0  0  0  0  0  0  0  0  0  0
  146.5503  145.1477  162.1597 H   0  0  0  0  0  0  0  0  0  0  0  0
  145.8164  142.4870  162.4086 H   0  0  0  0  0  0  0  0  0  0  0  0
  153.5362  140.9972  159.8212 H   0  0  0  0  0  0  0  0  0  0  0  0
  151.4419  142.8744  161.1789 H   0  0  0  0  0  0  0  0  0  0  0  0
  152.9830  142.1973  161.9174 H   0  0  0  0  0  0  0  0  0  0  0  0
  154.3143  143.3472  160.1267 H   0  0  0  0  0  0  0  0  0  0  0  0
  152.7542  143.9956  159.4024 H   0  0  0  0  0  0  0  0  0  0  0  0
  1  2  1  0  0  0  0
  1 19  1  0  0  0  0
  1 20  1  0  0  0  0
  1 21  1  0  0  0  0
  2  3  1  0  0  0  0
  2 22  1  0  0  0  0
  2 23  1  0  0  0  0
  3  4  1  0  0  0  0
  3 16  1  0  0  0  0
  4  5  2  0  0  0  0
  4  6  1  0  0  0  0
  6  7  1  0  0  0  0
  6 24  1  0  0  0  0
  6 25  1  0  0  0  0
  7  8  1  0  0  0  0
  7 26  1  0  0  0  0
  8  9  1  0  0  0  0
  8 10  1  0  0  0  0
  8 27  1  0  0  0  0
  9 28  1  0  0  0  0
  9 29  1  0  0  0  0
  9 30  1  0  0  0  0
 10 11  1  0  0  0  0
 10 31  1  0  0  0  0
 10 32  1  0  0  0  0
 11 15  1  0  0  0  0
 11 12  1  0  0  0  0
 12 13  2  0  0  0  0
 12 33  1  0  0  0  0
 13 14  1  0  0  0  0
 13 34  1  0  0  0  0
 14 15  2  0  0  0  0
 14 35  1  0  0  0  0
 16 18  1  0  0  0  0
 16 17  1  0  0  0  0
 16 36  1  0  0  0  0
 17 18  1  0  0  0  0
 17 37  1  0  0  0  0
 17 38  1  0  0  0  0
 18 39  1  0  0  0  0
 18 40  1  0  0  0  0
M  END
> <s_m_source_file>
AV-unprocessed.smi

> <i_m_source_file_index>
3244

> <i_lp_mmshare_version>
43012

> <i_f3d_flags>
0

> <s_epik_input>
W0NIMl0xW0NIMl1bQ0hdMU4oW0NIMl1bQ0gzXSlDKD1PKVtDSDJdW05IXVtDQEhdKFtDSDNdKVtDSDJdbjJbY0hdW2NIXVtjSF1uMg==

> <s_epik_cmdline>
J2VwaWtfcHl0aG9uJywgJy1waCcsICc3LjAnLCAnLXRuJywgJzgnLCAnLW1hJywgJzIwMCcsICctbWV0YWxfYmluZGluZycsICctaW1hZScsICc8aW5maWxlLm1hZT4nLCAnLW9tYWUnLCAnPG91dGZpbGUubWFlPic=

> <r_lp_tautomer_probability>
1

> <r_epik_Ionization_Penalty>
1.02506

> <r_epik_Ionization_Penalty_Charging>
0

> <r_epik_Ionization_Penalty_Neutral>
1.02506

> <r_epik_State_Penalty>
1.07563

> <r_epik_Charging_Adjusted_Penalty>
1.07563

> <i_epik_Tot_Q>
0

> <i_epik_Tot_abs_Q>
0

> <r_epik_Metal_State_Penalty>
1.07558

> <b_epik_Metal_Only>
0

> <s_lp_Force_Field>
OPLS_2005

> <r_lp_Energy>
34.7243

> <b_lp_Chiralities_Consistent>
1

> <s_lp_Variant>
AV-unprocessed.smi:3244-3

> <Gold.Version>
5.8.1

> <Gold.Id.Protein>
6NUR|6NUR_protein|mol2

> <Gold.PLP.Fitness>
42.4946

> <Gold.PLP.PLP>
-35.1711

> <Gold.PLP.part.hbond>
-2.9994

> <Gold.PLP.part.metal>
0.0000

> <Gold.PLP.part.buried>
-5.3863

> <Gold.PLP.part.nonpolar>
-26.3588

> <Gold.PLP.part.repulsive>
0.0752

> <Gold.PLP.ligand.clash>
0.0298

> <Gold.PLP.ligand.torsion>
1.0243

> <Gold.PLP.Chemscore.Hbond>
2.0000

> <Gold.PLP.Chemscore.CHOScore>
1.0000

> <Gold.PLP.Chemscore.Metal>
0.0000

> <Gold.Chemscore.Hbonds>
donor molecule, donor type, donor heavy atom, donor atom, acceptor molecule, acceptor atom, score
      L1  H     7    26       P1  8028  1.00
      P1  H  6934  6946       L1    15  0.90
      L1  C    12    33       P1  8029  1.00

> <Gold.PLP.Chemscore.Internal.Correction>
0.4020

> <Gold.Rescore>
     Score         DG    S(hbond)    S(metal)    S(lipo)     H(rot)  DE(clash)    DE(int)     intcor
     10.19     -13.94       1.59        0.00      69.83       1.95       0.03       3.72       ----

> <Gold.Chemscore.Fitness>
10.1913

> <Gold.Chemscore.DG>
-13.9426

> <Gold.Chemscore.ZeroCoef>
-5.4800

> <Gold.Chemscore.Hbond>
1.5860

> <Gold.Chemscore.Metal>
0.0000

> <Gold.Chemscore.Lipo>
69.8302

> <Gold.Chemscore.Internal_Hbond>
0.0000

> <Gold.Chemscore.DEClash>
0.0330

> <Gold.Chemscore.DEInternal>
3.7183

> <Gold.Chemscore.Rot>
1.9550

> <Gold.Chemscore.Internal.Correction>
   9.000000E+99

> <Gold.Chemscore.Hbonds>
donor molecule, donor type, donor heavy atom, donor atom, acceptor molecule, acceptor atom, score
      L1  H     7    26       P1  8028  0.26
      P1  H  6934  6946       L1    15  0.18

> <Gold.Chemscore.Hbond.Weighted>
-5.2972

> <Gold.Chemscore.Metal.Weighted>
-0.0000

> <Gold.Chemscore.Lipo.Weighted>
-8.1701

> <Gold.Chemscore.Internal_Hbond.Weighted>
0.0000

> <Gold.Chemscore.DEClash.Weighted>
0.0330

> <Gold.Chemscore.DEInternal.Weighted>
3.7183

> <Gold.Chemscore.Rot.Weighted>
5.0047

> <Gold.Chemscore.Internal.Correction.Weighted>
   9.000000E+99

> <Gold.Protein.RotatedTorsions>
[ 6907 6896 6895 6894 ] final  -84.00 input  -60.11 | X-H torsion
[ 7974 7965 7964 7962 ] final -112.18 input  175.53 | X-H torsion
[ 8008 7997 7996 7995 ] final  -39.41 input   59.86 | X-H torsion
[ 10167 10162 10161 10158 ] final  -74.86 input  -65.29 | X-H torsion
[ 10718 10713 10712 10709 ] final -127.55 input   66.30 | X-H torsion
[ 10763 10752 10751 10750 ] final  104.79 input  -60.55 | X-H torsion
[ 11005 11000 10999 10996 ] final   34.29 input  -57.11 | X-H torsion

> <Gold.Protein.ActiveResidues>
 VAL166  LYS551  ARG553  GLY616  TRP617  ASP618  TYR619  PRO620  LYS621  CYS622 
 ASP623  PHE694  ASN695  SER759  ASP760  ASP761  ALA762  ILE779  LEU786  VAL792 
 PHE793  MET794  SER795  GLU796  ALA797  LYS798  CYS799  TRP800  GLU811  SER814 

> <Gold.Protein.RotatedAtoms>
  150.6880  134.3426  159.4874 H   0  0  0  0  0  0  0  0  0  0  0  0  # atno 6907 bound_to 6896
  152.1277  134.9155  160.0569 H   0  0  0  0  0  0  0  0  0  0  0  0  # atno 6908 bound_to 6896
  152.0337  133.3913  159.4345 H   0  0  0  0  0  0  0  0  0  0  0  0  # atno 6909 bound_to 6896
  145.1471  140.8809  143.3668 H   0  0  0  0  0  0  0  0  0  0  0  0  # atno 7974 bound_to 7965
  154.4023  140.1552  156.2859 H   0  0  0  0  0  0  0  0  0  0  0  0  # atno 8008 bound_to 7997
  155.8829  140.3443  155.5878 H   0  0  0  0  0  0  0  0  0  0  0  0  # atno 8009 bound_to 7997
  155.7647  140.0822  157.2128 H   0  0  0  0  0  0  0  0  0  0  0  0  # atno 8010 bound_to 7997
  140.4991  143.2364  151.7782 H   0  0  0  0  0  0  0  0  0  0  0  0  # atno 10167 bound_to 10162
  156.1867  130.6768  151.0373 H   0  0  0  0  0  0  0  0  0  0  0  0  # atno 10718 bound_to 10713
  153.3707  135.3931  155.1786 H   0  0  0  0  0  0  0  0  0  0  0  0  # atno 10763 bound_to 10752
  154.8693  135.3701  154.4982 H   0  0  0  0  0  0  0  0  0  0  0  0  # atno 10764 bound_to 10752
  153.5449  135.7084  153.5679 H   0  0  0  0  0  0  0  0  0  0  0  0  # atno 10765 bound_to 10752
  140.2544  134.3266  155.7879 H   0  0  0  0  0  0  0  0  0  0  0  0  # atno 11005 bound_to 11000
  145.0470  139.3213  143.5948 LP  0  0  0  0  0  0  0  0  0  0  0  0  # atno 17320 bound_to 7965
  146.3499  139.9864  142.8690 LP  0  0  0  0  0  0  0  0  0  0  0  0  # atno 17321 bound_to 7965
  139.4868  144.4546  151.9613 LP  0  0  0  0  0  0  0  0  0  0  0  0  # atno 17342 bound_to 10162
  140.3635  144.2944  150.5930 LP  0  0  0  0  0  0  0  0  0  0  0  0  # atno 17343 bound_to 10162
  157.6903  131.0812  150.7126 LP  0  0  0  0  0  0  0  0  0  0  0  0  # atno 17370 bound_to 10713
  156.7182  130.4672  149.5529 LP  0  0  0  0  0  0  0  0  0  0  0  0  # atno 17371 bound_to 10713
  141.2198  133.7372  156.9087 LP  0  0  0  0  0  0  0  0  0  0  0  0  # atno 17394 bound_to 11000
  140.1526  134.9219  157.2613 LP  0  0  0  0  0  0  0  0  0  0  0  0  # atno 17395 bound_to 11000

$$$$
