AV-unprocessed.smi:2997|AV-procd|sdf|11412|dock4
  -GOLD-   2272016333D 1   1.00000     0.00000
 Structure written by MMmdl.
 38 40  0  0  0  0  0  0  0  0  1 V2000
  153.6791  142.3852  160.9106 C   0  0  0  0  0  0  0  0  0  0  0  0
  152.7767  142.1488  159.7124 C   0  0  0  0  0  0  0  0  0  0  0  0
  153.1068  141.1261  158.7948 C   0  0  0  0  0  0  0  0  0  0  0  0
  152.2917  140.8712  157.6701 C   0  0  0  0  0  0  0  0  0  0  0  0
  152.4218  139.9342  156.6592 N   0  0  0  0  0  0  0  0  0  0  0  0
  151.3516  140.1947  155.9134 C   0  0  0  0  0  0  0  0  0  0  0  0
  150.5440  141.1926  156.3215 N   0  0  0  0  0  0  0  0  0  0  0  0
  149.3274  141.6562  155.6794 C   0  0  0  0  0  0  0  0  0  0  0  0
  148.8956  140.7477  154.5133 C   0  0  2  0  0  0  0  0  0  0  0  0
  149.5884  141.1233  153.3373 O   0  0  0  0  0  0  0  0  0  0  0  0
  147.3763  140.8099  154.2674 C   0  0  0  0  0  0  0  0  0  0  0  0
  146.8960  139.6902  153.4764 N   0  0  0  0  0  0  0  0  0  0  0  0
  147.0564  139.4685  152.1249 C   0  0  0  0  0  0  0  0  0  0  0  0
  146.4313  138.2911  151.8291 C   0  0  0  0  0  0  0  0  0  0  0  0
  145.9112  137.8607  153.0817 C   0  0  0  0  0  0  0  0  0  0  0  0
  146.1909  138.7002  154.0657 N   0  0  0  0  0  0  0  0  0  0  0  0
  151.1282  141.6741  157.4874 C   0  0  0  0  0  0  0  0  0  0  0  0
  150.7899  142.6956  158.3924 C   0  0  0  0  0  0  0  0  0  0  0  0
  151.6156  142.9375  159.5103 C   0  0  0  0  0  0  0  0  0  0  0  0
  151.2440  144.0451  160.4804 C   0  0  0  0  0  0  0  0  0  0  0  0
  154.5291  141.7022  160.9099 H   0  0  0  0  0  0  0  0  0  0  0  0
  153.1284  142.2327  161.8391 H   0  0  0  0  0  0  0  0  0  0  0  0
  154.0684  143.4033  160.9019 H   0  0  0  0  0  0  0  0  0  0  0  0
  153.9917  140.5259  158.9479 H   0  0  0  0  0  0  0  0  0  0  0  0
  151.1395  139.6257  155.0198 H   0  0  0  0  0  0  0  0  0  0  0  0
  148.5415  141.6992  156.4343 H   0  0  0  0  0  0  0  0  0  0  0  0
  149.4822  142.6788  155.3320 H   0  0  0  0  0  0  0  0  0  0  0  0
  149.1717  139.7181  154.7455 H   0  0  0  0  0  0  0  0  0  0  0  0
  149.4122  140.4799  152.6673 H   0  0  0  0  0  0  0  0  0  0  0  0
  146.8438  140.8009  155.2191 H   0  0  0  0  0  0  0  0  0  0  0  0
  147.1059  141.7424  153.7688 H   0  0  0  0  0  0  0  0  0  0  0  0
  147.5944  140.1603  151.4935 H   0  0  0  0  0  0  0  0  0  0  0  0
  146.3566  137.8106  150.8649 H   0  0  0  0  0  0  0  0  0  0  0  0
  145.3423  136.9697  153.3031 H   0  0  0  0  0  0  0  0  0  0  0  0
  149.9018  143.2873  158.2262 H   0  0  0  0  0  0  0  0  0  0  0  0
  150.3131  144.5328  160.1895 H   0  0  0  0  0  0  0  0  0  0  0  0
  152.0250  144.8053  160.5085 H   0  0  0  0  0  0  0  0  0  0  0  0
  151.1123  143.6462  161.4862 H   0  0  0  0  0  0  0  0  0  0  0  0
  1  2  1  0  0  0  0
  1 21  1  0  0  0  0
  1 22  1  0  0  0  0
  1 23  1  0  0  0  0
  2 19  1  0  0  0  0
  2  3  2  0  0  0  0
  3  4  1  0  0  0  0
  3 24  1  0  0  0  0
  4 17  2  0  0  0  0
  4  5  1  0  0  0  0
  5  6  2  0  0  0  0
  6  7  1  0  0  0  0
  6 25  1  0  0  0  0
  7  8  1  0  0  0  0
  7 17  1  0  0  0  0
  8  9  1  0  0  0  0
  8 26  1  0  0  0  0
  8 27  1  0  0  0  0
  9 10  1  0  0  0  0
  9 11  1  0  0  0  0
  9 28  1  0  0  0  0
 10 29  1  0  0  0  0
 11 12  1  0  0  0  0
 11 30  1  0  0  0  0
 11 31  1  0  0  0  0
 12 16  1  0  0  0  0
 12 13  1  0  0  0  0
 13 14  2  0  0  0  0
 13 32  1  0  0  0  0
 14 15  1  0  0  0  0
 14 33  1  0  0  0  0
 15 16  2  0  0  0  0
 15 34  1  0  0  0  0
 17 18  1  0  0  0  0
 18 19  2  0  0  0  0
 18 35  1  0  0  0  0
 19 20  1  0  0  0  0
 20 36  1  0  0  0  0
 20 37  1  0  0  0  0
 20 38  1  0  0  0  0
M  END
> <s_m_source_file>
AV-unprocessed.smi

> <i_m_source_file_index>
2997

> <i_lp_mmshare_version>
43012

> <i_f3d_flags>
0

> <s_epik_input>
W0NIM11jKFtjSF0xKWMoW0NIM10pW2NIXWMoYzEyKW4oW2NIXW4yKVtDSDJdW0NASF0oW09IXSlbQ0gyXW4zW2NIXVtjSF1bY0hdbjM=

> <s_epik_cmdline>
J2VwaWtfcHl0aG9uJywgJy1waCcsICc3LjAnLCAnLXRuJywgJzgnLCAnLW1hJywgJzIwMCcsICctbWV0YWxfYmluZGluZycsICctaW1hZScsICc8aW5maWxlLm1hZT4nLCAnLW9tYWUnLCAnPG91dGZpbGUubWFlPic=

> <r_lp_tautomer_probability>
1

> <r_epik_Ionization_Penalty>
0.102113

> <r_epik_Ionization_Penalty_Charging>
0

> <r_epik_Ionization_Penalty_Neutral>
0.102113

> <r_epik_State_Penalty>
0.0920694

> <r_epik_Charging_Adjusted_Penalty>
0.0920694

> <i_epik_Tot_Q>
0

> <i_epik_Tot_abs_Q>
0

> <r_epik_Metal_State_Penalty>
0.0784306

> <b_epik_Metal_Only>
0

> <s_lp_Force_Field>
OPLS_2005

> <r_lp_Energy>
8.0564

> <b_lp_Chiralities_Consistent>
1

> <s_lp_Variant>
AV-unprocessed.smi:2997-1

> <Gold.Version>
5.8.1

> <Gold.Id.Protein>
6NUR|6NUR_protein|mol2

> <Gold.PLP.Fitness>
50.1647

> <Gold.PLP.PLP>
-39.9176

> <Gold.PLP.part.hbond>
-3.6180

> <Gold.PLP.part.metal>
0.0000

> <Gold.PLP.part.buried>
-1.2575

> <Gold.PLP.part.nonpolar>
-35.5493

> <Gold.PLP.part.repulsive>
0.1213

> <Gold.PLP.ligand.clash>
0.0000

> <Gold.PLP.ligand.torsion>
0.6438

> <Gold.PLP.Chemscore.Hbond>
2.8430

> <Gold.PLP.Chemscore.CHOScore>
0.9990

> <Gold.PLP.Chemscore.Metal>
0.0000

> <Gold.Chemscore.Hbonds>
donor molecule, donor type, donor heavy atom, donor atom, acceptor molecule, acceptor atom, score
      L1  H    10    29       P1  7957  0.93
      P1  H  7989  7998       L1    10  0.15
      P1  H  7997  8010       L1     5  0.95
      P1  H  8011  8017       L1    10  0.85
      L1  C    13    32       P1  7957  0.82

> <Gold.PLP.Chemscore.Internal.Correction>
0.0086

> <Gold.Rescore>
     Score         DG    S(hbond)    S(metal)    S(lipo)     H(rot)  DE(clash)    DE(int)     intcor
     17.43     -18.21       1.61        0.00     110.09       2.15       0.16       0.63       ----

> <Gold.Chemscore.Fitness>
17.4310

> <Gold.Chemscore.DG>
-18.2130

> <Gold.Chemscore.ZeroCoef>
-5.4800

> <Gold.Chemscore.Hbond>
1.6062

> <Gold.Chemscore.Metal>
0.0000

> <Gold.Chemscore.Lipo>
110.0939

> <Gold.Chemscore.Internal_Hbond>
0.0000

> <Gold.Chemscore.DEClash>
0.1566

> <Gold.Chemscore.DEInternal>
0.6254

> <Gold.Chemscore.Rot>
2.1534

> <Gold.Chemscore.Internal.Correction>
   9.000000E+99

> <Gold.Chemscore.Hbonds>
donor molecule, donor type, donor heavy atom, donor atom, acceptor molecule, acceptor atom, score
      L1  H    10    29       P1  7957  0.89
      P1  H  7989  7998       L1    10  0.03
      P1  H  7997  8010       L1     5  0.21
      P1  H  8011  8017       L1    10  0.14

> <Gold.Chemscore.Hbond.Weighted>
-5.3647

> <Gold.Chemscore.Metal.Weighted>
-0.0000

> <Gold.Chemscore.Lipo.Weighted>
-12.8810

> <Gold.Chemscore.Internal_Hbond.Weighted>
0.0000

> <Gold.Chemscore.DEClash.Weighted>
0.1566

> <Gold.Chemscore.DEInternal.Weighted>
0.6254

> <Gold.Chemscore.Rot.Weighted>
5.5127

> <Gold.Chemscore.Internal.Correction.Weighted>
   9.000000E+99

> <Gold.Protein.RotatedTorsions>
[ 6907 6896 6895 6894 ] final   62.11 input  -60.11 | X-H torsion
[ 7974 7965 7964 7962 ] final  -68.80 input  175.53 | X-H torsion
[ 8008 7997 7996 7995 ] final   81.86 input   59.86 | X-H torsion
[ 10167 10162 10161 10158 ] final  -88.59 input  -65.29 | X-H torsion
[ 10718 10713 10712 10709 ] final   63.59 input   66.30 | X-H torsion
[ 10763 10752 10751 10750 ] final  125.16 input  -60.55 | X-H torsion
[ 11005 11000 10999 10996 ] final  -10.62 input  -57.11 | X-H torsion

> <Gold.Protein.ActiveResidues>
 VAL166  LYS551  ARG553  GLY616  TRP617  ASP618  TYR619  PRO620  LYS621  CYS622 
 ASP623  PHE694  ASN695  SER759  ASP760  ASP761  ALA762  ILE779  LEU786  VAL792 
 PHE793  MET794  SER795  GLU796  ALA797  LYS798  CYS799  TRP800  GLU811  SER814 

> <Gold.Protein.RotatedAtoms>
  152.4145  134.6066  160.0014 H   0  0  0  0  0  0  0  0  0  0  0  0  # atno 6907 bound_to 6896
  151.6234  133.3332  159.3101 H   0  0  0  0  0  0  0  0  0  0  0  0  # atno 6908 bound_to 6896
  150.8034  134.7183  159.6688 H   0  0  0  0  0  0  0  0  0  0  0  0  # atno 6909 bound_to 6896
  145.7118  140.9075  143.0676 H   0  0  0  0  0  0  0  0  0  0  0  0  # atno 7974 bound_to 7965
  155.9028  140.3432  155.6039 H   0  0  0  0  0  0  0  0  0  0  0  0  # atno 8008 bound_to 7997
  155.7480  140.0816  157.2234 H   0  0  0  0  0  0  0  0  0  0  0  0  # atno 8009 bound_to 7997
  154.4046  140.1558  156.2678 H   0  0  0  0  0  0  0  0  0  0  0  0  # atno 8010 bound_to 7997
  140.3731  143.2784  151.9475 H   0  0  0  0  0  0  0  0  0  0  0  0  # atno 10167 bound_to 10162
  157.5981  130.9113  149.9735 H   0  0  0  0  0  0  0  0  0  0  0  0  # atno 10718 bound_to 10713
  153.6728  135.3327  155.3158 H   0  0  0  0  0  0  0  0  0  0  0  0  # atno 10763 bound_to 10752
  154.8486  135.4390  154.1687 H   0  0  0  0  0  0  0  0  0  0  0  0  # atno 10764 bound_to 10752
  153.2683  135.6998  153.7583 H   0  0  0  0  0  0  0  0  0  0  0  0  # atno 10765 bound_to 10752
  140.7466  133.8626  155.9011 H   0  0  0  0  0  0  0  0  0  0  0  0  # atno 11005 bound_to 11000
  144.6940  139.9085  143.7462 LP  0  0  0  0  0  0  0  0  0  0  0  0  # atno 17320 bound_to 7965
  146.0705  139.3694  143.0526 LP  0  0  0  0  0  0  0  0  0  0  0  0  # atno 17321 bound_to 7965
  139.4802  144.5888  151.7807 LP  0  0  0  0  0  0  0  0  0  0  0  0  # atno 17342 bound_to 10162
  140.5013  144.1165  150.5972 LP  0  0  0  0  0  0  0  0  0  0  0  0  # atno 17343 bound_to 10162
  156.1048  130.3653  150.0152 LP  0  0  0  0  0  0  0  0  0  0  0  0  # atno 17370 bound_to 10713
  156.8261  130.9376  151.3639 LP  0  0  0  0  0  0  0  0  0  0  0  0  # atno 17371 bound_to 10713
  140.9788  134.1433  157.4512 LP  0  0  0  0  0  0  0  0  0  0  0  0  # atno 17394 bound_to 11000
  139.8795  135.0003  156.6006 LP  0  0  0  0  0  0  0  0  0  0  0  0  # atno 17395 bound_to 11000

$$$$
