AV-unprocessed.smi:690|AV-procd|sdf|3360|dock1
  -GOLD-   22720 0343D 1   1.00000     0.00000
 Structure written by MMmdl.
 46 48  0  0  0  0  0  0  0  0  1 V2000
  153.9261  141.4641  160.0513 C   0  0  0  0  0  0  0  0  0  0  0  0
  152.7908  141.4544  159.0259 C   0  0  0  0  0  0  0  0  0  0  0  0
  152.9046  140.2879  158.2286 O   0  0  0  0  0  0  0  0  0  0  0  0
  151.8364  139.3755  158.4287 C   0  0  2  0  0  0  0  0  0  0  0  0
  152.1897  138.1461  159.2717 C   0  0  0  0  0  0  0  0  0  0  0  0
  151.3613  137.3164  158.2839 C   0  0  1  0  0  0  0  0  0  0  0  0
  149.9685  137.2126  158.7213 N   0  0  0  0  0  0  0  0  0  0  0  0
  149.2612  136.0743  158.7602 C   0  0  0  0  0  0  0  0  0  0  0  0
  149.7182  134.9831  158.4182 O   0  0  0  0  0  0  0  0  0  0  0  0
  147.8052  136.2014  159.2273 C   0  0  0  0  0  0  0  0  0  0  0  0
  147.5781  135.6367  160.5676 N   0  0  0  0  0  0  0  0  0  0  0  0
  147.7247  134.2426  160.7128 C   0  0  0  0  0  0  0  0  0  0  0  0
  147.5332  133.6274  161.8906 C   0  0  0  0  0  0  0  0  0  0  0  0
  147.1648  134.4339  163.0300 C   0  0  0  0  0  0  0  0  0  0  0  0
  147.0262  135.7686  162.9031 C   0  0  0  0  0  0  0  0  0  0  0  0
  147.2395  136.4458  161.6188 C   0  0  0  0  0  0  0  0  0  0  0  0
  147.1186  137.6649  161.4947 O   0  0  0  0  0  0  0  0  0  0  0  0
  151.5936  138.4291  157.2277 C   0  0  0  0  0  0  0  0  0  0  0  0
  152.7638  138.2187  156.2636 C   0  0  0  0  0  0  0  0  0  0  0  0
  152.5944  139.2231  155.1192 C   0  0  0  0  0  0  0  0  0  0  0  0
  151.1185  139.6331  155.1404 C   0  0  0  0  0  0  0  0  0  0  0  0
  150.4764  138.8066  156.2568 C   0  0  0  0  0  0  0  0  0  0  0  0
  153.8680  142.3467  160.6884 H   0  0  0  0  0  0  0  0  0  0  0  0
  154.8983  141.4697  159.5579 H   0  0  0  0  0  0  0  0  0  0  0  0
  153.8805  140.5842  160.6933 H   0  0  0  0  0  0  0  0  0  0  0  0
  151.8280  141.4716  159.5383 H   0  0  0  0  0  0  0  0  0  0  0  0
  152.8482  142.3454  158.3992 H   0  0  0  0  0  0  0  0  0  0  0  0
  150.9172  139.8624  158.7620 H   0  0  0  0  0  0  0  0  0  0  0  0
  153.2527  137.9006  159.2407 H   0  0  0  0  0  0  0  0  0  0  0  0
  151.8143  138.1705  160.2955 H   0  0  0  0  0  0  0  0  0  0  0  0
  151.8288  136.3618  158.0361 H   0  0  0  0  0  0  0  0  0  0  0  0
  149.5152  138.0658  159.0143 H   0  0  0  0  0  0  0  0  0  0  0  0
  147.5001  137.2496  159.2071 H   0  0  0  0  0  0  0  0  0  0  0  0
  147.1720  135.7060  158.4901 H   0  0  0  0  0  0  0  0  0  0  0  0
  148.0077  133.7130  159.8146 H   0  0  0  0  0  0  0  0  0  0  0  0
  147.6541  132.5583  161.9845 H   0  0  0  0  0  0  0  0  0  0  0  0
  147.0002  133.9651  163.9889 H   0  0  0  0  0  0  0  0  0  0  0  0
  146.7502  136.3556  163.7669 H   0  0  0  0  0  0  0  0  0  0  0  0
  153.7365  138.3247  156.7452 H   0  0  0  0  0  0  0  0  0  0  0  0
  152.7288  137.2066  155.8579 H   0  0  0  0  0  0  0  0  0  0  0  0
  153.2247  140.0977  155.2852 H   0  0  0  0  0  0  0  0  0  0  0  0
  152.8838  138.7869  154.1626 H   0  0  0  0  0  0  0  0  0  0  0  0
  151.0364  140.6963  155.3692 H   0  0  0  0  0  0  0  0  0  0  0  0
  150.6288  139.4636  154.1811 H   0  0  0  0  0  0  0  0  0  0  0  0
  150.0359  137.9050  155.8289 H   0  0  0  0  0  0  0  0  0  0  0  0
  149.6676  139.3553  156.7402 H   0  0  0  0  0  0  0  0  0  0  0  0
  1  2  1  0  0  0  0
  1 23  1  0  0  0  0
  1 24  1  0  0  0  0
  1 25  1  0  0  0  0
  2  3  1  0  0  0  0
  2 26  1  0  0  0  0
  2 27  1  0  0  0  0
  3  4  1  0  0  0  0
  4 18  1  0  0  0  0
  4  5  1  0  0  0  0
  4 28  1  0  0  0  0
  5  6  1  0  0  0  0
  5 29  1  0  0  0  0
  5 30  1  0  0  0  0
  6  7  1  0  0  0  0
  6 18  1  0  0  0  0
  6 31  1  0  0  0  0
  7  8  1  0  0  0  0
  7 32  1  0  0  0  0
  8  9  2  0  0  0  0
  8 10  1  0  0  0  0
 10 11  1  0  0  0  0
 10 33  1  0  0  0  0
 10 34  1  0  0  0  0
 11 16  1  0  0  0  0
 11 12  1  0  0  0  0
 12 13  2  0  0  0  0
 12 35  1  0  0  0  0
 13 14  1  0  0  0  0
 13 36  1  0  0  0  0
 14 15  2  0  0  0  0
 14 37  1  0  0  0  0
 15 16  1  0  0  0  0
 15 38  1  0  0  0  0
 16 17  2  0  0  0  0
 18 22  1  0  0  0  0
 18 19  1  0  0  0  0
 19 20  1  0  0  0  0
 19 39  1  0  0  0  0
 19 40  1  0  0  0  0
 20 21  1  0  0  0  0
 20 41  1  0  0  0  0
 20 42  1  0  0  0  0
 21 22  1  0  0  0  0
 21 43  1  0  0  0  0
 21 44  1  0  0  0  0
 22 45  1  0  0  0  0
 22 46  1  0  0  0  0
M  END
> <s_m_source_file>
AV-unprocessed.smi

> <i_m_source_file_index>
690

> <i_lp_mmshare_version>
43012

> <i_f3d_flags>
0

> <s_epik_input>
W0NIMl0xW0NIMl1bQ0gyXVtDSDJdQzEyW0NASF0oT1tDSDJdW0NIM10pW0NIMl1bQ0BIXTJbTkhdQyg9TylbQ0gyXW4zW2NIXVtjSF1bY0hdW2NIXWMzPU8=

> <s_epik_cmdline>
J2VwaWtfcHl0aG9uJywgJy1waCcsICc3LjAnLCAnLXRuJywgJzgnLCAnLW1hJywgJzIwMCcsICctbWV0YWxfYmluZGluZycsICctaW1hZScsICc8aW5maWxlLm1hZT4nLCAnLW9tYWUnLCAnPG91dGZpbGUubWFlPic=

> <r_lp_tautomer_probability>
1

> <r_epik_Ionization_Penalty>
4.11691e-07

> <r_epik_Ionization_Penalty_Charging>
3.92797e-07

> <r_epik_Ionization_Penalty_Neutral>
1.88943e-08

> <r_epik_State_Penalty>
-0

> <r_epik_Charging_Adjusted_Penalty>
3.92797e-07

> <i_epik_Tot_Q>
0

> <i_epik_Tot_abs_Q>
0

> <r_epik_Metal_State_Penalty>
-0

> <b_epik_Metal_Only>
0

> <s_lp_Force_Field>
OPLS_2005

> <r_lp_Energy>
46.6505

> <b_lp_Chiralities_Consistent>
1

> <s_lp_Variant>
AV-unprocessed.smi:690-1

> <Gold.Version>
5.8.1

> <Gold.Id.Protein>
6NUR|6NUR_protein|mol2

> <Gold.PLP.Fitness>
48.0498

> <Gold.PLP.PLP>
-38.8501

> <Gold.PLP.part.hbond>
-4.0000

> <Gold.PLP.part.metal>
0.0000

> <Gold.PLP.part.buried>
-0.6226

> <Gold.PLP.part.nonpolar>
-34.5130

> <Gold.PLP.part.repulsive>
0.1480

> <Gold.PLP.ligand.clash>
0.0000

> <Gold.PLP.ligand.torsion>
1.0990

> <Gold.PLP.Chemscore.Hbond>
3.6720

> <Gold.PLP.Chemscore.CHOScore>
0.0000

> <Gold.PLP.Chemscore.Metal>
0.0000

> <Gold.Chemscore.Hbonds>
donor molecule, donor type, donor heavy atom, donor atom, acceptor molecule, acceptor atom, score
      P1  H  6896  6909       L1     9  1.00
      P1  H  6931  6943       L1    17  0.60
      P1  H  6934  6947       L1    17  0.77
      P1  H  7997  8009       L1     3  0.83

> <Gold.PLP.Chemscore.Internal.Correction>
0.3817

> <Gold.Rescore>
     Score         DG    S(hbond)    S(metal)    S(lipo)     H(rot)  DE(clash)    DE(int)     intcor
     20.07     -21.58       2.62        0.00      99.87       1.69       0.30       1.20       ----

> <Gold.Chemscore.Fitness>
20.0734

> <Gold.Chemscore.DG>
-21.5781

> <Gold.Chemscore.ZeroCoef>
-5.4800

> <Gold.Chemscore.Hbond>
2.6166

> <Gold.Chemscore.Metal>
0.0000

> <Gold.Chemscore.Lipo>
99.8715

> <Gold.Chemscore.Internal_Hbond>
0.0000

> <Gold.Chemscore.DEClash>
0.3015

> <Gold.Chemscore.DEInternal>
1.2032

> <Gold.Chemscore.Rot>
1.6900

> <Gold.Chemscore.Internal.Correction>
   9.000000E+99

> <Gold.Chemscore.Hbonds>
donor molecule, donor type, donor heavy atom, donor atom, acceptor molecule, acceptor atom, score
      P1  H  6896  6909       L1     9  0.89
      P1  H  6931  6943       L1    17  0.17
      P1  H  6934  6947       L1    17  0.75
      P1  H  7997  8009       L1     3  0.75

> <Gold.Chemscore.Hbond.Weighted>
-8.7396

> <Gold.Chemscore.Metal.Weighted>
-0.0000

> <Gold.Chemscore.Lipo.Weighted>
-11.6850

> <Gold.Chemscore.Internal_Hbond.Weighted>
0.0000

> <Gold.Chemscore.DEClash.Weighted>
0.3015

> <Gold.Chemscore.DEInternal.Weighted>
1.2032

> <Gold.Chemscore.Rot.Weighted>
4.3265

> <Gold.Chemscore.Internal.Correction.Weighted>
   9.000000E+99

> <Gold.Protein.RotatedTorsions>
[ 6907 6896 6895 6894 ] final   24.46 input  -60.11 | X-H torsion
[ 7974 7965 7964 7962 ] final   -8.99 input  175.53 | X-H torsion
[ 8008 7997 7996 7995 ] final  163.33 input   59.86 | X-H torsion
[ 10167 10162 10161 10158 ] final  -21.00 input  -65.29 | X-H torsion
[ 10718 10713 10712 10709 ] final  -23.17 input   66.30 | X-H torsion
[ 10763 10752 10751 10750 ] final  125.02 input  -60.55 | X-H torsion
[ 11005 11000 10999 10996 ] final -154.40 input  -57.11 | X-H torsion

> <Gold.Protein.ActiveResidues>
 VAL166  LYS551  ARG553  GLY616  TRP617  ASP618  TYR619  PRO620  LYS621  CYS622 
 ASP623  PHE694  ASN695  SER759  ASP760  ASP761  ALA762  ILE779  LEU786  VAL792 
 PHE793  MET794  SER795  GLU796  ALA797  LYS798  CYS799  TRP800  GLU811  SER814 

> <Gold.Protein.RotatedAtoms>
  151.9579  135.0138  160.0545 H   0  0  0  0  0  0  0  0  0  0  0  0  # atno 6907 bound_to 6896
  152.1895  133.4758  159.5009 H   0  0  0  0  0  0  0  0  0  0  0  0  # atno 6908 bound_to 6896
  150.6932  134.1648  159.4232 H   0  0  0  0  0  0  0  0  0  0  0  0  # atno 6909 bound_to 6896
  146.2265  140.2549  142.8349 H   0  0  0  0  0  0  0  0  0  0  0  0  # atno 7974 bound_to 7965
  156.1965  140.1726  156.7987 H   0  0  0  0  0  0  0  0  0  0  0  0  # atno 8008 bound_to 7997
  154.5536  140.0713  156.8739 H   0  0  0  0  0  0  0  0  0  0  0  0  # atno 8009 bound_to 7997
  155.2981  140.3360  155.4251 H   0  0  0  0  0  0  0  0  0  0  0  0  # atno 8010 bound_to 7997
  140.7279  143.4669  151.0301 H   0  0  0  0  0  0  0  0  0  0  0  0  # atno 10167 bound_to 10162
  156.4947  130.4574  149.6735 H   0  0  0  0  0  0  0  0  0  0  0  0  # atno 10718 bound_to 10713
  153.6706  135.3331  155.3152 H   0  0  0  0  0  0  0  0  0  0  0  0  # atno 10763 bound_to 10752
  154.8492  135.4385  154.1709 H   0  0  0  0  0  0  0  0  0  0  0  0  # atno 10764 bound_to 10752
  153.2699  135.6999  153.7567 H   0  0  0  0  0  0  0  0  0  0  0  0  # atno 10765 bound_to 10752
  140.6978  134.3971  157.5213 H   0  0  0  0  0  0  0  0  0  0  0  0  # atno 11005 bound_to 11000
  144.9383  140.8051  143.5646 LP  0  0  0  0  0  0  0  0  0  0  0  0  # atno 17320 bound_to 7965
  145.2499  139.2036  143.4948 LP  0  0  0  0  0  0  0  0  0  0  0  0  # atno 17321 bound_to 7965
  139.8358  143.7630  152.3180 LP  0  0  0  0  0  0  0  0  0  0  0  0  # atno 17342 bound_to 10162
  139.7761  144.7460  151.0154 LP  0  0  0  0  0  0  0  0  0  0  0  0  # atno 17343 bound_to 10162
  156.3392  130.7373  151.2315 LP  0  0  0  0  0  0  0  0  0  0  0  0  # atno 17370 bound_to 10713
  157.7470  131.0408  150.4617 LP  0  0  0  0  0  0  0  0  0  0  0  0  # atno 17371 bound_to 10713
  139.8905  134.8803  156.2366 LP  0  0  0  0  0  0  0  0  0  0  0  0  # atno 17394 bound_to 11000
  141.0189  133.7053  156.1234 LP  0  0  0  0  0  0  0  0  0  0  0  0  # atno 17395 bound_to 11000

$$$$
