AV-unprocessed.smi:1682|AV-procd|sdf|6746|dock9
  -GOLD-   22720 7503D 1   1.00000     0.00000
 Structure written by MMmdl.
 39 40  0  0  0  0  0  0  0  0  2 V2000
  147.7206  135.0105  154.1154 O   0  0  0  0  0  0  0  0  0  0  0  0
  148.4926  134.1968  154.6236 C   0  0  0  0  0  0  0  0  0  0  0  0
  148.7639  133.0014  154.0779 N   0  0  0  0  0  0  0  0  0  0  0  0
  148.2082  132.5043  152.8221 C   0  0  0  0  0  0  0  0  0  0  0  0
  146.7741  131.9545  152.9674 C   0  0  0  0  0  0  0  0  0  0  0  0
  145.9102  132.1678  151.7363 C   0  0  0  0  0  0  0  0  0  0  0  0
  144.5854  132.6496  151.8224 C   0  0  0  0  0  0  0  0  0  0  0  0
  143.8400  132.8331  150.6395 C   0  0  0  0  0  0  0  0  0  0  0  0
  144.4331  132.5288  149.3965 C   0  0  0  0  0  0  0  0  0  0  0  0
  145.7584  132.0488  149.3683 C   0  0  0  0  0  0  0  0  0  0  0  0
  146.4407  131.8886  150.5237 N   0  3  0  0  0  0  0  0  0  0  0  0
  149.2181  134.5308  155.9362 C   0  0  1  0  0  0  0  0  0  0  0  0
  150.7378  134.3117  155.8032 C   0  0  0  0  0  0  0  0  0  0  0  0
  151.3231  135.7094  155.9083 C   0  0  0  0  0  0  0  0  0  0  0  0
  152.5166  135.9447  155.7278 O   0  0  0  0  0  0  0  0  0  0  0  0
  150.3759  136.6070  156.1992 N   0  0  0  0  0  0  0  0  0  0  0  0
  150.5643  138.0494  156.3482 C   0  0  0  0  0  0  0  0  0  0  0  0
  150.9780  138.7296  155.0304 C   0  0  0  0  0  0  0  0  0  0  0  0
  150.0949  138.4874  154.0620 F   0  0  0  0  0  0  0  0  0  0  0  0
  151.0408  140.0462  155.2237 F   0  0  0  0  0  0  0  0  0  0  0  0
  152.1795  138.2998  154.6448 F   0  0  0  0  0  0  0  0  0  0  0  0
  149.0577  136.0112  156.3473 C   0  0  0  0  0  0  0  0  0  0  0  0
  149.4057  132.3931  154.5662 H   0  0  0  0  0  0  0  0  0  0  0  0
  148.2071  133.3360  152.1172 H   0  0  0  0  0  0  0  0  0  0  0  0
  148.8651  131.7431  152.3984 H   0  0  0  0  0  0  0  0  0  0  0  0
  146.8126  130.8880  153.1925 H   0  0  0  0  0  0  0  0  0  0  0  0
  146.2842  132.4203  153.8232 H   0  0  0  0  0  0  0  0  0  0  0  0
  144.1461  132.8804  152.7825 H   0  0  0  0  0  0  0  0  0  0  0  0
  142.8258  133.2023  150.6852 H   0  0  0  0  0  0  0  0  0  0  0  0
  143.8788  132.6609  148.4786 H   0  0  0  0  0  0  0  0  0  0  0  0
  146.2894  131.7901  148.4637 H   0  0  0  0  0  0  0  0  0  0  0  0
  148.8251  133.8935  156.7304 H   0  0  0  0  0  0  0  0  0  0  0  0
  151.1196  133.6957  156.6178 H   0  0  0  0  0  0  0  0  0  0  0  0
  151.0347  133.8462  154.8619 H   0  0  0  0  0  0  0  0  0  0  0  0
  149.6453  138.4992  156.7274 H   0  0  0  0  0  0  0  0  0  0  0  0
  151.3256  138.2328  157.1078 H   0  0  0  0  0  0  0  0  0  0  0  0
  148.3246  136.5462  155.7409 H   0  0  0  0  0  0  0  0  0  0  0  0
  148.7408  136.0900  157.3880 H   0  0  0  0  0  0  0  0  0  0  0  0
  147.3986  131.5399  150.4793 H   0  0  0  0  0  0  0  0  0  0  0  0
  1  2  2  0  0  0  0
  2  3  1  0  0  0  0
  2 12  1  0  0  0  0
  3  4  1  0  0  0  0
  3 23  1  0  0  0  0
  4  5  1  0  0  0  0
  4 24  1  0  0  0  0
  4 25  1  0  0  0  0
  5  6  1  0  0  0  0
  5 26  1  0  0  0  0
  5 27  1  0  0  0  0
  6 11  1  0  0  0  0
  6  7  2  0  0  0  0
  7  8  1  0  0  0  0
  7 28  1  0  0  0  0
  8  9  2  0  0  0  0
  8 29  1  0  0  0  0
  9 10  1  0  0  0  0
  9 30  1  0  0  0  0
 10 11  2  0  0  0  0
 10 31  1  0  0  0  0
 11 39  1  0  0  0  0
 12 22  1  0  0  0  0
 12 13  1  0  0  0  0
 12 32  1  0  0  0  0
 13 14  1  0  0  0  0
 13 33  1  0  0  0  0
 13 34  1  0  0  0  0
 14 15  2  0  0  0  0
 14 16  1  0  0  0  0
 16 17  1  0  0  0  0
 16 22  1  0  0  0  0
 17 18  1  0  0  0  0
 17 35  1  0  0  0  0
 17 36  1  0  0  0  0
 18 19  1  0  0  0  0
 18 20  1  0  0  0  0
 18 21  1  0  0  0  0
 22 37  1  0  0  0  0
 22 38  1  0  0  0  0
M  CHG  1  11   1
M  END
> <s_m_source_file>
AV-unprocessed.smi

> <i_m_source_file_index>
1682

> <i_lp_mmshare_version>
43012

> <i_f3d_flags>
0

> <s_epik_input>
RkMoRikoRilbQ0gyXU4oW0NIMl0xKUMoPU8pW0NIMl1bQ0BIXTFDKD1PKVtOSF1bQ0gyXVtDSDJdYzJbY0hdW2NIXVtjSF1bY0hdbjI=

> <s_epik_cmdline>
J2VwaWtfcHl0aG9uJywgJy1waCcsICc3LjAnLCAnLXRuJywgJzgnLCAnLW1hJywgJzIwMCcsICctbWV0YWxfYmluZGluZycsICctaW1hZScsICc8aW5maWxlLm1hZT4nLCAnLW9tYWUnLCAnPG91dGZpbGUubWFlPic=

> <r_epik_Ionization_Penalty>
1.88249

> <r_epik_Ionization_Penalty_Charging>
1.88249

> <r_epik_Ionization_Penalty_Neutral>
2.8664e-08

> <r_epik_State_Penalty>
2.00238

> <r_epik_Charging_Adjusted_Penalty>
3.88487

> <i_epik_Tot_Q>
1

> <i_epik_Tot_abs_Q>
1

> <r_epik_Metal_State_Penalty>
2.02677

> <b_epik_Metal_Only>
0

> <s_lp_Force_Field>
OPLS_2005

> <r_lp_Energy>
19.2524

> <b_lp_Chiralities_Consistent>
1

> <s_lp_Variant>
AV-unprocessed.smi:1682-4

> <Gold.Version>
5.8.1

> <Gold.Id.Protein>
6NUR|6NUR_protein|mol2

> <Gold.PLP.Fitness>
42.2944

> <Gold.PLP.PLP>
-37.6956

> <Gold.PLP.part.hbond>
-1.9741

> <Gold.PLP.part.metal>
0.0000

> <Gold.PLP.part.buried>
-5.0995

> <Gold.PLP.part.nonpolar>
-31.4025

> <Gold.PLP.part.repulsive>
1.7580

> <Gold.PLP.ligand.clash>
0.0000

> <Gold.PLP.ligand.torsion>
0.7544

> <Gold.PLP.Chemscore.Hbond>
2.0000

> <Gold.PLP.Chemscore.CHOScore>
0.0000

> <Gold.PLP.Chemscore.Metal>
0.0000

> <Gold.Chemscore.Hbonds>
donor molecule, donor type, donor heavy atom, donor atom, acceptor molecule, acceptor atom, score
      L1  H    11    39       P1 10747  1.00

> <Gold.PLP.Chemscore.Internal.Correction>
0.1075

> <Gold.Rescore>
     Score         DG    S(hbond)    S(metal)    S(lipo)     H(rot)  DE(clash)    DE(int)     intcor
     14.37     -15.36       1.99        0.00      75.53       2.19       0.03       0.95       ----

> <Gold.Chemscore.Fitness>
14.3740

> <Gold.Chemscore.DG>
-15.3610

> <Gold.Chemscore.ZeroCoef>
-5.4800

> <Gold.Chemscore.Hbond>
1.9935

> <Gold.Chemscore.Metal>
0.0000

> <Gold.Chemscore.Lipo>
75.5304

> <Gold.Chemscore.Internal_Hbond>
0.0000

> <Gold.Chemscore.DEClash>
0.0339

> <Gold.Chemscore.DEInternal>
0.9531

> <Gold.Chemscore.Rot>
2.1932

> <Gold.Chemscore.Internal.Correction>
   9.000000E+99

> <Gold.Chemscore.Hbonds>
donor molecule, donor type, donor heavy atom, donor atom, acceptor molecule, acceptor atom, score
      L1  H    11    39       P1 10747  1.00
      P1  H 10752 10763       L1    15  0.01

> <Gold.Chemscore.Hbond.Weighted>
-6.6584

> <Gold.Chemscore.Metal.Weighted>
-0.0000

> <Gold.Chemscore.Lipo.Weighted>
-8.8371

> <Gold.Chemscore.Internal_Hbond.Weighted>
0.0000

> <Gold.Chemscore.DEClash.Weighted>
0.0339

> <Gold.Chemscore.DEInternal.Weighted>
0.9531

> <Gold.Chemscore.Rot.Weighted>
5.6145

> <Gold.Chemscore.Internal.Correction.Weighted>
   9.000000E+99

> <Gold.Protein.RotatedTorsions>
[ 6907 6896 6895 6894 ] final   11.73 input  -60.11 | X-H torsion
[ 7974 7965 7964 7962 ] final   82.03 input  175.53 | X-H torsion
[ 8008 7997 7996 7995 ] final   58.19 input   59.86 | X-H torsion
[ 10167 10162 10161 10158 ] final   -6.26 input  -65.29 | X-H torsion
[ 10718 10713 10712 10709 ] final  -16.21 input   66.30 | X-H torsion
[ 10763 10752 10751 10750 ] final   83.88 input  -60.55 | X-H torsion
[ 11005 11000 10999 10996 ] final   18.90 input  -57.11 | X-H torsion

> <Gold.Protein.ActiveResidues>
 VAL166  LYS551  ARG553  GLY616  TRP617  ASP618  TYR619  PRO620  LYS621  CYS622 
 ASP623  PHE694  ASN695  SER759  ASP760  ASP761  ALA762  ILE779  LEU786  VAL792 
 PHE793  MET794  SER795  GLU796  ALA797  LYS798  CYS799  TRP800  GLU811  SER814 

> <Gold.Protein.RotatedAtoms>
  151.7590  135.0814  160.0342 H   0  0  0  0  0  0  0  0  0  0  0  0  # atno 6907 bound_to 6896
  152.3366  133.6014  159.5855 H   0  0  0  0  0  0  0  0  0  0  0  0  # atno 6908 bound_to 6896
  150.7454  133.9703  159.3585 H   0  0  0  0  0  0  0  0  0  0  0  0  # atno 6909 bound_to 6896
  145.6304  139.2403  143.2088 H   0  0  0  0  0  0  0  0  0  0  0  0  # atno 7974 bound_to 7965
  155.5460  140.3485  155.4457 H   0  0  0  0  0  0  0  0  0  0  0  0  # atno 8008 bound_to 7997
  156.0617  140.1342  156.9959 H   0  0  0  0  0  0  0  0  0  0  0  0  # atno 8009 bound_to 7997
  154.4483  140.0984  156.6512 H   0  0  0  0  0  0  0  0  0  0  0  0  # atno 8010 bound_to 7997
  140.6991  143.6214  150.8609 H   0  0  0  0  0  0  0  0  0  0  0  0  # atno 10167 bound_to 10162
  156.5908  130.4798  149.6280 H   0  0  0  0  0  0  0  0  0  0  0  0  # atno 10718 bound_to 10713
  153.1331  135.4675  154.9380 H   0  0  0  0  0  0  0  0  0  0  0  0  # atno 10763 bound_to 10752
  154.7682  135.3151  154.8246 H   0  0  0  0  0  0  0  0  0  0  0  0  # atno 10764 bound_to 10752
  153.8784  135.6896  153.4823 H   0  0  0  0  0  0  0  0  0  0  0  0  # atno 10765 bound_to 10752
  140.4197  134.1532  155.7672 H   0  0  0  0  0  0  0  0  0  0  0  0  # atno 11005 bound_to 11000
  146.1361  140.7120  142.9389 LP  0  0  0  0  0  0  0  0  0  0  0  0  # atno 17320 bound_to 7965
  144.7196  140.4328  143.7018 LP  0  0  0  0  0  0  0  0  0  0  0  0  # atno 17321 bound_to 7965
  139.9935  143.5822  152.2902 LP  0  0  0  0  0  0  0  0  0  0  0  0  # atno 17342 bound_to 10162
  139.6485  144.7659  151.2195 LP  0  0  0  0  0  0  0  0  0  0  0  0  # atno 17343 bound_to 10162
  156.2551  130.6930  151.1680 LP  0  0  0  0  0  0  0  0  0  0  0  0  # atno 17370 bound_to 10713
  157.7304  131.0616  150.5728 LP  0  0  0  0  0  0  0  0  0  0  0  0  # atno 17371 bound_to 10713
  141.1789  133.8456  157.1327 LP  0  0  0  0  0  0  0  0  0  0  0  0  # atno 17394 bound_to 11000
  140.0209  134.9946  157.0589 LP  0  0  0  0  0  0  0  0  0  0  0  0  # atno 17395 bound_to 11000

$$$$
