AV-unprocessed.smi:801|AV-procd|sdf|3790|dock1
  -GOLD-   22720 1223D 1   1.00000     0.00000
 Structure written by MMmdl.
 43 44  0  0  0  0  0  0  0  0  2 V2000
  149.7965  134.8775  154.9159 C   0  0  0  0  0  0  0  0  0  0  0  0
  149.5142  136.1339  155.5065 O   0  0  0  0  0  0  0  0  0  0  0  0
  148.1533  136.2627  155.8813 C   0  0  0  0  0  0  0  0  0  0  0  0
  148.0290  137.3795  156.9282 C   0  0  0  0  0  0  0  0  0  0  0  0
  149.2943  137.5637  157.6709 N   0  0  0  0  0  0  0  0  0  0  0  0
  149.9539  138.8209  157.6163 C   0  0  0  0  0  0  0  0  0  0  0  0
  149.4111  139.8322  156.8053 N   0  0  0  0  0  0  0  0  0  0  0  0
  149.9703  140.3123  155.6798 C   0  0  0  0  0  0  0  0  0  0  0  0
  149.2514  141.4887  155.0290 C   0  0  0  0  0  0  0  0  0  0  0  0
  151.0029  139.8694  155.1769 O   0  0  0  0  0  0  0  0  0  0  0  0
  151.1215  139.0246  158.2919 C   0  0  0  0  0  0  0  0  0  0  0  0
  151.8119  140.2367  158.2060 N   0  0  0  0  0  0  0  0  0  0  0  0
  153.0515  140.6936  158.8163 C   0  0  0  0  0  0  0  0  0  0  0  0
  152.8424  141.7280  159.9090 C   0  0  0  0  0  0  0  0  0  0  0  0
  153.3311  141.5026  161.2150 C   0  0  0  0  0  0  0  0  0  0  0  0
  153.1289  142.4642  162.2243 C   0  0  0  0  0  0  0  0  0  0  0  0
  152.4339  143.6541  161.9348 C   0  0  0  0  0  0  0  0  0  0  0  0
  151.9386  143.8806  160.6363 C   0  0  0  0  0  0  0  0  0  0  0  0
  152.1403  142.9192  159.6267 C   0  0  0  0  0  0  0  0  0  0  0  0
  151.6555  137.9099  159.0956 C   0  0  0  0  0  0  0  0  0  0  0  0
  152.6798  138.0363  159.7651 O   0  0  0  0  0  0  0  0  0  0  0  0
  150.9816  136.7296  159.0749 N   0  5  0  0  0  0  0  0  0  0  0  0
  149.8308  136.5255  158.3768 C   0  0  0  0  0  0  0  0  0  0  0  0
  149.2660  135.4308  158.3652 O   0  0  0  0  0  0  0  0  0  0  0  0
  150.8510  134.8289  154.6446 H   0  0  0  0  0  0  0  0  0  0  0  0
  149.2087  134.7264  154.0096 H   0  0  0  0  0  0  0  0  0  0  0  0
  149.5890  134.0606  155.6086 H   0  0  0  0  0  0  0  0  0  0  0  0
  147.5445  136.4966  155.0064 H   0  0  0  0  0  0  0  0  0  0  0  0
  147.7919  135.3183  156.2909 H   0  0  0  0  0  0  0  0  0  0  0  0
  147.7148  138.3062  156.4483 H   0  0  0  0  0  0  0  0  0  0  0  0
  147.2025  137.1526  157.6038 H   0  0  0  0  0  0  0  0  0  0  0  0
  148.6243  140.3351  157.1888 H   0  0  0  0  0  0  0  0  0  0  0  0
  149.2879  142.3620  155.6807 H   0  0  0  0  0  0  0  0  0  0  0  0
  148.2066  141.2406  154.8398 H   0  0  0  0  0  0  0  0  0  0  0  0
  149.7174  141.7507  154.0785 H   0  0  0  0  0  0  0  0  0  0  0  0
  151.3728  140.9380  157.6280 H   0  0  0  0  0  0  0  0  0  0  0  0
  153.5783  139.8327  159.2298 H   0  0  0  0  0  0  0  0  0  0  0  0
  153.6913  141.1336  158.0509 H   0  0  0  0  0  0  0  0  0  0  0  0
  153.8617  140.5910  161.4486 H   0  0  0  0  0  0  0  0  0  0  0  0
  153.5057  142.2879  163.2210 H   0  0  0  0  0  0  0  0  0  0  0  0
  152.2784  144.3914  162.7085 H   0  0  0  0  0  0  0  0  0  0  0  0
  151.4035  144.7921  160.4144 H   0  0  0  0  0  0  0  0  0  0  0  0
  151.7552  143.1012  158.6340 H   0  0  0  0  0  0  0  0  0  0  0  0
  1  2  1  0  0  0  0
  1 25  1  0  0  0  0
  1 26  1  0  0  0  0
  1 27  1  0  0  0  0
  2  3  1  0  0  0  0
  3  4  1  0  0  0  0
  3 28  1  0  0  0  0
  3 29  1  0  0  0  0
  4  5  1  0  0  0  0
  4 30  1  0  0  0  0
  4 31  1  0  0  0  0
  5 23  1  0  0  0  0
  5  6  1  0  0  0  0
  6  7  1  0  0  0  0
  6 11  2  0  0  0  0
  7  8  1  0  0  0  0
  7 32  1  0  0  0  0
  8  9  1  0  0  0  0
  8 10  2  0  0  0  0
  9 33  1  0  0  0  0
  9 34  1  0  0  0  0
  9 35  1  0  0  0  0
 11 12  1  0  0  0  0
 11 20  1  0  0  0  0
 12 13  1  0  0  0  0
 12 36  1  0  0  0  0
 13 14  1  0  0  0  0
 13 37  1  0  0  0  0
 13 38  1  0  0  0  0
 14 19  1  0  0  0  0
 14 15  2  0  0  0  0
 15 16  1  0  0  0  0
 15 39  1  0  0  0  0
 16 17  2  0  0  0  0
 16 40  1  0  0  0  0
 17 18  1  0  0  0  0
 17 41  1  0  0  0  0
 18 19  2  0  0  0  0
 18 42  1  0  0  0  0
 19 43  1  0  0  0  0
 20 21  2  0  0  0  0
 20 22  1  0  0  0  0
 22 23  1  0  0  0  0
 23 24  2  0  0  0  0
M  CHG  1  22  -1
M  END
> <s_m_source_file>
AV-unprocessed.smi

> <i_m_source_file_index>
801

> <i_lp_mmshare_version>
43012

> <i_f3d_flags>
0

> <s_epik_input>
W0NIM11PW0NIMl1bQ0gyXW4xYyhbTkhdQyg9TylbQ0gzXSljKGMoPU8pW25IXWMxPU8pW05IXVtDSDJdYzJbY0hdW2NIXVtjSF1bY0hdW2NIXTI=

> <s_epik_cmdline>
J2VwaWtfcHl0aG9uJywgJy1waCcsICc3LjAnLCAnLXRuJywgJzgnLCAnLW1hJywgJzIwMCcsICctbWV0YWxfYmluZGluZycsICctaW1hZScsICc8aW5maWxlLm1hZT4nLCAnLW9tYWUnLCAnPG91dGZpbGUubWFlPic=

> <r_lp_tautomer_probability>
0.999901

> <r_epik_Ionization_Penalty>
3.93073

> <r_epik_Ionization_Penalty_Charging>
1.379e-07

> <r_epik_Ionization_Penalty_Neutral>
3.93073

> <r_epik_State_Penalty>
3.9304

> <r_epik_Charging_Adjusted_Penalty>
3.9304

> <i_epik_Tot_Q>
-1

> <i_epik_Tot_abs_Q>
1

> <r_epik_Metal_State_Penalty>
0.600886

> <b_epik_Metal_Only>
1

> <s_lp_Force_Field>
OPLS_2005

> <r_lp_Energy>
31.5589

> <b_lp_Chiralities_Consistent>
1

> <s_lp_Variant>
AV-unprocessed.smi:801-2

> <Gold.Version>
5.8.1

> <Gold.Id.Protein>
6NUR|6NUR_protein|mol2

> <Gold.PLP.Fitness>
50.5293

> <Gold.PLP.PLP>
-42.4567

> <Gold.PLP.part.hbond>
-2.9889

> <Gold.PLP.part.metal>
0.0000

> <Gold.PLP.part.buried>
-5.4580

> <Gold.PLP.part.nonpolar>
-33.7650

> <Gold.PLP.part.repulsive>
0.2584

> <Gold.PLP.ligand.clash>
0.0000

> <Gold.PLP.ligand.torsion>
1.0350

> <Gold.PLP.Chemscore.Hbond>
3.0000

> <Gold.PLP.Chemscore.CHOScore>
0.0000

> <Gold.PLP.Chemscore.Metal>
0.0000

> <Gold.Chemscore.Hbonds>
donor molecule, donor type, donor heavy atom, donor atom, acceptor molecule, acceptor atom, score
      P1  H  6896  6907       L1    22  2.00
      P1  H  7989  7998       L1    10  0.94

> <Gold.PLP.Chemscore.Internal.Correction>
1.1426

> <Gold.Rescore>
     Score         DG    S(hbond)    S(metal)    S(lipo)     H(rot)  DE(clash)    DE(int)     intcor
      8.95     -15.62       1.32        0.00      92.40       1.98       0.11       6.56       ----

> <Gold.Chemscore.Fitness>
8.9490

> <Gold.Chemscore.DG>
-15.6238

> <Gold.Chemscore.ZeroCoef>
-5.4800

> <Gold.Chemscore.Hbond>
1.3198

> <Gold.Chemscore.Metal>
0.0000

> <Gold.Chemscore.Lipo>
92.3974

> <Gold.Chemscore.Internal_Hbond>
0.0000

> <Gold.Chemscore.DEClash>
0.1103

> <Gold.Chemscore.DEInternal>
6.5646

> <Gold.Chemscore.Rot>
1.9824

> <Gold.Chemscore.Internal.Correction>
   9.000000E+99

> <Gold.Chemscore.Hbonds>
donor molecule, donor type, donor heavy atom, donor atom, acceptor molecule, acceptor atom, score
      P1  H  6896  6907       L1    22  0.44
      P1  H  7989  7998       L1    10  0.81

> <Gold.Chemscore.Hbond.Weighted>
-4.4082

> <Gold.Chemscore.Metal.Weighted>
-0.0000

> <Gold.Chemscore.Lipo.Weighted>
-10.8105

> <Gold.Chemscore.Internal_Hbond.Weighted>
0.0000

> <Gold.Chemscore.DEClash.Weighted>
0.1103

> <Gold.Chemscore.DEInternal.Weighted>
6.5646

> <Gold.Chemscore.Rot.Weighted>
5.0749

> <Gold.Chemscore.Internal.Correction.Weighted>
   9.000000E+99

> <Gold.Protein.RotatedTorsions>
[ 6907 6896 6895 6894 ] final  -17.42 input  -60.11 | X-H torsion
[ 7974 7965 7964 7962 ] final   36.64 input  175.53 | X-H torsion
[ 8008 7997 7996 7995 ] final  -65.63 input   59.86 | X-H torsion
[ 10167 10162 10161 10158 ] final  120.03 input  -65.29 | X-H torsion
[ 10718 10713 10712 10709 ] final   44.79 input   66.30 | X-H torsion
[ 10763 10752 10751 10750 ] final   71.75 input  -60.55 | X-H torsion
[ 11005 11000 10999 10996 ] final   -8.66 input  -57.11 | X-H torsion

> <Gold.Protein.ActiveResidues>
 VAL166  LYS551  ARG553  GLY616  TRP617  ASP618  TYR619  PRO620  LYS621  CYS622 
 ASP623  PHE694  ASN695  SER759  ASP760  ASP761  ALA762  ILE779  LEU786  VAL792 
 PHE793  MET794  SER795  GLU796  ALA797  LYS798  CYS799  TRP800  GLU811  SER814 

> <Gold.Protein.RotatedAtoms>
  151.2937  135.0749  159.9213 H   0  0  0  0  0  0  0  0  0  0  0  0  # atno 6907 bound_to 6896
  152.5311  133.9905  159.7859 H   0  0  0  0  0  0  0  0  0  0  0  0  # atno 6908 bound_to 6896
  151.0180  133.5852  159.2705 H   0  0  0  0  0  0  0  0  0  0  0  0  # atno 6909 bound_to 6896
  146.1197  139.5993  142.9298 H   0  0  0  0  0  0  0  0  0  0  0  0  # atno 7974 bound_to 7965
  154.4683  140.0929  156.7080 H   0  0  0  0  0  0  0  0  0  0  0  0  # atno 8008 bound_to 7997
  155.4794  140.3467  155.4319 H   0  0  0  0  0  0  0  0  0  0  0  0  # atno 8009 bound_to 7997
  156.0996  140.1418  156.9474 H   0  0  0  0  0  0  0  0  0  0  0  0  # atno 8010 bound_to 7997
  139.6008  144.7056  151.3068 H   0  0  0  0  0  0  0  0  0  0  0  0  # atno 10167 bound_to 10162
  157.4306  130.8023  149.7600 H   0  0  0  0  0  0  0  0  0  0  0  0  # atno 10718 bound_to 10713
  153.0417  135.5125  154.7640 H   0  0  0  0  0  0  0  0  0  0  0  0  # atno 10763 bound_to 10752
  154.6572  135.2933  154.9915 H   0  0  0  0  0  0  0  0  0  0  0  0  # atno 10764 bound_to 10752
  154.0779  135.6668  153.4886 H   0  0  0  0  0  0  0  0  0  0  0  0  # atno 10765 bound_to 10752
  140.7258  133.8790  155.8855 H   0  0  0  0  0  0  0  0  0  0  0  0  # atno 11005 bound_to 11000
  145.5493  141.0414  143.2287 LP  0  0  0  0  0  0  0  0  0  0  0  0  # atno 17320 bound_to 7965
  144.7585  139.7014  143.7244 LP  0  0  0  0  0  0  0  0  0  0  0  0  # atno 17321 bound_to 7965
  140.7248  143.7035  150.7826 LP  0  0  0  0  0  0  0  0  0  0  0  0  # atno 17342 bound_to 10162
  140.0611  143.5154  152.2627 LP  0  0  0  0  0  0  0  0  0  0  0  0  # atno 17343 bound_to 10162
  155.9912  130.3939  150.2995 LP  0  0  0  0  0  0  0  0  0  0  0  0  # atno 17370 bound_to 10713
  157.1151  131.0232  151.3032 LP  0  0  0  0  0  0  0  0  0  0  0  0  # atno 17371 bound_to 10713
  140.9964  134.1210  157.4360 LP  0  0  0  0  0  0  0  0  0  0  0  0  # atno 17394 bound_to 11000
  139.8837  135.0055  156.6321 LP  0  0  0  0  0  0  0  0  0  0  0  0  # atno 17395 bound_to 11000

$$$$
