AV-unprocessed.smi:3081|AV-procd|sdf|11740|dock1
  -GOLD-   2272017133D 1   1.00000     0.00000
 Structure written by MMmdl.
 26 27  0  0  0  0  0  0  0  0  2 V2000
  151.1064  138.0878  154.1516 C   0  0  0  0  0  0  0  0  0  0  0  0
  150.6606  139.3219  154.6672 C   0  0  0  0  0  0  0  0  0  0  0  0
  151.4359  139.8836  155.7045 C   0  0  0  0  0  0  0  0  0  0  0  0
  151.0561  141.2110  156.3460 C   0  0  2  0  0  0  0  0  0  0  0  0
  151.8761  141.5011  157.6188 C   0  0  0  0  0  0  0  0  0  0  0  0
  151.4558  142.8451  158.2336 C   0  0  0  0  0  0  0  0  0  0  0  0
  149.9387  142.8856  158.4824 C   0  0  0  0  0  0  0  0  0  0  0  0
  149.1966  142.6142  157.2320 N   0  3  0  0  0  0  0  0  0  0  0  0
  149.5414  141.3090  156.6259 C   0  0  0  0  0  0  0  0  0  0  0  0
  152.5439  139.2644  156.1731 N   0  0  0  0  0  0  0  0  0  0  0  0
  152.8709  138.0989  155.6076 C   0  0  0  0  0  0  0  0  0  0  0  0
  152.2137  137.4773  154.6257 N   0  0  0  0  0  0  0  0  0  0  0  0
  150.5720  137.5887  153.3568 H   0  0  0  0  0  0  0  0  0  0  0  0
  149.7738  139.8044  154.2831 H   0  0  0  0  0  0  0  0  0  0  0  0
  151.3000  141.9913  155.6230 H   0  0  0  0  0  0  0  0  0  0  0  0
  151.7270  140.7074  158.3523 H   0  0  0  0  0  0  0  0  0  0  0  0
  152.9418  141.5152  157.3871 H   0  0  0  0  0  0  0  0  0  0  0  0
  151.9921  143.0114  159.1683 H   0  0  0  0  0  0  0  0  0  0  0  0
  151.7399  143.6593  157.5655 H   0  0  0  0  0  0  0  0  0  0  0  0
  149.6567  142.1484  159.2355 H   0  0  0  0  0  0  0  0  0  0  0  0
  149.6444  143.8624  158.8661 H   0  0  0  0  0  0  0  0  0  0  0  0
  148.2057  142.6320  157.4282 H   0  0  0  0  0  0  0  0  0  0  0  0
  148.9761  141.1900  155.7012 H   0  0  0  0  0  0  0  0  0  0  0  0
  149.2207  140.5136  157.3004 H   0  0  0  0  0  0  0  0  0  0  0  0
  153.7562  137.6088  155.9847 H   0  0  0  0  0  0  0  0  0  0  0  0
  149.4096  143.3443  156.5672 H   0  0  0  0  0  0  0  0  0  0  0  0
  1 12  1  0  0  0  0
  1  2  2  0  0  0  0
  1 13  1  0  0  0  0
  2  3  1  0  0  0  0
  2 14  1  0  0  0  0
  3  4  1  0  0  0  0
  3 10  2  0  0  0  0
  4  9  1  0  0  0  0
  4  5  1  0  0  0  0
  4 15  1  0  0  0  0
  5  6  1  0  0  0  0
  5 16  1  0  0  0  0
  5 17  1  0  0  0  0
  6  7  1  0  0  0  0
  6 18  1  0  0  0  0
  6 19  1  0  0  0  0
  7  8  1  0  0  0  0
  7 20  1  0  0  0  0
  7 21  1  0  0  0  0
  8  9  1  0  0  0  0
  8 22  1  0  0  0  0
  8 26  1  0  0  0  0
  9 23  1  0  0  0  0
  9 24  1  0  0  0  0
 10 11  1  0  0  0  0
 11 12  2  0  0  0  0
 11 25  1  0  0  0  0
M  CHG  1   8   1
M  END
> <s_m_source_file>
AV-unprocessed.smi

> <i_m_source_file_index>
3081

> <i_lp_mmshare_version>
43012

> <i_f3d_flags>
0

> <s_epik_input>
bjFbY0hdbltjSF1bY0hdYzFbQ0BASF0yW0NIMl1bQ0gyXVtDSDJdW05IXVtDSDJdMg==

> <s_epik_cmdline>
J2VwaWtfcHl0aG9uJywgJy1waCcsICc3LjAnLCAnLXRuJywgJzgnLCAnLW1hJywgJzIwMCcsICctbWV0YWxfYmluZGluZycsICctaW1hZScsICc8aW5maWxlLm1hZT4nLCAnLW9tYWUnLCAnPG91dGZpbGUubWFlPic=

> <r_lp_tautomer_probability>
1

> <r_epik_Ionization_Penalty>
0.000373217

> <r_epik_Ionization_Penalty_Charging>
0.000372054

> <r_epik_Ionization_Penalty_Neutral>
1.16293e-06

> <r_epik_State_Penalty>
0.00022692

> <r_epik_Charging_Adjusted_Penalty>
0.000598973

> <i_epik_Tot_Q>
1

> <i_epik_Tot_abs_Q>
1

> <r_epik_Metal_State_Penalty>
-0

> <b_epik_Metal_Only>
0

> <s_epik_Chemistry_Notes>
This compound contains an electron-poor aromatic ring that is susceptible to covalent hydrolysis at low pH, typically resulting in measured values for nitrogen ring protonation that are around two units higher than predicted values.

> <s_lp_Force_Field>
OPLS_2005

> <r_lp_Energy>
7.17513

> <b_lp_Chiralities_Consistent>
1

> <s_lp_Variant>
AV-unprocessed.smi:3081-1

> <Gold.Version>
5.8.1

> <Gold.Id.Protein>
6NUR|6NUR_protein|mol2

> <Gold.PLP.Fitness>
37.8271

> <Gold.PLP.PLP>
-23.5559

> <Gold.PLP.part.hbond>
-3.0000

> <Gold.PLP.part.metal>
0.0000

> <Gold.PLP.part.buried>
-3.4709

> <Gold.PLP.part.nonpolar>
-17.4518

> <Gold.PLP.part.repulsive>
0.1270

> <Gold.PLP.ligand.clash>
0.0000

> <Gold.PLP.ligand.torsion>
0.3218

> <Gold.PLP.Chemscore.Hbond>
3.7680

> <Gold.PLP.Chemscore.CHOScore>
1.1916

> <Gold.PLP.Chemscore.Metal>
0.0000

> <Gold.Chemscore.Hbonds>
donor molecule, donor type, donor heavy atom, donor atom, acceptor molecule, acceptor atom, score
      L1  H     8    26       P1  8028  1.95
      P1  H  7997  8008       L1    10  1.00
      P1  H 10752 10765       L1    12  0.77
      L1  C     1    13       P1  7948  0.59
      L1  C     1    13       P1  7949  0.60

> <Gold.PLP.Chemscore.Internal.Correction>
0.0361

> <Gold.Rescore>
     Score         DG    S(hbond)    S(metal)    S(lipo)     H(rot)  DE(clash)    DE(int)     intcor
     16.32     -16.62       2.08        0.00      57.71       1.00       0.01       0.28       ----

> <Gold.Chemscore.Fitness>
16.3229

> <Gold.Chemscore.DG>
-16.6194

> <Gold.Chemscore.ZeroCoef>
-5.4800

> <Gold.Chemscore.Hbond>
2.0800

> <Gold.Chemscore.Metal>
0.0000

> <Gold.Chemscore.Lipo>
57.7103

> <Gold.Chemscore.Internal_Hbond>
0.0000

> <Gold.Chemscore.DEClash>
0.0149

> <Gold.Chemscore.DEInternal>
0.2816

> <Gold.Chemscore.Rot>
1.0000

> <Gold.Chemscore.Internal.Correction>
   9.000000E+99

> <Gold.Chemscore.Hbonds>
donor molecule, donor type, donor heavy atom, donor atom, acceptor molecule, acceptor atom, score
      L1  H     8    26       P1  8028  0.93
      P1  H  7997  8008       L1    10  0.24
      P1  H 10752 10765       L1    12  0.52

> <Gold.Chemscore.Hbond.Weighted>
-6.9473

> <Gold.Chemscore.Metal.Weighted>
-0.0000

> <Gold.Chemscore.Lipo.Weighted>
-6.7521

> <Gold.Chemscore.Internal_Hbond.Weighted>
0.0000

> <Gold.Chemscore.DEClash.Weighted>
0.0149

> <Gold.Chemscore.DEInternal.Weighted>
0.2816

> <Gold.Chemscore.Rot.Weighted>
2.5600

> <Gold.Chemscore.Internal.Correction.Weighted>
   9.000000E+99

> <Gold.Protein.RotatedTorsions>
[ 6907 6896 6895 6894 ] final -138.78 input  -60.11 | X-H torsion
[ 7974 7965 7964 7962 ] final -108.96 input  175.53 | X-H torsion
[ 8008 7997 7996 7995 ] final  -34.45 input   59.86 | X-H torsion
[ 10167 10162 10161 10158 ] final -169.11 input  -65.29 | X-H torsion
[ 10718 10713 10712 10709 ] final  -48.84 input   66.30 | X-H torsion
[ 10763 10752 10751 10750 ] final  167.71 input  -60.55 | X-H torsion
[ 11005 11000 10999 10996 ] final -100.25 input  -57.11 | X-H torsion

> <Gold.Protein.ActiveResidues>
 VAL166  LYS551  ARG553  GLY616  TRP617  ASP618  TYR619  PRO620  LYS621  CYS622 
 ASP623  PHE694  ASN695  SER759  ASP760  ASP761  ALA762  ILE779  LEU786  VAL792 
 PHE793  MET794  SER795  GLU796  ALA797  LYS798  CYS799  TRP800  GLU811  SER814 

> <Gold.Protein.RotatedAtoms>
  151.0394  133.5720  159.2652 H   0  0  0  0  0  0  0  0  0  0  0  0  # atno 6907 bound_to 6896
  151.2772  135.0702  159.9166 H   0  0  0  0  0  0  0  0  0  0  0  0  # atno 6908 bound_to 6896
  152.5361  134.0114  159.7994 H   0  0  0  0  0  0  0  0  0  0  0  0  # atno 6909 bound_to 6896
  145.1864  140.8995  143.3450 H   0  0  0  0  0  0  0  0  0  0  0  0  # atno 7974 bound_to 7965
  154.4120  140.1683  156.2051 H   0  0  0  0  0  0  0  0  0  0  0  0  # atno 8008 bound_to 7997
  155.9491  140.3402  155.6369 H   0  0  0  0  0  0  0  0  0  0  0  0  # atno 8009 bound_to 7997
  155.6893  140.0732  157.2445 H   0  0  0  0  0  0  0  0  0  0  0  0  # atno 8010 bound_to 7997
  139.5943  144.1145  152.1671 H   0  0  0  0  0  0  0  0  0  0  0  0  # atno 10167 bound_to 10162
  156.1949  130.4154  149.9320 H   0  0  0  0  0  0  0  0  0  0  0  0  # atno 10718 bound_to 10713
  154.3578  135.2753  155.2337 H   0  0  0  0  0  0  0  0  0  0  0  0  # atno 10763 bound_to 10752
  154.4538  135.5924  153.6213 H   0  0  0  0  0  0  0  0  0  0  0  0  # atno 10764 bound_to 10752
  152.9845  135.6048  154.3795 H   0  0  0  0  0  0  0  0  0  0  0  0  # atno 10765 bound_to 10752
  141.1278  133.8384  157.1078 H   0  0  0  0  0  0  0  0  0  0  0  0  # atno 11005 bound_to 11000
  145.0084  139.3532  143.6132 LP  0  0  0  0  0  0  0  0  0  0  0  0  # atno 17320 bound_to 7965
  146.3444  139.9337  142.8750 LP  0  0  0  0  0  0  0  0  0  0  0  0  # atno 17321 bound_to 7965
  140.0727  144.5766  150.7180 LP  0  0  0  0  0  0  0  0  0  0  0  0  # atno 17342 bound_to 10162
  140.7199  143.2579  151.4312 LP  0  0  0  0  0  0  0  0  0  0  0  0  # atno 17343 bound_to 10162
  156.7048  130.8947  151.3603 LP  0  0  0  0  0  0  0  0  0  0  0  0  # atno 17370 bound_to 10713
  157.6952  130.9274  150.0623 LP  0  0  0  0  0  0  0  0  0  0  0  0  # atno 17371 bound_to 10713
  140.0294  134.9908  157.0750 LP  0  0  0  0  0  0  0  0  0  0  0  0  # atno 17394 bound_to 11000
  140.4310  134.1780  155.7168 LP  0  0  0  0  0  0  0  0  0  0  0  0  # atno 17395 bound_to 11000

$$$$
