AV-unprocessed.smi:384|AV-procd|sdf|2467|dock3
  -GOLD-   2262022403D 1   1.00000     0.00000
 Structure written by MMmdl.
 32 33  0  0  0  0  0  0  0  0  2 V2000
  152.7759  144.5585  157.9604 C   0  0  0  0  0  0  0  0  0  0  0  0
  151.6035  143.9847  158.7755 C   0  0  1  0  0  0  0  0  0  0  0  0
  151.1849  142.5672  158.3368 C   0  0  0  0  0  0  0  0  0  0  0  0
  152.1549  141.5800  158.7914 N   0  0  0  0  0  0  0  0  0  0  0  0
  151.8954  140.2884  158.3125 C   0  0  0  0  0  0  0  0  0  0  0  0
  150.7936  139.5776  158.8294 C   0  0  0  0  0  0  0  0  0  0  0  0
  150.5352  138.2817  158.3431 C   0  0  0  0  0  0  0  0  0  0  0  0
  151.3862  137.7336  157.3575 C   0  0  0  0  0  0  0  0  0  0  0  0
  151.1504  136.3560  156.8050 C   0  0  0  0  0  0  0  0  0  0  0  0
  150.5089  135.5314  157.4933 O   0  0  0  0  0  0  0  0  0  0  0  0
  151.6038  136.0754  155.6730 O   0  5  0  0  0  0  0  0  0  0  0  0
  152.4662  138.5281  156.9096 C   0  0  0  0  0  0  0  0  0  0  0  0
  152.7194  139.7727  157.3700 N   0  0  0  0  0  0  0  0  0  0  0  0
  152.3711  141.6404  160.2299 C   0  0  0  0  0  0  0  0  0  0  0  0
  152.8270  143.0542  160.6317 C   0  0  2  0  0  0  0  0  0  0  0  0
  152.9684  143.1999  162.1502 C   0  0  0  0  0  0  0  0  0  0  0  0
  151.8646  144.0090  160.1821 O   0  0  0  0  0  0  0  0  0  0  0  0
  152.5077  144.6448  156.9072 H   0  0  0  0  0  0  0  0  0  0  0  0
  153.6655  143.9318  158.0167 H   0  0  0  0  0  0  0  0  0  0  0  0
  153.0440  145.5540  158.3147 H   0  0  0  0  0  0  0  0  0  0  0  0
  150.7528  144.6469  158.6122 H   0  0  0  0  0  0  0  0  0  0  0  0
  150.2085  142.3295  158.7619 H   0  0  0  0  0  0  0  0  0  0  0  0
  151.0792  142.5195  157.2521 H   0  0  0  0  0  0  0  0  0  0  0  0
  150.1547  140.0154  159.5822 H   0  0  0  0  0  0  0  0  0  0  0  0
  149.6924  137.7261  158.7280 H   0  0  0  0  0  0  0  0  0  0  0  0
  153.1538  138.1659  156.1592 H   0  0  0  0  0  0  0  0  0  0  0  0
  151.4479  141.3836  160.7517 H   0  0  0  0  0  0  0  0  0  0  0  0
  153.1223  140.9048  160.5213 H   0  0  0  0  0  0  0  0  0  0  0  0
  153.7959  143.2683  160.1801 H   0  0  0  0  0  0  0  0  0  0  0  0
  153.6987  142.4934  162.5456 H   0  0  0  0  0  0  0  0  0  0  0  0
  152.0187  143.0180  162.6543 H   0  0  0  0  0  0  0  0  0  0  0  0
  153.2997  144.2041  162.4156 H   0  0  0  0  0  0  0  0  0  0  0  0
  1  2  1  0  0  0  0
  1 18  1  0  0  0  0
  1 19  1  0  0  0  0
  1 20  1  0  0  0  0
  2 17  1  0  0  0  0
  2  3  1  0  0  0  0
  2 21  1  0  0  0  0
  3  4  1  0  0  0  0
  3 22  1  0  0  0  0
  3 23  1  0  0  0  0
  4  5  1  0  0  0  0
  4 14  1  0  0  0  0
  5 13  1  0  0  0  0
  5  6  2  0  0  0  0
  6  7  1  0  0  0  0
  6 24  1  0  0  0  0
  7  8  2  0  0  0  0
  7 25  1  0  0  0  0
  8  9  1  0  0  0  0
  8 12  1  0  0  0  0
  9 10  2  0  0  0  0
  9 11  1  0  0  0  0
 12 13  2  0  0  0  0
 12 26  1  0  0  0  0
 14 15  1  0  0  0  0
 14 27  1  0  0  0  0
 14 28  1  0  0  0  0
 15 16  1  0  0  0  0
 15 17  1  0  0  0  0
 15 29  1  0  0  0  0
 16 30  1  0  0  0  0
 16 31  1  0  0  0  0
 16 32  1  0  0  0  0
M  CHG  1  11  -1
M  END
> <s_m_source_file>
AV-unprocessed.smi

> <i_m_source_file_index>
384

> <i_lp_mmshare_version>
43012

> <i_f3d_flags>
0

> <s_epik_input>
W0NIM11bQ0BASF0xW0NIMl1OKFtDSDJdW0NASF0oTzEpW0NIM10pYzJbY0hdW2NIXWMoW2NIXW4yKUMoPU8pW09IXQ==

> <s_epik_cmdline>
J2VwaWtfcHl0aG9uJywgJy1waCcsICc3LjAnLCAnLXRuJywgJzgnLCAnLW1hJywgJzIwMCcsICctbWV0YWxfYmluZGluZycsICctaW1hZScsICc8aW5maWxlLm1hZT4nLCAnLW9tYWUnLCAnPG91dGZpbGUubWFlPic=

> <r_epik_Ionization_Penalty>
0.0114922

> <r_epik_Ionization_Penalty_Charging>
0.000195896

> <r_epik_Ionization_Penalty_Neutral>
0.0112963

> <r_epik_State_Penalty>
0.00868573

> <r_epik_Charging_Adjusted_Penalty>
0.00888162

> <i_epik_Tot_Q>
-1

> <i_epik_Tot_abs_Q>
1

> <r_epik_Metal_State_Penalty>
8.74964e-06

> <b_epik_Metal_Only>
0

> <s_lp_Force_Field>
OPLS_2005

> <r_lp_Energy>
19.6652

> <b_lp_Chiralities_Consistent>
1

> <s_lp_Variant>
AV-unprocessed.smi:384-3

> <Gold.Version>
5.8.1

> <Gold.Id.Protein>
6NUR|6NUR_protein|mol2

> <Gold.PLP.Fitness>
41.6002

> <Gold.PLP.PLP>
-30.6111

> <Gold.PLP.part.hbond>
-3.0000

> <Gold.PLP.part.metal>
0.0000

> <Gold.PLP.part.buried>
-5.7444

> <Gold.PLP.part.nonpolar>
-22.8257

> <Gold.PLP.part.repulsive>
0.0975

> <Gold.PLP.ligand.clash>
0.0000

> <Gold.PLP.ligand.torsion>
0.3642

> <Gold.PLP.Chemscore.Hbond>
3.8736

> <Gold.PLP.Chemscore.CHOScore>
0.0000

> <Gold.PLP.Chemscore.Metal>
0.0000

> <Gold.Chemscore.Hbonds>
donor molecule, donor type, donor heavy atom, donor atom, acceptor molecule, acceptor atom, score
      P1  H  6896  6907       L1    10  0.50
      P1  H  7997  8008       L1    13  1.00
      P1  H 10752 10765       L1    11  2.00

> <Gold.PLP.Chemscore.Internal.Correction>
0.0965

> <Gold.Rescore>
     Score         DG    S(hbond)    S(metal)    S(lipo)     H(rot)  DE(clash)    DE(int)     intcor
     19.97     -21.71       2.64        0.00      85.09       1.00       1.52       0.21       ----

> <Gold.Chemscore.Fitness>
19.9724

> <Gold.Chemscore.DG>
-21.7074

> <Gold.Chemscore.ZeroCoef>
-5.4800

> <Gold.Chemscore.Hbond>
2.6442

> <Gold.Chemscore.Metal>
0.0000

> <Gold.Chemscore.Lipo>
85.0933

> <Gold.Chemscore.Internal_Hbond>
0.0000

> <Gold.Chemscore.DEClash>
1.5222

> <Gold.Chemscore.DEInternal>
0.2128

> <Gold.Chemscore.Rot>
1.0000

> <Gold.Chemscore.Internal.Correction>
   9.000000E+99

> <Gold.Chemscore.Hbonds>
donor molecule, donor type, donor heavy atom, donor atom, acceptor molecule, acceptor atom, score
      P1  H  6896  6907       L1    10  0.26
      P1  H  7997  8008       L1    13  0.35
      P1  H 10752 10765       L1    11  1.00

> <Gold.Chemscore.Hbond.Weighted>
-8.8315

> <Gold.Chemscore.Metal.Weighted>
-0.0000

> <Gold.Chemscore.Lipo.Weighted>
-9.9559

> <Gold.Chemscore.Internal_Hbond.Weighted>
0.0000

> <Gold.Chemscore.DEClash.Weighted>
1.5222

> <Gold.Chemscore.DEInternal.Weighted>
0.2128

> <Gold.Chemscore.Rot.Weighted>
2.5600

> <Gold.Chemscore.Internal.Correction.Weighted>
   9.000000E+99

> <Gold.Protein.RotatedTorsions>
[ 6907 6896 6895 6894 ] final  -77.01 input  -60.11 | X-H torsion
[ 7974 7965 7964 7962 ] final  162.86 input  175.53 | X-H torsion
[ 8008 7997 7996 7995 ] final  -63.87 input   59.86 | X-H torsion
[ 10167 10162 10161 10158 ] final   81.03 input  -65.29 | X-H torsion
[ 10718 10713 10712 10709 ] final    2.32 input   66.30 | X-H torsion
[ 10763 10752 10751 10750 ] final -155.27 input  -60.55 | X-H torsion
[ 11005 11000 10999 10996 ] final   54.86 input  -57.11 | X-H torsion

> <Gold.Protein.ActiveResidues>
 VAL166  LYS551  ARG553  GLY616  TRP617  ASP618  TYR619  PRO620  LYS621  CYS622 
 ASP623  PHE694  ASN695  SER759  ASP760  ASP761  ALA762  ILE779  LEU786  VAL792 
 PHE793  MET794  SER795  GLU796  ALA797  LYS798  CYS799  TRP800  GLU811  SER814 

> <Gold.Protein.RotatedAtoms>
  150.7011  134.4487  159.5325 H   0  0  0  0  0  0  0  0  0  0  0  0  # atno 6907 bound_to 6896
  152.2183  134.8434  160.0498 H   0  0  0  0  0  0  0  0  0  0  0  0  # atno 6908 bound_to 6896
  151.9293  133.3572  159.3962 H   0  0  0  0  0  0  0  0  0  0  0  0  # atno 6909 bound_to 6896
  144.7617  139.8099  143.6330 H   0  0  0  0  0  0  0  0  0  0  0  0  # atno 7974 bound_to 7965
  154.4579  140.0965  156.6810 H   0  0  0  0  0  0  0  0  0  0  0  0  # atno 8008 bound_to 7997
  155.5082  140.3475  155.4365 H   0  0  0  0  0  0  0  0  0  0  0  0  # atno 8009 bound_to 7997
  156.0814  140.1374  156.9697 H   0  0  0  0  0  0  0  0  0  0  0  0  # atno 8010 bound_to 7997
  139.9436  144.6073  150.8228 H   0  0  0  0  0  0  0  0  0  0  0  0  # atno 10167 bound_to 10162
  156.8613  130.5587  149.5663 H   0  0  0  0  0  0  0  0  0  0  0  0  # atno 10718 bound_to 10713
  154.7799  135.3171  154.8013 H   0  0  0  0  0  0  0  0  0  0  0  0  # atno 10763 bound_to 10752
  153.8727  135.6842  153.4777 H   0  0  0  0  0  0  0  0  0  0  0  0  # atno 10764 bound_to 10752
  153.1432  135.4730  154.9464 H   0  0  0  0  0  0  0  0  0  0  0  0  # atno 10765 bound_to 10752
  140.0653  134.5546  155.9106 H   0  0  0  0  0  0  0  0  0  0  0  0  # atno 11005 bound_to 11000
  146.1686  139.4827  142.9942 LP  0  0  0  0  0  0  0  0  0  0  0  0  # atno 17320 bound_to 7965
  145.6599  141.0243  143.1714 LP  0  0  0  0  0  0  0  0  0  0  0  0  # atno 17321 bound_to 7965
  140.7604  143.3150  151.2755 LP  0  0  0  0  0  0  0  0  0  0  0  0  # atno 17342 bound_to 10162
  139.6685  144.0062  152.2738 LP  0  0  0  0  0  0  0  0  0  0  0  0  # atno 17343 bound_to 10162
  156.0775  130.5794  150.9501 LP  0  0  0  0  0  0  0  0  0  0  0  0  # atno 17370 bound_to 10713
  157.6248  131.0926  150.8554 LP  0  0  0  0  0  0  0  0  0  0  0  0  # atno 17371 bound_to 10713
  141.1990  133.6604  156.5821 LP  0  0  0  0  0  0  0  0  0  0  0  0  # atno 17394 bound_to 11000
  140.3709  134.7607  157.4598 LP  0  0  0  0  0  0  0  0  0  0  0  0  # atno 17395 bound_to 11000

$$$$
