AV-unprocessed.smi:199|AV-procd|sdf|1567|dock3
  -GOLD-   2262019443D 1   1.00000     0.00000
 Structure written by MMmdl.
 51 55  0  0  0  0  0  0  0  0  1 V2000
  151.0585  140.2070  157.3846 C   0  0  0  0  0  0  0  0  0  0  0  0
  151.3869  140.1069  155.8869 C   0  0  1  0  0  0  0  0  0  0  0  0
  152.5698  139.3212  155.7606 O   0  0  0  0  0  0  0  0  0  0  0  0
  152.5187  138.6011  154.5417 C   0  0  0  0  0  0  0  0  0  0  0  0
  151.0575  138.1866  154.4671 C   0  0  0  0  0  0  0  0  0  0  0  0
  150.3238  139.4219  154.9815 C   0  0  2  0  0  0  0  0  0  0  0  0
  150.0884  140.2791  153.8763 O   0  0  0  0  0  0  0  0  0  0  0  0
  148.9546  139.1046  155.6395 C   0  0  0  0  0  0  0  0  0  0  0  0
  148.0331  138.4113  154.7514 N   0  0  0  0  0  0  0  0  0  0  0  0
  147.4154  138.9321  153.6383 C   0  0  0  0  0  0  0  0  0  0  0  0
  146.6309  138.1068  153.0025 N   0  0  0  0  0  0  0  0  0  0  0  0
  146.7080  136.9229  153.7278 C   0  0  0  0  0  0  0  0  0  0  0  0
  146.1244  135.6263  153.5999 C   0  0  0  0  0  0  0  0  0  0  0  0
  145.2688  135.2468  152.6097 N   0  0  0  0  0  0  0  0  0  0  0  0
  145.6970  135.1465  151.2218 C   0  0  2  0  0  0  0  0  0  0  0  0
  144.3721  134.8800  150.4872 C   0  0  0  0  0  0  0  0  0  0  0  0
  143.6215  134.0258  151.5185 C   0  0  0  0  0  0  0  0  0  0  0  0
  144.6698  133.9183  152.6416 C   0  0  1  0  0  0  0  0  0  0  0  0
  145.8467  132.9921  152.2375 C   0  0  1  0  0  0  0  0  0  0  0  0
  145.4718  131.5727  151.7731 C   0  0  0  0  0  0  0  0  0  0  0  0
  146.5875  130.7162  151.8939 O   0  0  0  0  0  0  0  0  0  0  0  0
  146.5535  133.8644  151.1819 C   0  0  0  0  0  0  0  0  0  0  0  0
  146.4349  134.7111  154.5560 N   0  0  0  0  0  0  0  0  0  0  0  0
  147.2675  135.0214  155.5524 C   0  0  0  0  0  0  0  0  0  0  0  0
  147.8914  136.1757  155.7870 N   0  0  0  0  0  0  0  0  0  0  0  0
  147.5795  137.1066  154.8411 C   0  0  0  0  0  0  0  0  0  0  0  0
  150.1647  140.8060  157.5587 H   0  0  0  0  0  0  0  0  0  0  0  0
  151.8778  140.6814  157.9252 H   0  0  0  0  0  0  0  0  0  0  0  0
  150.9033  139.2226  157.8268 H   0  0  0  0  0  0  0  0  0  0  0  0
  151.6138  141.1088  155.5174 H   0  0  0  0  0  0  0  0  0  0  0  0
  152.7874  139.2567  153.7119 H   0  0  0  0  0  0  0  0  0  0  0  0
  153.1997  137.7500  154.5477 H   0  0  0  0  0  0  0  0  0  0  0  0
  150.7480  137.8708  153.4698 H   0  0  0  0  0  0  0  0  0  0  0  0
  150.9006  137.3475  155.1457 H   0  0  0  0  0  0  0  0  0  0  0  0
  149.9037  139.7462  153.1182 H   0  0  0  0  0  0  0  0  0  0  0  0
  149.0900  138.4843  156.5257 H   0  0  0  0  0  0  0  0  0  0  0  0
  148.4720  140.0230  155.9771 H   0  0  0  0  0  0  0  0  0  0  0  0
  147.5698  139.9487  153.3072 H   0  0  0  0  0  0  0  0  0  0  0  0
  146.2029  136.0205  150.8168 H   0  0  0  0  0  0  0  0  0  0  0  0
  143.8359  135.8108  150.2984 H   0  0  0  0  0  0  0  0  0  0  0  0
  144.5136  134.3699  149.5336 H   0  0  0  0  0  0  0  0  0  0  0  0
  142.7385  134.5579  151.8745 H   0  0  0  0  0  0  0  0  0  0  0  0
  143.2876  133.0660  151.1269 H   0  0  0  0  0  0  0  0  0  0  0  0
  144.2187  133.6443  153.5961 H   0  0  0  0  0  0  0  0  0  0  0  0
  146.5034  132.8951  153.1042 H   0  0  0  0  0  0  0  0  0  0  0  0
  144.6610  131.1754  152.3844 H   0  0  0  0  0  0  0  0  0  0  0  0
  145.1384  131.5615  150.7358 H   0  0  0  0  0  0  0  0  0  0  0  0
  147.3087  131.0939  151.4139 H   0  0  0  0  0  0  0  0  0  0  0  0
  146.5765  133.4131  150.1893 H   0  0  0  0  0  0  0  0  0  0  0  0
  147.5826  134.0676  151.4804 H   0  0  0  0  0  0  0  0  0  0  0  0
  147.4607  134.2316  156.2631 H   0  0  0  0  0  0  0  0  0  0  0  0
  1  2  1  0  0  0  0
  1 27  1  0  0  0  0
  1 28  1  0  0  0  0
  1 29  1  0  0  0  0
  2  6  1  0  0  0  0
  2  3  1  0  0  0  0
  2 30  1  0  0  0  0
  3  4  1  0  0  0  0
  4  5  1  0  0  0  0
  4 31  1  0  0  0  0
  4 32  1  0  0  0  0
  5  6  1  0  0  0  0
  5 33  1  0  0  0  0
  5 34  1  0  0  0  0
  6  7  1  0  0  0  0
  6  8  1  0  0  0  0
  7 35  1  0  0  0  0
  8  9  1  0  0  0  0
  8 36  1  0  0  0  0
  8 37  1  0  0  0  0
  9 26  1  0  0  0  0
  9 10  1  0  0  0  0
 10 11  2  0  0  0  0
 10 38  1  0  0  0  0
 11 12  1  0  0  0  0
 12 26  2  0  0  0  0
 12 13  1  0  0  0  0
 13 14  1  0  0  0  0
 13 23  2  0  0  0  0
 14 18  1  0  0  0  0
 14 15  1  0  0  0  0
 15 22  1  0  0  0  0
 15 16  1  0  0  0  0
 15 39  1  0  0  0  0
 16 17  1  0  0  0  0
 16 40  1  0  0  0  0
 16 41  1  0  0  0  0
 17 18  1  0  0  0  0
 17 42  1  0  0  0  0
 17 43  1  0  0  0  0
 18 19  1  0  0  0  0
 18 44  1  0  0  0  0
 19 20  1  0  0  0  0
 19 22  1  0  0  0  0
 19 45  1  0  0  0  0
 20 21  1  0  0  0  0
 20 46  1  0  0  0  0
 20 47  1  0  0  0  0
 21 48  1  0  0  0  0
 22 49  1  0  0  0  0
 22 50  1  0  0  0  0
 23 24  1  0  0  0  0
 24 25  2  0  0  0  0
 24 51  1  0  0  0  0
 25 26  1  0  0  0  0
M  END
> <s_m_source_file>
AV-unprocessed.smi

> <i_m_source_file_index>
199

> <i_lp_mmshare_version>
43012

> <i_f3d_flags>
0

> <s_epik_input>
W0NIMl0xW0NIMl1PW0NAQEhdKFtDSDNdKVtDQEBdMShbT0hdKVtDSDJdbihbY0hdbjIpYyhjMjMpbltjSF1uYzNOKFtDQEBIXTQ1KVtDQEhdKFtDSDJdW0NIMl00KVtDQEhdKFtDSDJdNSlbQ0gyXVtPSF0=

> <s_epik_cmdline>
J2VwaWtfcHl0aG9uJywgJy1waCcsICc3LjAnLCAnLXRuJywgJzgnLCAnLW1hJywgJzIwMCcsICctbWV0YWxfYmluZGluZycsICctaW1hZScsICc8aW5maWxlLm1hZT4nLCAnLW9tYWUnLCAnPG91dGZpbGUubWFlPic=

> <r_lp_tautomer_probability>
1

> <r_epik_Ionization_Penalty>
0.00583903

> <r_epik_Ionization_Penalty_Charging>
0

> <r_epik_Ionization_Penalty_Neutral>
0.00583903

> <r_epik_State_Penalty>
-0

> <r_epik_Charging_Adjusted_Penalty>
0

> <i_epik_Tot_Q>
0

> <i_epik_Tot_abs_Q>
0

> <r_epik_Metal_State_Penalty>
-0

> <b_epik_Metal_Only>
0

> <s_lp_Force_Field>
OPLS_2005

> <r_lp_Energy>
84.1045

> <b_lp_Chiralities_Consistent>
1

> <s_lp_Variant>
AV-unprocessed.smi:199-8

> <Gold.Version>
5.8.1

> <Gold.Id.Protein>
6NUR|6NUR_protein|mol2

> <Gold.PLP.Fitness>
45.5555

> <Gold.PLP.PLP>
-35.6900

> <Gold.PLP.part.hbond>
-3.9176

> <Gold.PLP.part.metal>
0.0000

> <Gold.PLP.part.buried>
-6.0383

> <Gold.PLP.part.nonpolar>
-26.7229

> <Gold.PLP.part.repulsive>
0.4468

> <Gold.PLP.ligand.clash>
0.0000

> <Gold.PLP.ligand.torsion>
0.3455

> <Gold.PLP.Chemscore.Hbond>
3.4960

> <Gold.PLP.Chemscore.CHOScore>
0.0000

> <Gold.PLP.Chemscore.Metal>
0.0000

> <Gold.Chemscore.Hbonds>
donor molecule, donor type, donor heavy atom, donor atom, acceptor molecule, acceptor atom, score
      L1  H     7    35       P1  7957  0.74
      L1  H    21    48       P1 10747  0.98
      P1  H  7989  7998       L1     7  0.78
      P1  H  7997  8010       L1     3  1.00

> <Gold.PLP.Chemscore.Internal.Correction>
0.0685

> <Gold.Rescore>
     Score         DG    S(hbond)    S(metal)    S(lipo)     H(rot)  DE(clash)    DE(int)     intcor
     13.34     -15.91       2.81        0.00      76.01       3.07       0.21       2.36       ----

> <Gold.Chemscore.Fitness>
13.3371

> <Gold.Chemscore.DG>
-15.9072

> <Gold.Chemscore.ZeroCoef>
-5.4800

> <Gold.Chemscore.Hbond>
2.8147

> <Gold.Chemscore.Metal>
0.0000

> <Gold.Chemscore.Lipo>
76.0076

> <Gold.Chemscore.Internal_Hbond>
0.0000

> <Gold.Chemscore.DEClash>
0.2085

> <Gold.Chemscore.DEInternal>
2.3617

> <Gold.Chemscore.Rot>
3.0729

> <Gold.Chemscore.Internal.Correction>
   9.000000E+99

> <Gold.Chemscore.Hbonds>
donor molecule, donor type, donor heavy atom, donor atom, acceptor molecule, acceptor atom, score
      L1  H     7    35       P1  7957  0.71
      L1  H    21    48       P1 10747  0.86
      P1  H  7989  7998       L1     7  0.10
      P1  H  7997  8010       L1     3  0.84

> <Gold.Chemscore.Hbond.Weighted>
-9.4011

> <Gold.Chemscore.Metal.Weighted>
-0.0000

> <Gold.Chemscore.Lipo.Weighted>
-8.8929

> <Gold.Chemscore.Internal_Hbond.Weighted>
0.0000

> <Gold.Chemscore.DEClash.Weighted>
0.2085

> <Gold.Chemscore.DEInternal.Weighted>
2.3617

> <Gold.Chemscore.Rot.Weighted>
7.8667

> <Gold.Chemscore.Internal.Correction.Weighted>
   9.000000E+99

> <Gold.Protein.RotatedTorsions>
[ 6907 6896 6895 6894 ] final  124.79 input  -60.11 | X-H torsion
[ 7974 7965 7964 7962 ] final  -38.21 input  175.53 | X-H torsion
[ 8008 7997 7996 7995 ] final   86.31 input   59.86 | X-H torsion
[ 10167 10162 10161 10158 ] final  139.64 input  -65.29 | X-H torsion
[ 10718 10713 10712 10709 ] final  113.08 input   66.30 | X-H torsion
[ 10763 10752 10751 10750 ] final -168.23 input  -60.55 | X-H torsion
[ 11005 11000 10999 10996 ] final   96.67 input  -57.11 | X-H torsion

> <Gold.Protein.ActiveResidues>
 VAL166  LYS551  ARG553  GLY616  TRP617  ASP618  TYR619  PRO620  LYS621  CYS622 
 ASP623  PHE694  ASN695  SER759  ASP760  ASP761  ALA762  ILE779  LEU786  VAL792 
 PHE793  MET794  SER795  GLU796  ALA797  LYS798  CYS799  TRP800  GLU811  SER814 

> <Gold.Protein.RotatedAtoms>
  152.4048  133.6872  159.6346 H   0  0  0  0  0  0  0  0  0  0  0  0  # atno 6907 bound_to 6896
  150.7934  133.8728  159.3272 H   0  0  0  0  0  0  0  0  0  0  0  0  # atno 6908 bound_to 6896
  151.6485  135.1006  160.0207 H   0  0  0  0  0  0  0  0  0  0  0  0  # atno 6909 bound_to 6896
  146.0506  140.6486  142.9043 H   0  0  0  0  0  0  0  0  0  0  0  0  # atno 7974 bound_to 7965
  155.9612  140.3393  155.6492 H   0  0  0  0  0  0  0  0  0  0  0  0  # atno 8008 bound_to 7997
  155.6796  140.0736  157.2508 H   0  0  0  0  0  0  0  0  0  0  0  0  # atno 8009 bound_to 7997
  154.4143  140.1677  156.1955 H   0  0  0  0  0  0  0  0  0  0  0  0  # atno 8010 bound_to 7997
  139.5072  144.6282  151.5883 H   0  0  0  0  0  0  0  0  0  0  0  0  # atno 10167 bound_to 10162
  157.6358  131.0978  150.6988 H   0  0  0  0  0  0  0  0  0  0  0  0  # atno 10718 bound_to 10713
  154.6650  135.2930  154.9817 H   0  0  0  0  0  0  0  0  0  0  0  0  # atno 10763 bound_to 10752
  154.0864  135.6597  153.4849 H   0  0  0  0  0  0  0  0  0  0  0  0  # atno 10764 bound_to 10752
  153.0452  135.5209  154.7619 H   0  0  0  0  0  0  0  0  0  0  0  0  # atno 10765 bound_to 10752
  139.8780  134.8963  156.4194 H   0  0  0  0  0  0  0  0  0  0  0  0  # atno 11005 bound_to 11000
  144.7121  140.4076  143.7073 LP  0  0  0  0  0  0  0  0  0  0  0  0  # atno 17320 bound_to 7965
  145.6730  139.1603  143.2744 LP  0  0  0  0  0  0  0  0  0  0  0  0  # atno 17321 bound_to 7965
  140.6006  143.9616  150.6384 LP  0  0  0  0  0  0  0  0  0  0  0  0  # atno 17342 bound_to 10162
  140.2826  143.3378  152.1136 LP  0  0  0  0  0  0  0  0  0  0  0  0  # atno 17343 bound_to 10162
  156.7320  130.4712  149.5497 LP  0  0  0  0  0  0  0  0  0  0  0  0  # atno 17370 bound_to 10713
  156.1596  130.6365  151.0702 LP  0  0  0  0  0  0  0  0  0  0  0  0  # atno 17371 bound_to 10713
  140.9144  133.7688  155.9831 LP  0  0  0  0  0  0  0  0  0  0  0  0  # atno 17394 bound_to 11000
  140.8510  134.2954  157.5275 LP  0  0  0  0  0  0  0  0  0  0  0  0  # atno 17395 bound_to 11000

$$$$
