AV-unprocessed.smi:99|AV-procd|sdf|890|dock9
  -GOLD-   2262017373D 1   1.00000     0.00000
 Structure written by MMmdl.
 52 55  0  0  0  0  0  0  0  0  2 V2000
  150.5621  129.9328  154.5954 O   0  0  0  0  0  0  0  0  0  0  0  0
  149.5001  130.3470  154.1267 C   0  0  0  0  0  0  0  0  0  0  0  0
  148.9366  131.5166  154.4758 O   0  0  0  0  0  0  0  0  0  0  0  0
  149.5808  132.3833  155.3959 C   0  0  0  0  0  0  0  0  0  0  0  0
  148.7136  133.6284  155.6269 C   0  0  1  0  0  0  0  0  0  0  0  0
  149.1826  134.3643  156.7448 O   0  0  0  0  0  0  0  0  0  0  0  0
  148.8274  135.7067  156.6058 C   0  0  1  0  0  0  0  0  0  0  0  0
  150.0280  136.5543  156.9729 N   0  0  0  0  0  0  0  0  0  0  0  0
  149.9292  137.5105  157.9689 C   0  0  0  0  0  0  0  0  0  0  0  0
  150.9855  138.2715  158.3205 C   0  0  0  0  0  0  0  0  0  0  0  0
  152.2619  138.0828  157.6367 C   0  0  0  0  0  0  0  0  0  0  0  0
  153.2175  138.7882  157.9542 O   0  0  0  0  0  0  0  0  0  0  0  0
  152.3378  137.1230  156.6695 N   0  5  0  0  0  0  0  0  0  0  0  0
  151.2722  136.3450  156.3189 C   0  0  0  0  0  0  0  0  0  0  0  0
  151.3382  135.4559  155.4697 O   0  0  0  0  0  0  0  0  0  0  0  0
  148.3466  135.9389  155.1529 C   0  0  1  0  0  0  0  0  0  0  0  0
  148.9781  137.0151  154.4836 O   0  0  0  0  0  0  0  0  0  0  0  0
  148.6880  134.6238  154.4663 C   0  0  2  0  0  0  0  0  0  0  0  0
  147.6691  134.2505  153.5475 O   0  0  0  0  0  0  0  0  0  0  0  0
  146.3762  134.1991  153.9323 C   0  0  0  0  0  0  0  0  0  0  0  0
  145.9763  134.5489  155.0444 O   0  0  0  0  0  0  0  0  0  0  0  0
  145.4763  133.6759  152.8642 C   0  0  0  0  0  0  0  0  0  0  0  0
  144.1059  134.0260  152.8797 C   0  0  0  0  0  0  0  0  0  0  0  0
  143.2320  133.5476  151.8842 C   0  0  0  0  0  0  0  0  0  0  0  0
  143.7172  132.7121  150.8616 C   0  0  0  0  0  0  0  0  0  0  0  0
  145.0782  132.3556  150.8354 C   0  0  0  0  0  0  0  0  0  0  0  0
  145.9541  132.8338  151.8296 C   0  0  0  0  0  0  0  0  0  0  0  0
  148.7042  129.6089  153.1040 C   0  0  0  0  0  0  0  0  0  0  0  0
  149.2726  128.4845  152.4617 C   0  0  0  0  0  0  0  0  0  0  0  0
  148.5462  127.7722  151.4876 C   0  0  0  0  0  0  0  0  0  0  0  0
  147.2423  128.1752  151.1446 C   0  0  0  0  0  0  0  0  0  0  0  0
  146.6643  129.2902  151.7789 C   0  0  0  0  0  0  0  0  0  0  0  0
  147.3883  130.0024  152.7545 C   0  0  0  0  0  0  0  0  0  0  0  0
  149.7348  131.8552  156.3377 H   0  0  0  0  0  0  0  0  0  0  0  0
  150.5613  132.6779  155.0197 H   0  0  0  0  0  0  0  0  0  0  0  0
  147.6937  133.3203  155.8640 H   0  0  0  0  0  0  0  0  0  0  0  0
  148.0552  135.9221  157.3452 H   0  0  0  0  0  0  0  0  0  0  0  0
  148.9920  137.6537  158.4830 H   0  0  0  0  0  0  0  0  0  0  0  0
  150.8893  139.0114  159.1014 H   0  0  0  0  0  0  0  0  0  0  0  0
  147.2677  136.0986  155.1810 H   0  0  0  0  0  0  0  0  0  0  0  0
  148.6956  137.0104  153.5811 H   0  0  0  0  0  0  0  0  0  0  0  0
  149.6764  134.6836  154.0084 H   0  0  0  0  0  0  0  0  0  0  0  0
  143.7097  134.6660  153.6549 H   0  0  0  0  0  0  0  0  0  0  0  0
  142.1876  133.8226  151.9060 H   0  0  0  0  0  0  0  0  0  0  0  0
  143.0466  132.3452  150.0986 H   0  0  0  0  0  0  0  0  0  0  0  0
  145.4518  131.7138  150.0511 H   0  0  0  0  0  0  0  0  0  0  0  0
  146.9925  132.5405  151.7797 H   0  0  0  0  0  0  0  0  0  0  0  0
  150.2730  128.1579  152.7066 H   0  0  0  0  0  0  0  0  0  0  0  0
  148.9913  126.9159  151.0024 H   0  0  0  0  0  0  0  0  0  0  0  0
  146.6860  127.6294  150.3970 H   0  0  0  0  0  0  0  0  0  0  0  0
  145.6630  129.6001  151.5186 H   0  0  0  0  0  0  0  0  0  0  0  0
  146.9110  130.8490  153.2255 H   0  0  0  0  0  0  0  0  0  0  0  0
  1  2  2  0  0  0  0
  2  3  1  0  0  0  0
  2 28  1  0  0  0  0
  3  4  1  0  0  0  0
  4  5  1  0  0  0  0
  4 34  1  0  0  0  0
  4 35  1  0  0  0  0
  5 18  1  0  0  0  0
  5  6  1  0  0  0  0
  5 36  1  0  0  0  0
  6  7  1  0  0  0  0
  7  8  1  0  0  0  0
  7 16  1  0  0  0  0
  7 37  1  0  0  0  0
  8 14  1  0  0  0  0
  8  9  1  0  0  0  0
  9 10  2  0  0  0  0
  9 38  1  0  0  0  0
 10 11  1  0  0  0  0
 10 39  1  0  0  0  0
 11 12  2  0  0  0  0
 11 13  1  0  0  0  0
 13 14  1  0  0  0  0
 14 15  2  0  0  0  0
 16 17  1  0  0  0  0
 16 18  1  0  0  0  0
 16 40  1  0  0  0  0
 17 41  1  0  0  0  0
 18 19  1  0  0  0  0
 18 42  1  0  0  0  0
 19 20  1  0  0  0  0
 20 21  2  0  0  0  0
 20 22  1  0  0  0  0
 22 27  1  0  0  0  0
 22 23  2  0  0  0  0
 23 24  1  0  0  0  0
 23 43  1  0  0  0  0
 24 25  2  0  0  0  0
 24 44  1  0  0  0  0
 25 26  1  0  0  0  0
 25 45  1  0  0  0  0
 26 27  2  0  0  0  0
 26 46  1  0  0  0  0
 27 47  1  0  0  0  0
 28 33  1  0  0  0  0
 28 29  2  0  0  0  0
 29 30  1  0  0  0  0
 29 48  1  0  0  0  0
 30 31  2  0  0  0  0
 30 49  1  0  0  0  0
 31 32  1  0  0  0  0
 31 50  1  0  0  0  0
 32 33  2  0  0  0  0
 32 51  1  0  0  0  0
 33 52  1  0  0  0  0
M  CHG  1  13  -1
M  END
> <s_m_source_file>
AV-unprocessed.smi

> <i_m_source_file_index>
99

> <i_lp_mmshare_version>
43012

> <i_f3d_flags>
0

> <s_epik_input>
W2NIXTFbY0hdW2NIXVtjSF1bY0hdYzFDKD1PKU9bQ0gyXVtDQEBIXTJPW0NAQEhdKG4zW2NIXVtjSF1jKD1PKVtuSF1jMz1PKVtDQEBIXShbT0hdKVtDQEhdMk9DKD1PKWM0W2NIXVtjSF1bY0hdW2NIXVtjSF00

> <s_epik_cmdline>
J2VwaWtfcHl0aG9uJywgJy1waCcsICc3LjAnLCAnLXRuJywgJzgnLCAnLW1hJywgJzIwMCcsICctbWV0YWxfYmluZGluZycsICctaW1hZScsICc8aW5maWxlLm1hZT4nLCAnLW9tYWUnLCAnPG91dGZpbGUubWFlPic=

> <r_lp_tautomer_probability>
1

> <r_epik_Ionization_Penalty>
2.89159

> <r_epik_Ionization_Penalty_Charging>
2.1077e-08

> <r_epik_Ionization_Penalty_Neutral>
2.89159

> <r_epik_State_Penalty>
2.88671

> <r_epik_Charging_Adjusted_Penalty>
2.88671

> <i_epik_Tot_Q>
-1

> <i_epik_Tot_abs_Q>
1

> <r_epik_Metal_State_Penalty>
0.0727308

> <b_epik_Metal_Only>
1

> <s_epik_Chemistry_Notes>
This compound has an ester and may undergo hydrolysis at high or low pH. This compound contains an acetal/aminal-like group ( X-CH(R)-Y where X, Y are N, S, or O) that may be acid/base labile, releasing an aldehyde.

> <s_lp_Force_Field>
OPLS_2005

> <r_lp_Energy>
45.1404

> <b_lp_Chiralities_Consistent>
1

> <s_lp_Variant>
AV-unprocessed.smi:99-26

> <Gold.Version>
5.8.1

> <Gold.Id.Protein>
6NUR|6NUR_protein|mol2

> <Gold.PLP.Fitness>
48.4435

> <Gold.PLP.PLP>
-40.0285

> <Gold.PLP.part.hbond>
-3.3872

> <Gold.PLP.part.metal>
0.0000

> <Gold.PLP.part.buried>
-5.2908

> <Gold.PLP.part.nonpolar>
-32.9835

> <Gold.PLP.part.repulsive>
2.0595

> <Gold.PLP.ligand.clash>
0.0016

> <Gold.PLP.ligand.torsion>
0.4803

> <Gold.PLP.Chemscore.Hbond>
2.9913

> <Gold.PLP.Chemscore.CHOScore>
0.0000

> <Gold.PLP.Chemscore.Metal>
0.0000

> <Gold.Chemscore.Hbonds>
donor molecule, donor type, donor heavy atom, donor atom, acceptor molecule, acceptor atom, score
      L1  H    17    41       P1  7948  0.90
      P1  H  7997  8008       L1    12  0.84
      P1  H 10752 10763       L1    15  1.00

> <Gold.PLP.Chemscore.Internal.Correction>
0.4035

> <Gold.Rescore>
     Score         DG    S(hbond)    S(metal)    S(lipo)     H(rot)  DE(clash)    DE(int)     intcor
     10.28     -18.21       2.77        0.00      98.29       3.13       1.82       6.11       ----

> <Gold.Chemscore.Fitness>
10.2802

> <Gold.Chemscore.DG>
-18.2138

> <Gold.Chemscore.ZeroCoef>
-5.4800

> <Gold.Chemscore.Hbond>
2.7720

> <Gold.Chemscore.Metal>
0.0000

> <Gold.Chemscore.Lipo>
98.2882

> <Gold.Chemscore.Internal_Hbond>
0.0000

> <Gold.Chemscore.DEClash>
1.8204

> <Gold.Chemscore.DEInternal>
6.1132

> <Gold.Chemscore.Rot>
3.1346

> <Gold.Chemscore.Internal.Correction>
   9.000000E+99

> <Gold.Chemscore.Hbonds>
donor molecule, donor type, donor heavy atom, donor atom, acceptor molecule, acceptor atom, score
      L1  H    17    41       P1  7948  0.88
      P1  H  7997  8008       L1    12  0.82
      P1  H 10752 10763       L1    15  0.60

> <Gold.Chemscore.Hbond.Weighted>
-9.2586

> <Gold.Chemscore.Metal.Weighted>
-0.0000

> <Gold.Chemscore.Lipo.Weighted>
-11.4997

> <Gold.Chemscore.Internal_Hbond.Weighted>
0.0000

> <Gold.Chemscore.DEClash.Weighted>
1.8204

> <Gold.Chemscore.DEInternal.Weighted>
6.1132

> <Gold.Chemscore.Rot.Weighted>
8.0246

> <Gold.Chemscore.Internal.Correction.Weighted>
   9.000000E+99

> <Gold.Protein.RotatedTorsions>
[ 6907 6896 6895 6894 ] final  157.76 input  -60.11 | X-H torsion
[ 7974 7965 7964 7962 ] final   53.96 input  175.53 | X-H torsion
[ 8008 7997 7996 7995 ] final  -93.84 input   59.86 | X-H torsion
[ 10167 10162 10161 10158 ] final    1.67 input  -65.29 | X-H torsion
[ 10718 10713 10712 10709 ] final  -16.71 input   66.30 | X-H torsion
[ 10763 10752 10751 10750 ] final   69.52 input  -60.55 | X-H torsion
[ 11005 11000 10999 10996 ] final  164.51 input  -57.11 | X-H torsion

> <Gold.Protein.ActiveResidues>
 VAL166  LYS551  ARG553  GLY616  TRP617  ASP618  TYR619  PRO620  LYS621  CYS622 
 ASP623  PHE694  ASN695  SER759  ASP760  ASP761  ALA762  ILE779  LEU786  VAL792 
 PHE793  MET794  SER795  GLU796  ALA797  LYS798  CYS799  TRP800  GLU811  SER814 

> <Gold.Protein.RotatedAtoms>
  152.0104  133.3859  159.4217 H   0  0  0  0  0  0  0  0  0  0  0  0  # atno 6907 bound_to 6896
  150.6900  134.3736  159.5012 H   0  0  0  0  0  0  0  0  0  0  0  0  # atno 6908 bound_to 6896
  152.1496  134.8998  160.0599 H   0  0  0  0  0  0  0  0  0  0  0  0  # atno 6909 bound_to 6896
  145.9658  139.4102  143.0220 H   0  0  0  0  0  0  0  0  0  0  0  0  # atno 7974 bound_to 7965
  154.7408  140.0495  157.0809 H   0  0  0  0  0  0  0  0  0  0  0  0  # atno 8008 bound_to 7997
  155.0181  140.3144  155.4785 H   0  0  0  0  0  0  0  0  0  0  0  0  # atno 8009 bound_to 7997
  156.2864  140.2172  156.5298 H   0  0  0  0  0  0  0  0  0  0  0  0  # atno 8010 bound_to 7997
  140.6672  143.7148  150.7850 H   0  0  0  0  0  0  0  0  0  0  0  0  # atno 10167 bound_to 10162
  156.5838  130.4781  149.6309 H   0  0  0  0  0  0  0  0  0  0  0  0  # atno 10718 bound_to 10713
  153.0291  135.5208  154.7300 H   0  0  0  0  0  0  0  0  0  0  0  0  # atno 10763 bound_to 10752
  154.6331  135.2903  155.0196 H   0  0  0  0  0  0  0  0  0  0  0  0  # atno 10764 bound_to 10752
  154.1140  135.6617  153.4943 H   0  0  0  0  0  0  0  0  0  0  0  0  # atno 10765 bound_to 10752
  140.2466  134.8009  157.3462 H   0  0  0  0  0  0  0  0  0  0  0  0  # atno 11005 bound_to 11000
  145.7976  140.9786  143.1016 LP  0  0  0  0  0  0  0  0  0  0  0  0  # atno 17320 bound_to 7965
  144.6825  139.9761  143.7483 LP  0  0  0  0  0  0  0  0  0  0  0  0  # atno 17321 bound_to 7965
  140.0827  143.4953  152.2521 LP  0  0  0  0  0  0  0  0  0  0  0  0  # atno 17342 bound_to 10162
  139.5925  144.7555  151.3366 LP  0  0  0  0  0  0  0  0  0  0  0  0  # atno 17343 bound_to 10162
  156.2609  130.6961  151.1729 LP  0  0  0  0  0  0  0  0  0  0  0  0  # atno 17370 bound_to 10713
  157.7320  131.0603  150.5649 LP  0  0  0  0  0  0  0  0  0  0  0  0  # atno 17371 bound_to 10713
  140.1599  134.4741  155.7901 LP  0  0  0  0  0  0  0  0  0  0  0  0  # atno 17394 bound_to 11000
  141.2205  133.6897  156.7527 LP  0  0  0  0  0  0  0  0  0  0  0  0  # atno 17395 bound_to 11000

$$$$
