AV-unprocessed.smi:1379|AV-procd|sdf|5598|dock2
  -GOLD-   22720 5203D 1   1.00000     0.00000
 Structure written by MMmdl.
 34 35  0  0  0  0  0  0  0  0  1 V2000
  149.9985  135.2418  155.0870 C   0  0  0  0  0  0  0  0  0  0  0  0
  150.9868  136.2379  155.2806 O   0  0  0  0  0  0  0  0  0  0  0  0
  150.7682  137.3848  154.4730 C   0  0  0  0  0  0  0  0  0  0  0  0
  151.0776  138.6500  155.2763 C   0  0  0  0  0  0  0  0  0  0  0  0
  150.9577  139.7589  154.7550 O   0  0  0  0  0  0  0  0  0  0  0  0
  151.4937  138.4383  156.5383 N   0  0  0  0  0  0  0  0  0  0  0  0
  151.8577  139.3922  157.5275 C   0  0  0  0  0  0  0  0  0  0  0  0
  152.5613  139.0831  158.7159 C   0  0  0  0  0  0  0  0  0  0  0  0
  152.8767  140.1237  159.6104 C   0  0  0  0  0  0  0  0  0  0  0  0
  152.4915  141.4411  159.2886 C   0  0  0  0  0  0  0  0  0  0  0  0
  152.8043  142.4737  160.1856 N   0  0  0  0  0  0  0  0  0  0  0  0
  151.9792  143.6667  160.0888 C   0  0  0  0  0  0  0  0  0  0  0  0
  152.2507  144.4526  161.3739 C   0  0  0  0  0  0  0  0  0  0  0  0
  152.7673  143.4078  162.3708 C   0  0  0  0  0  0  0  0  0  0  0  0
  152.7874  142.0920  161.5877 C   0  0  0  0  0  0  0  0  0  0  0  0
  151.8297  141.7456  158.1467 N   0  0  0  0  0  0  0  0  0  0  0  0
  151.5290  140.7436  157.2938 C   0  0  0  0  0  0  0  0  0  0  0  0
  150.2077  134.3882  155.7314 H   0  0  0  0  0  0  0  0  0  0  0  0
  149.9904  134.8905  154.0546 H   0  0  0  0  0  0  0  0  0  0  0  0
  149.0055  135.6174  155.3374 H   0  0  0  0  0  0  0  0  0  0  0  0
  151.4084  137.3533  153.5897 H   0  0  0  0  0  0  0  0  0  0  0  0
  149.7304  137.4182  154.1373 H   0  0  0  0  0  0  0  0  0  0  0  0
  151.6190  137.4720  156.8037 H   0  0  0  0  0  0  0  0  0  0  0  0
  152.8761  138.0794  158.9542 H   0  0  0  0  0  0  0  0  0  0  0  0
  153.4108  139.9119  160.5253 H   0  0  0  0  0  0  0  0  0  0  0  0
  152.2315  144.2481  159.2015 H   0  0  0  0  0  0  0  0  0  0  0  0
  150.9226  143.4017  160.0293 H   0  0  0  0  0  0  0  0  0  0  0  0
  153.0175  145.2086  161.2001 H   0  0  0  0  0  0  0  0  0  0  0  0
  151.3554  144.9624  161.7310 H   0  0  0  0  0  0  0  0  0  0  0  0
  153.7738  143.6720  162.6976 H   0  0  0  0  0  0  0  0  0  0  0  0
  152.1379  143.3346  163.2581 H   0  0  0  0  0  0  0  0  0  0  0  0
  151.8944  141.5071  161.8130 H   0  0  0  0  0  0  0  0  0  0  0  0
  153.6583  141.4867  161.8409 H   0  0  0  0  0  0  0  0  0  0  0  0
  151.0026  141.0320  156.3955 H   0  0  0  0  0  0  0  0  0  0  0  0
  1  2  1  0  0  0  0
  1 18  1  0  0  0  0
  1 19  1  0  0  0  0
  1 20  1  0  0  0  0
  2  3  1  0  0  0  0
  3  4  1  0  0  0  0
  3 21  1  0  0  0  0
  3 22  1  0  0  0  0
  4  5  2  0  0  0  0
  4  6  1  0  0  0  0
  6  7  1  0  0  0  0
  6 23  1  0  0  0  0
  7 17  1  0  0  0  0
  7  8  2  0  0  0  0
  8  9  1  0  0  0  0
  8 24  1  0  0  0  0
  9 10  2  0  0  0  0
  9 25  1  0  0  0  0
 10 11  1  0  0  0  0
 10 16  1  0  0  0  0
 11 15  1  0  0  0  0
 11 12  1  0  0  0  0
 12 13  1  0  0  0  0
 12 26  1  0  0  0  0
 12 27  1  0  0  0  0
 13 14  1  0  0  0  0
 13 28  1  0  0  0  0
 13 29  1  0  0  0  0
 14 15  1  0  0  0  0
 14 30  1  0  0  0  0
 14 31  1  0  0  0  0
 15 32  1  0  0  0  0
 15 33  1  0  0  0  0
 16 17  2  0  0  0  0
 17 34  1  0  0  0  0
M  END
> <s_m_source_file>
AV-unprocessed.smi

> <i_m_source_file_index>
1379

> <i_lp_mmshare_version>
43012

> <i_f3d_flags>
0

> <s_epik_input>
W0NIM11PW0NIMl1DKD1PKVtOSF1jMVtjSF1bY0hdYyhuW2NIXTEpTjJbQ0gyXVtDSDJdW0NIMl1bQ0gyXTI=

> <s_epik_cmdline>
J2VwaWtfcHl0aG9uJywgJy1waCcsICc3LjAnLCAnLXRuJywgJzgnLCAnLW1hJywgJzIwMCcsICctbWV0YWxfYmluZGluZycsICctaW1hZScsICc8aW5maWxlLm1hZT4nLCAnLW9tYWUnLCAnPG91dGZpbGUubWFlPic=

> <r_lp_tautomer_probability>
1

> <r_epik_Ionization_Penalty>
0.0264378

> <r_epik_Ionization_Penalty_Charging>
0

> <r_epik_Ionization_Penalty_Neutral>
0.0264378

> <r_epik_State_Penalty>
0.0211097

> <r_epik_Charging_Adjusted_Penalty>
0.0211097

> <i_epik_Tot_Q>
0

> <i_epik_Tot_abs_Q>
0

> <r_epik_Metal_State_Penalty>
0.0201313

> <b_epik_Metal_Only>
0

> <s_lp_Force_Field>
OPLS_2005

> <r_lp_Energy>
37.8316

> <b_lp_Chiralities_Consistent>
1

> <s_lp_Variant>
AV-unprocessed.smi:1379-1

> <Gold.Version>
5.8.1

> <Gold.Id.Protein>
6NUR|6NUR_protein|mol2

> <Gold.PLP.Fitness>
38.5105

> <Gold.PLP.PLP>
-34.5105

> <Gold.PLP.part.hbond>
-2.0000

> <Gold.PLP.part.metal>
0.0000

> <Gold.PLP.part.buried>
-5.7384

> <Gold.PLP.part.nonpolar>
-27.3844

> <Gold.PLP.part.repulsive>
0.2736

> <Gold.PLP.ligand.clash>
0.0000

> <Gold.PLP.ligand.torsion>
1.0124

> <Gold.PLP.Chemscore.Hbond>
2.0000

> <Gold.PLP.Chemscore.CHOScore>
0.0000

> <Gold.PLP.Chemscore.Metal>
0.0000

> <Gold.Chemscore.Hbonds>
donor molecule, donor type, donor heavy atom, donor atom, acceptor molecule, acceptor atom, score
      P1  H  7989  7998       L1     5  1.00
      P1  H 10752 10764       L1     2  0.68

> <Gold.PLP.Chemscore.Internal.Correction>
0.0249

> <Gold.Rescore>
     Score         DG    S(hbond)    S(metal)    S(lipo)     H(rot)  DE(clash)    DE(int)     intcor
     15.44     -17.95       1.91        0.00      82.98       1.42       0.03       2.47       ----

> <Gold.Chemscore.Fitness>
15.4421

> <Gold.Chemscore.DG>
-17.9467

> <Gold.Chemscore.ZeroCoef>
-5.4800

> <Gold.Chemscore.Hbond>
1.9105

> <Gold.Chemscore.Metal>
0.0000

> <Gold.Chemscore.Lipo>
82.9822

> <Gold.Chemscore.Internal_Hbond>
0.0000

> <Gold.Chemscore.DEClash>
0.0324

> <Gold.Chemscore.DEInternal>
2.4722

> <Gold.Chemscore.Rot>
1.4153

> <Gold.Chemscore.Internal.Correction>
   9.000000E+99

> <Gold.Chemscore.Hbonds>
donor molecule, donor type, donor heavy atom, donor atom, acceptor molecule, acceptor atom, score
      P1  H  7989  7998       L1     5  1.00
      P1  H 10752 10764       L1     2  0.25

> <Gold.Chemscore.Hbond.Weighted>
-6.3810

> <Gold.Chemscore.Metal.Weighted>
-0.0000

> <Gold.Chemscore.Lipo.Weighted>
-9.7089

> <Gold.Chemscore.Internal_Hbond.Weighted>
0.0000

> <Gold.Chemscore.DEClash.Weighted>
0.0324

> <Gold.Chemscore.DEInternal.Weighted>
2.4722

> <Gold.Chemscore.Rot.Weighted>
3.6231

> <Gold.Chemscore.Internal.Correction.Weighted>
   9.000000E+99

> <Gold.Protein.RotatedTorsions>
[ 6907 6896 6895 6894 ] final  -50.74 input  -60.11 | X-H torsion
[ 7974 7965 7964 7962 ] final   41.11 input  175.53 | X-H torsion
[ 8008 7997 7996 7995 ] final   24.28 input   59.86 | X-H torsion
[ 10167 10162 10161 10158 ] final   -4.83 input  -65.29 | X-H torsion
[ 10718 10713 10712 10709 ] final -173.10 input   66.30 | X-H torsion
[ 10763 10752 10751 10750 ] final  -51.83 input  -60.55 | X-H torsion
[ 11005 11000 10999 10996 ] final   42.60 input  -57.11 | X-H torsion

> <Gold.Protein.ActiveResidues>
 VAL166  LYS551  ARG553  GLY616  TRP617  ASP618  TYR619  PRO620  LYS621  CYS622 
 ASP623  PHE694  ASN695  SER759  ASP760  ASP761  ALA762  ILE779  LEU786  VAL792 
 PHE793  MET794  SER795  GLU796  ALA797  LYS798  CYS799  TRP800  GLU811  SER814 

> <Gold.Protein.RotatedAtoms>
  150.8678  134.8045  159.7131 H   0  0  0  0  0  0  0  0  0  0  0  0  # atno 6907 bound_to 6896
  152.4693  134.4996  159.9730 H   0  0  0  0  0  0  0  0  0  0  0  0  # atno 6908 bound_to 6896
  151.5089  133.3450  159.2917 H   0  0  0  0  0  0  0  0  0  0  0  0  # atno 6909 bound_to 6896
  146.0850  139.5454  142.9512 H   0  0  0  0  0  0  0  0  0  0  0  0  # atno 7974 bound_to 7965
  154.9939  140.3117  155.4895 H   0  0  0  0  0  0  0  0  0  0  0  0  # atno 8008 bound_to 7997
  156.2935  140.2244  156.4986 H   0  0  0  0  0  0  0  0  0  0  0  0  # atno 8009 bound_to 7997
  154.7679  140.0454  157.1015 H   0  0  0  0  0  0  0  0  0  0  0  0  # atno 8010 bound_to 7997
  140.6942  143.6378  150.8463 H   0  0  0  0  0  0  0  0  0  0  0  0  # atno 10167 bound_to 10162
  156.7653  130.9429  151.3119 H   0  0  0  0  0  0  0  0  0  0  0  0  # atno 10718 bound_to 10713
  154.1329  135.6517  153.4926 H   0  0  0  0  0  0  0  0  0  0  0  0  # atno 10763 bound_to 10752
  153.0189  135.5297  154.6983 H   0  0  0  0  0  0  0  0  0  0  0  0  # atno 10764 bound_to 10752
  154.6223  135.2966  155.0283 H   0  0  0  0  0  0  0  0  0  0  0  0  # atno 10765 bound_to 10752
  140.1723  134.4206  155.8249 H   0  0  0  0  0  0  0  0  0  0  0  0  # atno 11005 bound_to 11000
  145.6147  141.0333  143.1947 LP  0  0  0  0  0  0  0  0  0  0  0  0  # atno 17320 bound_to 7965
  144.7319  139.7699  143.7344 LP  0  0  0  0  0  0  0  0  0  0  0  0  # atno 17321 bound_to 7965
  140.0094  143.5659  152.2845 LP  0  0  0  0  0  0  0  0  0  0  0  0  # atno 17342 bound_to 10162
  139.6377  144.7651  151.2403 LP  0  0  0  0  0  0  0  0  0  0  0  0  # atno 17343 bound_to 10162
  157.6716  130.9056  150.0053 LP  0  0  0  0  0  0  0  0  0  0  0  0  # atno 17370 bound_to 10713
  156.1312  130.3643  149.9728 LP  0  0  0  0  0  0  0  0  0  0  0  0  # atno 17371 bound_to 10713
  141.2218  133.6962  156.7786 LP  0  0  0  0  0  0  0  0  0  0  0  0  # atno 17394 bound_to 11000
  140.2362  134.8648  157.3528 LP  0  0  0  0  0  0  0  0  0  0  0  0  # atno 17395 bound_to 11000

$$$$
