AV-unprocessed.smi:816|AV-procd|sdf|3827|dock1
  -GOLD-   22720 1263D 1   1.00000     0.00000
 Structure written by MMmdl.
 40 41  0  0  0  0  0  0  0  0  1 V2000
  150.7058  144.6931  158.4919 C   0  0  0  0  0  0  0  0  0  0  0  0
  151.2892  143.3077  158.4172 C   0  0  0  0  0  0  0  0  0  0  0  0
  150.9646  142.5963  157.3883 N   0  0  0  0  0  0  0  0  0  0  0  0
  151.4438  141.3115  157.2216 N   0  0  0  0  0  0  0  0  0  0  0  0
  150.9870  140.6602  155.9884 C   0  0  0  0  0  0  0  0  0  0  0  0
  149.9025  141.4904  155.2673 C   0  0  1  0  0  0  0  0  0  0  0  0
  149.8985  141.1560  153.8937 O   0  0  0  0  0  0  0  0  0  0  0  0
  148.4937  141.1973  155.8063 C   0  0  0  0  0  0  0  0  0  0  0  0
  147.5443  141.4620  154.7813 O   0  0  0  0  0  0  0  0  0  0  0  0
  146.6230  142.4661  154.9864 C   0  0  0  0  0  0  0  0  0  0  0  0
  146.0992  143.0971  153.8394 C   0  0  0  0  0  0  0  0  0  0  0  0
  145.1555  144.1362  153.9544 C   0  0  0  0  0  0  0  0  0  0  0  0
  144.7208  144.5561  155.2269 C   0  0  0  0  0  0  0  0  0  0  0  0
  143.7474  145.6285  155.3492 C   0  0  0  0  0  0  0  0  0  0  0  0
  142.9725  146.4823  155.4463 N   0  0  0  0  0  0  0  0  0  0  0  0
  145.2340  143.9309  156.3805 C   0  0  0  0  0  0  0  0  0  0  0  0
  146.1791  142.8929  156.2636 C   0  0  0  0  0  0  0  0  0  0  0  0
  152.2810  140.6760  158.0900 C   0  0  0  0  0  0  0  0  0  0  0  0
  152.6892  139.5294  157.9002 O   0  0  0  0  0  0  0  0  0  0  0  0
  152.6418  141.4862  159.2557 C   0  0  0  0  0  0  0  0  0  0  0  0
  153.5117  140.8553  160.1955 C   0  0  0  0  0  0  0  0  0  0  0  0
  154.2177  140.3615  160.9688 N   0  0  0  0  0  0  0  0  0  0  0  0
  152.1797  142.7498  159.4298 C   0  0  0  0  0  0  0  0  0  0  0  0
  152.5255  143.6324  160.6213 C   0  0  0  0  0  0  0  0  0  0  0  0
  150.1223  144.8195  159.4040 H   0  0  0  0  0  0  0  0  0  0  0  0
  150.0464  144.9024  157.6484 H   0  0  0  0  0  0  0  0  0  0  0  0
  151.4944  145.4455  158.4859 H   0  0  0  0  0  0  0  0  0  0  0  0
  151.8122  140.4219  155.3145 H   0  0  0  0  0  0  0  0  0  0  0  0
  150.5732  139.6890  156.2662 H   0  0  0  0  0  0  0  0  0  0  0  0
  150.1025  142.5584  155.3648 H   0  0  0  0  0  0  0  0  0  0  0  0
  149.4463  140.3335  153.7839 H   0  0  0  0  0  0  0  0  0  0  0  0
  148.4222  140.1481  156.0989 H   0  0  0  0  0  0  0  0  0  0  0  0
  148.2954  141.8098  156.6876 H   0  0  0  0  0  0  0  0  0  0  0  0
  146.4266  142.7826  152.8592 H   0  0  0  0  0  0  0  0  0  0  0  0
  144.7697  144.6075  153.0615 H   0  0  0  0  0  0  0  0  0  0  0  0
  144.9068  144.2433  157.3620 H   0  0  0  0  0  0  0  0  0  0  0  0
  146.5478  142.4395  157.1711 H   0  0  0  0  0  0  0  0  0  0  0  0
  153.2508  143.1632  161.2854 H   0  0  0  0  0  0  0  0  0  0  0  0
  151.6317  143.8480  161.2075 H   0  0  0  0  0  0  0  0  0  0  0  0
  152.9554  144.5778  160.2890 H   0  0  0  0  0  0  0  0  0  0  0  0
  1  2  1  0  0  0  0
  1 25  1  0  0  0  0
  1 26  1  0  0  0  0
  1 27  1  0  0  0  0
  2 23  1  0  0  0  0
  2  3  2  0  0  0  0
  3  4  1  0  0  0  0
  4  5  1  0  0  0  0
  4 18  1  0  0  0  0
  5  6  1  0  0  0  0
  5 28  1  0  0  0  0
  5 29  1  0  0  0  0
  6  7  1  0  0  0  0
  6  8  1  0  0  0  0
  6 30  1  0  0  0  0
  7 31  1  0  0  0  0
  8  9  1  0  0  0  0
  8 32  1  0  0  0  0
  8 33  1  0  0  0  0
  9 10  1  0  0  0  0
 10 17  1  0  0  0  0
 10 11  2  0  0  0  0
 11 12  1  0  0  0  0
 11 34  1  0  0  0  0
 12 13  2  0  0  0  0
 12 35  1  0  0  0  0
 13 14  1  0  0  0  0
 13 16  1  0  0  0  0
 14 15  3  0  0  0  0
 16 17  2  0  0  0  0
 16 36  1  0  0  0  0
 17 37  1  0  0  0  0
 18 19  2  0  0  0  0
 18 20  1  0  0  0  0
 20 21  1  0  0  0  0
 20 23  2  0  0  0  0
 21 22  3  0  0  0  0
 23 24  1  0  0  0  0
 24 38  1  0  0  0  0
 24 39  1  0  0  0  0
 24 40  1  0  0  0  0
M  END
> <s_m_source_file>
AV-unprocessed.smi

> <i_m_source_file_index>
816

> <i_lp_mmshare_version>
43012

> <i_f3d_flags>
0

> <s_epik_input>
TiNDYyhjMVtDSDNdKWMoPU8pbihuYzFbQ0gzXSlbQ0gyXVtDQEhdKFtPSF0pW0NIMl1PYzJbY0hdW2NIXWMoQyNOKVtjSF1bY0hdMg==

> <s_epik_cmdline>
J2VwaWtfcHl0aG9uJywgJy1waCcsICc3LjAnLCAnLXRuJywgJzgnLCAnLW1hJywgJzIwMCcsICctbWV0YWxfYmluZGluZycsICctaW1hZScsICc8aW5maWxlLm1hZT4nLCAnLW9tYWUnLCAnPG91dGZpbGUubWFlPic=

> <r_lp_tautomer_probability>
1

> <r_epik_Ionization_Penalty>
1.1732e-07

> <r_epik_Ionization_Penalty_Charging>
1.4567e-10

> <r_epik_Ionization_Penalty_Neutral>
1.17174e-07

> <r_epik_State_Penalty>
-0

> <r_epik_Charging_Adjusted_Penalty>
1.4567e-10

> <i_epik_Tot_Q>
0

> <i_epik_Tot_abs_Q>
0

> <r_epik_Metal_State_Penalty>
-0

> <b_epik_Metal_Only>
0

> <s_lp_Force_Field>
OPLS_2005

> <r_lp_Energy>
30.507

> <b_lp_Chiralities_Consistent>
1

> <s_lp_Variant>
AV-unprocessed.smi:816-2

> <Gold.Version>
5.8.1

> <Gold.Id.Protein>
6NUR|6NUR_protein|mol2

> <Gold.PLP.Fitness>
49.1282

> <Gold.PLP.PLP>
-45.2123

> <Gold.PLP.part.hbond>
-3.5604

> <Gold.PLP.part.metal>
0.0000

> <Gold.PLP.part.buried>
-5.9901

> <Gold.PLP.part.nonpolar>
-36.2968

> <Gold.PLP.part.repulsive>
0.2198

> <Gold.PLP.ligand.clash>
0.0000

> <Gold.PLP.ligand.torsion>
1.3796

> <Gold.PLP.Chemscore.Hbond>
2.1610

> <Gold.PLP.Chemscore.CHOScore>
0.0000

> <Gold.PLP.Chemscore.Metal>
0.0000

> <Gold.Chemscore.Hbonds>
donor molecule, donor type, donor heavy atom, donor atom, acceptor molecule, acceptor atom, score
      P1  H  7989  7998       L1     7  0.34
      P1  H  7997  8010       L1    19  0.64
      P1  H  8011  8017       L1     7  0.80

> <Gold.PLP.Chemscore.Internal.Correction>
0.1920

> <Gold.Rescore>
     Score         DG    S(hbond)    S(metal)    S(lipo)     H(rot)  DE(clash)    DE(int)     intcor
     13.08     -15.42       1.57        0.00      97.59       2.62       1.17       1.18       ----

> <Gold.Chemscore.Fitness>
13.0754

> <Gold.Chemscore.DG>
-15.4240

> <Gold.Chemscore.ZeroCoef>
-5.4800

> <Gold.Chemscore.Hbond>
1.5684

> <Gold.Chemscore.Metal>
0.0000

> <Gold.Chemscore.Lipo>
97.5921

> <Gold.Chemscore.Internal_Hbond>
0.0000

> <Gold.Chemscore.DEClash>
1.1651

> <Gold.Chemscore.DEInternal>
1.1835

> <Gold.Chemscore.Rot>
2.6222

> <Gold.Chemscore.Internal.Correction>
   9.000000E+99

> <Gold.Chemscore.Hbonds>
donor molecule, donor type, donor heavy atom, donor atom, acceptor molecule, acceptor atom, score
      P1  H  7989  7998       L1     7  0.11
      P1  H  7997  8010       L1    19  0.11
      P1  H  8011  8017       L1     7  0.71

> <Gold.Chemscore.Hbond.Weighted>
-5.2384

> <Gold.Chemscore.Metal.Weighted>
-0.0000

> <Gold.Chemscore.Lipo.Weighted>
-11.4183

> <Gold.Chemscore.Internal_Hbond.Weighted>
0.0000

> <Gold.Chemscore.DEClash.Weighted>
1.1651

> <Gold.Chemscore.DEInternal.Weighted>
1.1835

> <Gold.Chemscore.Rot.Weighted>
6.7127

> <Gold.Chemscore.Internal.Correction.Weighted>
   9.000000E+99

> <Gold.Protein.RotatedTorsions>
[ 6907 6896 6895 6894 ] final  -20.33 input  -60.11 | X-H torsion
[ 7974 7965 7964 7962 ] final -110.07 input  175.53 | X-H torsion
[ 8008 7997 7996 7995 ] final   40.93 input   59.86 | X-H torsion
[ 10167 10162 10161 10158 ] final   61.50 input  -65.29 | X-H torsion
[ 10718 10713 10712 10709 ] final  176.13 input   66.30 | X-H torsion
[ 10763 10752 10751 10750 ] final   60.11 input  -60.55 | X-H torsion
[ 11005 11000 10999 10996 ] final -164.91 input  -57.11 | X-H torsion

> <Gold.Protein.ActiveResidues>
 VAL166  LYS551  ARG553  GLY616  TRP617  ASP618  TYR619  PRO620  LYS621  CYS622 
 ASP623  PHE694  ASN695  SER759  ASP760  ASP761  ALA762  ILE779  LEU786  VAL792 
 PHE793  MET794  SER795  GLU796  ALA797  LYS798  CYS799  TRP800  GLU811  SER814 

> <Gold.Protein.RotatedAtoms>
  151.2498  135.0618  159.9057 H   0  0  0  0  0  0  0  0  0  0  0  0  # atno 6907 bound_to 6896
  152.5381  134.0344  159.8050 H   0  0  0  0  0  0  0  0  0  0  0  0  # atno 6908 bound_to 6896
  151.0551  133.5542  159.2670 H   0  0  0  0  0  0  0  0  0  0  0  0  # atno 6909 bound_to 6896
  145.1728  140.8934  143.3525 H   0  0  0  0  0  0  0  0  0  0  0  0  # atno 7974 bound_to 7965
  155.2612  140.3359  155.4273 H   0  0  0  0  0  0  0  0  0  0  0  0  # atno 8008 bound_to 7997
  156.2174  140.1794  156.7600 H   0  0  0  0  0  0  0  0  0  0  0  0  # atno 8009 bound_to 7997
  154.5773  140.0659  156.9038 H   0  0  0  0  0  0  0  0  0  0  0  0  # atno 8010 bound_to 7997
  140.1541  144.4434  150.6744 H   0  0  0  0  0  0  0  0  0  0  0  0  # atno 10167 bound_to 10162
  156.9247  130.9952  151.2998 H   0  0  0  0  0  0  0  0  0  0  0  0  # atno 10718 bound_to 10713
  152.9912  135.5548  154.5821 H   0  0  0  0  0  0  0  0  0  0  0  0  # atno 10763 bound_to 10752
  154.5200  135.2807  155.1272 H   0  0  0  0  0  0  0  0  0  0  0  0  # atno 10764 bound_to 10752
  154.2630  135.6377  153.5334 H   0  0  0  0  0  0  0  0  0  0  0  0  # atno 10765 bound_to 10752
  140.5816  134.5136  157.5179 H   0  0  0  0  0  0  0  0  0  0  0  0  # atno 11005 bound_to 11000
  145.0216  139.3419  143.6069 LP  0  0  0  0  0  0  0  0  0  0  0  0  # atno 17320 bound_to 7965
  146.3466  139.9518  142.8728 LP  0  0  0  0  0  0  0  0  0  0  0  0  # atno 17321 bound_to 7965
  140.6684  143.2276  151.5685 LP  0  0  0  0  0  0  0  0  0  0  0  0  # atno 17342 bound_to 10162
  139.5412  144.2643  152.1354 LP  0  0  0  0  0  0  0  0  0  0  0  0  # atno 17343 bound_to 10162
  157.5885  130.8427  149.8624 LP  0  0  0  0  0  0  0  0  0  0  0  0  # atno 17370 bound_to 10713
  156.0474  130.3725  150.1283 LP  0  0  0  0  0  0  0  0  0  0  0  0  # atno 17371 bound_to 10713
  139.9315  134.7955  156.0919 LP  0  0  0  0  0  0  0  0  0  0  0  0  # atno 17394 bound_to 11000
  141.0992  133.6683  156.2716 LP  0  0  0  0  0  0  0  0  0  0  0  0  # atno 17395 bound_to 11000

$$$$
