AV-unprocessed.smi:3272|AV-procd|sdf|12519|dock8
  -GOLD-   2272018433D 1   1.00000     0.00000
 Structure written by MMmdl.
 35 36  0  0  0  0  0  0  0  0  1 V2000
  143.6626  132.8407  148.3568 C   0  0  0  0  0  0  0  0  0  0  0  0
  143.4948  132.4265  149.8234 C   0  0  0  0  0  0  0  0  0  0  0  0
  144.0367  133.4218  150.7277 N   0  0  0  0  0  0  0  0  0  0  0  0
  145.1433  134.2271  150.5457 C   0  0  0  0  0  0  0  0  0  0  0  0
  145.2339  134.9908  151.6749 C   0  0  0  0  0  0  0  0  0  0  0  0
  146.1848  135.9867  152.0132 N   0  0  0  0  0  0  0  0  0  0  0  0
  145.9406  137.2128  152.5041 C   0  0  0  0  0  0  0  0  0  0  0  0
  144.8225  137.6662  152.7492 O   0  0  0  0  0  0  0  0  0  0  0  0
  147.0775  137.8984  152.6912 N   0  0  0  0  0  0  0  0  0  0  0  0
  147.1666  139.2680  153.1888 C   0  0  0  0  0  0  0  0  0  0  0  0
  148.3030  139.4311  154.2159 C   0  0  1  0  0  0  0  0  0  0  0  0
  149.4475  138.4449  154.0788 C   0  0  0  0  0  0  0  0  0  0  0  0
  150.5620  139.1424  154.8527 C   0  0  0  0  0  0  0  0  0  0  0  0
  150.3216  140.5396  154.7107 O   0  0  0  0  0  0  0  0  0  0  0  0
  149.0525  140.7579  154.1015 C   0  0  0  0  0  0  0  0  0  0  0  0
  144.1473  134.5958  152.4977 C   0  0  0  0  0  0  0  0  0  0  0  0
  143.4282  133.6464  151.9186 N   0  0  0  0  0  0  0  0  0  0  0  0
  143.2613  132.0773  147.6903 H   0  0  0  0  0  0  0  0  0  0  0  0
  144.7143  132.9827  148.1060 H   0  0  0  0  0  0  0  0  0  0  0  0
  143.1384  133.7737  148.1467 H   0  0  0  0  0  0  0  0  0  0  0  0
  142.4404  132.2743  150.0577 H   0  0  0  0  0  0  0  0  0  0  0  0
  144.0003  131.4777  150.0064 H   0  0  0  0  0  0  0  0  0  0  0  0
  145.7450  134.1813  149.6501 H   0  0  0  0  0  0  0  0  0  0  0  0
  147.1516  135.7435  151.8539 H   0  0  0  0  0  0  0  0  0  0  0  0
  147.9489  137.4424  152.4629 H   0  0  0  0  0  0  0  0  0  0  0  0
  147.2860  139.9748  152.3657 H   0  0  0  0  0  0  0  0  0  0  0  0
  146.2143  139.5109  153.6606 H   0  0  0  0  0  0  0  0  0  0  0  0
  147.8934  139.3517  155.2245 H   0  0  0  0  0  0  0  0  0  0  0  0
  149.2145  137.4558  154.4739 H   0  0  0  0  0  0  0  0  0  0  0  0
  149.7322  138.3358  153.0312 H   0  0  0  0  0  0  0  0  0  0  0  0
  150.5058  138.8884  155.9119 H   0  0  0  0  0  0  0  0  0  0  0  0
  151.5532  138.8683  154.4911 H   0  0  0  0  0  0  0  0  0  0  0  0
  149.2156  141.0208  153.0552 H   0  0  0  0  0  0  0  0  0  0  0  0
  148.5198  141.5815  154.5772 H   0  0  0  0  0  0  0  0  0  0  0  0
  143.8621  134.9572  153.4747 H   0  0  0  0  0  0  0  0  0  0  0  0
  1  2  1  0  0  0  0
  1 18  1  0  0  0  0
  1 19  1  0  0  0  0
  1 20  1  0  0  0  0
  2  3  1  0  0  0  0
  2 21  1  0  0  0  0
  2 22  1  0  0  0  0
  3 17  1  0  0  0  0
  3  4  1  0  0  0  0
  4  5  2  0  0  0  0
  4 23  1  0  0  0  0
  5  6  1  0  0  0  0
  5 16  1  0  0  0  0
  6  7  1  0  0  0  0
  6 24  1  0  0  0  0
  7  8  2  0  0  0  0
  7  9  1  0  0  0  0
  9 10  1  0  0  0  0
  9 25  1  0  0  0  0
 10 11  1  0  0  0  0
 10 26  1  0  0  0  0
 10 27  1  0  0  0  0
 11 15  1  0  0  0  0
 11 12  1  0  0  0  0
 11 28  1  0  0  0  0
 12 13  1  0  0  0  0
 12 29  1  0  0  0  0
 12 30  1  0  0  0  0
 13 14  1  0  0  0  0
 13 31  1  0  0  0  0
 13 32  1  0  0  0  0
 14 15  1  0  0  0  0
 15 33  1  0  0  0  0
 15 34  1  0  0  0  0
 16 17  2  0  0  0  0
 16 35  1  0  0  0  0
M  END
> <s_m_source_file>
AV-unprocessed.smi

> <i_m_source_file_index>
3272

> <i_lp_mmshare_version>
43012

> <i_f3d_flags>
0

> <s_epik_input>
W0NIM11bQ0gyXW4xW2NIXWMoW2NIXW4xKVtOSF1DKD1PKVtOSF1bQ0gyXVtDQEBIXTJbQ0gyXVtDSDJdT1tDSDJdMg==

> <s_epik_cmdline>
J2VwaWtfcHl0aG9uJywgJy1waCcsICc3LjAnLCAnLXRuJywgJzgnLCAnLW1hJywgJzIwMCcsICctbWV0YWxfYmluZGluZycsICctaW1hZScsICc8aW5maWxlLm1hZT4nLCAnLW9tYWUnLCAnPG91dGZpbGUubWFlPic=

> <r_lp_tautomer_probability>
1

> <r_epik_Ionization_Penalty>
0.000182896

> <r_epik_Ionization_Penalty_Charging>
0

> <r_epik_Ionization_Penalty_Neutral>
0.000182896

> <r_epik_State_Penalty>
-0

> <r_epik_Charging_Adjusted_Penalty>
0

> <i_epik_Tot_Q>
0

> <i_epik_Tot_abs_Q>
0

> <r_epik_Metal_State_Penalty>
-0

> <b_epik_Metal_Only>
0

> <s_lp_Force_Field>
OPLS_2005

> <r_lp_Energy>
22.1585

> <b_lp_Chiralities_Consistent>
1

> <s_lp_Variant>
AV-unprocessed.smi:3272-2

> <Gold.Version>
5.8.1

> <Gold.Id.Protein>
6NUR|6NUR_protein|mol2

> <Gold.PLP.Fitness>
40.1654

> <Gold.PLP.PLP>
-31.0785

> <Gold.PLP.part.hbond>
-3.0000

> <Gold.PLP.part.metal>
0.0000

> <Gold.PLP.part.buried>
-2.1737

> <Gold.PLP.part.nonpolar>
-27.6203

> <Gold.PLP.part.repulsive>
1.1588

> <Gold.PLP.ligand.clash>
0.0000

> <Gold.PLP.ligand.torsion>
1.3639

> <Gold.PLP.Chemscore.Hbond>
2.9360

> <Gold.PLP.Chemscore.CHOScore>
1.0000

> <Gold.PLP.Chemscore.Metal>
0.0000

> <Gold.Chemscore.Hbonds>
donor molecule, donor type, donor heavy atom, donor atom, acceptor molecule, acceptor atom, score
      L1  H     6    24       P1  7948  1.00
      L1  H     9    25       P1  7948  1.00
      P1  H  7989  7998       L1    14  0.86
      L1  C     4    23       P1  7921  1.00

> <Gold.PLP.Chemscore.Internal.Correction>
0.0068

> <Gold.Rescore>
     Score         DG    S(hbond)    S(metal)    S(lipo)     H(rot)  DE(clash)    DE(int)     intcor
     15.88     -17.42       2.05        0.00      74.39       1.41       0.13       1.40       ----

> <Gold.Chemscore.Fitness>
15.8817

> <Gold.Chemscore.DG>
-17.4202

> <Gold.Chemscore.ZeroCoef>
-5.4800

> <Gold.Chemscore.Hbond>
2.0471

> <Gold.Chemscore.Metal>
0.0000

> <Gold.Chemscore.Lipo>
74.3876

> <Gold.Chemscore.Internal_Hbond>
0.0000

> <Gold.Chemscore.DEClash>
0.1335

> <Gold.Chemscore.DEInternal>
1.4049

> <Gold.Chemscore.Rot>
1.4064

> <Gold.Chemscore.Internal.Correction>
   9.000000E+99

> <Gold.Chemscore.Hbonds>
donor molecule, donor type, donor heavy atom, donor atom, acceptor molecule, acceptor atom, score
      L1  H     6    24       P1  7948  0.95
      L1  H     9    25       P1  7948  0.99
      P1  H  7989  7998       L1    14  0.12

> <Gold.Chemscore.Hbond.Weighted>
-6.8372

> <Gold.Chemscore.Metal.Weighted>
-0.0000

> <Gold.Chemscore.Lipo.Weighted>
-8.7033

> <Gold.Chemscore.Internal_Hbond.Weighted>
0.0000

> <Gold.Chemscore.DEClash.Weighted>
0.1335

> <Gold.Chemscore.DEInternal.Weighted>
1.4049

> <Gold.Chemscore.Rot.Weighted>
3.6004

> <Gold.Chemscore.Internal.Correction.Weighted>
   9.000000E+99

> <Gold.Protein.RotatedTorsions>
[ 6907 6896 6895 6894 ] final   45.67 input  -60.11 | X-H torsion
[ 7974 7965 7964 7962 ] final  145.71 input  175.53 | X-H torsion
[ 8008 7997 7996 7995 ] final    8.60 input   59.86 | X-H torsion
[ 10167 10162 10161 10158 ] final  -42.62 input  -65.29 | X-H torsion
[ 10718 10713 10712 10709 ] final  156.47 input   66.30 | X-H torsion
[ 10763 10752 10751 10750 ] final  155.45 input  -60.55 | X-H torsion
[ 11005 11000 10999 10996 ] final   90.23 input  -57.11 | X-H torsion

> <Gold.Protein.ActiveResidues>
 VAL166  LYS551  ARG553  GLY616  TRP617  ASP618  TYR619  PRO620  LYS621  CYS622 
 ASP623  PHE694  ASN695  SER759  ASP760  ASP761  ALA762  ILE779  LEU786  VAL792 
 PHE793  MET794  SER795  GLU796  ALA797  LYS798  CYS799  TRP800  GLU811  SER814 

> <Gold.Protein.RotatedAtoms>
  152.2473  134.8169  160.0451 H   0  0  0  0  0  0  0  0  0  0  0  0  # atno 6907 bound_to 6896
  151.8862  133.3501  159.3791 H   0  0  0  0  0  0  0  0  0  0  0  0  # atno 6908 bound_to 6896
  150.7072  134.4896  159.5553 H   0  0  0  0  0  0  0  0  0  0  0  0  # atno 6909 bound_to 6896
  144.8730  139.5816  143.5878 H   0  0  0  0  0  0  0  0  0  0  0  0  # atno 7974 bound_to 7965
  154.7689  140.2798  155.6154 H   0  0  0  0  0  0  0  0  0  0  0  0  # atno 8008 bound_to 7997
  156.2930  140.2645  156.2414 H   0  0  0  0  0  0  0  0  0  0  0  0  # atno 8009 bound_to 7997
  154.9924  140.0373  157.2315 H   0  0  0  0  0  0  0  0  0  0  0  0  # atno 8010 bound_to 7997
  140.6963  143.3027  151.3235 H   0  0  0  0  0  0  0  0  0  0  0  0  # atno 10167 bound_to 10162
  157.2045  131.0684  151.2005 H   0  0  0  0  0  0  0  0  0  0  0  0  # atno 10718 bound_to 10713
  154.1685  135.2806  155.3088 H   0  0  0  0  0  0  0  0  0  0  0  0  # atno 10763 bound_to 10752
  154.6093  135.5504  153.7459 H   0  0  0  0  0  0  0  0  0  0  0  0  # atno 10764 bound_to 10752
  153.0171  135.6411  154.1826 H   0  0  0  0  0  0  0  0  0  0  0  0  # atno 10765 bound_to 10752
  139.8860  134.8600  156.3254 H   0  0  0  0  0  0  0  0  0  0  0  0  # atno 11005 bound_to 11000
  146.2943  139.7232  142.9138 LP  0  0  0  0  0  0  0  0  0  0  0  0  # atno 17320 bound_to 7965
  145.4095  141.0395  143.3025 LP  0  0  0  0  0  0  0  0  0  0  0  0  # atno 17321 bound_to 7965
  139.6422  144.0518  152.2563 LP  0  0  0  0  0  0  0  0  0  0  0  0  # atno 17342 bound_to 10162
  140.0027  144.6281  150.7715 LP  0  0  0  0  0  0  0  0  0  0  0  0  # atno 17343 bound_to 10162
  157.3734  130.7193  149.6580 LP  0  0  0  0  0  0  0  0  0  0  0  0  # atno 17370 bound_to 10713
  155.9697  130.4192  150.4366 LP  0  0  0  0  0  0  0  0  0  0  0  0  # atno 17371 bound_to 10713
  140.9758  133.7298  156.0600 LP  0  0  0  0  0  0  0  0  0  0  0  0  # atno 17394 bound_to 11000
  140.7812  134.3723  157.5487 LP  0  0  0  0  0  0  0  0  0  0  0  0  # atno 17395 bound_to 11000

$$$$
