AV-unprocessed.smi:261|AV-procd|sdf|1988|dock1
  -GOLD-   2262021173D 1   1.00000     0.00000
 Structure written by MMmdl.
 51 54  0  0  0  0  0  0  0  0  1 V2000
  144.0445  145.4213  154.4303 C   0  0  0  0  0  0  0  0  0  0  0  0
  143.2154  144.3552  154.8635 O   0  0  0  0  0  0  0  0  0  0  0  0
  143.9044  143.3753  155.6263 C   0  0  2  0  0  0  0  0  0  0  0  0
  144.5464  143.9332  156.9001 C   0  0  0  0  0  0  0  0  0  0  0  0
  145.6999  142.9618  157.2025 C   0  0  1  0  0  0  0  0  0  0  0  0
  145.2547  141.8157  158.1284 C   0  0  0  0  0  0  0  0  0  0  0  0
  144.2529  141.0479  157.6932 N   0  0  0  0  0  0  0  0  0  0  0  0
  145.8088  141.6146  159.2082 O   0  0  0  0  0  0  0  0  0  0  0  0
  146.0877  142.4761  155.8756 N   0  0  0  0  0  0  0  0  0  0  0  0
  147.3195  141.9710  155.5892 C   0  0  0  0  0  0  0  0  0  0  0  0
  147.5487  141.5019  154.3334 N   0  0  0  0  0  0  0  0  0  0  0  0
  148.7389  140.9988  153.9969 C   0  0  0  0  0  0  0  0  0  0  0  0
  149.8306  140.8679  154.7501 N   0  0  0  0  0  0  0  0  0  0  0  0
  149.6148  141.3329  156.0129 C   0  0  0  0  0  0  0  0  0  0  0  0
  148.4046  141.8956  156.5150 C   0  0  0  0  0  0  0  0  0  0  0  0
  148.5822  142.2525  157.8484 N   0  0  0  0  0  0  0  0  0  0  0  0
  149.8148  141.9207  158.1160 C   0  0  0  0  0  0  0  0  0  0  0  0
  150.5059  141.3554  157.0705 N   0  0  0  0  0  0  0  0  0  0  0  0
  151.8803  140.8882  157.0860 C   0  0  0  0  0  0  0  0  0  0  0  0
  152.4021  140.5816  158.5062 C   0  0  1  0  0  0  0  0  0  0  0  0
  153.4107  139.5994  158.3785 O   0  0  0  0  0  0  0  0  0  0  0  0
  152.9794  141.8051  159.2524 C   0  0  2  0  0  0  0  0  0  0  0  0
  152.9284  141.7001  160.7778 C   0  0  0  0  0  0  0  0  0  0  0  0
  152.9782  143.1480  161.2364 C   0  0  0  0  0  0  0  0  0  0  0  0
  152.5636  143.9416  159.9951 C   0  0  0  0  0  0  0  0  0  0  0  0
  152.1875  142.9638  159.0358 O   0  0  0  0  0  0  0  0  0  0  0  0
  145.1113  142.8372  154.8564 C   0  0  0  0  0  0  0  0  0  0  0  0
  143.2425  142.5433  155.8748 H   0  0  0  0  0  0  0  0  0  0  0  0
  146.5177  143.5124  157.6712 H   0  0  0  0  0  0  0  0  0  0  0  0
  143.4435  146.1536  153.8914 H   0  0  0  0  0  0  0  0  0  0  0  0
  144.8265  145.0721  153.7556 H   0  0  0  0  0  0  0  0  0  0  0  0
  144.5112  145.9280  155.2759 H   0  0  0  0  0  0  0  0  0  0  0  0
  144.9539  144.9256  156.7014 H   0  0  0  0  0  0  0  0  0  0  0  0
  143.8355  144.0326  157.7215 H   0  0  0  0  0  0  0  0  0  0  0  0
  143.9255  140.2783  158.2586 H   0  0  0  0  0  0  0  0  0  0  0  0
  143.8307  141.2377  156.7960 H   0  0  0  0  0  0  0  0  0  0  0  0
  148.8289  140.6513  152.9784 H   0  0  0  0  0  0  0  0  0  0  0  0
  150.2527  142.0733  159.0916 H   0  0  0  0  0  0  0  0  0  0  0  0
  151.9397  139.9958  156.4615 H   0  0  0  0  0  0  0  0  0  0  0  0
  152.5057  141.6443  156.6089 H   0  0  0  0  0  0  0  0  0  0  0  0
  151.5986  140.1466  159.1015 H   0  0  0  0  0  0  0  0  0  0  0  0
  153.0660  138.7741  158.6834 H   0  0  0  0  0  0  0  0  0  0  0  0
  154.0026  142.0039  158.9275 H   0  0  0  0  0  0  0  0  0  0  0  0
  151.9851  141.2503  161.0910 H   0  0  0  0  0  0  0  0  0  0  0  0
  153.7401  141.0992  161.1885 H   0  0  0  0  0  0  0  0  0  0  0  0
  152.3052  143.3201  162.0771 H   0  0  0  0  0  0  0  0  0  0  0  0
  153.9849  143.4287  161.5480 H   0  0  0  0  0  0  0  0  0  0  0  0
  151.7390  144.6269  160.1921 H   0  0  0  0  0  0  0  0  0  0  0  0
  153.4039  144.5203  159.6095 H   0  0  0  0  0  0  0  0  0  0  0  0
  144.8282  141.9849  154.2382 H   0  0  0  0  0  0  0  0  0  0  0  0
  145.5370  143.6100  154.2144 H   0  0  0  0  0  0  0  0  0  0  0  0
  1  2  1  0  0  0  0
  1 30  1  0  0  0  0
  1 31  1  0  0  0  0
  1 32  1  0  0  0  0
  2  3  1  0  0  0  0
  3 28  1  0  0  0  0
  3 27  1  0  0  0  0
  3  4  1  0  0  0  0
  4  5  1  0  0  0  0
  4 33  1  0  0  0  0
  4 34  1  0  0  0  0
  5 29  1  0  0  0  0
  5  6  1  0  0  0  0
  5  9  1  0  0  0  0
  6  7  1  0  0  0  0
  6  8  2  0  0  0  0
  7 35  1  0  0  0  0
  7 36  1  0  0  0  0
  9 10  1  0  0  0  0
  9 27  1  0  0  0  0
 10 15  1  0  0  0  0
 10 11  2  0  0  0  0
 11 12  1  0  0  0  0
 12 13  2  0  0  0  0
 12 37  1  0  0  0  0
 13 14  1  0  0  0  0
 14 18  1  0  0  0  0
 14 15  2  0  0  0  0
 15 16  1  0  0  0  0
 16 17  2  0  0  0  0
 17 18  1  0  0  0  0
 17 38  1  0  0  0  0
 18 19  1  0  0  0  0
 19 20  1  0  0  0  0
 19 39  1  0  0  0  0
 19 40  1  0  0  0  0
 20 21  1  0  0  0  0
 20 22  1  0  0  0  0
 20 41  1  0  0  0  0
 21 42  1  0  0  0  0
 22 26  1  0  0  0  0
 22 23  1  0  0  0  0
 22 43  1  0  0  0  0
 23 24  1  0  0  0  0
 23 44  1  0  0  0  0
 23 45  1  0  0  0  0
 24 25  1  0  0  0  0
 24 46  1  0  0  0  0
 24 47  1  0  0  0  0
 25 26  1  0  0  0  0
 25 48  1  0  0  0  0
 25 49  1  0  0  0  0
 27 50  1  0  0  0  0
 27 51  1  0  0  0  0
M  END
> <s_m_source_file>
AV-unprocessed.smi

> <i_m_source_file_index>
261

> <i_lp_mmshare_version>
43012

> <i_f3d_flags>
0

> <s_epik_input>
W0NIM11PW0NASF0xW0NIMl1bQ0BASF0oQyg9TylbTkgyXSlOKFtDSDJdMSljKG5bY0hdbjIpYyhjMjMpbltjSF1uM1tDSDJdW0NASF0oW09IXSlbQ0BASF00W0NIMl1bQ0gyXVtDSDJdTzQ=

> <s_epik_cmdline>
J2VwaWtfcHl0aG9uJywgJy1waCcsICc3LjAnLCAnLXRuJywgJzgnLCAnLW1hJywgJzIwMCcsICctbWV0YWxfYmluZGluZycsICctaW1hZScsICc8aW5maWxlLm1hZT4nLCAnLW9tYWUnLCAnPG91dGZpbGUubWFlPic=

> <r_lp_tautomer_probability>
1

> <r_epik_Ionization_Penalty>
0.000713824

> <r_epik_Ionization_Penalty_Charging>
0

> <r_epik_Ionization_Penalty_Neutral>
0.000713824

> <r_epik_State_Penalty>
0.000402132

> <r_epik_Charging_Adjusted_Penalty>
0.000402132

> <i_epik_Tot_Q>
0

> <i_epik_Tot_abs_Q>
0

> <r_epik_Metal_State_Penalty>
-0

> <b_epik_Metal_Only>
0

> <s_lp_Force_Field>
OPLS_2005

> <r_lp_Energy>
43.323

> <b_lp_Chiralities_Consistent>
1

> <s_lp_Variant>
AV-unprocessed.smi:261-6

> <Gold.Version>
5.8.1

> <Gold.Id.Protein>
6NUR|6NUR_protein|mol2

> <Gold.PLP.Fitness>
47.3232

> <Gold.PLP.PLP>
-39.0910

> <Gold.PLP.part.hbond>
-3.0000

> <Gold.PLP.part.metal>
0.0000

> <Gold.PLP.part.buried>
-4.7927

> <Gold.PLP.part.nonpolar>
-31.5914

> <Gold.PLP.part.repulsive>
0.5497

> <Gold.PLP.ligand.clash>
0.0000

> <Gold.PLP.ligand.torsion>
1.1409

> <Gold.PLP.Chemscore.Hbond>
2.4194

> <Gold.PLP.Chemscore.CHOScore>
0.9858

> <Gold.PLP.Chemscore.Metal>
0.0000

> <Gold.Chemscore.Hbonds>
donor molecule, donor type, donor heavy atom, donor atom, acceptor molecule, acceptor atom, score
      P1  H  6934  6946       L1     8  0.96
      P1  H  7989  7998       L1    13  0.45
      P1  H  7997  8010       L1    21  1.00
      L1  C    12    37       P1  7957  1.00

> <Gold.PLP.Chemscore.Internal.Correction>
0.2983

> <Gold.Rescore>
     Score         DG    S(hbond)    S(metal)    S(lipo)     H(rot)  DE(clash)    DE(int)     intcor
      8.85     -12.57       1.94        0.00      74.71       3.18       0.37       3.34       ----

> <Gold.Chemscore.Fitness>
8.8540

> <Gold.Chemscore.DG>
-12.5689

> <Gold.Chemscore.ZeroCoef>
-5.4800

> <Gold.Chemscore.Hbond>
1.9449

> <Gold.Chemscore.Metal>
0.0000

> <Gold.Chemscore.Lipo>
74.7138

> <Gold.Chemscore.Internal_Hbond>
0.0000

> <Gold.Chemscore.DEClash>
0.3747

> <Gold.Chemscore.DEInternal>
3.3403

> <Gold.Chemscore.Rot>
3.1831

> <Gold.Chemscore.Internal.Correction>
   9.000000E+99

> <Gold.Chemscore.Hbonds>
donor molecule, donor type, donor heavy atom, donor atom, acceptor molecule, acceptor atom, score
      P1  H  6934  6946       L1     8  0.89
      P1  H  7989  7998       L1    13  0.33
      P1  H  7997  8010       L1    21  0.78

> <Gold.Chemscore.Hbond.Weighted>
-6.4960

> <Gold.Chemscore.Metal.Weighted>
-0.0000

> <Gold.Chemscore.Lipo.Weighted>
-8.7415

> <Gold.Chemscore.Internal_Hbond.Weighted>
0.0000

> <Gold.Chemscore.DEClash.Weighted>
0.3747

> <Gold.Chemscore.DEInternal.Weighted>
3.3403

> <Gold.Chemscore.Rot.Weighted>
8.1486

> <Gold.Chemscore.Internal.Correction.Weighted>
   9.000000E+99

> <Gold.Protein.RotatedTorsions>
[ 6907 6896 6895 6894 ] final   68.34 input  -60.11 | X-H torsion
[ 7974 7965 7964 7962 ] final -134.66 input  175.53 | X-H torsion
[ 8008 7997 7996 7995 ] final   34.83 input   59.86 | X-H torsion
[ 10167 10162 10161 10158 ] final  -25.86 input  -65.29 | X-H torsion
[ 10718 10713 10712 10709 ] final -154.74 input   66.30 | X-H torsion
[ 10763 10752 10751 10750 ] final  -30.50 input  -60.55 | X-H torsion
[ 11005 11000 10999 10996 ] final   17.45 input  -57.11 | X-H torsion

> <Gold.Protein.ActiveResidues>
 VAL166  LYS551  ARG553  GLY616  TRP617  ASP618  TYR619  PRO620  LYS621  CYS622 
 ASP623  PHE694  ASN695  SER759  ASP760  ASP761  ALA762  ILE779  LEU786  VAL792 
 PHE793  MET794  SER795  GLU796  ALA797  LYS798  CYS799  TRP800  GLU811  SER814 

> <Gold.Protein.RotatedAtoms>
  152.4614  134.5176  159.9772 H   0  0  0  0  0  0  0  0  0  0  0  0  # atno 6907 bound_to 6896
  151.5224  133.3458  159.2911 H   0  0  0  0  0  0  0  0  0  0  0  0  # atno 6908 bound_to 6896
  150.8578  134.7952  159.7122 H   0  0  0  0  0  0  0  0  0  0  0  0  # atno 6909 bound_to 6896
  144.9083  140.6862  143.5041 H   0  0  0  0  0  0  0  0  0  0  0  0  # atno 7974 bound_to 7965
  155.1611  140.3283  155.4411 H   0  0  0  0  0  0  0  0  0  0  0  0  # atno 8008 bound_to 7997
  156.2542  140.1960  156.6669 H   0  0  0  0  0  0  0  0  0  0  0  0  # atno 8009 bound_to 7997
  154.6404  140.0571  156.9825 H   0  0  0  0  0  0  0  0  0  0  0  0  # atno 8010 bound_to 7997
  140.7285  143.4228  151.0924 H   0  0  0  0  0  0  0  0  0  0  0  0  # atno 10167 bound_to 10162
  156.5034  130.8401  151.2618 H   0  0  0  0  0  0  0  0  0  0  0  0  # atno 10718 bound_to 10713
  153.7821  135.6904  153.4886 H   0  0  0  0  0  0  0  0  0  0  0  0  # atno 10763 bound_to 10752
  153.1805  135.4508  155.0020 H   0  0  0  0  0  0  0  0  0  0  0  0  # atno 10764 bound_to 10752
  154.8078  135.3364  154.7323 H   0  0  0  0  0  0  0  0  0  0  0  0  # atno 10765 bound_to 10752
  140.4358  134.1372  155.7685 H   0  0  0  0  0  0  0  0  0  0  0  0  # atno 11005 bound_to 11000
  145.3498  139.1709  143.4441 LP  0  0  0  0  0  0  0  0  0  0  0  0  # atno 17320 bound_to 7965
  146.3145  140.3549  142.8659 LP  0  0  0  0  0  0  0  0  0  0  0  0  # atno 17321 bound_to 7965
  139.7876  143.8265  152.3147 LP  0  0  0  0  0  0  0  0  0  0  0  0  # atno 17342 bound_to 10162
  139.8238  144.7284  150.9538 LP  0  0  0  0  0  0  0  0  0  0  0  0  # atno 17343 bound_to 10162
  157.7460  130.9974  150.2815 LP  0  0  0  0  0  0  0  0  0  0  0  0  # atno 17370 bound_to 10713
  156.3311  130.3800  149.7490 LP  0  0  0  0  0  0  0  0  0  0  0  0  # atno 17371 bound_to 10713
  141.1726  133.8578  157.1522 LP  0  0  0  0  0  0  0  0  0  0  0  0  # atno 17394 bound_to 11000
  140.0103  134.9991  157.0380 LP  0  0  0  0  0  0  0  0  0  0  0  0  # atno 17395 bound_to 11000

$$$$
