AV-unprocessed.smi:269|AV-procd|sdf|2042|dock6
  -GOLD-   2262021263D 1   1.00000     0.00000
 Structure written by MMmdl.
 62 65  0  0  0  0  0  0  0  0  2 V2000
  145.7350  129.2420  151.9958 C   0  0  0  0  0  0  0  0  0  0  0  0
  146.6040  128.9102  153.2161 C   0  0  0  0  0  0  0  0  0  0  0  0
  146.1857  129.6594  154.3955 N   0  0  0  0  0  0  0  0  0  0  0  0
  146.9680  130.4960  155.0941 C   0  0  0  0  0  0  0  0  0  0  0  0
  148.1388  130.7353  154.7966 O   0  0  0  0  0  0  0  0  0  0  0  0
  146.3218  131.1760  156.3057 C   0  0  0  0  0  0  0  0  0  0  0  0
  145.4340  132.3068  155.9317 N   0  3  0  0  0  0  0  0  0  0  0  0
  146.0908  133.2973  155.0365 C   0  0  0  0  0  0  0  0  0  0  0  0
  145.1033  134.3974  154.6102 C   0  0  0  0  0  0  0  0  0  0  0  0
  144.4970  135.0287  155.7793 N   0  0  0  0  0  0  0  0  0  0  0  0
  145.1477  136.1107  156.2859 C   0  0  0  0  0  0  0  0  0  0  0  0
  144.5245  136.9114  157.1913 N   0  0  0  0  0  0  0  0  0  0  0  0
  145.1558  137.9684  157.7095 C   0  0  0  0  0  0  0  0  0  0  0  0
  146.3918  138.4034  157.4630 N   0  0  0  0  0  0  0  0  0  0  0  0
  147.0207  137.6181  156.5432 C   0  0  0  0  0  0  0  0  0  0  0  0
  146.4776  136.4618  155.9134 C   0  0  0  0  0  0  0  0  0  0  0  0
  147.4107  135.9240  155.0354 N   0  0  0  0  0  0  0  0  0  0  0  0
  148.4488  136.7052  155.1523 C   0  0  0  0  0  0  0  0  0  0  0  0
  148.2968  137.7611  156.0235 N   0  0  0  0  0  0  0  0  0  0  0  0
  149.2902  138.7783  156.3447 C   0  0  0  0  0  0  0  0  0  0  0  0
  149.6815  139.7214  155.1619 C   0  0  0  0  0  0  0  0  0  0  0  0
  148.4221  140.2078  154.3963 C   0  0  0  0  0  0  0  0  0  0  0  0
  148.7523  140.9518  153.2402 O   0  0  0  0  0  0  0  0  0  0  0  0
  150.4455  140.9759  155.6560 C   0  0  0  0  0  0  0  0  0  0  0  0
  151.8661  140.6529  156.1549 C   0  0  0  0  0  0  0  0  0  0  0  0
  152.6042  140.0068  155.1262 O   0  0  0  0  0  0  0  0  0  0  0  0
  152.0351  138.7620  154.7420 C   0  0  0  0  0  0  0  0  0  0  0  0
  150.6204  138.9820  154.1754 C   0  0  0  0  0  0  0  0  0  0  0  0
  143.8527  134.0863  156.6946 C   0  0  0  0  0  0  0  0  0  0  0  0
  144.8150  132.9571  157.1152 C   0  0  0  0  0  0  0  0  0  0  0  0
  146.0419  128.6523  151.1318 H   0  0  0  0  0  0  0  0  0  0  0  0
  145.8175  130.2945  151.7225 H   0  0  0  0  0  0  0  0  0  0  0  0
  144.6837  129.0258  152.1889 H   0  0  0  0  0  0  0  0  0  0  0  0
  146.5266  127.8467  153.4437 H   0  0  0  0  0  0  0  0  0  0  0  0
  147.6554  129.1046  152.9976 H   0  0  0  0  0  0  0  0  0  0  0  0
  145.2333  129.5256  154.7043 H   0  0  0  0  0  0  0  0  0  0  0  0
  145.7405  130.4105  156.8214 H   0  0  0  0  0  0  0  0  0  0  0  0
  147.0843  131.5175  157.0082 H   0  0  0  0  0  0  0  0  0  0  0  0
  146.9435  133.7423  155.5521 H   0  0  0  0  0  0  0  0  0  0  0  0
  146.4826  132.8040  154.1468 H   0  0  0  0  0  0  0  0  0  0  0  0
  145.6145  135.1163  153.9720 H   0  0  0  0  0  0  0  0  0  0  0  0
  144.3073  133.9650  154.0028 H   0  0  0  0  0  0  0  0  0  0  0  0
  144.5903  138.5485  158.4240 H   0  0  0  0  0  0  0  0  0  0  0  0
  149.3579  136.5332  154.5948 H   0  0  0  0  0  0  0  0  0  0  0  0
  148.9142  139.3489  157.1929 H   0  0  0  0  0  0  0  0  0  0  0  0
  150.1764  138.2652  156.7199 H   0  0  0  0  0  0  0  0  0  0  0  0
  147.7870  139.3703  154.1083 H   0  0  0  0  0  0  0  0  0  0  0  0
  147.8078  140.8444  155.0345 H   0  0  0  0  0  0  0  0  0  0  0  0
  148.6388  140.3983  152.4830 H   0  0  0  0  0  0  0  0  0  0  0  0
  150.5383  141.6889  154.8355 H   0  0  0  0  0  0  0  0  0  0  0  0
  149.8841  141.4973  156.4306 H   0  0  0  0  0  0  0  0  0  0  0  0
  152.3813  141.5746  156.4253 H   0  0  0  0  0  0  0  0  0  0  0  0
  151.8504  140.0313  157.0499 H   0  0  0  0  0  0  0  0  0  0  0  0
  152.6714  138.3110  153.9803 H   0  0  0  0  0  0  0  0  0  0  0  0
  152.0275  138.0731  155.5872 H   0  0  0  0  0  0  0  0  0  0  0  0
  150.1910  138.0229  153.8836 H   0  0  0  0  0  0  0  0  0  0  0  0
  150.7127  139.5618  153.2559 H   0  0  0  0  0  0  0  0  0  0  0  0
  143.4515  134.5989  157.5698 H   0  0  0  0  0  0  0  0  0  0  0  0
  142.9927  133.6563  156.1800 H   0  0  0  0  0  0  0  0  0  0  0  0
  144.2682  132.2166  157.7001 H   0  0  0  0  0  0  0  0  0  0  0  0
  145.6021  133.3494  157.7606 H   0  0  0  0  0  0  0  0  0  0  0  0
  144.6727  131.9025  155.4047 H   0  0  0  0  0  0  0  0  0  0  0  0
  1  2  1  0  0  0  0
  1 31  1  0  0  0  0
  1 32  1  0  0  0  0
  1 33  1  0  0  0  0
  2  3  1  0  0  0  0
  2 34  1  0  0  0  0
  2 35  1  0  0  0  0
  3  4  1  0  0  0  0
  3 36  1  0  0  0  0
  4  5  2  0  0  0  0
  4  6  1  0  0  0  0
  6  7  1  0  0  0  0
  6 37  1  0  0  0  0
  6 38  1  0  0  0  0
  7 30  1  0  0  0  0
  7  8  1  0  0  0  0
  7 62  1  0  0  0  0
  8  9  1  0  0  0  0
  8 39  1  0  0  0  0
  8 40  1  0  0  0  0
  9 10  1  0  0  0  0
  9 41  1  0  0  0  0
  9 42  1  0  0  0  0
 10 11  1  0  0  0  0
 10 29  1  0  0  0  0
 11 16  1  0  0  0  0
 11 12  2  0  0  0  0
 12 13  1  0  0  0  0
 13 14  2  0  0  0  0
 13 43  1  0  0  0  0
 14 15  1  0  0  0  0
 15 19  1  0  0  0  0
 15 16  2  0  0  0  0
 16 17  1  0  0  0  0
 17 18  2  0  0  0  0
 18 19  1  0  0  0  0
 18 44  1  0  0  0  0
 19 20  1  0  0  0  0
 20 21  1  0  0  0  0
 20 45  1  0  0  0  0
 20 46  1  0  0  0  0
 21 28  1  0  0  0  0
 21 22  1  0  0  0  0
 21 24  1  0  0  0  0
 22 23  1  0  0  0  0
 22 47  1  0  0  0  0
 22 48  1  0  0  0  0
 23 49  1  0  0  0  0
 24 25  1  0  0  0  0
 24 50  1  0  0  0  0
 24 51  1  0  0  0  0
 25 26  1  0  0  0  0
 25 52  1  0  0  0  0
 25 53  1  0  0  0  0
 26 27  1  0  0  0  0
 27 28  1  0  0  0  0
 27 54  1  0  0  0  0
 27 55  1  0  0  0  0
 28 56  1  0  0  0  0
 28 57  1  0  0  0  0
 29 30  1  0  0  0  0
 29 58  1  0  0  0  0
 29 59  1  0  0  0  0
 30 60  1  0  0  0  0
 30 61  1  0  0  0  0
M  CHG  1   7   1
M  END
> <s_m_source_file>
AV-unprocessed.smi

> <i_m_source_file_index>
269

> <i_lp_mmshare_version>
43012

> <i_f3d_flags>
0

> <s_epik_input>
W0NIM11bQ0gyXVtOSF1DKD1PKVtDSDJdTjFbQ0gyXVtDSDJdTihbQ0gyXVtDSDJdMSljKG5bY0hdbjIpYyhjMjMpbltjSF1uM1tDSDJdQzQoW0NIMl1bT0hdKVtDSDJdW0NIMl1PW0NIMl1bQ0gyXTQ=

> <s_epik_cmdline>
J2VwaWtfcHl0aG9uJywgJy1waCcsICc3LjAnLCAnLXRuJywgJzgnLCAnLW1hJywgJzIwMCcsICctbWV0YWxfYmluZGluZycsICctaW1hZScsICc8aW5maWxlLm1hZT4nLCAnLW9tYWUnLCAnPG91dGZpbGUubWFlPic=

> <r_lp_tautomer_probability>
1

> <r_epik_Ionization_Penalty>
0.146524

> <r_epik_Ionization_Penalty_Charging>
0.146459

> <r_epik_Ionization_Penalty_Neutral>
6.45448e-05

> <r_epik_State_Penalty>
0.136576

> <r_epik_Charging_Adjusted_Penalty>
0.283035

> <i_epik_Tot_Q>
1

> <i_epik_Tot_abs_Q>
1

> <r_epik_Metal_State_Penalty>
0.148847

> <b_epik_Metal_Only>
0

> <s_lp_Force_Field>
OPLS_2005

> <r_lp_Energy>
42.6281

> <b_lp_Chiralities_Consistent>
1

> <s_lp_Variant>
AV-unprocessed.smi:269-1

> <Gold.Version>
5.8.1

> <Gold.Id.Protein>
6NUR|6NUR_protein|mol2

> <Gold.PLP.Fitness>
47.1682

> <Gold.PLP.PLP>
-29.4760

> <Gold.PLP.part.hbond>
-5.4889

> <Gold.PLP.part.metal>
0.0000

> <Gold.PLP.part.buried>
-3.4322

> <Gold.PLP.part.nonpolar>
-20.2646

> <Gold.PLP.part.repulsive>
0.1710

> <Gold.PLP.ligand.clash>
0.0000

> <Gold.PLP.ligand.torsion>
0.7163

> <Gold.PLP.Chemscore.Hbond>
5.8292

> <Gold.PLP.Chemscore.CHOScore>
0.3404

> <Gold.PLP.Chemscore.Metal>
0.0000

> <Gold.Chemscore.Hbonds>
donor molecule, donor type, donor heavy atom, donor atom, acceptor molecule, acceptor atom, score
      L1  H     3    36       P1 10956  1.00
      L1  H     7    62       P1 10957  1.82
      L1  H    23    49       P1  7957  0.67
      P1  H  7989  7998       L1    26  0.21
      P1  H  7997  8009       L1    26  1.00
      P1  H  8011  8017       L1    23  0.85
      L1  C    18    44       P1  7948  0.30

> <Gold.PLP.Chemscore.Internal.Correction>
0.6160

> <Gold.Rescore>
     Score         DG    S(hbond)    S(metal)    S(lipo)     H(rot)  DE(clash)    DE(int)     intcor
     12.90     -16.57       3.68        0.00      63.65       3.37       0.15       3.52       ----

> <Gold.Chemscore.Fitness>
12.9024

> <Gold.Chemscore.DG>
-16.5688

> <Gold.Chemscore.ZeroCoef>
-5.4800

> <Gold.Chemscore.Hbond>
3.6761

> <Gold.Chemscore.Metal>
0.0000

> <Gold.Chemscore.Lipo>
63.6540

> <Gold.Chemscore.Internal_Hbond>
0.0000

> <Gold.Chemscore.DEClash>
0.1497

> <Gold.Chemscore.DEInternal>
3.5167

> <Gold.Chemscore.Rot>
3.3738

> <Gold.Chemscore.Internal.Correction>
   9.000000E+99

> <Gold.Chemscore.Hbonds>
donor molecule, donor type, donor heavy atom, donor atom, acceptor molecule, acceptor atom, score
      L1  H     3    36       P1 10956  0.97
      L1  H     7    62       P1 10957  0.39
      L1  H    23    49       P1  7957  0.68
      P1  H  7997  8009       L1    26  0.28
      P1  H  8011  8017       L1    23  0.14

> <Gold.Chemscore.Hbond.Weighted>
-12.2781

> <Gold.Chemscore.Metal.Weighted>
-0.0000

> <Gold.Chemscore.Lipo.Weighted>
-7.4475

> <Gold.Chemscore.Internal_Hbond.Weighted>
0.0000

> <Gold.Chemscore.DEClash.Weighted>
0.1497

> <Gold.Chemscore.DEInternal.Weighted>
3.5167

> <Gold.Chemscore.Rot.Weighted>
8.6369

> <Gold.Chemscore.Internal.Correction.Weighted>
   9.000000E+99

> <Gold.Protein.RotatedTorsions>
[ 6907 6896 6895 6894 ] final  -15.24 input  -60.11 | X-H torsion
[ 7974 7965 7964 7962 ] final  -14.31 input  175.53 | X-H torsion
[ 8008 7997 7996 7995 ] final -129.19 input   59.86 | X-H torsion
[ 10167 10162 10161 10158 ] final  -40.26 input  -65.29 | X-H torsion
[ 10718 10713 10712 10709 ] final  -65.72 input   66.30 | X-H torsion
[ 10763 10752 10751 10750 ] final  -19.81 input  -60.55 | X-H torsion
[ 11005 11000 10999 10996 ] final   42.69 input  -57.11 | X-H torsion

> <Gold.Protein.ActiveResidues>
 VAL166  LYS551  ARG553  GLY616  TRP617  ASP618  TYR619  PRO620  LYS621  CYS622 
 ASP623  PHE694  ASN695  SER759  ASP760  ASP761  ALA762  ILE779  LEU786  VAL792 
 PHE793  MET794  SER795  GLU796  ALA797  LYS798  CYS799  TRP800  GLU811  SER814 

> <Gold.Protein.RotatedAtoms>
  151.3270  135.0832  159.9325 H   0  0  0  0  0  0  0  0  0  0  0  0  # atno 6907 bound_to 6896
  152.5243  133.9581  159.7714 H   0  0  0  0  0  0  0  0  0  0  0  0  # atno 6908 bound_to 6896
  150.9913  133.6094  159.2738 H   0  0  0  0  0  0  0  0  0  0  0  0  # atno 6909 bound_to 6896
  146.2079  140.3330  142.8401 H   0  0  0  0  0  0  0  0  0  0  0  0  # atno 7974 bound_to 7965
  155.2751  140.0441  157.3010 H   0  0  0  0  0  0  0  0  0  0  0  0  # atno 8008 bound_to 7997
  154.5630  140.2351  155.8275 H   0  0  0  0  0  0  0  0  0  0  0  0  # atno 8009 bound_to 7997
  156.2062  140.3012  155.9640 H   0  0  0  0  0  0  0  0  0  0  0  0  # atno 8010 bound_to 7997
  140.7040  143.3164  151.2899 H   0  0  0  0  0  0  0  0  0  0  0  0  # atno 10167 bound_to 10162
  156.0653  130.4251  150.1605 H   0  0  0  0  0  0  0  0  0  0  0  0  # atno 10718 bound_to 10713
  153.6105  135.6996  153.5348 H   0  0  0  0  0  0  0  0  0  0  0  0  # atno 10763 bound_to 10752
  153.3020  135.4126  155.1261 H   0  0  0  0  0  0  0  0  0  0  0  0  # atno 10764 bound_to 10752
  154.8564  135.3651  154.5644 H   0  0  0  0  0  0  0  0  0  0  0  0  # atno 10765 bound_to 10752
  140.1715  134.4216  155.8254 H   0  0  0  0  0  0  0  0  0  0  0  0  # atno 11005 bound_to 11000
  144.8839  140.7436  143.5969 LP  0  0  0  0  0  0  0  0  0  0  0  0  # atno 17320 bound_to 7965
  145.3251  139.1776  143.4567 LP  0  0  0  0  0  0  0  0  0  0  0  0  # atno 17321 bound_to 7965
  139.6604  144.0199  152.2688 LP  0  0  0  0  0  0  0  0  0  0  0  0  # atno 17342 bound_to 10162
  139.9765  144.6458  150.7940 LP  0  0  0  0  0  0  0  0  0  0  0  0  # atno 17343 bound_to 10162
  156.9666  130.9821  151.3468 LP  0  0  0  0  0  0  0  0  0  0  0  0  # atno 17370 bound_to 10713
  157.5691  130.8298  149.8367 LP  0  0  0  0  0  0  0  0  0  0  0  0  # atno 17371 bound_to 10713
  141.2217  133.6958  156.7772 LP  0  0  0  0  0  0  0  0  0  0  0  0  # atno 17394 bound_to 11000
  140.2371  134.8641  157.3536 LP  0  0  0  0  0  0  0  0  0  0  0  0  # atno 17395 bound_to 11000

$$$$
