AV-unprocessed.smi:1890|AV-procd|sdf|7663|dock4
  -GOLD-   22720 9403D 1   1.00000     0.00000
 Structure written by MMmdl.
 52 53  0  0  0  0  0  0  0  0  2 V2000
  151.0295  144.7883  158.2677 C   0  0  0  0  0  0  0  0  0  0  0  0
  151.3409  144.0275  156.9712 C   0  0  0  0  0  0  0  0  0  0  0  0
  151.6073  142.6005  157.1818 N   0  0  0  0  0  0  0  0  0  0  0  0
  151.9057  142.1210  158.5339 C   0  0  0  0  0  0  0  0  0  0  0  0
  153.1161  142.8272  159.1626 C   0  0  0  0  0  0  0  0  0  0  0  0
  150.9260  141.6848  156.3473 C   0  0  0  0  0  0  0  0  0  0  0  0
  151.4197  140.3855  156.0792 C   0  0  0  0  0  0  0  0  0  0  0  0
  150.6906  139.5151  155.2430 C   0  0  0  0  0  0  0  0  0  0  0  0
  149.4678  139.9390  154.6820 C   0  0  0  0  0  0  0  0  0  0  0  0
  148.7781  139.0291  153.8340 N   0  0  0  0  0  0  0  0  0  0  0  0
  147.4658  138.9751  153.5461 C   0  0  0  0  0  0  0  0  0  0  0  0
  146.6036  139.7075  154.0297 O   0  0  0  0  0  0  0  0  0  0  0  0
  147.2066  137.9982  152.6618 N   0  0  0  0  0  0  0  0  0  0  0  0
  145.9064  137.6292  152.0975 C   0  0  0  0  0  0  0  0  0  0  0  0
  144.7761  137.6273  153.1557 C   0  0  0  0  0  0  0  0  0  0  0  0
  143.4426  137.1797  152.5311 C   0  0  0  0  0  0  0  0  0  0  0  0
  143.6316  135.8630  151.9078 N   0  0  0  0  0  0  0  0  0  0  0  0
  143.1429  134.6930  152.3850 C   0  0  0  0  0  0  0  0  0  0  0  0
  143.4815  133.3889  151.6593 C   0  0  0  0  0  0  0  0  0  0  0  0
  142.4257  134.6294  153.3833 O   0  0  0  0  0  0  0  0  0  0  0  0
  144.5601  135.9287  150.7724 C   0  0  0  0  0  0  0  0  0  0  0  0
  145.9574  136.3046  151.2984 C   0  0  0  0  0  0  0  0  0  0  0  0
  149.0210  141.2505  154.9710 C   0  0  0  0  0  0  0  0  0  0  0  0
  149.7522  142.0511  155.7758 N   0  3  0  0  0  0  0  0  0  0  0  0
  150.9430  145.8569  158.0701 H   0  0  0  0  0  0  0  0  0  0  0  0
  151.8200  144.6526  159.0063 H   0  0  0  0  0  0  0  0  0  0  0  0
  150.0876  144.4671  158.7121 H   0  0  0  0  0  0  0  0  0  0  0  0
  150.5205  144.1452  156.2624 H   0  0  0  0  0  0  0  0  0  0  0  0
  152.2147  144.4993  156.5206 H   0  0  0  0  0  0  0  0  0  0  0  0
  151.0431  142.2351  159.1877 H   0  0  0  0  0  0  0  0  0  0  0  0
  152.0901  141.0481  158.5030 H   0  0  0  0  0  0  0  0  0  0  0  0
  153.2990  142.4514  160.1694 H   0  0  0  0  0  0  0  0  0  0  0  0
  152.9561  143.9033  159.2365 H   0  0  0  0  0  0  0  0  0  0  0  0
  154.0234  142.6602  158.5815 H   0  0  0  0  0  0  0  0  0  0  0  0
  152.3592  140.0486  156.4904 H   0  0  0  0  0  0  0  0  0  0  0  0
  151.0738  138.5265  155.0358 H   0  0  0  0  0  0  0  0  0  0  0  0
  149.3516  138.3149  153.4097 H   0  0  0  0  0  0  0  0  0  0  0  0
  147.9918  137.4528  152.3376 H   0  0  0  0  0  0  0  0  0  0  0  0
  145.6694  138.4192  151.3835 H   0  0  0  0  0  0  0  0  0  0  0  0
  145.0174  136.9546  153.9791 H   0  0  0  0  0  0  0  0  0  0  0  0
  144.6679  138.6214  153.5905 H   0  0  0  0  0  0  0  0  0  0  0  0
  142.6553  137.1980  153.2832 H   0  0  0  0  0  0  0  0  0  0  0  0
  143.1306  137.8950  151.7687 H   0  0  0  0  0  0  0  0  0  0  0  0
  143.1458  133.4246  150.6224 H   0  0  0  0  0  0  0  0  0  0  0  0
  142.9874  132.5434  152.1390 H   0  0  0  0  0  0  0  0  0  0  0  0
  144.5555  133.2020  151.6794 H   0  0  0  0  0  0  0  0  0  0  0  0
  144.6124  134.9931  150.2140 H   0  0  0  0  0  0  0  0  0  0  0  0
  144.2112  136.6788  150.0612 H   0  0  0  0  0  0  0  0  0  0  0  0
  146.6564  136.3943  150.4664 H   0  0  0  0  0  0  0  0  0  0  0  0
  146.3244  135.4904  151.9240 H   0  0  0  0  0  0  0  0  0  0  0  0
  148.1191  141.7032  154.5887 H   0  0  0  0  0  0  0  0  0  0  0  0
  149.3981  142.9889  155.9645 H   0  0  0  0  0  0  0  0  0  0  0  0
  1  2  1  0  0  0  0
  1 25  1  0  0  0  0
  1 26  1  0  0  0  0
  1 27  1  0  0  0  0
  2  3  1  0  0  0  0
  2 28  1  0  0  0  0
  2 29  1  0  0  0  0
  3  4  1  0  0  0  0
  3  6  1  0  0  0  0
  4  5  1  0  0  0  0
  4 30  1  0  0  0  0
  4 31  1  0  0  0  0
  5 32  1  0  0  0  0
  5 33  1  0  0  0  0
  5 34  1  0  0  0  0
  6 24  1  0  0  0  0
  6  7  2  0  0  0  0
  7  8  1  0  0  0  0
  7 35  1  0  0  0  0
  8  9  2  0  0  0  0
  8 36  1  0  0  0  0
  9 10  1  0  0  0  0
  9 23  1  0  0  0  0
 10 11  1  0  0  0  0
 10 37  1  0  0  0  0
 11 12  2  0  0  0  0
 11 13  1  0  0  0  0
 13 14  1  0  0  0  0
 13 38  1  0  0  0  0
 14 22  1  0  0  0  0
 14 15  1  0  0  0  0
 14 39  1  0  0  0  0
 15 16  1  0  0  0  0
 15 40  1  0  0  0  0
 15 41  1  0  0  0  0
 16 17  1  0  0  0  0
 16 42  1  0  0  0  0
 16 43  1  0  0  0  0
 17 18  1  0  0  0  0
 17 21  1  0  0  0  0
 18 19  1  0  0  0  0
 18 20  2  0  0  0  0
 19 44  1  0  0  0  0
 19 45  1  0  0  0  0
 19 46  1  0  0  0  0
 21 22  1  0  0  0  0
 21 47  1  0  0  0  0
 21 48  1  0  0  0  0
 22 49  1  0  0  0  0
 22 50  1  0  0  0  0
 23 24  2  0  0  0  0
 23 51  1  0  0  0  0
 24 52  1  0  0  0  0
M  CHG  1  24   1
M  END
> <s_m_source_file>
AV-unprocessed.smi

> <i_m_source_file_index>
1890

> <i_lp_mmshare_version>
43012

> <i_f3d_flags>
0

> <s_epik_input>
W0NIM11bQ0gyXU4oW0NIMl1bQ0gzXSljMVtjSF1bY0hdYyhbY0hdbjEpW05IXUMoPU8pW05IXVtDSF0yW0NIMl1bQ0gyXU4oQyg9TylbQ0gzXSlbQ0gyXVtDSDJdMg==

> <s_epik_cmdline>
J2VwaWtfcHl0aG9uJywgJy1waCcsICc3LjAnLCAnLXRuJywgJzgnLCAnLW1hJywgJzIwMCcsICctbWV0YWxfYmluZGluZycsICctaW1hZScsICc8aW5maWxlLm1hZT4nLCAnLW9tYWUnLCAnPG91dGZpbGUubWFlPic=

> <r_lp_tautomer_probability>
0.999994

> <r_epik_Ionization_Penalty>
0.22788

> <r_epik_Ionization_Penalty_Charging>
0.227859

> <r_epik_Ionization_Penalty_Neutral>
2.12958e-05

> <r_epik_State_Penalty>
0.0148833

> <r_epik_Charging_Adjusted_Penalty>
0.242742

> <i_epik_Tot_Q>
1

> <i_epik_Tot_abs_Q>
1

> <r_epik_Metal_State_Penalty>
0.0452648

> <b_epik_Metal_Only>
0

> <s_lp_Force_Field>
OPLS_2005

> <r_lp_Energy>
37.6565

> <b_lp_Chiralities_Consistent>
1

> <s_lp_Variant>
AV-unprocessed.smi:1890-1

> <Gold.Version>
5.8.1

> <Gold.Id.Protein>
6NUR|6NUR_protein|mol2

> <Gold.PLP.Fitness>
50.4530

> <Gold.PLP.PLP>
-43.0691

> <Gold.PLP.part.hbond>
-3.0000

> <Gold.PLP.part.metal>
0.0000

> <Gold.PLP.part.buried>
0.9510

> <Gold.PLP.part.nonpolar>
-42.2336

> <Gold.PLP.part.repulsive>
0.5550

> <Gold.PLP.ligand.clash>
0.0000

> <Gold.PLP.ligand.torsion>
1.2912

> <Gold.PLP.Chemscore.Hbond>
3.0000

> <Gold.PLP.Chemscore.CHOScore>
0.0000

> <Gold.PLP.Chemscore.Metal>
0.0000

> <Gold.Chemscore.Hbonds>
donor molecule, donor type, donor heavy atom, donor atom, acceptor molecule, acceptor atom, score
      L1  H    13    38       P1  7948  1.00
      L1  H    24    52       P1  8028  2.00

> <Gold.PLP.Chemscore.Internal.Correction>
0.9662

> <Gold.Rescore>
     Score         DG    S(hbond)    S(metal)    S(lipo)     H(rot)  DE(clash)    DE(int)     intcor
     16.39     -20.22       1.98        0.00      98.90       1.35       1.17       2.66       ----

> <Gold.Chemscore.Fitness>
16.3900

> <Gold.Chemscore.DG>
-20.2230

> <Gold.Chemscore.ZeroCoef>
-5.4800

> <Gold.Chemscore.Hbond>
1.9824

> <Gold.Chemscore.Metal>
0.0000

> <Gold.Chemscore.Lipo>
98.9048

> <Gold.Chemscore.Internal_Hbond>
0.0000

> <Gold.Chemscore.DEClash>
1.1702

> <Gold.Chemscore.DEInternal>
2.6627

> <Gold.Chemscore.Rot>
1.3477

> <Gold.Chemscore.Internal.Correction>
   9.000000E+99

> <Gold.Chemscore.Hbonds>
donor molecule, donor type, donor heavy atom, donor atom, acceptor molecule, acceptor atom, score
      L1  H    13    38       P1  7948  0.99
      L1  H    24    52       P1  8028  0.99

> <Gold.Chemscore.Hbond.Weighted>
-6.6213

> <Gold.Chemscore.Metal.Weighted>
-0.0000

> <Gold.Chemscore.Lipo.Weighted>
-11.5719

> <Gold.Chemscore.Internal_Hbond.Weighted>
0.0000

> <Gold.Chemscore.DEClash.Weighted>
1.1702

> <Gold.Chemscore.DEInternal.Weighted>
2.6627

> <Gold.Chemscore.Rot.Weighted>
3.4502

> <Gold.Chemscore.Internal.Correction.Weighted>
   9.000000E+99

> <Gold.Protein.RotatedTorsions>
[ 6907 6896 6895 6894 ] final  139.12 input  -60.11 | X-H torsion
[ 7974 7965 7964 7962 ] final   -5.24 input  175.53 | X-H torsion
[ 8008 7997 7996 7995 ] final  123.34 input   59.86 | X-H torsion
[ 10167 10162 10161 10158 ] final   77.21 input  -65.29 | X-H torsion
[ 10718 10713 10712 10709 ] final  123.67 input   66.30 | X-H torsion
[ 10763 10752 10751 10750 ] final  -66.27 input  -60.55 | X-H torsion
[ 11005 11000 10999 10996 ] final   50.13 input  -57.11 | X-H torsion

> <Gold.Protein.ActiveResidues>
 VAL166  LYS551  ARG553  GLY616  TRP617  ASP618  TYR619  PRO620  LYS621  CYS622 
 ASP623  PHE694  ASN695  SER759  ASP760  ASP761  ALA762  ILE779  LEU786  VAL792 
 PHE793  MET794  SER795  GLU796  ALA797  LYS798  CYS799  TRP800  GLU811  SER814 

> <Gold.Protein.RotatedAtoms>
  152.2587  133.5278  159.5368 H   0  0  0  0  0  0  0  0  0  0  0  0  # atno 6907 bound_to 6896
  150.7118  134.0860  159.3924 H   0  0  0  0  0  0  0  0  0  0  0  0  # atno 6908 bound_to 6896
  151.8778  135.0465  160.0536 H   0  0  0  0  0  0  0  0  0  0  0  0  # atno 6909 bound_to 6896
  146.2357  140.1992  142.8333 H   0  0  0  0  0  0  0  0  0  0  0  0  # atno 7974 bound_to 7965
  156.2762  140.2765  156.1613 H   0  0  0  0  0  0  0  0  0  0  0  0  # atno 8008 bound_to 7997
  155.0751  140.0387  157.2639 H   0  0  0  0  0  0  0  0  0  0  0  0  # atno 8009 bound_to 7997
  154.7009  140.2649  155.6726 H   0  0  0  0  0  0  0  0  0  0  0  0  # atno 8010 bound_to 7997
  139.9840  144.5805  150.7875 H   0  0  0  0  0  0  0  0  0  0  0  0  # atno 10167 bound_to 10162
  157.5646  131.1087  150.8477 H   0  0  0  0  0  0  0  0  0  0  0  0  # atno 10718 bound_to 10713
  154.3573  135.6123  153.5673 H   0  0  0  0  0  0  0  0  0  0  0  0  # atno 10763 bound_to 10752
  152.9795  135.5807  154.4674 H   0  0  0  0  0  0  0  0  0  0  0  0  # atno 10764 bound_to 10752
  154.4405  135.2850  155.1828 H   0  0  0  0  0  0  0  0  0  0  0  0  # atno 10765 bound_to 10752
  140.1044  134.5038  155.8733 H   0  0  0  0  0  0  0  0  0  0  0  0  # atno 11005 bound_to 11000
  144.9796  140.8446  143.5405 LP  0  0  0  0  0  0  0  0  0  0  0  0  # atno 17320 bound_to 7965
  145.1983  139.2265  143.5206 LP  0  0  0  0  0  0  0  0  0  0  0  0  # atno 17321 bound_to 7965
  140.7479  143.2913  151.3323 LP  0  0  0  0  0  0  0  0  0  0  0  0  # atno 17342 bound_to 10162
  139.6388  144.0578  152.2538 LP  0  0  0  0  0  0  0  0  0  0  0  0  # atno 17343 bound_to 10162
  156.8965  130.5231  149.5284 LP  0  0  0  0  0  0  0  0  0  0  0  0  # atno 17370 bound_to 10713
  156.0695  130.5731  150.9356 LP  0  0  0  0  0  0  0  0  0  0  0  0  # atno 17371 bound_to 10713
  141.2114  133.6706  156.6581 LP  0  0  0  0  0  0  0  0  0  0  0  0  # atno 17394 bound_to 11000
  140.3176  134.8034  157.4227 LP  0  0  0  0  0  0  0  0  0  0  0  0  # atno 17395 bound_to 11000

$$$$
