AV-unprocessed.smi:332|AV-procd|sdf|2352|dock9
  -GOLD-   2262022263D 1   1.00000     0.00000
 Structure written by MMmdl.
 42 44  0  0  0  0  0  0  0  0  1 V2000
  150.5941  140.8687  157.0822 C   0  0  0  0  0  0  0  0  0  0  0  0
  151.7830  140.8880  158.0570 C   0  0  2  0  0  0  0  0  0  0  0  0
  151.9573  139.5389  158.5926 N   0  0  0  0  0  0  0  0  0  0  0  0
  153.1293  138.9449  158.8673 C   0  0  0  0  0  0  0  0  0  0  0  0
  154.2233  139.4717  158.6621 O   0  0  0  0  0  0  0  0  0  0  0  0
  153.0451  137.5319  159.4598 C   0  0  0  0  0  0  0  0  0  0  0  0
  153.7550  137.4100  160.7438 N   0  0  0  0  0  0  0  0  0  0  0  0
  153.9435  138.5903  161.4897 C   0  0  0  0  0  0  0  0  0  0  0  0
  154.5737  138.5884  162.6749 C   0  0  0  0  0  0  0  0  0  0  0  0
  155.0659  137.3302  163.1843 C   0  0  0  0  0  0  0  0  0  0  0  0
  154.8882  136.1946  162.4805 C   0  0  0  0  0  0  0  0  0  0  0  0
  154.1983  136.1918  161.1851 C   0  0  0  0  0  0  0  0  0  0  0  0
  154.0296  135.1584  160.5366 O   0  0  0  0  0  0  0  0  0  0  0  0
  151.5810  141.9054  159.2091 C   0  0  2  0  0  0  0  0  0  0  0  0
  151.1230  143.3018  158.7207 C   0  0  0  0  0  0  0  0  0  0  0  0
  152.1569  144.2549  159.3457 C   0  0  1  0  0  0  0  0  0  0  0  0
  151.9477  144.3138  160.8695 C   0  0  0  0  0  0  0  0  0  0  0  0
  152.4604  142.9379  161.3323 C   0  0  0  0  0  0  0  0  0  0  0  0
  152.8632  142.2611  160.0081 C   0  0  2  0  0  0  0  0  0  0  0  0
  153.4373  143.4390  159.2286 C   0  0  0  0  0  0  0  0  0  0  0  0
  150.4434  141.8400  156.6117 H   0  0  0  0  0  0  0  0  0  0  0  0
  149.6677  140.6008  157.5917 H   0  0  0  0  0  0  0  0  0  0  0  0
  150.7550  140.1445  156.2829 H   0  0  0  0  0  0  0  0  0  0  0  0
  152.6673  141.1769  157.4869 H   0  0  0  0  0  0  0  0  0  0  0  0
  151.1132  139.0223  158.7927 H   0  0  0  0  0  0  0  0  0  0  0  0
  151.9996  137.2434  159.5851 H   0  0  0  0  0  0  0  0  0  0  0  0
  153.4488  136.8333  158.7260 H   0  0  0  0  0  0  0  0  0  0  0  0
  153.5397  139.4876  161.0436 H   0  0  0  0  0  0  0  0  0  0  0  0
  154.7049  139.5028  163.2344 H   0  0  0  0  0  0  0  0  0  0  0  0
  155.5771  137.2990  164.1352 H   0  0  0  0  0  0  0  0  0  0  0  0
  155.2616  135.2624  162.8786 H   0  0  0  0  0  0  0  0  0  0  0  0
  150.8378  141.4929  159.8938 H   0  0  0  0  0  0  0  0  0  0  0  0
  151.1642  143.3802  157.6335 H   0  0  0  0  0  0  0  0  0  0  0  0
  150.1030  143.5343  159.0287 H   0  0  0  0  0  0  0  0  0  0  0  0
  152.1902  145.2355  158.8700 H   0  0  0  0  0  0  0  0  0  0  0  0
  152.5411  145.1134  161.3146 H   0  0  0  0  0  0  0  0  0  0  0  0
  150.9036  144.4815  161.1363 H   0  0  0  0  0  0  0  0  0  0  0  0
  153.3265  143.0536  161.9855 H   0  0  0  0  0  0  0  0  0  0  0  0
  151.7058  142.3719  161.8797 H   0  0  0  0  0  0  0  0  0  0  0  0
  153.5569  141.4347  160.1594 H   0  0  0  0  0  0  0  0  0  0  0  0
  153.7050  143.1927  158.1999 H   0  0  0  0  0  0  0  0  0  0  0  0
  154.2942  143.9049  159.7182 H   0  0  0  0  0  0  0  0  0  0  0  0
  1  2  1  0  0  0  0
  1 21  1  0  0  0  0
  1 22  1  0  0  0  0
  1 23  1  0  0  0  0
  2  3  1  0  0  0  0
  2 14  1  0  0  0  0
  2 24  1  0  0  0  0
  3  4  1  0  0  0  0
  3 25  1  0  0  0  0
  4  5  2  0  0  0  0
  4  6  1  0  0  0  0
  6  7  1  0  0  0  0
  6 26  1  0  0  0  0
  6 27  1  0  0  0  0
  7 12  1  0  0  0  0
  7  8  1  0  0  0  0
  8  9  2  0  0  0  0
  8 28  1  0  0  0  0
  9 10  1  0  0  0  0
  9 29  1  0  0  0  0
 10 11  2  0  0  0  0
 10 30  1  0  0  0  0
 11 12  1  0  0  0  0
 11 31  1  0  0  0  0
 12 13  2  0  0  0  0
 14 19  1  0  0  0  0
 14 15  1  0  0  0  0
 14 32  1  0  0  0  0
 15 16  1  0  0  0  0
 15 33  1  0  0  0  0
 15 34  1  0  0  0  0
 16 20  1  0  0  0  0
 16 17  1  0  0  0  0
 16 35  1  0  0  0  0
 17 18  1  0  0  0  0
 17 36  1  0  0  0  0
 17 37  1  0  0  0  0
 18 19  1  0  0  0  0
 18 38  1  0  0  0  0
 18 39  1  0  0  0  0
 19 20  1  0  0  0  0
 19 40  1  0  0  0  0
 20 41  1  0  0  0  0
 20 42  1  0  0  0  0
M  END
> <s_m_source_file>
AV-unprocessed.smi

> <i_m_source_file_index>
332

> <i_lp_mmshare_version>
43012

> <i_f3d_flags>
0

> <s_epik_input>
W0NIMl0xW0NIMl1bQ0BIXShbQ0gyXTIpW0NAQEhdKFtDSDJdW0NAQEhdMTIpW0NASF0oW0NIM10pW05IXUMoPU8pW0NIMl1uM1tjSF1bY0hdW2NIXVtjSF1jMz1P

> <s_epik_cmdline>
J2VwaWtfcHl0aG9uJywgJy1waCcsICc3LjAnLCAnLXRuJywgJzgnLCAnLW1hJywgJzIwMCcsICctbWV0YWxfYmluZGluZycsICctaW1hZScsICc8aW5maWxlLm1hZT4nLCAnLW9tYWUnLCAnPG91dGZpbGUubWFlPic=

> <r_lp_tautomer_probability>
1

> <r_epik_Ionization_Penalty>
4.05802e-07

> <r_epik_Ionization_Penalty_Charging>
3.84175e-07

> <r_epik_Ionization_Penalty_Neutral>
2.16269e-08

> <r_epik_State_Penalty>
-0

> <r_epik_Charging_Adjusted_Penalty>
3.84175e-07

> <i_epik_Tot_Q>
0

> <i_epik_Tot_abs_Q>
0

> <r_epik_Metal_State_Penalty>
-0

> <b_epik_Metal_Only>
0

> <s_lp_Force_Field>
OPLS_2005

> <r_lp_Energy>
59.6993

> <b_lp_Chiralities_Consistent>
1

> <s_lp_Variant>
AV-unprocessed.smi:332-1

> <Gold.Version>
5.8.1

> <Gold.Id.Protein>
6NUR|6NUR_protein|mol2

> <Gold.PLP.Fitness>
44.8372

> <Gold.PLP.PLP>
-40.5618

> <Gold.PLP.part.hbond>
-2.0000

> <Gold.PLP.part.metal>
0.0000

> <Gold.PLP.part.buried>
-4.2755

> <Gold.PLP.part.nonpolar>
-33.5351

> <Gold.PLP.part.repulsive>
0.1025

> <Gold.PLP.ligand.clash>
0.0000

> <Gold.PLP.ligand.torsion>
0.8712

> <Gold.PLP.Chemscore.Hbond>
2.0000

> <Gold.PLP.Chemscore.CHOScore>
0.0000

> <Gold.PLP.Chemscore.Metal>
0.0000

> <Gold.Chemscore.Hbonds>
donor molecule, donor type, donor heavy atom, donor atom, acceptor molecule, acceptor atom, score
      P1  H  6896  6907       L1    13  1.00
      P1  H  7997  8010       L1     5  1.00

> <Gold.PLP.Chemscore.Internal.Correction>
0.0179

> <Gold.Rescore>
     Score         DG    S(hbond)    S(metal)    S(lipo)     H(rot)  DE(clash)    DE(int)     intcor
     21.06     -22.71       1.98        0.00     124.52       1.54       0.16       1.49       ----

> <Gold.Chemscore.Fitness>
21.0560

> <Gold.Chemscore.DG>
-22.7128

> <Gold.Chemscore.ZeroCoef>
-5.4800

> <Gold.Chemscore.Hbond>
1.9779

> <Gold.Chemscore.Metal>
0.0000

> <Gold.Chemscore.Lipo>
124.5161

> <Gold.Chemscore.Internal_Hbond>
0.0000

> <Gold.Chemscore.DEClash>
0.1619

> <Gold.Chemscore.DEInternal>
1.4949

> <Gold.Chemscore.Rot>
1.5398

> <Gold.Chemscore.Internal.Correction>
   9.000000E+99

> <Gold.Chemscore.Hbonds>
donor molecule, donor type, donor heavy atom, donor atom, acceptor molecule, acceptor atom, score
      P1  H  6896  6907       L1    13  0.98
      P1  H  7997  8010       L1     5  1.00

> <Gold.Chemscore.Hbond.Weighted>
-6.6063

> <Gold.Chemscore.Metal.Weighted>
-0.0000

> <Gold.Chemscore.Lipo.Weighted>
-14.5684

> <Gold.Chemscore.Internal_Hbond.Weighted>
0.0000

> <Gold.Chemscore.DEClash.Weighted>
0.1619

> <Gold.Chemscore.DEInternal.Weighted>
1.4949

> <Gold.Chemscore.Rot.Weighted>
3.9419

> <Gold.Chemscore.Internal.Correction.Weighted>
   9.000000E+99

> <Gold.Protein.RotatedTorsions>
[ 6907 6896 6895 6894 ] final   60.54 input  -60.11 | X-H torsion
[ 7974 7965 7964 7962 ] final -132.38 input  175.53 | X-H torsion
[ 8008 7997 7996 7995 ] final    3.37 input   59.86 | X-H torsion
[ 10167 10162 10161 10158 ] final  112.08 input  -65.29 | X-H torsion
[ 10718 10713 10712 10709 ] final  -72.57 input   66.30 | X-H torsion
[ 10763 10752 10751 10750 ] final  159.36 input  -60.55 | X-H torsion
[ 11005 11000 10999 10996 ] final   -3.46 input  -57.11 | X-H torsion

> <Gold.Protein.ActiveResidues>
 VAL166  LYS551  ARG553  GLY616  TRP617  ASP618  TYR619  PRO620  LYS621  CYS622 
 ASP623  PHE694  ASN695  SER759  ASP760  ASP761  ALA762  ILE779  LEU786  VAL792 
 PHE793  MET794  SER795  GLU796  ALA797  LYS798  CYS799  TRP800  GLU811  SER814 

> <Gold.Protein.RotatedAtoms>
  152.4012  134.6283  160.0068 H   0  0  0  0  0  0  0  0  0  0  0  0  # atno 6907 bound_to 6896
  151.6488  133.3316  159.3155 H   0  0  0  0  0  0  0  0  0  0  0  0  # atno 6908 bound_to 6896
  150.7912  134.6979  159.6578 H   0  0  0  0  0  0  0  0  0  0  0  0  # atno 6909 bound_to 6896
  144.9291  140.7106  143.4917 H   0  0  0  0  0  0  0  0  0  0  0  0  # atno 7974 bound_to 7965
  154.7028  140.2676  155.6703 H   0  0  0  0  0  0  0  0  0  0  0  0  # atno 8008 bound_to 7997
  156.2770  140.2769  156.1568 H   0  0  0  0  0  0  0  0  0  0  0  0  # atno 8009 bound_to 7997
  155.0741  140.0372  157.2608 H   0  0  0  0  0  0  0  0  0  0  0  0  # atno 8010 bound_to 7997
  139.6562  144.7129  151.1952 H   0  0  0  0  0  0  0  0  0  0  0  0  # atno 10167 bound_to 10162
  156.0315  130.4375  150.2613 H   0  0  0  0  0  0  0  0  0  0  0  0  # atno 10718 bound_to 10713
  154.2306  135.2778  155.2891 H   0  0  0  0  0  0  0  0  0  0  0  0  # atno 10763 bound_to 10752
  154.5627  135.5642  153.7025 H   0  0  0  0  0  0  0  0  0  0  0  0  # atno 10764 bound_to 10752
  153.0021  135.6302  154.2448 H   0  0  0  0  0  0  0  0  0  0  0  0  # atno 10765 bound_to 10752
  140.6696  133.9248  155.8486 H   0  0  0  0  0  0  0  0  0  0  0  0  # atno 11005 bound_to 11000
  145.3171  139.1800  143.4607 LP  0  0  0  0  0  0  0  0  0  0  0  0  # atno 17320 bound_to 7965
  146.3239  140.3184  142.8631 LP  0  0  0  0  0  0  0  0  0  0  0  0  # atno 17321 bound_to 7965
  140.7560  143.6068  150.8645 LP  0  0  0  0  0  0  0  0  0  0  0  0  # atno 17342 bound_to 10162
  139.9721  143.6045  152.2970 LP  0  0  0  0  0  0  0  0  0  0  0  0  # atno 17343 bound_to 10162
  157.0715  131.0118  151.3188 LP  0  0  0  0  0  0  0  0  0  0  0  0  # atno 17370 bound_to 10713
  157.4996  130.7872  149.7591 LP  0  0  0  0  0  0  0  0  0  0  0  0  # atno 17371 bound_to 10713
  141.0402  134.0632  157.3910 LP  0  0  0  0  0  0  0  0  0  0  0  0  # atno 17394 bound_to 11000
  139.8986  135.0155  156.7156 LP  0  0  0  0  0  0  0  0  0  0  0  0  # atno 17395 bound_to 11000

$$$$
