AV-unprocessed.smi:598|AV-procd|sdf|3028|dock1
  -GOLD-   2262023543D 1   1.00000     0.00000
 Structure written by MMmdl.
 43 44  0  0  0  0  0  0  0  0  3 V2000
  153.0988  142.8814  162.8483 C   0  0  0  0  0  0  0  0  0  0  0  0
  152.5087  143.2019  161.4630 C   0  0  1  0  0  0  0  0  0  0  0  0
  152.1533  144.7013  161.3844 C   0  0  0  0  0  0  0  0  0  0  0  0
  151.5484  145.0842  160.0271 C   0  0  0  0  0  0  0  0  0  0  0  0
  152.4876  144.6939  158.8765 C   0  0  0  0  0  0  0  0  0  0  0  0
  152.8540  143.1988  158.9162 C   0  0  2  0  0  0  0  0  0  0  0  0
  151.6787  142.3954  158.5703 N   0  0  0  0  0  0  0  0  0  0  0  0
  150.9017  142.5488  157.4867 C   0  0  0  0  0  0  0  0  0  0  0  0
  151.1112  143.3954  156.6167 O   0  0  0  0  0  0  0  0  0  0  0  0
  149.7169  141.5778  157.3784 C   0  0  0  0  0  0  0  0  0  0  0  0
  149.8034  140.6652  156.2253 N   0  0  0  0  0  0  0  0  0  0  0  0
  151.0321  140.0059  156.0238 C   0  0  0  0  0  0  0  0  0  0  0  0
  151.2270  139.1519  154.9999 C   0  0  0  0  0  0  0  0  0  0  0  0
  152.4963  138.4853  154.8073 N   0  3  0  0  0  0  0  0  0  0  0  0
  152.5387  137.4996  154.0782 O   0  0  0  0  0  0  0  0  0  0  0  0
  153.4911  138.9222  155.3787 O   0  5  0  0  0  0  0  0  0  0  0  0
  150.1194  138.9233  154.0922 C   0  0  0  0  0  0  0  0  0  0  0  0
  148.9428  139.5535  154.2774 C   0  0  0  0  0  0  0  0  0  0  0  0
  148.7336  140.4845  155.3911 C   0  0  0  0  0  0  0  0  0  0  0  0
  147.6625  141.0666  155.5631 O   0  0  0  0  0  0  0  0  0  0  0  0
  153.4507  142.8001  160.2936 C   0  0  2  0  0  0  0  0  0  0  0  0
  153.8599  141.3136  160.3286 C   0  0  0  0  0  0  0  0  0  0  0  0
  154.0668  143.3635  162.9887 H   0  0  0  0  0  0  0  0  0  0  0  0
  153.2322  141.8097  162.9935 H   0  0  0  0  0  0  0  0  0  0  0  0
  152.4383  143.2270  163.6445 H   0  0  0  0  0  0  0  0  0  0  0  0
  151.5818  142.6346  161.3670 H   0  0  0  0  0  0  0  0  0  0  0  0
  151.4506  144.9600  162.1775 H   0  0  0  0  0  0  0  0  0  0  0  0
  153.0478  145.3003  161.5613 H   0  0  0  0  0  0  0  0  0  0  0  0
  150.5819  144.5942  159.9034 H   0  0  0  0  0  0  0  0  0  0  0  0
  151.3540  146.1567  159.9981 H   0  0  0  0  0  0  0  0  0  0  0  0
  152.0307  144.9458  157.9185 H   0  0  0  0  0  0  0  0  0  0  0  0
  153.3994  145.2890  158.9427 H   0  0  0  0  0  0  0  0  0  0  0  0
  153.6241  143.0439  158.1585 H   0  0  0  0  0  0  0  0  0  0  0  0
  151.4296  141.6661  159.2229 H   0  0  0  0  0  0  0  0  0  0  0  0
  149.6537  141.0100  158.3083 H   0  0  0  0  0  0  0  0  0  0  0  0
  148.7908  142.1544  157.3359 H   0  0  0  0  0  0  0  0  0  0  0  0
  151.7950  140.2490  156.7496 H   0  0  0  0  0  0  0  0  0  0  0  0
  150.2255  138.2456  153.2577 H   0  0  0  0  0  0  0  0  0  0  0  0
  148.1312  139.3693  153.5889 H   0  0  0  0  0  0  0  0  0  0  0  0
  154.3711  143.3747  160.4102 H   0  0  0  0  0  0  0  0  0  0  0  0
  152.9905  140.6567  160.3590 H   0  0  0  0  0  0  0  0  0  0  0  0
  154.4781  141.0872  161.1969 H   0  0  0  0  0  0  0  0  0  0  0  0
  154.4459  141.0497  159.4478 H   0  0  0  0  0  0  0  0  0  0  0  0
  1  2  1  0  0  0  0
  1 23  1  0  0  0  0
  1 24  1  0  0  0  0
  1 25  1  0  0  0  0
  2 21  1  0  0  0  0
  2  3  1  0  0  0  0
  2 26  1  0  0  0  0
  3  4  1  0  0  0  0
  3 27  1  0  0  0  0
  3 28  1  0  0  0  0
  4  5  1  0  0  0  0
  4 29  1  0  0  0  0
  4 30  1  0  0  0  0
  5  6  1  0  0  0  0
  5 31  1  0  0  0  0
  5 32  1  0  0  0  0
  6  7  1  0  0  0  0
  6 21  1  0  0  0  0
  6 33  1  0  0  0  0
  7  8  1  0  0  0  0
  7 34  1  0  0  0  0
  8  9  2  0  0  0  0
  8 10  1  0  0  0  0
 10 11  1  0  0  0  0
 10 35  1  0  0  0  0
 10 36  1  0  0  0  0
 11 19  1  0  0  0  0
 11 12  1  0  0  0  0
 12 13  2  0  0  0  0
 12 37  1  0  0  0  0
 13 14  1  0  0  0  0
 13 17  1  0  0  0  0
 14 15  2  0  0  0  0
 14 16  1  0  0  0  0
 17 18  2  0  0  0  0
 17 38  1  0  0  0  0
 18 19  1  0  0  0  0
 18 39  1  0  0  0  0
 19 20  2  0  0  0  0
 21 22  1  0  0  0  0
 21 40  1  0  0  0  0
 22 41  1  0  0  0  0
 22 42  1  0  0  0  0
 22 43  1  0  0  0  0
M  CHG  1  14   1
M  CHG  1  16  -1
M  END
> <s_m_source_file>
AV-unprocessed.smi

> <i_m_source_file_index>
598

> <i_lp_mmshare_version>
43012

> <i_f3d_flags>
0

> <s_epik_input>
W0NIM11bQ0BASF0xW0NIMl1bQ0gyXVtDSDJdW0NASF0oW0NASF0xW0NIM10pW05IXUMoPU8pW0NIMl1uMltjSF1jKFtOK10oPU8pW08tXSlbY0hdW2NIXWMyPU8=

> <s_epik_cmdline>
J2VwaWtfcHl0aG9uJywgJy1waCcsICc3LjAnLCAnLXRuJywgJzgnLCAnLW1hJywgJzIwMCcsICctbWV0YWxfYmluZGluZycsICctaW1hZScsICc8aW5maWxlLm1hZT4nLCAnLW9tYWUnLCAnPG91dGZpbGUubWFlPic=

> <r_lp_tautomer_probability>
1

> <r_epik_Ionization_Penalty>
1.91291e-08

> <r_epik_Ionization_Penalty_Charging>
8.21931e-11

> <r_epik_Ionization_Penalty_Neutral>
1.90469e-08

> <r_epik_State_Penalty>
-0

> <r_epik_Charging_Adjusted_Penalty>
8.21931e-11

> <i_epik_Tot_Q>
0

> <i_epik_Tot_abs_Q>
2

> <r_epik_Metal_State_Penalty>
-0

> <b_epik_Metal_Only>
0

> <s_lp_Force_Field>
OPLS_2005

> <r_lp_Energy>
23.1067

> <b_lp_Chiralities_Consistent>
1

> <s_lp_Variant>
AV-unprocessed.smi:598-8

> <Gold.Version>
5.8.1

> <Gold.Id.Protein>
6NUR|6NUR_protein|mol2

> <Gold.PLP.Fitness>
56.2367

> <Gold.PLP.PLP>
-51.7780

> <Gold.PLP.part.hbond>
-2.0000

> <Gold.PLP.part.metal>
0.0000

> <Gold.PLP.part.buried>
-5.4545

> <Gold.PLP.part.nonpolar>
-47.3033

> <Gold.PLP.part.repulsive>
2.7913

> <Gold.PLP.ligand.clash>
0.0000

> <Gold.PLP.ligand.torsion>
0.3184

> <Gold.PLP.Chemscore.Hbond>
1.6880

> <Gold.PLP.Chemscore.CHOScore>
0.0000

> <Gold.PLP.Chemscore.Metal>
0.0000

> <Gold.Chemscore.Hbonds>
donor molecule, donor type, donor heavy atom, donor atom, acceptor molecule, acceptor atom, score
      P1  H  7997  8010       L1    16  1.00
      P1  H 10752 10765       L1    15  0.69

> <Gold.PLP.Chemscore.Internal.Correction>
0.0314

> <Gold.Rescore>
     Score         DG    S(hbond)    S(metal)    S(lipo)     H(rot)  DE(clash)    DE(int)     intcor
     19.95     -22.30       1.78        0.00     126.65       1.54       0.92       1.42       ----

> <Gold.Chemscore.Fitness>
19.9542

> <Gold.Chemscore.DG>
-22.2958

> <Gold.Chemscore.ZeroCoef>
-5.4800

> <Gold.Chemscore.Hbond>
1.7779

> <Gold.Chemscore.Metal>
0.0000

> <Gold.Chemscore.Lipo>
126.6527

> <Gold.Chemscore.Internal_Hbond>
0.0000

> <Gold.Chemscore.DEClash>
0.9171

> <Gold.Chemscore.DEInternal>
1.4244

> <Gold.Chemscore.Rot>
1.5393

> <Gold.Chemscore.Internal.Correction>
   9.000000E+99

> <Gold.Chemscore.Hbonds>
donor molecule, donor type, donor heavy atom, donor atom, acceptor molecule, acceptor atom, score
      P1  H  7997  8010       L1    16  0.94
      P1  H 10752 10765       L1    15  0.68

> <Gold.Chemscore.Hbond.Weighted>
-5.9381

> <Gold.Chemscore.Metal.Weighted>
-0.0000

> <Gold.Chemscore.Lipo.Weighted>
-14.8184

> <Gold.Chemscore.Internal_Hbond.Weighted>
0.0000

> <Gold.Chemscore.DEClash.Weighted>
0.9171

> <Gold.Chemscore.DEInternal.Weighted>
1.4244

> <Gold.Chemscore.Rot.Weighted>
3.9407

> <Gold.Chemscore.Internal.Correction.Weighted>
   9.000000E+99

> <Gold.Protein.RotatedTorsions>
[ 6907 6896 6895 6894 ] final  -54.99 input  -60.11 | X-H torsion
[ 7974 7965 7964 7962 ] final   57.12 input  175.53 | X-H torsion
[ 8008 7997 7996 7995 ] final   95.09 input   59.86 | X-H torsion
[ 10167 10162 10161 10158 ] final   62.47 input  -65.29 | X-H torsion
[ 10718 10713 10712 10709 ] final  -32.31 input   66.30 | X-H torsion
[ 10763 10752 10751 10750 ] final  147.68 input  -60.55 | X-H torsion
[ 11005 11000 10999 10996 ] final  -48.28 input  -57.11 | X-H torsion

> <Gold.Protein.ActiveResidues>
 VAL166  LYS551  ARG553  GLY616  TRP617  ASP618  TYR619  PRO620  LYS621  CYS622 
 ASP623  PHE694  ASN695  SER759  ASP760  ASP761  ALA762  ILE779  LEU786  VAL792 
 PHE793  MET794  SER795  GLU796  ALA797  LYS798  CYS799  TRP800  GLU811  SER814 

> <Gold.Protein.RotatedAtoms>
  150.8290  134.7535  159.6837 H   0  0  0  0  0  0  0  0  0  0  0  0  # atno 6907 bound_to 6896
  152.4397  134.5612  159.9904 H   0  0  0  0  0  0  0  0  0  0  0  0  # atno 6908 bound_to 6896
  151.5777  133.3344  159.3038 H   0  0  0  0  0  0  0  0  0  0  0  0  # atno 6909 bound_to 6896
  145.9324  139.3819  143.0413 H   0  0  0  0  0  0  0  0  0  0  0  0  # atno 7974 bound_to 7965
  156.0651  140.3291  155.7508 H   0  0  0  0  0  0  0  0  0  0  0  0  # atno 8008 bound_to 7997
  155.5393  140.0600  157.2890 H   0  0  0  0  0  0  0  0  0  0  0  0  # atno 8009 bound_to 7997
  154.4501  140.1913  156.0563 H   0  0  0  0  0  0  0  0  0  0  0  0  # atno 8010 bound_to 7997
  140.1436  144.4530  150.6797 H   0  0  0  0  0  0  0  0  0  0  0  0  # atno 10167 bound_to 10162
  156.3765  130.4348  149.7503 H   0  0  0  0  0  0  0  0  0  0  0  0  # atno 10718 bound_to 10713
  154.0423  135.2888  155.3353 H   0  0  0  0  0  0  0  0  0  0  0  0  # atno 10763 bound_to 10752
  154.6921  135.5222  153.8410 H   0  0  0  0  0  0  0  0  0  0  0  0  # atno 10764 bound_to 10752
  153.0595  135.6608  154.0626 H   0  0  0  0  0  0  0  0  0  0  0  0  # atno 10765 bound_to 10752
  141.0691  133.6684  156.3418 H   0  0  0  0  0  0  0  0  0  0  0  0  # atno 11005 bound_to 11000
  145.8408  140.9581  143.0800 LP  0  0  0  0  0  0  0  0  0  0  0  0  # atno 17320 bound_to 7965
  144.6767  140.0282  143.7483 LP  0  0  0  0  0  0  0  0  0  0  0  0  # atno 17321 bound_to 7965
  140.6745  143.2299  151.5541 LP  0  0  0  0  0  0  0  0  0  0  0  0  # atno 17342 bound_to 10162
  139.5460  144.2520  152.1442 LP  0  0  0  0  0  0  0  0  0  0  0  0  # atno 17343 bound_to 10162
  156.4610  130.7952  151.2972 LP  0  0  0  0  0  0  0  0  0  0  0  0  # atno 17370 bound_to 10713
  157.7489  131.0066  150.3157 LP  0  0  0  0  0  0  0  0  0  0  0  0  # atno 17371 bound_to 10713
  140.5711  134.5840  157.5457 LP  0  0  0  0  0  0  0  0  0  0  0  0  # atno 17394 bound_to 11000
  139.9506  134.7624  156.0458 LP  0  0  0  0  0  0  0  0  0  0  0  0  # atno 17395 bound_to 11000

$$$$
