AV-unprocessed.smi:164|AV-procd|sdf|1382|dock6
  -GOLD-   2262019113D 1   1.00000     0.00000
 Structure written by MMmdl.
 53 55  0  0  0  0  0  0  0  0  1 V2000
  153.7003  140.3313  160.3574 C   0  0  0  0  0  0  0  0  0  0  0  0
  152.9798  141.5475  159.8013 C   0  0  0  0  0  0  0  0  0  0  0  0
  153.1080  142.7818  160.4702 C   0  0  0  0  0  0  0  0  0  0  0  0
  152.4564  143.9280  159.9820 C   0  0  0  0  0  0  0  0  0  0  0  0
  151.6739  143.8544  158.8134 C   0  0  0  0  0  0  0  0  0  0  0  0
  150.9756  145.1017  158.3036 C   0  0  0  0  0  0  0  0  0  0  0  0
  151.5506  142.6240  158.1271 C   0  0  0  0  0  0  0  0  0  0  0  0
  150.7954  142.5579  156.9846 O   0  0  0  0  0  0  0  0  0  0  0  0
  149.6212  141.7713  157.1255 C   0  0  0  0  0  0  0  0  0  0  0  0
  149.1785  141.2822  155.7371 C   0  0  2  0  0  0  0  0  0  0  0  0
  149.1737  142.4106  154.8848 O   0  0  0  0  0  0  0  0  0  0  0  0
  147.7498  140.6934  155.7643 C   0  0  0  0  0  0  0  0  0  0  0  0
  146.7713  141.5907  156.3581 N   0  0  0  0  0  0  0  0  0  0  0  0
  146.0704  142.4642  155.4914 C   0  0  0  0  0  0  0  0  0  0  0  0
  146.2487  142.4596  154.2720 O   0  0  0  0  0  0  0  0  0  0  0  0
  145.1511  143.3735  156.1649 C   0  0  0  0  0  0  0  0  0  0  0  0
  144.4600  144.2726  155.4443 F   0  0  0  0  0  0  0  0  0  0  0  0
  144.9969  143.3438  157.5063 C   0  0  0  0  0  0  0  0  0  0  0  0
  145.6711  142.4546  158.3311 N   0  0  0  0  0  0  0  0  0  0  0  0
  145.5557  142.4912  159.8479 C   0  0  2  0  0  0  0  0  0  0  0  0
  144.5180  143.4886  160.3804 C   0  0  0  0  0  0  0  0  0  0  0  0
  145.3563  144.7174  160.7244 C   0  0  0  0  0  0  0  0  0  0  0  0
  146.7943  144.3211  160.3734 C   0  0  0  0  0  0  0  0  0  0  0  0
  146.7782  142.9002  160.3730 O   0  0  0  0  0  0  0  0  0  0  0  0
  146.6242  141.5774  157.7653 C   0  0  0  0  0  0  0  0  0  0  0  0
  147.3030  140.8371  158.4809 O   0  0  0  0  0  0  0  0  0  0  0  0
  152.1880  141.4614  158.6286 C   0  0  0  0  0  0  0  0  0  0  0  0
  152.0264  140.1316  157.9040 C   0  0  0  0  0  0  0  0  0  0  0  0
  154.3879  140.6084  161.1571 H   0  0  0  0  0  0  0  0  0  0  0  0
  154.2806  139.8360  159.5785 H   0  0  0  0  0  0  0  0  0  0  0  0
  152.9831  139.6177  160.7637 H   0  0  0  0  0  0  0  0  0  0  0  0
  153.7069  142.8556  161.3663 H   0  0  0  0  0  0  0  0  0  0  0  0
  152.5618  144.8655  160.5081 H   0  0  0  0  0  0  0  0  0  0  0  0
  149.9900  144.8625  157.9033 H   0  0  0  0  0  0  0  0  0  0  0  0
  151.5648  145.5678  157.5137 H   0  0  0  0  0  0  0  0  0  0  0  0
  150.8419  145.8304  159.1037 H   0  0  0  0  0  0  0  0  0  0  0  0
  149.8688  140.9181  157.7577 H   0  0  0  0  0  0  0  0  0  0  0  0
  148.8188  142.3149  157.6286 H   0  0  0  0  0  0  0  0  0  0  0  0
  149.8889  140.5405  155.3701 H   0  0  0  0  0  0  0  0  0  0  0  0
  149.1179  143.1892  155.4177 H   0  0  0  0  0  0  0  0  0  0  0  0
  147.3897  140.4805  154.7562 H   0  0  0  0  0  0  0  0  0  0  0  0
  147.7019  139.7277  156.2704 H   0  0  0  0  0  0  0  0  0  0  0  0
  144.3219  144.0684  157.9333 H   0  0  0  0  0  0  0  0  0  0  0  0
  145.3123  141.4698  160.1449 H   0  0  0  0  0  0  0  0  0  0  0  0
  143.7013  143.6638  159.6804 H   0  0  0  0  0  0  0  0  0  0  0  0
  144.0858  143.0744  161.2922 H   0  0  0  0  0  0  0  0  0  0  0  0
  145.0399  145.6031  160.1726 H   0  0  0  0  0  0  0  0  0  0  0  0
  145.2704  144.9408  161.7883 H   0  0  0  0  0  0  0  0  0  0  0  0
  147.0688  144.6869  159.3831 H   0  0  0  0  0  0  0  0  0  0  0  0
  147.5215  144.7089  161.0869 H   0  0  0  0  0  0  0  0  0  0  0  0
  151.1641  140.1301  157.2376 H   0  0  0  0  0  0  0  0  0  0  0  0
  151.8809  139.3137  158.6093 H   0  0  0  0  0  0  0  0  0  0  0  0
  152.9140  139.9191  157.3077 H   0  0  0  0  0  0  0  0  0  0  0  0
  1  2  1  0  0  0  0
  1 29  1  0  0  0  0
  1 30  1  0  0  0  0
  1 31  1  0  0  0  0
  2 27  1  0  0  0  0
  2  3  2  0  0  0  0
  3  4  1  0  0  0  0
  3 32  1  0  0  0  0
  4  5  2  0  0  0  0
  4 33  1  0  0  0  0
  5  6  1  0  0  0  0
  5  7  1  0  0  0  0
  6 34  1  0  0  0  0
  6 35  1  0  0  0  0
  6 36  1  0  0  0  0
  7  8  1  0  0  0  0
  7 27  2  0  0  0  0
  8  9  1  0  0  0  0
  9 10  1  0  0  0  0
  9 37  1  0  0  0  0
  9 38  1  0  0  0  0
 10 11  1  0  0  0  0
 10 12  1  0  0  0  0
 10 39  1  0  0  0  0
 11 40  1  0  0  0  0
 12 13  1  0  0  0  0
 12 41  1  0  0  0  0
 12 42  1  0  0  0  0
 13 25  1  0  0  0  0
 13 14  1  0  0  0  0
 14 15  2  0  0  0  0
 14 16  1  0  0  0  0
 16 17  1  0  0  0  0
 16 18  2  0  0  0  0
 18 19  1  0  0  0  0
 18 43  1  0  0  0  0
 19 20  1  0  0  0  0
 19 25  1  0  0  0  0
 20 24  1  0  0  0  0
 20 21  1  0  0  0  0
 20 44  1  0  0  0  0
 21 22  1  0  0  0  0
 21 45  1  0  0  0  0
 21 46  1  0  0  0  0
 22 23  1  0  0  0  0
 22 47  1  0  0  0  0
 22 48  1  0  0  0  0
 23 24  1  0  0  0  0
 23 49  1  0  0  0  0
 23 50  1  0  0  0  0
 25 26  2  0  0  0  0
 27 28  1  0  0  0  0
 28 51  1  0  0  0  0
 28 52  1  0  0  0  0
 28 53  1  0  0  0  0
M  END
> <s_m_source_file>
AV-unprocessed.smi

> <i_m_source_file_index>
164

> <i_lp_mmshare_version>
43012

> <i_f3d_flags>
0

> <s_epik_input>
W0NIM11jMVtjSF1bY0hdYyhbQ0gzXSljKGMxW0NIM10pT1tDSDJdW0NASF0oW09IXSlbQ0gyXW4yYyg9TyljKEYpW2NIXW4oYzI9TylbQ0BASF0zW0NIMl1bQ0gyXVtDSDJdTzM=

> <s_epik_cmdline>
J2VwaWtfcHl0aG9uJywgJy1waCcsICc3LjAnLCAnLXRuJywgJzgnLCAnLW1hJywgJzIwMCcsICctbWV0YWxfYmluZGluZycsICctaW1hZScsICc8aW5maWxlLm1hZT4nLCAnLW9tYWUnLCAnPG91dGZpbGUubWFlPic=

> <r_lp_tautomer_probability>
1

> <r_epik_Ionization_Penalty>
1.45842e-07

> <r_epik_Ionization_Penalty_Charging>
2.86622e-08

> <r_epik_Ionization_Penalty_Neutral>
1.1718e-07

> <r_epik_State_Penalty>
-0

> <r_epik_Charging_Adjusted_Penalty>
2.86622e-08

> <i_epik_Tot_Q>
0

> <i_epik_Tot_abs_Q>
0

> <r_epik_Metal_State_Penalty>
-0

> <b_epik_Metal_Only>
0

> <s_epik_Chemistry_Notes>
This compound contains an acetal/aminal-like group ( X-CH(R)-Y where X, Y are N, S, or O) that may be acid/base labile, releasing an aldehyde.

> <s_lp_Force_Field>
OPLS_2005

> <r_lp_Energy>
44.8383

> <b_lp_Chiralities_Consistent>
1

> <s_lp_Variant>
AV-unprocessed.smi:164-1

> <Gold.Version>
5.8.1

> <Gold.Id.Protein>
6NUR|6NUR_protein|mol2

> <Gold.PLP.Fitness>
52.7313

> <Gold.PLP.PLP>
-47.7443

> <Gold.PLP.part.hbond>
-4.6129

> <Gold.PLP.part.metal>
0.0000

> <Gold.PLP.part.buried>
-10.4536

> <Gold.PLP.part.nonpolar>
-35.0122

> <Gold.PLP.part.repulsive>
0.3354

> <Gold.PLP.ligand.clash>
0.0000

> <Gold.PLP.ligand.torsion>
0.6755

> <Gold.PLP.Chemscore.Hbond>
1.9923

> <Gold.PLP.Chemscore.CHOScore>
0.0000

> <Gold.PLP.Chemscore.Metal>
0.0000

> <Gold.Chemscore.Hbonds>
donor molecule, donor type, donor heavy atom, donor atom, acceptor molecule, acceptor atom, score
      L1  H    11    40       P1  8028  1.00
      P1  H  6933  6944       L1    24  0.79
      P1  H  6934  6946       L1    24  0.04

> <Gold.PLP.Chemscore.Internal.Correction>
0.3611

> <Gold.Rescore>
     Score         DG    S(hbond)    S(metal)    S(lipo)     H(rot)  DE(clash)    DE(int)     intcor
     14.78     -19.35       1.95        0.00     122.79       2.73       0.04       4.53       ----

> <Gold.Chemscore.Fitness>
14.7838

> <Gold.Chemscore.DG>
-19.3534

> <Gold.Chemscore.ZeroCoef>
-5.4800

> <Gold.Chemscore.Hbond>
1.9458

> <Gold.Chemscore.Metal>
0.0000

> <Gold.Chemscore.Lipo>
122.7949

> <Gold.Chemscore.Internal_Hbond>
0.0000

> <Gold.Chemscore.DEClash>
0.0441

> <Gold.Chemscore.DEInternal>
4.5254

> <Gold.Chemscore.Rot>
2.7315

> <Gold.Chemscore.Internal.Correction>
   9.000000E+99

> <Gold.Chemscore.Hbonds>
donor molecule, donor type, donor heavy atom, donor atom, acceptor molecule, acceptor atom, score
      L1  H    11    40       P1  8028  0.93
      P1  H  6933  6944       L1    24  0.38
      P1  H  6934  6946       L1    26  0.05

> <Gold.Chemscore.Hbond.Weighted>
-6.4989

> <Gold.Chemscore.Metal.Weighted>
-0.0000

> <Gold.Chemscore.Lipo.Weighted>
-14.3670

> <Gold.Chemscore.Internal_Hbond.Weighted>
0.0000

> <Gold.Chemscore.DEClash.Weighted>
0.0441

> <Gold.Chemscore.DEInternal.Weighted>
4.5254

> <Gold.Chemscore.Rot.Weighted>
6.9925

> <Gold.Chemscore.Internal.Correction.Weighted>
   9.000000E+99

> <Gold.Protein.RotatedTorsions>
[ 6907 6896 6895 6894 ] final -106.04 input  -60.11 | X-H torsion
[ 7974 7965 7964 7962 ] final -179.76 input  175.53 | X-H torsion
[ 8008 7997 7996 7995 ] final  119.47 input   59.86 | X-H torsion
[ 10167 10162 10161 10158 ] final  -27.72 input  -65.29 | X-H torsion
[ 10718 10713 10712 10709 ] final  -80.09 input   66.30 | X-H torsion
[ 10763 10752 10751 10750 ] final  143.85 input  -60.55 | X-H torsion
[ 11005 11000 10999 10996 ] final   39.87 input  -57.11 | X-H torsion

> <Gold.Protein.ActiveResidues>
 VAL166  LYS551  ARG553  GLY616  TRP617  ASP618  TYR619  PRO620  LYS621  CYS622 
 ASP623  PHE694  ASN695  SER759  ASP760  ASP761  ALA762  ILE779  LEU786  VAL792 
 PHE793  MET794  SER795  GLU796  ALA797  LYS798  CYS799  TRP800  GLU811  SER814 

> <Gold.Protein.RotatedAtoms>
  150.7368  134.0036  159.3645 H   0  0  0  0  0  0  0  0  0  0  0  0  # atno 6907 bound_to 6896
  151.7991  135.0712  160.0407 H   0  0  0  0  0  0  0  0  0  0  0  0  # atno 6908 bound_to 6896
  152.3153  133.5760  159.5744 H   0  0  0  0  0  0  0  0  0  0  0  0  # atno 6909 bound_to 6896
  144.7139  140.0669  143.6431 H   0  0  0  0  0  0  0  0  0  0  0  0  # atno 7974 bound_to 7965
  156.2597  140.2852  156.0997 H   0  0  0  0  0  0  0  0  0  0  0  0  # atno 8008 bound_to 7997
  155.1373  140.0395  157.2807 H   0  0  0  0  0  0  0  0  0  0  0  0  # atno 8009 bound_to 7997
  154.6555  140.2554  155.7172 H   0  0  0  0  0  0  0  0  0  0  0  0  # atno 8010 bound_to 7997
  140.7275  143.4070  151.1169 H   0  0  0  0  0  0  0  0  0  0  0  0  # atno 10167 bound_to 10162
  156.0078  130.4564  150.3747 H   0  0  0  0  0  0  0  0  0  0  0  0  # atno 10718 bound_to 10713
  153.9791  135.2943  155.3421 H   0  0  0  0  0  0  0  0  0  0  0  0  # atno 10763 bound_to 10752
  154.7279  135.5080  153.8919 H   0  0  0  0  0  0  0  0  0  0  0  0  # atno 10764 bound_to 10752
  153.0863  135.6694  154.0056 H   0  0  0  0  0  0  0  0  0  0  0  0  # atno 10765 bound_to 10752
  140.1986  134.3898  155.8108 H   0  0  0  0  0  0  0  0  0  0  0  0  # atno 11005 bound_to 11000
  145.9817  139.2946  143.1038 LP  0  0  0  0  0  0  0  0  0  0  0  0  # atno 17320 bound_to 7965
  145.9003  140.9247  143.0506 LP  0  0  0  0  0  0  0  0  0  0  0  0  # atno 17321 bound_to 7965
  139.7697  143.8512  152.3118 LP  0  0  0  0  0  0  0  0  0  0  0  0  # atno 17342 bound_to 10162
  139.8426  144.7202  150.9312 LP  0  0  0  0  0  0  0  0  0  0  0  0  # atno 17343 bound_to 10162
  157.1830  131.0397  151.2739 LP  0  0  0  0  0  0  0  0  0  0  0  0  # atno 17370 bound_to 10713
  157.4129  130.7395  149.6853 LP  0  0  0  0  0  0  0  0  0  0  0  0  # atno 17371 bound_to 10713
  141.2227  133.7082  156.8219 LP  0  0  0  0  0  0  0  0  0  0  0  0  # atno 17394 bound_to 11000
  140.2079  134.8849  157.3242 LP  0  0  0  0  0  0  0  0  0  0  0  0  # atno 17395 bound_to 11000

$$$$
