AV-unprocessed.smi:2990|AV-procd|sdf|11394|dock5
  -GOLD-   2272016313D 1   1.00000     0.00000
 Structure written by MMmdl.
 39 41  0  0  0  0  0  0  0  0  1 V2000
  150.8252  145.2846  160.2178 C   0  0  0  0  0  0  0  0  0  0  0  0
  151.6503  144.1217  160.6697 C   0  0  0  0  0  0  0  0  0  0  0  0
  152.1226  144.0271  161.9132 N   0  0  0  0  0  0  0  0  0  0  0  0
  152.8106  142.8293  161.8853 C   0  0  0  0  0  0  0  0  0  0  0  0
  153.5374  142.1633  162.8981 C   0  0  0  0  0  0  0  0  0  0  0  0
  154.1668  140.9297  162.6314 C   0  0  0  0  0  0  0  0  0  0  0  0
  154.0798  140.3457  161.3510 C   0  0  0  0  0  0  0  0  0  0  0  0
  153.3606  140.9926  160.3276 C   0  0  0  0  0  0  0  0  0  0  0  0
  152.7336  142.2233  160.5993 C   0  0  0  0  0  0  0  0  0  0  0  0
  151.9666  143.0986  159.8378 N   0  0  0  0  0  0  0  0  0  0  0  0
  151.6002  142.9252  158.4390 C   0  0  0  0  0  0  0  0  0  0  0  0
  150.1130  142.5573  158.2607 C   0  0  1  0  0  0  0  0  0  0  0  0
  149.2987  143.7090  158.1634 O   0  0  0  0  0  0  0  0  0  0  0  0
  149.8456  141.6403  157.0558 C   0  0  0  0  0  0  0  0  0  0  0  0
  151.0683  141.3387  156.3945 O   0  0  0  0  0  0  0  0  0  0  0  0
  151.1144  140.2319  155.5748 C   0  0  0  0  0  0  0  0  0  0  0  0
  152.3583  139.5778  155.4545 C   0  0  0  0  0  0  0  0  0  0  0  0
  152.4976  138.4369  154.6412 C   0  0  0  0  0  0  0  0  0  0  0  0
  151.3880  137.9372  153.9350 C   0  0  0  0  0  0  0  0  0  0  0  0
  150.1412  138.5808  154.0440 C   0  0  0  0  0  0  0  0  0  0  0  0
  150.0017  139.7215  154.8588 C   0  0  0  0  0  0  0  0  0  0  0  0
  150.6069  145.9476  161.0555 H   0  0  0  0  0  0  0  0  0  0  0  0
  149.8793  144.9411  159.7986 H   0  0  0  0  0  0  0  0  0  0  0  0
  151.3624  145.8544  159.4595 H   0  0  0  0  0  0  0  0  0  0  0  0
  153.6105  142.6026  163.8819 H   0  0  0  0  0  0  0  0  0  0  0  0
  154.7191  140.4290  163.4131 H   0  0  0  0  0  0  0  0  0  0  0  0
  154.5652  139.4009  161.1554 H   0  0  0  0  0  0  0  0  0  0  0  0
  153.2908  140.5484  159.3457 H   0  0  0  0  0  0  0  0  0  0  0  0
  151.8448  143.8316  157.8853 H   0  0  0  0  0  0  0  0  0  0  0  0
  152.2283  142.1376  158.0212 H   0  0  0  0  0  0  0  0  0  0  0  0
  149.7779  142.0296  159.1543 H   0  0  0  0  0  0  0  0  0  0  0  0
  149.1877  143.9224  157.2495 H   0  0  0  0  0  0  0  0  0  0  0  0
  149.3985  140.7128  157.4174 H   0  0  0  0  0  0  0  0  0  0  0  0
  149.1339  142.1074  156.3725 H   0  0  0  0  0  0  0  0  0  0  0  0
  153.2156  139.9551  155.9928 H   0  0  0  0  0  0  0  0  0  0  0  0
  153.4562  137.9456  154.5597 H   0  0  0  0  0  0  0  0  0  0  0  0
  151.4933  137.0623  153.3104 H   0  0  0  0  0  0  0  0  0  0  0  0
  149.2890  138.1984  153.5019 H   0  0  0  0  0  0  0  0  0  0  0  0
  149.0297  140.1873  154.9171 H   0  0  0  0  0  0  0  0  0  0  0  0
  1  2  1  0  0  0  0
  1 22  1  0  0  0  0
  1 23  1  0  0  0  0
  1 24  1  0  0  0  0
  2 10  1  0  0  0  0
  2  3  2  0  0  0  0
  3  4  1  0  0  0  0
  4  9  2  0  0  0  0
  4  5  1  0  0  0  0
  5  6  2  0  0  0  0
  5 25  1  0  0  0  0
  6  7  1  0  0  0  0
  6 26  1  0  0  0  0
  7  8  2  0  0  0  0
  7 27  1  0  0  0  0
  8  9  1  0  0  0  0
  8 28  1  0  0  0  0
  9 10  1  0  0  0  0
 10 11  1  0  0  0  0
 11 12  1  0  0  0  0
 11 29  1  0  0  0  0
 11 30  1  0  0  0  0
 12 13  1  0  0  0  0
 12 14  1  0  0  0  0
 12 31  1  0  0  0  0
 13 32  1  0  0  0  0
 14 15  1  0  0  0  0
 14 33  1  0  0  0  0
 14 34  1  0  0  0  0
 15 16  1  0  0  0  0
 16 21  1  0  0  0  0
 16 17  2  0  0  0  0
 17 18  1  0  0  0  0
 17 35  1  0  0  0  0
 18 19  2  0  0  0  0
 18 36  1  0  0  0  0
 19 20  1  0  0  0  0
 19 37  1  0  0  0  0
 20 21  2  0  0  0  0
 20 38  1  0  0  0  0
 21 39  1  0  0  0  0
M  END
> <s_m_source_file>
AV-unprocessed.smi

> <i_m_source_file_index>
2990

> <i_lp_mmshare_version>
43012

> <i_f3d_flags>
0

> <s_epik_input>
W2NIXTFbY0hdW2NIXVtjSF1jKGMxMiluKGMobjIpW0NIM10pW0NIMl1bQ0BIXShbT0hdKVtDSDJdT2MzW2NIXVtjSF1bY0hdW2NIXVtjSF0z

> <s_epik_cmdline>
J2VwaWtfcHl0aG9uJywgJy1waCcsICc3LjAnLCAnLXRuJywgJzgnLCAnLW1hJywgJzIwMCcsICctbWV0YWxfYmluZGluZycsICctaW1hZScsICc8aW5maWxlLm1hZT4nLCAnLW9tYWUnLCAnPG91dGZpbGUubWFlPic=

> <r_lp_tautomer_probability>
1

> <r_epik_Ionization_Penalty>
0.119634

> <r_epik_Ionization_Penalty_Charging>
0

> <r_epik_Ionization_Penalty_Neutral>
0.119634

> <r_epik_State_Penalty>
0.10919

> <r_epik_Charging_Adjusted_Penalty>
0.10919

> <i_epik_Tot_Q>
0

> <i_epik_Tot_abs_Q>
0

> <r_epik_Metal_State_Penalty>
0.000119887

> <b_epik_Metal_Only>
0

> <s_lp_Force_Field>
OPLS_2005

> <r_lp_Energy>
16.8637

> <b_lp_Chiralities_Consistent>
1

> <s_lp_Variant>
AV-unprocessed.smi:2990-2

> <Gold.Version>
5.8.1

> <Gold.Id.Protein>
6NUR|6NUR_protein|mol2

> <Gold.PLP.Fitness>
53.0177

> <Gold.PLP.PLP>
-53.4347

> <Gold.PLP.part.hbond>
-2.0000

> <Gold.PLP.part.metal>
0.0000

> <Gold.PLP.part.buried>
-2.9267

> <Gold.PLP.part.nonpolar>
-49.1246

> <Gold.PLP.part.repulsive>
0.2279

> <Gold.PLP.ligand.clash>
0.0000

> <Gold.PLP.ligand.torsion>
1.7402

> <Gold.PLP.Chemscore.Hbond>
1.0000

> <Gold.PLP.Chemscore.CHOScore>
0.0000

> <Gold.PLP.Chemscore.Metal>
0.0000

> <Gold.Chemscore.Hbonds>
donor molecule, donor type, donor heavy atom, donor atom, acceptor molecule, acceptor atom, score
      L1  H    13    32       P1  8028  1.00

> <Gold.PLP.Chemscore.Internal.Correction>
0.0634

> <Gold.Rescore>
     Score         DG    S(hbond)    S(metal)    S(lipo)     H(rot)  DE(clash)    DE(int)     intcor
     16.62     -18.46       0.69        0.00     135.88       2.04       0.04       1.79       ----

> <Gold.Chemscore.Fitness>
16.6233

> <Gold.Chemscore.DG>
-18.4566

> <Gold.Chemscore.ZeroCoef>
-5.4800

> <Gold.Chemscore.Hbond>
0.6860

> <Gold.Chemscore.Metal>
0.0000

> <Gold.Chemscore.Lipo>
135.8776

> <Gold.Chemscore.Internal_Hbond>
0.0000

> <Gold.Chemscore.DEClash>
0.0415

> <Gold.Chemscore.DEInternal>
1.7918

> <Gold.Chemscore.Rot>
2.0361

> <Gold.Chemscore.Internal.Correction>
   9.000000E+99

> <Gold.Chemscore.Hbonds>
donor molecule, donor type, donor heavy atom, donor atom, acceptor molecule, acceptor atom, score
      L1  H    13    32       P1  8028  0.26

> <Gold.Chemscore.Hbond.Weighted>
-2.2913

> <Gold.Chemscore.Metal.Weighted>
-0.0000

> <Gold.Chemscore.Lipo.Weighted>
-15.8977

> <Gold.Chemscore.Internal_Hbond.Weighted>
0.0000

> <Gold.Chemscore.DEClash.Weighted>
0.0415

> <Gold.Chemscore.DEInternal.Weighted>
1.7918

> <Gold.Chemscore.Rot.Weighted>
5.2124

> <Gold.Chemscore.Internal.Correction.Weighted>
   9.000000E+99

> <Gold.Protein.RotatedTorsions>
[ 6907 6896 6895 6894 ] final   68.51 input  -60.11 | X-H torsion
[ 7974 7965 7964 7962 ] final   18.56 input  175.53 | X-H torsion
[ 8008 7997 7996 7995 ] final  110.35 input   59.86 | X-H torsion
[ 10167 10162 10161 10158 ] final  125.53 input  -65.29 | X-H torsion
[ 10718 10713 10712 10709 ] final  152.42 input   66.30 | X-H torsion
[ 10763 10752 10751 10750 ] final  -97.69 input  -60.55 | X-H torsion
[ 11005 11000 10999 10996 ] final  130.89 input  -57.11 | X-H torsion

> <Gold.Protein.ActiveResidues>
 VAL166  LYS551  ARG553  GLY616  TRP617  ASP618  TYR619  PRO620  LYS621  CYS622 
 ASP623  PHE694  ASN695  SER759  ASP760  ASP761  ALA762  ILE779  LEU786  VAL792 
 PHE793  MET794  SER795  GLU796  ALA797  LYS798  CYS799  TRP800  GLU811  SER814 

> <Gold.Protein.RotatedAtoms>
  152.4625  134.5151  159.9765 H   0  0  0  0  0  0  0  0  0  0  0  0  # atno 6907 bound_to 6896
  151.5197  133.3463  159.2907 H   0  0  0  0  0  0  0  0  0  0  0  0  # atno 6908 bound_to 6896
  150.8594  134.7971  159.7133 H   0  0  0  0  0  0  0  0  0  0  0  0  # atno 6909 bound_to 6896
  146.2180  139.8439  142.8635 H   0  0  0  0  0  0  0  0  0  0  0  0  # atno 7974 bound_to 7965
  156.2046  140.3040  155.9600 H   0  0  0  0  0  0  0  0  0  0  0  0  # atno 8008 bound_to 7997
  155.2871  140.0440  157.3037 H   0  0  0  0  0  0  0  0  0  0  0  0  # atno 8009 bound_to 7997
  154.5616  140.2322  155.8335 H   0  0  0  0  0  0  0  0  0  0  0  0  # atno 8010 bound_to 7997
  139.5680  144.6923  151.3856 H   0  0  0  0  0  0  0  0  0  0  0  0  # atno 10167 bound_to 10162
  157.2580  131.0792  151.1685 H   0  0  0  0  0  0  0  0  0  0  0  0  # atno 10718 bound_to 10713
  154.7350  135.5037  153.9027 H   0  0  0  0  0  0  0  0  0  0  0  0  # atno 10763 bound_to 10752
  153.0986  135.6679  153.9723 H   0  0  0  0  0  0  0  0  0  0  0  0  # atno 10764 bound_to 10752
  153.9515  135.3057  155.3417 H   0  0  0  0  0  0  0  0  0  0  0  0  # atno 10765 bound_to 10752
  139.9698  134.9580  156.9358 H   0  0  0  0  0  0  0  0  0  0  0  0  # atno 11005 bound_to 11000
  145.2870  141.0156  143.3684 LP  0  0  0  0  0  0  0  0  0  0  0  0  # atno 17320 bound_to 7965
  144.9106  139.4533  143.6589 LP  0  0  0  0  0  0  0  0  0  0  0  0  # atno 17321 bound_to 7965
  140.6964  143.7738  150.7334 LP  0  0  0  0  0  0  0  0  0  0  0  0  # atno 17342 bound_to 10162
  140.1236  143.4590  152.2298 LP  0  0  0  0  0  0  0  0  0  0  0  0  # atno 17343 bound_to 10162
  157.3206  130.6935  149.6267 LP  0  0  0  0  0  0  0  0  0  0  0  0  # atno 17370 bound_to 10713
  155.9664  130.4336  150.5015 LP  0  0  0  0  0  0  0  0  0  0  0  0  # atno 17371 bound_to 10713
  140.5318  134.0806  155.7318 LP  0  0  0  0  0  0  0  0  0  0  0  0  # atno 17394 bound_to 11000
  141.1378  133.9192  157.2395 LP  0  0  0  0  0  0  0  0  0  0  0  0  # atno 17395 bound_to 11000

$$$$
