AV-unprocessed.smi:292|AV-procd|sdf|2250|dock6
  -GOLD-   2262022133D 1   1.00000     0.00000
 Structure written by MMmdl.
 33 34  0  0  0  0  0  0  0  0  1 V2000
  147.5081  135.5528  161.7078 N   0  0  0  0  0  0  0  0  0  0  0  0
  148.1077  136.0809  160.8705 C   0  0  0  0  0  0  0  0  0  0  0  0
  148.8604  136.7436  159.8190 C   0  0  0  0  0  0  0  0  0  0  0  0
  148.2456  137.2364  158.7046 N   0  0  0  0  0  0  0  0  0  0  0  0
  149.3109  137.7229  158.0801 C   0  0  0  0  0  0  0  0  0  0  0  0
  150.4586  137.5447  158.7433 N   0  0  0  0  0  0  0  0  0  0  0  0
  151.8186  137.9169  158.3935 C   0  0  0  0  0  0  0  0  0  0  0  0
  151.9201  139.4089  158.0708 C   0  0  0  0  0  0  0  0  0  0  0  0
  152.3980  139.7751  156.9974 O   0  0  0  0  0  0  0  0  0  0  0  0
  151.4649  140.2561  159.0078 N   0  0  0  0  0  0  0  0  0  0  0  0
  151.5071  141.7167  158.9393 C   0  0  1  0  0  0  0  0  0  0  0  0
  152.9628  142.2146  159.0761 C   0  0  0  0  0  0  0  0  0  0  0  0
  153.0811  143.6690  159.5595 C   0  0  0  0  0  0  0  0  0  0  0  0
  152.4778  144.7160  158.6109 C   0  0  0  0  0  0  0  0  0  0  0  0
  150.9516  144.6015  158.4525 C   0  0  0  0  0  0  0  0  0  0  0  0
  150.5609  143.5379  157.5353 N   0  0  0  0  0  0  0  0  0  0  0  0
  150.7792  142.2219  157.6791 C   0  0  0  0  0  0  0  0  0  0  0  0
  150.4082  141.4292  156.8136 O   0  0  0  0  0  0  0  0  0  0  0  0
  150.1802  136.8982  159.9017 N   0  0  0  0  0  0  0  0  0  0  0  0
  149.2559  138.2120  157.1185 H   0  0  0  0  0  0  0  0  0  0  0  0
  152.4735  137.6678  159.2295 H   0  0  0  0  0  0  0  0  0  0  0  0
  152.1513  137.3306  157.5356 H   0  0  0  0  0  0  0  0  0  0  0  0
  151.0918  139.8599  159.8589 H   0  0  0  0  0  0  0  0  0  0  0  0
  150.9338  142.0893  159.7904 H   0  0  0  0  0  0  0  0  0  0  0  0
  153.4951  141.5912  159.7957 H   0  0  0  0  0  0  0  0  0  0  0  0
  153.4927  142.0894  158.1308 H   0  0  0  0  0  0  0  0  0  0  0  0
  152.6216  143.7622  160.5443 H   0  0  0  0  0  0  0  0  0  0  0  0
  154.1373  143.8996  159.7035 H   0  0  0  0  0  0  0  0  0  0  0  0
  152.7057  145.7034  159.0134 H   0  0  0  0  0  0  0  0  0  0  0  0
  152.9657  144.6719  157.6362 H   0  0  0  0  0  0  0  0  0  0  0  0
  150.4633  144.4699  159.4190 H   0  0  0  0  0  0  0  0  0  0  0  0
  150.5649  145.5339  158.0402 H   0  0  0  0  0  0  0  0  0  0  0  0
  150.0796  143.8305  156.6971 H   0  0  0  0  0  0  0  0  0  0  0  0
  1  2  3  0  0  0  0
  2  3  1  0  0  0  0
  3 19  2  0  0  0  0
  3  4  1  0  0  0  0
  4  5  2  0  0  0  0
  5  6  1  0  0  0  0
  5 20  1  0  0  0  0
  6  7  1  0  0  0  0
  6 19  1  0  0  0  0
  7  8  1  0  0  0  0
  7 21  1  0  0  0  0
  7 22  1  0  0  0  0
  8  9  2  0  0  0  0
  8 10  1  0  0  0  0
 10 11  1  0  0  0  0
 10 23  1  0  0  0  0
 11 17  1  0  0  0  0
 11 12  1  0  0  0  0
 11 24  1  0  0  0  0
 12 13  1  0  0  0  0
 12 25  1  0  0  0  0
 12 26  1  0  0  0  0
 13 14  1  0  0  0  0
 13 27  1  0  0  0  0
 13 28  1  0  0  0  0
 14 15  1  0  0  0  0
 14 29  1  0  0  0  0
 14 30  1  0  0  0  0
 15 16  1  0  0  0  0
 15 31  1  0  0  0  0
 15 32  1  0  0  0  0
 16 17  1  0  0  0  0
 16 33  1  0  0  0  0
 17 18  2  0  0  0  0
M  END
> <s_m_source_file>
AV-unprocessed.smi

> <i_m_source_file_index>
292

> <i_lp_mmshare_version>
43012

> <i_f3d_flags>
0

> <s_epik_input>
TiNDYzFuW2NIXW4objEpW0NIMl1DKD1PKVtOSF1bQ0BASF0yW0NIMl1bQ0gyXVtDSDJdW0NIMl1bTkhdQzI9Tw==

> <s_epik_cmdline>
J2VwaWtfcHl0aG9uJywgJy1waCcsICc3LjAnLCAnLXRuJywgJzgnLCAnLW1hJywgJzIwMCcsICctbWV0YWxfYmluZGluZycsICctaW1hZScsICc8aW5maWxlLm1hZT4nLCAnLW9tYWUnLCAnPG91dGZpbGUubWFlPic=

> <r_lp_tautomer_probability>
1

> <r_epik_Ionization_Penalty>
1.99744e-07

> <r_epik_Ionization_Penalty_Charging>
0

> <r_epik_Ionization_Penalty_Neutral>
1.99744e-07

> <r_epik_State_Penalty>
-0

> <r_epik_Charging_Adjusted_Penalty>
0

> <i_epik_Tot_Q>
0

> <i_epik_Tot_abs_Q>
0

> <r_epik_Metal_State_Penalty>
-0

> <b_epik_Metal_Only>
0

> <s_lp_Force_Field>
OPLS_2005

> <r_lp_Energy>
14.2569

> <b_lp_Chiralities_Consistent>
1

> <s_lp_Variant>
AV-unprocessed.smi:292-2

> <Gold.Version>
5.8.1

> <Gold.Id.Protein>
6NUR|6NUR_protein|mol2

> <Gold.PLP.Fitness>
43.2371

> <Gold.PLP.PLP>
-34.4929

> <Gold.PLP.part.hbond>
-3.3697

> <Gold.PLP.part.metal>
0.0000

> <Gold.PLP.part.buried>
-6.7556

> <Gold.PLP.part.nonpolar>
-25.7113

> <Gold.PLP.part.repulsive>
0.2373

> <Gold.PLP.ligand.clash>
0.0000

> <Gold.PLP.ligand.torsion>
0.1171

> <Gold.PLP.Chemscore.Hbond>
2.9833

> <Gold.PLP.Chemscore.CHOScore>
0.0000

> <Gold.PLP.Chemscore.Metal>
0.0000

> <Gold.Chemscore.Hbonds>
donor molecule, donor type, donor heavy atom, donor atom, acceptor molecule, acceptor atom, score
      L1  H    16    33       P1  8028  1.00
      P1  H  6896  6907       L1    19  0.98
      P1  H  7997  8010       L1     9  0.93

> <Gold.PLP.Chemscore.Internal.Correction>
0.0286

> <Gold.Rescore>
     Score         DG    S(hbond)    S(metal)    S(lipo)     H(rot)  DE(clash)    DE(int)     intcor
     13.92     -16.71       2.90        0.00      60.05       2.14       0.00       2.79       ----

> <Gold.Chemscore.Fitness>
13.9172

> <Gold.Chemscore.DG>
-16.7066

> <Gold.Chemscore.ZeroCoef>
-5.4800

> <Gold.Chemscore.Hbond>
2.9014

> <Gold.Chemscore.Metal>
0.0000

> <Gold.Chemscore.Lipo>
60.0469

> <Gold.Chemscore.Internal_Hbond>
0.0000

> <Gold.Chemscore.DEClash>
0.0000

> <Gold.Chemscore.DEInternal>
2.7894

> <Gold.Chemscore.Rot>
2.1444

> <Gold.Chemscore.Internal.Correction>
   9.000000E+99

> <Gold.Chemscore.Hbonds>
donor molecule, donor type, donor heavy atom, donor atom, acceptor molecule, acceptor atom, score
      L1  H    16    33       P1  8028  0.99
      P1  H  6896  6907       L1    19  0.44
      P1  H  7997  8010       L1     9  0.87

> <Gold.Chemscore.Hbond.Weighted>
-9.6907

> <Gold.Chemscore.Metal.Weighted>
-0.0000

> <Gold.Chemscore.Lipo.Weighted>
-7.0255

> <Gold.Chemscore.Internal_Hbond.Weighted>
0.0000

> <Gold.Chemscore.DEClash.Weighted>
0.0000

> <Gold.Chemscore.DEInternal.Weighted>
2.7894

> <Gold.Chemscore.Rot.Weighted>
5.4896

> <Gold.Chemscore.Internal.Correction.Weighted>
   9.000000E+99

> <Gold.Protein.RotatedTorsions>
[ 6907 6896 6895 6894 ] final  -27.36 input  -60.11 | X-H torsion
[ 7974 7965 7964 7962 ] final   93.18 input  175.53 | X-H torsion
[ 8008 7997 7996 7995 ] final   51.16 input   59.86 | X-H torsion
[ 10167 10162 10161 10158 ] final -144.87 input  -65.29 | X-H torsion
[ 10718 10713 10712 10709 ] final  105.08 input   66.30 | X-H torsion
[ 10763 10752 10751 10750 ] final  119.39 input  -60.55 | X-H torsion
[ 11005 11000 10999 10996 ] final   94.03 input  -57.11 | X-H torsion

> <Gold.Protein.ActiveResidues>
 VAL166  LYS551  ARG553  GLY616  TRP617  ASP618  TYR619  PRO620  LYS621  CYS622 
 ASP623  PHE694  ASN695  SER759  ASP760  ASP761  ALA762  ILE779  LEU786  VAL792 
 PHE793  MET794  SER795  GLU796  ALA797  LYS798  CYS799  TRP800  GLU811  SER814 

> <Gold.Protein.RotatedAtoms>
  151.1479  135.0213  159.8654 H   0  0  0  0  0  0  0  0  0  0  0  0  # atno 6907 bound_to 6896
  152.5453  134.1422  159.8494 H   0  0  0  0  0  0  0  0  0  0  0  0  # atno 6908 bound_to 6896
  151.1505  133.4865  159.2628 H   0  0  0  0  0  0  0  0  0  0  0  0  # atno 6909 bound_to 6896
  145.4824  139.2278  143.2875 H   0  0  0  0  0  0  0  0  0  0  0  0  # atno 7974 bound_to 7965
  155.4307  140.3450  155.4280 H   0  0  0  0  0  0  0  0  0  0  0  0  # atno 8008 bound_to 7997
  156.1338  140.1522  156.9056 H   0  0  0  0  0  0  0  0  0  0  0  0  # atno 8009 bound_to 7997
  154.4915  140.0840  156.7585 H   0  0  0  0  0  0  0  0  0  0  0  0  # atno 8010 bound_to 7997
  139.7859  143.8035  152.2644 H   0  0  0  0  0  0  0  0  0  0  0  0  # atno 10167 bound_to 10162
  157.6718  131.0819  150.5803 H   0  0  0  0  0  0  0  0  0  0  0  0  # atno 10718 bound_to 10713
  153.5822  135.3481  155.2879 H   0  0  0  0  0  0  0  0  0  0  0  0  # atno 10763 bound_to 10752
  154.8666  135.4185  154.2607 H   0  0  0  0  0  0  0  0  0  0  0  0  # atno 10764 bound_to 10752
  153.3396  135.7049  153.6948 H   0  0  0  0  0  0  0  0  0  0  0  0  # atno 10765 bound_to 10752
  139.8803  134.8823  156.3804 H   0  0  0  0  0  0  0  0  0  0  0  0  # atno 11005 bound_to 11000
  146.2333  140.5612  142.8966 LP  0  0  0  0  0  0  0  0  0  0  0  0  # atno 17320 bound_to 7965
  144.7881  140.5977  143.6560 LP  0  0  0  0  0  0  0  0  0  0  0  0  # atno 17321 bound_to 7965
  139.8112  144.7335  150.9695 LP  0  0  0  0  0  0  0  0  0  0  0  0  # atno 17342 bound_to 10162
  140.7819  143.4249  151.0784 LP  0  0  0  0  0  0  0  0  0  0  0  0  # atno 17343 bound_to 10162
  156.6104  130.4378  149.5861 LP  0  0  0  0  0  0  0  0  0  0  0  0  # atno 17370 bound_to 10713
  156.2435  130.6865  151.1578 LP  0  0  0  0  0  0  0  0  0  0  0  0  # atno 17371 bound_to 10713
  140.9402  133.7519  156.0137 LP  0  0  0  0  0  0  0  0  0  0  0  0  # atno 17394 bound_to 11000
  140.8228  134.3269  157.5376 LP  0  0  0  0  0  0  0  0  0  0  0  0  # atno 17395 bound_to 11000

$$$$
