AV-unprocessed.smi:72|AV-procd|sdf|680|dock4
  -GOLD-   2262016593D 1   1.00000     0.00000
 Structure written by MMmdl.
 29 30  0  0  0  0  0  0  0  0  1 V2000
  149.4338  132.5290  155.2837 N   0  0  0  0  0  0  0  0  0  0  0  0
  148.5480  132.8610  154.4146 C   0  0  0  0  0  0  0  0  0  0  0  0
  148.6046  132.5657  153.0443 N   0  0  0  0  0  0  0  0  0  0  0  0
  147.6349  132.9671  152.2813 C   0  0  0  0  0  0  0  0  0  0  0  0
  146.4971  133.7134  152.8005 N   0  0  0  0  0  0  0  0  0  0  0  0
  145.3607  134.1799  151.9097 C   0  0  1  0  0  0  0  0  0  0  0  0
  144.1347  133.9434  152.5453 O   0  0  0  0  0  0  0  0  0  0  0  0
  143.5105  135.1826  152.8600 C   0  0  2  0  0  0  0  0  0  0  0  0
  141.9919  135.0009  153.0362 C   0  0  0  0  0  0  0  0  0  0  0  0
  141.6767  134.2170  154.1684 O   0  0  0  0  0  0  0  0  0  0  0  0
  143.9800  136.1207  151.7476 C   0  0  1  0  0  0  0  0  0  0  0  0
  143.8278  137.4904  152.0712 O   0  0  0  0  0  0  0  0  0  0  0  0
  145.4327  135.6900  151.5660 C   0  0  1  0  0  0  0  0  0  0  0  0
  146.3198  136.4197  152.4014 O   0  0  0  0  0  0  0  0  0  0  0  0
  146.4212  134.0085  154.1834 C   0  0  0  0  0  0  0  0  0  0  0  0
  145.4704  134.6154  154.6759 O   0  0  0  0  0  0  0  0  0  0  0  0
  147.4580  133.5730  154.9310 N   0  0  0  0  0  0  0  0  0  0  0  0
  145.3937  133.5393  151.0268 H   0  0  0  0  0  0  0  0  0  0  0  0
  143.9301  135.5189  153.8097 H   0  0  0  0  0  0  0  0  0  0  0  0
  143.4403  135.9148  150.8228 H   0  0  0  0  0  0  0  0  0  0  0  0
  145.7583  135.8144  150.5328 H   0  0  0  0  0  0  0  0  0  0  0  0
  150.1842  132.0214  154.8369 H   0  0  0  0  0  0  0  0  0  0  0  0
  147.6149  132.7671  151.2100 H   0  0  0  0  0  0  0  0  0  0  0  0
  141.4965  135.9691  153.1112 H   0  0  0  0  0  0  0  0  0  0  0  0
  141.5793  134.4993  152.1607 H   0  0  0  0  0  0  0  0  0  0  0  0
  142.2455  133.4623  154.1799 H   0  0  0  0  0  0  0  0  0  0  0  0
  143.7734  137.9836  151.2672 H   0  0  0  0  0  0  0  0  0  0  0  0
  147.2038  136.2648  152.1057 H   0  0  0  0  0  0  0  0  0  0  0  0
  147.4380  133.7698  155.9210 H   0  0  0  0  0  0  0  0  0  0  0  0
  1  2  2  0  0  0  0
  1 22  1  0  0  0  0
  2 17  1  0  0  0  0
  2  3  1  0  0  0  0
  3  4  2  0  0  0  0
  4  5  1  0  0  0  0
  4 23  1  0  0  0  0
  5  6  1  0  0  0  0
  5 15  1  0  0  0  0
  6 18  1  0  0  0  0
  6 13  1  0  0  0  0
  6  7  1  0  0  0  0
  7  8  1  0  0  0  0
  8 19  1  0  0  0  0
  8  9  1  0  0  0  0
  8 11  1  0  0  0  0
  9 10  1  0  0  0  0
  9 24  1  0  0  0  0
  9 25  1  0  0  0  0
 10 26  1  0  0  0  0
 11 20  1  0  0  0  0
 11 12  1  0  0  0  0
 11 13  1  0  0  0  0
 12 27  1  0  0  0  0
 13 21  1  0  0  0  0
 13 14  1  0  0  0  0
 14 28  1  0  0  0  0
 15 16  2  0  0  0  0
 15 17  1  0  0  0  0
 17 29  1  0  0  0  0
M  END
> <s_m_source_file>
AV-unprocessed.smi

> <i_m_source_file_index>
72

> <i_lp_mmshare_version>
43012

> <i_f3d_flags>
0

> <s_epik_input>
W05IMl1jMW5bY0hdbihjKD1PKW4xKVtDQEBIXTJPW0NASF0oW0NIMl1bT0hdKVtDQEBIXShbT0hdKVtDQEhdMltPSF0=

> <s_epik_cmdline>
J2VwaWtfcHl0aG9uJywgJy1waCcsICc3LjAnLCAnLXRuJywgJzgnLCAnLW1hJywgJzIwMCcsICctbWV0YWxfYmluZGluZycsICctaW1hZScsICc8aW5maWxlLm1hZT4nLCAnLW9tYWUnLCAnPG91dGZpbGUubWFlPic=

> <r_lp_tautomer_probability>
7.17554e-07

> <r_epik_Ionization_Penalty>
0.0066451

> <r_epik_Ionization_Penalty_Charging>
0.00663793

> <r_epik_Ionization_Penalty_Neutral>
7.17052e-06

> <r_epik_State_Penalty>
0.419231

> <r_epik_Charging_Adjusted_Penalty>
0.425868

> <i_epik_Tot_Q>
0

> <i_epik_Tot_abs_Q>
0

> <r_epik_Metal_State_Penalty>
1.44144

> <b_epik_Metal_Only>
0

> <s_epik_Chemistry_Notes>
This compound contains an acetal/aminal-like group ( X-CH(R)-Y where X, Y are N, S, or O) that may be acid/base labile, releasing an aldehyde.

> <s_lp_Force_Field>
OPLS_2005

> <r_lp_Energy>
48.597

> <b_lp_Chiralities_Consistent>
1

> <s_lp_Variant>
AV-unprocessed.smi:72-18

> <Gold.Version>
5.8.1

> <Gold.Id.Protein>
6NUR|6NUR_protein|mol2

> <Gold.PLP.Fitness>
37.1067

> <Gold.PLP.PLP>
-24.3646

> <Gold.PLP.part.hbond>
-4.9101

> <Gold.PLP.part.metal>
0.0000

> <Gold.PLP.part.buried>
-4.8172

> <Gold.PLP.part.nonpolar>
-15.0321

> <Gold.PLP.part.repulsive>
0.3614

> <Gold.PLP.ligand.clash>
0.6748

> <Gold.PLP.ligand.torsion>
0.4837

> <Gold.PLP.Chemscore.Hbond>
3.9920

> <Gold.PLP.Chemscore.CHOScore>
0.7867

> <Gold.PLP.Chemscore.Metal>
0.0000

> <Gold.Chemscore.Hbonds>
donor molecule, donor type, donor heavy atom, donor atom, acceptor molecule, acceptor atom, score
      L1  H    10    26       P1 10957  0.99
      L1  H    12    27       P1 10171  1.00
      L1  H    14    28       P1  7948  1.00
      P1  H 11000 11005       L1    10  1.00
      L1  C     4    23       P1 10747  0.79

> <Gold.PLP.Chemscore.Internal.Correction>
0.0482

> <Gold.Rescore>
     Score         DG    S(hbond)    S(metal)    S(lipo)     H(rot)  DE(clash)    DE(int)     intcor
      6.11     -10.04       3.78        0.00      19.93       4.06       0.00       3.93       ----

> <Gold.Chemscore.Fitness>
6.1075

> <Gold.Chemscore.DG>
-10.0380

> <Gold.Chemscore.ZeroCoef>
-5.4800

> <Gold.Chemscore.Hbond>
3.7784

> <Gold.Chemscore.Metal>
0.0000

> <Gold.Chemscore.Lipo>
19.9290

> <Gold.Chemscore.Internal_Hbond>
0.0000

> <Gold.Chemscore.DEClash>
0.0000

> <Gold.Chemscore.DEInternal>
3.9306

> <Gold.Chemscore.Rot>
4.0600

> <Gold.Chemscore.Internal.Correction>
   9.000000E+99

> <Gold.Chemscore.Hbonds>
donor molecule, donor type, donor heavy atom, donor atom, acceptor molecule, acceptor atom, score
      L1  H    10    26       P1 10957  0.94
      L1  H    12    27       P1 10171  0.96
      L1  H    14    28       P1  7948  1.00
      P1  H 11000 11005       L1    10  0.66

> <Gold.Chemscore.Hbond.Weighted>
-12.6200

> <Gold.Chemscore.Metal.Weighted>
-0.0000

> <Gold.Chemscore.Lipo.Weighted>
-2.3317

> <Gold.Chemscore.Internal_Hbond.Weighted>
0.0000

> <Gold.Chemscore.DEClash.Weighted>
0.0000

> <Gold.Chemscore.DEInternal.Weighted>
3.9306

> <Gold.Chemscore.Rot.Weighted>
10.3936

> <Gold.Chemscore.Internal.Correction.Weighted>
   9.000000E+99

> <Gold.Protein.RotatedTorsions>
[ 6907 6896 6895 6894 ] final  -59.38 input  -60.11 | X-H torsion
[ 7974 7965 7964 7962 ] final  102.78 input  175.53 | X-H torsion
[ 8008 7997 7996 7995 ] final -102.32 input   59.86 | X-H torsion
[ 10167 10162 10161 10158 ] final -106.96 input  -65.29 | X-H torsion
[ 10718 10713 10712 10709 ] final  142.90 input   66.30 | X-H torsion
[ 10763 10752 10751 10750 ] final -164.75 input  -60.55 | X-H torsion
[ 11005 11000 10999 10996 ] final   16.55 input  -57.11 | X-H torsion

> <Gold.Protein.ActiveResidues>
 VAL166  LYS551  ARG553  GLY616  TRP617  ASP618  TYR619  PRO620  LYS621  CYS622 
 ASP623  PHE694  ASN695  SER759  ASP760  ASP761  ALA762  ILE779  LEU786  VAL792 
 PHE793  MET794  SER795  GLU796  ALA797  LYS798  CYS799  TRP800  GLU811  SER814 

> <Gold.Protein.RotatedAtoms>
  150.7935  134.6976  159.6531 H   0  0  0  0  0  0  0  0  0  0  0  0  # atno 6907 bound_to 6896
  152.4043  134.6229  160.0065 H   0  0  0  0  0  0  0  0  0  0  0  0  # atno 6908 bound_to 6896
  151.6491  133.3285  159.3184 H   0  0  0  0  0  0  0  0  0  0  0  0  # atno 6909 bound_to 6896
  145.3546  139.2431  143.3539 H   0  0  0  0  0  0  0  0  0  0  0  0  # atno 7974 bound_to 7965
  154.8550  140.0429  157.1628 H   0  0  0  0  0  0  0  0  0  0  0  0  # atno 8008 bound_to 7997
  154.8902  140.2985  155.5355 H   0  0  0  0  0  0  0  0  0  0  0  0  # atno 8009 bound_to 7997
  156.2997  140.2395  156.3916 H   0  0  0  0  0  0  0  0  0  0  0  0  # atno 8010 bound_to 7997
  140.1821  143.3959  152.1273 H   0  0  0  0  0  0  0  0  0  0  0  0  # atno 10167 bound_to 10162
  157.3752  131.0984  151.0791 H   0  0  0  0  0  0  0  0  0  0  0  0  # atno 10718 bound_to 10713
  154.6999  135.2986  154.9357 H   0  0  0  0  0  0  0  0  0  0  0  0  # atno 10763 bound_to 10752
  154.0292  135.6672  153.4783 H   0  0  0  0  0  0  0  0  0  0  0  0  # atno 10764 bound_to 10752
  153.0673  135.5081  154.8137 H   0  0  0  0  0  0  0  0  0  0  0  0  # atno 10765 bound_to 10752
  140.4459  134.1274  155.7696 H   0  0  0  0  0  0  0  0  0  0  0  0  # atno 11005 bound_to 11000
  146.2953  140.4169  142.8724 LP  0  0  0  0  0  0  0  0  0  0  0  0  # atno 17320 bound_to 7965
  144.8691  140.7248  143.6058 LP  0  0  0  0  0  0  0  0  0  0  0  0  # atno 17321 bound_to 7965
  139.5292  144.7139  151.5118 LP  0  0  0  0  0  0  0  0  0  0  0  0  # atno 17342 bound_to 10162
  140.6513  143.8691  150.6788 LP  0  0  0  0  0  0  0  0  0  0  0  0  # atno 17343 bound_to 10162
  157.1880  130.6339  149.5695 LP  0  0  0  0  0  0  0  0  0  0  0  0  # atno 17370 bound_to 10713
  155.9764  130.4731  150.6523 LP  0  0  0  0  0  0  0  0  0  0  0  0  # atno 17371 bound_to 10713
  141.1685  133.8655  157.1642 LP  0  0  0  0  0  0  0  0  0  0  0  0  # atno 17394 bound_to 11000
  140.0039  135.0016  157.0249 LP  0  0  0  0  0  0  0  0  0  0  0  0  # atno 17395 bound_to 11000

$$$$
