AV-unprocessed.smi:1680|AV-procd|sdf|6738|dock1
  -GOLD-   22720 7483D 1   1.00000     0.00000
 Structure written by MMmdl.
 39 40  0  0  0  0  0  0  0  0  2 V2000
  146.0298  136.0657  156.2554 C   0  0  0  0  0  0  0  0  0  0  0  0
  146.2543  136.3584  154.7703 C   0  0  0  0  0  0  0  0  0  0  0  0
  146.8540  135.5187  154.0993 O   0  0  0  0  0  0  0  0  0  0  0  0
  145.7909  137.5180  154.2449 N   0  0  0  0  0  0  0  0  0  0  0  0
  146.0053  137.9765  152.8690 C   0  0  0  0  0  0  0  0  0  0  0  0
  146.9248  139.2111  152.8911 C   0  0  0  0  0  0  0  0  0  0  0  0
  146.3777  140.2856  153.7635 N   0  3  0  0  0  0  0  0  0  0  0  0
  147.2505  141.4861  153.7840 C   0  0  0  0  0  0  0  0  0  0  0  0
  148.6887  141.1635  154.2349 C   0  0  0  0  0  0  0  0  0  0  0  0
  149.1616  142.1098  155.2391 N   0  0  0  0  0  0  0  0  0  0  0  0
  149.8570  141.7763  156.3361 C   0  0  0  0  0  0  0  0  0  0  0  0
  150.1660  140.6164  156.6111 O   0  0  0  0  0  0  0  0  0  0  0  0
  150.1559  142.8592  157.0749 N   0  0  0  0  0  0  0  0  0  0  0  0
  150.8570  142.9156  158.3088 C   0  0  0  0  0  0  0  0  0  0  0  0
  150.7467  141.9859  159.2705 N   0  0  0  0  0  0  0  0  0  0  0  0
  151.5350  142.2844  160.3743 N   0  0  0  0  0  0  0  0  0  0  0  0
  152.2082  143.4255  160.2015 C   0  0  0  0  0  0  0  0  0  0  0  0
  151.9458  144.2466  158.6728 S   0  0  0  0  0  0  0  0  0  0  0  0
  146.0140  139.7938  155.1218 C   0  0  0  0  0  0  0  0  0  0  0  0
  145.1196  138.5427  155.0491 C   0  0  0  0  0  0  0  0  0  0  0  0
  144.9648  136.0325  156.4878 H   0  0  0  0  0  0  0  0  0  0  0  0
  146.5059  136.8257  156.8757 H   0  0  0  0  0  0  0  0  0  0  0  0
  146.4592  135.1001  156.5257 H   0  0  0  0  0  0  0  0  0  0  0  0
  146.4279  137.2164  152.2135 H   0  0  0  0  0  0  0  0  0  0  0  0
  145.0421  138.2377  152.4284 H   0  0  0  0  0  0  0  0  0  0  0  0
  147.9167  138.9271  153.2469 H   0  0  0  0  0  0  0  0  0  0  0  0
  147.0475  139.5903  151.8758 H   0  0  0  0  0  0  0  0  0  0  0  0
  147.2501  141.9617  152.8020 H   0  0  0  0  0  0  0  0  0  0  0  0
  146.8260  142.2136  154.4774 H   0  0  0  0  0  0  0  0  0  0  0  0
  148.7485  140.1463  154.6260 H   0  0  0  0  0  0  0  0  0  0  0  0
  149.3796  141.2148  153.3945 H   0  0  0  0  0  0  0  0  0  0  0  0
  148.9511  143.0853  155.0844 H   0  0  0  0  0  0  0  0  0  0  0  0
  149.8358  143.7480  156.7196 H   0  0  0  0  0  0  0  0  0  0  0  0
  152.8636  143.7867  160.9800 H   0  0  0  0  0  0  0  0  0  0  0  0
  146.9236  139.5627  155.6785 H   0  0  0  0  0  0  0  0  0  0  0  0
  145.4904  140.5706  155.6781 H   0  0  0  0  0  0  0  0  0  0  0  0
  144.1637  138.7915  154.5857 H   0  0  0  0  0  0  0  0  0  0  0  0
  144.8800  138.2023  156.0574 H   0  0  0  0  0  0  0  0  0  0  0  0
  145.5143  140.5727  153.3249 H   0  0  0  0  0  0  0  0  0  0  0  0
  1  2  1  0  0  0  0
  1 21  1  0  0  0  0
  1 22  1  0  0  0  0
  1 23  1  0  0  0  0
  2  3  2  0  0  0  0
  2  4  1  0  0  0  0
  4 20  1  0  0  0  0
  4  5  1  0  0  0  0
  5  6  1  0  0  0  0
  5 24  1  0  0  0  0
  5 25  1  0  0  0  0
  6  7  1  0  0  0  0
  6 26  1  0  0  0  0
  6 27  1  0  0  0  0
  7  8  1  0  0  0  0
  7 19  1  0  0  0  0
  7 39  1  0  0  0  0
  8  9  1  0  0  0  0
  8 28  1  0  0  0  0
  8 29  1  0  0  0  0
  9 10  1  0  0  0  0
  9 30  1  0  0  0  0
  9 31  1  0  0  0  0
 10 11  1  0  0  0  0
 10 32  1  0  0  0  0
 11 12  2  0  0  0  0
 11 13  1  0  0  0  0
 13 14  1  0  0  0  0
 13 33  1  0  0  0  0
 14 18  1  0  0  0  0
 14 15  2  0  0  0  0
 15 16  1  0  0  0  0
 16 17  2  0  0  0  0
 17 18  1  0  0  0  0
 17 34  1  0  0  0  0
 19 20  1  0  0  0  0
 19 35  1  0  0  0  0
 19 36  1  0  0  0  0
 20 37  1  0  0  0  0
 20 38  1  0  0  0  0
M  CHG  1   7   1
M  END
> <s_m_source_file>
AV-unprocessed.smi

> <i_m_source_file_index>
1680

> <i_lp_mmshare_version>
43012

> <i_f3d_flags>
0

> <s_epik_input>
W0NIM11DKD1PKU4xW0NIMl1bQ0gyXU4oW0NIMl1bQ0gyXTEpW0NIMl1bQ0gyXVtOSF1DKD1PKVtOSF1jMm5uW2NIXXMy

> <s_epik_cmdline>
J2VwaWtfcHl0aG9uJywgJy1waCcsICc3LjAnLCAnLXRuJywgJzgnLCAnLW1hJywgJzIwMCcsICctbWV0YWxfYmluZGluZycsICctaW1hZScsICc8aW5maWxlLm1hZT4nLCAnLW9tYWUnLCAnPG91dGZpbGUubWFlPic=

> <r_lp_tautomer_probability>
1

> <r_epik_Ionization_Penalty>
0.679071

> <r_epik_Ionization_Penalty_Charging>
0.67523

> <r_epik_Ionization_Penalty_Neutral>
0.00384089

> <r_epik_State_Penalty>
0.695776

> <r_epik_Charging_Adjusted_Penalty>
1.37101

> <i_epik_Tot_Q>
1

> <i_epik_Tot_abs_Q>
1

> <r_epik_Metal_State_Penalty>
1.03363

> <b_epik_Metal_Only>
0

> <s_lp_Force_Field>
OPLS_2005

> <r_lp_Energy>
38.3378

> <b_lp_Chiralities_Consistent>
1

> <s_lp_Variant>
AV-unprocessed.smi:1680-2

> <Gold.Version>
5.8.1

> <Gold.Id.Protein>
6NUR|6NUR_protein|mol2

> <Gold.PLP.Fitness>
41.8296

> <Gold.PLP.PLP>
-31.2906

> <Gold.PLP.part.hbond>
-3.5767

> <Gold.PLP.part.metal>
0.0000

> <Gold.PLP.part.buried>
-5.1139

> <Gold.PLP.part.nonpolar>
-23.0871

> <Gold.PLP.part.repulsive>
0.4559

> <Gold.PLP.ligand.clash>
0.0000

> <Gold.PLP.ligand.torsion>
0.7619

> <Gold.PLP.Chemscore.Hbond>
4.0000

> <Gold.PLP.Chemscore.CHOScore>
0.0000

> <Gold.PLP.Chemscore.Metal>
0.0000

> <Gold.Chemscore.Hbonds>
donor molecule, donor type, donor heavy atom, donor atom, acceptor molecule, acceptor atom, score
      L1  H     7    39       P1 10175  2.00
      L1  H    10    32       P1  8028  1.00
      L1  H    13    33       P1  8028  1.00

> <Gold.PLP.Chemscore.Internal.Correction>
0.0627

> <Gold.Rescore>
     Score         DG    S(hbond)    S(metal)    S(lipo)     H(rot)  DE(clash)    DE(int)     intcor
     16.23     -17.11       2.91        0.00      56.39       1.83       0.00       0.87       ----

> <Gold.Chemscore.Fitness>
16.2284

> <Gold.Chemscore.DG>
-17.1061

> <Gold.Chemscore.ZeroCoef>
-5.4800

> <Gold.Chemscore.Hbond>
2.9061

> <Gold.Chemscore.Metal>
0.0000

> <Gold.Chemscore.Lipo>
56.3864

> <Gold.Chemscore.Internal_Hbond>
0.0000

> <Gold.Chemscore.DEClash>
0.0034

> <Gold.Chemscore.DEInternal>
0.8742

> <Gold.Chemscore.Rot>
1.8272

> <Gold.Chemscore.Internal.Correction>
   9.000000E+99

> <Gold.Chemscore.Hbonds>
donor molecule, donor type, donor heavy atom, donor atom, acceptor molecule, acceptor atom, score
      L1  H     7    39       P1 10175  0.87
      L1  H    10    32       P1  8028  0.96
      L1  H    13    33       P1  8028  0.97

> <Gold.Chemscore.Hbond.Weighted>
-9.7065

> <Gold.Chemscore.Metal.Weighted>
-0.0000

> <Gold.Chemscore.Lipo.Weighted>
-6.5972

> <Gold.Chemscore.Internal_Hbond.Weighted>
0.0000

> <Gold.Chemscore.DEClash.Weighted>
0.0034

> <Gold.Chemscore.DEInternal.Weighted>
0.8742

> <Gold.Chemscore.Rot.Weighted>
4.6776

> <Gold.Chemscore.Internal.Correction.Weighted>
   9.000000E+99

> <Gold.Protein.RotatedTorsions>
[ 6907 6896 6895 6894 ] final  -14.37 input  -60.11 | X-H torsion
[ 7974 7965 7964 7962 ] final -134.82 input  175.53 | X-H torsion
[ 8008 7997 7996 7995 ] final -153.43 input   59.86 | X-H torsion
[ 10167 10162 10161 10158 ] final  122.28 input  -65.29 | X-H torsion
[ 10718 10713 10712 10709 ] final -101.77 input   66.30 | X-H torsion
[ 10763 10752 10751 10750 ] final -105.72 input  -60.55 | X-H torsion
[ 11005 11000 10999 10996 ] final  -79.15 input  -57.11 | X-H torsion

> <Gold.Protein.ActiveResidues>
 VAL166  LYS551  ARG553  GLY616  TRP617  ASP618  TYR619  PRO620  LYS621  CYS622 
 ASP623  PHE694  ASN695  SER759  ASP760  ASP761  ALA762  ILE779  LEU786  VAL792 
 PHE793  MET794  SER795  GLU796  ALA797  LYS798  CYS799  TRP800  GLU811  SER814 

> <Gold.Protein.RotatedAtoms>
  151.3404  135.0862  159.9368 H   0  0  0  0  0  0  0  0  0  0  0  0  # atno 6907 bound_to 6896
  152.5213  133.9453  159.7656 H   0  0  0  0  0  0  0  0  0  0  0  0  # atno 6908 bound_to 6896
  150.9809  133.6193  159.2752 H   0  0  0  0  0  0  0  0  0  0  0  0  # atno 6909 bound_to 6896
  144.9068  140.6844  143.5050 H   0  0  0  0  0  0  0  0  0  0  0  0  # atno 7974 bound_to 7965
  155.6707  140.0733  157.2521 H   0  0  0  0  0  0  0  0  0  0  0  0  # atno 8008 bound_to 7997
  154.4124  140.1699  156.1928 H   0  0  0  0  0  0  0  0  0  0  0  0  # atno 8009 bound_to 7997
  155.9618  140.3369  155.6501 H   0  0  0  0  0  0  0  0  0  0  0  0  # atno 8010 bound_to 7997
  139.5868  144.7009  151.3389 H   0  0  0  0  0  0  0  0  0  0  0  0  # atno 10167 bound_to 10162
  156.0206  130.5389  150.7011 H   0  0  0  0  0  0  0  0  0  0  0  0  # atno 10718 bound_to 10713
  154.7965  135.4739  154.0173 H   0  0  0  0  0  0  0  0  0  0  0  0  # atno 10763 bound_to 10752
  153.1712  135.6825  153.8613 H   0  0  0  0  0  0  0  0  0  0  0  0  # atno 10764 bound_to 10752
  153.8195  135.3206  155.3386 H   0  0  0  0  0  0  0  0  0  0  0  0  # atno 10765 bound_to 10752
  141.1667  133.7093  156.8079 H   0  0  0  0  0  0  0  0  0  0  0  0  # atno 11005 bound_to 11000
  145.3522  139.1703  143.4428 LP  0  0  0  0  0  0  0  0  0  0  0  0  # atno 17320 bound_to 7965
  146.3138  140.3575  142.8662 LP  0  0  0  0  0  0  0  0  0  0  0  0  # atno 17321 bound_to 7965
  140.7138  143.7319  150.7617 LP  0  0  0  0  0  0  0  0  0  0  0  0  # atno 17342 bound_to 10162
  140.0866  143.4918  152.2501 LP  0  0  0  0  0  0  0  0  0  0  0  0  # atno 17343 bound_to 10162
  157.4671  131.0889  151.0683 LP  0  0  0  0  0  0  0  0  0  0  0  0  # atno 17370 bound_to 10713
  157.1154  130.6039  149.5492 LP  0  0  0  0  0  0  0  0  0  0  0  0  # atno 17371 bound_to 10713
  140.2208  134.8758  157.3375 LP  0  0  0  0  0  0  0  0  0  0  0  0  # atno 17394 bound_to 11000
  140.1989  134.4279  155.7673 LP  0  0  0  0  0  0  0  0  0  0  0  0  # atno 17395 bound_to 11000

$$$$
