AV-unprocessed.smi:1793|AV-procd|sdf|7231|dock2
  -GOLD-   22720 8473D 1   1.00000     0.00000
 Structure written by MMmdl.
 47 49  0  0  0  0  0  0  0  0  2 V2000
  150.7461  138.7722  155.0927 C   0  0  0  0  0  0  0  0  0  0  0  0
  149.5435  138.9684  154.1564 C   0  0  1  0  0  0  0  0  0  0  0  0
  148.8765  137.6792  153.9853 N   0  0  0  0  0  0  0  0  0  0  0  0
  148.1670  137.0380  154.9250 C   0  0  0  0  0  0  0  0  0  0  0  0
  147.9929  137.4696  156.0643 O   0  0  0  0  0  0  0  0  0  0  0  0
  147.6969  135.8677  154.4629 N   0  0  0  0  0  0  0  0  0  0  0  0
  146.9616  134.8774  155.1740 C   0  0  0  0  0  0  0  0  0  0  0  0
  147.2046  134.6020  156.5441 C   0  0  0  0  0  0  0  0  0  0  0  0
  146.4246  133.6399  157.2138 C   0  0  0  0  0  0  0  0  0  0  0  0
  145.4064  132.9754  156.5077 C   0  0  0  0  0  0  0  0  0  0  0  0
  145.1902  133.2716  155.2092 N   0  3  0  0  0  0  0  0  0  0  0  0
  145.9081  134.1877  154.5133 C   0  0  0  0  0  0  0  0  0  0  0  0
  145.6077  134.3981  153.1503 N   0  0  0  0  0  0  0  0  0  0  0  0
  145.9377  133.2705  152.2820 C   0  0  0  0  0  0  0  0  0  0  0  0
  144.8438  133.2102  151.2135 C   0  0  0  0  0  0  0  0  0  0  0  0
  143.6466  133.8508  151.9049 C   0  0  0  0  0  0  0  0  0  0  0  0
  144.3012  134.9300  152.7653 C   0  0  0  0  0  0  0  0  0  0  0  0
  148.5468  140.0172  154.6958 C   0  0  1  0  0  0  0  0  0  0  0  0
  149.0513  141.4617  154.6333 C   0  0  0  0  0  0  0  0  0  0  0  0
  147.7601  142.2420  154.5508 C   0  0  0  0  0  0  0  0  0  0  0  0
  146.9294  141.3493  153.6378 C   0  0  0  0  0  0  0  0  0  0  0  0
  147.3416  140.0176  153.9291 O   0  0  0  0  0  0  0  0  0  0  0  0
  151.3234  139.6910  155.1981 H   0  0  0  0  0  0  0  0  0  0  0  0
  151.4226  138.0085  154.7076 H   0  0  0  0  0  0  0  0  0  0  0  0
  150.4279  138.4632  156.0890 H   0  0  0  0  0  0  0  0  0  0  0  0
  149.9269  139.3095  153.1929 H   0  0  0  0  0  0  0  0  0  0  0  0
  148.9695  137.2424  153.0801 H   0  0  0  0  0  0  0  0  0  0  0  0
  147.9917  135.6078  153.5331 H   0  0  0  0  0  0  0  0  0  0  0  0
  147.9679  135.1256  157.0994 H   0  0  0  0  0  0  0  0  0  0  0  0
  146.6023  133.4206  158.2565 H   0  0  0  0  0  0  0  0  0  0  0  0
  144.7605  132.2246  156.9391 H   0  0  0  0  0  0  0  0  0  0  0  0
  146.9225  133.3944  151.8312 H   0  0  0  0  0  0  0  0  0  0  0  0
  145.9475  132.3435  152.8579 H   0  0  0  0  0  0  0  0  0  0  0  0
  145.1352  133.8106  150.3503 H   0  0  0  0  0  0  0  0  0  0  0  0
  144.6452  132.1955  150.8673 H   0  0  0  0  0  0  0  0  0  0  0  0
  142.9120  134.2516  151.2058 H   0  0  0  0  0  0  0  0  0  0  0  0
  143.1479  133.1179  152.5407 H   0  0  0  0  0  0  0  0  0  0  0  0
  143.6633  135.2243  153.5983 H   0  0  0  0  0  0  0  0  0  0  0  0
  144.4728  135.8265  152.1685 H   0  0  0  0  0  0  0  0  0  0  0  0
  148.2751  139.7823  155.7265 H   0  0  0  0  0  0  0  0  0  0  0  0
  149.6612  141.7378  155.4938 H   0  0  0  0  0  0  0  0  0  0  0  0
  149.6404  141.6266  153.7299 H   0  0  0  0  0  0  0  0  0  0  0  0
  147.2978  142.3100  155.5365 H   0  0  0  0  0  0  0  0  0  0  0  0
  147.8897  143.2514  154.1594 H   0  0  0  0  0  0  0  0  0  0  0  0
  145.8573  141.4785  153.7866 H   0  0  0  0  0  0  0  0  0  0  0  0
  147.1553  141.5606  152.5919 H   0  0  0  0  0  0  0  0  0  0  0  0
  144.4455  132.7730  154.7220 H   0  0  0  0  0  0  0  0  0  0  0  0
  1  2  1  0  0  0  0
  1 23  1  0  0  0  0
  1 24  1  0  0  0  0
  1 25  1  0  0  0  0
  2  3  1  0  0  0  0
  2 18  1  0  0  0  0
  2 26  1  0  0  0  0
  3  4  1  0  0  0  0
  3 27  1  0  0  0  0
  4  5  2  0  0  0  0
  4  6  1  0  0  0  0
  6  7  1  0  0  0  0
  6 28  1  0  0  0  0
  7 12  1  0  0  0  0
  7  8  2  0  0  0  0
  8  9  1  0  0  0  0
  8 29  1  0  0  0  0
  9 10  2  0  0  0  0
  9 30  1  0  0  0  0
 10 11  1  0  0  0  0
 10 31  1  0  0  0  0
 11 12  2  0  0  0  0
 11 47  1  0  0  0  0
 12 13  1  0  0  0  0
 13 17  1  0  0  0  0
 13 14  1  0  0  0  0
 14 15  1  0  0  0  0
 14 32  1  0  0  0  0
 14 33  1  0  0  0  0
 15 16  1  0  0  0  0
 15 34  1  0  0  0  0
 15 35  1  0  0  0  0
 16 17  1  0  0  0  0
 16 36  1  0  0  0  0
 16 37  1  0  0  0  0
 17 38  1  0  0  0  0
 17 39  1  0  0  0  0
 18 22  1  0  0  0  0
 18 19  1  0  0  0  0
 18 40  1  0  0  0  0
 19 20  1  0  0  0  0
 19 41  1  0  0  0  0
 19 42  1  0  0  0  0
 20 21  1  0  0  0  0
 20 43  1  0  0  0  0
 20 44  1  0  0  0  0
 21 22  1  0  0  0  0
 21 45  1  0  0  0  0
 21 46  1  0  0  0  0
M  CHG  1  11   1
M  END
> <s_m_source_file>
AV-unprocessed.smi

> <i_m_source_file_index>
1793

> <i_lp_mmshare_version>
43012

> <i_f3d_flags>
0

> <s_epik_input>
TzFbQ0gyXVtDSDJdW0NIMl1bQ0BIXTFbQ0BIXShbQ0gzXSlbTkhdQyg9TylbTkhdYzJbY0hdW2NIXVtjSF1uYzJOM1tDSDJdW0NIMl1bQ0gyXVtDSDJdMw==

> <s_epik_cmdline>
J2VwaWtfcHl0aG9uJywgJy1waCcsICc3LjAnLCAnLXRuJywgJzgnLCAnLW1hJywgJzIwMCcsICctbWV0YWxfYmluZGluZycsICctaW1hZScsICc8aW5maWxlLm1hZT4nLCAnLW9tYWUnLCAnPG91dGZpbGUubWFlPic=

> <r_lp_tautomer_probability>
0.999994

> <r_epik_Ionization_Penalty>
1.11092

> <r_epik_Ionization_Penalty_Charging>
1.1109

> <r_epik_Ionization_Penalty_Neutral>
1.9363e-05

> <r_epik_State_Penalty>
1.16888

> <r_epik_Charging_Adjusted_Penalty>
2.27978

> <i_epik_Tot_Q>
1

> <i_epik_Tot_abs_Q>
1

> <r_epik_Metal_State_Penalty>
1.25472

> <b_epik_Metal_Only>
0

> <s_lp_Force_Field>
OPLS_2005

> <r_lp_Energy>
52.0623

> <b_lp_Chiralities_Consistent>
1

> <s_lp_Variant>
AV-unprocessed.smi:1793-8

> <Gold.Version>
5.8.1

> <Gold.Id.Protein>
6NUR|6NUR_protein|mol2

> <Gold.PLP.Fitness>
36.3491

> <Gold.PLP.PLP>
-25.6062

> <Gold.PLP.part.hbond>
-3.0000

> <Gold.PLP.part.metal>
0.0000

> <Gold.PLP.part.buried>
-1.6483

> <Gold.PLP.part.nonpolar>
-21.4330

> <Gold.PLP.part.repulsive>
0.2767

> <Gold.PLP.ligand.clash>
0.0000

> <Gold.PLP.ligand.torsion>
0.5568

> <Gold.PLP.Chemscore.Hbond>
3.8960

> <Gold.PLP.Chemscore.CHOScore>
0.0000

> <Gold.PLP.Chemscore.Metal>
0.0000

> <Gold.Chemscore.Hbonds>
donor molecule, donor type, donor heavy atom, donor atom, acceptor molecule, acceptor atom, score
      L1  H     3    27       P1  7948  1.00
      L1  H     6    28       P1  7948  0.91
      L1  H    11    47       P1 10957  1.93

> <Gold.PLP.Chemscore.Internal.Correction>
0.1686

> <Gold.Rescore>
     Score         DG    S(hbond)    S(metal)    S(lipo)     H(rot)  DE(clash)    DE(int)     intcor
     16.19     -18.48       2.77        0.00      62.27       1.38       0.04       2.25       ----

> <Gold.Chemscore.Fitness>
16.1854

> <Gold.Chemscore.DG>
-18.4779

> <Gold.Chemscore.ZeroCoef>
-5.4800

> <Gold.Chemscore.Hbond>
2.7680

> <Gold.Chemscore.Metal>
0.0000

> <Gold.Chemscore.Lipo>
62.2727

> <Gold.Chemscore.Internal_Hbond>
0.0000

> <Gold.Chemscore.DEClash>
0.0440

> <Gold.Chemscore.DEInternal>
2.2484

> <Gold.Chemscore.Rot>
1.3802

> <Gold.Chemscore.Internal.Correction>
   9.000000E+99

> <Gold.Chemscore.Hbonds>
donor molecule, donor type, donor heavy atom, donor atom, acceptor molecule, acceptor atom, score
      L1  H     3    27       P1  7948  0.97
      L1  H     6    28       P1  7948  0.85
      L1  H    11    47       P1 10957  0.85

> <Gold.Chemscore.Hbond.Weighted>
-9.2452

> <Gold.Chemscore.Metal.Weighted>
-0.0000

> <Gold.Chemscore.Lipo.Weighted>
-7.2859

> <Gold.Chemscore.Internal_Hbond.Weighted>
0.0000

> <Gold.Chemscore.DEClash.Weighted>
0.0440

> <Gold.Chemscore.DEInternal.Weighted>
2.2484

> <Gold.Chemscore.Rot.Weighted>
3.5332

> <Gold.Chemscore.Internal.Correction.Weighted>
   9.000000E+99

> <Gold.Protein.RotatedTorsions>
[ 6907 6896 6895 6894 ] final  -26.31 input  -60.11 | X-H torsion
[ 7974 7965 7964 7962 ] final  166.04 input  175.53 | X-H torsion
[ 8008 7997 7996 7995 ] final    3.30 input   59.86 | X-H torsion
[ 10167 10162 10161 10158 ] final   44.51 input  -65.29 | X-H torsion
[ 10718 10713 10712 10709 ] final  124.51 input   66.30 | X-H torsion
[ 10763 10752 10751 10750 ] final  -24.32 input  -60.55 | X-H torsion
[ 11005 11000 10999 10996 ] final -135.22 input  -57.11 | X-H torsion

> <Gold.Protein.ActiveResidues>
 VAL166  LYS551  ARG553  GLY616  TRP617  ASP618  TYR619  PRO620  LYS621  CYS622 
 ASP623  PHE694  ASN695  SER759  ASP760  ASP761  ALA762  ILE779  LEU786  VAL792 
 PHE793  MET794  SER795  GLU796  ALA797  LYS798  CYS799  TRP800  GLU811  SER814 

> <Gold.Protein.RotatedAtoms>
  151.1628  135.0281  159.8717 H   0  0  0  0  0  0  0  0  0  0  0  0  # atno 6907 bound_to 6896
  152.5451  134.1259  159.8429 H   0  0  0  0  0  0  0  0  0  0  0  0  # atno 6908 bound_to 6896
  151.1356  133.4960  159.2630 H   0  0  0  0  0  0  0  0  0  0  0  0  # atno 6909 bound_to 6896
  144.7478  139.8557  143.6376 H   0  0  0  0  0  0  0  0  0  0  0  0  # atno 7974 bound_to 7965
  154.7020  140.2675  155.6710 H   0  0  0  0  0  0  0  0  0  0  0  0  # atno 8008 bound_to 7997
  156.2768  140.2770  156.1557 H   0  0  0  0  0  0  0  0  0  0  0  0  # atno 8009 bound_to 7997
  155.0752  140.0372  157.2611 H   0  0  0  0  0  0  0  0  0  0  0  0  # atno 8010 bound_to 7997
  140.3335  144.2558  150.6165 H   0  0  0  0  0  0  0  0  0  0  0  0  # atno 10167 bound_to 10162
  157.5579  131.1091  150.8590 H   0  0  0  0  0  0  0  0  0  0  0  0  # atno 10718 bound_to 10713
  153.6819  135.6966  153.5115 H   0  0  0  0  0  0  0  0  0  0  0  0  # atno 10763 bound_to 10752
  153.2478  135.4285  155.0765 H   0  0  0  0  0  0  0  0  0  0  0  0  # atno 10764 bound_to 10752
  154.8397  135.3524  154.6362 H   0  0  0  0  0  0  0  0  0  0  0  0  # atno 10765 bound_to 10752
  140.8918  134.1802  157.4522 H   0  0  0  0  0  0  0  0  0  0  0  0  # atno 11005 bound_to 11000
  146.1384  139.4435  143.0124 LP  0  0  0  0  0  0  0  0  0  0  0  0  # atno 17320 bound_to 7965
  145.7056  141.0122  143.1481 LP  0  0  0  0  0  0  0  0  0  0  0  0  # atno 17321 bound_to 7965
  140.5375  143.2230  151.8139 LP  0  0  0  0  0  0  0  0  0  0  0  0  # atno 17342 bound_to 10162
  139.4852  144.4643  151.9503 LP  0  0  0  0  0  0  0  0  0  0  0  0  # atno 17343 bound_to 10162
  156.9096  130.5276  149.5280 LP  0  0  0  0  0  0  0  0  0  0  0  0  # atno 17370 bound_to 10713
  156.0635  130.5683  150.9242 LP  0  0  0  0  0  0  0  0  0  0  0  0  # atno 17371 bound_to 10713
  139.8730  134.9861  156.5312 LP  0  0  0  0  0  0  0  0  0  0  0  0  # atno 17394 bound_to 11000
  140.8338  133.8258  155.9009 LP  0  0  0  0  0  0  0  0  0  0  0  0  # atno 17395 bound_to 11000

$$$$
