AV-unprocessed.smi:1415|AV-procd|sdf|5763|dock6
  -GOLD-   22720 5403D 1   1.00000     0.00000
 Structure written by MMmdl.
 40 41  0  0  0  0  0  0  0  0  1 V2000
  150.7414  134.3842  155.7043 O   0  0  0  0  0  0  0  0  0  0  0  0
  150.1787  134.8557  154.7157 C   0  0  0  0  0  0  0  0  0  0  0  0
  150.2861  136.1409  154.3483 N   0  0  0  0  0  0  0  0  0  0  0  0
  151.0690  137.1463  155.0564 C   0  0  0  0  0  0  0  0  0  0  0  0
  151.3423  138.3779  154.1723 C   0  0  0  0  0  0  0  0  0  0  0  0
  150.9698  139.6191  154.8623 N   0  0  0  0  0  0  0  0  0  0  0  0
  149.7332  140.2759  154.4060 C   0  0  0  0  0  0  0  0  0  0  0  0
  148.5735  140.2017  155.4275 C   0  0  0  0  0  0  0  0  0  0  0  0
  148.9744  140.1369  156.9147 C   0  0  0  0  0  0  0  0  0  0  0  0
  149.9420  141.2457  157.3791 C   0  0  0  0  0  0  0  0  0  0  0  0
  151.2467  141.4081  156.5637 C   0  0  0  0  0  0  0  0  0  0  0  0
  151.7235  140.1210  155.8719 C   0  0  0  0  0  0  0  0  0  0  0  0
  152.7641  139.5905  156.2612 O   0  0  0  0  0  0  0  0  0  0  0  0
  149.3870  134.1717  153.8709 N   0  0  0  0  0  0  0  0  0  0  0  0
  149.0381  132.7953  153.9154 C   0  0  0  0  0  0  0  0  0  0  0  0
  147.8671  132.4513  153.2029 C   0  0  0  0  0  0  0  0  0  0  0  0
  147.4358  131.1106  153.1843 C   0  0  0  0  0  0  0  0  0  0  0  0
  148.1881  130.1468  153.8789 C   0  0  0  0  0  0  0  0  0  0  0  0
  149.3416  130.5728  154.5627 C   0  0  0  0  0  0  0  0  0  0  0  0
  149.7565  131.8571  154.5819 N   0  0  0  0  0  0  0  0  0  0  0  0
  149.7907  136.4464  153.5234 H   0  0  0  0  0  0  0  0  0  0  0  0
  150.5119  137.4451  155.9447 H   0  0  0  0  0  0  0  0  0  0  0  0
  152.0022  136.7054  155.4116 H   0  0  0  0  0  0  0  0  0  0  0  0
  152.3965  138.4152  153.8916 H   0  0  0  0  0  0  0  0  0  0  0  0
  150.8034  138.2805  153.2294 H   0  0  0  0  0  0  0  0  0  0  0  0
  149.9496  141.3176  154.1686 H   0  0  0  0  0  0  0  0  0  0  0  0
  149.3882  139.8577  153.4602 H   0  0  0  0  0  0  0  0  0  0  0  0
  147.9073  141.0496  155.2651 H   0  0  0  0  0  0  0  0  0  0  0  0
  147.9776  139.3150  155.2089 H   0  0  0  0  0  0  0  0  0  0  0  0
  148.0713  140.1810  157.5240 H   0  0  0  0  0  0  0  0  0  0  0  0
  149.4102  139.1599  157.1291 H   0  0  0  0  0  0  0  0  0  0  0  0
  149.4135  142.1994  157.3789 H   0  0  0  0  0  0  0  0  0  0  0  0
  150.2016  141.0563  158.4212 H   0  0  0  0  0  0  0  0  0  0  0  0
  151.1262  142.1900  155.8144 H   0  0  0  0  0  0  0  0  0  0  0  0
  152.0364  141.7738  157.2215 H   0  0  0  0  0  0  0  0  0  0  0  0
  148.9878  134.6960  153.1065 H   0  0  0  0  0  0  0  0  0  0  0  0
  147.3010  133.2047  152.6746 H   0  0  0  0  0  0  0  0  0  0  0  0
  146.5437  130.8274  152.6458 H   0  0  0  0  0  0  0  0  0  0  0  0
  147.8900  129.1089  153.8878 H   0  0  0  0  0  0  0  0  0  0  0  0
  149.9470  129.8646  155.1083 H   0  0  0  0  0  0  0  0  0  0  0  0
  1  2  2  0  0  0  0
  2  3  1  0  0  0  0
  2 14  1  0  0  0  0
  3  4  1  0  0  0  0
  3 21  1  0  0  0  0
  4  5  1  0  0  0  0
  4 22  1  0  0  0  0
  4 23  1  0  0  0  0
  5  6  1  0  0  0  0
  5 24  1  0  0  0  0
  5 25  1  0  0  0  0
  6 12  1  0  0  0  0
  6  7  1  0  0  0  0
  7  8  1  0  0  0  0
  7 26  1  0  0  0  0
  7 27  1  0  0  0  0
  8  9  1  0  0  0  0
  8 28  1  0  0  0  0
  8 29  1  0  0  0  0
  9 10  1  0  0  0  0
  9 30  1  0  0  0  0
  9 31  1  0  0  0  0
 10 11  1  0  0  0  0
 10 32  1  0  0  0  0
 10 33  1  0  0  0  0
 11 12  1  0  0  0  0
 11 34  1  0  0  0  0
 11 35  1  0  0  0  0
 12 13  2  0  0  0  0
 14 15  1  0  0  0  0
 14 36  1  0  0  0  0
 15 20  1  0  0  0  0
 15 16  2  0  0  0  0
 16 17  1  0  0  0  0
 16 37  1  0  0  0  0
 17 18  2  0  0  0  0
 17 38  1  0  0  0  0
 18 19  1  0  0  0  0
 18 39  1  0  0  0  0
 19 20  2  0  0  0  0
 19 40  1  0  0  0  0
M  END
> <s_m_source_file>
AV-unprocessed.smi

> <i_m_source_file_index>
1415

> <i_lp_mmshare_version>
43012

> <i_f3d_flags>
0

> <s_epik_input>
bjFbY0hdW2NIXVtjSF1bY0hdYzFbTkhdQyg9TylbTkhdW0NIMl1bQ0gyXU4yW0NIMl1bQ0gyXVtDSDJdW0NIMl1bQ0gyXUMyPU8=

> <s_epik_cmdline>
J2VwaWtfcHl0aG9uJywgJy1waCcsICc3LjAnLCAnLXRuJywgJzgnLCAnLW1hJywgJzIwMCcsICctbWV0YWxfYmluZGluZycsICctaW1hZScsICc8aW5maWxlLm1hZT4nLCAnLW9tYWUnLCAnPG91dGZpbGUubWFlPic=

> <r_lp_tautomer_probability>
1

> <r_epik_Ionization_Penalty>
4.30218e-05

> <r_epik_Ionization_Penalty_Charging>
0

> <r_epik_Ionization_Penalty_Neutral>
4.30218e-05

> <r_epik_State_Penalty>
-0

> <r_epik_Charging_Adjusted_Penalty>
0

> <i_epik_Tot_Q>
0

> <i_epik_Tot_abs_Q>
0

> <r_epik_Metal_State_Penalty>
-0

> <b_epik_Metal_Only>
0

> <s_lp_Force_Field>
OPLS_2005

> <r_lp_Energy>
23.0834

> <b_lp_Chiralities_Consistent>
1

> <s_lp_Variant>
AV-unprocessed.smi:1415-1

> <Gold.Version>
5.8.1

> <Gold.Id.Protein>
6NUR|6NUR_protein|mol2

> <Gold.PLP.Fitness>
41.9828

> <Gold.PLP.PLP>
-34.8180

> <Gold.PLP.part.hbond>
-3.8923

> <Gold.PLP.part.metal>
0.0000

> <Gold.PLP.part.buried>
-3.1208

> <Gold.PLP.part.nonpolar>
-27.9873

> <Gold.PLP.part.repulsive>
0.1566

> <Gold.PLP.ligand.clash>
0.0000

> <Gold.PLP.ligand.torsion>
0.7384

> <Gold.PLP.Chemscore.Hbond>
2.8784

> <Gold.PLP.Chemscore.CHOScore>
0.0000

> <Gold.PLP.Chemscore.Metal>
0.0000

> <Gold.Chemscore.Hbonds>
donor molecule, donor type, donor heavy atom, donor atom, acceptor molecule, acceptor atom, score
      L1  H     3    21       P1  7948  1.00
      L1  H    14    36       P1  7948  0.70
      P1  H  7997  8008       L1    13  1.00

> <Gold.PLP.Chemscore.Internal.Correction>
0.0062

> <Gold.Rescore>
     Score         DG    S(hbond)    S(metal)    S(lipo)     H(rot)  DE(clash)    DE(int)     intcor
     13.70     -15.66       2.36        0.00      53.98       1.57       0.08       1.87       ----

> <Gold.Chemscore.Fitness>
13.7037

> <Gold.Chemscore.DG>
-15.6561

> <Gold.Chemscore.ZeroCoef>
-5.4800

> <Gold.Chemscore.Hbond>
2.3615

> <Gold.Chemscore.Metal>
0.0000

> <Gold.Chemscore.Lipo>
53.9819

> <Gold.Chemscore.Internal_Hbond>
0.0000

> <Gold.Chemscore.DEClash>
0.0826

> <Gold.Chemscore.DEInternal>
1.8699

> <Gold.Chemscore.Rot>
1.5731

> <Gold.Chemscore.Internal.Correction>
   9.000000E+99

> <Gold.Chemscore.Hbonds>
donor molecule, donor type, donor heavy atom, donor atom, acceptor molecule, acceptor atom, score
      L1  H     3    21       P1  7948  0.29
      L1  H    14    36       P1  7948  0.07
      P1  H  7997  8008       L1    13  1.00

> <Gold.Chemscore.Hbond.Weighted>
-7.8873

> <Gold.Chemscore.Metal.Weighted>
-0.0000

> <Gold.Chemscore.Lipo.Weighted>
-6.3159

> <Gold.Chemscore.Internal_Hbond.Weighted>
0.0000

> <Gold.Chemscore.DEClash.Weighted>
0.0826

> <Gold.Chemscore.DEInternal.Weighted>
1.8699

> <Gold.Chemscore.Rot.Weighted>
4.0271

> <Gold.Chemscore.Internal.Correction.Weighted>
   9.000000E+99

> <Gold.Protein.RotatedTorsions>
[ 6907 6896 6895 6894 ] final  -65.58 input  -60.11 | X-H torsion
[ 7974 7965 7964 7962 ] final -178.16 input  175.53 | X-H torsion
[ 8008 7997 7996 7995 ] final  -40.01 input   59.86 | X-H torsion
[ 10167 10162 10161 10158 ] final   27.72 input  -65.29 | X-H torsion
[ 10718 10713 10712 10709 ] final  120.80 input   66.30 | X-H torsion
[ 10763 10752 10751 10750 ] final -164.32 input  -60.55 | X-H torsion
[ 11005 11000 10999 10996 ] final  -56.63 input  -57.11 | X-H torsion

> <Gold.Protein.ActiveResidues>
 VAL166  LYS551  ARG553  GLY616  TRP617  ASP618  TYR619  PRO620  LYS621  CYS622 
 ASP623  PHE694  ASN695  SER759  ASP760  ASP761  ALA762  ILE779  LEU786  VAL792 
 PHE793  MET794  SER795  GLU796  ALA797  LYS798  CYS799  TRP800  GLU811  SER814 

> <Gold.Protein.RotatedAtoms>
  150.7516  134.6141  159.6101 H   0  0  0  0  0  0  0  0  0  0  0  0  # atno 6907 bound_to 6896
  152.3466  134.7059  160.0257 H   0  0  0  0  0  0  0  0  0  0  0  0  # atno 6908 bound_to 6896
  151.7494  133.3290  159.3424 H   0  0  0  0  0  0  0  0  0  0  0  0  # atno 6909 bound_to 6896
  144.7130  140.0910  143.6421 H   0  0  0  0  0  0  0  0  0  0  0  0  # atno 7974 bound_to 7965
  154.4016  140.1536  156.2958 H   0  0  0  0  0  0  0  0  0  0  0  0  # atno 8008 bound_to 7997
  155.8745  140.3447  155.5822 H   0  0  0  0  0  0  0  0  0  0  0  0  # atno 8009 bound_to 7997
  155.7737  140.0834  157.2085 H   0  0  0  0  0  0  0  0  0  0  0  0  # atno 8010 bound_to 7997
  140.4914  144.0461  150.6298 H   0  0  0  0  0  0  0  0  0  0  0  0  # atno 10167 bound_to 10162
  157.5864  131.1069  150.8085 H   0  0  0  0  0  0  0  0  0  0  0  0  # atno 10718 bound_to 10713
  154.7040  135.2993  154.9299 H   0  0  0  0  0  0  0  0  0  0  0  0  # atno 10763 bound_to 10752
  154.0222  135.6681  153.4777 H   0  0  0  0  0  0  0  0  0  0  0  0  # atno 10764 bound_to 10752
  153.0702  135.5065  154.8199 H   0  0  0  0  0  0  0  0  0  0  0  0  # atno 10765 bound_to 10752
  141.1128  133.6610  156.4647 H   0  0  0  0  0  0  0  0  0  0  0  0  # atno 11005 bound_to 11000
  145.9620  139.2808  143.1150 LP  0  0  0  0  0  0  0  0  0  0  0  0  # atno 17320 bound_to 7965
  145.9210  140.9115  143.0405 LP  0  0  0  0  0  0  0  0  0  0  0  0  # atno 17321 bound_to 7965
  140.3731  143.2843  152.0256 LP  0  0  0  0  0  0  0  0  0  0  0  0  # atno 17342 bound_to 10162
  139.4852  144.6214  151.7247 LP  0  0  0  0  0  0  0  0  0  0  0  0  # atno 17343 bound_to 10162
  156.8518  130.5083  149.5311 LP  0  0  0  0  0  0  0  0  0  0  0  0  # atno 17370 bound_to 10713
  156.0914  130.5899  150.9739 LP  0  0  0  0  0  0  0  0  0  0  0  0  # atno 17371 bound_to 10713
  140.4727  134.6738  157.5136 LP  0  0  0  0  0  0  0  0  0  0  0  0  # atno 17394 bound_to 11000
  140.0032  134.6803  155.9496 LP  0  0  0  0  0  0  0  0  0  0  0  0  # atno 17395 bound_to 11000

$$$$
