AV-unprocessed.smi:1686|AV-procd|sdf|6758|dock7
  -GOLD-   22720 7513D 1   1.00000     0.00000
 Structure written by MMmdl.
 41 43  0  0  0  0  0  0  0  0  1 V2000
  148.8681  136.4195  158.2348 C   0  0  0  0  0  0  0  0  0  0  0  0
  150.2994  136.3290  157.7901 C   0  0  0  0  0  0  0  0  0  0  0  0
  150.6338  135.4355  156.8683 N   0  0  0  0  0  0  0  0  0  0  0  0
  152.0079  135.5885  156.6506 O   0  0  0  0  0  0  0  0  0  0  0  0
  152.4305  136.5798  157.4682 C   0  0  0  0  0  0  0  0  0  0  0  0
  154.0684  137.1001  157.5135 Cl  0  0  0  0  0  0  0  0  0  0  0  0
  151.4191  137.0980  158.2248 C   0  0  0  0  0  0  0  0  0  0  0  0
  151.4621  138.2038  159.2520 C   0  0  0  0  0  0  0  0  0  0  0  0
  152.2776  139.4066  158.7622 C   0  0  0  0  0  0  0  0  0  0  0  0
  152.8233  139.4014  157.6575 O   0  0  0  0  0  0  0  0  0  0  0  0
  152.3388  140.4449  159.6106 N   0  0  0  0  0  0  0  0  0  0  0  0
  153.0325  141.7116  159.3793 C   0  0  2  0  0  0  0  0  0  0  0  0
  154.2973  141.7440  160.2506 C   0  0  0  0  0  0  0  0  0  0  0  0
  152.0757  142.8916  159.6782 C   0  0  2  0  0  0  0  0  0  0  0  0
  150.7451  142.8718  158.8896 C   0  0  0  0  0  0  0  0  0  0  0  0
  150.6525  144.3024  158.3278 C   0  0  2  0  0  0  0  0  0  0  0  0
  151.6589  144.4524  157.1724 C   0  0  0  0  0  0  0  0  0  0  0  0
  153.0116  144.4900  157.9064 C   0  0  0  0  0  0  0  0  0  0  0  0
  152.6046  144.3179  159.3845 C   0  0  1  0  0  0  0  0  0  0  0  0
  151.3111  145.1256  159.4286 C   0  0  0  0  0  0  0  0  0  0  0  0
  148.7012  137.2897  158.8696 H   0  0  0  0  0  0  0  0  0  0  0  0
  148.5779  135.5344  158.8010 H   0  0  0  0  0  0  0  0  0  0  0  0
  148.1957  136.5048  157.3807 H   0  0  0  0  0  0  0  0  0  0  0  0
  150.4564  138.5465  159.4971 H   0  0  0  0  0  0  0  0  0  0  0  0
  151.8958  137.8521  160.1887 H   0  0  0  0  0  0  0  0  0  0  0  0
  151.8573  140.3534  160.4933 H   0  0  0  0  0  0  0  0  0  0  0  0
  153.3503  141.7635  158.3379 H   0  0  0  0  0  0  0  0  0  0  0  0
  154.8857  142.6422  160.0628 H   0  0  0  0  0  0  0  0  0  0  0  0
  154.9394  140.8880  160.0403 H   0  0  0  0  0  0  0  0  0  0  0  0
  154.0500  141.7228  161.3125 H   0  0  0  0  0  0  0  0  0  0  0  0
  151.8323  142.8528  160.7420 H   0  0  0  0  0  0  0  0  0  0  0  0
  150.7297  142.1295  158.0908 H   0  0  0  0  0  0  0  0  0  0  0  0
  149.9094  142.6554  159.5560 H   0  0  0  0  0  0  0  0  0  0  0  0
  149.6382  144.6053  158.0659 H   0  0  0  0  0  0  0  0  0  0  0  0
  151.5957  143.6305  156.4584 H   0  0  0  0  0  0  0  0  0  0  0  0
  151.4920  145.3823  156.6273 H   0  0  0  0  0  0  0  0  0  0  0  0
  153.7064  143.7286  157.5548 H   0  0  0  0  0  0  0  0  0  0  0  0
  153.4930  145.4573  157.7568 H   0  0  0  0  0  0  0  0  0  0  0  0
  153.3661  144.6549  160.0883 H   0  0  0  0  0  0  0  0  0  0  0  0
  151.4448  146.1757  159.1622 H   0  0  0  0  0  0  0  0  0  0  0  0
  150.7905  145.0636  160.3860 H   0  0  0  0  0  0  0  0  0  0  0  0
  1  2  1  0  0  0  0
  1 21  1  0  0  0  0
  1 22  1  0  0  0  0
  1 23  1  0  0  0  0
  2  7  1  0  0  0  0
  2  3  2  0  0  0  0
  3  4  1  0  0  0  0
  4  5  1  0  0  0  0
  5  6  1  0  0  0  0
  5  7  2  0  0  0  0
  7  8  1  0  0  0  0
  8  9  1  0  0  0  0
  8 24  1  0  0  0  0
  8 25  1  0  0  0  0
  9 10  2  0  0  0  0
  9 11  1  0  0  0  0
 11 12  1  0  0  0  0
 11 26  1  0  0  0  0
 12 13  1  0  0  0  0
 12 14  1  0  0  0  0
 12 27  1  0  0  0  0
 13 28  1  0  0  0  0
 13 29  1  0  0  0  0
 13 30  1  0  0  0  0
 14 19  1  0  0  0  0
 14 15  1  0  0  0  0
 14 31  1  0  0  0  0
 15 16  1  0  0  0  0
 15 32  1  0  0  0  0
 15 33  1  0  0  0  0
 16 20  1  0  0  0  0
 16 17  1  0  0  0  0
 16 34  1  0  0  0  0
 17 18  1  0  0  0  0
 17 35  1  0  0  0  0
 17 36  1  0  0  0  0
 18 19  1  0  0  0  0
 18 37  1  0  0  0  0
 18 38  1  0  0  0  0
 19 20  1  0  0  0  0
 19 39  1  0  0  0  0
 20 40  1  0  0  0  0
 20 41  1  0  0  0  0
M  END
> <s_m_source_file>
AV-unprocessed.smi

> <i_m_source_file_index>
1686

> <i_lp_mmshare_version>
43012

> <i_f3d_flags>
0

> <s_epik_input>
W0NIM11jMW5vYyhDbCljMVtDSDJdQyg9TylbTkhdW0NASF0oW0NIM10pW0NASF0oW0NIMl1bQ0BIXTIzKVtDQEhdKFtDSDJdMylbQ0gyXVtDSDJdMg==

> <s_epik_cmdline>
J2VwaWtfcHl0aG9uJywgJy1waCcsICc3LjAnLCAnLXRuJywgJzgnLCAnLW1hJywgJzIwMCcsICctbWV0YWxfYmluZGluZycsICctaW1hZScsICc8aW5maWxlLm1hZT4nLCAnLW9tYWUnLCAnPG91dGZpbGUubWFlPic=

> <r_lp_tautomer_probability>
1

> <r_epik_Ionization_Penalty>
2.01576e-08

> <r_epik_Ionization_Penalty_Charging>
0

> <r_epik_Ionization_Penalty_Neutral>
2.01576e-08

> <r_epik_State_Penalty>
-0

> <r_epik_Charging_Adjusted_Penalty>
0

> <i_epik_Tot_Q>
0

> <i_epik_Tot_abs_Q>
0

> <r_epik_Metal_State_Penalty>
-0

> <b_epik_Metal_Only>
0

> <s_lp_Force_Field>
OPLS_2005

> <r_lp_Energy>
47.064

> <b_lp_Chiralities_Consistent>
1

> <s_lp_Variant>
AV-unprocessed.smi:1686-1

> <Gold.Version>
5.8.1

> <Gold.Id.Protein>
6NUR|6NUR_protein|mol2

> <Gold.PLP.Fitness>
42.3422

> <Gold.PLP.PLP>
-36.9765

> <Gold.PLP.part.hbond>
-2.0000

> <Gold.PLP.part.metal>
0.0000

> <Gold.PLP.part.buried>
-5.1586

> <Gold.PLP.part.nonpolar>
-29.5542

> <Gold.PLP.part.repulsive>
0.1445

> <Gold.PLP.ligand.clash>
0.0000

> <Gold.PLP.ligand.torsion>
0.3206

> <Gold.PLP.Chemscore.Hbond>
2.0000

> <Gold.PLP.Chemscore.CHOScore>
0.0000

> <Gold.PLP.Chemscore.Metal>
0.0000

> <Gold.Chemscore.Hbonds>
donor molecule, donor type, donor heavy atom, donor atom, acceptor molecule, acceptor atom, score
      P1  H  7997  8008       L1    10  1.00
      P1  H 10752 10765       L1     4  1.00

> <Gold.PLP.Chemscore.Internal.Correction>
0.0069

> <Gold.Rescore>
     Score         DG    S(hbond)    S(metal)    S(lipo)     H(rot)  DE(clash)    DE(int)     intcor
     21.31     -22.21       1.91        0.00     120.45       1.46       0.70       0.20       ----

> <Gold.Chemscore.Fitness>
21.3050

> <Gold.Chemscore.DG>
-22.2110

> <Gold.Chemscore.ZeroCoef>
-5.4800

> <Gold.Chemscore.Hbond>
1.9126

> <Gold.Chemscore.Metal>
0.0000

> <Gold.Chemscore.Lipo>
120.4512

> <Gold.Chemscore.Internal_Hbond>
0.0000

> <Gold.Chemscore.DEClash>
0.7035

> <Gold.Chemscore.DEInternal>
0.2025

> <Gold.Chemscore.Rot>
1.4648

> <Gold.Chemscore.Internal.Correction>
   9.000000E+99

> <Gold.Chemscore.Hbonds>
donor molecule, donor type, donor heavy atom, donor atom, acceptor molecule, acceptor atom, score
      P1  H  7997  8008       L1    10  0.94
      P1  H 10752 10765       L1     4  0.60

> <Gold.Chemscore.Hbond.Weighted>
-6.3882

> <Gold.Chemscore.Metal.Weighted>
-0.0000

> <Gold.Chemscore.Lipo.Weighted>
-14.0928

> <Gold.Chemscore.Internal_Hbond.Weighted>
0.0000

> <Gold.Chemscore.DEClash.Weighted>
0.7035

> <Gold.Chemscore.DEInternal.Weighted>
0.2025

> <Gold.Chemscore.Rot.Weighted>
3.7500

> <Gold.Chemscore.Internal.Correction.Weighted>
   9.000000E+99

> <Gold.Protein.RotatedTorsions>
[ 6907 6896 6895 6894 ] final -116.34 input  -60.11 | X-H torsion
[ 7974 7965 7964 7962 ] final  121.36 input  175.53 | X-H torsion
[ 8008 7997 7996 7995 ] final  -55.41 input   59.86 | X-H torsion
[ 10167 10162 10161 10158 ] final   71.62 input  -65.29 | X-H torsion
[ 10718 10713 10712 10709 ] final  -68.21 input   66.30 | X-H torsion
[ 10763 10752 10751 10750 ] final -132.95 input  -60.55 | X-H torsion
[ 11005 11000 10999 10996 ] final  108.41 input  -57.11 | X-H torsion

> <Gold.Protein.ActiveResidues>
 VAL166  LYS551  ARG553  GLY616  TRP617  ASP618  TYR619  PRO620  LYS621  CYS622 
 ASP623  PHE694  ASN695  SER759  ASP760  ASP761  ALA762  ILE779  LEU786  VAL792 
 PHE793  MET794  SER795  GLU796  ALA797  LYS798  CYS799  TRP800  GLU811  SER814 

> <Gold.Protein.RotatedAtoms>
  150.8048  133.8531  159.3210 H   0  0  0  0  0  0  0  0  0  0  0  0  # atno 6907 bound_to 6896
  151.6333  135.1019  160.0136 H   0  0  0  0  0  0  0  0  0  0  0  0  # atno 6908 bound_to 6896
  152.4138  133.6965  159.6456 H   0  0  0  0  0  0  0  0  0  0  0  0  # atno 6909 bound_to 6896
  145.1202  139.3394  143.4718 H   0  0  0  0  0  0  0  0  0  0  0  0  # atno 7974 bound_to 7965
  154.4194  140.1153  156.5472 H   0  0  0  0  0  0  0  0  0  0  0  0  # atno 8008 bound_to 7997
  155.6447  140.3496  155.4708 H   0  0  0  0  0  0  0  0  0  0  0  0  # atno 8009 bound_to 7997
  155.9842  140.1166  157.0688 H   0  0  0  0  0  0  0  0  0  0  0  0  # atno 8010 bound_to 7997
  140.0442  144.5365  150.7411 H   0  0  0  0  0  0  0  0  0  0  0  0  # atno 10167 bound_to 10162
  156.0517  130.4291  150.1967 H   0  0  0  0  0  0  0  0  0  0  0  0  # atno 10718 bound_to 10713
  154.8738  135.3781  154.4493 H   0  0  0  0  0  0  0  0  0  0  0  0  # atno 10763 bound_to 10752
  153.5171  135.7029  153.5756 H   0  0  0  0  0  0  0  0  0  0  0  0  # atno 10764 bound_to 10752
  153.4019  135.3946  155.1959 H   0  0  0  0  0  0  0  0  0  0  0  0  # atno 10765 bound_to 10752
  139.8844  134.9429  156.5968 H   0  0  0  0  0  0  0  0  0  0  0  0  # atno 11005 bound_to 11000
  146.3521  140.1159  142.8602 LP  0  0  0  0  0  0  0  0  0  0  0  0  # atno 17320 bound_to 7965
  145.0748  140.9181  143.4860 LP  0  0  0  0  0  0  0  0  0  0  0  0  # atno 17321 bound_to 7965
  140.7246  143.2623  151.4162 LP  0  0  0  0  0  0  0  0  0  0  0  0  # atno 17342 bound_to 10162
  139.5994  144.1327  152.2181 LP  0  0  0  0  0  0  0  0  0  0  0  0  # atno 17343 bound_to 10162
  157.0049  130.9933  151.3381 LP  0  0  0  0  0  0  0  0  0  0  0  0  # atno 17370 bound_to 10713
  157.5450  130.8144  149.8074 LP  0  0  0  0  0  0  0  0  0  0  0  0  # atno 17371 bound_to 10713
  140.7914  133.8579  155.8649 LP  0  0  0  0  0  0  0  0  0  0  0  0  # atno 17394 bound_to 11000
  140.9674  134.1576  157.4604 LP  0  0  0  0  0  0  0  0  0  0  0  0  # atno 17395 bound_to 11000

$$$$
