AV-unprocessed.smi:1443|AV-procd|sdf|5878|dock4
  -GOLD-   22720 5553D 1   1.00000     0.00000
 Structure written by MMmdl.
 27 28  0  0  0  0  0  0  0  0  1 V2000
  146.6279  138.5668  151.3750 C   0  0  0  0  0  0  0  0  0  0  0  0
  146.7190  140.3051  151.8797 S   0  0  0  0  0  0  0  0  0  0  0  0
  147.7526  140.3504  153.3084 C   0  0  0  0  0  0  0  0  0  0  0  0
  148.1886  139.2065  153.8660 N   0  0  0  0  0  0  0  0  0  0  0  0
  149.1561  139.5901  155.1970 S   0  0  0  0  0  0  0  0  0  0  0  0
  148.9180  141.2897  154.9186 C   0  0  0  0  0  0  0  0  0  0  0  0
  149.5185  142.2848  155.7432 N   0  0  0  0  0  0  0  0  0  0  0  0
  150.6502  142.2701  156.4793 C   0  0  0  0  0  0  0  0  0  0  0  0
  151.3670  141.2714  156.5172 O   0  0  0  0  0  0  0  0  0  0  0  0
  150.9335  143.3961  157.1525 N   0  0  0  0  0  0  0  0  0  0  0  0
  152.0850  143.6147  157.9677 C   0  0  1  0  0  0  0  0  0  0  0  0
  152.5725  145.0411  158.1041 C   0  0  0  0  0  0  0  0  0  0  0  0
  151.9270  144.3590  159.2809 C   0  0  1  0  0  0  0  0  0  0  0  0
  150.5738  144.8120  159.7918 C   0  0  0  0  0  0  0  0  0  0  0  0
  148.1330  141.5153  153.8645 N   0  0  0  0  0  0  0  0  0  0  0  0
  145.9576  138.4578  150.5227 H   0  0  0  0  0  0  0  0  0  0  0  0
  146.2542  137.9481  152.1911 H   0  0  0  0  0  0  0  0  0  0  0  0
  147.6147  138.2078  151.0850 H   0  0  0  0  0  0  0  0  0  0  0  0
  148.9888  143.1417  155.8125 H   0  0  0  0  0  0  0  0  0  0  0  0
  150.2858  144.1666  157.0670 H   0  0  0  0  0  0  0  0  0  0  0  0
  152.8617  142.8517  157.9416 H   0  0  0  0  0  0  0  0  0  0  0  0
  153.6479  145.2015  158.1450 H   0  0  0  0  0  0  0  0  0  0  0  0
  152.0067  145.8210  157.5975 H   0  0  0  0  0  0  0  0  0  0  0  0
  152.6004  144.0449  160.0761 H   0  0  0  0  0  0  0  0  0  0  0  0
  149.9481  145.1746  158.9772 H   0  0  0  0  0  0  0  0  0  0  0  0
  150.6989  145.6181  160.5149 H   0  0  0  0  0  0  0  0  0  0  0  0
  150.0618  143.9828  160.2800 H   0  0  0  0  0  0  0  0  0  0  0  0
  1  2  1  0  0  0  0
  1 16  1  0  0  0  0
  1 17  1  0  0  0  0
  1 18  1  0  0  0  0
  2  3  1  0  0  0  0
  3 15  1  0  0  0  0
  3  4  2  0  0  0  0
  4  5  1  0  0  0  0
  5  6  1  0  0  0  0
  6  7  1  0  0  0  0
  6 15  2  0  0  0  0
  7  8  1  0  0  0  0
  7 19  1  0  0  0  0
  8  9  2  0  0  0  0
  8 10  1  0  0  0  0
 10 11  1  0  0  0  0
 10 20  1  0  0  0  0
 11 13  1  0  0  0  0
 11 12  1  0  0  0  0
 11 21  1  0  0  0  0
 12 13  1  0  0  0  0
 12 22  1  0  0  0  0
 12 23  1  0  0  0  0
 13 14  1  0  0  0  0
 13 24  1  0  0  0  0
 14 25  1  0  0  0  0
 14 26  1  0  0  0  0
 14 27  1  0  0  0  0
M  END
> <s_m_source_file>
AV-unprocessed.smi

> <i_m_source_file_index>
1443

> <i_lp_mmshare_version>
43012

> <i_f3d_flags>
0

> <s_epik_input>
W0NIM11TYzFuc2MobjEpW05IXUMoPU8pW05IXVtDQEBIXTJbQ0gyXVtDQEhdMltDSDNd

> <s_epik_cmdline>
J2VwaWtfcHl0aG9uJywgJy1waCcsICc3LjAnLCAnLXRuJywgJzgnLCAnLW1hJywgJzIwMCcsICctbWV0YWxfYmluZGluZycsICctaW1hZScsICc8aW5maWxlLm1hZT4nLCAnLW9tYWUnLCAnPG91dGZpbGUubWFlPic=

> <r_lp_tautomer_probability>
1

> <r_epik_Ionization_Penalty>
2.74658e-05

> <r_epik_Ionization_Penalty_Charging>
0

> <r_epik_Ionization_Penalty_Neutral>
2.74658e-05

> <r_epik_State_Penalty>
-0

> <r_epik_Charging_Adjusted_Penalty>
0

> <i_epik_Tot_Q>
0

> <i_epik_Tot_abs_Q>
0

> <r_epik_Metal_State_Penalty>
-0

> <b_epik_Metal_Only>
0

> <s_lp_Force_Field>
OPLS_2005

> <r_lp_Energy>
21.211

> <b_lp_Chiralities_Consistent>
1

> <s_lp_Variant>
AV-unprocessed.smi:1443-2

> <Gold.Version>
5.8.1

> <Gold.Id.Protein>
6NUR|6NUR_protein|mol2

> <Gold.PLP.Fitness>
33.3233

> <Gold.PLP.PLP>
-29.1185

> <Gold.PLP.part.hbond>
-2.0000

> <Gold.PLP.part.metal>
0.0000

> <Gold.PLP.part.buried>
1.0201

> <Gold.PLP.part.nonpolar>
-28.6294

> <Gold.PLP.part.repulsive>
0.4872

> <Gold.PLP.ligand.clash>
0.0000

> <Gold.PLP.ligand.torsion>
0.5209

> <Gold.PLP.Chemscore.Hbond>
1.7360

> <Gold.PLP.Chemscore.CHOScore>
0.0000

> <Gold.PLP.Chemscore.Metal>
0.0000

> <Gold.Chemscore.Hbonds>
donor molecule, donor type, donor heavy atom, donor atom, acceptor molecule, acceptor atom, score
      L1  H     7    19       P1  8028  1.00
      L1  H    10    20       P1  8028  0.70
      P1  H  8011  8017       L1    15  0.01

> <Gold.PLP.Chemscore.Internal.Correction>
0.0387

> <Gold.Rescore>
     Score         DG    S(hbond)    S(metal)    S(lipo)     H(rot)  DE(clash)    DE(int)     intcor
     14.77     -16.09       1.66        0.00      71.02       1.27       0.93       0.39       ----

> <Gold.Chemscore.Fitness>
14.7670

> <Gold.Chemscore.DG>
-16.0899

> <Gold.Chemscore.ZeroCoef>
-5.4800

> <Gold.Chemscore.Hbond>
1.6620

> <Gold.Chemscore.Metal>
0.0000

> <Gold.Chemscore.Lipo>
71.0231

> <Gold.Chemscore.Internal_Hbond>
0.0000

> <Gold.Chemscore.DEClash>
0.9331

> <Gold.Chemscore.DEInternal>
0.3897

> <Gold.Chemscore.Rot>
1.2699

> <Gold.Chemscore.Internal.Correction>
   9.000000E+99

> <Gold.Chemscore.Hbonds>
donor molecule, donor type, donor heavy atom, donor atom, acceptor molecule, acceptor atom, score
      L1  H     7    19       P1  8028  0.93
      L1  H    10    20       P1  8028  0.60
      P1  H  8011  8017       L1    15  0.01

> <Gold.Chemscore.Hbond.Weighted>
-5.5511

> <Gold.Chemscore.Metal.Weighted>
-0.0000

> <Gold.Chemscore.Lipo.Weighted>
-8.3097

> <Gold.Chemscore.Internal_Hbond.Weighted>
0.0000

> <Gold.Chemscore.DEClash.Weighted>
0.9331

> <Gold.Chemscore.DEInternal.Weighted>
0.3897

> <Gold.Chemscore.Rot.Weighted>
3.2509

> <Gold.Chemscore.Internal.Correction.Weighted>
   9.000000E+99

> <Gold.Protein.RotatedTorsions>
[ 6907 6896 6895 6894 ] final  -20.32 input  -60.11 | X-H torsion
[ 7974 7965 7964 7962 ] final -151.40 input  175.53 | X-H torsion
[ 8008 7997 7996 7995 ] final  -70.91 input   59.86 | X-H torsion
[ 10167 10162 10161 10158 ] final  -83.48 input  -65.29 | X-H torsion
[ 10718 10713 10712 10709 ] final  -79.11 input   66.30 | X-H torsion
[ 10763 10752 10751 10750 ] final  112.83 input  -60.55 | X-H torsion
[ 11005 11000 10999 10996 ] final -178.02 input  -57.11 | X-H torsion

> <Gold.Protein.ActiveResidues>
 VAL166  LYS551  ARG553  GLY616  TRP617  ASP618  TYR619  PRO620  LYS621  CYS622 
 ASP623  PHE694  ASN695  SER759  ASP760  ASP761  ALA762  ILE779  LEU786  VAL792 
 PHE793  MET794  SER795  GLU796  ALA797  LYS798  CYS799  TRP800  GLU811  SER814 

> <Gold.Protein.RotatedAtoms>
  151.2499  135.0618  159.9057 H   0  0  0  0  0  0  0  0  0  0  0  0  # atno 6907 bound_to 6896
  152.5381  134.0343  159.8049 H   0  0  0  0  0  0  0  0  0  0  0  0  # atno 6908 bound_to 6896
  151.0550  133.5543  159.2670 H   0  0  0  0  0  0  0  0  0  0  0  0  # atno 6909 bound_to 6896
  144.7852  140.4803  143.5811 H   0  0  0  0  0  0  0  0  0  0  0  0  # atno 7974 bound_to 7965
  154.5047  140.0825  156.7870 H   0  0  0  0  0  0  0  0  0  0  0  0  # atno 8008 bound_to 7997
  155.3921  140.3433  155.4234 H   0  0  0  0  0  0  0  0  0  0  0  0  # atno 8009 bound_to 7997
  156.1501  140.1555  156.8771 H   0  0  0  0  0  0  0  0  0  0  0  0  # atno 8010 bound_to 7997
  140.4222  143.2580  151.8874 H   0  0  0  0  0  0  0  0  0  0  0  0  # atno 10167 bound_to 10162
  156.0100  130.4536  150.3598 H   0  0  0  0  0  0  0  0  0  0  0  0  # atno 10718 bound_to 10713
  153.4836  135.3674  155.2455 H   0  0  0  0  0  0  0  0  0  0  0  0  # atno 10763 bound_to 10752
  154.8754  135.3960  154.3671 H   0  0  0  0  0  0  0  0  0  0  0  0  # atno 10764 bound_to 10752
  153.4279  135.7081  153.6316 H   0  0  0  0  0  0  0  0  0  0  0  0  # atno 10765 bound_to 10752
  140.4344  134.6489  157.4727 H   0  0  0  0  0  0  0  0  0  0  0  0  # atno 11005 bound_to 11000
  145.5941  139.1498  143.3166 LP  0  0  0  0  0  0  0  0  0  0  0  0  # atno 17320 bound_to 7965
  146.2080  140.6065  142.9072 LP  0  0  0  0  0  0  0  0  0  0  0  0  # atno 17321 bound_to 7965
  139.4783  144.5425  151.8507 LP  0  0  0  0  0  0  0  0  0  0  0  0  # atno 17342 bound_to 10162
  140.4521  144.1841  150.5898 LP  0  0  0  0  0  0  0  0  0  0  0  0  # atno 17343 bound_to 10162
  157.1687  131.0363  151.2806 LP  0  0  0  0  0  0  0  0  0  0  0  0  # atno 17370 bound_to 10713
  157.4248  130.7457  149.6942 LP  0  0  0  0  0  0  0  0  0  0  0  0  # atno 17371 bound_to 10713
  140.0112  134.6688  155.9378 LP  0  0  0  0  0  0  0  0  0  0  0  0  # atno 17394 bound_to 11000
  141.1732  133.6538  156.4729 LP  0  0  0  0  0  0  0  0  0  0  0  0  # atno 17395 bound_to 11000

$$$$
