AV-unprocessed.smi:2855|AV-procd|sdf|10978|dock9
  -GOLD-   2272015433D 1   1.00000     0.00000
 Structure written by MMmdl.
 47 48  0  0  0  0  0  0  0  0  1 V2000
  155.0433  140.5558  160.8527 C   0  0  0  0  0  0  0  0  0  0  0  0
  153.6035  141.0475  160.6473 C   0  0  1  0  0  0  0  0  0  0  0  0
  153.2759  142.2359  161.5741 C   0  0  0  0  0  0  0  0  0  0  0  0
  151.8585  142.7841  161.3219 C   0  0  0  0  0  0  0  0  0  0  0  0
  151.6538  143.2191  159.8485 C   0  0  1  0  0  0  0  0  0  0  0  0
  152.4780  144.4980  159.4612 C   0  0  0  0  0  0  0  0  0  0  0  0
  152.1908  145.6886  160.3986 C   0  0  0  0  0  0  0  0  0  0  0  0
  152.2588  144.9725  158.0107 C   0  0  0  0  0  0  0  0  0  0  0  0
  151.8984  141.9407  158.9886 C   0  0  1  0  0  0  0  0  0  0  0  0
  151.5711  142.0854  157.5734 N   0  0  0  0  0  0  0  0  0  0  0  0
  150.6245  141.3965  156.9169 C   0  0  0  0  0  0  0  0  0  0  0  0
  149.9249  140.5354  157.4524 O   0  0  0  0  0  0  0  0  0  0  0  0
  150.4407  141.7616  155.4366 C   0  0  0  0  0  0  0  0  0  0  0  0
  149.4144  140.9543  154.7607 N   0  0  0  0  0  0  0  0  0  0  0  0
  148.1174  141.4337  154.6426 C   0  0  0  0  0  0  0  0  0  0  0  0
  147.1163  140.7389  154.0521 C   0  0  0  0  0  0  0  0  0  0  0  0
  147.3647  139.4126  153.4977 C   0  0  0  0  0  0  0  0  0  0  0  0
  146.5245  138.7060  152.9451 O   0  0  0  0  0  0  0  0  0  0  0  0
  148.6809  138.9646  153.6373 N   0  0  0  0  0  0  0  0  0  0  0  0
  149.7172  139.6748  154.2458 C   0  0  0  0  0  0  0  0  0  0  0  0
  150.8424  139.1828  154.3209 O   0  0  0  0  0  0  0  0  0  0  0  0
  153.3302  141.4018  159.1713 C   0  0  0  0  0  0  0  0  0  0  0  0
  148.8999  138.0496  153.2710 H   0  0  0  0  0  0  0  0  0  0  0  0
  155.7664  141.3349  160.6092 H   0  0  0  0  0  0  0  0  0  0  0  0
  155.2578  139.6930  160.2216 H   0  0  0  0  0  0  0  0  0  0  0  0
  155.2116  140.2574  161.8880 H   0  0  0  0  0  0  0  0  0  0  0  0
  152.9372  140.2268  160.9173 H   0  0  0  0  0  0  0  0  0  0  0  0
  153.3621  141.9230  162.6152 H   0  0  0  0  0  0  0  0  0  0  0  0
  154.0104  143.0300  161.4376 H   0  0  0  0  0  0  0  0  0  0  0  0
  151.1360  142.0038  161.5652 H   0  0  0  0  0  0  0  0  0  0  0  0
  151.6325  143.5902  162.0179 H   0  0  0  0  0  0  0  0  0  0  0  0
  150.6007  143.4864  159.7509 H   0  0  0  0  0  0  0  0  0  0  0  0
  153.5404  144.2787  159.5609 H   0  0  0  0  0  0  0  0  0  0  0  0
  151.1236  145.9077  160.4469 H   0  0  0  0  0  0  0  0  0  0  0  0
  152.6977  146.5925  160.0598 H   0  0  0  0  0  0  0  0  0  0  0  0
  152.5477  145.5070  161.4116 H   0  0  0  0  0  0  0  0  0  0  0  0
  151.1978  145.0476  157.7705 H   0  0  0  0  0  0  0  0  0  0  0  0
  152.7298  144.3080  157.2889 H   0  0  0  0  0  0  0  0  0  0  0  0
  152.7032  145.9535  157.8410 H   0  0  0  0  0  0  0  0  0  0  0  0
  151.2299  141.1612  159.3610 H   0  0  0  0  0  0  0  0  0  0  0  0
  152.0973  142.7742  157.0555 H   0  0  0  0  0  0  0  0  0  0  0  0
  150.1778  142.8188  155.3739 H   0  0  0  0  0  0  0  0  0  0  0  0
  151.4011  141.6747  154.9248 H   0  0  0  0  0  0  0  0  0  0  0  0
  147.8865  142.4101  155.0445 H   0  0  0  0  0  0  0  0  0  0  0  0
  146.1256  141.1658  153.9918 H   0  0  0  0  0  0  0  0  0  0  0  0
  154.0584  142.1301  158.8141 H   0  0  0  0  0  0  0  0  0  0  0  0
  153.4676  140.5109  158.5574 H   0  0  0  0  0  0  0  0  0  0  0  0
  1  2  1  0  0  0  0
  1 24  1  0  0  0  0
  1 25  1  0  0  0  0
  1 26  1  0  0  0  0
  2 22  1  0  0  0  0
  2  3  1  0  0  0  0
  2 27  1  0  0  0  0
  3  4  1  0  0  0  0
  3 28  1  0  0  0  0
  3 29  1  0  0  0  0
  4  5  1  0  0  0  0
  4 30  1  0  0  0  0
  4 31  1  0  0  0  0
  5  6  1  0  0  0  0
  5  9  1  0  0  0  0
  5 32  1  0  0  0  0
  6  7  1  0  0  0  0
  6  8  1  0  0  0  0
  6 33  1  0  0  0  0
  7 34  1  0  0  0  0
  7 35  1  0  0  0  0
  7 36  1  0  0  0  0
  8 37  1  0  0  0  0
  8 38  1  0  0  0  0
  8 39  1  0  0  0  0
  9 10  1  0  0  0  0
  9 22  1  0  0  0  0
  9 40  1  0  0  0  0
 10 11  1  0  0  0  0
 10 41  1  0  0  0  0
 11 12  2  0  0  0  0
 11 13  1  0  0  0  0
 13 14  1  0  0  0  0
 13 42  1  0  0  0  0
 13 43  1  0  0  0  0
 14 20  1  0  0  0  0
 14 15  1  0  0  0  0
 15 16  2  0  0  0  0
 15 44  1  0  0  0  0
 16 17  1  0  0  0  0
 16 45  1  0  0  0  0
 17 18  2  0  0  0  0
 17 19  1  0  0  0  0
 19 23  1  0  0  0  0
 19 20  1  0  0  0  0
 20 21  2  0  0  0  0
 22 46  1  0  0  0  0
 22 47  1  0  0  0  0
M  END
> <s_m_source_file>
AV-unprocessed.smi

> <i_m_source_file_index>
2855

> <i_lp_mmshare_version>
43012

> <i_f3d_flags>
0

> <s_epik_input>
W0NIM11bQ0BASF0xW0NIMl1bQ0gyXVtDQEBIXShbQ0hdKFtDSDNdKVtDSDNdKVtDQEhdKFtDSDJdMSlbTkhdQyg9TylbQ0gyXW4yW2NIXVtjSF1jKD1PKVtuSF1jMj1P

> <s_epik_cmdline>
J2VwaWtfcHl0aG9uJywgJy1waCcsICc3LjAnLCAnLXRuJywgJzgnLCAnLW1hJywgJzIwMCcsICctbWV0YWxfYmluZGluZycsICctaW1hZScsICc8aW5maWxlLm1hZT4nLCAnLW9tYWUnLCAnPG91dGZpbGUubWFlPic=

> <r_lp_tautomer_probability>
0.999537

> <r_epik_Ionization_Penalty>
0.00306256

> <r_epik_Ionization_Penalty_Charging>
0.00306254

> <r_epik_Ionization_Penalty_Neutral>
2.0223e-08

> <r_epik_State_Penalty>
0.0021533

> <r_epik_Charging_Adjusted_Penalty>
0.00521583

> <i_epik_Tot_Q>
0

> <i_epik_Tot_abs_Q>
0

> <r_epik_Metal_State_Penalty>
0.362116

> <b_epik_Metal_Only>
0

> <s_lp_Force_Field>
OPLS_2005

> <r_lp_Energy>
18.9466

> <b_lp_Chiralities_Consistent>
1

> <s_lp_Variant>
AV-unprocessed.smi:2855-2

> <Gold.Version>
5.8.1

> <Gold.Id.Protein>
6NUR|6NUR_protein|mol2

> <Gold.PLP.Fitness>
49.0383

> <Gold.PLP.PLP>
-44.1680

> <Gold.PLP.part.hbond>
-2.2551

> <Gold.PLP.part.metal>
0.0000

> <Gold.PLP.part.buried>
-1.2376

> <Gold.PLP.part.nonpolar>
-40.0455

> <Gold.PLP.part.repulsive>
0.5565

> <Gold.PLP.ligand.clash>
0.0012

> <Gold.PLP.ligand.torsion>
0.3642

> <Gold.PLP.Chemscore.Hbond>
0.9237

> <Gold.PLP.Chemscore.CHOScore>
0.9233

> <Gold.PLP.Chemscore.Metal>
0.0000

> <Gold.Chemscore.Hbonds>
donor molecule, donor type, donor heavy atom, donor atom, acceptor molecule, acceptor atom, score
      L1  H    19    23       P1  7948  0.39
      P1  H  7989  7998       L1    21  0.50
      L1  C    15    44       P1  8028  0.91

> <Gold.PLP.Chemscore.Internal.Correction>
0.0588

> <Gold.Rescore>
     Score         DG    S(hbond)    S(metal)    S(lipo)     H(rot)  DE(clash)    DE(int)     intcor
     15.95     -18.70       1.03        0.00     124.29       1.85       1.31       1.44       ----

> <Gold.Chemscore.Fitness>
15.9471

> <Gold.Chemscore.DG>
-18.7025

> <Gold.Chemscore.ZeroCoef>
-5.4800

> <Gold.Chemscore.Hbond>
1.0258

> <Gold.Chemscore.Metal>
0.0000

> <Gold.Chemscore.Lipo>
124.2940

> <Gold.Chemscore.Internal_Hbond>
0.0000

> <Gold.Chemscore.DEClash>
1.3114

> <Gold.Chemscore.DEInternal>
1.4439

> <Gold.Chemscore.Rot>
1.8539

> <Gold.Chemscore.Internal.Correction>
   9.000000E+99

> <Gold.Chemscore.Hbonds>
donor molecule, donor type, donor heavy atom, donor atom, acceptor molecule, acceptor atom, score
      L1  H    19    23       P1  7948  0.39
      P1  H  7989  7998       L1    21  0.02

> <Gold.Chemscore.Hbond.Weighted>
-3.4261

> <Gold.Chemscore.Metal.Weighted>
-0.0000

> <Gold.Chemscore.Lipo.Weighted>
-14.5424

> <Gold.Chemscore.Internal_Hbond.Weighted>
0.0000

> <Gold.Chemscore.DEClash.Weighted>
1.3114

> <Gold.Chemscore.DEInternal.Weighted>
1.4439

> <Gold.Chemscore.Rot.Weighted>
4.7460

> <Gold.Chemscore.Internal.Correction.Weighted>
   9.000000E+99

> <Gold.Protein.RotatedTorsions>
[ 6907 6896 6895 6894 ] final  -17.00 input  -60.11 | X-H torsion
[ 7974 7965 7964 7962 ] final -144.81 input  175.53 | X-H torsion
[ 8008 7997 7996 7995 ] final  -16.07 input   59.86 | X-H torsion
[ 10167 10162 10161 10158 ] final  -40.04 input  -65.29 | X-H torsion
[ 10718 10713 10712 10709 ] final   95.14 input   66.30 | X-H torsion
[ 10763 10752 10751 10750 ] final   62.24 input  -60.55 | X-H torsion
[ 11005 11000 10999 10996 ] final  148.35 input  -57.11 | X-H torsion

> <Gold.Protein.ActiveResidues>
 VAL166  LYS551  ARG553  GLY616  TRP617  ASP618  TYR619  PRO620  LYS621  CYS622 
 ASP623  PHE694  ASN695  SER759  ASP760  ASP761  ALA762  ILE779  LEU786  VAL792 
 PHE793  MET794  SER795  GLU796  ALA797  LYS798  CYS799  TRP800  GLU811  SER814 

> <Gold.Protein.RotatedAtoms>
  151.3000  135.0766  159.9234 H   0  0  0  0  0  0  0  0  0  0  0  0  # atno 6907 bound_to 6896
  152.5299  133.9843  159.7831 H   0  0  0  0  0  0  0  0  0  0  0  0  # atno 6908 bound_to 6896
  151.0128  133.5898  159.2711 H   0  0  0  0  0  0  0  0  0  0  0  0  # atno 6909 bound_to 6896
  144.8271  140.5663  143.5540 H   0  0  0  0  0  0  0  0  0  0  0  0  # atno 7974 bound_to 7965
  154.5081  140.2179  155.9211 H   0  0  0  0  0  0  0  0  0  0  0  0  # atno 8008 bound_to 7997
  156.1519  140.3160  155.8628 H   0  0  0  0  0  0  0  0  0  0  0  0  # atno 8009 bound_to 7997
  155.3923  140.0479  157.3031 H   0  0  0  0  0  0  0  0  0  0  0  0  # atno 8010 bound_to 7997
  140.7046  143.3178  151.2867 H   0  0  0  0  0  0  0  0  0  0  0  0  # atno 10167 bound_to 10162
  157.6941  131.0536  150.4294 H   0  0  0  0  0  0  0  0  0  0  0  0  # atno 10718 bound_to 10713
  152.9976  135.5472  154.6161 H   0  0  0  0  0  0  0  0  0  0  0  0  # atno 10763 bound_to 10752
  154.5471  135.2824  155.1045 H   0  0  0  0  0  0  0  0  0  0  0  0  # atno 10764 bound_to 10752
  154.2299  135.6435  153.5224 H   0  0  0  0  0  0  0  0  0  0  0  0  # atno 10765 bound_to 10752
  140.0952  134.9017  157.1712 H   0  0  0  0  0  0  0  0  0  0  0  0  # atno 11005 bound_to 11000
  145.4976  139.1485  143.3675 LP  0  0  0  0  0  0  0  0  0  0  0  0  # atno 17320 bound_to 7965
  146.2576  140.5115  142.8867 LP  0  0  0  0  0  0  0  0  0  0  0  0  # atno 17321 bound_to 7965
  139.6622  144.0169  152.2699 LP  0  0  0  0  0  0  0  0  0  0  0  0  # atno 17342 bound_to 10162
  139.9740  144.6474  150.7962 LP  0  0  0  0  0  0  0  0  0  0  0  0  # atno 17343 bound_to 10162
  156.4662  130.4042  149.6546 LP  0  0  0  0  0  0  0  0  0  0  0  0  # atno 17370 bound_to 10713
  156.3643  130.7498  151.2473 LP  0  0  0  0  0  0  0  0  0  0  0  0  # atno 17371 bound_to 10713
  140.3296  134.2824  155.7230 LP  0  0  0  0  0  0  0  0  0  0  0  0  # atno 17394 bound_to 11000
  141.2090  133.7762  157.0025 LP  0  0  0  0  0  0  0  0  0  0  0  0  # atno 17395 bound_to 11000

$$$$
