AV-unprocessed.smi:157|AV-procd|sdf|1296|dock2
  -GOLD-   2262018583D 1   1.00000     0.00000
 Structure written by MMmdl.
 35 37  0  0  0  0  0  0  0  0  1 V2000
  147.8500  142.9117  154.0259 O   0  0  0  0  0  0  0  0  0  0  0  0
  147.3081  141.8503  154.7833 C   0  0  0  0  0  0  0  0  0  0  0  0
  148.4329  141.0125  155.4161 C   0  0  2  0  0  0  0  0  0  0  0  0
  149.3081  141.8340  156.1891 O   0  0  0  0  0  0  0  0  0  0  0  0
  150.6313  141.4260  156.0105 C   0  0  1  0  0  0  0  0  0  0  0  0
  151.2951  141.3015  157.3482 N   0  0  0  0  0  0  0  0  0  0  0  0
  151.7703  140.1608  157.8623 C   0  0  0  0  0  0  0  0  0  0  0  0
  152.3138  140.2797  159.0614 N   0  0  0  0  0  0  0  0  0  0  0  0
  152.1888  141.6365  159.3539 C   0  0  0  0  0  0  0  0  0  0  0  0
  151.5641  142.2924  158.3020 C   0  0  0  0  0  0  0  0  0  0  0  0
  151.1779  143.5927  158.0379 N   0  0  0  0  0  0  0  0  0  0  0  0
  151.7422  144.5446  158.7115 C   0  0  0  0  0  0  0  0  0  0  0  0
  152.6376  144.4810  159.7693 N   0  0  0  0  0  0  0  0  0  0  0  0
  152.4210  143.6436  160.9365 C   0  0  0  0  0  0  0  0  0  0  0  0
  152.6754  142.1532  160.6784 C   0  0  2  0  0  0  0  0  0  0  0  0
  154.0647  141.9015  160.7364 O   0  0  0  0  0  0  0  0  0  0  0  0
  150.6091  140.0886  155.2701 C   0  0  0  0  0  0  0  0  0  0  0  0
  149.3397  140.2232  154.4558 C   0  0  2  0  0  0  0  0  0  0  0  0
  149.5928  140.9191  153.2491 O   0  0  0  0  0  0  0  0  0  0  0  0
  147.9889  140.3050  156.1186 H   0  0  0  0  0  0  0  0  0  0  0  0
  151.1838  142.2000  155.4754 H   0  0  0  0  0  0  0  0  0  0  0  0
  152.2189  141.5820  161.4874 H   0  0  0  0  0  0  0  0  0  0  0  0
  148.9128  139.2513  154.2074 H   0  0  0  0  0  0  0  0  0  0  0  0
  148.4063  143.4283  154.5889 H   0  0  0  0  0  0  0  0  0  0  0  0
  146.6272  142.2428  155.5388 H   0  0  0  0  0  0  0  0  0  0  0  0
  146.7137  141.2257  154.1162 H   0  0  0  0  0  0  0  0  0  0  0  0
  151.7098  139.2143  157.3453 H   0  0  0  0  0  0  0  0  0  0  0  0
  151.5022  145.5763  158.4511 H   0  0  0  0  0  0  0  0  0  0  0  0
  153.1604  145.3114  160.0075 H   0  0  0  0  0  0  0  0  0  0  0  0
  153.0234  144.0035  161.7711 H   0  0  0  0  0  0  0  0  0  0  0  0
  151.3799  143.7730  161.2356 H   0  0  0  0  0  0  0  0  0  0  0  0
  154.3546  142.0539  161.6231 H   0  0  0  0  0  0  0  0  0  0  0  0
  151.5148  139.9423  154.6804 H   0  0  0  0  0  0  0  0  0  0  0  0
  150.5137  139.2675  155.9811 H   0  0  0  0  0  0  0  0  0  0  0  0
  149.2998  140.3818  152.5288 H   0  0  0  0  0  0  0  0  0  0  0  0
  1  2  1  0  0  0  0
  1 24  1  0  0  0  0
  2  3  1  0  0  0  0
  2 25  1  0  0  0  0
  2 26  1  0  0  0  0
  3 20  1  0  0  0  0
  3 18  1  0  0  0  0
  3  4  1  0  0  0  0
  4  5  1  0  0  0  0
  5 21  1  0  0  0  0
  5  6  1  0  0  0  0
  5 17  1  0  0  0  0
  6 10  1  0  0  0  0
  6  7  1  0  0  0  0
  7  8  2  0  0  0  0
  7 27  1  0  0  0  0
  8  9  1  0  0  0  0
  9 15  1  0  0  0  0
  9 10  2  0  0  0  0
 10 11  1  0  0  0  0
 11 12  2  0  0  0  0
 12 13  1  0  0  0  0
 12 28  1  0  0  0  0
 13 14  1  0  0  0  0
 13 29  1  0  0  0  0
 14 15  1  0  0  0  0
 14 30  1  0  0  0  0
 14 31  1  0  0  0  0
 15 22  1  0  0  0  0
 15 16  1  0  0  0  0
 16 32  1  0  0  0  0
 17 18  1  0  0  0  0
 17 33  1  0  0  0  0
 17 34  1  0  0  0  0
 18 23  1  0  0  0  0
 18 19  1  0  0  0  0
 19 35  1  0  0  0  0
M  END
> <s_m_source_file>
AV-unprocessed.smi

> <i_m_source_file_index>
157

> <i_lp_mmshare_version>
43012

> <i_f3d_flags>
0

> <s_epik_input>
W09IXVtDSDJdW0NASF0xT1tDQEhdKFtDSDJdW0NAQEhdMVtPSF0pbihbY0hdbjIpYyhjMjMpTj1bQ0hdW05IXVtDSDJdW0NASF0zW09IXQ==

> <s_epik_cmdline>
J2VwaWtfcHl0aG9uJywgJy1waCcsICc3LjAnLCAnLXRuJywgJzgnLCAnLW1hJywgJzIwMCcsICctbWV0YWxfYmluZGluZycsICctaW1hZScsICc8aW5maWxlLm1hZT4nLCAnLW9tYWUnLCAnPG91dGZpbGUubWFlPic=

> <r_lp_tautomer_probability>
1

> <r_epik_Ionization_Penalty>
0.0357149

> <r_epik_Ionization_Penalty_Charging>
0.0355056

> <r_epik_Ionization_Penalty_Neutral>
0.000209255

> <r_epik_State_Penalty>
0.0296046

> <r_epik_Charging_Adjusted_Penalty>
0.0651102

> <i_epik_Tot_Q>
0

> <i_epik_Tot_abs_Q>
0

> <r_epik_Metal_State_Penalty>
3.03559e-05

> <b_epik_Metal_Only>
0

> <s_epik_Chemistry_Notes>
This compound has an imine and may undergo hydrolysis. This compound contains an acetal/aminal-like group ( X-CH(R)-Y where X, Y are N, S, or O) that may be acid/base labile, releasing an aldehyde.

> <s_lp_Force_Field>
OPLS_2005

> <r_lp_Energy>
46.6241

> <b_lp_Chiralities_Consistent>
1

> <s_lp_Variant>
AV-unprocessed.smi:157-6

> <Gold.Version>
5.8.1

> <Gold.Id.Protein>
6NUR|6NUR_protein|mol2

> <Gold.PLP.Fitness>
46.0156

> <Gold.PLP.PLP>
-38.1061

> <Gold.PLP.part.hbond>
-5.1148

> <Gold.PLP.part.metal>
0.0000

> <Gold.PLP.part.buried>
-4.8242

> <Gold.PLP.part.nonpolar>
-29.0344

> <Gold.PLP.part.repulsive>
1.1748

> <Gold.PLP.ligand.clash>
0.0000

> <Gold.PLP.ligand.torsion>
0.0373

> <Gold.PLP.Chemscore.Hbond>
2.6606

> <Gold.PLP.Chemscore.CHOScore>
0.0000

> <Gold.PLP.Chemscore.Metal>
0.0000

> <Gold.Chemscore.Hbonds>
donor molecule, donor type, donor heavy atom, donor atom, acceptor molecule, acceptor atom, score
      L1  H     1    24       P1  8028  1.00
      L1  H    19    35       P1  7957  0.65
      P1  H  7989  7998       L1    19  0.14
      P1  H  8011  8017       L1    19  0.85

> <Gold.PLP.Chemscore.Internal.Correction>
0.0024

> <Gold.Rescore>
     Score         DG    S(hbond)    S(metal)    S(lipo)     H(rot)  DE(clash)    DE(int)     intcor
      8.64      -8.78       1.89        0.00      53.72       3.64       0.05       0.08       ----

> <Gold.Chemscore.Fitness>
8.6437

> <Gold.Chemscore.DG>
-8.7781

> <Gold.Chemscore.ZeroCoef>
-5.4800

> <Gold.Chemscore.Hbond>
1.8925

> <Gold.Chemscore.Metal>
0.0000

> <Gold.Chemscore.Lipo>
53.7249

> <Gold.Chemscore.Internal_Hbond>
0.0000

> <Gold.Chemscore.DEClash>
0.0533

> <Gold.Chemscore.DEInternal>
0.0811

> <Gold.Chemscore.Rot>
3.6362

> <Gold.Chemscore.Internal.Correction>
   9.000000E+99

> <Gold.Chemscore.Hbonds>
donor molecule, donor type, donor heavy atom, donor atom, acceptor molecule, acceptor atom, score
      L1  H     1    24       P1  8028  0.98
      L1  H    19    35       P1  7957  0.64
      P1  H  7989  7998       L1    19  0.02
      P1  H  8011  8017       L1    19  0.15

> <Gold.Chemscore.Hbond.Weighted>
-6.3210

> <Gold.Chemscore.Metal.Weighted>
-0.0000

> <Gold.Chemscore.Lipo.Weighted>
-6.2858

> <Gold.Chemscore.Internal_Hbond.Weighted>
0.0000

> <Gold.Chemscore.DEClash.Weighted>
0.0533

> <Gold.Chemscore.DEInternal.Weighted>
0.0811

> <Gold.Chemscore.Rot.Weighted>
9.3087

> <Gold.Chemscore.Internal.Correction.Weighted>
   9.000000E+99

> <Gold.Protein.RotatedTorsions>
[ 6907 6896 6895 6894 ] final  150.22 input  -60.11 | X-H torsion
[ 7974 7965 7964 7962 ] final   66.26 input  175.53 | X-H torsion
[ 8008 7997 7996 7995 ] final   43.86 input   59.86 | X-H torsion
[ 10167 10162 10161 10158 ] final   18.57 input  -65.29 | X-H torsion
[ 10718 10713 10712 10709 ] final   -0.60 input   66.30 | X-H torsion
[ 10763 10752 10751 10750 ] final   21.50 input  -60.55 | X-H torsion
[ 11005 11000 10999 10996 ] final -136.67 input  -57.11 | X-H torsion

> <Gold.Protein.ActiveResidues>
 VAL166  LYS551  ARG553  GLY616  TRP617  ASP618  TYR619  PRO620  LYS621  CYS622 
 ASP623  PHE694  ASN695  SER759  ASP760  ASP761  ALA762  ILE779  LEU786  VAL792 
 PHE793  MET794  SER795  GLU796  ALA797  LYS798  CYS799  TRP800  GLU811  SER814 

> <Gold.Protein.RotatedAtoms>
  152.1174  133.4334  159.4658 H   0  0  0  0  0  0  0  0  0  0  0  0  # atno 6907 bound_to 6896
  150.6870  134.2576  159.4545 H   0  0  0  0  0  0  0  0  0  0  0  0  # atno 6908 bound_to 6896
  152.0450  134.9688  160.0625 H   0  0  0  0  0  0  0  0  0  0  0  0  # atno 6909 bound_to 6896
  145.8287  139.3126  143.1000 H   0  0  0  0  0  0  0  0  0  0  0  0  # atno 7974 bound_to 7965
  155.3096  140.3390  155.4244 H   0  0  0  0  0  0  0  0  0  0  0  0  # atno 8008 bound_to 7997
  156.1962  140.1715  156.8032 H   0  0  0  0  0  0  0  0  0  0  0  0  # atno 8009 bound_to 7997
  154.5501  140.0707  156.8638 H   0  0  0  0  0  0  0  0  0  0  0  0  # atno 8010 bound_to 7997
  140.5643  143.9279  150.6665 H   0  0  0  0  0  0  0  0  0  0  0  0  # atno 10167 bound_to 10162
  156.8180  130.5447  149.5700 H   0  0  0  0  0  0  0  0  0  0  0  0  # atno 10718 bound_to 10713
  153.0990  135.6667  153.9709 H   0  0  0  0  0  0  0  0  0  0  0  0  # atno 10763 bound_to 10752
  153.9285  135.3006  155.3447 H   0  0  0  0  0  0  0  0  0  0  0  0  # atno 10764 bound_to 10752
  154.7410  135.5079  153.9197 H   0  0  0  0  0  0  0  0  0  0  0  0  # atno 10765 bound_to 10752
  140.8784  134.1963  157.4607 H   0  0  0  0  0  0  0  0  0  0  0  0  # atno 11005 bound_to 11000
  145.9595  140.8846  143.0218 LP  0  0  0  0  0  0  0  0  0  0  0  0  # atno 17320 bound_to 7965
  144.6741  140.1793  143.7407 LP  0  0  0  0  0  0  0  0  0  0  0  0  # atno 17321 bound_to 7965
  140.2738  143.3437  152.1214 LP  0  0  0  0  0  0  0  0  0  0  0  0  # atno 17342 bound_to 10162
  139.5085  144.6851  151.5907 LP  0  0  0  0  0  0  0  0  0  0  0  0  # atno 17343 bound_to 10162
  156.1005  130.5965  150.9886 LP  0  0  0  0  0  0  0  0  0  0  0  0  # atno 17370 bound_to 10713
  157.6471  131.0902  150.8129 LP  0  0  0  0  0  0  0  0  0  0  0  0  # atno 17371 bound_to 10713
  139.8717  134.9806  156.5082 LP  0  0  0  0  0  0  0  0  0  0  0  0  # atno 17394 bound_to 11000
  140.8491  133.8146  155.9151 LP  0  0  0  0  0  0  0  0  0  0  0  0  # atno 17395 bound_to 11000

$$$$
