AV-unprocessed.smi:1668|AV-procd|sdf|6682|dock7
  -GOLD-   22720 7403D 1   1.00000     0.00000
 Structure written by MMmdl.
 44 46  0  0  0  0  0  0  0  0  1 V2000
  155.6102  139.7719  159.9415 C   0  0  0  0  0  0  0  0  0  0  0  0
  154.5333  139.9808  159.0397 O   0  0  0  0  0  0  0  0  0  0  0  0
  153.6988  141.0548  159.2637 C   0  0  0  0  0  0  0  0  0  0  0  0
  153.8483  141.9704  160.3315 C   0  0  0  0  0  0  0  0  0  0  0  0
  152.9454  143.0382  160.4870 C   0  0  0  0  0  0  0  0  0  0  0  0
  151.8736  143.2228  159.5784 C   0  0  0  0  0  0  0  0  0  0  0  0
  150.9550  144.2468  159.6894 O   0  0  0  0  0  0  0  0  0  0  0  0
  151.2952  145.3825  160.4706 C   0  0  0  0  0  0  0  0  0  0  0  0
  151.7260  142.3130  158.5027 C   0  0  0  0  0  0  0  0  0  0  0  0
  150.5760  142.4713  157.5101 C   0  0  1  0  0  0  0  0  0  0  0  0
  150.7805  143.5641  156.6344 O   0  0  0  0  0  0  0  0  0  0  0  0
  150.4007  141.1912  156.6688 C   0  0  0  0  0  0  0  0  0  0  0  0
  149.2067  141.2520  155.8277 N   0  0  0  0  0  0  0  0  0  0  0  0
  149.1348  140.9599  154.5074 C   0  0  0  0  0  0  0  0  0  0  0  0
  150.0658  140.5760  153.7998 O   0  0  0  0  0  0  0  0  0  0  0  0
  147.8604  141.1693  154.1011 N   0  0  0  0  0  0  0  0  0  0  0  0
  147.3267  140.9861  152.7567 C   0  0  0  0  0  0  0  0  0  0  0  0
  147.0990  141.6179  155.1876 C   0  0  0  0  0  0  0  0  0  0  0  0
  145.7435  141.9776  155.2788 C   0  0  0  0  0  0  0  0  0  0  0  0
  145.2709  142.3984  156.5442 C   0  0  0  0  0  0  0  0  0  0  0  0
  146.1406  142.4504  157.6648 C   0  0  0  0  0  0  0  0  0  0  0  0
  147.5009  142.0821  157.5438 C   0  0  0  0  0  0  0  0  0  0  0  0
  147.9446  141.6686  156.2754 C   0  0  0  0  0  0  0  0  0  0  0  0
  152.6323  141.2375  158.3631 C   0  0  0  0  0  0  0  0  0  0  0  0
  156.1791  138.8976  159.6258 H   0  0  0  0  0  0  0  0  0  0  0  0
  155.2521  139.5840  160.9547 H   0  0  0  0  0  0  0  0  0  0  0  0
  156.2928  140.6227  159.9510 H   0  0  0  0  0  0  0  0  0  0  0  0
  154.6475  141.8737  161.0504 H   0  0  0  0  0  0  0  0  0  0  0  0
  153.0992  143.7054  161.3211 H   0  0  0  0  0  0  0  0  0  0  0  0
  150.4649  146.0884  160.4549 H   0  0  0  0  0  0  0  0  0  0  0  0
  152.1710  145.8947  160.0701 H   0  0  0  0  0  0  0  0  0  0  0  0
  151.4776  145.1110  161.5111 H   0  0  0  0  0  0  0  0  0  0  0  0
  149.6583  142.6838  158.0591 H   0  0  0  0  0  0  0  0  0  0  0  0
  149.9436  143.9651  156.4561 H   0  0  0  0  0  0  0  0  0  0  0  0
  151.2945  140.9833  156.0782 H   0  0  0  0  0  0  0  0  0  0  0  0
  150.2807  140.3330  157.3316 H   0  0  0  0  0  0  0  0  0  0  0  0
  146.4127  140.3927  152.7889 H   0  0  0  0  0  0  0  0  0  0  0  0
  148.0338  140.4747  152.1023 H   0  0  0  0  0  0  0  0  0  0  0  0
  147.0914  141.9529  152.3113 H   0  0  0  0  0  0  0  0  0  0  0  0
  145.0882  141.9358  154.4212 H   0  0  0  0  0  0  0  0  0  0  0  0
  144.2355  142.6834  156.6589 H   0  0  0  0  0  0  0  0  0  0  0  0
  145.7595  142.7741  158.6220 H   0  0  0  0  0  0  0  0  0  0  0  0
  148.1659  142.1178  158.3933 H   0  0  0  0  0  0  0  0  0  0  0  0
  152.5116  140.5332  157.5530 H   0  0  0  0  0  0  0  0  0  0  0  0
  1  2  1  0  0  0  0
  1 25  1  0  0  0  0
  1 26  1  0  0  0  0
  1 27  1  0  0  0  0
  2  3  1  0  0  0  0
  3 24  1  0  0  0  0
  3  4  2  0  0  0  0
  4  5  1  0  0  0  0
  4 28  1  0  0  0  0
  5  6  2  0  0  0  0
  5 29  1  0  0  0  0
  6  7  1  0  0  0  0
  6  9  1  0  0  0  0
  7  8  1  0  0  0  0
  8 30  1  0  0  0  0
  8 31  1  0  0  0  0
  8 32  1  0  0  0  0
  9 10  1  0  0  0  0
  9 24  2  0  0  0  0
 10 11  1  0  0  0  0
 10 12  1  0  0  0  0
 10 33  1  0  0  0  0
 11 34  1  0  0  0  0
 12 13  1  0  0  0  0
 12 35  1  0  0  0  0
 12 36  1  0  0  0  0
 13 23  1  0  0  0  0
 13 14  1  0  0  0  0
 14 15  2  0  0  0  0
 14 16  1  0  0  0  0
 16 17  1  0  0  0  0
 16 18  1  0  0  0  0
 17 37  1  0  0  0  0
 17 38  1  0  0  0  0
 17 39  1  0  0  0  0
 18 23  2  0  0  0  0
 18 19  1  0  0  0  0
 19 20  2  0  0  0  0
 19 40  1  0  0  0  0
 20 21  1  0  0  0  0
 20 41  1  0  0  0  0
 21 22  2  0  0  0  0
 21 42  1  0  0  0  0
 22 23  1  0  0  0  0
 22 43  1  0  0  0  0
 24 44  1  0  0  0  0
M  END
> <s_m_source_file>
AV-unprocessed.smi

> <i_m_source_file_index>
1668

> <i_lp_mmshare_version>
43012

> <i_f3d_flags>
0

> <s_epik_input>
W0NIM11PYzFbY0hdW2NIXWMoT1tDSDNdKWMoW2NIXTEpW0NASF0oW09IXSlbQ0gyXW4oYyg9TyluMltDSDNdKWMoYzIzKVtjSF1bY0hdW2NIXVtjSF0z

> <s_epik_cmdline>
J2VwaWtfcHl0aG9uJywgJy1waCcsICc3LjAnLCAnLXRuJywgJzgnLCAnLW1hJywgJzIwMCcsICctbWV0YWxfYmluZGluZycsICctaW1hZScsICc8aW5maWxlLm1hZT4nLCAnLW9tYWUnLCAnPG91dGZpbGUubWFlPic=

> <r_lp_tautomer_probability>
1

> <r_epik_Ionization_Penalty>
1.34538e-06

> <r_epik_Ionization_Penalty_Charging>
1.76928e-09

> <r_epik_Ionization_Penalty_Neutral>
1.34362e-06

> <r_epik_State_Penalty>
-0

> <r_epik_Charging_Adjusted_Penalty>
1.76928e-09

> <i_epik_Tot_Q>
0

> <i_epik_Tot_abs_Q>
0

> <r_epik_Metal_State_Penalty>
-0

> <b_epik_Metal_Only>
0

> <s_lp_Force_Field>
OPLS_2005

> <r_lp_Energy>
50.494

> <b_lp_Chiralities_Consistent>
1

> <s_lp_Variant>
AV-unprocessed.smi:1668-2

> <Gold.Version>
5.8.1

> <Gold.Id.Protein>
6NUR|6NUR_protein|mol2

> <Gold.PLP.Fitness>
52.0895

> <Gold.PLP.PLP>
-45.1765

> <Gold.PLP.part.hbond>
-2.8766

> <Gold.PLP.part.metal>
0.0000

> <Gold.PLP.part.buried>
-7.4638

> <Gold.PLP.part.nonpolar>
-36.0628

> <Gold.PLP.part.repulsive>
1.8813

> <Gold.PLP.ligand.clash>
0.0000

> <Gold.PLP.ligand.torsion>
0.7422

> <Gold.PLP.Chemscore.Hbond>
2.7913

> <Gold.PLP.Chemscore.CHOScore>
0.0000

> <Gold.PLP.Chemscore.Metal>
0.0000

> <Gold.Chemscore.Hbonds>
donor molecule, donor type, donor heavy atom, donor atom, acceptor molecule, acceptor atom, score
      L1  H    11    34       P1  8028  0.96
      P1  H  7989  7998       L1    15  0.62
      P1  H  7997  8009       L1     2  1.00
      P1  H  8011  8017       L1    15  0.10

> <Gold.PLP.Chemscore.Internal.Correction>
0.0238

> <Gold.Rescore>
     Score         DG    S(hbond)    S(metal)    S(lipo)     H(rot)  DE(clash)    DE(int)     intcor
     19.79     -21.25       2.40        0.00     115.35       2.24       0.49       0.97       ----

> <Gold.Chemscore.Fitness>
19.7902

> <Gold.Chemscore.DG>
-21.2523

> <Gold.Chemscore.ZeroCoef>
-5.4800

> <Gold.Chemscore.Hbond>
2.4021

> <Gold.Chemscore.Metal>
0.0000

> <Gold.Chemscore.Lipo>
115.3504

> <Gold.Chemscore.Internal_Hbond>
0.0000

> <Gold.Chemscore.DEClash>
0.4891

> <Gold.Chemscore.DEInternal>
0.9730

> <Gold.Chemscore.Rot>
2.2448

> <Gold.Chemscore.Internal.Correction>
   9.000000E+99

> <Gold.Chemscore.Hbonds>
donor molecule, donor type, donor heavy atom, donor atom, acceptor molecule, acceptor atom, score
      L1  H    11    34       P1  8028  0.89
      P1  H  7989  7998       L1    15  0.61
      P1  H  7997  8009       L1     2  0.52
      P1  H  8011  8017       L1    15  0.01

> <Gold.Chemscore.Hbond.Weighted>
-8.0230

> <Gold.Chemscore.Metal.Weighted>
-0.0000

> <Gold.Chemscore.Lipo.Weighted>
-13.4960

> <Gold.Chemscore.Internal_Hbond.Weighted>
0.0000

> <Gold.Chemscore.DEClash.Weighted>
0.4891

> <Gold.Chemscore.DEInternal.Weighted>
0.9730

> <Gold.Chemscore.Rot.Weighted>
5.7467

> <Gold.Chemscore.Internal.Correction.Weighted>
   9.000000E+99

> <Gold.Protein.RotatedTorsions>
[ 6907 6896 6895 6894 ] final  107.75 input  -60.11 | X-H torsion
[ 7974 7965 7964 7962 ] final  -53.44 input  175.53 | X-H torsion
[ 8008 7997 7996 7995 ] final  125.35 input   59.86 | X-H torsion
[ 10167 10162 10161 10158 ] final -133.04 input  -65.29 | X-H torsion
[ 10718 10713 10712 10709 ] final -104.18 input   66.30 | X-H torsion
[ 10763 10752 10751 10750 ] final  150.86 input  -60.55 | X-H torsion
[ 11005 11000 10999 10996 ] final  -82.79 input  -57.11 | X-H torsion

> <Gold.Protein.ActiveResidues>
 VAL166  LYS551  ARG553  GLY616  TRP617  ASP618  TYR619  PRO620  LYS621  CYS622 
 ASP623  PHE694  ASN695  SER759  ASP760  ASP761  ALA762  ILE779  LEU786  VAL792 
 PHE793  MET794  SER795  GLU796  ALA797  LYS798  CYS799  TRP800  GLU811  SER814 

> <Gold.Protein.RotatedAtoms>
  152.5141  133.9189  159.7524 H   0  0  0  0  0  0  0  0  0  0  0  0  # atno 6907 bound_to 6896
  150.9566  133.6483  159.2769 H   0  0  0  0  0  0  0  0  0  0  0  0  # atno 6908 bound_to 6896
  151.3743  135.0933  159.9528 H   0  0  0  0  0  0  0  0  0  0  0  0  # atno 6909 bound_to 6896
  145.8968  140.8026  142.9763 H   0  0  0  0  0  0  0  0  0  0  0  0  # atno 7974 bound_to 7965
  156.2831  140.2718  156.1935 H   0  0  0  0  0  0  0  0  0  0  0  0  # atno 8008 bound_to 7997
  155.0434  140.0386  157.2536 H   0  0  0  0  0  0  0  0  0  0  0  0  # atno 8009 bound_to 7997
  154.7255  140.2696  155.6508 H   0  0  0  0  0  0  0  0  0  0  0  0  # atno 8010 bound_to 7997
  139.9024  143.6592  152.2592 H   0  0  0  0  0  0  0  0  0  0  0  0  # atno 10167 bound_to 10162
  156.0294  130.5503  150.7360 H   0  0  0  0  0  0  0  0  0  0  0  0  # atno 10718 bound_to 10713
  154.0943  135.2850  155.3265 H   0  0  0  0  0  0  0  0  0  0  0  0  # atno 10763 bound_to 10752
  154.6599  135.5338  153.8008 H   0  0  0  0  0  0  0  0  0  0  0  0  # atno 10764 bound_to 10752
  153.0402  135.6531  154.1110 H   0  0  0  0  0  0  0  0  0  0  0  0  # atno 10765 bound_to 10752
  141.1661  133.7262  156.8624 H   0  0  0  0  0  0  0  0  0  0  0  0  # atno 11005 bound_to 11000
  144.6733  140.1615  143.7422 LP  0  0  0  0  0  0  0  0  0  0  0  0  # atno 17320 bound_to 7965
  145.8840  139.2339  143.1588 LP  0  0  0  0  0  0  0  0  0  0  0  0  # atno 17321 bound_to 7965
  139.7014  144.7634  151.1267 LP  0  0  0  0  0  0  0  0  0  0  0  0  # atno 17342 bound_to 10162
  140.7704  143.5453  150.9266 LP  0  0  0  0  0  0  0  0  0  0  0  0  # atno 17343 bound_to 10162
  157.4940  131.0913  151.0393 LP  0  0  0  0  0  0  0  0  0  0  0  0  # atno 17370 bound_to 10713
  157.0792  130.5896  149.5417 LP  0  0  0  0  0  0  0  0  0  0  0  0  # atno 17371 bound_to 10713
  140.1839  134.9014  157.2981 LP  0  0  0  0  0  0  0  0  0  0  0  0  # atno 17394 bound_to 11000
  140.2365  134.3847  155.7499 LP  0  0  0  0  0  0  0  0  0  0  0  0  # atno 17395 bound_to 11000

$$$$
