AV-unprocessed.smi:45|AV-procd|sdf|408|dock9
  -GOLD-   2262016263D 1   1.00000     0.00000
 Structure written by MMmdl.
 60 63  0  0  0  0  0  0  0  0  1 V2000
  147.9200  126.0232  153.5124 C   0  0  0  0  0  0  0  0  0  0  0  0
  147.4187  127.2834  153.0916 O   0  0  0  0  0  0  0  0  0  0  0  0
  148.0519  128.4224  153.5447 C   0  0  0  0  0  0  0  0  0  0  0  0
  149.2739  128.4126  154.2644 C   0  0  0  0  0  0  0  0  0  0  0  0
  149.8607  129.6178  154.6957 C   0  0  0  0  0  0  0  0  0  0  0  0
  149.2402  130.8517  154.4148 C   0  0  0  0  0  0  0  0  0  0  0  0
  149.8656  132.1511  154.8846 C   0  0  0  0  0  0  0  0  0  0  0  0
  149.0584  132.8618  155.8665 N   0  0  0  0  0  0  0  0  0  0  0  0
  148.1808  133.8881  155.4779 C   0  0  0  0  0  0  0  0  0  0  0  0
  147.5889  133.7827  154.2646 N   0  0  0  0  0  0  0  0  0  0  0  0
  146.7569  134.7525  153.8723 C   0  0  0  0  0  0  0  0  0  0  0  0
  146.1642  134.6279  152.6154 N   0  0  0  0  0  0  0  0  0  0  0  0
  146.2454  133.3855  151.8542 C   0  0  0  0  0  0  0  0  0  0  0  0
  144.9512  133.2996  151.0476 C   0  0  0  0  0  0  0  0  0  0  0  0
  144.5846  134.7621  150.8361 C   0  0  0  0  0  0  0  0  0  0  0  0
  145.0386  135.4351  152.1393 C   0  0  2  0  0  0  0  0  0  0  0  0
  145.3940  136.9243  151.9441 C   0  0  0  0  0  0  0  0  0  0  0  0
  146.4272  137.0551  150.9914 O   0  0  0  0  0  0  0  0  0  0  0  0
  146.4537  135.8434  154.5822 N   0  0  0  0  0  0  0  0  0  0  0  0
  147.0315  135.9740  155.7940 C   0  0  0  0  0  0  0  0  0  0  0  0
  147.9313  135.0134  156.3104 C   0  0  0  0  0  0  0  0  0  0  0  0
  148.5349  135.1856  157.6788 C   0  0  0  0  0  0  0  0  0  0  0  0
  149.1546  134.2731  158.2261 O   0  0  0  0  0  0  0  0  0  0  0  0
  148.3702  136.4007  158.2257 N   0  0  0  0  0  0  0  0  0  0  0  0
  148.8472  136.7938  159.5462 C   0  0  0  0  0  0  0  0  0  0  0  0
  147.9086  136.3577  160.6574 C   0  0  0  0  0  0  0  0  0  0  0  0
  147.3786  137.3287  161.4092 N   0  0  0  0  0  0  0  0  0  0  0  0
  146.5363  136.9471  162.3938 C   0  0  0  0  0  0  0  0  0  0  0  0
  146.2273  135.5911  162.6218 C   0  0  0  0  0  0  0  0  0  0  0  0
  146.8466  134.6581  161.7658 C   0  0  0  0  0  0  0  0  0  0  0  0
  147.6888  135.0450  160.7833 N   0  0  0  0  0  0  0  0  0  0  0  0
  148.0251  130.8686  153.7026 C   0  0  0  0  0  0  0  0  0  0  0  0
  147.4367  129.6641  153.2701 C   0  0  0  0  0  0  0  0  0  0  0  0
  145.9467  129.7219  152.3975 Cl  0  0  0  0  0  0  0  0  0  0  0  0
  144.2398  135.3455  152.8775 H   0  0  0  0  0  0  0  0  0  0  0  0
  147.3120  125.2309  153.0762 H   0  0  0  0  0  0  0  0  0  0  0  0
  147.8708  125.9163  154.5968 H   0  0  0  0  0  0  0  0  0  0  0  0
  148.9475  125.8714  153.1792 H   0  0  0  0  0  0  0  0  0  0  0  0
  149.7825  127.4905  154.5011 H   0  0  0  0  0  0  0  0  0  0  0  0
  150.7904  129.5915  155.2454 H   0  0  0  0  0  0  0  0  0  0  0  0
  150.8485  131.9472  155.3114 H   0  0  0  0  0  0  0  0  0  0  0  0
  150.0205  132.7913  154.0154 H   0  0  0  0  0  0  0  0  0  0  0  0
  149.0413  132.5255  156.8191 H   0  0  0  0  0  0  0  0  0  0  0  0
  147.1103  133.4379  151.1919 H   0  0  0  0  0  0  0  0  0  0  0  0
  146.3617  132.5113  152.4960 H   0  0  0  0  0  0  0  0  0  0  0  0
  145.0665  132.7458  150.1154 H   0  0  0  0  0  0  0  0  0  0  0  0
  144.1775  132.8091  151.6402 H   0  0  0  0  0  0  0  0  0  0  0  0
  145.1459  135.1544  149.9864 H   0  0  0  0  0  0  0  0  0  0  0  0
  143.5235  134.9087  150.6331 H   0  0  0  0  0  0  0  0  0  0  0  0
  144.5420  137.5010  151.5872 H   0  0  0  0  0  0  0  0  0  0  0  0
  145.7115  137.3755  152.8846 H   0  0  0  0  0  0  0  0  0  0  0  0
  147.2563  137.0458  151.4446 H   0  0  0  0  0  0  0  0  0  0  0  0
  146.7632  136.8570  156.3558 H   0  0  0  0  0  0  0  0  0  0  0  0
  147.8577  137.0962  157.7034 H   0  0  0  0  0  0  0  0  0  0  0  0
  149.8513  136.4004  159.7165 H   0  0  0  0  0  0  0  0  0  0  0  0
  148.9384  137.8802  159.5679 H   0  0  0  0  0  0  0  0  0  0  0  0
  146.1060  137.7282  163.0029 H   0  0  0  0  0  0  0  0  0  0  0  0
  145.5539  135.2842  163.4084 H   0  0  0  0  0  0  0  0  0  0  0  0
  146.6654  133.5986  161.8692 H   0  0  0  0  0  0  0  0  0  0  0  0
  147.5390  131.8083  153.4844 H   0  0  0  0  0  0  0  0  0  0  0  0
  1  2  1  0  0  0  0
  1 36  1  0  0  0  0
  1 37  1  0  0  0  0
  1 38  1  0  0  0  0
  2  3  1  0  0  0  0
  3 33  1  0  0  0  0
  3  4  2  0  0  0  0
  4  5  1  0  0  0  0
  4 39  1  0  0  0  0
  5  6  2  0  0  0  0
  5 40  1  0  0  0  0
  6  7  1  0  0  0  0
  6 32  1  0  0  0  0
  7  8  1  0  0  0  0
  7 41  1  0  0  0  0
  7 42  1  0  0  0  0
  8  9  1  0  0  0  0
  8 43  1  0  0  0  0
  9 21  1  0  0  0  0
  9 10  2  0  0  0  0
 10 11  1  0  0  0  0
 11 12  1  0  0  0  0
 11 19  2  0  0  0  0
 12 16  1  0  0  0  0
 12 13  1  0  0  0  0
 13 14  1  0  0  0  0
 13 44  1  0  0  0  0
 13 45  1  0  0  0  0
 14 15  1  0  0  0  0
 14 46  1  0  0  0  0
 14 47  1  0  0  0  0
 15 16  1  0  0  0  0
 15 48  1  0  0  0  0
 15 49  1  0  0  0  0
 16 35  1  0  0  0  0
 16 17  1  0  0  0  0
 17 18  1  0  0  0  0
 17 50  1  0  0  0  0
 17 51  1  0  0  0  0
 18 52  1  0  0  0  0
 19 20  1  0  0  0  0
 20 21  2  0  0  0  0
 20 53  1  0  0  0  0
 21 22  1  0  0  0  0
 22 23  2  0  0  0  0
 22 24  1  0  0  0  0
 24 25  1  0  0  0  0
 24 54  1  0  0  0  0
 25 26  1  0  0  0  0
 25 55  1  0  0  0  0
 25 56  1  0  0  0  0
 26 31  1  0  0  0  0
 26 27  2  0  0  0  0
 27 28  1  0  0  0  0
 28 29  2  0  0  0  0
 28 57  1  0  0  0  0
 29 30  1  0  0  0  0
 29 58  1  0  0  0  0
 30 31  2  0  0  0  0
 30 59  1  0  0  0  0
 32 33  2  0  0  0  0
 32 60  1  0  0  0  0
 33 34  1  0  0  0  0
M  END
> <s_m_source_file>
AV-unprocessed.smi

> <i_m_source_file_index>
45

> <i_lp_mmshare_version>
43012

> <i_f3d_flags>
0

> <s_epik_input>
W0NIM11PYzFbY0hdW2NIXWMoW2NIXWMxQ2wpW0NIMl1bTkhdYzJuYyhOM1tDSDJdW0NIMl1bQ0gyXVtDQEhdM1tDSDJdW09IXSluW2NIXWMyQyg9TylbTkhdW0NIMl1jNG5bY0hdW2NIXVtjSF1uNA==

> <s_epik_cmdline>
J2VwaWtfcHl0aG9uJywgJy1waCcsICc3LjAnLCAnLXRuJywgJzgnLCAnLW1hJywgJzIwMCcsICctbWV0YWxfYmluZGluZycsICctaW1hZScsICc8aW5maWxlLm1hZT4nLCAnLW9tYWUnLCAnPG91dGZpbGUubWFlPic=

> <r_lp_tautomer_probability>
1

> <r_epik_Ionization_Penalty>
0.0522664

> <r_epik_Ionization_Penalty_Charging>
0

> <r_epik_Ionization_Penalty_Neutral>
0.0522664

> <r_epik_State_Penalty>
0.0369431

> <r_epik_Charging_Adjusted_Penalty>
0.0369431

> <i_epik_Tot_Q>
0

> <i_epik_Tot_abs_Q>
0

> <r_epik_Metal_State_Penalty>
0.0404664

> <b_epik_Metal_Only>
0

> <s_epik_Chemistry_Notes>
This compound contains an electron-poor aromatic ring that is susceptible to covalent hydrolysis at low pH, typically resulting in measured values for nitrogen ring protonation that are around two units higher than predicted values.

> <s_lp_Force_Field>
OPLS_2005

> <r_lp_Energy>
32.9916

> <b_lp_Chiralities_Consistent>
1

> <s_lp_Variant>
AV-unprocessed.smi:45-2

> <Gold.Version>
5.8.1

> <Gold.Id.Protein>
6NUR|6NUR_protein|mol2

> <Gold.PLP.Fitness>
61.4992

> <Gold.PLP.PLP>
-51.1055

> <Gold.PLP.part.hbond>
-5.0635

> <Gold.PLP.part.metal>
0.0000

> <Gold.PLP.part.buried>
-6.4982

> <Gold.PLP.part.nonpolar>
-39.4414

> <Gold.PLP.part.repulsive>
0.2696

> <Gold.PLP.ligand.clash>
0.0000

> <Gold.PLP.ligand.torsion>
0.7654

> <Gold.PLP.Chemscore.Hbond>
3.8400

> <Gold.PLP.Chemscore.CHOScore>
0.0000

> <Gold.PLP.Chemscore.Metal>
0.0000

> <Gold.Chemscore.Hbonds>
donor molecule, donor type, donor heavy atom, donor atom, acceptor molecule, acceptor atom, score
      L1  H    18    52       P1  7948  1.00
      P1  H  6896  6908       L1    23  1.00
      P1  H  6931  6943       L1    27  0.79
      P1  H  6934  6947       L1    27  0.93

> <Gold.PLP.Chemscore.Internal.Correction>
0.4046

> <Gold.Rescore>
     Score         DG    S(hbond)    S(metal)    S(lipo)     H(rot)  DE(clash)    DE(int)     intcor
     18.58     -20.75       3.16        0.00     103.72       2.90       0.01       2.16       ----

> <Gold.Chemscore.Fitness>
18.5801

> <Gold.Chemscore.DG>
-20.7538

> <Gold.Chemscore.ZeroCoef>
-5.4800

> <Gold.Chemscore.Hbond>
3.1614

> <Gold.Chemscore.Metal>
0.0000

> <Gold.Chemscore.Lipo>
103.7239

> <Gold.Chemscore.Internal_Hbond>
0.0000

> <Gold.Chemscore.DEClash>
0.0099

> <Gold.Chemscore.DEInternal>
2.1638

> <Gold.Chemscore.Rot>
2.8988

> <Gold.Chemscore.Internal.Correction>
   9.000000E+99

> <Gold.Chemscore.Hbonds>
donor molecule, donor type, donor heavy atom, donor atom, acceptor molecule, acceptor atom, score
      L1  H    18    52       P1  7948  0.95
      P1  H  6896  6908       L1    23  0.94
      P1  H  6931  6943       L1    27  0.17
      P1  H  6934  6947       L1    27  0.76

> <Gold.Chemscore.Hbond.Weighted>
-10.5590

> <Gold.Chemscore.Metal.Weighted>
-0.0000

> <Gold.Chemscore.Lipo.Weighted>
-12.1357

> <Gold.Chemscore.Internal_Hbond.Weighted>
0.0000

> <Gold.Chemscore.DEClash.Weighted>
0.0099

> <Gold.Chemscore.DEInternal.Weighted>
2.1638

> <Gold.Chemscore.Rot.Weighted>
7.4209

> <Gold.Chemscore.Internal.Correction.Weighted>
   9.000000E+99

> <Gold.Protein.RotatedTorsions>
[ 6907 6896 6895 6894 ] final  121.61 input  -60.11 | X-H torsion
[ 7974 7965 7964 7962 ] final -122.34 input  175.53 | X-H torsion
[ 8008 7997 7996 7995 ] final   91.59 input   59.86 | X-H torsion
[ 10167 10162 10161 10158 ] final  121.84 input  -65.29 | X-H torsion
[ 10718 10713 10712 10709 ] final  -80.67 input   66.30 | X-H torsion
[ 10763 10752 10751 10750 ] final   69.42 input  -60.55 | X-H torsion
[ 11005 11000 10999 10996 ] final  113.54 input  -57.11 | X-H torsion

> <Gold.Protein.ActiveResidues>
 VAL166  LYS551  ARG553  GLY616  TRP617  ASP618  TYR619  PRO620  LYS621  CYS622 
 ASP623  PHE694  ASN695  SER759  ASP760  ASP761  ALA762  ILE779  LEU786  VAL792 
 PHE793  MET794  SER795  GLU796  ALA797  LYS798  CYS799  TRP800  GLU811  SER814 

> <Gold.Protein.RotatedAtoms>
  152.4308  133.7274  159.6567 H   0  0  0  0  0  0  0  0  0  0  0  0  # atno 6907 bound_to 6896
  150.8187  133.8280  159.3155 H   0  0  0  0  0  0  0  0  0  0  0  0  # atno 6908 bound_to 6896
  151.5969  135.1052  160.0103 H   0  0  0  0  0  0  0  0  0  0  0  0  # atno 6909 bound_to 6896
  145.0305  140.8063  143.4326 H   0  0  0  0  0  0  0  0  0  0  0  0  # atno 7974 bound_to 7965
  156.0256  140.3336  155.7085 H   0  0  0  0  0  0  0  0  0  0  0  0  # atno 8008 bound_to 7997
  155.5960  140.0651  157.2764 H   0  0  0  0  0  0  0  0  0  0  0  0  # atno 8009 bound_to 7997
  154.4333  140.1819  156.1111 H   0  0  0  0  0  0  0  0  0  0  0  0  # atno 8010 bound_to 7997
  139.5895  144.7019  151.3326 H   0  0  0  0  0  0  0  0  0  0  0  0  # atno 10167 bound_to 10162
  156.0065  130.4581  150.3836 H   0  0  0  0  0  0  0  0  0  0  0  0  # atno 10718 bound_to 10713
  153.0286  135.5211  154.7286 H   0  0  0  0  0  0  0  0  0  0  0  0  # atno 10763 bound_to 10752
  154.6320  135.2901  155.0207 H   0  0  0  0  0  0  0  0  0  0  0  0  # atno 10764 bound_to 10752
  154.1156  135.6615  153.4945 H   0  0  0  0  0  0  0  0  0  0  0  0  # atno 10765 bound_to 10752
  139.8956  134.9551  156.6754 H   0  0  0  0  0  0  0  0  0  0  0  0  # atno 11005 bound_to 11000
  145.1777  139.2369  143.5309 LP  0  0  0  0  0  0  0  0  0  0  0  0  # atno 17320 bound_to 7965
  146.3498  140.1543  142.8592 LP  0  0  0  0  0  0  0  0  0  0  0  0  # atno 17321 bound_to 7965
  140.7160  143.7264  150.7657 LP  0  0  0  0  0  0  0  0  0  0  0  0  # atno 17342 bound_to 10162
  140.0816  143.4963  152.2527 LP  0  0  0  0  0  0  0  0  0  0  0  0  # atno 17343 bound_to 10162
  157.1914  131.0416  151.2698 LP  0  0  0  0  0  0  0  0  0  0  0  0  # atno 17370 bound_to 10713
  157.4058  130.7358  149.6801 LP  0  0  0  0  0  0  0  0  0  0  0  0  # atno 17371 bound_to 10713
  140.7341  133.9034  155.8231 LP  0  0  0  0  0  0  0  0  0  0  0  0  # atno 17394 bound_to 11000
  141.0130  134.0994  157.4201 LP  0  0  0  0  0  0  0  0  0  0  0  0  # atno 17395 bound_to 11000

$$$$
