AV-unprocessed.smi:109|AV-procd|sdf|1050|dock6
  -GOLD-   2262018103D 1   1.00000     0.00000
 Structure written by MMmdl.
 58 61  0  0  0  0  0  0  0  0  1 V2000
  142.5833  133.0809  157.6665 O   0  0  0  0  0  0  0  0  0  0  0  0
  143.3824  134.0715  158.2761 C   0  0  0  0  0  0  0  0  0  0  0  0
  144.8471  133.9079  157.8347 C   0  0  0  0  0  0  0  0  0  0  0  0
  145.7754  135.0692  158.2697 C   0  0  1  0  0  0  0  0  0  0  0  0
  145.2573  136.3339  157.7416 N   0  0  0  0  0  0  0  0  0  0  0  0
  145.1486  136.5723  156.4150 C   0  0  0  0  0  0  0  0  0  0  0  0
  144.5464  137.6936  155.9431 N   0  0  0  0  0  0  0  0  0  0  0  0
  144.4618  137.9029  154.6279 C   0  0  0  0  0  0  0  0  0  0  0  0
  144.9062  137.1338  153.6332 N   0  0  0  0  0  0  0  0  0  0  0  0
  145.5126  136.0003  154.0933 C   0  0  0  0  0  0  0  0  0  0  0  0
  145.6680  135.6537  155.4662 C   0  0  0  0  0  0  0  0  0  0  0  0
  146.3221  134.4360  155.5750 N   0  0  0  0  0  0  0  0  0  0  0  0
  146.5344  134.0830  154.3370 C   0  0  0  0  0  0  0  0  0  0  0  0
  146.0979  134.9686  153.3752 N   0  0  0  0  0  0  0  0  0  0  0  0
  146.2098  134.7713  151.8862 C   0  0  1  0  0  0  0  0  0  0  0  0
  146.4678  133.4273  151.6359 O   0  0  0  0  0  0  0  0  0  0  0  0
  145.2499  132.7415  151.3851 C   0  0  2  0  0  0  0  0  0  0  0  0
  145.5271  131.4747  150.5613 C   0  0  0  0  0  0  0  0  0  0  0  0
  146.3964  131.7710  149.4892 O   0  0  0  0  0  0  0  0  0  0  0  0
  144.4082  133.7841  150.6304 C   0  0  1  0  0  0  0  0  0  0  0  0
  143.0413  133.6306  150.9551 O   0  0  0  0  0  0  0  0  0  0  0  0
  144.9331  135.1413  151.1128 C   0  0  2  0  0  0  0  0  0  0  0  0
  145.2317  135.9702  150.0074 O   0  0  0  0  0  0  0  0  0  0  0  0
  145.9481  135.1843  159.8118 C   0  0  0  0  0  0  0  0  0  0  0  0
  146.9626  136.2985  160.1793 C   0  0  0  0  0  0  0  0  0  0  0  0
  147.1651  136.4362  161.6961 C   0  0  0  0  0  0  0  0  0  0  0  0
  147.6148  135.1084  162.3163 C   0  0  0  0  0  0  0  0  0  0  0  0
  146.6118  133.9956  161.9898 C   0  0  0  0  0  0  0  0  0  0  0  0
  146.3962  133.8565  160.4736 C   0  0  0  0  0  0  0  0  0  0  0  0
  147.0726  135.3791  151.6097 H   0  0  0  0  0  0  0  0  0  0  0  0
  144.7818  132.4816  152.3349 H   0  0  0  0  0  0  0  0  0  0  0  0
  144.5453  133.6737  149.5533 H   0  0  0  0  0  0  0  0  0  0  0  0
  144.2344  135.6782  151.7538 H   0  0  0  0  0  0  0  0  0  0  0  0
  141.8879  133.5069  157.1891 H   0  0  0  0  0  0  0  0  0  0  0  0
  143.0033  135.0540  157.9935 H   0  0  0  0  0  0  0  0  0  0  0  0
  143.2815  133.9792  159.3575 H   0  0  0  0  0  0  0  0  0  0  0  0
  145.2414  132.9622  158.2092 H   0  0  0  0  0  0  0  0  0  0  0  0
  144.8380  133.8281  156.7492 H   0  0  0  0  0  0  0  0  0  0  0  0
  146.7672  134.8651  157.8668 H   0  0  0  0  0  0  0  0  0  0  0  0
  145.0315  137.0315  158.4359 H   0  0  0  0  0  0  0  0  0  0  0  0
  143.9699  138.8171  154.3302 H   0  0  0  0  0  0  0  0  0  0  0  0
  147.0250  133.1532  154.0881 H   0  0  0  0  0  0  0  0  0  0  0  0
  146.0199  130.7261  151.1828 H   0  0  0  0  0  0  0  0  0  0  0  0
  144.6028  131.0306  150.1906 H   0  0  0  0  0  0  0  0  0  0  0  0
  147.2873  131.7066  149.7979 H   0  0  0  0  0  0  0  0  0  0  0  0
  142.5346  134.1802  150.3756 H   0  0  0  0  0  0  0  0  0  0  0  0
  145.4875  135.4218  149.2817 H   0  0  0  0  0  0  0  0  0  0  0  0
  144.9820  135.4573  160.2398 H   0  0  0  0  0  0  0  0  0  0  0  0
  147.9222  136.0898  159.7041 H   0  0  0  0  0  0  0  0  0  0  0  0
  146.6358  137.2636  159.7915 H   0  0  0  0  0  0  0  0  0  0  0  0
  147.9036  137.2111  161.9033 H   0  0  0  0  0  0  0  0  0  0  0  0
  146.2346  136.7628  162.1620 H   0  0  0  0  0  0  0  0  0  0  0  0
  148.6012  134.8394  161.9363 H   0  0  0  0  0  0  0  0  0  0  0  0
  147.7156  135.2155  163.3967 H   0  0  0  0  0  0  0  0  0  0  0  0
  146.9613  133.0489  162.4026 H   0  0  0  0  0  0  0  0  0  0  0  0
  145.6586  134.2099  162.4747 H   0  0  0  0  0  0  0  0  0  0  0  0
  145.6519  133.0765  160.3225 H   0  0  0  0  0  0  0  0  0  0  0  0
  147.3160  133.5042  160.0049 H   0  0  0  0  0  0  0  0  0  0  0  0
  1  2  1  0  0  0  0
  1 34  1  0  0  0  0
  2  3  1  0  0  0  0
  2 35  1  0  0  0  0
  2 36  1  0  0  0  0
  3  4  1  0  0  0  0
  3 37  1  0  0  0  0
  3 38  1  0  0  0  0
  4  5  1  0  0  0  0
  4 24  1  0  0  0  0
  4 39  1  0  0  0  0
  5  6  1  0  0  0  0
  5 40  1  0  0  0  0
  6 11  1  0  0  0  0
  6  7  2  0  0  0  0
  7  8  1  0  0  0  0
  8  9  2  0  0  0  0
  8 41  1  0  0  0  0
  9 10  1  0  0  0  0
 10 14  1  0  0  0  0
 10 11  2  0  0  0  0
 11 12  1  0  0  0  0
 12 13  2  0  0  0  0
 13 14  1  0  0  0  0
 13 42  1  0  0  0  0
 14 15  1  0  0  0  0
 15 30  1  0  0  0  0
 15 22  1  0  0  0  0
 15 16  1  0  0  0  0
 16 17  1  0  0  0  0
 17 31  1  0  0  0  0
 17 18  1  0  0  0  0
 17 20  1  0  0  0  0
 18 19  1  0  0  0  0
 18 43  1  0  0  0  0
 18 44  1  0  0  0  0
 19 45  1  0  0  0  0
 20 32  1  0  0  0  0
 20 21  1  0  0  0  0
 20 22  1  0  0  0  0
 21 46  1  0  0  0  0
 22 33  1  0  0  0  0
 22 23  1  0  0  0  0
 23 47  1  0  0  0  0
 24 29  1  0  0  0  0
 24 25  1  0  0  0  0
 24 48  1  0  0  0  0
 25 26  1  0  0  0  0
 25 49  1  0  0  0  0
 25 50  1  0  0  0  0
 26 27  1  0  0  0  0
 26 51  1  0  0  0  0
 26 52  1  0  0  0  0
 27 28  1  0  0  0  0
 27 53  1  0  0  0  0
 27 54  1  0  0  0  0
 28 29  1  0  0  0  0
 28 55  1  0  0  0  0
 28 56  1  0  0  0  0
 29 57  1  0  0  0  0
 29 58  1  0  0  0  0
M  END
> <s_m_source_file>
AV-unprocessed.smi

> <i_m_source_file_index>
109

> <i_lp_mmshare_version>
43012

> <i_f3d_flags>
0

> <s_epik_input>
W0NIMl0xW0NIMl1bQ0gyXVtDSDJdW0NIMl1bQ0hdMVtDQEhdKFtDSDJdW0NIMl1bT0hdKVtOSF1jKG5bY0hdbjIpYyhjMjMpbltjSF1uM1tDQEBIXTRPW0NASF0oW0NIMl1bT0hdKVtDQEBIXShbT0hdKVtDQEhdNFtPSF0=

> <s_epik_cmdline>
J2VwaWtfcHl0aG9uJywgJy1waCcsICc3LjAnLCAnLXRuJywgJzgnLCAnLW1hJywgJzIwMCcsICctbWV0YWxfYmluZGluZycsICctaW1hZScsICc8aW5maWxlLm1hZT4nLCAnLW9tYWUnLCAnPG91dGZpbGUubWFlPic=

> <r_lp_tautomer_probability>
1

> <r_epik_Ionization_Penalty>
0.000793976

> <r_epik_Ionization_Penalty_Charging>
0

> <r_epik_Ionization_Penalty_Neutral>
0.000793976

> <r_epik_State_Penalty>
-0

> <r_epik_Charging_Adjusted_Penalty>
0

> <i_epik_Tot_Q>
0

> <i_epik_Tot_abs_Q>
0

> <r_epik_Metal_State_Penalty>
-0

> <b_epik_Metal_Only>
0

> <s_epik_Chemistry_Notes>
This compound contains an acetal/aminal-like group ( X-CH(R)-Y where X, Y are N, S, or O) that may be acid/base labile, releasing an aldehyde.

> <s_lp_Force_Field>
OPLS_2005

> <r_lp_Energy>
47.2869

> <b_lp_Chiralities_Consistent>
1

> <s_lp_Variant>
AV-unprocessed.smi:109-20

> <Gold.Version>
5.8.1

> <Gold.Id.Protein>
6NUR|6NUR_protein|mol2

> <Gold.PLP.Fitness>
47.6940

> <Gold.PLP.PLP>
-33.7579

> <Gold.PLP.part.hbond>
-5.8347

> <Gold.PLP.part.metal>
0.0000

> <Gold.PLP.part.buried>
-6.5489

> <Gold.PLP.part.nonpolar>
-22.3140

> <Gold.PLP.part.repulsive>
0.3442

> <Gold.PLP.ligand.clash>
0.0108

> <Gold.PLP.ligand.torsion>
0.6272

> <Gold.PLP.Chemscore.Hbond>
4.0000

> <Gold.PLP.Chemscore.CHOScore>
0.9975

> <Gold.PLP.Chemscore.Metal>
0.0000

> <Gold.Chemscore.Hbonds>
donor molecule, donor type, donor heavy atom, donor atom, acceptor molecule, acceptor atom, score
      L1  H     1    34       P1 11000  1.00
      L1  H    19    45       P1 10747  1.00
      L1  H    21    46       P1 10186  0.94
      L1  H    23    47       P1  7921  1.00
      L1  C     8    41       P1 10175  1.00

> <Gold.PLP.Chemscore.Internal.Correction>
0.2088

> <Gold.Rescore>
     Score         DG    S(hbond)    S(metal)    S(lipo)     H(rot)  DE(clash)    DE(int)     intcor
      8.60     -12.06       3.76        0.00      68.36       5.47       0.15       3.30       ----

> <Gold.Chemscore.Fitness>
8.6046

> <Gold.Chemscore.DG>
-12.0577

> <Gold.Chemscore.ZeroCoef>
-5.4800

> <Gold.Chemscore.Hbond>
3.7646

> <Gold.Chemscore.Metal>
0.0000

> <Gold.Chemscore.Lipo>
68.3559

> <Gold.Chemscore.Internal_Hbond>
0.0000

> <Gold.Chemscore.DEClash>
0.1523

> <Gold.Chemscore.DEInternal>
3.3008

> <Gold.Chemscore.Rot>
5.4662

> <Gold.Chemscore.Internal.Correction>
   9.000000E+99

> <Gold.Chemscore.Hbonds>
donor molecule, donor type, donor heavy atom, donor atom, acceptor molecule, acceptor atom, score
      L1  H     1    34       P1 11000  0.73
      L1  H    19    45       P1 10747  0.98
      L1  H    21    46       P1 10186  0.75
      L1  H    23    47       P1  7921  1.00

> <Gold.Chemscore.Hbond.Weighted>
-12.5736

> <Gold.Chemscore.Metal.Weighted>
-0.0000

> <Gold.Chemscore.Lipo.Weighted>
-7.9976

> <Gold.Chemscore.Internal_Hbond.Weighted>
0.0000

> <Gold.Chemscore.DEClash.Weighted>
0.1523

> <Gold.Chemscore.DEInternal.Weighted>
3.3008

> <Gold.Chemscore.Rot.Weighted>
13.9935

> <Gold.Chemscore.Internal.Correction.Weighted>
   9.000000E+99

> <Gold.Protein.RotatedTorsions>
[ 6907 6896 6895 6894 ] final  165.35 input  -60.11 | X-H torsion
[ 7974 7965 7964 7962 ] final -102.93 input  175.53 | X-H torsion
[ 8008 7997 7996 7995 ] final -144.23 input   59.86 | X-H torsion
[ 10167 10162 10161 10158 ] final  157.46 input  -65.29 | X-H torsion
[ 10718 10713 10712 10709 ] final  -22.73 input   66.30 | X-H torsion
[ 10763 10752 10751 10750 ] final    0.53 input  -60.55 | X-H torsion
[ 11005 11000 10999 10996 ] final  135.13 input  -57.11 | X-H torsion

> <Gold.Protein.ActiveResidues>
 VAL166  LYS551  ARG553  GLY616  TRP617  ASP618  TYR619  PRO620  LYS621  CYS622 
 ASP623  PHE694  ASN695  SER759  ASP760  ASP761  ALA762  ILE779  LEU786  VAL792 
 PHE793  MET794  SER795  GLU796  ALA797  LYS798  CYS799  TRP800  GLU811  SER814 

> <Gold.Protein.RotatedAtoms>
  151.8957  133.3526  159.3813 H   0  0  0  0  0  0  0  0  0  0  0  0  # atno 6907 bound_to 6896
  150.7092  134.4879  159.5511 H   0  0  0  0  0  0  0  0  0  0  0  0  # atno 6908 bound_to 6896
  152.2458  134.8183  160.0504 H   0  0  0  0  0  0  0  0  0  0  0  0  # atno 6909 bound_to 6896
  145.2623  140.9273  143.3033 H   0  0  0  0  0  0  0  0  0  0  0  0  # atno 7974 bound_to 7965
  155.5235  140.0593  157.2902 H   0  0  0  0  0  0  0  0  0  0  0  0  # atno 8008 bound_to 7997
  154.4509  140.1948  156.0467 H   0  0  0  0  0  0  0  0  0  0  0  0  # atno 8009 bound_to 7997
  156.0702  140.3261  155.7571 H   0  0  0  0  0  0  0  0  0  0  0  0  # atno 8010 bound_to 7997
  139.4823  144.4915  151.8301 H   0  0  0  0  0  0  0  0  0  0  0  0  # atno 10167 bound_to 10162
  156.5006  130.4587  149.6703 H   0  0  0  0  0  0  0  0  0  0  0  0  # atno 10718 bound_to 10713
  153.3195  135.6968  153.7043 H   0  0  0  0  0  0  0  0  0  0  0  0  # atno 10763 bound_to 10752
  153.5889  135.3483  155.2904 H   0  0  0  0  0  0  0  0  0  0  0  0  # atno 10764 bound_to 10752
  154.8594  135.4313  154.2355 H   0  0  0  0  0  0  0  0  0  0  0  0  # atno 10765 bound_to 10752
  139.9960  134.9497  156.9965 H   0  0  0  0  0  0  0  0  0  0  0  0  # atno 11005 bound_to 11000
  144.9407  139.4192  143.6450 LP  0  0  0  0  0  0  0  0  0  0  0  0  # atno 17320 bound_to 7965
  146.3271  139.8365  142.8898 LP  0  0  0  0  0  0  0  0  0  0  0  0  # atno 17321 bound_to 7965
  140.4400  144.1999  150.5891 LP  0  0  0  0  0  0  0  0  0  0  0  0  # atno 17342 bound_to 10162
  140.4693  143.2419  151.9112 LP  0  0  0  0  0  0  0  0  0  0  0  0  # atno 17343 bound_to 10162
  156.3336  130.7345  151.2278 LP  0  0  0  0  0  0  0  0  0  0  0  0  # atno 17370 bound_to 10713
  157.7463  131.0423  150.4688 LP  0  0  0  0  0  0  0  0  0  0  0  0  # atno 17371 bound_to 10713
  140.4818  134.1282  155.7218 LP  0  0  0  0  0  0  0  0  0  0  0  0  # atno 17394 bound_to 11000
  141.1604  133.8803  157.1862 LP  0  0  0  0  0  0  0  0  0  0  0  0  # atno 17395 bound_to 11000

$$$$
