AV-unprocessed.smi:265|AV-procd|sdf|2016|dock1
  -GOLD-   2262021213D 1   1.00000     0.00000
 Structure written by MMmdl.
 52 56  0  0  0  0  0  0  0  0  1 V2000
  151.7230  144.9494  158.6870 C   0  0  0  0  0  0  0  0  0  0  0  0
  152.4691  143.6122  158.8139 C   0  0  1  0  0  0  0  0  0  0  0  0
  153.1185  143.5008  160.0797 O   0  0  0  0  0  0  0  0  0  0  0  0
  152.8809  142.2185  160.6493 C   0  0  0  0  0  0  0  0  0  0  0  0
  152.4105  141.3458  159.4905 C   0  0  0  0  0  0  0  0  0  0  0  0
  151.6245  142.3302  158.6354 C   0  0  1  0  0  0  0  0  0  0  0  0
  150.3400  142.5031  159.2109 O   0  0  0  0  0  0  0  0  0  0  0  0
  151.3792  141.8903  157.1691 C   0  0  0  0  0  0  0  0  0  0  0  0
  151.0237  140.4905  156.9966 N   0  0  0  0  0  0  0  0  0  0  0  0
  150.0839  139.7819  157.7126 C   0  0  0  0  0  0  0  0  0  0  0  0
  149.9547  138.5274  157.3758 N   0  0  0  0  0  0  0  0  0  0  0  0
  150.8901  138.3546  156.3641 C   0  0  0  0  0  0  0  0  0  0  0  0
  151.2886  137.2503  155.5679 C   0  0  0  0  0  0  0  0  0  0  0  0
  150.7213  136.0334  155.7007 N   0  0  0  0  0  0  0  0  0  0  0  0
  149.8516  135.6752  154.5802 C   0  0  0  0  0  0  0  0  0  0  0  0
  149.0590  134.3892  154.8836 C   0  0  0  0  0  0  0  0  0  0  0  0
  150.0211  133.2644  155.2924 C   0  0  2  0  0  0  0  0  0  0  0  0
  149.3284  132.0925  155.6948 O   0  0  0  0  0  0  0  0  0  0  0  0
  150.1904  130.9747  155.9358 C   0  0  0  0  0  0  0  0  0  0  0  0
  151.4206  131.3385  156.7952 C   0  0  0  0  0  0  0  0  0  0  0  0
  152.1146  130.4469  157.2782 O   0  0  0  0  0  0  0  0  0  0  0  0
  151.7211  132.6378  156.9555 N   0  0  0  0  0  0  0  0  0  0  0  0
  150.8551  133.7173  156.5017 C   0  0  1  0  0  0  0  0  0  0  0  0
  151.6424  134.9878  156.1453 C   0  0  0  0  0  0  0  0  0  0  0  0
  152.2701  137.4454  154.6485 N   0  0  0  0  0  0  0  0  0  0  0  0
  152.8305  138.6524  154.5208 C   0  0  0  0  0  0  0  0  0  0  0  0
  152.5638  139.7732  155.1963 N   0  0  0  0  0  0  0  0  0  0  0  0
  151.5752  139.5760  156.1160 C   0  0  0  0  0  0  0  0  0  0  0  0
  150.6680  133.0304  154.4438 H   0  0  0  0  0  0  0  0  0  0  0  0
  150.1828  133.9478  157.3303 H   0  0  0  0  0  0  0  0  0  0  0  0
  151.2249  145.0296  157.7207 H   0  0  0  0  0  0  0  0  0  0  0  0
  152.4156  145.7867  158.7729 H   0  0  0  0  0  0  0  0  0  0  0  0
  150.9699  145.0675  159.4665 H   0  0  0  0  0  0  0  0  0  0  0  0
  153.2818  143.6102  158.0894 H   0  0  0  0  0  0  0  0  0  0  0  0
  153.7743  141.8255  161.1346 H   0  0  0  0  0  0  0  0  0  0  0  0
  152.0980  142.3088  161.4034 H   0  0  0  0  0  0  0  0  0  0  0  0
  153.2885  140.9799  158.9589 H   0  0  0  0  0  0  0  0  0  0  0  0
  151.8292  140.4805  159.8113 H   0  0  0  0  0  0  0  0  0  0  0  0
  150.4469  142.8354  160.0889 H   0  0  0  0  0  0  0  0  0  0  0  0
  150.5813  142.4919  156.7308 H   0  0  0  0  0  0  0  0  0  0  0  0
  152.2684  142.0872  156.5685 H   0  0  0  0  0  0  0  0  0  0  0  0
  149.4892  140.2300  158.4955 H   0  0  0  0  0  0  0  0  0  0  0  0
  149.1614  136.4937  154.3704 H   0  0  0  0  0  0  0  0  0  0  0  0
  150.4584  135.5330  153.6847 H   0  0  0  0  0  0  0  0  0  0  0  0
  148.3468  134.5784  155.6879 H   0  0  0  0  0  0  0  0  0  0  0  0
  148.4758  134.0917  154.0119 H   0  0  0  0  0  0  0  0  0  0  0  0
  149.6187  130.1863  156.4259 H   0  0  0  0  0  0  0  0  0  0  0  0
  150.5364  130.5760  154.9813 H   0  0  0  0  0  0  0  0  0  0  0  0
  152.5425  132.8854  157.4881 H   0  0  0  0  0  0  0  0  0  0  0  0
  152.3664  134.7737  155.3575 H   0  0  0  0  0  0  0  0  0  0  0  0
  152.2024  135.3375  157.0138 H   0  0  0  0  0  0  0  0  0  0  0  0
  153.6040  138.7315  153.7709 H   0  0  0  0  0  0  0  0  0  0  0  0
  1  2  1  0  0  0  0
  1 31  1  0  0  0  0
  1 32  1  0  0  0  0
  1 33  1  0  0  0  0
  2  6  1  0  0  0  0
  2  3  1  0  0  0  0
  2 34  1  0  0  0  0
  3  4  1  0  0  0  0
  4  5  1  0  0  0  0
  4 35  1  0  0  0  0
  4 36  1  0  0  0  0
  5  6  1  0  0  0  0
  5 37  1  0  0  0  0
  5 38  1  0  0  0  0
  6  7  1  0  0  0  0
  6  8  1  0  0  0  0
  7 39  1  0  0  0  0
  8  9  1  0  0  0  0
  8 40  1  0  0  0  0
  8 41  1  0  0  0  0
  9 28  1  0  0  0  0
  9 10  1  0  0  0  0
 10 11  2  0  0  0  0
 10 42  1  0  0  0  0
 11 12  1  0  0  0  0
 12 28  2  0  0  0  0
 12 13  1  0  0  0  0
 13 14  1  0  0  0  0
 13 25  2  0  0  0  0
 14 24  1  0  0  0  0
 14 15  1  0  0  0  0
 15 16  1  0  0  0  0
 15 43  1  0  0  0  0
 15 44  1  0  0  0  0
 16 17  1  0  0  0  0
 16 45  1  0  0  0  0
 16 46  1  0  0  0  0
 17 29  1  0  0  0  0
 17 23  1  0  0  0  0
 17 18  1  0  0  0  0
 18 19  1  0  0  0  0
 19 20  1  0  0  0  0
 19 47  1  0  0  0  0
 19 48  1  0  0  0  0
 20 21  2  0  0  0  0
 20 22  1  0  0  0  0
 22 23  1  0  0  0  0
 22 49  1  0  0  0  0
 23 30  1  0  0  0  0
 23 24  1  0  0  0  0
 24 50  1  0  0  0  0
 24 51  1  0  0  0  0
 25 26  1  0  0  0  0
 26 27  2  0  0  0  0
 26 52  1  0  0  0  0
 27 28  1  0  0  0  0
M  END
> <s_m_source_file>
AV-unprocessed.smi

> <i_m_source_file_index>
265

> <i_lp_mmshare_version>
43012

> <i_f3d_flags>
0

> <s_epik_input>
W0NIMl0xW0NIMl1PW0NAQEhdKFtDSDNdKVtDQEBdMShbT0hdKVtDSDJdbihbY0hdbjIpYyhjMjMpbltjSF1uYzNOKFtDSDJdW0NIMl00KVtDSDJdW0NAQEhdKFtDQEhdNDUpW05IXUMoPU8pW0NIMl1PNQ==

> <s_epik_cmdline>
J2VwaWtfcHl0aG9uJywgJy1waCcsICc3LjAnLCAnLXRuJywgJzgnLCAnLW1hJywgJzIwMCcsICctbWV0YWxfYmluZGluZycsICctaW1hZScsICc8aW5maWxlLm1hZT4nLCAnLW9tYWUnLCAnPG91dGZpbGUubWFlPic=

> <r_lp_tautomer_probability>
1

> <r_epik_Ionization_Penalty>
0.00221504

> <r_epik_Ionization_Penalty_Charging>
0

> <r_epik_Ionization_Penalty_Neutral>
0.00221504

> <r_epik_State_Penalty>
-0

> <r_epik_Charging_Adjusted_Penalty>
0

> <i_epik_Tot_Q>
0

> <i_epik_Tot_abs_Q>
0

> <r_epik_Metal_State_Penalty>
-0

> <b_epik_Metal_Only>
0

> <s_lp_Force_Field>
OPLS_2005

> <r_lp_Energy>
49.8504

> <b_lp_Chiralities_Consistent>
1

> <s_lp_Variant>
AV-unprocessed.smi:265-2

> <Gold.Version>
5.8.1

> <Gold.Id.Protein>
6NUR|6NUR_protein|mol2

> <Gold.PLP.Fitness>
45.8843

> <Gold.PLP.PLP>
-40.7546

> <Gold.PLP.part.hbond>
-3.9689

> <Gold.PLP.part.metal>
0.0000

> <Gold.PLP.part.buried>
-2.7440

> <Gold.PLP.part.nonpolar>
-34.0926

> <Gold.PLP.part.repulsive>
0.3130

> <Gold.PLP.ligand.clash>
0.0000

> <Gold.PLP.ligand.torsion>
0.5222

> <Gold.PLP.Chemscore.Hbond>
1.9782

> <Gold.PLP.Chemscore.CHOScore>
0.0000

> <Gold.PLP.Chemscore.Metal>
0.0000

> <Gold.Chemscore.Hbonds>
donor molecule, donor type, donor heavy atom, donor atom, acceptor molecule, acceptor atom, score
      P1  H  7989  7998       L1    27  0.29
      P1  H  7997  8010       L1    27  0.96
      P1  H 10752 10764       L1    25  0.72

> <Gold.PLP.Chemscore.Internal.Correction>
0.2395

> <Gold.Rescore>
     Score         DG    S(hbond)    S(metal)    S(lipo)     H(rot)  DE(clash)    DE(int)     intcor
     14.55     -15.25       1.39        0.00      92.96       2.25       0.13       0.57       ----

> <Gold.Chemscore.Fitness>
14.5490

> <Gold.Chemscore.DG>
-15.2519

> <Gold.Chemscore.ZeroCoef>
-5.4800

> <Gold.Chemscore.Hbond>
1.3903

> <Gold.Chemscore.Metal>
0.0000

> <Gold.Chemscore.Lipo>
92.9606

> <Gold.Chemscore.Internal_Hbond>
0.0000

> <Gold.Chemscore.DEClash>
0.1314

> <Gold.Chemscore.DEInternal>
0.5716

> <Gold.Chemscore.Rot>
2.2453

> <Gold.Chemscore.Internal.Correction>
   9.000000E+99

> <Gold.Chemscore.Hbonds>
donor molecule, donor type, donor heavy atom, donor atom, acceptor molecule, acceptor atom, score
      P1  H  7989  7998       L1    27  0.03
      P1  H  7997  8010       L1    27  0.27
      P1  H 10752 10764       L1    25  0.32

> <Gold.Chemscore.Hbond.Weighted>
-4.6435

> <Gold.Chemscore.Metal.Weighted>
-0.0000

> <Gold.Chemscore.Lipo.Weighted>
-10.8764

> <Gold.Chemscore.Internal_Hbond.Weighted>
0.0000

> <Gold.Chemscore.DEClash.Weighted>
0.1314

> <Gold.Chemscore.DEInternal.Weighted>
0.5716

> <Gold.Chemscore.Rot.Weighted>
5.7479

> <Gold.Chemscore.Internal.Correction.Weighted>
   9.000000E+99

> <Gold.Protein.RotatedTorsions>
[ 6907 6896 6895 6894 ] final   47.55 input  -60.11 | X-H torsion
[ 7974 7965 7964 7962 ] final  151.58 input  175.53 | X-H torsion
[ 8008 7997 7996 7995 ] final   92.62 input   59.86 | X-H torsion
[ 10167 10162 10161 10158 ] final   95.76 input  -65.29 | X-H torsion
[ 10718 10713 10712 10709 ] final  -18.52 input   66.30 | X-H torsion
[ 10763 10752 10751 10750 ] final  -76.26 input  -60.55 | X-H torsion
[ 11005 11000 10999 10996 ] final  120.77 input  -57.11 | X-H torsion

> <Gold.Protein.ActiveResidues>
 VAL166  LYS551  ARG553  GLY616  TRP617  ASP618  TYR619  PRO620  LYS621  CYS622 
 ASP623  PHE694  ASN695  SER759  ASP760  ASP761  ALA762  ILE779  LEU786  VAL792 
 PHE793  MET794  SER795  GLU796  ALA797  LYS798  CYS799  TRP800  GLU811  SER814 

> <Gold.Protein.RotatedAtoms>
  152.2693  134.7950  160.0416 H   0  0  0  0  0  0  0  0  0  0  0  0  # atno 6907 bound_to 6896
  151.8568  133.3444  159.3699 H   0  0  0  0  0  0  0  0  0  0  0  0  # atno 6908 bound_to 6896
  150.7146  134.5173  159.5681 H   0  0  0  0  0  0  0  0  0  0  0  0  # atno 6909 bound_to 6896
  144.8282  139.6556  143.6070 H   0  0  0  0  0  0  0  0  0  0  0  0  # atno 7974 bound_to 7965
  156.0374  140.3323  155.7206 H   0  0  0  0  0  0  0  0  0  0  0  0  # atno 8008 bound_to 7997
  155.5795  140.0635  157.2804 H   0  0  0  0  0  0  0  0  0  0  0  0  # atno 8009 bound_to 7997
  154.4378  140.1846  156.0950 H   0  0  0  0  0  0  0  0  0  0  0  0  # atno 8010 bound_to 7997
  139.7958  144.6834  150.9830 H   0  0  0  0  0  0  0  0  0  0  0  0  # atno 10167 bound_to 10162
  156.5584  130.4719  149.6418 H   0  0  0  0  0  0  0  0  0  0  0  0  # atno 10718 bound_to 10713
  154.4974  135.5804  153.6505 H   0  0  0  0  0  0  0  0  0  0  0  0  # atno 10763 bound_to 10752
  152.9872  135.6127  154.3046 H   0  0  0  0  0  0  0  0  0  0  0  0  # atno 10764 bound_to 10752
  154.2951  135.2848  155.2616 H   0  0  0  0  0  0  0  0  0  0  0  0  # atno 10765 bound_to 10752
  139.9198  134.9636  156.7856 H   0  0  0  0  0  0  0  0  0  0  0  0  # atno 11005 bound_to 11000
  146.2586  139.6360  142.9377 LP  0  0  0  0  0  0  0  0  0  0  0  0  # atno 17320 bound_to 7965
  145.4953  141.0438  143.2570 LP  0  0  0  0  0  0  0  0  0  0  0  0  # atno 17321 bound_to 7965
  140.7820  143.4333  151.0662 LP  0  0  0  0  0  0  0  0  0  0  0  0  # atno 17342 bound_to 10162
  139.8007  143.8088  152.3162 LP  0  0  0  0  0  0  0  0  0  0  0  0  # atno 17343 bound_to 10162
  156.2821  130.7077  151.1904 LP  0  0  0  0  0  0  0  0  0  0  0  0  # atno 17370 bound_to 10713
  157.7373  131.0553  150.5360 LP  0  0  0  0  0  0  0  0  0  0  0  0  # atno 17371 bound_to 10713
  140.6508  133.9733  155.7754 LP  0  0  0  0  0  0  0  0  0  0  0  0  # atno 17394 bound_to 11000
  141.0709  134.0207  157.3527 LP  0  0  0  0  0  0  0  0  0  0  0  0  # atno 17395 bound_to 11000

$$$$
