AV-unprocessed.smi:111|AV-procd|sdf|1081|dock3
  -GOLD-   2262018173D 1   1.00000     0.00000
 Structure written by MMmdl.
 46 48  0  0  0  0  0  0  0  0  1 V2000
  154.9197  135.8964  158.5248 O   0  0  0  0  0  0  0  0  0  0  0  0
  154.8392  135.7302  159.7430 C   0  0  0  0  0  0  0  0  0  0  0  0
  155.2633  134.5038  160.4097 C   0  0  0  0  0  0  0  0  0  0  0  0
  155.7976  133.5051  159.6862 F   0  0  0  0  0  0  0  0  0  0  0  0
  155.1236  134.3496  161.7438 C   0  0  0  0  0  0  0  0  0  0  0  0
  154.5823  135.3251  162.5643 N   0  0  0  0  0  0  0  0  0  0  0  0
  154.4299  135.1116  164.0549 C   0  0  2  0  0  0  0  0  0  0  0  0
  155.7958  134.8471  164.6958 C   0  0  0  0  0  0  0  0  0  0  0  0
  155.8781  133.3378  164.6307 C   0  0  0  0  0  0  0  0  0  0  0  0
  154.4241  132.9391  164.8608 C   0  0  0  0  0  0  0  0  0  0  0  0
  153.6400  133.9794  164.2795 O   0  0  0  0  0  0  0  0  0  0  0  0
  154.1699  136.5555  162.0095 C   0  0  0  0  0  0  0  0  0  0  0  0
  153.7088  137.4476  162.7255 O   0  0  0  0  0  0  0  0  0  0  0  0
  154.3060  136.7176  160.6101 N   0  0  0  0  0  0  0  0  0  0  0  0
  153.8121  137.9601  160.0322 C   0  0  0  0  0  0  0  0  0  0  0  0
  154.9121  139.0196  159.7922 C   0  0  1  0  0  0  0  0  0  0  0  0
  155.6851  138.6102  158.6831 O   0  0  0  0  0  0  0  0  0  0  0  0
  154.3770  140.4453  159.5324 C   0  0  0  0  0  0  0  0  0  0  0  0
  153.9296  141.1878  160.8049 C   0  0  0  0  0  0  0  0  0  0  0  0
  153.2546  142.5165  160.5046 C   0  0  0  0  0  0  0  0  0  0  0  0
  152.6230  143.2392  161.5394 C   0  0  0  0  0  0  0  0  0  0  0  0
  152.0237  144.4849  161.2706 C   0  0  0  0  0  0  0  0  0  0  0  0
  152.0482  145.0109  159.9647 C   0  0  0  0  0  0  0  0  0  0  0  0
  152.6725  144.2908  158.9280 C   0  0  0  0  0  0  0  0  0  0  0  0
  153.2749  143.0463  159.1969 C   0  0  0  0  0  0  0  0  0  0  0  0
  155.4583  133.4183  162.1753 H   0  0  0  0  0  0  0  0  0  0  0  0
  153.9214  135.9989  164.4360 H   0  0  0  0  0  0  0  0  0  0  0  0
  156.6073  135.3617  164.1797 H   0  0  0  0  0  0  0  0  0  0  0  0
  155.7651  135.1847  165.7323 H   0  0  0  0  0  0  0  0  0  0  0  0
  156.2074  133.0208  163.6406 H   0  0  0  0  0  0  0  0  0  0  0  0
  156.5586  132.9129  165.3689 H   0  0  0  0  0  0  0  0  0  0  0  0
  154.1831  131.9681  164.4281 H   0  0  0  0  0  0  0  0  0  0  0  0
  154.2080  132.8981  165.9289 H   0  0  0  0  0  0  0  0  0  0  0  0
  153.3218  137.6825  159.0968 H   0  0  0  0  0  0  0  0  0  0  0  0
  153.0113  138.3521  160.6596 H   0  0  0  0  0  0  0  0  0  0  0  0
  155.5790  139.0281  160.6532 H   0  0  0  0  0  0  0  0  0  0  0  0
  155.2788  137.8486  158.2986 H   0  0  0  0  0  0  0  0  0  0  0  0
  155.1319  141.0309  159.0068 H   0  0  0  0  0  0  0  0  0  0  0  0
  153.5203  140.4052  158.8620 H   0  0  0  0  0  0  0  0  0  0  0  0
  153.2613  140.5557  161.3909 H   0  0  0  0  0  0  0  0  0  0  0  0
  154.7965  141.3811  161.4376 H   0  0  0  0  0  0  0  0  0  0  0  0
  152.6039  142.8439  162.5443 H   0  0  0  0  0  0  0  0  0  0  0  0
  151.5465  145.0373  162.0664 H   0  0  0  0  0  0  0  0  0  0  0  0
  151.5888  145.9662  159.7579 H   0  0  0  0  0  0  0  0  0  0  0  0
  152.6925  144.6949  157.9266 H   0  0  0  0  0  0  0  0  0  0  0  0
  153.7601  142.5050  158.3980 H   0  0  0  0  0  0  0  0  0  0  0  0
  1  2  2  0  0  0  0
  2 14  1  0  0  0  0
  2  3  1  0  0  0  0
  3  4  1  0  0  0  0
  3  5  2  0  0  0  0
  5  6  1  0  0  0  0
  5 26  1  0  0  0  0
  6  7  1  0  0  0  0
  6 12  1  0  0  0  0
  7 11  1  0  0  0  0
  7  8  1  0  0  0  0
  7 27  1  0  0  0  0
  8  9  1  0  0  0  0
  8 28  1  0  0  0  0
  8 29  1  0  0  0  0
  9 10  1  0  0  0  0
  9 30  1  0  0  0  0
  9 31  1  0  0  0  0
 10 11  1  0  0  0  0
 10 32  1  0  0  0  0
 10 33  1  0  0  0  0
 12 13  2  0  0  0  0
 12 14  1  0  0  0  0
 14 15  1  0  0  0  0
 15 16  1  0  0  0  0
 15 34  1  0  0  0  0
 15 35  1  0  0  0  0
 16 17  1  0  0  0  0
 16 18  1  0  0  0  0
 16 36  1  0  0  0  0
 17 37  1  0  0  0  0
 18 19  1  0  0  0  0
 18 38  1  0  0  0  0
 18 39  1  0  0  0  0
 19 20  1  0  0  0  0
 19 40  1  0  0  0  0
 19 41  1  0  0  0  0
 20 25  1  0  0  0  0
 20 21  2  0  0  0  0
 21 22  1  0  0  0  0
 21 42  1  0  0  0  0
 22 23  2  0  0  0  0
 22 43  1  0  0  0  0
 23 24  1  0  0  0  0
 23 44  1  0  0  0  0
 24 25  2  0  0  0  0
 24 45  1  0  0  0  0
 25 46  1  0  0  0  0
M  END
> <s_m_source_file>
AV-unprocessed.smi

> <i_m_source_file_index>
111

> <i_lp_mmshare_version>
43012

> <i_f3d_flags>
0

> <s_epik_input>
TzFbQ0gyXVtDSDJdW0NIMl1bQ0BIXTFuKFtjSF1jKEYpYzI9TyljKD1PKW4yW0NIMl1bQ0BIXShbT0hdKVtDSDJdW0NIMl1jM1tjSF1bY0hdW2NIXVtjSF1bY0hdMw==

> <s_epik_cmdline>
J2VwaWtfcHl0aG9uJywgJy1waCcsICc3LjAnLCAnLXRuJywgJzgnLCAnLW1hJywgJzIwMCcsICctbWV0YWxfYmluZGluZycsICctaW1hZScsICc8aW5maWxlLm1hZT4nLCAnLW9tYWUnLCAnPG91dGZpbGUubWFlPic=

> <r_lp_tautomer_probability>
1

> <r_epik_Ionization_Penalty>
1.88248e-07

> <r_epik_Ionization_Penalty_Charging>
4.03974e-08

> <r_epik_Ionization_Penalty_Neutral>
1.47851e-07

> <r_epik_State_Penalty>
-0

> <r_epik_Charging_Adjusted_Penalty>
4.03974e-08

> <i_epik_Tot_Q>
0

> <i_epik_Tot_abs_Q>
0

> <r_epik_Metal_State_Penalty>
-0

> <b_epik_Metal_Only>
0

> <s_epik_Chemistry_Notes>
This compound contains an acetal/aminal-like group ( X-CH(R)-Y where X, Y are N, S, or O) that may be acid/base labile, releasing an aldehyde.

> <s_lp_Force_Field>
OPLS_2005

> <r_lp_Energy>
35.2037

> <b_lp_Chiralities_Consistent>
1

> <s_lp_Variant>
AV-unprocessed.smi:111-3

> <Gold.Version>
5.8.1

> <Gold.Id.Protein>
6NUR|6NUR_protein|mol2

> <Gold.PLP.Fitness>
49.3347

> <Gold.PLP.PLP>
-47.6458

> <Gold.PLP.part.hbond>
-1.0000

> <Gold.PLP.part.metal>
0.0000

> <Gold.PLP.part.buried>
-4.2669

> <Gold.PLP.part.nonpolar>
-42.4168

> <Gold.PLP.part.repulsive>
0.0794

> <Gold.PLP.ligand.clash>
0.0000

> <Gold.PLP.ligand.torsion>
0.6897

> <Gold.PLP.Chemscore.Hbond>
0.9920

> <Gold.PLP.Chemscore.CHOScore>
0.0000

> <Gold.PLP.Chemscore.Metal>
0.0000

> <Gold.Chemscore.Hbonds>
donor molecule, donor type, donor heavy atom, donor atom, acceptor molecule, acceptor atom, score
      P1  H  7997  8010       L1    17  1.00

> <Gold.PLP.Chemscore.Internal.Correction>
0.0923

> <Gold.Rescore>
     Score         DG    S(hbond)    S(metal)    S(lipo)     H(rot)  DE(clash)    DE(int)     intcor
     14.97     -15.75       0.77        0.00     124.31       2.67       0.03       0.75       ----

> <Gold.Chemscore.Fitness>
14.9724

> <Gold.Chemscore.DG>
-15.7467

> <Gold.Chemscore.ZeroCoef>
-5.4800

> <Gold.Chemscore.Hbond>
0.7692

> <Gold.Chemscore.Metal>
0.0000

> <Gold.Chemscore.Lipo>
124.3076

> <Gold.Chemscore.Internal_Hbond>
0.0000

> <Gold.Chemscore.DEClash>
0.0270

> <Gold.Chemscore.DEInternal>
0.7473

> <Gold.Chemscore.Rot>
2.6743

> <Gold.Chemscore.Internal.Correction>
   9.000000E+99

> <Gold.Chemscore.Hbonds>
donor molecule, donor type, donor heavy atom, donor atom, acceptor molecule, acceptor atom, score
      P1  H  7997  8010       L1    17  0.44

> <Gold.Chemscore.Hbond.Weighted>
-2.5690

> <Gold.Chemscore.Metal.Weighted>
-0.0000

> <Gold.Chemscore.Lipo.Weighted>
-14.5440

> <Gold.Chemscore.Internal_Hbond.Weighted>
0.0000

> <Gold.Chemscore.DEClash.Weighted>
0.0270

> <Gold.Chemscore.DEInternal.Weighted>
0.7473

> <Gold.Chemscore.Rot.Weighted>
6.8463

> <Gold.Chemscore.Internal.Correction.Weighted>
   9.000000E+99

> <Gold.Protein.RotatedTorsions>
[ 6907 6896 6895 6894 ] final  -99.91 input  -60.11 | X-H torsion
[ 7974 7965 7964 7962 ] final   31.25 input  175.53 | X-H torsion
[ 8008 7997 7996 7995 ] final  -35.85 input   59.86 | X-H torsion
[ 10167 10162 10161 10158 ] final  -85.93 input  -65.29 | X-H torsion
[ 10718 10713 10712 10709 ] final  -16.63 input   66.30 | X-H torsion
[ 10763 10752 10751 10750 ] final  136.15 input  -60.55 | X-H torsion
[ 11005 11000 10999 10996 ] final -156.99 input  -57.11 | X-H torsion

> <Gold.Protein.ActiveResidues>
 VAL166  LYS551  ARG553  GLY616  TRP617  ASP618  TYR619  PRO620  LYS621  CYS622 
 ASP623  PHE694  ASN695  SER759  ASP760  ASP761  ALA762  ILE779  LEU786  VAL792 
 PHE793  MET794  SER795  GLU796  ALA797  LYS798  CYS799  TRP800  GLU811  SER814 

> <Gold.Protein.RotatedAtoms>
  150.7097  134.0968  159.3951 H   0  0  0  0  0  0  0  0  0  0  0  0  # atno 6907 bound_to 6896
  151.8954  135.0397  160.0511 H   0  0  0  0  0  0  0  0  0  0  0  0  # atno 6908 bound_to 6896
  152.2457  133.5137  159.5333 H   0  0  0  0  0  0  0  0  0  0  0  0  # atno 6909 bound_to 6896
  146.1562  139.6682  142.9065 H   0  0  0  0  0  0  0  0  0  0  0  0  # atno 7974 bound_to 7965
  154.4086  140.1646  156.2279 H   0  0  0  0  0  0  0  0  0  0  0  0  # atno 8008 bound_to 7997
  155.9308  140.3415  155.6224 H   0  0  0  0  0  0  0  0  0  0  0  0  # atno 8009 bound_to 7997
  155.7109  140.0756  157.2362 H   0  0  0  0  0  0  0  0  0  0  0  0  # atno 8010 bound_to 7997
  140.3990  143.2671  151.9166 H   0  0  0  0  0  0  0  0  0  0  0  0  # atno 10167 bound_to 10162
  156.5850  130.4784  149.6304 H   0  0  0  0  0  0  0  0  0  0  0  0  # atno 10718 bound_to 10713
  153.8518  135.3078  155.3433 H   0  0  0  0  0  0  0  0  0  0  0  0  # atno 10763 bound_to 10752
  154.7888  135.4794  154.0008 H   0  0  0  0  0  0  0  0  0  0  0  0  # atno 10764 bound_to 10752
  153.1514  135.6844  153.8970 H   0  0  0  0  0  0  0  0  0  0  0  0  # atno 10765 bound_to 10752
  140.6696  134.4262  157.5232 H   0  0  0  0  0  0  0  0  0  0  0  0  # atno 11005 bound_to 11000
  145.4702  141.0436  143.2702 LP  0  0  0  0  0  0  0  0  0  0  0  0  # atno 17320 bound_to 7965
  144.7966  139.6222  143.7090 LP  0  0  0  0  0  0  0  0  0  0  0  0  # atno 17321 bound_to 7965
  139.4785  144.5652  151.8176 LP  0  0  0  0  0  0  0  0  0  0  0  0  # atno 17342 bound_to 10162
  140.4759  144.1519  150.5925 LP  0  0  0  0  0  0  0  0  0  0  0  0  # atno 17343 bound_to 10162
  156.2599  130.6956  151.1721 LP  0  0  0  0  0  0  0  0  0  0  0  0  # atno 17370 bound_to 10713
  157.7317  131.0605  150.5662 LP  0  0  0  0  0  0  0  0  0  0  0  0  # atno 17371 bound_to 10713
  139.8986  134.8610  156.1995 LP  0  0  0  0  0  0  0  0  0  0  0  0  # atno 17394 bound_to 11000
  141.0403  133.6941  156.1585 LP  0  0  0  0  0  0  0  0  0  0  0  0  # atno 17395 bound_to 11000

$$$$
