AV-unprocessed.smi:2330|AV-procd|sdf|9313|dock10
  -GOLD-   2272012533D 1   1.00000     0.00000
 Structure written by MMmdl.
 42 43  0  0  0  0  0  0  0  0  1 V2000
  144.3470  144.6035  154.7125 C   0  0  0  0  0  0  0  0  0  0  0  0
  145.0029  143.2165  154.7609 C   0  0  2  0  0  0  0  0  0  0  0  0
  145.3736  142.8177  156.2021 C   0  0  0  0  0  0  0  0  0  0  0  0
  146.0278  141.4255  156.2553 C   0  0  0  0  0  0  0  0  0  0  0  0
  147.2526  141.3177  155.3264 C   0  0  2  0  0  0  0  0  0  0  0  0
  148.3608  142.1141  155.8519 N   0  0  0  0  0  0  0  0  0  0  0  0
  149.4435  141.6389  156.4827 C   0  0  0  0  0  0  0  0  0  0  0  0
  149.6634  140.4449  156.6864 O   0  0  0  0  0  0  0  0  0  0  0  0
  150.2526  142.6278  156.8853 N   0  0  0  0  0  0  0  0  0  0  0  0
  151.4707  142.4472  157.6702 C   0  0  0  0  0  0  0  0  0  0  0  0
  151.6680  143.5500  158.7344 C   0  0  1  0  0  0  0  0  0  0  0  0
  150.3787  144.3260  159.0383 C   0  0  0  0  0  0  0  0  0  0  0  0
  152.3381  143.0544  159.9805 C   0  0  0  0  0  0  0  0  0  0  0  0
  151.9473  143.3839  161.2159 N   0  0  0  0  0  0  0  0  0  0  0  0
  152.7237  142.7733  162.2036 C   0  0  0  0  0  0  0  0  0  0  0  0
  153.7131  141.9669  161.7018 C   0  0  0  0  0  0  0  0  0  0  0  0
  153.7067  141.9456  159.9600 S   0  0  0  0  0  0  0  0  0  0  0  0
  146.9017  141.7564  153.8912 C   0  0  0  0  0  0  0  0  0  0  0  0
  146.2426  143.1467  153.8488 C   0  0  0  0  0  0  0  0  0  0  0  0
  145.0275  145.3771  155.0699 H   0  0  0  0  0  0  0  0  0  0  0  0
  143.4506  144.6356  155.3325 H   0  0  0  0  0  0  0  0  0  0  0  0
  144.0522  144.8629  153.6954 H   0  0  0  0  0  0  0  0  0  0  0  0
  144.2724  142.4955  154.3907 H   0  0  0  0  0  0  0  0  0  0  0  0
  146.0517  143.5585  156.6279 H   0  0  0  0  0  0  0  0  0  0  0  0
  144.4822  142.8228  156.8307 H   0  0  0  0  0  0  0  0  0  0  0  0
  146.3097  141.1833  157.2808 H   0  0  0  0  0  0  0  0  0  0  0  0
  145.2909  140.6772  155.9604 H   0  0  0  0  0  0  0  0  0  0  0  0
  147.5464  140.2672  155.2905 H   0  0  0  0  0  0  0  0  0  0  0  0
  148.2834  143.1146  155.7421 H   0  0  0  0  0  0  0  0  0  0  0  0
  149.9881  143.5780  156.6698 H   0  0  0  0  0  0  0  0  0  0  0  0
  151.4760  141.4595  158.1340 H   0  0  0  0  0  0  0  0  0  0  0  0
  152.3073  142.4628  156.9712 H   0  0  0  0  0  0  0  0  0  0  0  0
  152.3534  144.2784  158.2991 H   0  0  0  0  0  0  0  0  0  0  0  0
  150.5724  145.1596  159.7139 H   0  0  0  0  0  0  0  0  0  0  0  0
  149.6308  143.6848  159.5057 H   0  0  0  0  0  0  0  0  0  0  0  0
  149.9427  144.7345  158.1262 H   0  0  0  0  0  0  0  0  0  0  0  0
  152.5010  142.9678  163.2423 H   0  0  0  0  0  0  0  0  0  0  0  0
  154.4417  141.3865  162.2482 H   0  0  0  0  0  0  0  0  0  0  0  0
  147.7945  141.7461  153.2648 H   0  0  0  0  0  0  0  0  0  0  0  0
  146.2179  141.0279  153.4537 H   0  0  0  0  0  0  0  0  0  0  0  0
  145.9624  143.3833  152.8218 H   0  0  0  0  0  0  0  0  0  0  0  0
  146.9666  143.9049  154.1501 H   0  0  0  0  0  0  0  0  0  0  0  0
  1  2  1  0  0  0  0
  1 20  1  0  0  0  0
  1 21  1  0  0  0  0
  1 22  1  0  0  0  0
  2 19  1  0  0  0  0
  2  3  1  0  0  0  0
  2 23  1  0  0  0  0
  3  4  1  0  0  0  0
  3 24  1  0  0  0  0
  3 25  1  0  0  0  0
  4  5  1  0  0  0  0
  4 26  1  0  0  0  0
  4 27  1  0  0  0  0
  5  6  1  0  0  0  0
  5 18  1  0  0  0  0
  5 28  1  0  0  0  0
  6  7  1  0  0  0  0
  6 29  1  0  0  0  0
  7  8  2  0  0  0  0
  7  9  1  0  0  0  0
  9 10  1  0  0  0  0
  9 30  1  0  0  0  0
 10 11  1  0  0  0  0
 10 31  1  0  0  0  0
 10 32  1  0  0  0  0
 11 12  1  0  0  0  0
 11 13  1  0  0  0  0
 11 33  1  0  0  0  0
 12 34  1  0  0  0  0
 12 35  1  0  0  0  0
 12 36  1  0  0  0  0
 13 17  1  0  0  0  0
 13 14  2  0  0  0  0
 14 15  1  0  0  0  0
 15 16  2  0  0  0  0
 15 37  1  0  0  0  0
 16 17  1  0  0  0  0
 16 38  1  0  0  0  0
 18 19  1  0  0  0  0
 18 39  1  0  0  0  0
 18 40  1  0  0  0  0
 19 41  1  0  0  0  0
 19 42  1  0  0  0  0
M  END
> <s_m_source_file>
AV-unprocessed.smi

> <i_m_source_file_index>
2330

> <i_lp_mmshare_version>
43012

> <i_f3d_flags>
0

> <s_epik_input>
W0NIM11bQ0BASF0xW0NIMl1bQ0gyXVtDQEhdKFtDSDJdW0NIMl0xKVtOSF1DKD1PKVtOSF1bQ0gyXVtDQEhdKFtDSDNdKWMybltjSF1bY0hdczI=

> <s_epik_cmdline>
J2VwaWtfcHl0aG9uJywgJy1waCcsICc3LjAnLCAnLXRuJywgJzgnLCAnLW1hJywgJzIwMCcsICctbWV0YWxfYmluZGluZycsICctaW1hZScsICc8aW5maWxlLm1hZT4nLCAnLW9tYWUnLCAnPG91dGZpbGUubWFlPic=

> <r_lp_tautomer_probability>
1

> <r_epik_Ionization_Penalty>
0.000331107

> <r_epik_Ionization_Penalty_Charging>
0

> <r_epik_Ionization_Penalty_Neutral>
0.000331107

> <r_epik_State_Penalty>
-0

> <r_epik_Charging_Adjusted_Penalty>
0

> <i_epik_Tot_Q>
0

> <i_epik_Tot_abs_Q>
0

> <r_epik_Metal_State_Penalty>
-0

> <b_epik_Metal_Only>
0

> <s_lp_Force_Field>
OPLS_2005

> <r_lp_Energy>
-2.32189

> <b_lp_Chiralities_Consistent>
1

> <s_lp_Variant>
AV-unprocessed.smi:2330-4

> <Gold.Version>
5.8.1

> <Gold.Id.Protein>
6NUR|6NUR_protein|mol2

> <Gold.PLP.Fitness>
46.8038

> <Gold.PLP.PLP>
-43.2460

> <Gold.PLP.part.hbond>
-2.0000

> <Gold.PLP.part.metal>
0.0000

> <Gold.PLP.part.buried>
-7.3810

> <Gold.PLP.part.nonpolar>
-33.4013

> <Gold.PLP.part.repulsive>
0.2545

> <Gold.PLP.ligand.clash>
0.1827

> <Gold.PLP.ligand.torsion>
1.1520

> <Gold.PLP.Chemscore.Hbond>
1.9760

> <Gold.PLP.Chemscore.CHOScore>
0.0000

> <Gold.PLP.Chemscore.Metal>
0.0000

> <Gold.Chemscore.Hbonds>
donor molecule, donor type, donor heavy atom, donor atom, acceptor molecule, acceptor atom, score
      L1  H     6    29       P1  8028  1.00
      L1  H     9    30       P1  8028  0.96

> <Gold.PLP.Chemscore.Internal.Correction>
0.1165

> <Gold.Rescore>
     Score         DG    S(hbond)    S(metal)    S(lipo)     H(rot)  DE(clash)    DE(int)     intcor
     20.05     -21.20       1.94        0.00     110.94       1.45       0.02       1.12       ----

> <Gold.Chemscore.Fitness>
20.0541

> <Gold.Chemscore.DG>
-21.2018

> <Gold.Chemscore.ZeroCoef>
-5.4800

> <Gold.Chemscore.Hbond>
1.9350

> <Gold.Chemscore.Metal>
0.0000

> <Gold.Chemscore.Lipo>
110.9406

> <Gold.Chemscore.Internal_Hbond>
0.0000

> <Gold.Chemscore.DEClash>
0.0240

> <Gold.Chemscore.DEInternal>
1.1237

> <Gold.Chemscore.Rot>
1.4536

> <Gold.Chemscore.Internal.Correction>
   9.000000E+99

> <Gold.Chemscore.Hbonds>
donor molecule, donor type, donor heavy atom, donor atom, acceptor molecule, acceptor atom, score
      L1  H     6    29       P1  8028  0.91
      L1  H     9    30       P1  8028  0.92

> <Gold.Chemscore.Hbond.Weighted>
-6.4629

> <Gold.Chemscore.Metal.Weighted>
-0.0000

> <Gold.Chemscore.Lipo.Weighted>
-12.9800

> <Gold.Chemscore.Internal_Hbond.Weighted>
0.0000

> <Gold.Chemscore.DEClash.Weighted>
0.0240

> <Gold.Chemscore.DEInternal.Weighted>
1.1237

> <Gold.Chemscore.Rot.Weighted>
3.7212

> <Gold.Chemscore.Internal.Correction.Weighted>
   9.000000E+99

> <Gold.Protein.RotatedTorsions>
[ 6907 6896 6895 6894 ] final   25.91 input  -60.11 | X-H torsion
[ 7974 7965 7964 7962 ] final -157.96 input  175.53 | X-H torsion
[ 8008 7997 7996 7995 ] final  -81.10 input   59.86 | X-H torsion
[ 10167 10162 10161 10158 ] final -178.25 input  -65.29 | X-H torsion
[ 10718 10713 10712 10709 ] final  -19.97 input   66.30 | X-H torsion
[ 10763 10752 10751 10750 ] final  -47.59 input  -60.55 | X-H torsion
[ 11005 11000 10999 10996 ] final  104.05 input  -57.11 | X-H torsion

> <Gold.Protein.ActiveResidues>
 VAL166  LYS551  ARG553  GLY616  TRP617  ASP618  TYR619  PRO620  LYS621  CYS622 
 ASP623  PHE694  ASN695  SER759  ASP760  ASP761  ALA762  ILE779  LEU786  VAL792 
 PHE793  MET794  SER795  GLU796  ALA797  LYS798  CYS799  TRP800  GLU811  SER814 

> <Gold.Protein.RotatedAtoms>
  151.9796  135.0035  160.0556 H   0  0  0  0  0  0  0  0  0  0  0  0  # atno 6907 bound_to 6896
  152.1708  133.4637  159.4916 H   0  0  0  0  0  0  0  0  0  0  0  0  # atno 6908 bound_to 6896
  150.6901  134.1873  159.4314 H   0  0  0  0  0  0  0  0  0  0  0  0  # atno 6909 bound_to 6896
  144.7526  140.3896  143.6036 H   0  0  0  0  0  0  0  0  0  0  0  0  # atno 7974 bound_to 7965
  154.5950  140.0653  156.9290 H   0  0  0  0  0  0  0  0  0  0  0  0  # atno 8008 bound_to 7997
  155.2230  140.3331  155.4295 H   0  0  0  0  0  0  0  0  0  0  0  0  # atno 8009 bound_to 7997
  156.2281  140.1828  156.7297 H   0  0  0  0  0  0  0  0  0  0  0  0  # atno 8010 bound_to 7997
  139.5441  144.2282  152.0954 H   0  0  0  0  0  0  0  0  0  0  0  0  # atno 10167 bound_to 10162
  156.5383  130.4672  149.6511 H   0  0  0  0  0  0  0  0  0  0  0  0  # atno 10718 bound_to 10713
  154.0639  135.6614  153.4815 H   0  0  0  0  0  0  0  0  0  0  0  0  # atno 10763 bound_to 10752
  153.0416  135.5141  154.7633 H   0  0  0  0  0  0  0  0  0  0  0  0  # atno 10764 bound_to 10752
  154.6677  135.3024  154.9750 H   0  0  0  0  0  0  0  0  0  0  0  0  # atno 10765 bound_to 10752
  139.8788  134.9286  156.5303 H   0  0  0  0  0  0  0  0  0  0  0  0  # atno 11005 bound_to 11000
  145.6891  139.1635  143.2657 LP  0  0  0  0  0  0  0  0  0  0  0  0  # atno 17320 bound_to 7965
  146.1496  140.6944  142.9328 LP  0  0  0  0  0  0  0  0  0  0  0  0  # atno 17321 bound_to 7965
  140.1766  144.4885  150.6551 LP  0  0  0  0  0  0  0  0  0  0  0  0  # atno 17342 bound_to 10162
  140.6683  143.2276  151.5688 LP  0  0  0  0  0  0  0  0  0  0  0  0  # atno 17343 bound_to 10162
  156.2995  130.7169  151.2037 LP  0  0  0  0  0  0  0  0  0  0  0  0  # atno 17370 bound_to 10713
  157.7410  131.0510  150.5129 LP  0  0  0  0  0  0  0  0  0  0  0  0  # atno 17371 bound_to 10713
  140.8386  133.8223  155.9053 LP  0  0  0  0  0  0  0  0  0  0  0  0  # atno 17394 bound_to 11000
  140.9259  134.2082  157.4896 LP  0  0  0  0  0  0  0  0  0  0  0  0  # atno 17395 bound_to 11000

$$$$
