AV-unprocessed.smi:1667|AV-procd|sdf|6678|dock3
  -GOLD-   22720 7393D 1   1.00000     0.00000
 Structure written by MMmdl.
 46 48  0  0  0  0  0  0  0  0  2 V2000
  154.5671  137.2563  162.4336 C   0  0  0  0  0  0  0  0  0  0  0  0
  153.5912  137.2969  161.2629 C   0  0  0  0  0  0  0  0  0  0  0  0
  153.1205  136.2513  160.8165 O   0  0  0  0  0  0  0  0  0  0  0  0
  153.3030  138.5158  160.7766 N   0  0  0  0  0  0  0  0  0  0  0  0
  152.4178  138.8298  159.6551 C   0  0  2  0  0  0  0  0  0  0  0  0
  152.8541  138.1009  158.3694 C   0  0  0  0  0  0  0  0  0  0  0  0
  152.2365  140.3094  159.4481 C   0  0  0  0  0  0  0  0  0  0  0  0
  152.9871  141.2978  160.0158 N   0  3  0  0  0  0  0  0  0  0  0  0
  152.5197  142.5461  159.6083 C   0  0  0  0  0  0  0  0  0  0  0  0
  152.9634  143.8292  159.9135 C   0  0  0  0  0  0  0  0  0  0  0  0
  152.2609  144.8987  159.3207 C   0  0  0  0  0  0  0  0  0  0  0  0
  151.1649  144.6714  158.4630 C   0  0  0  0  0  0  0  0  0  0  0  0
  150.7236  143.3656  158.1632 C   0  0  0  0  0  0  0  0  0  0  0  0
  151.4223  142.3139  158.7557 C   0  0  0  0  0  0  0  0  0  0  0  0
  151.2715  140.9234  158.6994 N   0  0  0  0  0  0  0  0  0  0  0  0
  150.1789  140.3610  157.8878 C   0  0  0  0  0  0  0  0  0  0  0  0
  150.6676  139.6315  156.6180 C   0  0  2  0  0  0  0  0  0  0  0  0
  151.8909  140.1855  156.1773 O   0  0  0  0  0  0  0  0  0  0  0  0
  149.6064  139.6520  155.5300 C   0  0  0  0  0  0  0  0  0  0  0  0
  149.1738  138.4501  154.9268 C   0  0  0  0  0  0  0  0  0  0  0  0
  148.1952  138.4762  153.9143 C   0  0  0  0  0  0  0  0  0  0  0  0
  147.6446  139.7035  153.4981 C   0  0  0  0  0  0  0  0  0  0  0  0
  148.0748  140.9050  154.0932 C   0  0  0  0  0  0  0  0  0  0  0  0
  147.5485  142.0858  153.6914 F   0  0  0  0  0  0  0  0  0  0  0  0
  149.0534  140.8793  155.1058 C   0  0  0  0  0  0  0  0  0  0  0  0
  151.4441  138.4216  159.9247 H   0  0  0  0  0  0  0  0  0  0  0  0
  155.4517  137.8559  162.2170 H   0  0  0  0  0  0  0  0  0  0  0  0
  154.8900  136.2341  162.6335 H   0  0  0  0  0  0  0  0  0  0  0  0
  154.0947  137.6490  163.3341 H   0  0  0  0  0  0  0  0  0  0  0  0
  153.7533  139.3042  161.2188 H   0  0  0  0  0  0  0  0  0  0  0  0
  152.1282  138.2524  157.5701 H   0  0  0  0  0  0  0  0  0  0  0  0
  152.9333  137.0268  158.5388 H   0  0  0  0  0  0  0  0  0  0  0  0
  153.8219  138.4484  158.0070 H   0  0  0  0  0  0  0  0  0  0  0  0
  153.8033  144.0047  160.5696 H   0  0  0  0  0  0  0  0  0  0  0  0
  152.5693  145.9135  159.5270 H   0  0  0  0  0  0  0  0  0  0  0  0
  150.6516  145.5160  158.0264 H   0  0  0  0  0  0  0  0  0  0  0  0
  149.8834  143.2027  157.5049 H   0  0  0  0  0  0  0  0  0  0  0  0
  149.5993  139.6876  158.5207 H   0  0  0  0  0  0  0  0  0  0  0  0
  149.5077  141.1756  157.6171 H   0  0  0  0  0  0  0  0  0  0  0  0
  150.8793  138.5907  156.8637 H   0  0  0  0  0  0  0  0  0  0  0  0
  152.5016  140.1736  156.8986 H   0  0  0  0  0  0  0  0  0  0  0  0
  149.5935  137.5043  155.2374 H   0  0  0  0  0  0  0  0  0  0  0  0
  147.8673  137.5547  153.4563 H   0  0  0  0  0  0  0  0  0  0  0  0
  146.8941  139.7235  152.7216 H   0  0  0  0  0  0  0  0  0  0  0  0
  149.3775  141.8070  155.5543 H   0  0  0  0  0  0  0  0  0  0  0  0
  153.7623  141.1230  160.6420 H   0  0  0  0  0  0  0  0  0  0  0  0
  1  2  1  0  0  0  0
  1 27  1  0  0  0  0
  1 28  1  0  0  0  0
  1 29  1  0  0  0  0
  2  3  2  0  0  0  0
  2  4  1  0  0  0  0
  4  5  1  0  0  0  0
  4 30  1  0  0  0  0
  5 26  1  0  0  0  0
  5  6  1  0  0  0  0
  5  7  1  0  0  0  0
  6 31  1  0  0  0  0
  6 32  1  0  0  0  0
  6 33  1  0  0  0  0
  7 15  1  0  0  0  0
  7  8  2  0  0  0  0
  8  9  1  0  0  0  0
  8 46  1  0  0  0  0
  9 14  2  0  0  0  0
  9 10  1  0  0  0  0
 10 11  2  0  0  0  0
 10 34  1  0  0  0  0
 11 12  1  0  0  0  0
 11 35  1  0  0  0  0
 12 13  2  0  0  0  0
 12 36  1  0  0  0  0
 13 14  1  0  0  0  0
 13 37  1  0  0  0  0
 14 15  1  0  0  0  0
 15 16  1  0  0  0  0
 16 17  1  0  0  0  0
 16 38  1  0  0  0  0
 16 39  1  0  0  0  0
 17 18  1  0  0  0  0
 17 19  1  0  0  0  0
 17 40  1  0  0  0  0
 18 41  1  0  0  0  0
 19 25  1  0  0  0  0
 19 20  2  0  0  0  0
 20 21  1  0  0  0  0
 20 42  1  0  0  0  0
 21 22  2  0  0  0  0
 21 43  1  0  0  0  0
 22 23  1  0  0  0  0
 22 44  1  0  0  0  0
 23 24  1  0  0  0  0
 23 25  2  0  0  0  0
 25 45  1  0  0  0  0
M  CHG  1   8   1
M  END
> <s_m_source_file>
AV-unprocessed.smi

> <i_m_source_file_index>
1667

> <i_lp_mmshare_version>
43012

> <i_f3d_flags>
0

> <s_epik_input>
W0NIM11DKD1PKVtOSF1bQ0BASF0oW0NIM10pYyhuMSluKGMoYzEyKVtjSF1bY0hdW2NIXVtjSF0yKVtDSDJdW0NASF0oW09IXSljM1tjSF1bY0hdW2NIXWMoRilbY0hdMw==

> <s_epik_cmdline>
J2VwaWtfcHl0aG9uJywgJy1waCcsICc3LjAnLCAnLXRuJywgJzgnLCAnLW1hJywgJzIwMCcsICctbWV0YWxfYmluZGluZycsICctaW1hZScsICc8aW5maWxlLm1hZT4nLCAnLW9tYWUnLCAnPG91dGZpbGUubWFlPic=

> <r_epik_Ionization_Penalty>
0.950383

> <r_epik_Ionization_Penalty_Charging>
0.950379

> <r_epik_Ionization_Penalty_Neutral>
3.60962e-06

> <r_epik_State_Penalty>
0.994584

> <r_epik_Charging_Adjusted_Penalty>
1.94496

> <i_epik_Tot_Q>
1

> <i_epik_Tot_abs_Q>
1

> <r_epik_Metal_State_Penalty>
1.10485

> <b_epik_Metal_Only>
0

> <s_lp_Force_Field>
OPLS_2005

> <r_lp_Energy>
9.34024

> <b_lp_Chiralities_Consistent>
1

> <s_lp_Variant>
AV-unprocessed.smi:1667-6

> <Gold.Version>
5.8.1

> <Gold.Id.Protein>
6NUR|6NUR_protein|mol2

> <Gold.PLP.Fitness>
51.3775

> <Gold.PLP.PLP>
-47.4932

> <Gold.PLP.part.hbond>
-2.0000

> <Gold.PLP.part.metal>
0.0000

> <Gold.PLP.part.buried>
-5.7248

> <Gold.PLP.part.nonpolar>
-40.1376

> <Gold.PLP.part.repulsive>
0.1509

> <Gold.PLP.ligand.clash>
0.0000

> <Gold.PLP.ligand.torsion>
0.8045

> <Gold.PLP.Chemscore.Hbond>
1.7840

> <Gold.PLP.Chemscore.CHOScore>
0.0000

> <Gold.PLP.Chemscore.Metal>
0.0000

> <Gold.Chemscore.Hbonds>
donor molecule, donor type, donor heavy atom, donor atom, acceptor molecule, acceptor atom, score
      P1  H  6896  6908       L1     3  1.00

> <Gold.PLP.Chemscore.Internal.Correction>
0.1413

> <Gold.Rescore>
     Score         DG    S(hbond)    S(metal)    S(lipo)     H(rot)  DE(clash)    DE(int)     intcor
     18.33     -19.25       1.82        0.00     121.23       2.53       0.05       0.87       ----

> <Gold.Chemscore.Fitness>
18.3309

> <Gold.Chemscore.DG>
-19.2502

> <Gold.Chemscore.ZeroCoef>
-5.4800

> <Gold.Chemscore.Hbond>
1.8180

> <Gold.Chemscore.Metal>
0.0000

> <Gold.Chemscore.Lipo>
121.2284

> <Gold.Chemscore.Internal_Hbond>
0.0000

> <Gold.Chemscore.DEClash>
0.0486

> <Gold.Chemscore.DEInternal>
0.8707

> <Gold.Chemscore.Rot>
2.5335

> <Gold.Chemscore.Internal.Correction>
   9.000000E+99

> <Gold.Chemscore.Hbonds>
donor molecule, donor type, donor heavy atom, donor atom, acceptor molecule, acceptor atom, score
      P1  H  6896  6908       L1     3  0.99

> <Gold.Chemscore.Hbond.Weighted>
-6.0721

> <Gold.Chemscore.Metal.Weighted>
-0.0000

> <Gold.Chemscore.Lipo.Weighted>
-14.1837

> <Gold.Chemscore.Internal_Hbond.Weighted>
0.0000

> <Gold.Chemscore.DEClash.Weighted>
0.0486

> <Gold.Chemscore.DEInternal.Weighted>
0.8707

> <Gold.Chemscore.Rot.Weighted>
6.4856

> <Gold.Chemscore.Internal.Correction.Weighted>
   9.000000E+99

> <Gold.Protein.RotatedTorsions>
[ 6907 6896 6895 6894 ] final  -77.66 input  -60.11 | X-H torsion
[ 7974 7965 7964 7962 ] final   80.15 input  175.53 | X-H torsion
[ 8008 7997 7996 7995 ] final -121.10 input   59.86 | X-H torsion
[ 10167 10162 10161 10158 ] final -159.78 input  -65.29 | X-H torsion
[ 10718 10713 10712 10709 ] final  167.25 input   66.30 | X-H torsion
[ 10763 10752 10751 10750 ] final  -10.26 input  -60.55 | X-H torsion
[ 11005 11000 10999 10996 ] final -128.13 input  -57.11 | X-H torsion

> <Gold.Protein.ActiveResidues>
 VAL166  LYS551  ARG553  GLY616  TRP617  ASP618  TYR619  PRO620  LYS621  CYS622 
 ASP623  PHE694  ASN695  SER759  ASP760  ASP761  ALA762  ILE779  LEU786  VAL792 
 PHE793  MET794  SER795  GLU796  ALA797  LYS798  CYS799  TRP800  GLU811  SER814 

> <Gold.Protein.RotatedAtoms>
  150.6993  134.4390  159.5282 H   0  0  0  0  0  0  0  0  0  0  0  0  # atno 6907 bound_to 6896
  152.2103  134.8505  160.0507 H   0  0  0  0  0  0  0  0  0  0  0  0  # atno 6908 bound_to 6896
  151.9392  133.3598  159.3996 H   0  0  0  0  0  0  0  0  0  0  0  0  # atno 6909 bound_to 6896
  145.6550  139.2457  143.1955 H   0  0  0  0  0  0  0  0  0  0  0  0  # atno 7974 bound_to 7965
  155.1426  140.0402  157.2802 H   0  0  0  0  0  0  0  0  0  0  0  0  # atno 8008 bound_to 7997
  154.6462  140.2558  155.7239 H   0  0  0  0  0  0  0  0  0  0  0  0  # atno 8009 bound_to 7997
  156.2556  140.2845  156.0876 H   0  0  0  0  0  0  0  0  0  0  0  0  # atno 8010 bound_to 7997
  139.6589  143.9948  152.2212 H   0  0  0  0  0  0  0  0  0  0  0  0  # atno 10167 bound_to 10162
  157.0543  131.0322  151.2670 H   0  0  0  0  0  0  0  0  0  0  0  0  # atno 10718 bound_to 10713
  153.4666  135.7016  153.6018 H   0  0  0  0  0  0  0  0  0  0  0  0  # atno 10763 bound_to 10752
  153.4290  135.3807  155.2159 H   0  0  0  0  0  0  0  0  0  0  0  0  # atno 10764 bound_to 10752
  154.8726  135.3946  154.4098 H   0  0  0  0  0  0  0  0  0  0  0  0  # atno 10765 bound_to 10752
  140.9542  134.1024  157.4032 H   0  0  0  0  0  0  0  0  0  0  0  0  # atno 11005 bound_to 11000
  146.1173  140.7354  142.9474 LP  0  0  0  0  0  0  0  0  0  0  0  0  # atno 17320 bound_to 7965
  144.7109  140.4035  143.7081 LP  0  0  0  0  0  0  0  0  0  0  0  0  # atno 17321 bound_to 7965
  139.9682  144.6512  150.8014 LP  0  0  0  0  0  0  0  0  0  0  0  0  # atno 17342 bound_to 10162
  140.7571  143.3080  151.2914 LP  0  0  0  0  0  0  0  0  0  0  0  0  # atno 17343 bound_to 10162
  157.5005  130.7877  149.7600 LP  0  0  0  0  0  0  0  0  0  0  0  0  # atno 17370 bound_to 10713
  155.9998  130.3887  150.2651 LP  0  0  0  0  0  0  0  0  0  0  0  0  # atno 17371 bound_to 10713
  139.8857  135.0075  156.6451 LP  0  0  0  0  0  0  0  0  0  0  0  0  # atno 17394 bound_to 11000
  140.7559  133.8858  155.8382 LP  0  0  0  0  0  0  0  0  0  0  0  0  # atno 17395 bound_to 11000

$$$$
