AV-unprocessed.smi:1179|AV-procd|sdf|4959|dock2
  -GOLD-   22720 3553D 1   1.00000     0.00000
 Structure written by MMmdl.
 47 48  0  0  0  0  0  0  0  0  2 V2000
  153.0042  139.6186  160.0106 C   0  0  0  0  0  0  0  0  0  0  0  0
  152.4309  140.8342  159.3437 C   0  0  0  0  0  0  0  0  0  0  0  0
  152.5920  142.1999  159.7098 C   0  0  0  0  0  0  0  0  0  0  0  0
  151.8665  142.8875  158.7780 C   0  0  0  0  0  0  0  0  0  0  0  0
  151.6430  144.3559  158.6220 C   0  0  0  0  0  0  0  0  0  0  0  0
  151.3190  141.9479  157.9226 N   0  0  0  0  0  0  0  0  0  0  0  0
  150.4686  142.1498  156.7594 C   0  0  0  0  0  0  0  0  0  0  0  0
  150.3210  140.8629  155.9455 C   0  0  0  0  0  0  0  0  0  0  0  0
  151.3198  140.2928  155.5066 O   0  0  0  0  0  0  0  0  0  0  0  0
  149.0706  140.4163  155.7481 N   0  0  0  0  0  0  0  0  0  0  0  0
  148.7197  139.2167  154.9987 C   0  0  0  0  0  0  0  0  0  0  0  0
  147.8354  139.5475  153.7803 C   0  0  0  0  0  0  0  0  0  0  0  0
  147.2245  138.3350  153.1793 N   0  3  2  0  0  0  0  0  0  0  0  0
  146.4108  138.6521  151.9773 C   0  0  0  0  0  0  0  0  0  0  0  0
  145.9094  137.3698  151.2887 C   0  0  0  0  0  0  0  0  0  0  0  0
  145.1217  136.4605  152.2493 C   0  0  2  0  0  0  0  0  0  0  0  0
  143.7144  136.9991  152.5609 C   0  0  0  0  0  0  0  0  0  0  0  0
  145.9572  136.2100  153.5179 C   0  0  0  0  0  0  0  0  0  0  0  0
  146.4554  137.5190  154.1565 C   0  0  0  0  0  0  0  0  0  0  0  0
  151.6698  140.6903  158.2714 N   0  0  0  0  0  0  0  0  0  0  0  0
  153.5140  139.8809  160.9378 H   0  0  0  0  0  0  0  0  0  0  0  0
  153.7271  139.1210  159.3638 H   0  0  0  0  0  0  0  0  0  0  0  0
  152.2232  138.8982  160.2552 H   0  0  0  0  0  0  0  0  0  0  0  0
  153.1550  142.6124  160.5339 H   0  0  0  0  0  0  0  0  0  0  0  0
  152.1678  144.9144  159.3974 H   0  0  0  0  0  0  0  0  0  0  0  0
  150.5825  144.5976  158.6953 H   0  0  0  0  0  0  0  0  0  0  0  0
  152.0055  144.7044  157.6549 H   0  0  0  0  0  0  0  0  0  0  0  0
  149.4858  142.4975  157.0821 H   0  0  0  0  0  0  0  0  0  0  0  0
  150.8951  142.9395  156.1398 H   0  0  0  0  0  0  0  0  0  0  0  0
  148.3105  140.9489  156.1480 H   0  0  0  0  0  0  0  0  0  0  0  0
  149.6442  138.7425  154.6684 H   0  0  0  0  0  0  0  0  0  0  0  0
  148.2316  138.5106  155.6708 H   0  0  0  0  0  0  0  0  0  0  0  0
  147.0504  140.2586  154.0425 H   0  0  0  0  0  0  0  0  0  0  0  0
  148.4613  140.0428  153.0363 H   0  0  0  0  0  0  0  0  0  0  0  0
  145.5722  139.2904  152.2586 H   0  0  0  0  0  0  0  0  0  0  0  0
  147.0123  139.2206  151.2669 H   0  0  0  0  0  0  0  0  0  0  0  0
  145.2979  137.6237  150.4220 H   0  0  0  0  0  0  0  0  0  0  0  0
  146.7679  136.8197  150.9009 H   0  0  0  0  0  0  0  0  0  0  0  0
  144.9799  135.4994  151.7527 H   0  0  0  0  0  0  0  0  0  0  0  0
  143.7445  137.9668  153.0605 H   0  0  0  0  0  0  0  0  0  0  0  0
  143.1685  136.3116  153.2076 H   0  0  0  0  0  0  0  0  0  0  0  0
  143.1316  137.1180  151.6472 H   0  0  0  0  0  0  0  0  0  0  0  0
  145.3797  135.6353  154.2432 H   0  0  0  0  0  0  0  0  0  0  0  0
  146.8186  135.5916  153.2614 H   0  0  0  0  0  0  0  0  0  0  0  0
  147.0770  137.2703  155.0153 H   0  0  0  0  0  0  0  0  0  0  0  0
  145.6159  138.1004  154.5403 H   0  0  0  0  0  0  0  0  0  0  0  0
  147.9899  137.7620  152.8543 H   0  0  0  0  0  0  0  0  0  0  0  0
  1  2  1  0  0  0  0
  1 21  1  0  0  0  0
  1 22  1  0  0  0  0
  1 23  1  0  0  0  0
  2 20  2  0  0  0  0
  2  3  1  0  0  0  0
  3  4  2  0  0  0  0
  3 24  1  0  0  0  0
  4  5  1  0  0  0  0
  4  6  1  0  0  0  0
  5 25  1  0  0  0  0
  5 26  1  0  0  0  0
  5 27  1  0  0  0  0
  6  7  1  0  0  0  0
  6 20  1  0  0  0  0
  7  8  1  0  0  0  0
  7 28  1  0  0  0  0
  7 29  1  0  0  0  0
  8  9  2  0  0  0  0
  8 10  1  0  0  0  0
 10 11  1  0  0  0  0
 10 30  1  0  0  0  0
 11 12  1  0  0  0  0
 11 31  1  0  0  0  0
 11 32  1  0  0  0  0
 12 13  1  0  0  0  0
 12 33  1  0  0  0  0
 12 34  1  0  0  0  0
 13 19  1  0  0  0  0
 13 14  1  0  0  0  0
 13 47  1  0  0  0  0
 14 15  1  0  0  0  0
 14 35  1  0  0  0  0
 14 36  1  0  0  0  0
 15 16  1  0  0  0  0
 15 37  1  0  0  0  0
 15 38  1  0  0  0  0
 16 17  1  0  0  0  0
 16 18  1  0  0  0  0
 16 39  1  0  0  0  0
 17 40  1  0  0  0  0
 17 41  1  0  0  0  0
 17 42  1  0  0  0  0
 18 19  1  0  0  0  0
 18 43  1  0  0  0  0
 18 44  1  0  0  0  0
 19 45  1  0  0  0  0
 19 46  1  0  0  0  0
M  CHG  1  13   1
M  END
> <s_m_source_file>
AV-unprocessed.smi

> <i_m_source_file_index>
1179

> <i_lp_mmshare_version>
43012

> <i_f3d_flags>
0

> <s_epik_input>
W0NIM11jMVtjSF1jKFtDSDNdKW4objEpW0NIMl1DKD1PKVtOSF1bQ0gyXVtDSDJdTjJbQ0gyXVtDSDJdW0NIXShbQ0gzXSlbQ0gyXVtDSDJdMg==

> <s_epik_cmdline>
J2VwaWtfcHl0aG9uJywgJy1waCcsICc3LjAnLCAnLXRuJywgJzgnLCAnLW1hJywgJzIwMCcsICctbWV0YWxfYmluZGluZycsICctaW1hZScsICc8aW5maWxlLm1hZT4nLCAnLW9tYWUnLCAnPG91dGZpbGUubWFlPic=

> <r_lp_tautomer_probability>
1

> <r_epik_Ionization_Penalty>
0.00206343

> <r_epik_Ionization_Penalty_Charging>
0.00187095

> <r_epik_Ionization_Penalty_Neutral>
0.000192474

> <r_epik_State_Penalty>
-0

> <r_epik_Charging_Adjusted_Penalty>
0.00187095

> <i_epik_Tot_Q>
1

> <i_epik_Tot_abs_Q>
1

> <r_epik_Metal_State_Penalty>
-0

> <b_epik_Metal_Only>
0

> <s_lp_Force_Field>
OPLS_2005

> <r_lp_Energy>
16.047

> <b_lp_Chiralities_Consistent>
1

> <s_lp_Variant>
AV-unprocessed.smi:1179-2

> <Gold.Version>
5.8.1

> <Gold.Id.Protein>
6NUR|6NUR_protein|mol2

> <Gold.PLP.Fitness>
45.9849

> <Gold.PLP.PLP>
-37.6958

> <Gold.PLP.part.hbond>
-2.0000

> <Gold.PLP.part.metal>
0.0000

> <Gold.PLP.part.buried>
1.4058

> <Gold.PLP.part.nonpolar>
-37.2038

> <Gold.PLP.part.repulsive>
0.1235

> <Gold.PLP.ligand.clash>
0.0000

> <Gold.PLP.ligand.torsion>
0.1686

> <Gold.PLP.Chemscore.Hbond>
2.8640

> <Gold.PLP.Chemscore.CHOScore>
0.0000

> <Gold.PLP.Chemscore.Metal>
0.0000

> <Gold.Chemscore.Hbonds>
donor molecule, donor type, donor heavy atom, donor atom, acceptor molecule, acceptor atom, score
      L1  H    13    47       P1  7948  1.89
      P1  H  7989  7998       L1     9  0.78

> <Gold.PLP.Chemscore.Internal.Correction>
0.0344

> <Gold.Rescore>
     Score         DG    S(hbond)    S(metal)    S(lipo)     H(rot)  DE(clash)    DE(int)     intcor
     15.34     -17.53       1.52        0.00      96.01       1.67       0.68       1.52       ----

> <Gold.Chemscore.Fitness>
15.3425

> <Gold.Chemscore.DG>
-17.5346

> <Gold.Chemscore.ZeroCoef>
-5.4800

> <Gold.Chemscore.Hbond>
1.5227

> <Gold.Chemscore.Metal>
0.0000

> <Gold.Chemscore.Lipo>
96.0077

> <Gold.Chemscore.Internal_Hbond>
0.0000

> <Gold.Chemscore.DEClash>
0.6762

> <Gold.Chemscore.DEInternal>
1.5159

> <Gold.Chemscore.Rot>
1.6657

> <Gold.Chemscore.Internal.Correction>
   9.000000E+99

> <Gold.Chemscore.Hbonds>
donor molecule, donor type, donor heavy atom, donor atom, acceptor molecule, acceptor atom, score
      L1  H    13    47       P1  7948  0.89
      P1  H  7989  7998       L1     9  0.55

> <Gold.Chemscore.Hbond.Weighted>
-5.0858

> <Gold.Chemscore.Metal.Weighted>
-0.0000

> <Gold.Chemscore.Lipo.Weighted>
-11.2329

> <Gold.Chemscore.Internal_Hbond.Weighted>
0.0000

> <Gold.Chemscore.DEClash.Weighted>
0.6762

> <Gold.Chemscore.DEInternal.Weighted>
1.5159

> <Gold.Chemscore.Rot.Weighted>
4.2641

> <Gold.Chemscore.Internal.Correction.Weighted>
   9.000000E+99

> <Gold.Protein.RotatedTorsions>
[ 6907 6896 6895 6894 ] final   39.06 input  -60.11 | X-H torsion
[ 7974 7965 7964 7962 ] final -122.17 input  175.53 | X-H torsion
[ 8008 7997 7996 7995 ] final  -39.70 input   59.86 | X-H torsion
[ 10167 10162 10161 10158 ] final  -35.97 input  -65.29 | X-H torsion
[ 10718 10713 10712 10709 ] final -164.77 input   66.30 | X-H torsion
[ 10763 10752 10751 10750 ] final  121.41 input  -60.55 | X-H torsion
[ 11005 11000 10999 10996 ] final -120.37 input  -57.11 | X-H torsion

> <Gold.Protein.ActiveResidues>
 VAL166  LYS551  ARG553  GLY616  TRP617  ASP618  TYR619  PRO620  LYS621  CYS622 
 ASP623  PHE694  ASN695  SER759  ASP760  ASP761  ALA762  ILE779  LEU786  VAL792 
 PHE793  MET794  SER795  GLU796  ALA797  LYS798  CYS799  TRP800  GLU811  SER814 

> <Gold.Protein.RotatedAtoms>
  152.1647  134.8884  160.0538 H   0  0  0  0  0  0  0  0  0  0  0  0  # atno 6907 bound_to 6896
  151.9866  133.3771  159.4136 H   0  0  0  0  0  0  0  0  0  0  0  0  # atno 6908 bound_to 6896
  150.6893  134.3904  159.5117 H   0  0  0  0  0  0  0  0  0  0  0  0  # atno 6909 bound_to 6896
  145.0323  140.8078  143.4316 H   0  0  0  0  0  0  0  0  0  0  0  0  # atno 7974 bound_to 7965
  154.4020  140.1544  156.2906 H   0  0  0  0  0  0  0  0  0  0  0  0  # atno 8008 bound_to 7997
  155.8788  140.3445  155.5851 H   0  0  0  0  0  0  0  0  0  0  0  0  # atno 8009 bound_to 7997
  155.7690  140.0828  157.2108 H   0  0  0  0  0  0  0  0  0  0  0  0  # atno 8010 bound_to 7997
  140.7153  143.3441  151.2295 H   0  0  0  0  0  0  0  0  0  0  0  0  # atno 10167 bound_to 10162
  156.6439  130.8980  151.3001 H   0  0  0  0  0  0  0  0  0  0  0  0  # atno 10718 bound_to 10713
  153.6136  135.3426  155.2987 H   0  0  0  0  0  0  0  0  0  0  0  0  # atno 10763 bound_to 10752
  154.8614  135.4256  154.2283 H   0  0  0  0  0  0  0  0  0  0  0  0  # atno 10764 bound_to 10752
  153.3139  135.7033  153.7163 H   0  0  0  0  0  0  0  0  0  0  0  0  # atno 10765 bound_to 10752
  141.0149  134.0211  157.3364 H   0  0  0  0  0  0  0  0  0  0  0  0  # atno 11005 bound_to 11000
  145.1754  139.2381  143.5320 LP  0  0  0  0  0  0  0  0  0  0  0  0  # atno 17320 bound_to 7965
  146.3500  140.1516  142.8592 LP  0  0  0  0  0  0  0  0  0  0  0  0  # atno 17321 bound_to 7965
  139.6955  143.9620  152.2880 LP  0  0  0  0  0  0  0  0  0  0  0  0  # atno 17342 bound_to 10162
  139.9295  144.6750  150.8377 LP  0  0  0  0  0  0  0  0  0  0  0  0  # atno 17343 bound_to 10162
  157.7162  130.9501  150.1266 LP  0  0  0  0  0  0  0  0  0  0  0  0  # atno 17370 bound_to 10713
  156.2137  130.3668  149.8639 LP  0  0  0  0  0  0  0  0  0  0  0  0  # atno 17371 bound_to 10713
  139.9111  135.0190  156.7694 LP  0  0  0  0  0  0  0  0  0  0  0  0  # atno 17394 bound_to 11000
  140.6672  133.9592  155.7837 LP  0  0  0  0  0  0  0  0  0  0  0  0  # atno 17395 bound_to 11000

$$$$
