AV-unprocessed.smi:184|AV-procd|sdf|1461|dock9
  -GOLD-   2262019273D 1   1.00000     0.00000
 Structure written by MMmdl.
 54 58  0  0  0  0  0  0  0  0  1 V2000
  143.6015  132.1855  148.6057 O   0  0  0  0  0  0  0  0  0  0  0  0
  143.9037  132.4289  149.7715 C   0  0  0  0  0  0  0  0  0  0  0  0
  144.8433  131.4705  150.5260 C   0  0  0  0  0  0  0  0  0  0  0  0
  145.0568  131.8237  151.9395 N   0  0  0  0  0  0  0  0  0  0  0  0
  145.8237  130.9963  152.6961 C   0  0  0  0  0  0  0  0  0  0  0  0
  146.2560  131.4141  153.9156 N   0  0  0  0  0  0  0  0  0  0  0  0
  147.0041  130.6133  154.6794 C   0  0  0  0  0  0  0  0  0  0  0  0
  147.4343  129.3777  154.4204 N   0  0  0  0  0  0  0  0  0  0  0  0
  147.0146  128.9545  153.1944 C   0  0  0  0  0  0  0  0  0  0  0  0
  146.2158  129.6930  152.2754 C   0  0  0  0  0  0  0  0  0  0  0  0
  146.0102  128.9426  151.1232 N   0  0  0  0  0  0  0  0  0  0  0  0
  146.6362  127.8214  151.3549 C   0  0  0  0  0  0  0  0  0  0  0  0
  147.2610  127.7394  152.5788 N   0  0  0  0  0  0  0  0  0  0  0  0
  148.0292  126.6138  153.0910 C   0  0  0  0  0  0  0  0  0  0  0  0
  149.2660  126.2445  152.2268 C   0  0  0  0  0  0  0  0  0  0  0  0
  150.1687  127.3338  152.2866 O   0  0  0  0  0  0  0  0  0  0  0  0
  150.0028  125.0092  152.7822 C   0  0  0  0  0  0  0  0  0  0  0  0
  149.2415  123.7067  152.4747 C   0  0  0  0  0  0  0  0  0  0  0  0
  149.0232  123.5892  151.0729 O   0  0  0  0  0  0  0  0  0  0  0  0
  148.2256  124.6423  150.5431 C   0  0  0  0  0  0  0  0  0  0  0  0
  148.9417  125.9902  150.7388 C   0  0  0  0  0  0  0  0  0  0  0  0
  145.0349  133.2412  152.3059 C   0  0  1  0  0  0  0  0  0  0  0  0
  146.2787  133.9846  151.7597 C   0  0  0  0  0  0  0  0  0  0  0  0
  146.2041  135.4949  152.0265 C   0  0  0  0  0  0  0  0  0  0  0  0
  144.9160  136.0925  151.4417 C   0  0  0  0  0  0  0  0  0  0  0  0
  143.6771  135.3901  152.0195 C   0  0  0  0  0  0  0  0  0  0  0  0
  143.7130  133.8651  151.7988 C   0  0  1  0  0  0  0  0  0  0  0  0
  143.4467  133.5246  150.4012 N   0  0  0  0  0  0  0  0  0  0  0  0
  144.4293  130.4630  150.4663 H   0  0  0  0  0  0  0  0  0  0  0  0
  145.7959  131.4606  149.9945 H   0  0  0  0  0  0  0  0  0  0  0  0
  147.3000  131.0203  155.6350 H   0  0  0  0  0  0  0  0  0  0  0  0
  146.6585  127.0161  150.6351 H   0  0  0  0  0  0  0  0  0  0  0  0
  148.3424  126.8573  154.1075 H   0  0  0  0  0  0  0  0  0  0  0  0
  147.3548  125.7632  153.1855 H   0  0  0  0  0  0  0  0  0  0  0  0
  150.9785  127.0753  151.8736 H   0  0  0  0  0  0  0  0  0  0  0  0
  150.9932  124.9378  152.3296 H   0  0  0  0  0  0  0  0  0  0  0  0
  150.1649  125.1076  153.8562 H   0  0  0  0  0  0  0  0  0  0  0  0
  149.8245  122.8485  152.8087 H   0  0  0  0  0  0  0  0  0  0  0  0
  148.2911  123.6642  153.0074 H   0  0  0  0  0  0  0  0  0  0  0  0
  148.0642  124.4580  149.4810 H   0  0  0  0  0  0  0  0  0  0  0  0
  147.2432  124.6392  151.0155 H   0  0  0  0  0  0  0  0  0  0  0  0
  148.3504  126.8013  150.3138 H   0  0  0  0  0  0  0  0  0  0  0  0
  149.8684  125.9658  150.1633 H   0  0  0  0  0  0  0  0  0  0  0  0
  145.0438  133.3549  153.3891 H   0  0  0  0  0  0  0  0  0  0  0  0
  147.1838  133.5780  152.2123 H   0  0  0  0  0  0  0  0  0  0  0  0
  146.3792  133.8244  150.6858 H   0  0  0  0  0  0  0  0  0  0  0  0
  146.2426  135.6808  153.1005 H   0  0  0  0  0  0  0  0  0  0  0  0
  147.0735  135.9910  151.5943 H   0  0  0  0  0  0  0  0  0  0  0  0
  144.8708  137.1602  151.6572 H   0  0  0  0  0  0  0  0  0  0  0  0
  144.9249  135.9967  150.3551 H   0  0  0  0  0  0  0  0  0  0  0  0
  143.6230  135.5936  153.0898 H   0  0  0  0  0  0  0  0  0  0  0  0
  142.7704  135.8134  151.5859 H   0  0  0  0  0  0  0  0  0  0  0  0
  142.8914  133.4274  152.3681 H   0  0  0  0  0  0  0  0  0  0  0  0
  142.8455  134.1497  149.8841 H   0  0  0  0  0  0  0  0  0  0  0  0
  1  2  2  0  0  0  0
  2 28  1  0  0  0  0
  2  3  1  0  0  0  0
  3  4  1  0  0  0  0
  3 29  1  0  0  0  0
  3 30  1  0  0  0  0
  4  5  1  0  0  0  0
  4 22  1  0  0  0  0
  5 10  1  0  0  0  0
  5  6  2  0  0  0  0
  6  7  1  0  0  0  0
  7  8  2  0  0  0  0
  7 31  1  0  0  0  0
  8  9  1  0  0  0  0
  9 13  1  0  0  0  0
  9 10  2  0  0  0  0
 10 11  1  0  0  0  0
 11 12  2  0  0  0  0
 12 13  1  0  0  0  0
 12 32  1  0  0  0  0
 13 14  1  0  0  0  0
 14 15  1  0  0  0  0
 14 33  1  0  0  0  0
 14 34  1  0  0  0  0
 15 21  1  0  0  0  0
 15 16  1  0  0  0  0
 15 17  1  0  0  0  0
 16 35  1  0  0  0  0
 17 18  1  0  0  0  0
 17 36  1  0  0  0  0
 17 37  1  0  0  0  0
 18 19  1  0  0  0  0
 18 38  1  0  0  0  0
 18 39  1  0  0  0  0
 19 20  1  0  0  0  0
 20 21  1  0  0  0  0
 20 40  1  0  0  0  0
 20 41  1  0  0  0  0
 21 42  1  0  0  0  0
 21 43  1  0  0  0  0
 22 27  1  0  0  0  0
 22 23  1  0  0  0  0
 22 44  1  0  0  0  0
 23 24  1  0  0  0  0
 23 45  1  0  0  0  0
 23 46  1  0  0  0  0
 24 25  1  0  0  0  0
 24 47  1  0  0  0  0
 24 48  1  0  0  0  0
 25 26  1  0  0  0  0
 25 49  1  0  0  0  0
 25 50  1  0  0  0  0
 26 27  1  0  0  0  0
 26 51  1  0  0  0  0
 26 52  1  0  0  0  0
 27 28  1  0  0  0  0
 27 53  1  0  0  0  0
 28 54  1  0  0  0  0
M  END
> <s_m_source_file>
AV-unprocessed.smi

> <i_m_source_file_index>
184

> <i_lp_mmshare_version>
43012

> <i_f3d_flags>
0

> <s_epik_input>
W0NIMl0xW0NIMl1bQ0gyXVtDSDJdW0NASF0oW0NASF0xMilbTkhdQyg9TylbQ0gyXU4yYyhuW2NIXW4zKWMoYzM0KW5bY0hdbjRbQ0gyXUM1KFtPSF0pW0NIMl1bQ0gyXU9bQ0gyXVtDSDJdNQ==

> <s_epik_cmdline>
J2VwaWtfcHl0aG9uJywgJy1waCcsICc3LjAnLCAnLXRuJywgJzgnLCAnLW1hJywgJzIwMCcsICctbWV0YWxfYmluZGluZycsICctaW1hZScsICc8aW5maWxlLm1hZT4nLCAnLW9tYWUnLCAnPG91dGZpbGUubWFlPic=

> <r_lp_tautomer_probability>
1

> <r_epik_Ionization_Penalty>
0.000822761

> <r_epik_Ionization_Penalty_Charging>
0

> <r_epik_Ionization_Penalty_Neutral>
0.000822761

> <r_epik_State_Penalty>
0.000403048

> <r_epik_Charging_Adjusted_Penalty>
0.000403048

> <i_epik_Tot_Q>
0

> <i_epik_Tot_abs_Q>
0

> <r_epik_Metal_State_Penalty>
-0

> <b_epik_Metal_Only>
0

> <s_lp_Force_Field>
OPLS_2005

> <r_lp_Energy>
37.4229

> <b_lp_Chiralities_Consistent>
1

> <s_lp_Variant>
AV-unprocessed.smi:184-1

> <Gold.Version>
5.8.1

> <Gold.Id.Protein>
6NUR|6NUR_protein|mol2

> <Gold.PLP.Fitness>
43.3924

> <Gold.PLP.PLP>
-37.8620

> <Gold.PLP.part.hbond>
-0.5800

> <Gold.PLP.part.metal>
0.0000

> <Gold.PLP.part.buried>
-2.2285

> <Gold.PLP.part.nonpolar>
-35.3940

> <Gold.PLP.part.repulsive>
0.6264

> <Gold.PLP.ligand.clash>
0.0000

> <Gold.PLP.ligand.torsion>
0.1133

> <Gold.PLP.Chemscore.Hbond>
1.8548

> <Gold.PLP.Chemscore.CHOScore>
0.0000

> <Gold.PLP.Chemscore.Metal>
0.0000

> <Gold.Chemscore.Hbonds>
donor molecule, donor type, donor heavy atom, donor atom, acceptor molecule, acceptor atom, score
      L1  H    16    35       P1 10737  0.17
      L1  H    28    54       P1 10186  0.80
      P1  H 10785 10796       L1     1  0.63

> <Gold.PLP.Chemscore.Internal.Correction>
0.1925

> <Gold.Rescore>
     Score         DG    S(hbond)    S(metal)    S(lipo)     H(rot)  DE(clash)    DE(int)     intcor
     14.77     -17.25       2.57        0.00      67.05       1.83       0.34       2.14       ----

> <Gold.Chemscore.Fitness>
14.7684

> <Gold.Chemscore.DG>
-17.2505

> <Gold.Chemscore.ZeroCoef>
-5.4800

> <Gold.Chemscore.Hbond>
2.5746

> <Gold.Chemscore.Metal>
0.0000

> <Gold.Chemscore.Lipo>
67.0462

> <Gold.Chemscore.Internal_Hbond>
0.0000

> <Gold.Chemscore.DEClash>
0.3442

> <Gold.Chemscore.DEInternal>
2.1378

> <Gold.Chemscore.Rot>
1.8255

> <Gold.Chemscore.Internal.Correction>
   9.000000E+99

> <Gold.Chemscore.Hbonds>
donor molecule, donor type, donor heavy atom, donor atom, acceptor molecule, acceptor atom, score
      L1  H    16    35       P1 10737  0.17
      L1  H    28    54       P1 10186  0.79
      P1  H 10785 10796       L1     1  0.18

> <Gold.Chemscore.Hbond.Weighted>
-8.5993

> <Gold.Chemscore.Metal.Weighted>
-0.0000

> <Gold.Chemscore.Lipo.Weighted>
-7.8444

> <Gold.Chemscore.Internal_Hbond.Weighted>
0.0000

> <Gold.Chemscore.DEClash.Weighted>
0.3442

> <Gold.Chemscore.DEInternal.Weighted>
2.1378

> <Gold.Chemscore.Rot.Weighted>
4.6732

> <Gold.Chemscore.Internal.Correction.Weighted>
   9.000000E+99

> <Gold.Protein.RotatedTorsions>
[ 6907 6896 6895 6894 ] final -179.97 input  -60.11 | X-H torsion
[ 7974 7965 7964 7962 ] final  112.48 input  175.53 | X-H torsion
[ 8008 7997 7996 7995 ] final  -68.56 input   59.86 | X-H torsion
[ 10167 10162 10161 10158 ] final  139.50 input  -65.29 | X-H torsion
[ 10718 10713 10712 10709 ] final   53.21 input   66.30 | X-H torsion
[ 10763 10752 10751 10750 ] final  133.99 input  -60.55 | X-H torsion
[ 11005 11000 10999 10996 ] final   20.50 input  -57.11 | X-H torsion

> <Gold.Protein.ActiveResidues>
 VAL166  LYS551  ARG553  GLY616  TRP617  ASP618  TYR619  PRO620  LYS621  CYS622 
 ASP623  PHE694  ASN695  SER759  ASP760  ASP761  ALA762  ILE779  LEU786  VAL792 
 PHE793  MET794  SER795  GLU796  ALA797  LYS798  CYS799  TRP800  GLU811  SER814 

> <Gold.Protein.RotatedAtoms>
  151.6620  133.3316  159.3176 H   0  0  0  0  0  0  0  0  0  0  0  0  # atno 6907 bound_to 6896
  150.7909  134.6935  159.6519 H   0  0  0  0  0  0  0  0  0  0  0  0  # atno 6908 bound_to 6896
  152.3988  134.6325  160.0130 H   0  0  0  0  0  0  0  0  0  0  0  0  # atno 6909 bound_to 6896
  145.2290  139.2828  143.4178 H   0  0  0  0  0  0  0  0  0  0  0  0  # atno 7974 bound_to 7965
  154.4876  140.0870  156.7523 H   0  0  0  0  0  0  0  0  0  0  0  0  # atno 8008 bound_to 7997
  155.4310  140.3450  155.4262 H   0  0  0  0  0  0  0  0  0  0  0  0  # atno 8009 bound_to 7997
  156.1284  140.1494  156.9089 H   0  0  0  0  0  0  0  0  0  0  0  0  # atno 8010 bound_to 7997
  139.5077  144.6291  151.5863 H   0  0  0  0  0  0  0  0  0  0  0  0  # atno 10167 bound_to 10162
  157.5146  130.8524  149.8479 H   0  0  0  0  0  0  0  0  0  0  0  0  # atno 10718 bound_to 10713
  153.8161  135.3122  155.3406 H   0  0  0  0  0  0  0  0  0  0  0  0  # atno 10763 bound_to 10752
  154.8031  135.4714  154.0329 H   0  0  0  0  0  0  0  0  0  0  0  0  # atno 10764 bound_to 10752
  153.1722  135.6880  153.8681 H   0  0  0  0  0  0  0  0  0  0  0  0  # atno 10765 bound_to 10752
  140.4020  134.1709  155.7664 H   0  0  0  0  0  0  0  0  0  0  0  0  # atno 11005 bound_to 11000
  146.3358  140.2619  142.8602 LP  0  0  0  0  0  0  0  0  0  0  0  0  # atno 17320 bound_to 7965
  144.9694  140.8354  143.5464 LP  0  0  0  0  0  0  0  0  0  0  0  0  # atno 17321 bound_to 7965
  140.6017  143.9597  150.6391 LP  0  0  0  0  0  0  0  0  0  0  0  0  # atno 17342 bound_to 10162
  140.2811  143.3389  152.1150 LP  0  0  0  0  0  0  0  0  0  0  0  0  # atno 17343 bound_to 10162
  156.0312  130.3764  150.1684 LP  0  0  0  0  0  0  0  0  0  0  0  0  # atno 17370 bound_to 10713
  156.9873  130.9882  151.3423 LP  0  0  0  0  0  0  0  0  0  0  0  0  # atno 17371 bound_to 10713
  141.1853  133.8325  157.1108 LP  0  0  0  0  0  0  0  0  0  0  0  0  # atno 17394 bound_to 11000
  140.0330  134.9892  157.0816 LP  0  0  0  0  0  0  0  0  0  0  0  0  # atno 17395 bound_to 11000

$$$$
