AV-unprocessed.smi:2151|AV-procd|sdf|8759|dock8
  -GOLD-   2272011533D 1   1.00000     0.00000
 Structure written by MMmdl.
 39 40  0  0  0  0  0  0  0  0  1 V2000
  148.9271  134.4273  155.9465 C   0  0  0  0  0  0  0  0  0  0  0  0
  148.5448  135.9115  155.8532 C   0  0  1  0  0  0  0  0  0  0  0  0
  147.9075  136.3160  157.1054 N   0  0  0  0  0  0  0  0  0  0  0  0
  148.4850  136.3320  158.3168 C   0  0  0  0  0  0  0  0  0  0  0  0
  149.6482  135.9813  158.5196 O   0  0  0  0  0  0  0  0  0  0  0  0
  147.5918  136.7961  159.4761 C   0  0  0  0  0  0  0  0  0  0  0  0
  147.4295  135.7804  160.5298 N   0  0  0  0  0  0  0  0  0  0  0  0
  147.0591  134.4843  160.1204 C   0  0  0  0  0  0  0  0  0  0  0  0
  146.8679  133.4690  160.9844 C   0  0  0  0  0  0  0  0  0  0  0  0
  146.5268  132.0667  160.5043 C   0  0  0  0  0  0  0  0  0  0  0  0
  146.4859  131.2052  161.5212 F   0  0  0  0  0  0  0  0  0  0  0  0
  145.3329  132.0687  159.9129 F   0  0  0  0  0  0  0  0  0  0  0  0
  147.4259  131.6304  159.6212 F   0  0  0  0  0  0  0  0  0  0  0  0
  147.0956  133.7631  162.3857 C   0  0  0  0  0  0  0  0  0  0  0  0
  147.4644  134.9937  162.7925 C   0  0  0  0  0  0  0  0  0  0  0  0
  147.6503  136.0923  161.8420 C   0  0  0  0  0  0  0  0  0  0  0  0
  147.9830  137.2217  162.2023 O   0  0  0  0  0  0  0  0  0  0  0  0
  149.7671  136.8057  155.5646 C   0  0  2  0  0  0  0  0  0  0  0  0
  149.4409  138.2814  155.3236 C   0  0  0  0  0  0  0  0  0  0  0  0
  150.6379  138.7308  154.5186 C   0  0  0  0  0  0  0  0  0  0  0  0
  150.8906  137.5143  153.6337 C   0  0  0  0  0  0  0  0  0  0  0  0
  150.4263  136.3861  154.3715 O   0  0  0  0  0  0  0  0  0  0  0  0
  149.3827  134.0781  155.0195 H   0  0  0  0  0  0  0  0  0  0  0  0
  148.0493  133.8076  156.1329 H   0  0  0  0  0  0  0  0  0  0  0  0
  149.6383  134.2497  156.7540 H   0  0  0  0  0  0  0  0  0  0  0  0
  147.8447  136.0198  155.0231 H   0  0  0  0  0  0  0  0  0  0  0  0
  146.9448  136.6138  157.0429 H   0  0  0  0  0  0  0  0  0  0  0  0
  147.9976  137.7161  159.9015 H   0  0  0  0  0  0  0  0  0  0  0  0
  146.6218  137.0774  159.0639 H   0  0  0  0  0  0  0  0  0  0  0  0
  146.9496  134.3644  159.0522 H   0  0  0  0  0  0  0  0  0  0  0  0
  146.9669  132.9848  163.1234 H   0  0  0  0  0  0  0  0  0  0  0  0
  147.6254  135.1768  163.8449 H   0  0  0  0  0  0  0  0  0  0  0  0
  150.4868  136.7335  156.3821 H   0  0  0  0  0  0  0  0  0  0  0  0
  148.5315  138.3836  154.7291 H   0  0  0  0  0  0  0  0  0  0  0  0
  149.3118  138.8464  156.2474 H   0  0  0  0  0  0  0  0  0  0  0  0
  150.4570  139.6430  153.9496 H   0  0  0  0  0  0  0  0  0  0  0  0
  151.4897  138.9007  155.1787 H   0  0  0  0  0  0  0  0  0  0  0  0
  150.3114  137.5864  152.7124 H   0  0  0  0  0  0  0  0  0  0  0  0
  151.9419  137.4090  153.3649 H   0  0  0  0  0  0  0  0  0  0  0  0
  1  2  1  0  0  0  0
  1 23  1  0  0  0  0
  1 24  1  0  0  0  0
  1 25  1  0  0  0  0
  2  3  1  0  0  0  0
  2 18  1  0  0  0  0
  2 26  1  0  0  0  0
  3  4  1  0  0  0  0
  3 27  1  0  0  0  0
  4  5  2  0  0  0  0
  4  6  1  0  0  0  0
  6  7  1  0  0  0  0
  6 28  1  0  0  0  0
  6 29  1  0  0  0  0
  7 16  1  0  0  0  0
  7  8  1  0  0  0  0
  8  9  2  0  0  0  0
  8 30  1  0  0  0  0
  9 10  1  0  0  0  0
  9 14  1  0  0  0  0
 10 11  1  0  0  0  0
 10 12  1  0  0  0  0
 10 13  1  0  0  0  0
 14 15  2  0  0  0  0
 14 31  1  0  0  0  0
 15 16  1  0  0  0  0
 15 32  1  0  0  0  0
 16 17  2  0  0  0  0
 18 22  1  0  0  0  0
 18 19  1  0  0  0  0
 18 33  1  0  0  0  0
 19 20  1  0  0  0  0
 19 34  1  0  0  0  0
 19 35  1  0  0  0  0
 20 21  1  0  0  0  0
 20 36  1  0  0  0  0
 20 37  1  0  0  0  0
 21 22  1  0  0  0  0
 21 38  1  0  0  0  0
 21 39  1  0  0  0  0
M  END
> <s_m_source_file>
AV-unprocessed.smi

> <i_m_source_file_index>
2151

> <i_lp_mmshare_version>
43012

> <i_f3d_flags>
0

> <s_epik_input>
TzFbQ0gyXVtDSDJdW0NIMl1bQ0BIXTFbQ0BIXShbQ0gzXSlbTkhdQyg9TylbQ0gyXW4yW2NIXWMoQyhGKShGKUYpW2NIXVtjSF1jMj1P

> <s_epik_cmdline>
J2VwaWtfcHl0aG9uJywgJy1waCcsICc3LjAnLCAnLXRuJywgJzgnLCAnLW1hJywgJzIwMCcsICctbWV0YWxfYmluZGluZycsICctaW1hZScsICc8aW5maWxlLm1hZT4nLCAnLW9tYWUnLCAnPG91dGZpbGUubWFlPic=

> <r_lp_tautomer_probability>
1

> <r_epik_Ionization_Penalty>
4.20109e-08

> <r_epik_Ionization_Penalty_Charging>
1.89977e-08

> <r_epik_Ionization_Penalty_Neutral>
2.30132e-08

> <r_epik_State_Penalty>
-0

> <r_epik_Charging_Adjusted_Penalty>
1.89977e-08

> <i_epik_Tot_Q>
0

> <i_epik_Tot_abs_Q>
0

> <r_epik_Metal_State_Penalty>
-0

> <b_epik_Metal_Only>
0

> <s_lp_Force_Field>
OPLS_2005

> <r_lp_Energy>
30.2794

> <b_lp_Chiralities_Consistent>
1

> <s_lp_Variant>
AV-unprocessed.smi:2151-2

> <Gold.Version>
5.8.1

> <Gold.Id.Protein>
6NUR|6NUR_protein|mol2

> <Gold.PLP.Fitness>
47.9645

> <Gold.PLP.PLP>
-38.1458

> <Gold.PLP.part.hbond>
-4.0000

> <Gold.PLP.part.metal>
0.0000

> <Gold.PLP.part.buried>
-4.0042

> <Gold.PLP.part.nonpolar>
-30.1999

> <Gold.PLP.part.repulsive>
0.1265

> <Gold.PLP.ligand.clash>
0.0000

> <Gold.PLP.ligand.torsion>
0.1537

> <Gold.PLP.Chemscore.Hbond>
3.3464

> <Gold.PLP.Chemscore.CHOScore>
0.0000

> <Gold.PLP.Chemscore.Metal>
0.0000

> <Gold.Chemscore.Hbonds>
donor molecule, donor type, donor heavy atom, donor atom, acceptor molecule, acceptor atom, score
      P1  H  6896  6909       L1     5  1.00
      P1  H  6931  6943       L1    17  0.89
      P1  H  6934  6947       L1    17  0.12

> <Gold.PLP.Chemscore.Internal.Correction>
0.0868

> <Gold.Rescore>
     Score         DG    S(hbond)    S(metal)    S(lipo)     H(rot)  DE(clash)    DE(int)     intcor
     17.24     -18.42       2.84        0.00      69.48       1.82       0.05       1.13       ----

> <Gold.Chemscore.Fitness>
17.2423

> <Gold.Chemscore.DG>
-18.4228

> <Gold.Chemscore.ZeroCoef>
-5.4800

> <Gold.Chemscore.Hbond>
2.8384

> <Gold.Chemscore.Metal>
0.0000

> <Gold.Chemscore.Lipo>
69.4795

> <Gold.Chemscore.Internal_Hbond>
0.0000

> <Gold.Chemscore.DEClash>
0.0493

> <Gold.Chemscore.DEInternal>
1.1313

> <Gold.Chemscore.Rot>
1.8228

> <Gold.Chemscore.Internal.Correction>
   9.000000E+99

> <Gold.Chemscore.Hbonds>
donor molecule, donor type, donor heavy atom, donor atom, acceptor molecule, acceptor atom, score
      P1  H  6896  6909       L1     5  0.94
      P1  H  6931  6943       L1    17  0.84
      P1  H  6934  6947       L1    17  0.12

> <Gold.Chemscore.Hbond.Weighted>
-9.4802

> <Gold.Chemscore.Metal.Weighted>
-0.0000

> <Gold.Chemscore.Lipo.Weighted>
-8.1291

> <Gold.Chemscore.Internal_Hbond.Weighted>
0.0000

> <Gold.Chemscore.DEClash.Weighted>
0.0493

> <Gold.Chemscore.DEInternal.Weighted>
1.1313

> <Gold.Chemscore.Rot.Weighted>
4.6665

> <Gold.Chemscore.Internal.Correction.Weighted>
   9.000000E+99

> <Gold.Protein.RotatedTorsions>
[ 6907 6896 6895 6894 ] final   70.22 input  -60.11 | X-H torsion
[ 7974 7965 7964 7962 ] final   -3.08 input  175.53 | X-H torsion
[ 8008 7997 7996 7995 ] final  144.82 input   59.86 | X-H torsion
[ 10167 10162 10161 10158 ] final -104.17 input  -65.29 | X-H torsion
[ 10718 10713 10712 10709 ] final   -6.34 input   66.30 | X-H torsion
[ 10763 10752 10751 10750 ] final  -51.69 input  -60.55 | X-H torsion
[ 11005 11000 10999 10996 ] final -152.83 input  -57.11 | X-H torsion

> <Gold.Protein.ActiveResidues>
 VAL166  LYS551  ARG553  GLY616  TRP617  ASP618  TYR619  PRO620  LYS621  CYS622 
 ASP623  PHE694  ASN695  SER759  ASP760  ASP761  ALA762  ILE779  LEU786  VAL792 
 PHE793  MET794  SER795  GLU796  ALA797  LYS798  CYS799  TRP800  GLU811  SER814 

> <Gold.Protein.RotatedAtoms>
  152.4736  134.4900  159.9692 H   0  0  0  0  0  0  0  0  0  0  0  0  # atno 6907 bound_to 6896
  151.4921  133.3516  159.2863 H   0  0  0  0  0  0  0  0  0  0  0  0  # atno 6908 bound_to 6896
  150.8760  134.8170  159.7252 H   0  0  0  0  0  0  0  0  0  0  0  0  # atno 6909 bound_to 6896
  146.2395  140.1667  142.8332 H   0  0  0  0  0  0  0  0  0  0  0  0  # atno 7974 bound_to 7965
  156.2899  140.2225  156.5114 H   0  0  0  0  0  0  0  0  0  0  0  0  # atno 8008 bound_to 7997
  154.7605  140.0473  157.0991 H   0  0  0  0  0  0  0  0  0  0  0  0  # atno 8009 bound_to 7997
  154.9997  140.3100  155.4876 H   0  0  0  0  0  0  0  0  0  0  0  0  # atno 8010 bound_to 7997
  140.2122  143.3738  152.1041 H   0  0  0  0  0  0  0  0  0  0  0  0  # atno 10167 bound_to 10162
  156.7333  130.5187  149.5840 H   0  0  0  0  0  0  0  0  0  0  0  0  # atno 10718 bound_to 10713
  154.1307  135.6520  153.4921 H   0  0  0  0  0  0  0  0  0  0  0  0  # atno 10763 bound_to 10752
  153.0196  135.5292  154.7004 H   0  0  0  0  0  0  0  0  0  0  0  0  # atno 10764 bound_to 10752
  154.6238  135.2968  155.0266 H   0  0  0  0  0  0  0  0  0  0  0  0  # atno 10765 bound_to 10752
  140.7146  134.3794  157.5193 H   0  0  0  0  0  0  0  0  0  0  0  0  # atno 11005 bound_to 11000
  145.0045  140.8660  143.5262 LP  0  0  0  0  0  0  0  0  0  0  0  0  # atno 17320 bound_to 7965
  145.1691  139.2414  143.5351 LP  0  0  0  0  0  0  0  0  0  0  0  0  # atno 17321 bound_to 7965
  139.5176  144.6993  151.5539 LP  0  0  0  0  0  0  0  0  0  0  0  0  # atno 17342 bound_to 10162
  140.6315  143.9066  150.6610 LP  0  0  0  0  0  0  0  0  0  0  0  0  # atno 17343 bound_to 10162
  156.1514  130.6312  151.0600 LP  0  0  0  0  0  0  0  0  0  0  0  0  # atno 17370 bound_to 10713
  157.6850  131.0827  150.7268 LP  0  0  0  0  0  0  0  0  0  0  0  0  # atno 17371 bound_to 10713
  139.8863  134.8913  156.2593 LP  0  0  0  0  0  0  0  0  0  0  0  0  # atno 17394 bound_to 11000
  141.0055  133.7126  156.1028 LP  0  0  0  0  0  0  0  0  0  0  0  0  # atno 17395 bound_to 11000

$$$$
