AV-unprocessed.smi:250|AV-procd|sdf|1932|dock3
  -GOLD-   2262021 53D 1   1.00000     0.00000
 Structure written by MMmdl.
 56 60  0  0  0  0  0  0  0  0  1 V2000
  152.5679  143.9672  161.0879 C   0  0  0  0  0  0  0  0  0  0  0  0
  151.8897  143.7932  159.8101 N   0  0  0  0  0  0  0  0  0  0  0  0
  151.0720  144.6700  159.1903 C   0  0  0  0  0  0  0  0  0  0  0  0
  150.7773  145.7968  159.5844 O   0  0  0  0  0  0  0  0  0  0  0  0
  150.6237  144.1019  158.0573 N   0  0  0  0  0  0  0  0  0  0  0  0
  151.3723  142.8979  157.7793 C   0  0  2  0  0  0  0  0  0  0  0  0
  150.7272  141.6990  157.0879 C   0  0  0  0  0  0  0  0  0  0  0  0
  151.7318  140.6226  157.0440 N   0  0  0  0  0  0  0  0  0  0  0  0
  151.4375  139.6007  156.1990 C   0  0  0  0  0  0  0  0  0  0  0  0
  150.8987  139.8699  154.9794 N   0  0  0  0  0  0  0  0  0  0  0  0
  150.6113  138.8780  154.1319 C   0  0  0  0  0  0  0  0  0  0  0  0
  150.7784  137.5653  154.2977 N   0  0  0  0  0  0  0  0  0  0  0  0
  151.3125  137.2848  155.5205 C   0  0  0  0  0  0  0  0  0  0  0  0
  151.6637  138.2323  156.5244 C   0  0  0  0  0  0  0  0  0  0  0  0
  152.1520  137.5699  157.6446 N   0  0  0  0  0  0  0  0  0  0  0  0
  152.1025  136.3077  157.3178 C   0  0  0  0  0  0  0  0  0  0  0  0
  151.6276  136.0460  156.0524 N   0  0  0  0  0  0  0  0  0  0  0  0
  151.4654  134.7364  155.4360 C   0  0  0  0  0  0  0  0  0  0  0  0
  150.0144  134.1696  155.4718 C   0  0  0  0  0  0  0  0  0  0  0  0
  149.5964  133.8030  156.9249 C   0  0  0  0  0  0  0  0  0  0  0  0
  150.5239  132.9357  157.5464 O   0  0  0  0  0  0  0  0  0  0  0  0
  149.0623  135.2294  154.8623 C   0  0  0  0  0  0  0  0  0  0  0  0
  147.6542  134.6790  154.5728 C   0  0  0  0  0  0  0  0  0  0  0  0
  147.7431  133.5492  153.7148 O   0  0  0  0  0  0  0  0  0  0  0  0
  148.4720  132.4743  154.2926 C   0  0  0  0  0  0  0  0  0  0  0  0
  149.9220  132.9094  154.5747 C   0  0  0  0  0  0  0  0  0  0  0  0
  152.4360  140.2830  158.3000 C   0  0  0  0  0  0  0  0  0  0  0  0
  152.9511  141.5289  159.0706 C   0  0  0  0  0  0  0  0  0  0  0  0
  151.7705  142.4943  159.1782 C   0  0  1  0  0  0  0  0  0  0  0  0
  152.2452  143.2088  157.1991 H   0  0  0  0  0  0  0  0  0  0  0  0
  150.9456  141.9837  159.6825 H   0  0  0  0  0  0  0  0  0  0  0  0
  152.4662  144.9836  161.4703 H   0  0  0  0  0  0  0  0  0  0  0  0
  153.6314  143.7538  160.9797 H   0  0  0  0  0  0  0  0  0  0  0  0
  152.1555  143.2825  161.8292 H   0  0  0  0  0  0  0  0  0  0  0  0
  150.0122  144.5480  157.3891 H   0  0  0  0  0  0  0  0  0  0  0  0
  149.8477  141.3580  157.6357 H   0  0  0  0  0  0  0  0  0  0  0  0
  150.3945  141.9880  156.0923 H   0  0  0  0  0  0  0  0  0  0  0  0
  150.1887  139.1793  153.1847 H   0  0  0  0  0  0  0  0  0  0  0  0
  152.4179  135.5269  157.9944 H   0  0  0  0  0  0  0  0  0  0  0  0
  151.8184  134.8060  154.4062 H   0  0  0  0  0  0  0  0  0  0  0  0
  152.1507  134.0473  155.9313 H   0  0  0  0  0  0  0  0  0  0  0  0
  149.5055  134.6876  157.5528 H   0  0  0  0  0  0  0  0  0  0  0  0
  148.6159  133.3274  156.9397 H   0  0  0  0  0  0  0  0  0  0  0  0
  150.1005  132.1051  157.7022 H   0  0  0  0  0  0  0  0  0  0  0  0
  148.9916  136.1041  155.5094 H   0  0  0  0  0  0  0  0  0  0  0  0
  149.4791  135.5911  153.9212 H   0  0  0  0  0  0  0  0  0  0  0  0
  147.1269  134.4177  155.4908 H   0  0  0  0  0  0  0  0  0  0  0  0
  147.0544  135.4429  154.0779 H   0  0  0  0  0  0  0  0  0  0  0  0
  147.9734  132.1236  155.1964 H   0  0  0  0  0  0  0  0  0  0  0  0
  148.4673  131.6382  153.5932 H   0  0  0  0  0  0  0  0  0  0  0  0
  150.4033  133.1105  153.6167 H   0  0  0  0  0  0  0  0  0  0  0  0
  150.4693  132.0779  155.0203 H   0  0  0  0  0  0  0  0  0  0  0  0
  151.7528  139.7246  158.9418 H   0  0  0  0  0  0  0  0  0  0  0  0
  153.2764  139.6224  158.0826 H   0  0  0  0  0  0  0  0  0  0  0  0
  153.3140  141.2411  160.0575 H   0  0  0  0  0  0  0  0  0  0  0  0
  153.7860  141.9918  158.5429 H   0  0  0  0  0  0  0  0  0  0  0  0
  1  2  1  0  0  0  0
  1 32  1  0  0  0  0
  1 33  1  0  0  0  0
  1 34  1  0  0  0  0
  2 29  1  0  0  0  0
  2  3  1  0  0  0  0
  3  4  2  0  0  0  0
  3  5  1  0  0  0  0
  5  6  1  0  0  0  0
  5 35  1  0  0  0  0
  6 30  1  0  0  0  0
  6 29  1  0  0  0  0
  6  7  1  0  0  0  0
  7  8  1  0  0  0  0
  7 36  1  0  0  0  0
  7 37  1  0  0  0  0
  8  9  1  0  0  0  0
  8 27  1  0  0  0  0
  9 14  1  0  0  0  0
  9 10  2  0  0  0  0
 10 11  1  0  0  0  0
 11 12  2  0  0  0  0
 11 38  1  0  0  0  0
 12 13  1  0  0  0  0
 13 17  1  0  0  0  0
 13 14  2  0  0  0  0
 14 15  1  0  0  0  0
 15 16  2  0  0  0  0
 16 17  1  0  0  0  0
 16 39  1  0  0  0  0
 17 18  1  0  0  0  0
 18 19  1  0  0  0  0
 18 40  1  0  0  0  0
 18 41  1  0  0  0  0
 19 26  1  0  0  0  0
 19 20  1  0  0  0  0
 19 22  1  0  0  0  0
 20 21  1  0  0  0  0
 20 42  1  0  0  0  0
 20 43  1  0  0  0  0
 21 44  1  0  0  0  0
 22 23  1  0  0  0  0
 22 45  1  0  0  0  0
 22 46  1  0  0  0  0
 23 24  1  0  0  0  0
 23 47  1  0  0  0  0
 23 48  1  0  0  0  0
 24 25  1  0  0  0  0
 25 26  1  0  0  0  0
 25 49  1  0  0  0  0
 25 50  1  0  0  0  0
 26 51  1  0  0  0  0
 26 52  1  0  0  0  0
 27 28  1  0  0  0  0
 27 53  1  0  0  0  0
 27 54  1  0  0  0  0
 28 29  1  0  0  0  0
 28 55  1  0  0  0  0
 28 56  1  0  0  0  0
 29 31  1  0  0  0  0
M  END
> <s_m_source_file>
AV-unprocessed.smi

> <i_m_source_file_index>
250

> <i_lp_mmshare_version>
43012

> <i_f3d_flags>
0

> <s_epik_input>
Tz1DKFtOSF0xKU4oW0NIM10pW0NASF0oW0NASF0xMilbQ0gyXVtDSDJdTihbQ0gyXTIpYyhuW2NIXW4zKWMoYzM0KW5bY0hdbjRbQ0gyXUM1KFtDSDJdW09IXSlbQ0gyXVtDSDJdT1tDSDJdW0NIMl01

> <s_epik_cmdline>
J2VwaWtfcHl0aG9uJywgJy1waCcsICc3LjAnLCAnLXRuJywgJzgnLCAnLW1hJywgJzIwMCcsICctbWV0YWxfYmluZGluZycsICctaW1hZScsICc8aW5maWxlLm1hZT4nLCAnLW9tYWUnLCAnPG91dGZpbGUubWFlPic=

> <r_lp_tautomer_probability>
1

> <r_epik_Ionization_Penalty>
0.00229024

> <r_epik_Ionization_Penalty_Charging>
0

> <r_epik_Ionization_Penalty_Neutral>
0.00229024

> <r_epik_State_Penalty>
0.0013961

> <r_epik_Charging_Adjusted_Penalty>
0.0013961

> <i_epik_Tot_Q>
0

> <i_epik_Tot_abs_Q>
0

> <r_epik_Metal_State_Penalty>
-0

> <b_epik_Metal_Only>
0

> <s_lp_Force_Field>
OPLS_2005

> <r_lp_Energy>
71.8921

> <b_lp_Chiralities_Consistent>
1

> <s_lp_Variant>
AV-unprocessed.smi:250-3

> <Gold.Version>
5.8.1

> <Gold.Id.Protein>
6NUR|6NUR_protein|mol2

> <Gold.PLP.Fitness>
51.6971

> <Gold.PLP.PLP>
-42.1653

> <Gold.PLP.part.hbond>
-5.0000

> <Gold.PLP.part.metal>
0.0000

> <Gold.PLP.part.buried>
-3.4005

> <Gold.PLP.part.nonpolar>
-33.4102

> <Gold.PLP.part.repulsive>
0.6265

> <Gold.PLP.ligand.clash>
0.0000

> <Gold.PLP.ligand.torsion>
0.7002

> <Gold.PLP.Chemscore.Hbond>
2.5413

> <Gold.PLP.Chemscore.CHOScore>
1.0000

> <Gold.PLP.Chemscore.Metal>
0.0000

> <Gold.Chemscore.Hbonds>
donor molecule, donor type, donor heavy atom, donor atom, acceptor molecule, acceptor atom, score
      L1  H     5    35       P1  8028  0.99
      P1  H  6896  6909       L1    21  1.00
      P1  H  7989  7998       L1    10  0.45
      L1  C    11    38       P1  7957  1.00

> <Gold.PLP.Chemscore.Internal.Correction>
0.3084

> <Gold.Rescore>
     Score         DG    S(hbond)    S(metal)    S(lipo)     H(rot)  DE(clash)    DE(int)     intcor
      9.10     -14.65       1.37        0.00      87.86       2.22       2.23       3.32       ----

> <Gold.Chemscore.Fitness>
9.0983

> <Gold.Chemscore.DG>
-14.6524

> <Gold.Chemscore.ZeroCoef>
-5.4800

> <Gold.Chemscore.Hbond>
1.3677

> <Gold.Chemscore.Metal>
0.0000

> <Gold.Chemscore.Lipo>
87.8618

> <Gold.Chemscore.Internal_Hbond>
0.0000

> <Gold.Chemscore.DEClash>
2.2291

> <Gold.Chemscore.DEInternal>
3.3250

> <Gold.Chemscore.Rot>
2.2170

> <Gold.Chemscore.Internal.Correction>
   9.000000E+99

> <Gold.Chemscore.Hbonds>
donor molecule, donor type, donor heavy atom, donor atom, acceptor molecule, acceptor atom, score
      L1  H     5    35       P1  8028  0.23
      P1  H  6896  6909       L1    21  0.44
      P1  H  7989  7998       L1    10  0.02

> <Gold.Chemscore.Hbond.Weighted>
-4.5682

> <Gold.Chemscore.Metal.Weighted>
-0.0000

> <Gold.Chemscore.Lipo.Weighted>
-10.2798

> <Gold.Chemscore.Internal_Hbond.Weighted>
0.0000

> <Gold.Chemscore.DEClash.Weighted>
2.2291

> <Gold.Chemscore.DEInternal.Weighted>
3.3250

> <Gold.Chemscore.Rot.Weighted>
5.6756

> <Gold.Chemscore.Internal.Correction.Weighted>
   9.000000E+99

> <Gold.Protein.RotatedTorsions>
[ 6907 6896 6895 6894 ] final  -23.64 input  -60.11 | X-H torsion
[ 7974 7965 7964 7962 ] final   80.25 input  175.53 | X-H torsion
[ 8008 7997 7996 7995 ] final -157.66 input   59.86 | X-H torsion
[ 10167 10162 10161 10158 ] final -166.66 input  -65.29 | X-H torsion
[ 10718 10713 10712 10709 ] final  -64.91 input   66.30 | X-H torsion
[ 10763 10752 10751 10750 ] final  126.24 input  -60.55 | X-H torsion
[ 11005 11000 10999 10996 ] final   68.98 input  -57.11 | X-H torsion

> <Gold.Protein.ActiveResidues>
 VAL166  LYS551  ARG553  GLY616  TRP617  ASP618  TYR619  PRO620  LYS621  CYS622 
 ASP623  PHE694  ASN695  SER759  ASP760  ASP761  ALA762  ILE779  LEU786  VAL792 
 PHE793  MET794  SER795  GLU796  ALA797  LYS798  CYS799  TRP800  GLU811  SER814 

> <Gold.Protein.RotatedAtoms>
  151.2010  135.0442  159.8871 H   0  0  0  0  0  0  0  0  0  0  0  0  # atno 6907 bound_to 6896
  152.5432  134.0850  159.8262 H   0  0  0  0  0  0  0  0  0  0  0  0  # atno 6908 bound_to 6896
  151.0990  133.5210  159.2643 H   0  0  0  0  0  0  0  0  0  0  0  0  # atno 6909 bound_to 6896
  145.6537  139.2454  143.1962 H   0  0  0  0  0  0  0  0  0  0  0  0  # atno 7974 bound_to 7965
  155.7358  140.0808  157.2268 H   0  0  0  0  0  0  0  0  0  0  0  0  # atno 8008 bound_to 7997
  154.4027  140.1587  156.2615 H   0  0  0  0  0  0  0  0  0  0  0  0  # atno 8009 bound_to 7997
  155.9066  140.3406  155.6069 H   0  0  0  0  0  0  0  0  0  0  0  0  # atno 8010 bound_to 7997
  139.6100  144.0834  152.1832 H   0  0  0  0  0  0  0  0  0  0  0  0  # atno 10167 bound_to 10162
  156.0701  130.4240  150.1487 H   0  0  0  0  0  0  0  0  0  0  0  0  # atno 10718 bound_to 10713
  153.6902  135.3300  155.3200 H   0  0  0  0  0  0  0  0  0  0  0  0  # atno 10763 bound_to 10752
  154.8442  135.4430  154.1516 H   0  0  0  0  0  0  0  0  0  0  0  0  # atno 10764 bound_to 10752
  153.2556  135.6986  153.7710 H   0  0  0  0  0  0  0  0  0  0  0  0  # atno 10765 bound_to 10752
  139.9680  134.6948  156.0506 H   0  0  0  0  0  0  0  0  0  0  0  0  # atno 11005 bound_to 11000
  146.1183  140.7342  142.9470 LP  0  0  0  0  0  0  0  0  0  0  0  0  # atno 17320 bound_to 7965
  144.7113  140.4050  143.7078 LP  0  0  0  0  0  0  0  0  0  0  0  0  # atno 17321 bound_to 7965
  140.0450  144.5977  150.7380 LP  0  0  0  0  0  0  0  0  0  0  0  0  # atno 17342 bound_to 10162
  140.7312  143.2692  151.3944 LP  0  0  0  0  0  0  0  0  0  0  0  0  # atno 17343 bound_to 10162
  156.9540  130.9784  151.3492 LP  0  0  0  0  0  0  0  0  0  0  0  0  # atno 17370 bound_to 10713
  157.5766  130.8347  149.8465 LP  0  0  0  0  0  0  0  0  0  0  0  0  # atno 17371 bound_to 10713
  141.1359  133.6575  156.3594 LP  0  0  0  0  0  0  0  0  0  0  0  0  # atno 17394 bound_to 11000
  140.5355  134.6171  157.5363 LP  0  0  0  0  0  0  0  0  0  0  0  0  # atno 17395 bound_to 11000

$$$$
