AV-unprocessed.smi:1906|AV-procd|sdf|7727|dock8
  -GOLD-   22720 9473D 1   1.00000     0.00000
 Structure written by MMmdl.
 35 37  0  0  0  0  0  0  0  0  1 V2000
  152.4219  139.2819  155.5691 C   0  0  0  0  0  0  0  0  0  0  0  0
  151.1003  139.9774  155.4829 C   0  0  0  0  0  0  0  0  0  0  0  0
  150.4709  140.1649  154.3224 N   0  0  0  0  0  0  0  0  0  0  0  0
  149.3182  140.8233  154.7054 C   0  0  0  0  0  0  0  0  0  0  0  0
  148.2322  141.2998  153.9365 C   0  0  0  0  0  0  0  0  0  0  0  0
  147.1476  141.9514  154.5597 C   0  0  0  0  0  0  0  0  0  0  0  0
  147.1329  142.1359  155.9575 C   0  0  0  0  0  0  0  0  0  0  0  0
  148.2045  141.6685  156.7425 C   0  0  0  0  0  0  0  0  0  0  0  0
  149.2843  141.0188  156.1151 C   0  0  0  0  0  0  0  0  0  0  0  0
  150.4658  140.4536  156.5828 N   0  0  0  0  0  0  0  0  0  0  0  0
  150.8955  140.3976  157.9731 C   0  0  0  0  0  0  0  0  0  0  0  0
  152.3253  140.9376  158.1735 C   0  0  2  0  0  0  0  0  0  0  0  0
  153.2174  139.8665  158.4126 O   0  0  0  0  0  0  0  0  0  0  0  0
  152.3704  141.9802  159.2790 C   0  0  0  0  0  0  0  0  0  0  0  0
  152.9549  141.6790  160.5290 C   0  0  0  0  0  0  0  0  0  0  0  0
  152.9801  142.6469  161.5522 C   0  0  0  0  0  0  0  0  0  0  0  0
  152.4209  143.9203  161.3318 C   0  0  0  0  0  0  0  0  0  0  0  0
  151.8352  144.2250  160.0880 C   0  0  0  0  0  0  0  0  0  0  0  0
  151.2952  145.4483  159.8753 F   0  0  0  0  0  0  0  0  0  0  0  0
  151.8089  143.2573  159.0652 C   0  0  0  0  0  0  0  0  0  0  0  0
  152.7958  139.0460  154.5722 H   0  0  0  0  0  0  0  0  0  0  0  0
  152.3213  138.3509  156.1271 H   0  0  0  0  0  0  0  0  0  0  0  0
  153.1549  139.9164  156.0670 H   0  0  0  0  0  0  0  0  0  0  0  0
  148.2332  141.1637  152.8653 H   0  0  0  0  0  0  0  0  0  0  0  0
  146.3226  142.3112  153.9624 H   0  0  0  0  0  0  0  0  0  0  0  0
  146.2987  142.6363  156.4270 H   0  0  0  0  0  0  0  0  0  0  0  0
  148.1969  141.8078  157.8134 H   0  0  0  0  0  0  0  0  0  0  0  0
  150.1928  140.9901  158.5604 H   0  0  0  0  0  0  0  0  0  0  0  0
  150.8122  139.3760  158.3441 H   0  0  0  0  0  0  0  0  0  0  0  0
  152.6543  141.4114  157.2476 H   0  0  0  0  0  0  0  0  0  0  0  0
  152.7698  139.0561  158.2229 H   0  0  0  0  0  0  0  0  0  0  0  0
  153.3822  140.7029  160.7079 H   0  0  0  0  0  0  0  0  0  0  0  0
  153.4270  142.4115  162.5070 H   0  0  0  0  0  0  0  0  0  0  0  0
  152.4396  144.6620  162.1169 H   0  0  0  0  0  0  0  0  0  0  0  0
  151.3535  143.4994  158.1161 H   0  0  0  0  0  0  0  0  0  0  0  0
  1  2  1  0  0  0  0
  1 21  1  0  0  0  0
  1 22  1  0  0  0  0
  1 23  1  0  0  0  0
  2 10  1  0  0  0  0
  2  3  2  0  0  0  0
  3  4  1  0  0  0  0
  4  9  2  0  0  0  0
  4  5  1  0  0  0  0
  5  6  2  0  0  0  0
  5 24  1  0  0  0  0
  6  7  1  0  0  0  0
  6 25  1  0  0  0  0
  7  8  2  0  0  0  0
  7 26  1  0  0  0  0
  8  9  1  0  0  0  0
  8 27  1  0  0  0  0
  9 10  1  0  0  0  0
 10 11  1  0  0  0  0
 11 12  1  0  0  0  0
 11 28  1  0  0  0  0
 11 29  1  0  0  0  0
 12 13  1  0  0  0  0
 12 14  1  0  0  0  0
 12 30  1  0  0  0  0
 13 31  1  0  0  0  0
 14 20  1  0  0  0  0
 14 15  2  0  0  0  0
 15 16  1  0  0  0  0
 15 32  1  0  0  0  0
 16 17  2  0  0  0  0
 16 33  1  0  0  0  0
 17 18  1  0  0  0  0
 17 34  1  0  0  0  0
 18 19  1  0  0  0  0
 18 20  2  0  0  0  0
 20 35  1  0  0  0  0
M  END
> <s_m_source_file>
AV-unprocessed.smi

> <i_m_source_file_index>
1906

> <i_lp_mmshare_version>
43012

> <i_f3d_flags>
0

> <s_epik_input>
W2NIXTFbY0hdW2NIXVtjSF1jKGMxMiluKGMobjIpW0NIM10pW0NIMl1bQ0BIXShbT0hdKWMzW2NIXVtjSF1bY0hdYyhGKVtjSF0z

> <s_epik_cmdline>
J2VwaWtfcHl0aG9uJywgJy1waCcsICc3LjAnLCAnLXRuJywgJzgnLCAnLW1hJywgJzIwMCcsICctbWV0YWxfYmluZGluZycsICctaW1hZScsICc8aW5maWxlLm1hZT4nLCAnLW9tYWUnLCAnPG91dGZpbGUubWFlPic=

> <r_epik_Ionization_Penalty>
0.129664

> <r_epik_Ionization_Penalty_Charging>
0

> <r_epik_Ionization_Penalty_Neutral>
0.129664

> <r_epik_State_Penalty>
0.119073

> <r_epik_Charging_Adjusted_Penalty>
0.119073

> <i_epik_Tot_Q>
0

> <i_epik_Tot_abs_Q>
0

> <r_epik_Metal_State_Penalty>
0.000131867

> <b_epik_Metal_Only>
0

> <s_lp_Force_Field>
OPLS_2005

> <r_lp_Energy>
10.1528

> <b_lp_Chiralities_Consistent>
1

> <s_lp_Variant>
AV-unprocessed.smi:1906-1

> <Gold.Version>
5.8.1

> <Gold.Id.Protein>
6NUR|6NUR_protein|mol2

> <Gold.PLP.Fitness>
52.9225

> <Gold.PLP.PLP>
-49.0795

> <Gold.PLP.part.hbond>
-1.9945

> <Gold.PLP.part.metal>
0.0000

> <Gold.PLP.part.buried>
-3.9586

> <Gold.PLP.part.nonpolar>
-43.4953

> <Gold.PLP.part.repulsive>
0.1159

> <Gold.PLP.ligand.clash>
0.0000

> <Gold.PLP.ligand.torsion>
1.0900

> <Gold.PLP.Chemscore.Hbond>
2.0000

> <Gold.PLP.Chemscore.CHOScore>
0.0000

> <Gold.PLP.Chemscore.Metal>
0.0000

> <Gold.Chemscore.Hbonds>
donor molecule, donor type, donor heavy atom, donor atom, acceptor molecule, acceptor atom, score
      P1  H  7989  7998       L1     3  1.00
      P1  H  7997  8009       L1    13  1.00

> <Gold.PLP.Chemscore.Internal.Correction>
0.0230

> <Gold.Rescore>
     Score         DG    S(hbond)    S(metal)    S(lipo)     H(rot)  DE(clash)    DE(int)     intcor
     16.17     -17.37       0.80        0.00     118.09       1.79       0.22       0.98       ----

> <Gold.Chemscore.Fitness>
16.1717

> <Gold.Chemscore.DG>
-17.3714

> <Gold.Chemscore.ZeroCoef>
-5.4800

> <Gold.Chemscore.Hbond>
0.7975

> <Gold.Chemscore.Metal>
0.0000

> <Gold.Chemscore.Lipo>
118.0925

> <Gold.Chemscore.Internal_Hbond>
0.0000

> <Gold.Chemscore.DEClash>
0.2243

> <Gold.Chemscore.DEInternal>
0.9754

> <Gold.Chemscore.Rot>
1.7926

> <Gold.Chemscore.Internal.Correction>
   9.000000E+99

> <Gold.Chemscore.Hbonds>
donor molecule, donor type, donor heavy atom, donor atom, acceptor molecule, acceptor atom, score
      P1  H  7989  7998       L1     3  0.29
      P1  H  7997  8009       L1    13  0.15

> <Gold.Chemscore.Hbond.Weighted>
-2.6637

> <Gold.Chemscore.Metal.Weighted>
-0.0000

> <Gold.Chemscore.Lipo.Weighted>
-13.8168

> <Gold.Chemscore.Internal_Hbond.Weighted>
0.0000

> <Gold.Chemscore.DEClash.Weighted>
0.2243

> <Gold.Chemscore.DEInternal.Weighted>
0.9754

> <Gold.Chemscore.Rot.Weighted>
4.5890

> <Gold.Chemscore.Internal.Correction.Weighted>
   9.000000E+99

> <Gold.Protein.RotatedTorsions>
[ 6907 6896 6895 6894 ] final  -49.29 input  -60.11 | X-H torsion
[ 7974 7965 7964 7962 ] final   50.97 input  175.53 | X-H torsion
[ 8008 7997 7996 7995 ] final  164.48 input   59.86 | X-H torsion
[ 10167 10162 10161 10158 ] final   82.38 input  -65.29 | X-H torsion
[ 10718 10713 10712 10709 ] final  -52.79 input   66.30 | X-H torsion
[ 10763 10752 10751 10750 ] final -151.96 input  -60.55 | X-H torsion
[ 11005 11000 10999 10996 ] final  158.33 input  -57.11 | X-H torsion

> <Gold.Protein.ActiveResidues>
 VAL166  LYS551  ARG553  GLY616  TRP617  ASP618  TYR619  PRO620  LYS621  CYS622 
 ASP623  PHE694  ASN695  SER759  ASP760  ASP761  ALA762  ILE779  LEU786  VAL792 
 PHE793  MET794  SER795  GLU796  ALA797  LYS798  CYS799  TRP800  GLU811  SER814 

> <Gold.Protein.RotatedAtoms>
  150.8819  134.8212  159.7231 H   0  0  0  0  0  0  0  0  0  0  0  0  # atno 6907 bound_to 6896
  152.4783  134.4782  159.9667 H   0  0  0  0  0  0  0  0  0  0  0  0  # atno 6908 bound_to 6896
  151.4856  133.3498  159.2880 H   0  0  0  0  0  0  0  0  0  0  0  0  # atno 6909 bound_to 6896
  145.9959  139.4388  143.0045 H   0  0  0  0  0  0  0  0  0  0  0  0  # atno 7974 bound_to 7965
  156.1877  140.1695  156.8153 H   0  0  0  0  0  0  0  0  0  0  0  0  # atno 8008 bound_to 7997
  154.5433  140.0732  156.8579 H   0  0  0  0  0  0  0  0  0  0  0  0  # atno 8009 bound_to 7997
  155.3171  140.3371  155.4244 H   0  0  0  0  0  0  0  0  0  0  0  0  # atno 8010 bound_to 7997
  139.9294  144.6162  150.8360 H   0  0  0  0  0  0  0  0  0  0  0  0  # atno 10167 bound_to 10162
  156.1590  130.4150  149.9822 H   0  0  0  0  0  0  0  0  0  0  0  0  # atno 10718 bound_to 10713
  154.8025  135.3247  154.7515 H   0  0  0  0  0  0  0  0  0  0  0  0  # atno 10763 bound_to 10752
  153.8180  135.6890  153.4835 H   0  0  0  0  0  0  0  0  0  0  0  0  # atno 10764 bound_to 10752
  153.1750  135.4608  154.9896 H   0  0  0  0  0  0  0  0  0  0  0  0  # atno 10765 bound_to 10752
  140.1855  134.8445  157.2852 H   0  0  0  0  0  0  0  0  0  0  0  0  # atno 11005 bound_to 11000
  145.7560  140.9954  143.1225 LP  0  0  0  0  0  0  0  0  0  0  0  0  # atno 17320 bound_to 7965
  144.6903  139.9272  143.7470 LP  0  0  0  0  0  0  0  0  0  0  0  0  # atno 17321 bound_to 7965
  140.7641  143.3241  151.2556 LP  0  0  0  0  0  0  0  0  0  0  0  0  # atno 17342 bound_to 10162
  139.6795  143.9879  152.2800 LP  0  0  0  0  0  0  0  0  0  0  0  0  # atno 17343 bound_to 10162
  156.7657  130.9167  151.3643 LP  0  0  0  0  0  0  0  0  0  0  0  0  # atno 17370 bound_to 10713
  157.6718  130.9058  150.0058 LP  0  0  0  0  0  0  0  0  0  0  0  0  # atno 17371 bound_to 10713
  140.2219  134.4013  155.7562 LP  0  0  0  0  0  0  0  0  0  0  0  0  # atno 17394 bound_to 11000
  141.2224  133.7170  156.8504 LP  0  0  0  0  0  0  0  0  0  0  0  0  # atno 17395 bound_to 11000

$$$$
