AV-unprocessed.smi:2816|AV-procd|sdf|10844|dock5
  -GOLD-   2272015283D 1   1.00000     0.00000
 Structure written by MMmdl.
 43 45  0  0  0  0  0  0  0  0  1 V2000
  138.9341  138.3725  152.8017 C   0  0  0  0  0  0  0  0  0  0  0  0
  139.3946  138.8195  154.2000 C   0  0  0  0  0  0  0  0  0  0  0  0
  140.5340  139.8457  154.0594 C   0  0  0  0  0  0  0  0  0  0  0  0
  138.2068  139.4365  154.9607 C   0  0  0  0  0  0  0  0  0  0  0  0
  140.0001  137.3104  155.1068 S   0  0  0  0  0  0  0  0  0  0  0  0
  140.6665  137.7638  156.3380 O   0  0  0  0  0  0  0  0  0  0  0  0
  138.8890  136.3503  155.2050 O   0  0  0  0  0  0  0  0  0  0  0  0
  141.2545  136.5753  154.0555 C   0  0  0  0  0  0  0  0  0  0  0  0
  142.1156  137.3997  153.3036 C   0  0  0  0  0  0  0  0  0  0  0  0
  143.0552  136.7816  152.4578 C   0  0  0  0  0  0  0  0  0  0  0  0
  143.0914  135.3685  152.3874 C   0  0  0  0  0  0  0  0  0  0  0  0
  143.9834  134.6579  151.5710 N   0  0  0  0  0  0  0  0  0  0  0  0
  144.4296  133.3134  151.9189 C   0  0  2  0  0  0  0  0  0  0  0  0
  145.9298  133.0748  151.7106 C   0  0  0  0  0  0  0  0  0  0  0  0
  145.9288  131.8196  150.8270 C   0  0  2  0  0  0  0  0  0  0  0  0
  145.5345  132.1506  149.3824 C   0  0  0  0  0  0  0  0  0  0  0  0
  144.0392  132.4260  149.5258 C   0  0  0  0  0  0  0  0  0  0  0  0
  143.8169  132.2131  151.0338 C   0  0  1  0  0  0  0  0  0  0  0  0
  144.7491  131.1721  151.2748 O   0  0  0  0  0  0  0  0  0  0  0  0
  142.1752  134.6466  153.1825 C   0  0  0  0  0  0  0  0  0  0  0  0
  141.2683  135.2266  153.9962 N   0  0  0  0  0  0  0  0  0  0  0  0
  138.5678  139.2153  152.2145 H   0  0  0  0  0  0  0  0  0  0  0  0
  138.1277  137.6410  152.8647 H   0  0  0  0  0  0  0  0  0  0  0  0
  139.7509  137.9125  152.2446 H   0  0  0  0  0  0  0  0  0  0  0  0
  141.4070  139.4092  153.5734 H   0  0  0  0  0  0  0  0  0  0  0  0
  140.8511  140.2338  155.0266 H   0  0  0  0  0  0  0  0  0  0  0  0
  140.2198  140.7005  153.4597 H   0  0  0  0  0  0  0  0  0  0  0  0
  137.7959  140.2912  154.4225 H   0  0  0  0  0  0  0  0  0  0  0  0
  138.5019  139.7887  155.9490 H   0  0  0  0  0  0  0  0  0  0  0  0
  137.4003  138.7149  155.0941 H   0  0  0  0  0  0  0  0  0  0  0  0
  142.0587  138.4761  153.3673 H   0  0  0  0  0  0  0  0  0  0  0  0
  143.7257  137.3972  151.8778 H   0  0  0  0  0  0  0  0  0  0  0  0
  144.4779  135.1493  150.8400 H   0  0  0  0  0  0  0  0  0  0  0  0
  144.1642  133.1022  152.9555 H   0  0  0  0  0  0  0  0  0  0  0  0
  146.4469  133.9082  151.2326 H   0  0  0  0  0  0  0  0  0  0  0  0
  146.4169  132.8786  152.6664 H   0  0  0  0  0  0  0  0  0  0  0  0
  146.8340  131.2180  150.9111 H   0  0  0  0  0  0  0  0  0  0  0  0
  146.0867  133.0026  148.9845 H   0  0  0  0  0  0  0  0  0  0  0  0
  145.7047  131.2958  148.7269 H   0  0  0  0  0  0  0  0  0  0  0  0
  143.7554  133.4216  149.1851 H   0  0  0  0  0  0  0  0  0  0  0  0
  143.4657  131.6992  148.9492 H   0  0  0  0  0  0  0  0  0  0  0  0
  142.7891  131.9602  151.2955 H   0  0  0  0  0  0  0  0  0  0  0  0
  142.1633  133.5665  153.1604 H   0  0  0  0  0  0  0  0  0  0  0  0
  1  2  1  0  0  0  0
  1 22  1  0  0  0  0
  1 23  1  0  0  0  0
  1 24  1  0  0  0  0
  2  3  1  0  0  0  0
  2  4  1  0  0  0  0
  2  5  1  0  0  0  0
  3 25  1  0  0  0  0
  3 26  1  0  0  0  0
  3 27  1  0  0  0  0
  4 28  1  0  0  0  0
  4 29  1  0  0  0  0
  4 30  1  0  0  0  0
  5  6  2  0  0  0  0
  5  7  2  0  0  0  0
  5  8  1  0  0  0  0
  8 21  1  0  0  0  0
  8  9  2  0  0  0  0
  9 10  1  0  0  0  0
  9 31  1  0  0  0  0
 10 11  2  0  0  0  0
 10 32  1  0  0  0  0
 11 12  1  0  0  0  0
 11 20  1  0  0  0  0
 12 13  1  0  0  0  0
 12 33  1  0  0  0  0
 13 18  1  0  0  0  0
 13 14  1  0  0  0  0
 13 34  1  0  0  0  0
 14 15  1  0  0  0  0
 14 35  1  0  0  0  0
 14 36  1  0  0  0  0
 15 19  1  0  0  0  0
 15 16  1  0  0  0  0
 15 37  1  0  0  0  0
 16 17  1  0  0  0  0
 16 38  1  0  0  0  0
 16 39  1  0  0  0  0
 17 18  1  0  0  0  0
 17 40  1  0  0  0  0
 17 41  1  0  0  0  0
 18 19  1  0  0  0  0
 18 42  1  0  0  0  0
 20 21  2  0  0  0  0
 20 43  1  0  0  0  0
M  END
> <s_m_source_file>
AV-unprocessed.smi

> <i_m_source_file_index>
2816

> <i_lp_mmshare_version>
43012

> <i_f3d_flags>
0

> <s_epik_input>
W0NIM11DKFtDSDNdKShbQ0gzXSlTKD1PKSg9TyljMVtjSF1bY0hdYyhbY0hdbjEpW05IXVtDQEhdKFtDSDJdW0NAQEhdMjMpW0NAQEhdKE8zKVtDSDJdW0NIMl0y

> <s_epik_cmdline>
J2VwaWtfcHl0aG9uJywgJy1waCcsICc3LjAnLCAnLXRuJywgJzgnLCAnLW1hJywgJzIwMCcsICctbWV0YWxfYmluZGluZycsICctaW1hZScsICc8aW5maWxlLm1hZT4nLCAnLW9tYWUnLCAnPG91dGZpbGUubWFlPic=

> <r_lp_tautomer_probability>
1

> <r_epik_Ionization_Penalty>
1.94439e-07

> <r_epik_Ionization_Penalty_Charging>
0

> <r_epik_Ionization_Penalty_Neutral>
1.94439e-07

> <r_epik_State_Penalty>
-0

> <r_epik_Charging_Adjusted_Penalty>
0

> <i_epik_Tot_Q>
0

> <i_epik_Tot_abs_Q>
0

> <r_epik_Metal_State_Penalty>
-0

> <b_epik_Metal_Only>
0

> <s_lp_Force_Field>
OPLS_2005

> <r_lp_Energy>
43.8741

> <b_lp_Chiralities_Consistent>
1

> <s_lp_Variant>
AV-unprocessed.smi:2816-3

> <Gold.Version>
5.8.1

> <Gold.Id.Protein>
6NUR|6NUR_protein|mol2

> <Gold.PLP.Fitness>
42.4396

> <Gold.PLP.PLP>
-37.5574

> <Gold.PLP.part.hbond>
-2.0000

> <Gold.PLP.part.metal>
0.0000

> <Gold.PLP.part.buried>
-5.9450

> <Gold.PLP.part.nonpolar>
-30.0278

> <Gold.PLP.part.repulsive>
0.3694

> <Gold.PLP.ligand.clash>
0.0000

> <Gold.PLP.ligand.torsion>
1.6774

> <Gold.PLP.Chemscore.Hbond>
1.0000

> <Gold.PLP.Chemscore.CHOScore>
1.0000

> <Gold.PLP.Chemscore.Metal>
0.0000

> <Gold.Chemscore.Hbonds>
donor molecule, donor type, donor heavy atom, donor atom, acceptor molecule, acceptor atom, score
      P1  H 11000 11005       L1     7  0.88
      L1  C    20    43       P1 10957  1.00

> <Gold.PLP.Chemscore.Internal.Correction>
2.2370

> <Gold.Rescore>
     Score         DG    S(hbond)    S(metal)    S(lipo)     H(rot)  DE(clash)    DE(int)     intcor
     15.97     -17.70       0.96        0.00     102.09       1.15       0.08       1.65       ----

> <Gold.Chemscore.Fitness>
15.9663

> <Gold.Chemscore.DG>
-17.6961

> <Gold.Chemscore.ZeroCoef>
-5.4800

> <Gold.Chemscore.Hbond>
0.9606

> <Gold.Chemscore.Metal>
0.0000

> <Gold.Chemscore.Lipo>
102.0878

> <Gold.Chemscore.Internal_Hbond>
0.0000

> <Gold.Chemscore.DEClash>
0.0763

> <Gold.Chemscore.DEInternal>
1.6536

> <Gold.Chemscore.Rot>
1.1471

> <Gold.Chemscore.Internal.Correction>
   9.000000E+99

> <Gold.Chemscore.Hbonds>
donor molecule, donor type, donor heavy atom, donor atom, acceptor molecule, acceptor atom, score
      P1  H 11000 11005       L1     7  0.17

> <Gold.Chemscore.Hbond.Weighted>
-3.2085

> <Gold.Chemscore.Metal.Weighted>
-0.0000

> <Gold.Chemscore.Lipo.Weighted>
-11.9443

> <Gold.Chemscore.Internal_Hbond.Weighted>
0.0000

> <Gold.Chemscore.DEClash.Weighted>
0.0763

> <Gold.Chemscore.DEInternal.Weighted>
1.6536

> <Gold.Chemscore.Rot.Weighted>
2.9366

> <Gold.Chemscore.Internal.Correction.Weighted>
   9.000000E+99

> <Gold.Protein.RotatedTorsions>
[ 6907 6896 6895 6894 ] final  179.95 input  -60.11 | X-H torsion
[ 7974 7965 7964 7962 ] final  135.99 input  175.53 | X-H torsion
[ 8008 7997 7996 7995 ] final   -0.66 input   59.86 | X-H torsion
[ 10167 10162 10161 10158 ] final   52.00 input  -65.29 | X-H torsion
[ 10718 10713 10712 10709 ] final -104.57 input   66.30 | X-H torsion
[ 10763 10752 10751 10750 ] final   86.51 input  -60.55 | X-H torsion
[ 11005 11000 10999 10996 ] final   86.72 input  -57.11 | X-H torsion

> <Gold.Protein.ActiveResidues>
 VAL166  LYS551  ARG553  GLY616  TRP617  ASP618  TYR619  PRO620  LYS621  CYS622 
 ASP623  PHE694  ASN695  SER759  ASP760  ASP761  ALA762  ILE779  LEU786  VAL792 
 PHE793  MET794  SER795  GLU796  ALA797  LYS798  CYS799  TRP800  GLU811  SER814 

> <Gold.Protein.RotatedAtoms>
  151.6634  133.3316  159.3179 H   0  0  0  0  0  0  0  0  0  0  0  0  # atno 6907 bound_to 6896
  150.7902  134.6924  159.6514 H   0  0  0  0  0  0  0  0  0  0  0  0  # atno 6908 bound_to 6896
  152.3981  134.6336  160.0133 H   0  0  0  0  0  0  0  0  0  0  0  0  # atno 6909 bound_to 6896
  144.9609  139.4712  143.5480 H   0  0  0  0  0  0  0  0  0  0  0  0  # atno 7974 bound_to 7965
  154.6555  140.2578  155.7166 H   0  0  0  0  0  0  0  0  0  0  0  0  # atno 8008 bound_to 7997
  156.2595  140.2859  156.0928 H   0  0  0  0  0  0  0  0  0  0  0  0  # atno 8009 bound_to 7997
  155.1386  140.0380  157.2783 H   0  0  0  0  0  0  0  0  0  0  0  0  # atno 8010 bound_to 7997
  140.2560  144.3427  150.6333 H   0  0  0  0  0  0  0  0  0  0  0  0  # atno 10167 bound_to 10162
  156.0310  130.5521  150.7415 H   0  0  0  0  0  0  0  0  0  0  0  0  # atno 10718 bound_to 10713
  153.1577  135.4578  154.9728 H   0  0  0  0  0  0  0  0  0  0  0  0  # atno 10763 bound_to 10752
  154.7874  135.3209  154.7857 H   0  0  0  0  0  0  0  0  0  0  0  0  # atno 10764 bound_to 10752
  153.8352  135.6935  153.4864 H   0  0  0  0  0  0  0  0  0  0  0  0  # atno 10765 bound_to 10752
  139.8937  134.8374  156.2760 H   0  0  0  0  0  0  0  0  0  0  0  0  # atno 11005 bound_to 11000
  146.3352  139.8758  142.8832 LP  0  0  0  0  0  0  0  0  0  0  0  0  # atno 17320 bound_to 7965
  145.2702  141.0106  143.3776 LP  0  0  0  0  0  0  0  0  0  0  0  0  # atno 17321 bound_to 7965
  140.6004  143.2167  151.7084 LP  0  0  0  0  0  0  0  0  0  0  0  0  # atno 17342 bound_to 10162
  139.5031  144.3802  152.0383 LP  0  0  0  0  0  0  0  0  0  0  0  0  # atno 17343 bound_to 10162
  157.4983  131.0916  151.0345 LP  0  0  0  0  0  0  0  0  0  0  0  0  # atno 17370 bound_to 10713
  157.0733  130.5873  149.5406 LP  0  0  0  0  0  0  0  0  0  0  0  0  # atno 17371 bound_to 10713
  141.0070  133.7118  156.1050 LP  0  0  0  0  0  0  0  0  0  0  0  0  # atno 17394 bound_to 11000
  140.7420  134.4140  157.5553 LP  0  0  0  0  0  0  0  0  0  0  0  0  # atno 17395 bound_to 11000

$$$$
