AV-unprocessed.smi:2356|AV-procd|sdf|9394|dock2
  -GOLD-   2272013 23D 1   1.00000     0.00000
 Structure written by MMmdl.
 53 56  0  0  0  0  0  0  0  0  1 V2000
  152.8184  138.6978  154.8186 C   0  0  0  0  0  0  0  0  0  0  0  0
  152.2864  138.7431  156.2410 C   0  0  0  0  0  0  0  0  0  0  0  0
  152.7233  139.7795  156.9884 N   0  0  0  0  0  0  0  0  0  0  0  0
  152.3043  139.8951  158.2702 C   0  0  0  0  0  0  0  0  0  0  0  0
  152.7889  140.9927  159.0095 N   0  0  0  0  0  0  0  0  0  0  0  0
  152.2462  142.3319  158.8489 C   0  0  0  0  0  0  0  0  0  0  0  0
  152.9282  143.1625  159.9353 C   0  0  0  0  0  0  0  0  0  0  0  0
  153.1487  142.1511  161.0596 C   0  0  0  0  0  0  0  0  0  0  0  0
  153.3925  140.8276  160.3263 C   0  0  0  0  0  0  0  0  0  0  0  0
  151.4132  138.9591  158.8456 C   0  0  0  0  0  0  0  0  0  0  0  0
  150.9558  137.8791  158.0677 C   0  0  0  0  0  0  0  0  0  0  0  0
  151.3899  137.7626  156.7270 C   0  0  0  0  0  0  0  0  0  0  0  0
  151.0073  136.6963  155.8682 N   0  0  0  0  0  0  0  0  0  0  0  0
  150.4760  135.4991  156.1836 C   0  0  0  0  0  0  0  0  0  0  0  0
  150.2502  135.1114  157.3279 O   0  0  0  0  0  0  0  0  0  0  0  0
  150.1747  134.7364  155.1161 N   0  0  0  0  0  0  0  0  0  0  0  0
  149.5894  133.3931  155.1019 C   0  0  1  0  0  0  0  0  0  0  0  0
  149.0423  133.0673  153.7049 C   0  0  0  0  0  0  0  0  0  0  0  0
  148.5313  131.6173  153.6512 C   0  0  0  0  0  0  0  0  0  0  0  0
  149.5659  130.7158  154.0349 O   0  0  0  0  0  0  0  0  0  0  0  0
  150.0195  130.9181  155.3704 C   0  0  1  0  0  0  0  0  0  0  0  0
  151.0305  129.8403  155.7068 C   0  0  0  0  0  0  0  0  0  0  0  0
  152.0521  129.3871  154.6895 C   0  0  0  0  0  0  0  0  0  0  0  0
  150.9206  128.4684  155.0814 C   0  0  0  0  0  0  0  0  0  0  0  0
  150.6281  132.3259  155.4880 C   0  0  0  0  0  0  0  0  0  0  0  0
  152.0037  138.8312  154.1068 H   0  0  0  0  0  0  0  0  0  0  0  0
  153.2984  137.7393  154.6189 H   0  0  0  0  0  0  0  0  0  0  0  0
  153.5528  139.4842  154.6397 H   0  0  0  0  0  0  0  0  0  0  0  0
  152.4461  142.7329  157.8548 H   0  0  0  0  0  0  0  0  0  0  0  0
  151.1668  142.3072  159.0040 H   0  0  0  0  0  0  0  0  0  0  0  0
  153.8912  143.5260  159.5737 H   0  0  0  0  0  0  0  0  0  0  0  0
  152.3363  144.0243  160.2442 H   0  0  0  0  0  0  0  0  0  0  0  0
  153.9686  142.4238  161.7243 H   0  0  0  0  0  0  0  0  0  0  0  0
  152.2418  142.0732  161.6608 H   0  0  0  0  0  0  0  0  0  0  0  0
  152.9649  139.9915  160.8806 H   0  0  0  0  0  0  0  0  0  0  0  0
  154.4603  140.6448  160.2021 H   0  0  0  0  0  0  0  0  0  0  0  0
  151.0787  139.0475  159.8682 H   0  0  0  0  0  0  0  0  0  0  0  0
  150.2957  137.1557  158.5201 H   0  0  0  0  0  0  0  0  0  0  0  0
  151.0632  136.9001  154.8811 H   0  0  0  0  0  0  0  0  0  0  0  0
  150.3579  135.1429  154.2100 H   0  0  0  0  0  0  0  0  0  0  0  0
  148.7545  133.3548  155.8043 H   0  0  0  0  0  0  0  0  0  0  0  0
  148.2395  133.7566  153.4404 H   0  0  0  0  0  0  0  0  0  0  0  0
  149.8265  133.1983  152.9578 H   0  0  0  0  0  0  0  0  0  0  0  0
  147.6643  131.4874  154.3008 H   0  0  0  0  0  0  0  0  0  0  0  0
  148.2084  131.3717  152.6394 H   0  0  0  0  0  0  0  0  0  0  0  0
  149.1747  130.8251  156.0556 H   0  0  0  0  0  0  0  0  0  0  0  0
  151.3623  129.8579  156.7434 H   0  0  0  0  0  0  0  0  0  0  0  0
  152.0150  129.8336  153.6979 H   0  0  0  0  0  0  0  0  0  0  0  0
  153.0481  129.1426  155.0532 H   0  0  0  0  0  0  0  0  0  0  0  0
  151.1597  127.6116  155.7079 H   0  0  0  0  0  0  0  0  0  0  0  0
  150.1294  128.3058  154.3517 H   0  0  0  0  0  0  0  0  0  0  0  0
  151.4998  132.4045  154.8365 H   0  0  0  0  0  0  0  0  0  0  0  0
  150.9864  132.4873  156.5044 H   0  0  0  0  0  0  0  0  0  0  0  0
  1  2  1  0  0  0  0
  1 26  1  0  0  0  0
  1 27  1  0  0  0  0
  1 28  1  0  0  0  0
  2 12  1  0  0  0  0
  2  3  2  0  0  0  0
  3  4  1  0  0  0  0
  4  5  1  0  0  0  0
  4 10  2  0  0  0  0
  5  9  1  0  0  0  0
  5  6  1  0  0  0  0
  6  7  1  0  0  0  0
  6 29  1  0  0  0  0
  6 30  1  0  0  0  0
  7  8  1  0  0  0  0
  7 31  1  0  0  0  0
  7 32  1  0  0  0  0
  8  9  1  0  0  0  0
  8 33  1  0  0  0  0
  8 34  1  0  0  0  0
  9 35  1  0  0  0  0
  9 36  1  0  0  0  0
 10 11  1  0  0  0  0
 10 37  1  0  0  0  0
 11 12  2  0  0  0  0
 11 38  1  0  0  0  0
 12 13  1  0  0  0  0
 13 14  1  0  0  0  0
 13 39  1  0  0  0  0
 14 15  2  0  0  0  0
 14 16  1  0  0  0  0
 16 17  1  0  0  0  0
 16 40  1  0  0  0  0
 17 25  1  0  0  0  0
 17 18  1  0  0  0  0
 17 41  1  0  0  0  0
 18 19  1  0  0  0  0
 18 42  1  0  0  0  0
 18 43  1  0  0  0  0
 19 20  1  0  0  0  0
 19 44  1  0  0  0  0
 19 45  1  0  0  0  0
 20 21  1  0  0  0  0
 21 22  1  0  0  0  0
 21 25  1  0  0  0  0
 21 46  1  0  0  0  0
 22 24  1  0  0  0  0
 22 23  1  0  0  0  0
 22 47  1  0  0  0  0
 23 24  1  0  0  0  0
 23 48  1  0  0  0  0
 23 49  1  0  0  0  0
 24 50  1  0  0  0  0
 24 51  1  0  0  0  0
 25 52  1  0  0  0  0
 25 53  1  0  0  0  0
M  END
> <s_m_source_file>
AV-unprocessed.smi

> <i_m_source_file_index>
2356

> <i_lp_mmshare_version>
43012

> <i_f3d_flags>
0

> <s_epik_input>
W0NIMl0xW0NIMl1bQ0gyXVtDSDJdTjFjKG5jMltDSDNdKVtjSF1bY0hdYzJbTkhdQyg9TylbTkhdW0NAQEhdM1tDSDJdW0NIMl1PW0NASF0oW0NIMl0zKVtDSF00W0NIMl1bQ0gyXTQ=

> <s_epik_cmdline>
J2VwaWtfcHl0aG9uJywgJy1waCcsICc3LjAnLCAnLXRuJywgJzgnLCAnLW1hJywgJzIwMCcsICctbWV0YWxfYmluZGluZycsICctaW1hZScsICc8aW5maWxlLm1hZT4nLCAnLW9tYWUnLCAnPG91dGZpbGUubWFlPic=

> <r_lp_tautomer_probability>
1

> <r_epik_Ionization_Penalty>
0.308781

> <r_epik_Ionization_Penalty_Charging>
0

> <r_epik_Ionization_Penalty_Neutral>
0.308781

> <r_epik_State_Penalty>
0.302092

> <r_epik_Charging_Adjusted_Penalty>
0.302092

> <i_epik_Tot_Q>
0

> <i_epik_Tot_abs_Q>
0

> <r_epik_Metal_State_Penalty>
0.197467

> <b_epik_Metal_Only>
0

> <s_lp_Force_Field>
OPLS_2005

> <r_lp_Energy>
52.5469

> <b_lp_Chiralities_Consistent>
1

> <s_lp_Variant>
AV-unprocessed.smi:2356-2

> <Gold.Version>
5.8.1

> <Gold.Id.Protein>
6NUR|6NUR_protein|mol2

> <Gold.PLP.Fitness>
48.0866

> <Gold.PLP.PLP>
-46.8453

> <Gold.PLP.part.hbond>
-2.0000

> <Gold.PLP.part.metal>
0.0000

> <Gold.PLP.part.buried>
-5.5441

> <Gold.PLP.part.nonpolar>
-39.6488

> <Gold.PLP.part.repulsive>
0.2461

> <Gold.PLP.ligand.clash>
0.0000

> <Gold.PLP.ligand.torsion>
1.9985

> <Gold.PLP.Chemscore.Hbond>
1.3175

> <Gold.PLP.Chemscore.CHOScore>
0.0000

> <Gold.PLP.Chemscore.Metal>
0.0000

> <Gold.Chemscore.Hbonds>
donor molecule, donor type, donor heavy atom, donor atom, acceptor molecule, acceptor atom, score
      P1  H  6896  6908       L1    15  0.20
      P1  H  7997  8008       L1     3  1.00

> <Gold.PLP.Chemscore.Internal.Correction>
1.2860

> <Gold.Rescore>
     Score         DG    S(hbond)    S(metal)    S(lipo)     H(rot)  DE(clash)    DE(int)     intcor
     17.11     -20.32       1.62        0.00     105.63       1.14       0.00       3.21       ----

> <Gold.Chemscore.Fitness>
17.1110

> <Gold.Chemscore.DG>
-20.3184

> <Gold.Chemscore.ZeroCoef>
-5.4800

> <Gold.Chemscore.Hbond>
1.6159

> <Gold.Chemscore.Metal>
0.0000

> <Gold.Chemscore.Lipo>
105.6269

> <Gold.Chemscore.Internal_Hbond>
0.0000

> <Gold.Chemscore.DEClash>
0.0000

> <Gold.Chemscore.DEInternal>
3.2074

> <Gold.Chemscore.Rot>
1.1395

> <Gold.Chemscore.Internal.Correction>
   9.000000E+99

> <Gold.Chemscore.Hbonds>
donor molecule, donor type, donor heavy atom, donor atom, acceptor molecule, acceptor atom, score
      P1  H  6896  6908       L1    15  0.21
      P1  H  7997  8008       L1     3  0.68

> <Gold.Chemscore.Hbond.Weighted>
-5.3972

> <Gold.Chemscore.Metal.Weighted>
-0.0000

> <Gold.Chemscore.Lipo.Weighted>
-12.3583

> <Gold.Chemscore.Internal_Hbond.Weighted>
0.0000

> <Gold.Chemscore.DEClash.Weighted>
0.0000

> <Gold.Chemscore.DEInternal.Weighted>
3.2074

> <Gold.Chemscore.Rot.Weighted>
2.9171

> <Gold.Chemscore.Internal.Correction.Weighted>
   9.000000E+99

> <Gold.Protein.RotatedTorsions>
[ 6907 6896 6895 6894 ] final  168.07 input  -60.11 | X-H torsion
[ 7974 7965 7964 7962 ] final   72.43 input  175.53 | X-H torsion
[ 8008 7997 7996 7995 ] final  -58.06 input   59.86 | X-H torsion
[ 10167 10162 10161 10158 ] final   10.04 input  -65.29 | X-H torsion
[ 10718 10713 10712 10709 ] final  104.92 input   66.30 | X-H torsion
[ 10763 10752 10751 10750 ] final  -12.16 input  -60.55 | X-H torsion
[ 11005 11000 10999 10996 ] final  158.03 input  -57.11 | X-H torsion

> <Gold.Protein.ActiveResidues>
 VAL166  LYS551  ARG553  GLY616  TRP617  ASP618  TYR619  PRO620  LYS621  CYS622 
 ASP623  PHE694  ASN695  SER759  ASP760  ASP761  ALA762  ILE779  LEU786  VAL792 
 PHE793  MET794  SER795  GLU796  ALA797  LYS798  CYS799  TRP800  GLU811  SER814 

> <Gold.Protein.RotatedAtoms>
  151.8533  133.3444  159.3680 H   0  0  0  0  0  0  0  0  0  0  0  0  # atno 6907 bound_to 6896
  150.7200  134.5277  159.5694 H   0  0  0  0  0  0  0  0  0  0  0  0  # atno 6908 bound_to 6896
  152.2775  134.7865  160.0454 H   0  0  0  0  0  0  0  0  0  0  0  0  # atno 6909 bound_to 6896
  145.7535  139.2770  143.1417 H   0  0  0  0  0  0  0  0  0  0  0  0  # atno 7974 bound_to 7965
  154.4293  140.1093  156.5896 H   0  0  0  0  0  0  0  0  0  0  0  0  # atno 8008 bound_to 7997
  155.6026  140.3493  155.4579 H   0  0  0  0  0  0  0  0  0  0  0  0  # atno 8009 bound_to 7997
  156.0162  140.1229  157.0394 H   0  0  0  0  0  0  0  0  0  0  0  0  # atno 8010 bound_to 7997
  140.6218  143.8187  150.7184 H   0  0  0  0  0  0  0  0  0  0  0  0  # atno 10167 bound_to 10162
  157.6724  131.0815  150.5779 H   0  0  0  0  0  0  0  0  0  0  0  0  # atno 10718 bound_to 10713
  153.4943  135.7017  153.5866 H   0  0  0  0  0  0  0  0  0  0  0  0  # atno 10763 bound_to 10752
  153.4025  135.3868  155.1997 H   0  0  0  0  0  0  0  0  0  0  0  0  # atno 10764 bound_to 10752
  154.8715  135.3885  154.4407 H   0  0  0  0  0  0  0  0  0  0  0  0  # atno 10765 bound_to 10752
  140.1826  134.8464  157.2821 H   0  0  0  0  0  0  0  0  0  0  0  0  # atno 11005 bound_to 11000
  146.0334  140.8236  142.9865 LP  0  0  0  0  0  0  0  0  0  0  0  0  # atno 17320 bound_to 7965
  144.6845  140.2802  143.7293 LP  0  0  0  0  0  0  0  0  0  0  0  0  # atno 17321 bound_to 7965
  140.1779  143.4139  152.1954 LP  0  0  0  0  0  0  0  0  0  0  0  0  # atno 17342 bound_to 10162
  139.5445  144.7286  151.4626 LP  0  0  0  0  0  0  0  0  0  0  0  0  # atno 17343 bound_to 10162
  156.6079  130.4372  149.5870 LP  0  0  0  0  0  0  0  0  0  0  0  0  # atno 17370 bound_to 10713
  156.2453  130.6875  151.1595 LP  0  0  0  0  0  0  0  0  0  0  0  0  # atno 17371 bound_to 10713
  140.2249  134.3978  155.7548 LP  0  0  0  0  0  0  0  0  0  0  0  0  # atno 17394 bound_to 11000
  141.2223  133.7185  156.8550 LP  0  0  0  0  0  0  0  0  0  0  0  0  # atno 17395 bound_to 11000

$$$$
