AV-unprocessed.smi:2103|AV-procd|sdf|8582|dock9
  -GOLD-   2272011313D 1   1.00000     0.00000
 Structure written by MMmdl.
 38 39  0  0  0  0  0  0  0  0  1 V2000
  146.5632  141.5772  157.6236 C   0  0  0  0  0  0  0  0  0  0  0  0
  147.4212  141.4533  156.4637 N   0  0  0  0  0  0  0  0  0  0  0  0
  146.9393  141.8787  155.2019 C   0  0  0  0  0  0  0  0  0  0  0  0
  145.8121  142.3490  155.0449 O   0  0  0  0  0  0  0  0  0  0  0  0
  147.8855  141.7061  154.1061 C   0  0  0  0  0  0  0  0  0  0  0  0
  149.1083  141.1736  154.3216 C   0  0  0  0  0  0  0  0  0  0  0  0
  149.5503  140.7562  155.5637 N   0  0  0  0  0  0  0  0  0  0  0  0
  150.8991  140.1909  155.7015 C   0  0  0  0  0  0  0  0  0  0  0  0
  151.7375  140.8574  156.8018 C   0  0  0  0  0  0  0  0  0  0  0  0
  152.6518  140.2513  157.3626 O   0  0  0  0  0  0  0  0  0  0  0  0
  151.3990  142.1196  157.1049 N   0  0  0  0  0  0  0  0  0  0  0  0
  152.0552  142.9562  158.1052 C   0  0  0  0  0  0  0  0  0  0  0  0
  151.9991  142.2962  159.4998 C   0  0  0  0  0  0  0  0  0  0  0  0
  152.6127  143.2050  160.5772 C   0  0  0  0  0  0  0  0  0  0  0  0
  151.9384  144.5856  160.5944 C   0  0  0  0  0  0  0  0  0  0  0  0
  151.9999  145.2491  159.2099 C   0  0  0  0  0  0  0  0  0  0  0  0
  151.3843  144.3432  158.1313 C   0  0  0  0  0  0  0  0  0  0  0  0
  148.6966  140.8867  156.6800 C   0  0  0  0  0  0  0  0  0  0  0  0
  149.0611  140.5149  157.7985 O   0  0  0  0  0  0  0  0  0  0  0  0
  145.6765  142.1685  157.3971 H   0  0  0  0  0  0  0  0  0  0  0  0
  147.1336  142.0815  158.4060 H   0  0  0  0  0  0  0  0  0  0  0  0
  146.2838  140.5657  157.9223 H   0  0  0  0  0  0  0  0  0  0  0  0
  147.6030  142.0089  153.1084 H   0  0  0  0  0  0  0  0  0  0  0  0
  149.7739  141.0701  153.4768 H   0  0  0  0  0  0  0  0  0  0  0  0
  150.8401  139.1187  155.8969 H   0  0  0  0  0  0  0  0  0  0  0  0
  151.4357  140.2869  154.7564 H   0  0  0  0  0  0  0  0  0  0  0  0
  150.6322  142.5367  156.5975 H   0  0  0  0  0  0  0  0  0  0  0  0
  153.1004  143.0898  157.8191 H   0  0  0  0  0  0  0  0  0  0  0  0
  150.9639  142.0729  159.7617 H   0  0  0  0  0  0  0  0  0  0  0  0
  152.5267  141.3420  159.4894 H   0  0  0  0  0  0  0  0  0  0  0  0
  152.5208  142.7343  161.5564 H   0  0  0  0  0  0  0  0  0  0  0  0
  153.6808  143.3221  160.3895 H   0  0  0  0  0  0  0  0  0  0  0  0
  150.8976  144.4803  160.9033 H   0  0  0  0  0  0  0  0  0  0  0  0
  152.4181  145.2251  161.3357 H   0  0  0  0  0  0  0  0  0  0  0  0
  151.4779  146.2060  159.2338 H   0  0  0  0  0  0  0  0  0  0  0  0
  153.0373  145.4686  158.9543 H   0  0  0  0  0  0  0  0  0  0  0  0
  151.4751  144.8218  157.1555 H   0  0  0  0  0  0  0  0  0  0  0  0
  150.3158  144.2329  158.3227 H   0  0  0  0  0  0  0  0  0  0  0  0
  1  2  1  0  0  0  0
  1 20  1  0  0  0  0
  1 21  1  0  0  0  0
  1 22  1  0  0  0  0
  2 18  1  0  0  0  0
  2  3  1  0  0  0  0
  3  4  2  0  0  0  0
  3  5  1  0  0  0  0
  5  6  2  0  0  0  0
  5 23  1  0  0  0  0
  6  7  1  0  0  0  0
  6 24  1  0  0  0  0
  7  8  1  0  0  0  0
  7 18  1  0  0  0  0
  8  9  1  0  0  0  0
  8 25  1  0  0  0  0
  8 26  1  0  0  0  0
  9 10  2  0  0  0  0
  9 11  1  0  0  0  0
 11 12  1  0  0  0  0
 11 27  1  0  0  0  0
 12 17  1  0  0  0  0
 12 13  1  0  0  0  0
 12 28  1  0  0  0  0
 13 14  1  0  0  0  0
 13 29  1  0  0  0  0
 13 30  1  0  0  0  0
 14 15  1  0  0  0  0
 14 31  1  0  0  0  0
 14 32  1  0  0  0  0
 15 16  1  0  0  0  0
 15 33  1  0  0  0  0
 15 34  1  0  0  0  0
 16 17  1  0  0  0  0
 16 35  1  0  0  0  0
 16 36  1  0  0  0  0
 17 37  1  0  0  0  0
 17 38  1  0  0  0  0
 18 19  2  0  0  0  0
M  END
> <s_m_source_file>
AV-unprocessed.smi

> <i_m_source_file_index>
2103

> <i_lp_mmshare_version>
43012

> <i_f3d_flags>
0

> <s_epik_input>
W0NIM11uMWMoPU8pW2NIXVtjSF1uKGMxPU8pW0NIMl1DKD1PKVtOSF1bQ0hdMltDSDJdW0NIMl1bQ0gyXVtDSDJdW0NIMl0y

> <s_epik_cmdline>
J2VwaWtfcHl0aG9uJywgJy1waCcsICc3LjAnLCAnLXRuJywgJzgnLCAnLW1hJywgJzIwMCcsICctbWV0YWxfYmluZGluZycsICctaW1hZScsICc8aW5maWxlLm1hZT4nLCAnLW9tYWUnLCAnPG91dGZpbGUubWFlPic=

> <r_lp_tautomer_probability>
1

> <r_epik_Ionization_Penalty>
3.18221e-08

> <r_epik_Ionization_Penalty_Charging>
1.27752e-08

> <r_epik_Ionization_Penalty_Neutral>
1.90469e-08

> <r_epik_State_Penalty>
-0

> <r_epik_Charging_Adjusted_Penalty>
1.27752e-08

> <i_epik_Tot_Q>
0

> <i_epik_Tot_abs_Q>
0

> <r_epik_Metal_State_Penalty>
-0

> <b_epik_Metal_Only>
0

> <s_lp_Force_Field>
OPLS_2005

> <r_lp_Energy>
16.4869

> <b_lp_Chiralities_Consistent>
1

> <s_lp_Variant>
AV-unprocessed.smi:2103-1

> <Gold.Version>
5.8.1

> <Gold.Id.Protein>
6NUR|6NUR_protein|mol2

> <Gold.PLP.Fitness>
45.0173

> <Gold.PLP.PLP>
-39.8758

> <Gold.PLP.part.hbond>
-1.0000

> <Gold.PLP.part.metal>
0.0000

> <Gold.PLP.part.buried>
-5.0194

> <Gold.PLP.part.nonpolar>
-34.4141

> <Gold.PLP.part.repulsive>
0.2730

> <Gold.PLP.ligand.clash>
0.0000

> <Gold.PLP.ligand.torsion>
0.4186

> <Gold.PLP.Chemscore.Hbond>
0.9913

> <Gold.PLP.Chemscore.CHOScore>
1.0000

> <Gold.PLP.Chemscore.Metal>
0.0000

> <Gold.Chemscore.Hbonds>
donor molecule, donor type, donor heavy atom, donor atom, acceptor molecule, acceptor atom, score
      P1  H  7997  8010       L1    10  0.99
      L1  C     6    24       P1  7957  1.00

> <Gold.PLP.Chemscore.Internal.Correction>
0.0050

> <Gold.Rescore>
     Score         DG    S(hbond)    S(metal)    S(lipo)     H(rot)  DE(clash)    DE(int)     intcor
     14.93     -15.44       0.96        0.00      91.53       1.54       0.09       0.43       ----

> <Gold.Chemscore.Fitness>
14.9328

> <Gold.Chemscore.DG>
-15.4449

> <Gold.Chemscore.ZeroCoef>
-5.4800

> <Gold.Chemscore.Hbond>
0.9563

> <Gold.Chemscore.Metal>
0.0000

> <Gold.Chemscore.Lipo>
91.5301

> <Gold.Chemscore.Internal_Hbond>
0.0000

> <Gold.Chemscore.DEClash>
0.0855

> <Gold.Chemscore.DEInternal>
0.4266

> <Gold.Chemscore.Rot>
1.5383

> <Gold.Chemscore.Internal.Correction>
   9.000000E+99

> <Gold.Chemscore.Hbonds>
donor molecule, donor type, donor heavy atom, donor atom, acceptor molecule, acceptor atom, score
      P1  H  7997  8010       L1    10  0.94

> <Gold.Chemscore.Hbond.Weighted>
-3.1939

> <Gold.Chemscore.Metal.Weighted>
-0.0000

> <Gold.Chemscore.Lipo.Weighted>
-10.7090

> <Gold.Chemscore.Internal_Hbond.Weighted>
0.0000

> <Gold.Chemscore.DEClash.Weighted>
0.0855

> <Gold.Chemscore.DEInternal.Weighted>
0.4266

> <Gold.Chemscore.Rot.Weighted>
3.9380

> <Gold.Chemscore.Internal.Correction.Weighted>
   9.000000E+99

> <Gold.Protein.RotatedTorsions>
[ 6907 6896 6895 6894 ] final  -48.87 input  -60.11 | X-H torsion
[ 7974 7965 7964 7962 ] final  -78.03 input  175.53 | X-H torsion
[ 8008 7997 7996 7995 ] final   57.66 input   59.86 | X-H torsion
[ 10167 10162 10161 10158 ] final   45.58 input  -65.29 | X-H torsion
[ 10718 10713 10712 10709 ] final    1.14 input   66.30 | X-H torsion
[ 10763 10752 10751 10750 ] final  -83.71 input  -60.55 | X-H torsion
[ 11005 11000 10999 10996 ] final  -99.60 input  -57.11 | X-H torsion

> <Gold.Protein.ActiveResidues>
 VAL166  LYS551  ARG553  GLY616  TRP617  ASP618  TYR619  PRO620  LYS621  CYS622 
 ASP623  PHE694  ASN695  SER759  ASP760  ASP761  ALA762  ILE779  LEU786  VAL792 
 PHE793  MET794  SER795  GLU796  ALA797  LYS798  CYS799  TRP800  GLU811  SER814 

> <Gold.Protein.RotatedAtoms>
  150.8862  134.8260  159.7260 H   0  0  0  0  0  0  0  0  0  0  0  0  # atno 6907 bound_to 6896
  152.4809  134.4719  159.9648 H   0  0  0  0  0  0  0  0  0  0  0  0  # atno 6908 bound_to 6896
  151.4787  133.3513  159.2870 H   0  0  0  0  0  0  0  0  0  0  0  0  # atno 6909 bound_to 6896
  145.5919  140.9427  143.1287 H   0  0  0  0  0  0  0  0  0  0  0  0  # atno 7974 bound_to 7965
  155.5374  140.3483  155.4439 H   0  0  0  0  0  0  0  0  0  0  0  0  # atno 8008 bound_to 7997
  156.0675  140.1355  156.9895 H   0  0  0  0  0  0  0  0  0  0  0  0  # atno 8009 bound_to 7997
  154.4511  140.0972  156.6594 H   0  0  0  0  0  0  0  0  0  0  0  0  # atno 8010 bound_to 7997
  140.3227  144.2686  150.6180 H   0  0  0  0  0  0  0  0  0  0  0  0  # atno 10167 bound_to 10162
  156.8438  130.5530  149.5675 H   0  0  0  0  0  0  0  0  0  0  0  0  # atno 10718 bound_to 10713
  154.5910  135.5546  153.7278 H   0  0  0  0  0  0  0  0  0  0  0  0  # atno 10763 bound_to 10752
  153.0117  135.6343  154.1849 H   0  0  0  0  0  0  0  0  0  0  0  0  # atno 10764 bound_to 10752
  154.1790  135.2888  155.3038 H   0  0  0  0  0  0  0  0  0  0  0  0  # atno 10765 bound_to 10752
  141.1303  133.8334  157.0992 H   0  0  0  0  0  0  0  0  0  0  0  0  # atno 11005 bound_to 11000
  144.7347  139.7620  143.7334 LP  0  0  0  0  0  0  0  0  0  0  0  0  # atno 17320 bound_to 7965
  146.1640  139.4765  142.9970 LP  0  0  0  0  0  0  0  0  0  0  0  0  # atno 17321 bound_to 7965
  140.5469  143.2213  151.7992 LP  0  0  0  0  0  0  0  0  0  0  0  0  # atno 17342 bound_to 10162
  139.4871  144.4527  151.9634 LP  0  0  0  0  0  0  0  0  0  0  0  0  # atno 17343 bound_to 10162
  156.0866  130.5863  150.9659 LP  0  0  0  0  0  0  0  0  0  0  0  0  # atno 17370 bound_to 10713
  157.6341  131.0918  150.8383 LP  0  0  0  0  0  0  0  0  0  0  0  0  # atno 17371 bound_to 10713
  140.0344  134.9885  157.0842 LP  0  0  0  0  0  0  0  0  0  0  0  0  # atno 17394 bound_to 11000
  140.4234  134.1856  155.7165 LP  0  0  0  0  0  0  0  0  0  0  0  0  # atno 17395 bound_to 11000

$$$$
