AV-unprocessed.smi:3094|AV-procd|sdf|11790|dock2
  -GOLD-   2272017163D 1   1.00000     0.00000
 Structure written by MMmdl.
 29 30  0  0  0  0  0  0  0  0  1 V2000
  150.5579  141.7900  158.2556 C   0  0  0  0  0  0  0  0  0  0  0  0
  151.0371  142.3675  156.9151 C   0  0  2  0  0  0  0  0  0  0  0  0
  151.5311  143.8184  157.0697 C   0  0  0  0  0  0  0  0  0  0  0  0
  151.6336  144.2195  158.4609 N   0  0  0  0  0  0  0  0  0  0  0  0
  152.5316  143.7419  159.4063 C   0  0  0  0  0  0  0  0  0  0  0  0
  152.2611  144.4108  160.5786 C   0  0  0  0  0  0  0  0  0  0  0  0
  151.2050  145.2969  160.3797 N   0  0  0  0  0  0  0  0  0  0  0  0
  150.8846  145.1260  159.1037 C   0  0  0  0  0  0  0  0  0  0  0  0
  149.9561  142.3078  155.9326 N   0  0  0  0  0  0  0  0  0  0  0  0
  149.7840  141.3390  155.0204 C   0  0  0  0  0  0  0  0  0  0  0  0
  150.5270  140.3610  154.9290 O   0  0  0  0  0  0  0  0  0  0  0  0
  148.6093  141.5563  154.1240 C   0  0  0  0  0  0  0  0  0  0  0  0
  147.2787  141.8769  154.7737 C   0  0  0  0  0  0  0  0  0  0  0  0
  147.5035  140.5209  154.1530 C   0  0  0  0  0  0  0  0  0  0  0  0
  151.3559  141.8102  158.9982 H   0  0  0  0  0  0  0  0  0  0  0  0
  150.2388  140.7528  158.1472 H   0  0  0  0  0  0  0  0  0  0  0  0
  149.7170  142.3579  158.6552 H   0  0  0  0  0  0  0  0  0  0  0  0
  151.8766  141.7621  156.5677 H   0  0  0  0  0  0  0  0  0  0  0  0
  152.5025  143.9498  156.5901 H   0  0  0  0  0  0  0  0  0  0  0  0
  150.8425  144.5040  156.5746 H   0  0  0  0  0  0  0  0  0  0  0  0
  153.2703  142.9894  159.1721 H   0  0  0  0  0  0  0  0  0  0  0  0
  152.7415  144.3227  161.5419 H   0  0  0  0  0  0  0  0  0  0  0  0
  150.0890  145.6770  158.6236 H   0  0  0  0  0  0  0  0  0  0  0  0
  149.2969  143.0724  155.9360 H   0  0  0  0  0  0  0  0  0  0  0  0
  148.8108  142.0278  153.1631 H   0  0  0  0  0  0  0  0  0  0  0  0
  147.2282  141.9278  155.8600 H   0  0  0  0  0  0  0  0  0  0  0  0
  146.6310  142.5776  154.2508 H   0  0  0  0  0  0  0  0  0  0  0  0
  147.0084  140.3019  153.2092 H   0  0  0  0  0  0  0  0  0  0  0  0
  147.6022  139.6720  154.8275 H   0  0  0  0  0  0  0  0  0  0  0  0
  1  2  1  0  0  0  0
  1 15  1  0  0  0  0
  1 16  1  0  0  0  0
  1 17  1  0  0  0  0
  2  3  1  0  0  0  0
  2  9  1  0  0  0  0
  2 18  1  0  0  0  0
  3  4  1  0  0  0  0
  3 19  1  0  0  0  0
  3 20  1  0  0  0  0
  4  8  1  0  0  0  0
  4  5  1  0  0  0  0
  5  6  2  0  0  0  0
  5 21  1  0  0  0  0
  6  7  1  0  0  0  0
  6 22  1  0  0  0  0
  7  8  2  0  0  0  0
  8 23  1  0  0  0  0
  9 10  1  0  0  0  0
  9 24  1  0  0  0  0
 10 11  2  0  0  0  0
 10 12  1  0  0  0  0
 12 14  1  0  0  0  0
 12 13  1  0  0  0  0
 12 25  1  0  0  0  0
 13 14  1  0  0  0  0
 13 26  1  0  0  0  0
 13 27  1  0  0  0  0
 14 28  1  0  0  0  0
 14 29  1  0  0  0  0
M  END
> <s_m_source_file>
AV-unprocessed.smi

> <i_m_source_file_index>
3094

> <i_lp_mmshare_version>
43012

> <i_f3d_flags>
0

> <s_epik_input>
W0NIMl0xW0NIMl1bQ0hdMUMoPU8pW05IXVtDQEhdKFtDSDNdKVtDSDJdbjJbY0hdW2NIXW5bY0hdMg==

> <s_epik_cmdline>
J2VwaWtfcHl0aG9uJywgJy1waCcsICc3LjAnLCAnLXRuJywgJzgnLCAnLW1hJywgJzIwMCcsICctbWV0YWxfYmluZGluZycsICctaW1hZScsICc8aW5maWxlLm1hZT4nLCAnLW9tYWUnLCAnPG91dGZpbGUubWFlPic=

> <r_lp_tautomer_probability>
1

> <r_epik_Ionization_Penalty>
0.642614

> <r_epik_Ionization_Penalty_Charging>
0.642614

> <r_epik_Ionization_Penalty_Neutral>
4.09963e-08

> <r_epik_State_Penalty>
0.660429

> <r_epik_Charging_Adjusted_Penalty>
1.30304

> <i_epik_Tot_Q>
0

> <i_epik_Tot_abs_Q>
0

> <r_epik_Metal_State_Penalty>
0.31224

> <b_epik_Metal_Only>
0

> <s_lp_Force_Field>
OPLS_2005

> <r_lp_Energy>
8.14958

> <b_lp_Chiralities_Consistent>
1

> <s_lp_Variant>
AV-unprocessed.smi:3094-3

> <Gold.Version>
5.8.1

> <Gold.Id.Protein>
6NUR|6NUR_protein|mol2

> <Gold.PLP.Fitness>
41.2408

> <Gold.PLP.PLP>
-34.4288

> <Gold.PLP.part.hbond>
-2.0000

> <Gold.PLP.part.metal>
0.0000

> <Gold.PLP.part.buried>
-2.7924

> <Gold.PLP.part.nonpolar>
-29.6303

> <Gold.PLP.part.repulsive>
0.4224

> <Gold.PLP.ligand.clash>
0.0000

> <Gold.PLP.ligand.torsion>
1.1605

> <Gold.PLP.Chemscore.Hbond>
2.0000

> <Gold.PLP.Chemscore.CHOScore>
1.0000

> <Gold.PLP.Chemscore.Metal>
0.0000

> <Gold.Chemscore.Hbonds>
donor molecule, donor type, donor heavy atom, donor atom, acceptor molecule, acceptor atom, score
      L1  H     9    24       P1  8028  1.00
      P1  H  7989  7998       L1    11  1.00
      L1  C     8    23       P1  8029  0.90

> <Gold.PLP.Chemscore.Internal.Correction>
0.1331

> <Gold.Rescore>
     Score         DG    S(hbond)    S(metal)    S(lipo)     H(rot)  DE(clash)    DE(int)     intcor
     13.04     -14.76       1.68        0.00      71.59       1.83       0.47       1.26       ----

> <Gold.Chemscore.Fitness>
13.0364

> <Gold.Chemscore.DG>
-14.7646

> <Gold.Chemscore.ZeroCoef>
-5.4800

> <Gold.Chemscore.Hbond>
1.6781

> <Gold.Chemscore.Metal>
0.0000

> <Gold.Chemscore.Lipo>
71.5944

> <Gold.Chemscore.Internal_Hbond>
0.0000

> <Gold.Chemscore.DEClash>
0.4652

> <Gold.Chemscore.DEInternal>
1.2629

> <Gold.Chemscore.Rot>
1.8347

> <Gold.Chemscore.Internal.Correction>
   9.000000E+99

> <Gold.Chemscore.Hbonds>
donor molecule, donor type, donor heavy atom, donor atom, acceptor molecule, acceptor atom, score
      L1  H     9    24       P1  8028  0.96
      P1  H  7989  7998       L1    11  0.29

> <Gold.Chemscore.Hbond.Weighted>
-5.6049

> <Gold.Chemscore.Metal.Weighted>
-0.0000

> <Gold.Chemscore.Lipo.Weighted>
-8.3765

> <Gold.Chemscore.Internal_Hbond.Weighted>
0.0000

> <Gold.Chemscore.DEClash.Weighted>
0.4652

> <Gold.Chemscore.DEInternal.Weighted>
1.2629

> <Gold.Chemscore.Rot.Weighted>
4.6969

> <Gold.Chemscore.Internal.Correction.Weighted>
   9.000000E+99

> <Gold.Protein.RotatedTorsions>
[ 6907 6896 6895 6894 ] final -106.57 input  -60.11 | X-H torsion
[ 7974 7965 7964 7962 ] final   23.56 input  175.53 | X-H torsion
[ 8008 7997 7996 7995 ] final  129.43 input   59.86 | X-H torsion
[ 10167 10162 10161 10158 ] final   -8.58 input  -65.29 | X-H torsion
[ 10718 10713 10712 10709 ] final  -76.19 input   66.30 | X-H torsion
[ 10763 10752 10751 10750 ] final   92.38 input  -60.55 | X-H torsion
[ 11005 11000 10999 10996 ] final  -51.68 input  -57.11 | X-H torsion

> <Gold.Protein.ActiveResidues>
 VAL166  LYS551  ARG553  GLY616  TRP617  ASP618  TYR619  PRO620  LYS621  CYS622 
 ASP623  PHE694  ASN695  SER759  ASP760  ASP761  ALA762  ILE779  LEU786  VAL792 
 PHE793  MET794  SER795  GLU796  ALA797  LYS798  CYS799  TRP800  GLU811  SER814 

> <Gold.Protein.RotatedAtoms>
  150.7396  133.9957  159.3621 H   0  0  0  0  0  0  0  0  0  0  0  0  # atno 6907 bound_to 6896
  151.7908  135.0734  160.0396 H   0  0  0  0  0  0  0  0  0  0  0  0  # atno 6908 bound_to 6896
  152.3209  133.5816  159.5780 H   0  0  0  0  0  0  0  0  0  0  0  0  # atno 6909 bound_to 6896
  146.1979  139.7727  142.8784 H   0  0  0  0  0  0  0  0  0  0  0  0  # atno 7974 bound_to 7965
  156.2936  140.2621  156.2597 H   0  0  0  0  0  0  0  0  0  0  0  0  # atno 8008 bound_to 7997
  154.9801  140.0390  157.2292 H   0  0  0  0  0  0  0  0  0  0  0  0  # atno 8009 bound_to 7997
  154.7780  140.2790  155.6091 H   0  0  0  0  0  0  0  0  0  0  0  0  # atno 8010 bound_to 7997
  140.7063  143.5953  150.8852 H   0  0  0  0  0  0  0  0  0  0  0  0  # atno 10167 bound_to 10162
  156.0183  130.4459  150.3156 H   0  0  0  0  0  0  0  0  0  0  0  0  # atno 10718 bound_to 10713
  153.2186  135.4363  155.0463 H   0  0  0  0  0  0  0  0  0  0  0  0  # atno 10763 bound_to 10752
  154.8238  135.3350  154.6961 H   0  0  0  0  0  0  0  0  0  0  0  0  # atno 10764 bound_to 10752
  153.7395  135.7005  153.5026 H   0  0  0  0  0  0  0  0  0  0  0  0  # atno 10765 bound_to 10752
  141.0884  133.6637  156.3912 H   0  0  0  0  0  0  0  0  0  0  0  0  # atno 11005 bound_to 11000
  145.3584  141.0321  143.3299 LP  0  0  0  0  0  0  0  0  0  0  0  0  # atno 17320 bound_to 7965
  144.8618  139.5165  143.6808 LP  0  0  0  0  0  0  0  0  0  0  0  0  # atno 17321 bound_to 7965
  139.9678  143.6091  152.2983 LP  0  0  0  0  0  0  0  0  0  0  0  0  # atno 17342 bound_to 10162
  139.6667  144.7662  151.1860 LP  0  0  0  0  0  0  0  0  0  0  0  0  # atno 17343 bound_to 10162
  157.1257  131.0258  151.2990 LP  0  0  0  0  0  0  0  0  0  0  0  0  # atno 17370 bound_to 10713
  157.4591  130.7643  149.7220 LP  0  0  0  0  0  0  0  0  0  0  0  0  # atno 17371 bound_to 10713
  140.5310  134.6213  157.5350 LP  0  0  0  0  0  0  0  0  0  0  0  0  # atno 17394 bound_to 11000
  139.9705  134.7300  156.0050 LP  0  0  0  0  0  0  0  0  0  0  0  0  # atno 17395 bound_to 11000

$$$$
