AV-unprocessed.smi:1301|AV-procd|sdf|5422|dock2
  -GOLD-   22720 4583D 1   1.00000     0.00000
 Structure written by MMmdl.
 45 46  0  0  0  0  0  0  0  0  2 V2000
  153.4616  141.5433  155.1961 C   0  0  0  0  0  0  0  0  0  0  0  0
  152.5725  140.5059  154.6003 C   0  0  0  0  0  0  0  0  0  0  0  0
  152.7432  139.6075  153.5845 C   0  0  0  0  0  0  0  0  0  0  0  0
  151.4960  138.9295  153.5441 C   0  0  0  0  0  0  0  0  0  0  0  0
  151.2590  137.8952  152.6028 N   0  0  0  0  0  0  0  0  0  0  0  0
  152.1383  137.3593  151.7389 C   0  0  0  0  0  0  0  0  0  0  0  0
  153.3174  137.6951  151.6267 O   0  0  0  0  0  0  0  0  0  0  0  0
  151.5715  136.3949  150.9984 N   0  0  0  0  0  0  0  0  0  0  0  0
  152.2629  135.5922  149.9896 C   0  0  2  0  0  0  0  0  0  0  0  0
  151.2958  135.0605  148.9130 C   0  0  0  0  0  0  0  0  0  0  0  0
  150.3730  133.9571  149.4588 C   0  0  0  0  0  0  0  0  0  0  0  0
  151.1610  132.8452  150.0489 N   0  3  2  0  0  0  0  0  0  0  0  0
  150.3087  131.6909  150.4353 C   0  0  0  0  0  0  0  0  0  0  0  0
  149.3553  131.2382  149.3077 C   0  0  0  0  0  0  0  0  0  0  0  0
  148.3736  130.1547  149.7854 C   0  0  0  0  0  0  0  0  0  0  0  0
  150.1536  130.7387  148.0942 C   0  0  0  0  0  0  0  0  0  0  0  0
  152.0398  133.3263  151.1477 C   0  0  0  0  0  0  0  0  0  0  0  0
  153.0054  134.4172  150.6494 C   0  0  0  0  0  0  0  0  0  0  0  0
  150.6416  139.3725  154.4534 N   0  0  0  0  0  0  0  0  0  0  0  0
  151.3265  140.3860  155.1341 O   0  0  0  0  0  0  0  0  0  0  0  0
  154.5071  141.2423  155.1303 H   0  0  0  0  0  0  0  0  0  0  0  0
  153.2232  141.7051  156.2475 H   0  0  0  0  0  0  0  0  0  0  0  0
  153.3486  142.4930  154.6736 H   0  0  0  0  0  0  0  0  0  0  0  0
  153.6200  139.4633  152.9710 H   0  0  0  0  0  0  0  0  0  0  0  0
  150.3227  137.5189  152.5934 H   0  0  0  0  0  0  0  0  0  0  0  0
  150.5981  136.1836  151.1620 H   0  0  0  0  0  0  0  0  0  0  0  0
  153.0061  136.2308  149.5085 H   0  0  0  0  0  0  0  0  0  0  0  0
  150.7012  135.8721  148.4923 H   0  0  0  0  0  0  0  0  0  0  0  0
  151.8770  134.6559  148.0834 H   0  0  0  0  0  0  0  0  0  0  0  0
  149.6921  134.3638  150.2084 H   0  0  0  0  0  0  0  0  0  0  0  0
  149.7556  133.5794  148.6427 H   0  0  0  0  0  0  0  0  0  0  0  0
  150.9460  130.8656  150.7569 H   0  0  0  0  0  0  0  0  0  0  0  0
  149.7028  131.9595  151.3021 H   0  0  0  0  0  0  0  0  0  0  0  0
  148.7707  132.0922  148.9669 H   0  0  0  0  0  0  0  0  0  0  0  0
  148.9018  129.2727  150.1489 H   0  0  0  0  0  0  0  0  0  0  0  0
  147.7167  129.8367  148.9752 H   0  0  0  0  0  0  0  0  0  0  0  0
  147.7371  130.5187  150.5922 H   0  0  0  0  0  0  0  0  0  0  0  0
  150.7628  129.8705  148.3488 H   0  0  0  0  0  0  0  0  0  0  0  0
  150.8205  131.5136  147.7150 H   0  0  0  0  0  0  0  0  0  0  0  0
  149.4901  130.4505  147.2782 H   0  0  0  0  0  0  0  0  0  0  0  0
  151.4269  133.7080  151.9655 H   0  0  0  0  0  0  0  0  0  0  0  0
  152.6250  132.5029  151.5551 H   0  0  0  0  0  0  0  0  0  0  0  0
  153.6914  133.9770  149.9243 H   0  0  0  0  0  0  0  0  0  0  0  0
  153.6256  134.7754  151.4721 H   0  0  0  0  0  0  0  0  0  0  0  0
  151.7662  132.5122  149.3118 H   0  0  0  0  0  0  0  0  0  0  0  0
  1  2  1  0  0  0  0
  1 21  1  0  0  0  0
  1 22  1  0  0  0  0
  1 23  1  0  0  0  0
  2 20  1  0  0  0  0
  2  3  2  0  0  0  0
  3  4  1  0  0  0  0
  3 24  1  0  0  0  0
  4  5  1  0  0  0  0
  4 19  2  0  0  0  0
  5  6  1  0  0  0  0
  5 25  1  0  0  0  0
  6  7  2  0  0  0  0
  6  8  1  0  0  0  0
  8  9  1  0  0  0  0
  8 26  1  0  0  0  0
  9 18  1  0  0  0  0
  9 10  1  0  0  0  0
  9 27  1  0  0  0  0
 10 11  1  0  0  0  0
 10 28  1  0  0  0  0
 10 29  1  0  0  0  0
 11 12  1  0  0  0  0
 11 30  1  0  0  0  0
 11 31  1  0  0  0  0
 12 13  1  0  0  0  0
 12 17  1  0  0  0  0
 12 45  1  0  0  0  0
 13 14  1  0  0  0  0
 13 32  1  0  0  0  0
 13 33  1  0  0  0  0
 14 15  1  0  0  0  0
 14 16  1  0  0  0  0
 14 34  1  0  0  0  0
 15 35  1  0  0  0  0
 15 36  1  0  0  0  0
 15 37  1  0  0  0  0
 16 38  1  0  0  0  0
 16 39  1  0  0  0  0
 16 40  1  0  0  0  0
 17 18  1  0  0  0  0
 17 41  1  0  0  0  0
 17 42  1  0  0  0  0
 18 43  1  0  0  0  0
 18 44  1  0  0  0  0
 19 20  1  0  0  0  0
M  CHG  1  12   1
M  END
> <s_m_source_file>
AV-unprocessed.smi

> <i_m_source_file_index>
1301

> <i_lp_mmshare_version>
43012

> <i_f3d_flags>
0

> <s_epik_input>
W0NIM11jMVtjSF1jKG5vMSlbTkhdQyg9TylbTkhdW0NIXTJbQ0gyXVtDSDJdTihbQ0gyXVtDSDJdMilbQ0gyXVtDSF0oW0NIM10pW0NIM10=

> <s_epik_cmdline>
J2VwaWtfcHl0aG9uJywgJy1waCcsICc3LjAnLCAnLXRuJywgJzgnLCAnLW1hJywgJzIwMCcsICctbWV0YWxfYmluZGluZycsICctaW1hZScsICc8aW5maWxlLm1hZT4nLCAnLW9tYWUnLCAnPG91dGZpbGUubWFlPic=

> <r_epik_Ionization_Penalty>
0.0020743

> <r_epik_Ionization_Penalty_Charging>
0.0020412

> <r_epik_Ionization_Penalty_Neutral>
3.31029e-05

> <r_epik_State_Penalty>
0.00139626

> <r_epik_Charging_Adjusted_Penalty>
0.00343746

> <i_epik_Tot_Q>
1

> <i_epik_Tot_abs_Q>
1

> <r_epik_Metal_State_Penalty>
0.0141509

> <b_epik_Metal_Only>
0

> <s_lp_Force_Field>
OPLS_2005

> <r_lp_Energy>
16.729

> <b_lp_Chiralities_Consistent>
1

> <s_lp_Variant>
AV-unprocessed.smi:1301-2

> <Gold.Version>
5.8.1

> <Gold.Id.Protein>
6NUR|6NUR_protein|mol2

> <Gold.PLP.Fitness>
36.9590

> <Gold.PLP.PLP>
-31.7392

> <Gold.PLP.part.hbond>
-4.0394

> <Gold.PLP.part.metal>
0.0000

> <Gold.PLP.part.buried>
-4.9824

> <Gold.PLP.part.nonpolar>
-23.3410

> <Gold.PLP.part.repulsive>
0.2619

> <Gold.PLP.ligand.clash>
0.0000

> <Gold.PLP.ligand.torsion>
0.3897

> <Gold.PLP.Chemscore.Hbond>
1.9760

> <Gold.PLP.Chemscore.CHOScore>
0.0000

> <Gold.PLP.Chemscore.Metal>
0.0000

> <Gold.Chemscore.Hbonds>
donor molecule, donor type, donor heavy atom, donor atom, acceptor molecule, acceptor atom, score
      L1  H     5    25       P1  7948  0.29
      L1  H    12    45       P1 10711  0.36

> <Gold.PLP.Chemscore.Internal.Correction>
0.0712

> <Gold.Rescore>
     Score         DG    S(hbond)    S(metal)    S(lipo)     H(rot)  DE(clash)    DE(int)     intcor
     13.55     -15.41       1.52        0.00      72.80       1.43       0.05       1.80       ----

> <Gold.Chemscore.Fitness>
13.5536

> <Gold.Chemscore.DG>
-15.4099

> <Gold.Chemscore.ZeroCoef>
-5.4800

> <Gold.Chemscore.Hbond>
1.5189

> <Gold.Chemscore.Metal>
0.0000

> <Gold.Chemscore.Lipo>
72.7970

> <Gold.Chemscore.Internal_Hbond>
0.0000

> <Gold.Chemscore.DEClash>
0.0532

> <Gold.Chemscore.DEInternal>
1.8031

> <Gold.Chemscore.Rot>
1.4298

> <Gold.Chemscore.Internal.Correction>
   9.000000E+99

> <Gold.Chemscore.Hbonds>
donor molecule, donor type, donor heavy atom, donor atom, acceptor molecule, acceptor atom, score
      L1  H    12    45       P1 10711  0.34

> <Gold.Chemscore.Hbond.Weighted>
-5.0731

> <Gold.Chemscore.Metal.Weighted>
-0.0000

> <Gold.Chemscore.Lipo.Weighted>
-8.5172

> <Gold.Chemscore.Internal_Hbond.Weighted>
0.0000

> <Gold.Chemscore.DEClash.Weighted>
0.0532

> <Gold.Chemscore.DEInternal.Weighted>
1.8031

> <Gold.Chemscore.Rot.Weighted>
3.6604

> <Gold.Chemscore.Internal.Correction.Weighted>
   9.000000E+99

> <Gold.Protein.RotatedTorsions>
[ 6907 6896 6895 6894 ] final   21.21 input  -60.11 | X-H torsion
[ 7974 7965 7964 7962 ] final  147.89 input  175.53 | X-H torsion
[ 8008 7997 7996 7995 ] final -161.92 input   59.86 | X-H torsion
[ 10167 10162 10161 10158 ] final  -69.57 input  -65.29 | X-H torsion
[ 10718 10713 10712 10709 ] final  111.30 input   66.30 | X-H torsion
[ 10763 10752 10751 10750 ] final  -29.76 input  -60.55 | X-H torsion
[ 11005 11000 10999 10996 ] final  -19.61 input  -57.11 | X-H torsion

> <Gold.Protein.ActiveResidues>
 VAL166  LYS551  ARG553  GLY616  TRP617  ASP618  TYR619  PRO620  LYS621  CYS622 
 ASP623  PHE694  ASN695  SER759  ASP760  ASP761  ALA762  ILE779  LEU786  VAL792 
 PHE793  MET794  SER795  GLU796  ALA797  LYS798  CYS799  TRP800  GLU811  SER814 

> <Gold.Protein.RotatedAtoms>
  151.9083  135.0349  160.0512 H   0  0  0  0  0  0  0  0  0  0  0  0  # atno 6907 bound_to 6896
  152.2300  133.5046  159.5219 H   0  0  0  0  0  0  0  0  0  0  0  0  # atno 6908 bound_to 6896
  150.7023  134.1145  159.4055 H   0  0  0  0  0  0  0  0  0  0  0  0  # atno 6909 bound_to 6896
  144.8556  139.6085  143.5954 H   0  0  0  0  0  0  0  0  0  0  0  0  # atno 7974 bound_to 7965
  155.7992  140.0889  157.1966 H   0  0  0  0  0  0  0  0  0  0  0  0  # atno 8008 bound_to 7997
  154.3982  140.1475  156.3313 H   0  0  0  0  0  0  0  0  0  0  0  0  # atno 8009 bound_to 7997
  155.8479  140.3436  155.5677 H   0  0  0  0  0  0  0  0  0  0  0  0  # atno 8010 bound_to 7997
  140.5420  143.2314  151.7071 H   0  0  0  0  0  0  0  0  0  0  0  0  # atno 10167 bound_to 10162
  157.6451  131.0948  150.6728 H   0  0  0  0  0  0  0  0  0  0  0  0  # atno 10718 bound_to 10713
  153.7698  135.6913  153.4908 H   0  0  0  0  0  0  0  0  0  0  0  0  # atno 10763 bound_to 10752
  153.1882  135.4481  155.0114 H   0  0  0  0  0  0  0  0  0  0  0  0  # atno 10764 bound_to 10752
  154.8122  135.3382  154.7208 H   0  0  0  0  0  0  0  0  0  0  0  0  # atno 10765 bound_to 10752
  140.8384  133.7945  155.9834 H   0  0  0  0  0  0  0  0  0  0  0  0  # atno 11005 bound_to 11000
  146.2820  139.6903  142.9222 LP  0  0  0  0  0  0  0  0  0  0  0  0  # atno 17320 bound_to 7965
  145.4413  141.0422  143.2856 LP  0  0  0  0  0  0  0  0  0  0  0  0  # atno 17321 bound_to 7965
  139.4992  144.3954  152.0237 LP  0  0  0  0  0  0  0  0  0  0  0  0  # atno 17342 bound_to 10162
  140.3063  144.3589  150.6046 LP  0  0  0  0  0  0  0  0  0  0  0  0  # atno 17343 bound_to 10162
  156.7046  130.4633  149.5563 LP  0  0  0  0  0  0  0  0  0  0  0  0  # atno 17370 bound_to 10713
  156.1771  130.6475  151.0907 LP  0  0  0  0  0  0  0  0  0  0  0  0  # atno 17371 bound_to 10713
  140.8922  134.2481  157.5088 LP  0  0  0  0  0  0  0  0  0  0  0  0  # atno 17394 bound_to 11000
  139.8703  134.9667  156.4571 LP  0  0  0  0  0  0  0  0  0  0  0  0  # atno 17395 bound_to 11000

$$$$
