AV-unprocessed.smi:177|AV-procd|sdf|1440|dock3
  -GOLD-   2262019223D 1   1.00000     0.00000
 Structure written by MMmdl.
 61 65  0  0  0  0  0  0  0  0  1 V2000
  150.8309  135.3157  156.1951 C   0  0  0  0  0  0  0  0  0  0  0  0
  151.6421  136.4380  155.8844 O   0  0  0  0  0  0  0  0  0  0  0  0
  150.9288  137.6648  155.8004 C   0  0  1  0  0  0  0  0  0  0  0  0
  151.8849  138.8682  155.9079 C   0  0  0  0  0  0  0  0  0  0  0  0
  151.1229  140.1881  155.7235 C   0  0  0  0  0  0  0  0  0  0  0  0
  150.3560  140.2143  154.3821 C   0  0  2  0  0  0  0  0  0  0  0  0
  149.6435  141.4382  154.1905 O   0  0  0  0  0  0  0  0  0  0  0  0
  148.5023  141.5975  155.0304 C   0  0  0  0  0  0  0  0  0  0  0  0
  147.5396  140.4183  154.8350 C   0  0  0  0  0  0  0  0  0  0  0  0
  148.2297  139.1540  155.0641 N   0  0  0  0  0  0  0  0  0  0  0  0
  147.3715  138.1093  155.0677 C   0  0  0  0  0  0  0  0  0  0  0  0
  147.1638  137.4010  156.2092 N   0  0  0  0  0  0  0  0  0  0  0  0
  146.2949  136.3857  156.2129 C   0  0  0  0  0  0  0  0  0  0  0  0
  145.5449  135.9249  155.2091 N   0  0  0  0  0  0  0  0  0  0  0  0
  145.7589  136.6314  154.0615 C   0  0  0  0  0  0  0  0  0  0  0  0
  146.6483  137.7307  153.9071 C   0  0  0  0  0  0  0  0  0  0  0  0
  146.5936  138.2119  152.6060 N   0  0  0  0  0  0  0  0  0  0  0  0
  145.7120  137.4453  152.0247 C   0  0  0  0  0  0  0  0  0  0  0  0
  145.1722  136.4574  152.8191 N   0  0  0  0  0  0  0  0  0  0  0  0
  144.1645  135.4814  152.4288 C   0  0  0  0  0  0  0  0  0  0  0  0
  144.5742  134.4949  151.2929 C   0  0  0  0  0  0  0  0  0  0  0  0
  144.1682  135.0542  149.8963 C   0  0  0  0  0  0  0  0  0  0  0  0
  144.9971  136.1031  149.4382 O   0  0  0  0  0  0  0  0  0  0  0  0
  146.0861  134.1590  151.3631 C   0  0  0  0  0  0  0  0  0  0  0  0
  146.4673  132.9591  150.4797 C   0  0  0  0  0  0  0  0  0  0  0  0
  145.7154  131.8177  150.8706 O   0  0  0  0  0  0  0  0  0  0  0  0
  144.3161  131.9921  150.6929 C   0  0  0  0  0  0  0  0  0  0  0  0
  143.8118  133.1694  151.5510 C   0  0  0  0  0  0  0  0  0  0  0  0
  149.4115  138.9983  154.2081 C   0  0  2  0  0  0  0  0  0  0  0  0
  150.1969  137.6832  154.4467 C   0  0  0  0  0  0  0  0  0  0  0  0
  151.4483  134.4178  156.2201 H   0  0  0  0  0  0  0  0  0  0  0  0
  150.0576  135.1672  155.4403 H   0  0  0  0  0  0  0  0  0  0  0  0
  150.3536  135.4169  157.1696 H   0  0  0  0  0  0  0  0  0  0  0  0
  150.1857  137.7134  156.5972 H   0  0  0  0  0  0  0  0  0  0  0  0
  152.3864  138.8769  156.8754 H   0  0  0  0  0  0  0  0  0  0  0  0
  152.6682  138.7869  155.1532 H   0  0  0  0  0  0  0  0  0  0  0  0
  150.4410  140.3061  156.5649 H   0  0  0  0  0  0  0  0  0  0  0  0
  151.8178  141.0268  155.7687 H   0  0  0  0  0  0  0  0  0  0  0  0
  151.1002  140.1737  153.5856 H   0  0  0  0  0  0  0  0  0  0  0  0
  148.7959  141.6925  156.0757 H   0  0  0  0  0  0  0  0  0  0  0  0
  148.0037  142.5301  154.7668 H   0  0  0  0  0  0  0  0  0  0  0  0
  146.6940  140.5124  155.5176 H   0  0  0  0  0  0  0  0  0  0  0  0
  147.1380  140.4397  153.8206 H   0  0  0  0  0  0  0  0  0  0  0  0
  146.1821  135.8709  157.1554 H   0  0  0  0  0  0  0  0  0  0  0  0
  145.4362  137.5735  150.9882 H   0  0  0  0  0  0  0  0  0  0  0  0
  143.8912  134.9250  153.3267 H   0  0  0  0  0  0  0  0  0  0  0  0
  143.2656  136.0269  152.1385 H   0  0  0  0  0  0  0  0  0  0  0  0
  144.2042  134.2814  149.1307 H   0  0  0  0  0  0  0  0  0  0  0  0
  143.1376  135.4099  149.9166 H   0  0  0  0  0  0  0  0  0  0  0  0
  144.4796  136.8920  149.3812 H   0  0  0  0  0  0  0  0  0  0  0  0
  146.6962  135.0213  151.0942 H   0  0  0  0  0  0  0  0  0  0  0  0
  146.3524  133.9154  152.3923 H   0  0  0  0  0  0  0  0  0  0  0  0
  146.3102  133.1750  149.4224 H   0  0  0  0  0  0  0  0  0  0  0  0
  147.5272  132.7338  150.5995 H   0  0  0  0  0  0  0  0  0  0  0  0
  144.0858  132.1287  149.6362 H   0  0  0  0  0  0  0  0  0  0  0  0
  143.8140  131.0740  150.9979 H   0  0  0  0  0  0  0  0  0  0  0  0
  143.9231  132.8831  152.5979 H   0  0  0  0  0  0  0  0  0  0  0  0
  142.7419  133.3098  151.3920 H   0  0  0  0  0  0  0  0  0  0  0  0
  149.0593  138.9944  153.1753 H   0  0  0  0  0  0  0  0  0  0  0  0
  150.9339  137.5718  153.6504 H   0  0  0  0  0  0  0  0  0  0  0  0
  149.5476  136.8118  154.3596 H   0  0  0  0  0  0  0  0  0  0  0  0
  1  2  1  0  0  0  0
  1 31  1  0  0  0  0
  1 32  1  0  0  0  0
  1 33  1  0  0  0  0
  2  3  1  0  0  0  0
  3 30  1  0  0  0  0
  3  4  1  0  0  0  0
  3 34  1  0  0  0  0
  4  5  1  0  0  0  0
  4 35  1  0  0  0  0
  4 36  1  0  0  0  0
  5  6  1  0  0  0  0
  5 37  1  0  0  0  0
  5 38  1  0  0  0  0
  6 29  1  0  0  0  0
  6  7  1  0  0  0  0
  6 39  1  0  0  0  0
  7  8  1  0  0  0  0
  8  9  1  0  0  0  0
  8 40  1  0  0  0  0
  8 41  1  0  0  0  0
  9 10  1  0  0  0  0
  9 42  1  0  0  0  0
  9 43  1  0  0  0  0
 10 11  1  0  0  0  0
 10 29  1  0  0  0  0
 11 16  1  0  0  0  0
 11 12  2  0  0  0  0
 12 13  1  0  0  0  0
 13 14  2  0  0  0  0
 13 44  1  0  0  0  0
 14 15  1  0  0  0  0
 15 19  1  0  0  0  0
 15 16  2  0  0  0  0
 16 17  1  0  0  0  0
 17 18  2  0  0  0  0
 18 19  1  0  0  0  0
 18 45  1  0  0  0  0
 19 20  1  0  0  0  0
 20 21  1  0  0  0  0
 20 46  1  0  0  0  0
 20 47  1  0  0  0  0
 21 28  1  0  0  0  0
 21 22  1  0  0  0  0
 21 24  1  0  0  0  0
 22 23  1  0  0  0  0
 22 48  1  0  0  0  0
 22 49  1  0  0  0  0
 23 50  1  0  0  0  0
 24 25  1  0  0  0  0
 24 51  1  0  0  0  0
 24 52  1  0  0  0  0
 25 26  1  0  0  0  0
 25 53  1  0  0  0  0
 25 54  1  0  0  0  0
 26 27  1  0  0  0  0
 27 28  1  0  0  0  0
 27 55  1  0  0  0  0
 27 56  1  0  0  0  0
 28 57  1  0  0  0  0
 28 58  1  0  0  0  0
 29 30  1  0  0  0  0
 29 59  1  0  0  0  0
 30 60  1  0  0  0  0
 30 61  1  0  0  0  0
M  END
> <s_m_source_file>
AV-unprocessed.smi

> <i_m_source_file_index>
177

> <i_lp_mmshare_version>
43012

> <i_f3d_flags>
0

> <s_epik_input>
W0NIM11PW0NASF0oW0NIMl1bQ0gyXTEpW0NIMl1bQ0BIXShbQ0BASF0xMilOKFtDSDJdW0NIMl1PMiljKG5bY0hdbjMpYyhjMzQpbltjSF1uNFtDSDJdQzUoW0NIMl1bT0hdKVtDSDJdW0NIMl1PW0NIMl1bQ0gyXTU=

> <s_epik_cmdline>
J2VwaWtfcHl0aG9uJywgJy1waCcsICc3LjAnLCAnLXRuJywgJzgnLCAnLW1hJywgJzIwMCcsICctbWV0YWxfYmluZGluZycsICctaW1hZScsICc8aW5maWxlLm1hZT4nLCAnLW9tYWUnLCAnPG91dGZpbGUubWFlPic=

> <r_lp_tautomer_probability>
1

> <r_epik_Ionization_Penalty>
0.0065899

> <r_epik_Ionization_Penalty_Charging>
0

> <r_epik_Ionization_Penalty_Neutral>
0.0065899

> <r_epik_State_Penalty>
0.00470042

> <r_epik_Charging_Adjusted_Penalty>
0.00470042

> <i_epik_Tot_Q>
0

> <i_epik_Tot_abs_Q>
0

> <r_epik_Metal_State_Penalty>
-0

> <b_epik_Metal_Only>
0

> <s_lp_Force_Field>
OPLS_2005

> <r_lp_Energy>
50.2721

> <b_lp_Chiralities_Consistent>
1

> <s_lp_Variant>
AV-unprocessed.smi:177-4

> <Gold.Version>
5.8.1

> <Gold.Id.Protein>
6NUR|6NUR_protein|mol2

> <Gold.PLP.Fitness>
47.3260

> <Gold.PLP.PLP>
-38.2902

> <Gold.PLP.part.hbond>
-4.8258

> <Gold.PLP.part.metal>
0.0000

> <Gold.PLP.part.buried>
1.8021

> <Gold.PLP.part.nonpolar>
-36.3931

> <Gold.PLP.part.repulsive>
0.7137

> <Gold.PLP.ligand.clash>
0.0000

> <Gold.PLP.ligand.torsion>
0.8684

> <Gold.PLP.Chemscore.Hbond>
2.5304

> <Gold.PLP.Chemscore.CHOScore>
1.0000

> <Gold.PLP.Chemscore.Metal>
0.0000

> <Gold.Chemscore.Hbonds>
donor molecule, donor type, donor heavy atom, donor atom, acceptor molecule, acceptor atom, score
      L1  H    23    50       P1 10171  1.00
      P1  H  8011  8017       L1     7  0.53
      P1  H 10752 10764       L1     2  0.95
      L1  C    18    45       P1 10171  1.00

> <Gold.PLP.Chemscore.Internal.Correction>
0.1815

> <Gold.Rescore>
     Score         DG    S(hbond)    S(metal)    S(lipo)     H(rot)  DE(clash)    DE(int)     intcor
     14.61     -18.46       2.27        0.00     102.47       2.58       2.46       1.39       ----

> <Gold.Chemscore.Fitness>
14.6062

> <Gold.Chemscore.DG>
-18.4574

> <Gold.Chemscore.ZeroCoef>
-5.4800

> <Gold.Chemscore.Hbond>
2.2739

> <Gold.Chemscore.Metal>
0.0000

> <Gold.Chemscore.Lipo>
102.4679

> <Gold.Chemscore.Internal_Hbond>
0.0000

> <Gold.Chemscore.DEClash>
2.4625

> <Gold.Chemscore.DEInternal>
1.3888

> <Gold.Chemscore.Rot>
2.5806

> <Gold.Chemscore.Internal.Correction>
   9.000000E+99

> <Gold.Chemscore.Hbonds>
donor molecule, donor type, donor heavy atom, donor atom, acceptor molecule, acceptor atom, score
      L1  H    23    50       P1 10171  1.00
      P1  H  8011  8017       L1     7  0.49
      P1  H 10752 10764       L1     2  0.21

> <Gold.Chemscore.Hbond.Weighted>
-7.5949

> <Gold.Chemscore.Metal.Weighted>
-0.0000

> <Gold.Chemscore.Lipo.Weighted>
-11.9887

> <Gold.Chemscore.Internal_Hbond.Weighted>
0.0000

> <Gold.Chemscore.DEClash.Weighted>
2.4625

> <Gold.Chemscore.DEInternal.Weighted>
1.3888

> <Gold.Chemscore.Rot.Weighted>
6.6062

> <Gold.Chemscore.Internal.Correction.Weighted>
   9.000000E+99

> <Gold.Protein.RotatedTorsions>
[ 6907 6896 6895 6894 ] final   81.00 input  -60.11 | X-H torsion
[ 7974 7965 7964 7962 ] final   50.69 input  175.53 | X-H torsion
[ 8008 7997 7996 7995 ] final   90.48 input   59.86 | X-H torsion
[ 10167 10162 10161 10158 ] final -108.39 input  -65.29 | X-H torsion
[ 10718 10713 10712 10709 ] final  -89.80 input   66.30 | X-H torsion
[ 10763 10752 10751 10750 ] final  -53.72 input  -60.55 | X-H torsion
[ 11005 11000 10999 10996 ] final  -83.65 input  -57.11 | X-H torsion

> <Gold.Protein.ActiveResidues>
 VAL166  LYS551  ARG553  GLY616  TRP617  ASP618  TYR619  PRO620  LYS621  CYS622 
 ASP623  PHE694  ASN695  SER759  ASP760  ASP761  ALA762  ILE779  LEU786  VAL792 
 PHE793  MET794  SER795  GLU796  ALA797  LYS798  CYS799  TRP800  GLU811  SER814 

> <Gold.Protein.RotatedAtoms>
  152.5254  134.3271  159.9169 H   0  0  0  0  0  0  0  0  0  0  0  0  # atno 6907 bound_to 6896
  151.3220  133.4030  159.2663 H   0  0  0  0  0  0  0  0  0  0  0  0  # atno 6908 bound_to 6896
  150.9951  134.9294  159.7979 H   0  0  0  0  0  0  0  0  0  0  0  0  # atno 6909 bound_to 6896
  145.9987  139.4416  143.0028 H   0  0  0  0  0  0  0  0  0  0  0  0  # atno 7974 bound_to 7965
  156.0125  140.3349  155.6955 H   0  0  0  0  0  0  0  0  0  0  0  0  # atno 8008 bound_to 7997
  155.6138  140.0668  157.2716 H   0  0  0  0  0  0  0  0  0  0  0  0  # atno 8009 bound_to 7997
  154.4286  140.1789  156.1288 H   0  0  0  0  0  0  0  0  0  0  0  0  # atno 8010 bound_to 7997
  140.1667  143.4076  152.1385 H   0  0  0  0  0  0  0  0  0  0  0  0  # atno 10167 bound_to 10162
  155.9985  130.4886  150.5227 H   0  0  0  0  0  0  0  0  0  0  0  0  # atno 10718 bound_to 10713
  154.1633  135.6471  153.4991 H   0  0  0  0  0  0  0  0  0  0  0  0  # atno 10763 bound_to 10752
  153.0104  135.5366  154.6688 H   0  0  0  0  0  0  0  0  0  0  0  0  # atno 10764 bound_to 10752
  154.6008  135.2943  155.0509 H   0  0  0  0  0  0  0  0  0  0  0  0  # atno 10765 bound_to 10752
  141.1656  133.7305  156.8751 H   0  0  0  0  0  0  0  0  0  0  0  0  # atno 11005 bound_to 11000
  145.7520  140.9969  143.1245 LP  0  0  0  0  0  0  0  0  0  0  0  0  # atno 17320 bound_to 7965
  144.6912  139.9226  143.7468 LP  0  0  0  0  0  0  0  0  0  0  0  0  # atno 17321 bound_to 7965
  139.5356  144.7206  151.4903 LP  0  0  0  0  0  0  0  0  0  0  0  0  # atno 17342 bound_to 10162
  140.6609  143.8501  150.6886 LP  0  0  0  0  0  0  0  0  0  0  0  0  # atno 17343 bound_to 10162
  157.3186  131.0677  151.1948 LP  0  0  0  0  0  0  0  0  0  0  0  0  # atno 17370 bound_to 10713
  157.2869  130.6777  149.6094 LP  0  0  0  0  0  0  0  0  0  0  0  0  # atno 17371 bound_to 10713
  140.1754  134.9071  157.2884 LP  0  0  0  0  0  0  0  0  0  0  0  0  # atno 17394 bound_to 11000
  140.2455  134.3745  155.7463 LP  0  0  0  0  0  0  0  0  0  0  0  0  # atno 17395 bound_to 11000

$$$$
