AV-unprocessed.smi:1683|AV-procd|sdf|6749|dock10
  -GOLD-   22720 7503D 1   1.00000     0.00000
 Structure written by MMmdl.
 37 38  0  0  0  0  0  0  0  0  2 V2000
  150.6610  135.1124  155.8587 O   0  0  0  0  0  0  0  0  0  0  0  0
  150.0091  135.4078  154.8570 C   0  0  0  0  0  0  0  0  0  0  0  0
  149.2490  134.5318  154.1847 N   0  0  0  0  0  0  0  0  0  0  0  0
  149.1025  133.1193  154.5213 C   0  0  0  0  0  0  0  0  0  0  0  0
  148.4719  132.3054  153.3744 C   0  0  2  0  0  0  0  0  0  0  0  0
  146.9669  132.5138  153.2209 C   0  0  0  0  0  0  0  0  0  0  0  0
  146.4755  131.2533  152.4968 C   0  0  0  0  0  0  0  0  0  0  0  0
  147.5533  130.2410  152.6146 N   0  3  2  0  0  0  0  0  0  0  0  0
  147.1055  128.8683  152.9536 C   0  0  0  0  0  0  0  0  0  0  0  0
  147.9635  127.7827  152.2805 C   0  0  0  0  0  0  0  0  0  0  0  0
  149.2511  128.0618  152.4777 F   0  0  0  0  0  0  0  0  0  0  0  0
  147.7091  126.5786  152.7916 F   0  0  0  0  0  0  0  0  0  0  0  0
  147.7266  127.7619  150.9690 F   0  0  0  0  0  0  0  0  0  0  0  0
  148.5720  130.7883  153.5330 C   0  0  0  0  0  0  0  0  0  0  0  0
  149.9579  136.6291  154.3003 N   0  0  0  0  0  0  0  0  0  0  0  0
  150.6328  137.7996  154.7305 C   0  0  0  0  0  0  0  0  0  0  0  0
  150.2811  139.1229  154.3491 C   0  0  0  0  0  0  0  0  0  0  0  0
  151.0878  140.0165  154.9032 N   0  0  0  0  0  0  0  0  0  0  0  0
  151.9519  139.2764  155.6340 N   0  0  0  0  0  0  0  0  0  0  0  0
  151.7133  137.9219  155.5587 C   0  0  0  0  0  0  0  0  0  0  0  0
  152.6911  139.7055  156.1724 H   0  0  0  0  0  0  0  0  0  0  0  0
  148.7521  134.8609  153.3696 H   0  0  0  0  0  0  0  0  0  0  0  0
  150.0914  132.7269  154.7604 H   0  0  0  0  0  0  0  0  0  0  0  0
  148.5044  133.0182  155.4286 H   0  0  0  0  0  0  0  0  0  0  0  0
  148.9454  132.5829  152.4309 H   0  0  0  0  0  0  0  0  0  0  0  0
  146.4956  132.5742  154.2032 H   0  0  0  0  0  0  0  0  0  0  0  0
  146.7239  133.4295  152.6810 H   0  0  0  0  0  0  0  0  0  0  0  0
  145.5354  130.9107  152.9313 H   0  0  0  0  0  0  0  0  0  0  0  0
  146.2984  131.4533  151.4395 H   0  0  0  0  0  0  0  0  0  0  0  0
  147.1818  128.7415  154.0347 H   0  0  0  0  0  0  0  0  0  0  0  0
  146.0510  128.7435  152.7023 H   0  0  0  0  0  0  0  0  0  0  0  0
  149.5662  130.4066  153.2982 H   0  0  0  0  0  0  0  0  0  0  0  0
  148.3333  130.5037  154.5595 H   0  0  0  0  0  0  0  0  0  0  0  0
  149.3800  136.7332  153.4792 H   0  0  0  0  0  0  0  0  0  0  0  0
  149.4838  139.4579  153.7020 H   0  0  0  0  0  0  0  0  0  0  0  0
  152.3180  137.1984  156.0852 H   0  0  0  0  0  0  0  0  0  0  0  0
  147.9982  130.1932  151.7088 H   0  0  0  0  0  0  0  0  0  0  0  0
  1  2  2  0  0  0  0
  2  3  1  0  0  0  0
  2 15  1  0  0  0  0
  3  4  1  0  0  0  0
  3 22  1  0  0  0  0
  4  5  1  0  0  0  0
  4 23  1  0  0  0  0
  4 24  1  0  0  0  0
  5 14  1  0  0  0  0
  5  6  1  0  0  0  0
  5 25  1  0  0  0  0
  6  7  1  0  0  0  0
  6 26  1  0  0  0  0
  6 27  1  0  0  0  0
  7  8  1  0  0  0  0
  7 28  1  0  0  0  0
  7 29  1  0  0  0  0
  8  9  1  0  0  0  0
  8 14  1  0  0  0  0
  8 37  1  0  0  0  0
  9 10  1  0  0  0  0
  9 30  1  0  0  0  0
  9 31  1  0  0  0  0
 10 11  1  0  0  0  0
 10 12  1  0  0  0  0
 10 13  1  0  0  0  0
 14 32  1  0  0  0  0
 14 33  1  0  0  0  0
 15 16  1  0  0  0  0
 15 34  1  0  0  0  0
 16 20  2  0  0  0  0
 16 17  1  0  0  0  0
 17 18  2  0  0  0  0
 17 35  1  0  0  0  0
 18 19  1  0  0  0  0
 19 21  1  0  0  0  0
 19 20  1  0  0  0  0
 20 36  1  0  0  0  0
M  CHG  1   8   1
M  END
> <s_m_source_file>
AV-unprocessed.smi

> <i_m_source_file_index>
1683

> <i_lp_mmshare_version>
43012

> <i_f3d_flags>
0

> <s_epik_input>
W2NIXTFbbkhdbltjSF1jMVtOSF1DKD1PKVtOSF1bQ0gyXVtDQEBIXTJbQ0gyXVtDSDJdTihbQ0gyXTIpW0NIMl1DKEYpKEYpRg==

> <s_epik_cmdline>
J2VwaWtfcHl0aG9uJywgJy1waCcsICc3LjAnLCAnLXRuJywgJzgnLCAnLW1hJywgJzIwMCcsICctbWV0YWxfYmluZGluZycsICctaW1hZScsICc8aW5maWxlLm1hZT4nLCAnLW9tYWUnLCAnPG91dGZpbGUubWFlPic=

> <r_lp_tautomer_probability>
0.5

> <r_epik_Ionization_Penalty>
0.641865

> <r_epik_Ionization_Penalty_Charging>
0.64182

> <r_epik_Ionization_Penalty_Neutral>
4.50685e-05

> <r_epik_State_Penalty>
0.65957

> <r_epik_Charging_Adjusted_Penalty>
1.30139

> <i_epik_Tot_Q>
1

> <i_epik_Tot_abs_Q>
1

> <r_epik_Metal_State_Penalty>
0.659571

> <b_epik_Metal_Only>
0

> <s_lp_Force_Field>
OPLS_2005

> <r_lp_Energy>
30.3314

> <b_lp_Chiralities_Consistent>
1

> <s_lp_Variant>
AV-unprocessed.smi:1683-3

> <Gold.Version>
5.8.1

> <Gold.Id.Protein>
6NUR|6NUR_protein|mol2

> <Gold.PLP.Fitness>
47.9995

> <Gold.PLP.PLP>
-34.6230

> <Gold.PLP.part.hbond>
-5.0856

> <Gold.PLP.part.metal>
0.0000

> <Gold.PLP.part.buried>
-0.6101

> <Gold.PLP.part.nonpolar>
-29.0402

> <Gold.PLP.part.repulsive>
0.4011

> <Gold.PLP.ligand.clash>
0.0000

> <Gold.PLP.ligand.torsion>
0.7761

> <Gold.PLP.Chemscore.Hbond>
3.8320

> <Gold.PLP.Chemscore.CHOScore>
1.0000

> <Gold.PLP.Chemscore.Metal>
0.0000

> <Gold.Chemscore.Hbonds>
donor molecule, donor type, donor heavy atom, donor atom, acceptor molecule, acceptor atom, score
      L1  H     3    22       P1  7948  0.78
      L1  H     8    37       P1 10747  1.00
      L1  H    15    34       P1  7948  0.98
      P1  H  7989  7998       L1    18  1.00
      L1  C    17    35       P1  7957  0.77

> <Gold.PLP.Chemscore.Internal.Correction>
0.4328

> <Gold.Rescore>
     Score         DG    S(hbond)    S(metal)    S(lipo)     H(rot)  DE(clash)    DE(int)     intcor
     14.68     -17.04       2.58        0.00      64.86       1.81       0.67       1.69       ----

> <Gold.Chemscore.Fitness>
14.6790

> <Gold.Chemscore.DG>
-17.0353

> <Gold.Chemscore.ZeroCoef>
-5.4800

> <Gold.Chemscore.Hbond>
2.5760

> <Gold.Chemscore.Metal>
0.0000

> <Gold.Chemscore.Lipo>
64.8642

> <Gold.Chemscore.Internal_Hbond>
0.0000

> <Gold.Chemscore.DEClash>
0.6652

> <Gold.Chemscore.DEInternal>
1.6911

> <Gold.Chemscore.Rot>
1.8116

> <Gold.Chemscore.Internal.Correction>
   9.000000E+99

> <Gold.Chemscore.Hbonds>
donor molecule, donor type, donor heavy atom, donor atom, acceptor molecule, acceptor atom, score
      L1  H     3    22       P1  7948  0.33
      L1  H     8    37       P1 10747  0.97
      L1  H    15    34       P1  7948  0.84
      P1  H  7989  7998       L1    18  0.29

> <Gold.Chemscore.Hbond.Weighted>
-8.6040

> <Gold.Chemscore.Metal.Weighted>
-0.0000

> <Gold.Chemscore.Lipo.Weighted>
-7.5891

> <Gold.Chemscore.Internal_Hbond.Weighted>
0.0000

> <Gold.Chemscore.DEClash.Weighted>
0.6652

> <Gold.Chemscore.DEInternal.Weighted>
1.6911

> <Gold.Chemscore.Rot.Weighted>
4.6378

> <Gold.Chemscore.Internal.Correction.Weighted>
   9.000000E+99

> <Gold.Protein.RotatedTorsions>
[ 6907 6896 6895 6894 ] final -106.62 input  -60.11 | X-H torsion
[ 7974 7965 7964 7962 ] final -179.63 input  175.53 | X-H torsion
[ 8008 7997 7996 7995 ] final -175.15 input   59.86 | X-H torsion
[ 10167 10162 10161 10158 ] final  156.07 input  -65.29 | X-H torsion
[ 10718 10713 10712 10709 ] final   88.85 input   66.30 | X-H torsion
[ 10763 10752 10751 10750 ] final  -83.46 input  -60.55 | X-H torsion
[ 11005 11000 10999 10996 ] final  -70.49 input  -57.11 | X-H torsion

> <Gold.Protein.ActiveResidues>
 VAL166  LYS551  ARG553  GLY616  TRP617  ASP618  TYR619  PRO620  LYS621  CYS622 
 ASP623  PHE694  ASN695  SER759  ASP760  ASP761  ALA762  ILE779  LEU786  VAL792 
 PHE793  MET794  SER795  GLU796  ALA797  LYS798  CYS799  TRP800  GLU811  SER814 

> <Gold.Protein.RotatedAtoms>
  150.7399  133.9949  159.3619 H   0  0  0  0  0  0  0  0  0  0  0  0  # atno 6907 bound_to 6896
  151.7900  135.0736  160.0395 H   0  0  0  0  0  0  0  0  0  0  0  0  # atno 6908 bound_to 6896
  152.3215  133.5822  159.5783 H   0  0  0  0  0  0  0  0  0  0  0  0  # atno 6909 bound_to 6896
  144.7138  140.0689  143.6430 H   0  0  0  0  0  0  0  0  0  0  0  0  # atno 7974 bound_to 7965
  155.9789  140.1178  157.0744 H   0  0  0  0  0  0  0  0  0  0  0  0  # atno 8008 bound_to 7997
  154.4177  140.1148  156.5476 H   0  0  0  0  0  0  0  0  0  0  0  0  # atno 8009 bound_to 7997
  155.6497  140.3473  155.4746 H   0  0  0  0  0  0  0  0  0  0  0  0  # atno 8010 bound_to 7997
  139.4821  144.5042  151.8123 H   0  0  0  0  0  0  0  0  0  0  0  0  # atno 10167 bound_to 10162
  157.6952  131.0310  150.3337 H   0  0  0  0  0  0  0  0  0  0  0  0  # atno 10718 bound_to 10713
  154.5880  135.5555  153.7250 H   0  0  0  0  0  0  0  0  0  0  0  0  # atno 10763 bound_to 10752
  153.0106  135.6336  154.1890 H   0  0  0  0  0  0  0  0  0  0  0  0  # atno 10764 bound_to 10752
  154.1830  135.2886  155.3026 H   0  0  0  0  0  0  0  0  0  0  0  0  # atno 10765 bound_to 10752
  141.1575  133.6791  156.6760 H   0  0  0  0  0  0  0  0  0  0  0  0  # atno 11005 bound_to 11000
  145.9800  139.2934  143.1047 LP  0  0  0  0  0  0  0  0  0  0  0  0  # atno 17320 bound_to 7965
  145.9021  140.9236  143.0497 LP  0  0  0  0  0  0  0  0  0  0  0  0  # atno 17321 bound_to 7965
  140.4538  144.1818  150.5899 LP  0  0  0  0  0  0  0  0  0  0  0  0  # atno 17342 bound_to 10162
  140.4557  143.2469  151.9288 LP  0  0  0  0  0  0  0  0  0  0  0  0  # atno 17343 bound_to 10162
  156.3807  130.3880  149.7104 LP  0  0  0  0  0  0  0  0  0  0  0  0  # atno 17370 bound_to 10713
  156.4487  130.7896  151.2917 LP  0  0  0  0  0  0  0  0  0  0  0  0  # atno 17371 bound_to 10713
  140.3139  134.8064  157.4198 LP  0  0  0  0  0  0  0  0  0  0  0  0  # atno 17394 bound_to 11000
  140.1155  134.5289  155.8228 LP  0  0  0  0  0  0  0  0  0  0  0  0  # atno 17395 bound_to 11000

$$$$
