AV-unprocessed.smi:2612|AV-procd|sdf|10211|dock4
  -GOLD-   2272014213D 1   1.00000     0.00000
 Structure written by MMmdl.
 40 41  0  0  0  0  0  0  0  0  1 V2000
  145.0355  131.9179  149.3817 C   0  0  0  0  0  0  0  0  0  0  0  0
  144.1098  132.4729  150.3083 O   0  0  0  0  0  0  0  0  0  0  0  0
  144.5430  133.5311  151.1741 C   0  0  0  0  0  0  0  0  0  0  0  0
  145.7148  132.8859  151.9597 C   0  0  0  0  0  0  0  0  0  0  0  0
  145.2870  131.7951  152.8334 N   0  0  0  0  0  0  0  0  0  0  0  0
  145.9466  130.5576  152.8567 C   0  0  0  0  0  0  0  0  0  0  0  0
  145.7408  129.6693  151.7789 C   0  0  0  0  0  0  0  0  0  0  0  0
  146.4005  128.4245  151.7854 C   0  0  0  0  0  0  0  0  0  0  0  0
  147.2448  128.1219  152.8705 C   0  0  0  0  0  0  0  0  0  0  0  0
  148.0777  126.5436  152.9581 S   0  0  0  0  0  0  0  0  0  0  0  0
  148.5240  126.1885  151.2102 C   0  0  0  0  0  0  0  0  0  0  0  0
  149.3233  126.7268  153.7189 O   0  0  0  0  0  0  0  0  0  0  0  0
  147.1000  125.5346  153.3937 O   0  0  0  0  0  0  0  0  0  0  0  0
  147.3781  129.0598  153.9128 C   0  0  0  0  0  0  0  0  0  0  0  0
  146.7456  130.2528  153.9073 N   0  0  0  0  0  0  0  0  0  0  0  0
  144.9642  134.8236  150.4253 C   0  0  0  0  0  0  0  0  0  0  0  0
  145.2488  135.9781  151.4027 C   0  0  0  0  0  0  0  0  0  0  0  0
  144.1020  136.2201  152.2097 O   0  0  0  0  0  0  0  0  0  0  0  0
  143.7493  135.1082  153.0253 C   0  0  0  0  0  0  0  0  0  0  0  0
  143.3946  133.8961  152.1437 C   0  0  0  0  0  0  0  0  0  0  0  0
  144.5058  131.2266  148.7269 H   0  0  0  0  0  0  0  0  0  0  0  0
  145.8124  131.3454  149.8882 H   0  0  0  0  0  0  0  0  0  0  0  0
  145.5044  132.6704  148.7497 H   0  0  0  0  0  0  0  0  0  0  0  0
  146.5116  132.5669  151.2905 H   0  0  0  0  0  0  0  0  0  0  0  0
  146.1685  133.6411  152.6022 H   0  0  0  0  0  0  0  0  0  0  0  0
  144.3337  131.8270  153.1655 H   0  0  0  0  0  0  0  0  0  0  0  0
  145.0909  129.9349  150.9578 H   0  0  0  0  0  0  0  0  0  0  0  0
  146.2582  127.7235  150.9763 H   0  0  0  0  0  0  0  0  0  0  0  0
  149.0370  125.2286  151.1555 H   0  0  0  0  0  0  0  0  0  0  0  0
  149.1817  126.9723  150.8350 H   0  0  0  0  0  0  0  0  0  0  0  0
  147.6198  126.1510  150.6030 H   0  0  0  0  0  0  0  0  0  0  0  0
  147.9994  128.8539  154.7717 H   0  0  0  0  0  0  0  0  0  0  0  0
  145.8253  134.6463  149.7818 H   0  0  0  0  0  0  0  0  0  0  0  0
  144.1627  135.1627  149.7698 H   0  0  0  0  0  0  0  0  0  0  0  0
  146.1126  135.7715  152.0338 H   0  0  0  0  0  0  0  0  0  0  0  0
  145.4803  136.8859  150.8455 H   0  0  0  0  0  0  0  0  0  0  0  0
  144.5597  134.8778  153.7174 H   0  0  0  0  0  0  0  0  0  0  0  0
  142.8901  135.3854  153.6359 H   0  0  0  0  0  0  0  0  0  0  0  0
  142.4922  134.1477  151.5887 H   0  0  0  0  0  0  0  0  0  0  0  0
  143.1361  133.0404  152.7684 H   0  0  0  0  0  0  0  0  0  0  0  0
  1  2  1  0  0  0  0
  1 21  1  0  0  0  0
  1 22  1  0  0  0  0
  1 23  1  0  0  0  0
  2  3  1  0  0  0  0
  3 20  1  0  0  0  0
  3  4  1  0  0  0  0
  3 16  1  0  0  0  0
  4  5  1  0  0  0  0
  4 24  1  0  0  0  0
  4 25  1  0  0  0  0
  5  6  1  0  0  0  0
  5 26  1  0  0  0  0
  6 15  1  0  0  0  0
  6  7  2  0  0  0  0
  7  8  1  0  0  0  0
  7 27  1  0  0  0  0
  8  9  2  0  0  0  0
  8 28  1  0  0  0  0
  9 10  1  0  0  0  0
  9 14  1  0  0  0  0
 10 11  1  0  0  0  0
 10 12  2  0  0  0  0
 10 13  2  0  0  0  0
 11 29  1  0  0  0  0
 11 30  1  0  0  0  0
 11 31  1  0  0  0  0
 14 15  2  0  0  0  0
 14 32  1  0  0  0  0
 16 17  1  0  0  0  0
 16 33  1  0  0  0  0
 16 34  1  0  0  0  0
 17 18  1  0  0  0  0
 17 35  1  0  0  0  0
 17 36  1  0  0  0  0
 18 19  1  0  0  0  0
 19 20  1  0  0  0  0
 19 37  1  0  0  0  0
 19 38  1  0  0  0  0
 20 39  1  0  0  0  0
 20 40  1  0  0  0  0
M  END
> <s_m_source_file>
AV-unprocessed.smi

> <i_m_source_file_index>
2612

> <i_lp_mmshare_version>
43012

> <i_f3d_flags>
0

> <s_epik_input>
W0NIMl0xW0NIMl1PW0NIMl1bQ0gyXUMxKE9bQ0gzXSlbQ0gyXVtOSF1jMltjSF1bY0hdYyhbY0hdbjIpUyg9TykoPU8pW0NIM10=

> <s_epik_cmdline>
J2VwaWtfcHl0aG9uJywgJy1waCcsICc3LjAnLCAnLXRuJywgJzgnLCAnLW1hJywgJzIwMCcsICctbWV0YWxfYmluZGluZycsICctaW1hZScsICc8aW5maWxlLm1hZT4nLCAnLW9tYWUnLCAnPG91dGZpbGUubWFlPic=

> <r_lp_tautomer_probability>
1

> <r_epik_Ionization_Penalty>
1.02976e-06

> <r_epik_Ionization_Penalty_Charging>
0

> <r_epik_Ionization_Penalty_Neutral>
1.02976e-06

> <r_epik_State_Penalty>
-0

> <r_epik_Charging_Adjusted_Penalty>
0

> <i_epik_Tot_Q>
0

> <i_epik_Tot_abs_Q>
0

> <r_epik_Metal_State_Penalty>
-0

> <b_epik_Metal_Only>
0

> <s_lp_Force_Field>
OPLS_2005

> <r_lp_Energy>
16.1681

> <b_lp_Chiralities_Consistent>
1

> <s_lp_Variant>
AV-unprocessed.smi:2612-1

> <Gold.Version>
5.8.1

> <Gold.Id.Protein>
6NUR|6NUR_protein|mol2

> <Gold.PLP.Fitness>
32.9691

> <Gold.PLP.PLP>
-34.8391

> <Gold.PLP.part.hbond>
-1.0000

> <Gold.PLP.part.metal>
0.0000

> <Gold.PLP.part.buried>
-4.3620

> <Gold.PLP.part.nonpolar>
-30.1578

> <Gold.PLP.part.repulsive>
1.9525

> <Gold.PLP.ligand.clash>
0.0000

> <Gold.PLP.ligand.torsion>
1.9820

> <Gold.PLP.Chemscore.Hbond>
0.0000

> <Gold.PLP.Chemscore.CHOScore>
0.0000

> <Gold.PLP.Chemscore.Metal>
0.0000

> <Gold.Chemscore.Hbonds>
donor molecule, donor type, donor heavy atom, donor atom, acceptor molecule, acceptor atom, score
      L1  H     5    26       P1 10957  0.03

> <Gold.PLP.Chemscore.Internal.Correction>
2.0939

> <Gold.Rescore>
     Score         DG    S(hbond)    S(metal)    S(lipo)     H(rot)  DE(clash)    DE(int)     intcor
      8.85     -11.09       0.00        0.00      79.66       1.45       0.11       2.13       ----

> <Gold.Chemscore.Fitness>
8.8507

> <Gold.Chemscore.DG>
-11.0923

> <Gold.Chemscore.ZeroCoef>
-5.4800

> <Gold.Chemscore.Hbond>
0.0004

> <Gold.Chemscore.Metal>
0.0000

> <Gold.Chemscore.Lipo>
79.6609

> <Gold.Chemscore.Internal_Hbond>
0.0000

> <Gold.Chemscore.DEClash>
0.1120

> <Gold.Chemscore.DEInternal>
2.1296

> <Gold.Chemscore.Rot>
1.4490

> <Gold.Chemscore.Internal.Correction>
   9.000000E+99

> <Gold.Chemscore.Hbond.Weighted>
-0.0014

> <Gold.Chemscore.Metal.Weighted>
-0.0000

> <Gold.Chemscore.Lipo.Weighted>
-9.3203

> <Gold.Chemscore.Internal_Hbond.Weighted>
0.0000

> <Gold.Chemscore.DEClash.Weighted>
0.1120

> <Gold.Chemscore.DEInternal.Weighted>
2.1296

> <Gold.Chemscore.Rot.Weighted>
3.7094

> <Gold.Chemscore.Internal.Correction.Weighted>
   9.000000E+99

> <Gold.Protein.RotatedTorsions>
[ 6907 6896 6895 6894 ] final   30.07 input  -60.11 | X-H torsion
[ 7974 7965 7964 7962 ] final -167.28 input  175.53 | X-H torsion
[ 8008 7997 7996 7995 ] final -119.66 input   59.86 | X-H torsion
[ 10167 10162 10161 10158 ] final  123.22 input  -65.29 | X-H torsion
[ 10718 10713 10712 10709 ] final  -19.75 input   66.30 | X-H torsion
[ 10763 10752 10751 10750 ] final -135.99 input  -60.55 | X-H torsion
[ 11005 11000 10999 10996 ] final  129.52 input  -57.11 | X-H torsion

> <Gold.Protein.ActiveResidues>
 VAL166  LYS551  ARG553  GLY616  TRP617  ASP618  TYR619  PRO620  LYS621  CYS622 
 ASP623  PHE694  ASN695  SER759  ASP760  ASP761  ALA762  ILE779  LEU786  VAL792 
 PHE793  MET794  SER795  GLU796  ALA797  LYS798  CYS799  TRP800  GLU811  SER814 

> <Gold.Protein.RotatedAtoms>
  152.0407  134.9713  160.0573 H   0  0  0  0  0  0  0  0  0  0  0  0  # atno 6907 bound_to 6896
  152.1153  133.4318  159.4658 H   0  0  0  0  0  0  0  0  0  0  0  0  # atno 6908 bound_to 6896
  150.6846  134.2518  159.4557 H   0  0  0  0  0  0  0  0  0  0  0  0  # atno 6909 bound_to 6896
  144.7226  140.2542  143.6274 H   0  0  0  0  0  0  0  0  0  0  0  0  # atno 7974 bound_to 7965
  155.1192  140.0398  157.2745 H   0  0  0  0  0  0  0  0  0  0  0  0  # atno 8008 bound_to 7997
  154.6626  140.2594  155.7067 H   0  0  0  0  0  0  0  0  0  0  0  0  # atno 8009 bound_to 7997
  156.2625  140.2814  156.1104 H   0  0  0  0  0  0  0  0  0  0  0  0  # atno 8010 bound_to 7997
  139.5812  144.6987  151.3524 H   0  0  0  0  0  0  0  0  0  0  0  0  # atno 10167 bound_to 10162
  156.5413  130.4679  149.6497 H   0  0  0  0  0  0  0  0  0  0  0  0  # atno 10718 bound_to 10713
  154.8692  135.3686  154.4987 H   0  0  0  0  0  0  0  0  0  0  0  0  # atno 10763 bound_to 10752
  153.5630  135.7022  153.5544 H   0  0  0  0  0  0  0  0  0  0  0  0  # atno 10764 bound_to 10752
  153.3611  135.4046  155.1682 H   0  0  0  0  0  0  0  0  0  0  0  0  # atno 10765 bound_to 10752
  139.9620  134.9600  156.9160 H   0  0  0  0  0  0  0  0  0  0  0  0  # atno 11005 bound_to 11000
  145.8198  139.2039  143.1944 LP  0  0  0  0  0  0  0  0  0  0  0  0  # atno 17320 bound_to 7965
  146.0524  140.8056  142.9775 LP  0  0  0  0  0  0  0  0  0  0  0  0  # atno 17321 bound_to 7965
  140.7090  143.7440  150.7532 LP  0  0  0  0  0  0  0  0  0  0  0  0  # atno 17342 bound_to 10162
  140.0973  143.4821  152.2445 LP  0  0  0  0  0  0  0  0  0  0  0  0  # atno 17343 bound_to 10162
  156.2969  130.7155  151.2017 LP  0  0  0  0  0  0  0  0  0  0  0  0  # atno 17370 bound_to 10713
  157.7405  131.0516  150.5164 LP  0  0  0  0  0  0  0  0  0  0  0  0  # atno 17371 bound_to 10713
  140.5479  134.0655  155.7360 LP  0  0  0  0  0  0  0  0  0  0  0  0  # atno 17394 bound_to 11000
  141.1298  133.9322  157.2560 LP  0  0  0  0  0  0  0  0  0  0  0  0  # atno 17395 bound_to 11000

$$$$
