AV-unprocessed.smi:148|AV-procd|sdf|1210|dock10
  -GOLD-   2262018383D 1   1.00000     0.00000
 Structure written by MMmdl.
 63 67  0  0  0  0  0  0  0  0  1 V2000
  149.5153  140.9526  153.4994 O   0  0  0  0  0  0  0  0  0  0  0  0
  149.6731  140.8839  154.9024 C   0  0  0  0  0  0  0  0  0  0  0  0
  150.7793  139.8812  155.3055 C   0  0  2  0  0  0  0  0  0  0  0  0
  150.4029  138.4704  154.7806 C   0  0  0  0  0  0  0  0  0  0  0  0
  149.3170  137.8405  155.5075 N   0  0  0  0  0  0  0  0  0  0  0  0
  148.0627  138.3643  155.7287 C   0  0  0  0  0  0  0  0  0  0  0  0
  147.2419  137.5854  156.3784 N   0  0  0  0  0  0  0  0  0  0  0  0
  147.9968  136.4496  156.6405 C   0  0  0  0  0  0  0  0  0  0  0  0
  147.7203  135.2061  157.2630 C   0  0  0  0  0  0  0  0  0  0  0  0
  146.4837  134.8969  157.7118 N   0  0  0  0  0  0  0  0  0  0  0  0
  145.4821  135.0953  156.6648 C   0  0  0  0  0  0  0  0  0  0  0  0
  144.1267  134.5051  157.0737 C   0  0  0  0  0  0  0  0  0  0  0  0
  143.6756  135.0922  158.4149 C   0  0  0  0  0  0  0  0  0  0  0  0
  144.7545  134.8575  159.4809 C   0  0  0  0  0  0  0  0  0  0  0  0
  146.1330  135.4238  159.0449 C   0  0  1  0  0  0  0  0  0  0  0  0
  147.2631  135.2041  160.1110 C   0  0  2  0  0  0  0  0  0  0  0  0
  147.2931  133.7807  160.7168 C   0  0  0  0  0  0  0  0  0  0  0  0
  147.2002  133.9347  162.2410 C   0  0  0  0  0  0  0  0  0  0  0  0
  146.6484  135.3392  162.4772 C   0  0  0  0  0  0  0  0  0  0  0  0
  147.2571  136.1485  161.3337 C   0  0  2  0  0  0  0  0  0  0  0  0
  146.6256  137.3967  161.1329 O   0  0  0  0  0  0  0  0  0  0  0  0
  148.7273  134.2978  157.3565 N   0  0  0  0  0  0  0  0  0  0  0  0
  149.9305  134.5871  156.8509 C   0  0  0  0  0  0  0  0  0  0  0  0
  150.3253  135.6928  156.2146 N   0  0  0  0  0  0  0  0  0  0  0  0
  149.3143  136.6050  156.1303 C   0  0  0  0  0  0  0  0  0  0  0  0
  151.1147  139.9388  156.8273 C   0  0  2  0  0  0  0  0  0  0  0  0
  151.5354  141.3107  157.3331 C   0  0  0  0  0  0  0  0  0  0  0  0
  152.2209  140.9731  158.6484 C   0  0  0  0  0  0  0  0  0  0  0  0
  152.9389  139.7826  158.3678 O   0  0  0  0  0  0  0  0  0  0  0  0
  152.3135  139.0905  157.2911 C   0  0  0  0  0  0  0  0  0  0  0  0
  149.7961  140.1320  153.1236 H   0  0  0  0  0  0  0  0  0  0  0  0
  149.9106  141.8812  155.2736 H   0  0  0  0  0  0  0  0  0  0  0  0
  148.7163  140.6165  155.3503 H   0  0  0  0  0  0  0  0  0  0  0  0
  151.6743  140.1964  154.7676 H   0  0  0  0  0  0  0  0  0  0  0  0
  150.1337  138.5205  153.7253 H   0  0  0  0  0  0  0  0  0  0  0  0
  151.2646  137.8049  154.8443 H   0  0  0  0  0  0  0  0  0  0  0  0
  147.7656  139.3379  155.3666 H   0  0  0  0  0  0  0  0  0  0  0  0
  145.3725  136.1621  156.4642 H   0  0  0  0  0  0  0  0  0  0  0  0
  145.8173  134.6290  155.7370 H   0  0  0  0  0  0  0  0  0  0  0  0
  143.3818  134.7086  156.3040 H   0  0  0  0  0  0  0  0  0  0  0  0
  144.2068  133.4202  157.1532 H   0  0  0  0  0  0  0  0  0  0  0  0
  143.4894  136.1613  158.3070 H   0  0  0  0  0  0  0  0  0  0  0  0
  142.7340  134.6396  158.7265 H   0  0  0  0  0  0  0  0  0  0  0  0
  144.4206  135.3152  160.4102 H   0  0  0  0  0  0  0  0  0  0  0  0
  144.8254  133.7879  159.6769 H   0  0  0  0  0  0  0  0  0  0  0  0
  146.0108  136.5010  158.9214 H   0  0  0  0  0  0  0  0  0  0  0  0
  148.2220  135.3833  159.6239 H   0  0  0  0  0  0  0  0  0  0  0  0
  146.4702  133.1685  160.3493 H   0  0  0  0  0  0  0  0  0  0  0  0
  148.2096  133.2573  160.4425 H   0  0  0  0  0  0  0  0  0  0  0  0
  146.5834  133.1629  162.7016 H   0  0  0  0  0  0  0  0  0  0  0  0
  148.1987  133.8591  162.6738 H   0  0  0  0  0  0  0  0  0  0  0  0
  145.5604  135.3264  162.4096 H   0  0  0  0  0  0  0  0  0  0  0  0
  146.9156  135.7332  163.4583 H   0  0  0  0  0  0  0  0  0  0  0  0
  148.2938  136.3613  161.6002 H   0  0  0  0  0  0  0  0  0  0  0  0
  145.6985  137.2495  161.0234 H   0  0  0  0  0  0  0  0  0  0  0  0
  150.6812  133.8187  156.9624 H   0  0  0  0  0  0  0  0  0  0  0  0
  150.2369  139.6296  157.3972 H   0  0  0  0  0  0  0  0  0  0  0  0
  152.2503  141.7704  156.6490 H   0  0  0  0  0  0  0  0  0  0  0  0
  150.6977  141.9956  157.4671 H   0  0  0  0  0  0  0  0  0  0  0  0
  152.8800  141.7674  158.9992 H   0  0  0  0  0  0  0  0  0  0  0  0
  151.4823  140.7701  159.4252 H   0  0  0  0  0  0  0  0  0  0  0  0
  152.0094  138.0982  157.6220 H   0  0  0  0  0  0  0  0  0  0  0  0
  153.0516  138.9721  156.4974 H   0  0  0  0  0  0  0  0  0  0  0  0
  1  2  1  0  0  0  0
  1 31  1  0  0  0  0
  2  3  1  0  0  0  0
  2 32  1  0  0  0  0
  2 33  1  0  0  0  0
  3  4  1  0  0  0  0
  3 26  1  0  0  0  0
  3 34  1  0  0  0  0
  4  5  1  0  0  0  0
  4 35  1  0  0  0  0
  4 36  1  0  0  0  0
  5 25  1  0  0  0  0
  5  6  1  0  0  0  0
  6  7  2  0  0  0  0
  6 37  1  0  0  0  0
  7  8  1  0  0  0  0
  8 25  2  0  0  0  0
  8  9  1  0  0  0  0
  9 10  1  0  0  0  0
  9 22  2  0  0  0  0
 10 15  1  0  0  0  0
 10 11  1  0  0  0  0
 11 12  1  0  0  0  0
 11 38  1  0  0  0  0
 11 39  1  0  0  0  0
 12 13  1  0  0  0  0
 12 40  1  0  0  0  0
 12 41  1  0  0  0  0
 13 14  1  0  0  0  0
 13 42  1  0  0  0  0
 13 43  1  0  0  0  0
 14 15  1  0  0  0  0
 14 44  1  0  0  0  0
 14 45  1  0  0  0  0
 15 16  1  0  0  0  0
 15 46  1  0  0  0  0
 16 20  1  0  0  0  0
 16 17  1  0  0  0  0
 16 47  1  0  0  0  0
 17 18  1  0  0  0  0
 17 48  1  0  0  0  0
 17 49  1  0  0  0  0
 18 19  1  0  0  0  0
 18 50  1  0  0  0  0
 18 51  1  0  0  0  0
 19 20  1  0  0  0  0
 19 52  1  0  0  0  0
 19 53  1  0  0  0  0
 20 21  1  0  0  0  0
 20 54  1  0  0  0  0
 21 55  1  0  0  0  0
 22 23  1  0  0  0  0
 23 24  2  0  0  0  0
 23 56  1  0  0  0  0
 24 25  1  0  0  0  0
 26 30  1  0  0  0  0
 26 27  1  0  0  0  0
 26 57  1  0  0  0  0
 27 28  1  0  0  0  0
 27 58  1  0  0  0  0
 27 59  1  0  0  0  0
 28 29  1  0  0  0  0
 28 60  1  0  0  0  0
 28 61  1  0  0  0  0
 29 30  1  0  0  0  0
 30 62  1  0  0  0  0
 30 63  1  0  0  0  0
M  END
> <s_m_source_file>
AV-unprocessed.smi

> <i_m_source_file_index>
148

> <i_lp_mmshare_version>
43012

> <i_f3d_flags>
0

> <s_epik_input>
W0NIMl0xT1tDSDJdW0NIMl1bQ0BIXTFbQ0BIXShbQ0gyXVtPSF0pW0NIMl1uKFtjSF1uMiljKGMyMyluW2NIXW5jM040W0NIMl1bQ0gyXVtDSDJdW0NIMl1bQ0BIXTRbQ0BASF01W0NIMl1bQ0gyXVtDSDJdW0NASF01W09IXQ==

> <s_epik_cmdline>
J2VwaWtfcHl0aG9uJywgJy1waCcsICc3LjAnLCAnLXRuJywgJzgnLCAnLW1hJywgJzIwMCcsICctbWV0YWxfYmluZGluZycsICctaW1hZScsICc8aW5maWxlLm1hZT4nLCAnLW9tYWUnLCAnPG91dGZpbGUubWFlPic=

> <r_lp_tautomer_probability>
1

> <r_epik_Ionization_Penalty>
0.00556303

> <r_epik_Ionization_Penalty_Charging>
0

> <r_epik_Ionization_Penalty_Neutral>
0.00556303

> <r_epik_State_Penalty>
0.00401767

> <r_epik_Charging_Adjusted_Penalty>
0.00401767

> <i_epik_Tot_Q>
0

> <i_epik_Tot_abs_Q>
0

> <r_epik_Metal_State_Penalty>
-0

> <b_epik_Metal_Only>
0

> <s_lp_Force_Field>
OPLS_2005

> <r_lp_Energy>
71.2164

> <b_lp_Chiralities_Consistent>
1

> <s_lp_Variant>
AV-unprocessed.smi:148-9

> <Gold.Version>
5.8.1

> <Gold.Id.Protein>
6NUR|6NUR_protein|mol2

> <Gold.PLP.Fitness>
46.5930

> <Gold.PLP.PLP>
-36.9484

> <Gold.PLP.part.hbond>
-5.7756

> <Gold.PLP.part.metal>
0.0000

> <Gold.PLP.part.buried>
-4.8780

> <Gold.PLP.part.nonpolar>
-25.8750

> <Gold.PLP.part.repulsive>
0.0532

> <Gold.PLP.ligand.clash>
0.0000

> <Gold.PLP.ligand.torsion>
0.7948

> <Gold.PLP.Chemscore.Hbond>
3.6382

> <Gold.PLP.Chemscore.CHOScore>
0.0000

> <Gold.PLP.Chemscore.Metal>
0.0000

> <Gold.Chemscore.Hbonds>
donor molecule, donor type, donor heavy atom, donor atom, acceptor molecule, acceptor atom, score
      L1  H     1    31       P1  7957  0.29
      P1  H  6934  6947       L1    21  1.00
      P1  H  7997  8009       L1    29  0.30
      P1  H  8011  8017       L1     1  1.00

> <Gold.PLP.Chemscore.Internal.Correction>
0.3196

> <Gold.Rescore>
     Score         DG    S(hbond)    S(metal)    S(lipo)     H(rot)  DE(clash)    DE(int)     intcor
     14.13     -14.77       2.33        0.00      85.61       3.32       0.04       0.60       ----

> <Gold.Chemscore.Fitness>
14.1296

> <Gold.Chemscore.DG>
-14.7667

> <Gold.Chemscore.ZeroCoef>
-5.4800

> <Gold.Chemscore.Hbond>
2.3265

> <Gold.Chemscore.Metal>
0.0000

> <Gold.Chemscore.Lipo>
85.6083

> <Gold.Chemscore.Internal_Hbond>
0.0000

> <Gold.Chemscore.DEClash>
0.0374

> <Gold.Chemscore.DEInternal>
0.5997

> <Gold.Chemscore.Rot>
3.3203

> <Gold.Chemscore.Internal.Correction>
   9.000000E+99

> <Gold.Chemscore.Hbonds>
donor molecule, donor type, donor heavy atom, donor atom, acceptor molecule, acceptor atom, score
      L1  H     1    31       P1  7957  0.28
      P1  H  6934  6947       L1    21  0.93
      P1  H  7997  8009       L1    29  0.02
      P1  H  8011  8017       L1     1  0.80

> <Gold.Chemscore.Hbond.Weighted>
-7.7706

> <Gold.Chemscore.Metal.Weighted>
-0.0000

> <Gold.Chemscore.Lipo.Weighted>
-10.0162

> <Gold.Chemscore.Internal_Hbond.Weighted>
0.0000

> <Gold.Chemscore.DEClash.Weighted>
0.0374

> <Gold.Chemscore.DEInternal.Weighted>
0.5997

> <Gold.Chemscore.Rot.Weighted>
8.5000

> <Gold.Chemscore.Internal.Correction.Weighted>
   9.000000E+99

> <Gold.Protein.RotatedTorsions>
[ 6907 6896 6895 6894 ] final   88.06 input  -60.11 | X-H torsion
[ 7974 7965 7964 7962 ] final -108.65 input  175.53 | X-H torsion
[ 8008 7997 7996 7995 ] final  137.05 input   59.86 | X-H torsion
[ 10167 10162 10161 10158 ] final  162.27 input  -65.29 | X-H torsion
[ 10718 10713 10712 10709 ] final   95.26 input   66.30 | X-H torsion
[ 10763 10752 10751 10750 ] final  -52.31 input  -60.55 | X-H torsion
[ 11005 11000 10999 10996 ] final   62.89 input  -57.11 | X-H torsion

> <Gold.Protein.ActiveResidues>
 VAL166  LYS551  ARG553  GLY616  TRP617  ASP618  TYR619  PRO620  LYS621  CYS622 
 ASP623  PHE694  ASN695  SER759  ASP760  ASP761  ALA762  ILE779  LEU786  VAL792 
 PHE793  MET794  SER795  GLU796  ALA797  LYS798  CYS799  TRP800  GLU811  SER814 

> <Gold.Protein.RotatedAtoms>
  152.5420  134.2179  159.8775 H   0  0  0  0  0  0  0  0  0  0  0  0  # atno 6907 bound_to 6896
  151.2158  133.4523  159.2607 H   0  0  0  0  0  0  0  0  0  0  0  0  # atno 6908 bound_to 6896
  151.0853  134.9896  159.8432 H   0  0  0  0  0  0  0  0  0  0  0  0  # atno 6909 bound_to 6896
  145.1902  140.9011  143.3429 H   0  0  0  0  0  0  0  0  0  0  0  0  # atno 7974 bound_to 7965
  156.3003  140.2429  156.3846 H   0  0  0  0  0  0  0  0  0  0  0  0  # atno 8008 bound_to 7997
  154.8670  140.0417  157.1720 H   0  0  0  0  0  0  0  0  0  0  0  0  # atno 8009 bound_to 7997
  154.8836  140.2953  155.5415 H   0  0  0  0  0  0  0  0  0  0  0  0  # atno 8010 bound_to 7997
  139.4858  144.4454  151.8898 H   0  0  0  0  0  0  0  0  0  0  0  0  # atno 10167 bound_to 10162
  157.6940  131.0539  150.4311 H   0  0  0  0  0  0  0  0  0  0  0  0  # atno 10718 bound_to 10713
  154.1406  135.6505  153.4941 H   0  0  0  0  0  0  0  0  0  0  0  0  # atno 10763 bound_to 10752
  153.0167  135.5314  154.6908 H   0  0  0  0  0  0  0  0  0  0  0  0  # atno 10764 bound_to 10752
  154.6169  135.2960  155.0341 H   0  0  0  0  0  0  0  0  0  0  0  0  # atno 10765 bound_to 10752
  140.0061  134.6367  155.9853 H   0  0  0  0  0  0  0  0  0  0  0  0  # atno 11005 bound_to 11000
  145.0048  139.3564  143.6149 LP  0  0  0  0  0  0  0  0  0  0  0  0  # atno 17320 bound_to 7965
  146.3437  139.9287  142.8756 LP  0  0  0  0  0  0  0  0  0  0  0  0  # atno 17321 bound_to 7965
  140.3908  144.2618  150.5900 LP  0  0  0  0  0  0  0  0  0  0  0  0  # atno 17342 bound_to 10162
  140.5148  143.2281  151.8480 LP  0  0  0  0  0  0  0  0  0  0  0  0  # atno 17343 bound_to 10162
  156.4678  130.4046  149.6537 LP  0  0  0  0  0  0  0  0  0  0  0  0  # atno 17370 bound_to 10713
  156.3628  130.7490  151.2464 LP  0  0  0  0  0  0  0  0  0  0  0  0  # atno 17371 bound_to 10713
  141.1678  133.6537  156.4541 LP  0  0  0  0  0  0  0  0  0  0  0  0  # atno 17394 bound_to 11000
  140.4638  134.6816  157.5098 LP  0  0  0  0  0  0  0  0  0  0  0  0  # atno 17395 bound_to 11000

$$$$
