AV-unprocessed.smi:754|AV-procd|sdf|3610|dock2
  -GOLD-   22720 1 03D 1   1.00000     0.00000
 Structure written by MMmdl.
 37 38  0  0  0  0  0  0  0  0  1 V2000
  148.3059  144.8617  160.4496 C   0  0  0  0  0  0  0  0  0  0  0  0
  149.7060  145.0756  159.8701 C   0  0  0  0  0  0  0  0  0  0  0  0
  149.7816  144.4392  158.6056 O   0  0  0  0  0  0  0  0  0  0  0  0
  150.2385  143.0984  158.6894 C   0  0  1  0  0  0  0  0  0  0  0  0
  150.4972  142.4258  157.3381 C   0  0  0  0  0  0  0  0  0  0  0  0
  151.7699  141.8357  157.9543 C   0  0  2  0  0  0  0  0  0  0  0  0
  151.5116  140.5143  158.5247 N   0  0  0  0  0  0  0  0  0  0  0  0
  152.0545  139.3708  158.0816 C   0  0  0  0  0  0  0  0  0  0  0  0
  152.7667  139.2979  157.0809 O   0  0  0  0  0  0  0  0  0  0  0  0
  151.7799  138.1229  158.9192 C   0  0  0  0  0  0  0  0  0  0  0  0
  152.3445  136.9504  158.2774 N   0  0  0  0  0  0  0  0  0  0  0  0
  152.3122  136.5456  157.0060 C   0  0  0  0  0  0  0  0  0  0  0  0
  152.9908  135.4216  156.8338 N   0  0  0  0  0  0  0  0  0  0  0  0
  153.4599  135.1389  158.1059 N   0  0  0  0  0  0  0  0  0  0  0  0
  153.0809  136.0433  158.9664 N   0  0  0  0  0  0  0  0  0  0  0  0
  151.7497  142.9842  159.0049 C   0  0  0  0  0  0  0  0  0  0  0  0
  152.6075  144.1967  158.6190 C   0  0  0  0  0  0  0  0  0  0  0  0
  152.1039  142.6461  160.4589 C   0  0  0  0  0  0  0  0  0  0  0  0
  148.2124  145.3357  161.4266 H   0  0  0  0  0  0  0  0  0  0  0  0
  148.0910  143.7997  160.5706 H   0  0  0  0  0  0  0  0  0  0  0  0
  147.5428  145.2864  159.7970 H   0  0  0  0  0  0  0  0  0  0  0  0
  149.9066  146.1429  159.7664 H   0  0  0  0  0  0  0  0  0  0  0  0
  150.4542  144.6635  160.5483 H   0  0  0  0  0  0  0  0  0  0  0  0
  149.6315  142.4808  159.3554 H   0  0  0  0  0  0  0  0  0  0  0  0
  149.7402  141.7001  157.0377 H   0  0  0  0  0  0  0  0  0  0  0  0
  150.7055  143.1391  156.5392 H   0  0  0  0  0  0  0  0  0  0  0  0
  152.6233  141.8701  157.2746 H   0  0  0  0  0  0  0  0  0  0  0  0
  150.9362  140.4785  159.3540 H   0  0  0  0  0  0  0  0  0  0  0  0
  152.2063  138.2363  159.9171 H   0  0  0  0  0  0  0  0  0  0  0  0
  150.7055  137.9763  159.0376 H   0  0  0  0  0  0  0  0  0  0  0  0
  151.8060  137.0756  156.2126 H   0  0  0  0  0  0  0  0  0  0  0  0
  153.6714  143.9652  158.6782 H   0  0  0  0  0  0  0  0  0  0  0  0
  152.4197  145.0476  159.2747 H   0  0  0  0  0  0  0  0  0  0  0  0
  152.4087  144.5292  157.5997 H   0  0  0  0  0  0  0  0  0  0  0  0
  153.1338  142.2992  160.5481 H   0  0  0  0  0  0  0  0  0  0  0  0
  151.4619  141.8645  160.8658 H   0  0  0  0  0  0  0  0  0  0  0  0
  151.9902  143.5126  161.1109 H   0  0  0  0  0  0  0  0  0  0  0  0
  1  2  1  0  0  0  0
  1 19  1  0  0  0  0
  1 20  1  0  0  0  0
  1 21  1  0  0  0  0
  2  3  1  0  0  0  0
  2 22  1  0  0  0  0
  2 23  1  0  0  0  0
  3  4  1  0  0  0  0
  4 16  1  0  0  0  0
  4  5  1  0  0  0  0
  4 24  1  0  0  0  0
  5  6  1  0  0  0  0
  5 25  1  0  0  0  0
  5 26  1  0  0  0  0
  6  7  1  0  0  0  0
  6 16  1  0  0  0  0
  6 27  1  0  0  0  0
  7  8  1  0  0  0  0
  7 28  1  0  0  0  0
  8  9  2  0  0  0  0
  8 10  1  0  0  0  0
 10 11  1  0  0  0  0
 10 29  1  0  0  0  0
 10 30  1  0  0  0  0
 11 15  1  0  0  0  0
 11 12  1  0  0  0  0
 12 13  2  0  0  0  0
 12 31  1  0  0  0  0
 13 14  1  0  0  0  0
 14 15  2  0  0  0  0
 16 17  1  0  0  0  0
 16 18  1  0  0  0  0
 17 32  1  0  0  0  0
 17 33  1  0  0  0  0
 17 34  1  0  0  0  0
 18 35  1  0  0  0  0
 18 36  1  0  0  0  0
 18 37  1  0  0  0  0
M  END
> <s_m_source_file>
AV-unprocessed.smi

> <i_m_source_file_index>
754

> <i_lp_mmshare_version>
43012

> <i_f3d_flags>
0

> <s_epik_input>
W0NIM11bQ0gyXU9bQ0BASF0oQzEoW0NIM10pW0NIM10pW0NIMl1bQ0BIXTFbTkhdQyg9TylbQ0gyXW4yW2NIXW5ubjI=

> <s_epik_cmdline>
J2VwaWtfcHl0aG9uJywgJy1waCcsICc3LjAnLCAnLXRuJywgJzgnLCAnLW1hJywgJzIwMCcsICctbWV0YWxfYmluZGluZycsICctaW1hZScsICc8aW5maWxlLm1hZT4nLCAnLW9tYWUnLCAnPG91dGZpbGUubWFlPic=

> <r_lp_tautomer_probability>
1

> <r_epik_Ionization_Penalty>
8.28422e-07

> <r_epik_Ionization_Penalty_Charging>
0

> <r_epik_Ionization_Penalty_Neutral>
8.28422e-07

> <r_epik_State_Penalty>
-0

> <r_epik_Charging_Adjusted_Penalty>
0

> <i_epik_Tot_Q>
0

> <i_epik_Tot_abs_Q>
0

> <r_epik_Metal_State_Penalty>
-0

> <b_epik_Metal_Only>
0

> <s_lp_Force_Field>
OPLS_2005

> <r_lp_Energy>
21.5247

> <b_lp_Chiralities_Consistent>
1

> <s_lp_Variant>
AV-unprocessed.smi:754-4

> <Gold.Version>
5.8.1

> <Gold.Id.Protein>
6NUR|6NUR_protein|mol2

> <Gold.PLP.Fitness>
37.9058

> <Gold.PLP.PLP>
-31.2139

> <Gold.PLP.part.hbond>
-4.0000

> <Gold.PLP.part.metal>
0.0000

> <Gold.PLP.part.buried>
-5.7275

> <Gold.PLP.part.nonpolar>
-22.7068

> <Gold.PLP.part.repulsive>
0.9350

> <Gold.PLP.ligand.clash>
0.0000

> <Gold.PLP.ligand.torsion>
0.6337

> <Gold.PLP.Chemscore.Hbond>
2.5192

> <Gold.PLP.Chemscore.CHOScore>
0.0000

> <Gold.PLP.Chemscore.Metal>
0.0000

> <Gold.Chemscore.Hbonds>
donor molecule, donor type, donor heavy atom, donor atom, acceptor molecule, acceptor atom, score
      P1  H  6896  6909       L1    15  0.64
      P1  H  7997  8008       L1     9  1.00
      P1  H 10752 10764       L1    13  1.00

> <Gold.PLP.Chemscore.Internal.Correction>
0.4017

> <Gold.Rescore>
     Score         DG    S(hbond)    S(metal)    S(lipo)     H(rot)  DE(clash)    DE(int)     intcor
     12.86     -15.03       1.97        0.00      79.21       2.46       0.02       2.15       ----

> <Gold.Chemscore.Fitness>
12.8553

> <Gold.Chemscore.DG>
-15.0253

> <Gold.Chemscore.ZeroCoef>
-5.4800

> <Gold.Chemscore.Hbond>
1.9698

> <Gold.Chemscore.Metal>
0.0000

> <Gold.Chemscore.Lipo>
79.2103

> <Gold.Chemscore.Internal_Hbond>
0.0000

> <Gold.Chemscore.DEClash>
0.0174

> <Gold.Chemscore.DEInternal>
2.1525

> <Gold.Chemscore.Rot>
2.4616

> <Gold.Chemscore.Internal.Correction>
   9.000000E+99

> <Gold.Chemscore.Hbonds>
donor molecule, donor type, donor heavy atom, donor atom, acceptor molecule, acceptor atom, score
      P1  H  6896  6909       L1    15  0.10
      P1  H  7997  8008       L1     9  1.00
      P1  H 10752 10764       L1    13  0.59

> <Gold.Chemscore.Hbond.Weighted>
-6.5793

> <Gold.Chemscore.Metal.Weighted>
-0.0000

> <Gold.Chemscore.Lipo.Weighted>
-9.2676

> <Gold.Chemscore.Internal_Hbond.Weighted>
0.0000

> <Gold.Chemscore.DEClash.Weighted>
0.0174

> <Gold.Chemscore.DEInternal.Weighted>
2.1525

> <Gold.Chemscore.Rot.Weighted>
6.3016

> <Gold.Chemscore.Internal.Correction.Weighted>
   9.000000E+99

> <Gold.Protein.RotatedTorsions>
[ 6907 6896 6895 6894 ] final  156.04 input  -60.11 | X-H torsion
[ 7974 7965 7964 7962 ] final -150.51 input  175.53 | X-H torsion
[ 8008 7997 7996 7995 ] final  -59.87 input   59.86 | X-H torsion
[ 10167 10162 10161 10158 ] final   81.59 input  -65.29 | X-H torsion
[ 10718 10713 10712 10709 ] final   42.69 input   66.30 | X-H torsion
[ 10763 10752 10751 10750 ] final   -6.84 input  -60.55 | X-H torsion
[ 11005 11000 10999 10996 ] final -144.80 input  -57.11 | X-H torsion

> <Gold.Protein.ActiveResidues>
 VAL166  LYS551  ARG553  GLY616  TRP617  ASP618  TYR619  PRO620  LYS621  CYS622 
 ASP623  PHE694  ASN695  SER759  ASP760  ASP761  ALA762  ILE779  LEU786  VAL792 
 PHE793  MET794  SER795  GLU796  ALA797  LYS798  CYS799  TRP800  GLU811  SER814 

> <Gold.Protein.RotatedAtoms>
  152.0354  133.3955  159.4314 H   0  0  0  0  0  0  0  0  0  0  0  0  # atno 6907 bound_to 6896
  150.6879  134.3474  159.4903 H   0  0  0  0  0  0  0  0  0  0  0  0  # atno 6908 bound_to 6896
  152.1266  134.9166  160.0611 H   0  0  0  0  0  0  0  0  0  0  0  0  # atno 6909 bound_to 6896
  144.7903  140.4921  143.5777 H   0  0  0  0  0  0  0  0  0  0  0  0  # atno 7974 bound_to 7965
  154.4372  140.1052  156.6184 H   0  0  0  0  0  0  0  0  0  0  0  0  # atno 8008 bound_to 7997
  155.5734  140.3489  155.4502 H   0  0  0  0  0  0  0  0  0  0  0  0  # atno 8009 bound_to 7997
  156.0372  140.1274  157.0184 H   0  0  0  0  0  0  0  0  0  0  0  0  # atno 8010 bound_to 7997
  139.9376  144.6111  150.8283 H   0  0  0  0  0  0  0  0  0  0  0  0  # atno 10167 bound_to 10162
  157.4076  130.7896  149.7402 H   0  0  0  0  0  0  0  0  0  0  0  0  # atno 10718 bound_to 10713
  153.4179  135.7009  153.6314 H   0  0  0  0  0  0  0  0  0  0  0  0  # atno 10763 bound_to 10752
  153.4781  135.3700  155.2427 H   0  0  0  0  0  0  0  0  0  0  0  0  # atno 10764 bound_to 10752
  154.8720  135.4059  154.3542 H   0  0  0  0  0  0  0  0  0  0  0  0  # atno 10765 bound_to 10752
  140.7988  134.2882  157.4986 H   0  0  0  0  0  0  0  0  0  0  0  0  # atno 11005 bound_to 11000
  145.5812  139.1489  143.3234 LP  0  0  0  0  0  0  0  0  0  0  0  0  # atno 17320 bound_to 7965
  146.2152  140.5942  142.9041 LP  0  0  0  0  0  0  0  0  0  0  0  0  # atno 17321 bound_to 7965
  140.7620  143.3187  151.2672 LP  0  0  0  0  0  0  0  0  0  0  0  0  # atno 17342 bound_to 10162
  139.6731  143.9986  152.2764 LP  0  0  0  0  0  0  0  0  0  0  0  0  # atno 17343 bound_to 10162
  155.9841  130.3994  150.3329 LP  0  0  0  0  0  0  0  0  0  0  0  0  # atno 17370 bound_to 10713
  157.1463  131.0309  151.2905 LP  0  0  0  0  0  0  0  0  0  0  0  0  # atno 17371 bound_to 10713
  139.8723  134.9417  156.3805 LP  0  0  0  0  0  0  0  0  0  0  0  0  # atno 17394 bound_to 11000
  140.9316  133.7575  156.0032 LP  0  0  0  0  0  0  0  0  0  0  0  0  # atno 17395 bound_to 11000

$$$$
