AV-unprocessed.smi:314|AV-procd|sdf|2315|dock3
  -GOLD-   2262022223D 1   1.00000     0.00000
 Structure written by MMmdl.
 48 49  0  0  0  0  0  0  0  0  1 V2000
  145.6193  130.8509  151.2532 C   0  0  0  0  0  0  0  0  0  0  0  0
  144.7156  131.7812  150.6666 O   0  0  0  0  0  0  0  0  0  0  0  0
  144.8908  133.1232  150.9354 C   0  0  0  0  0  0  0  0  0  0  0  0
  145.7346  133.4928  152.0017 C   0  0  0  0  0  0  0  0  0  0  0  0
  145.9142  134.8606  152.2818 C   0  0  0  0  0  0  0  0  0  0  0  0
  145.2381  135.8168  151.4981 C   0  0  0  0  0  0  0  0  0  0  0  0
  145.4482  137.1917  151.7871 N   0  0  0  0  0  0  0  0  0  0  0  0
  146.1654  137.7271  152.7895 C   0  0  0  0  0  0  0  0  0  0  0  0
  146.8350  137.0895  153.6024 O   0  0  0  0  0  0  0  0  0  0  0  0
  146.0805  139.0651  152.7890 N   0  0  0  0  0  0  0  0  0  0  0  0
  146.7523  139.9442  153.7399 C   0  0  0  0  0  0  0  0  0  0  0  0
  148.1824  139.4572  154.0539 C   0  0  0  0  0  0  0  0  0  0  0  0
  149.0608  140.5157  154.7417 C   0  0  0  0  0  0  0  0  0  0  0  0
  149.6364  141.3566  154.0493 O   0  0  0  0  0  0  0  0  0  0  0  0
  149.1868  140.4844  156.0902 N   0  0  0  0  0  0  0  0  0  0  0  0
  150.0950  141.3588  156.8338 C   0  0  0  0  0  0  0  0  0  0  0  0
  151.2165  140.4869  157.4319 C   0  0  1  0  0  0  0  0  0  0  0  0
  152.1874  141.3046  158.2900 C   0  0  0  0  0  0  0  0  0  0  0  0
  150.6433  139.4701  158.2587 O   0  0  0  0  0  0  0  0  0  0  0  0
  149.6623  138.6377  157.6308 C   0  0  2  0  0  0  0  0  0  0  0  0
  150.3119  137.6433  156.6511 C   0  0  0  0  0  0  0  0  0  0  0  0
  148.5633  139.5167  156.9974 C   0  0  0  0  0  0  0  0  0  0  0  0
  144.4233  135.3458  150.4399 C   0  0  0  0  0  0  0  0  0  0  0  0
  144.2500  134.0360  150.1640 N   0  0  0  0  0  0  0  0  0  0  0  0
  145.3554  129.8424  150.9357 H   0  0  0  0  0  0  0  0  0  0  0  0
  145.5687  130.8786  152.3427 H   0  0  0  0  0  0  0  0  0  0  0  0
  146.6465  131.0388  150.9374 H   0  0  0  0  0  0  0  0  0  0  0  0
  146.2345  132.7406  152.5936 H   0  0  0  0  0  0  0  0  0  0  0  0
  146.5585  135.1679  153.0926 H   0  0  0  0  0  0  0  0  0  0  0  0
  145.0387  137.8422  151.1326 H   0  0  0  0  0  0  0  0  0  0  0  0
  145.5142  139.5078  152.0801 H   0  0  0  0  0  0  0  0  0  0  0  0
  146.7663  140.9620  153.3452 H   0  0  0  0  0  0  0  0  0  0  0  0
  146.1549  139.9706  154.6519 H   0  0  0  0  0  0  0  0  0  0  0  0
  148.1383  138.5698  154.6865 H   0  0  0  0  0  0  0  0  0  0  0  0
  148.6662  139.1653  153.1216 H   0  0  0  0  0  0  0  0  0  0  0  0
  150.5250  142.1466  156.2136 H   0  0  0  0  0  0  0  0  0  0  0  0
  149.5436  141.8679  157.6257 H   0  0  0  0  0  0  0  0  0  0  0  0
  151.7858  140.0221  156.6263 H   0  0  0  0  0  0  0  0  0  0  0  0
  152.6683  142.0858  157.7010 H   0  0  0  0  0  0  0  0  0  0  0  0
  152.9717  140.6695  158.7027 H   0  0  0  0  0  0  0  0  0  0  0  0
  151.6716  141.7820  159.1234 H   0  0  0  0  0  0  0  0  0  0  0  0
  149.2040  138.0503  158.4271 H   0  0  0  0  0  0  0  0  0  0  0  0
  149.5690  136.9520  156.2525 H   0  0  0  0  0  0  0  0  0  0  0  0
  151.0775  137.0502  157.1515 H   0  0  0  0  0  0  0  0  0  0  0  0
  150.7794  138.1408  155.8020 H   0  0  0  0  0  0  0  0  0  0  0  0
  148.0377  140.0636  157.7815 H   0  0  0  0  0  0  0  0  0  0  0  0
  147.8040  138.8934  156.5276 H   0  0  0  0  0  0  0  0  0  0  0  0
  143.9076  136.0196  149.7735 H   0  0  0  0  0  0  0  0  0  0  0  0
  1  2  1  0  0  0  0
  1 25  1  0  0  0  0
  1 26  1  0  0  0  0
  1 27  1  0  0  0  0
  2  3  1  0  0  0  0
  3 24  1  0  0  0  0
  3  4  2  0  0  0  0
  4  5  1  0  0  0  0
  4 28  1  0  0  0  0
  5  6  2  0  0  0  0
  5 29  1  0  0  0  0
  6  7  1  0  0  0  0
  6 23  1  0  0  0  0
  7  8  1  0  0  0  0
  7 30  1  0  0  0  0
  8  9  2  0  0  0  0
  8 10  1  0  0  0  0
 10 11  1  0  0  0  0
 10 31  1  0  0  0  0
 11 12  1  0  0  0  0
 11 32  1  0  0  0  0
 11 33  1  0  0  0  0
 12 13  1  0  0  0  0
 12 34  1  0  0  0  0
 12 35  1  0  0  0  0
 13 14  2  0  0  0  0
 13 15  1  0  0  0  0
 15 22  1  0  0  0  0
 15 16  1  0  0  0  0
 16 17  1  0  0  0  0
 16 36  1  0  0  0  0
 16 37  1  0  0  0  0
 17 18  1  0  0  0  0
 17 19  1  0  0  0  0
 17 38  1  0  0  0  0
 18 39  1  0  0  0  0
 18 40  1  0  0  0  0
 18 41  1  0  0  0  0
 19 20  1  0  0  0  0
 20 21  1  0  0  0  0
 20 22  1  0  0  0  0
 20 42  1  0  0  0  0
 21 43  1  0  0  0  0
 21 44  1  0  0  0  0
 21 45  1  0  0  0  0
 22 46  1  0  0  0  0
 22 47  1  0  0  0  0
 23 24  2  0  0  0  0
 23 48  1  0  0  0  0
M  END
> <s_m_source_file>
AV-unprocessed.smi

> <i_m_source_file_index>
314

> <i_lp_mmshare_version>
43012

> <i_f3d_flags>
0

> <s_epik_input>
W0NIM11PYzFbY0hdW2NIXWMoW2NIXW4xKVtOSF1DKD1PKVtOSF1bQ0gyXVtDSDJdQyg9TylOMltDSDJdW0NAQEhdKFtDSDNdKU9bQ0BASF0oW0NIM10pW0NIMl0y

> <s_epik_cmdline>
J2VwaWtfcHl0aG9uJywgJy1waCcsICc3LjAnLCAnLXRuJywgJzgnLCAnLW1hJywgJzIwMCcsICctbWV0YWxfYmluZGluZycsICctaW1hZScsICc8aW5maWxlLm1hZT4nLCAnLW9tYWUnLCAnPG91dGZpbGUubWFlPic=

> <r_lp_tautomer_probability>
1

> <r_epik_Ionization_Penalty>
8.55977e-05

> <r_epik_Ionization_Penalty_Charging>
0

> <r_epik_Ionization_Penalty_Neutral>
8.55977e-05

> <r_epik_State_Penalty>
-0

> <r_epik_Charging_Adjusted_Penalty>
0

> <i_epik_Tot_Q>
0

> <i_epik_Tot_abs_Q>
0

> <r_epik_Metal_State_Penalty>
-0

> <b_epik_Metal_Only>
0

> <s_lp_Force_Field>
OPLS_2005

> <r_lp_Energy>
24.1988

> <b_lp_Chiralities_Consistent>
1

> <s_lp_Variant>
AV-unprocessed.smi:314-3

> <Gold.Version>
5.8.1

> <Gold.Id.Protein>
6NUR|6NUR_protein|mol2

> <Gold.PLP.Fitness>
40.6234

> <Gold.PLP.PLP>
-32.1164

> <Gold.PLP.part.hbond>
-4.0000

> <Gold.PLP.part.metal>
0.0000

> <Gold.PLP.part.buried>
-6.8971

> <Gold.PLP.part.nonpolar>
-24.2589

> <Gold.PLP.part.repulsive>
2.0018

> <Gold.PLP.ligand.clash>
0.0780

> <Gold.PLP.ligand.torsion>
0.7168

> <Gold.PLP.Chemscore.Hbond>
2.3456

> <Gold.PLP.Chemscore.CHOScore>
0.9852

> <Gold.PLP.Chemscore.Metal>
0.0000

> <Gold.Chemscore.Hbonds>
donor molecule, donor type, donor heavy atom, donor atom, acceptor molecule, acceptor atom, score
      L1  H     7    30       P1 10171  1.00
      L1  H    10    31       P1 10175  0.42
      P1  H  7989  7998       L1    14  0.26
      P1  H  8011  8017       L1    14  0.72
      L1  C    23    48       P1 10171  0.98

> <Gold.PLP.Chemscore.Internal.Correction>
0.0261

> <Gold.Rescore>
     Score         DG    S(hbond)    S(metal)    S(lipo)     H(rot)  DE(clash)    DE(int)     intcor
     12.59     -18.18       2.84        0.00      67.03       1.81       1.92       3.68       ----

> <Gold.Chemscore.Fitness>
12.5859

> <Gold.Chemscore.DG>
-18.1835

> <Gold.Chemscore.ZeroCoef>
-5.4800

> <Gold.Chemscore.Hbond>
2.8403

> <Gold.Chemscore.Metal>
0.0000

> <Gold.Chemscore.Lipo>
67.0262

> <Gold.Chemscore.Internal_Hbond>
0.0000

> <Gold.Chemscore.DEClash>
1.9181

> <Gold.Chemscore.DEInternal>
3.6795

> <Gold.Chemscore.Rot>
1.8067

> <Gold.Chemscore.Internal.Correction>
   9.000000E+99

> <Gold.Chemscore.Hbonds>
donor molecule, donor type, donor heavy atom, donor atom, acceptor molecule, acceptor atom, score
      L1  H     7    30       P1 10171  0.99
      L1  H    10    31       P1 10175  0.39
      P1  H  7989  7998       L1    14  0.23
      P1  H  8011  8017       L1    14  0.68

> <Gold.Chemscore.Hbond.Weighted>
-9.4866

> <Gold.Chemscore.Metal.Weighted>
-0.0000

> <Gold.Chemscore.Lipo.Weighted>
-7.8421

> <Gold.Chemscore.Internal_Hbond.Weighted>
0.0000

> <Gold.Chemscore.DEClash.Weighted>
1.9181

> <Gold.Chemscore.DEInternal.Weighted>
3.6795

> <Gold.Chemscore.Rot.Weighted>
4.6252

> <Gold.Chemscore.Internal.Correction.Weighted>
   9.000000E+99

> <Gold.Protein.RotatedTorsions>
[ 6907 6896 6895 6894 ] final -100.57 input  -60.11 | X-H torsion
[ 7974 7965 7964 7962 ] final  138.05 input  175.53 | X-H torsion
[ 8008 7997 7996 7995 ] final  -92.82 input   59.86 | X-H torsion
[ 10167 10162 10161 10158 ] final  -55.87 input  -65.29 | X-H torsion
[ 10718 10713 10712 10709 ] final  -25.42 input   66.30 | X-H torsion
[ 10763 10752 10751 10750 ] final -118.79 input  -60.55 | X-H torsion
[ 11005 11000 10999 10996 ] final  101.73 input  -57.11 | X-H torsion

> <Gold.Protein.ActiveResidues>
 VAL166  LYS551  ARG553  GLY616  TRP617  ASP618  TYR619  PRO620  LYS621  CYS622 
 ASP623  PHE694  ASN695  SER759  ASP760  ASP761  ALA762  ILE779  LEU786  VAL792 
 PHE793  MET794  SER795  GLU796  ALA797  LYS798  CYS799  TRP800  GLU811  SER814 

> <Gold.Protein.RotatedAtoms>
  150.7121  134.0867  159.3916 H   0  0  0  0  0  0  0  0  0  0  0  0  # atno 6907 bound_to 6896
  151.8851  135.0436  160.0502 H   0  0  0  0  0  0  0  0  0  0  0  0  # atno 6908 bound_to 6896
  152.2536  133.5201  159.5376 H   0  0  0  0  0  0  0  0  0  0  0  0  # atno 6909 bound_to 6896
  144.9409  139.4932  143.5572 H   0  0  0  0  0  0  0  0  0  0  0  0  # atno 7974 bound_to 7965
  154.7278  140.0505  157.0699 H   0  0  0  0  0  0  0  0  0  0  0  0  # atno 8008 bound_to 7997
  155.0341  140.3161  155.4728 H   0  0  0  0  0  0  0  0  0  0  0  0  # atno 8009 bound_to 7997
  156.2833  140.2144  156.5463 H   0  0  0  0  0  0  0  0  0  0  0  0  # atno 8010 bound_to 7997
  140.6350  143.2477  151.5143 H   0  0  0  0  0  0  0  0  0  0  0  0  # atno 10167 bound_to 10162
  156.4646  130.4511  149.6907 H   0  0  0  0  0  0  0  0  0  0  0  0  # atno 10718 bound_to 10713
  154.8598  135.4261  154.2195 H   0  0  0  0  0  0  0  0  0  0  0  0  # atno 10763 bound_to 10752
  153.3203  135.6981  153.7042 H   0  0  0  0  0  0  0  0  0  0  0  0  # atno 10764 bound_to 10752
  153.6100  135.3521  155.2949 H   0  0  0  0  0  0  0  0  0  0  0  0  # atno 10765 bound_to 10752
  139.8774  134.9195  156.4952 H   0  0  0  0  0  0  0  0  0  0  0  0  # atno 11005 bound_to 11000
  146.3285  139.8427  142.8887 LP  0  0  0  0  0  0  0  0  0  0  0  0  # atno 17320 bound_to 7965
  145.2993  141.0189  143.3618 LP  0  0  0  0  0  0  0  0  0  0  0  0  # atno 17321 bound_to 7965
  139.5561  144.2273  152.1614 LP  0  0  0  0  0  0  0  0  0  0  0  0  # atno 17342 bound_to 10162
  140.1527  144.5099  150.6678 LP  0  0  0  0  0  0  0  0  0  0  0  0  # atno 17343 bound_to 10162
  156.3681  130.7516  151.2496 LP  0  0  0  0  0  0  0  0  0  0  0  0  # atno 17370 bound_to 10713
  157.7495  131.0331  150.4255 LP  0  0  0  0  0  0  0  0  0  0  0  0  # atno 17371 bound_to 10713
  140.8630  133.8045  155.9284 LP  0  0  0  0  0  0  0  0  0  0  0  0  # atno 17394 bound_to 11000
  140.9030  134.2354  157.5030 LP  0  0  0  0  0  0  0  0  0  0  0  0  # atno 17395 bound_to 11000

$$$$
