AV-unprocessed.smi:2295|AV-procd|sdf|9218|dock7
  -GOLD-   2272012433D 1   1.00000     0.00000
 Structure written by MMmdl.
 37 38  0  0  0  0  0  0  0  0  1 V2000
  151.9059  145.9203  160.2501 C   0  0  0  0  0  0  0  0  0  0  0  0
  151.9274  144.5330  159.6433 C   0  0  0  0  0  0  0  0  0  0  0  0
  152.7310  143.5157  160.1925 C   0  0  0  0  0  0  0  0  0  0  0  0
  152.7060  142.2463  159.5820 C   0  0  0  0  0  0  0  0  0  0  0  0
  153.5489  141.1073  160.1154 C   0  0  0  0  0  0  0  0  0  0  0  0
  151.9487  141.9641  158.5005 N   0  0  0  0  0  0  0  0  0  0  0  0
  151.1704  142.9359  157.9629 C   0  0  0  0  0  0  0  0  0  0  0  0
  150.3424  142.7420  156.8254 N   0  0  0  0  0  0  0  0  0  0  0  0
  150.1792  141.6226  156.0982 C   0  0  0  0  0  0  0  0  0  0  0  0
  150.7202  140.5401  156.3265 O   0  0  0  0  0  0  0  0  0  0  0  0
  149.3351  141.8284  155.0765 N   0  0  0  0  0  0  0  0  0  0  0  0
  148.9295  140.8258  154.0953 C   0  0  0  0  0  0  0  0  0  0  0  0
  147.4095  140.5784  154.1167 C   0  0  2  0  0  0  0  0  0  0  0  0
  146.8958  140.2064  155.5147 C   0  0  0  0  0  0  0  0  0  0  0  0
  145.5676  139.4726  155.3267 C   0  0  0  0  0  0  0  0  0  0  0  0
  145.7920  138.4628  154.2017 C   0  0  0  0  0  0  0  0  0  0  0  0
  146.8940  139.2423  152.9956 S   0  0  0  0  0  0  0  0  0  0  0  0
  151.1394  144.2374  158.5126 C   0  0  0  0  0  0  0  0  0  0  0  0
  152.5252  145.9708  161.1462 H   0  0  0  0  0  0  0  0  0  0  0  0
  150.8879  146.1975  160.5244 H   0  0  0  0  0  0  0  0  0  0  0  0
  152.2812  146.6511  159.5336 H   0  0  0  0  0  0  0  0  0  0  0  0
  153.3503  143.7025  161.0577 H   0  0  0  0  0  0  0  0  0  0  0  0
  154.0602  141.3900  161.0359 H   0  0  0  0  0  0  0  0  0  0  0  0
  154.3021  140.8196  159.3814 H   0  0  0  0  0  0  0  0  0  0  0  0
  152.9250  140.2383  160.3261 H   0  0  0  0  0  0  0  0  0  0  0  0
  149.8155  143.5500  156.5294 H   0  0  0  0  0  0  0  0  0  0  0  0
  148.9412  142.7513  154.9674 H   0  0  0  0  0  0  0  0  0  0  0  0
  149.2590  141.0938  153.0899 H   0  0  0  0  0  0  0  0  0  0  0  0
  149.4500  139.9012  154.3463 H   0  0  0  0  0  0  0  0  0  0  0  0
  146.8884  141.4806  153.7930 H   0  0  0  0  0  0  0  0  0  0  0  0
  147.6046  139.5391  156.0077 H   0  0  0  0  0  0  0  0  0  0  0  0
  146.7857  141.0856  156.1502 H   0  0  0  0  0  0  0  0  0  0  0  0
  145.2349  138.9887  156.2455 H   0  0  0  0  0  0  0  0  0  0  0  0
  144.7943  140.1840  155.0340 H   0  0  0  0  0  0  0  0  0  0  0  0
  146.2889  137.5736  154.5908 H   0  0  0  0  0  0  0  0  0  0  0  0
  144.8583  138.1473  153.7360 H   0  0  0  0  0  0  0  0  0  0  0  0
  150.5163  145.0036  158.0741 H   0  0  0  0  0  0  0  0  0  0  0  0
  1  2  1  0  0  0  0
  1 19  1  0  0  0  0
  1 20  1  0  0  0  0
  1 21  1  0  0  0  0
  2 18  1  0  0  0  0
  2  3  2  0  0  0  0
  3  4  1  0  0  0  0
  3 22  1  0  0  0  0
  4  5  1  0  0  0  0
  4  6  2  0  0  0  0
  5 23  1  0  0  0  0
  5 24  1  0  0  0  0
  5 25  1  0  0  0  0
  6  7  1  0  0  0  0
  7  8  1  0  0  0  0
  7 18  2  0  0  0  0
  8  9  1  0  0  0  0
  8 26  1  0  0  0  0
  9 10  2  0  0  0  0
  9 11  1  0  0  0  0
 11 12  1  0  0  0  0
 11 27  1  0  0  0  0
 12 13  1  0  0  0  0
 12 28  1  0  0  0  0
 12 29  1  0  0  0  0
 13 17  1  0  0  0  0
 13 14  1  0  0  0  0
 13 30  1  0  0  0  0
 14 15  1  0  0  0  0
 14 31  1  0  0  0  0
 14 32  1  0  0  0  0
 15 16  1  0  0  0  0
 15 33  1  0  0  0  0
 15 34  1  0  0  0  0
 16 17  1  0  0  0  0
 16 35  1  0  0  0  0
 16 36  1  0  0  0  0
 18 37  1  0  0  0  0
M  END
> <s_m_source_file>
AV-unprocessed.smi

> <i_m_source_file_index>
2295

> <i_lp_mmshare_version>
43012

> <i_f3d_flags>
0

> <s_epik_input>
W0NIM11jMVtjSF1jKFtDSDNdKW5jKFtjSF0xKVtOSF1DKD1PKVtOSF1bQ0gyXVtDQEBIXTJbQ0gyXVtDSDJdW0NIMl1TMg==

> <s_epik_cmdline>
J2VwaWtfcHl0aG9uJywgJy1waCcsICc3LjAnLCAnLXRuJywgJzgnLCAnLW1hJywgJzIwMCcsICctbWV0YWxfYmluZGluZycsICctaW1hZScsICc8aW5maWxlLm1hZT4nLCAnLW9tYWUnLCAnPG91dGZpbGUubWFlPic=

> <r_lp_tautomer_probability>
1

> <r_epik_Ionization_Penalty>
0.000247769

> <r_epik_Ionization_Penalty_Charging>
0

> <r_epik_Ionization_Penalty_Neutral>
0.000247769

> <r_epik_State_Penalty>
-0

> <r_epik_Charging_Adjusted_Penalty>
0

> <i_epik_Tot_Q>
0

> <i_epik_Tot_abs_Q>
0

> <r_epik_Metal_State_Penalty>
-0

> <b_epik_Metal_Only>
0

> <s_lp_Force_Field>
OPLS_2005

> <r_lp_Energy>
13.4664

> <b_lp_Chiralities_Consistent>
1

> <s_lp_Variant>
AV-unprocessed.smi:2295-1

> <Gold.Version>
5.8.1

> <Gold.Id.Protein>
6NUR|6NUR_protein|mol2

> <Gold.PLP.Fitness>
44.2930

> <Gold.PLP.PLP>
-38.4374

> <Gold.PLP.part.hbond>
-2.0000

> <Gold.PLP.part.metal>
0.0000

> <Gold.PLP.part.buried>
-4.5548

> <Gold.PLP.part.nonpolar>
-33.4942

> <Gold.PLP.part.repulsive>
0.2662

> <Gold.PLP.ligand.clash>
0.0000

> <Gold.PLP.ligand.torsion>
0.0125

> <Gold.PLP.Chemscore.Hbond>
1.9600

> <Gold.PLP.Chemscore.CHOScore>
0.0000

> <Gold.PLP.Chemscore.Metal>
0.0000

> <Gold.Chemscore.Hbonds>
donor molecule, donor type, donor heavy atom, donor atom, acceptor molecule, acceptor atom, score
      L1  H     8    26       P1  8028  1.00
      L1  H    11    27       P1  8028  0.86

> <Gold.PLP.Chemscore.Internal.Correction>
0.0006

> <Gold.Rescore>
     Score         DG    S(hbond)    S(metal)    S(lipo)     H(rot)  DE(clash)    DE(int)     intcor
     18.50     -19.98       1.90        0.00      95.44       1.17       0.18       1.31       ----

> <Gold.Chemscore.Fitness>
18.4991

> <Gold.Chemscore.DG>
-19.9823

> <Gold.Chemscore.ZeroCoef>
-5.4800

> <Gold.Chemscore.Hbond>
1.8961

> <Gold.Chemscore.Metal>
0.0000

> <Gold.Chemscore.Lipo>
95.4441

> <Gold.Chemscore.Internal_Hbond>
0.0000

> <Gold.Chemscore.DEClash>
0.1775

> <Gold.Chemscore.DEInternal>
1.3057

> <Gold.Chemscore.Rot>
1.1709

> <Gold.Chemscore.Internal.Correction>
   9.000000E+99

> <Gold.Chemscore.Hbonds>
donor molecule, donor type, donor heavy atom, donor atom, acceptor molecule, acceptor atom, score
      L1  H     8    26       P1  8028  1.00
      L1  H    11    27       P1  8028  0.79

> <Gold.Chemscore.Hbond.Weighted>
-6.3329

> <Gold.Chemscore.Metal.Weighted>
-0.0000

> <Gold.Chemscore.Lipo.Weighted>
-11.1670

> <Gold.Chemscore.Internal_Hbond.Weighted>
0.0000

> <Gold.Chemscore.DEClash.Weighted>
0.1775

> <Gold.Chemscore.DEInternal.Weighted>
1.3057

> <Gold.Chemscore.Rot.Weighted>
2.9975

> <Gold.Chemscore.Internal.Correction.Weighted>
   9.000000E+99

> <Gold.Protein.RotatedTorsions>
[ 6907 6896 6895 6894 ] final   82.24 input  -60.11 | X-H torsion
[ 7974 7965 7964 7962 ] final -106.45 input  175.53 | X-H torsion
[ 8008 7997 7996 7995 ] final  139.32 input   59.86 | X-H torsion
[ 10167 10162 10161 10158 ] final   11.25 input  -65.29 | X-H torsion
[ 10718 10713 10712 10709 ] final  -89.24 input   66.30 | X-H torsion
[ 10763 10752 10751 10750 ] final -105.89 input  -60.55 | X-H torsion
[ 11005 11000 10999 10996 ] final -157.63 input  -57.11 | X-H torsion

> <Gold.Protein.ActiveResidues>
 VAL166  LYS551  ARG553  GLY616  TRP617  ASP618  TYR619  PRO620  LYS621  CYS622 
 ASP623  PHE694  ASN695  SER759  ASP760  ASP761  ALA762  ILE779  LEU786  VAL792 
 PHE793  MET794  SER795  GLU796  ALA797  LYS798  CYS799  TRP800  GLU811  SER814 

> <Gold.Protein.RotatedAtoms>
  152.5293  134.3080  159.9102 H   0  0  0  0  0  0  0  0  0  0  0  0  # atno 6907 bound_to 6896
  151.3030  133.4107  159.2649 H   0  0  0  0  0  0  0  0  0  0  0  0  # atno 6908 bound_to 6896
  151.0103  134.9408  159.8060 H   0  0  0  0  0  0  0  0  0  0  0  0  # atno 6909 bound_to 6896
  145.2177  140.9122  143.3278 H   0  0  0  0  0  0  0  0  0  0  0  0  # atno 7974 bound_to 7965
  156.2990  140.2370  156.4219 H   0  0  0  0  0  0  0  0  0  0  0  0  # atno 8008 bound_to 7997
  154.8348  140.0431  157.1521 H   0  0  0  0  0  0  0  0  0  0  0  0  # atno 8009 bound_to 7997
  154.9168  140.2998  155.5241 H   0  0  0  0  0  0  0  0  0  0  0  0  # atno 8010 bound_to 7997
  140.6144  143.8340  150.7101 H   0  0  0  0  0  0  0  0  0  0  0  0  # atno 10167 bound_to 10162
  155.9984  130.4865  150.5142 H   0  0  0  0  0  0  0  0  0  0  0  0  # atno 10718 bound_to 10713
  154.7976  135.4732  154.0198 H   0  0  0  0  0  0  0  0  0  0  0  0  # atno 10763 bound_to 10752
  153.1729  135.6828  153.8590 H   0  0  0  0  0  0  0  0  0  0  0  0  # atno 10764 bound_to 10752
  153.8167  135.3210  155.3384 H   0  0  0  0  0  0  0  0  0  0  0  0  # atno 10765 bound_to 10752
  140.6625  134.4334  157.5234 H   0  0  0  0  0  0  0  0  0  0  0  0  # atno 11005 bound_to 11000
  144.9795  139.3797  143.6269 LP  0  0  0  0  0  0  0  0  0  0  0  0  # atno 17320 bound_to 7965
  146.3383  139.8930  142.8806 LP  0  0  0  0  0  0  0  0  0  0  0  0  # atno 17321 bound_to 7965
  140.1916  143.4032  152.1859 LP  0  0  0  0  0  0  0  0  0  0  0  0  # atno 17342 bound_to 10162
  139.5386  144.7235  151.4808 LP  0  0  0  0  0  0  0  0  0  0  0  0  # atno 17343 bound_to 10162
  157.3111  131.0664  151.2000 LP  0  0  0  0  0  0  0  0  0  0  0  0  # atno 17370 bound_to 10713
  157.2946  130.6813  149.6132 LP  0  0  0  0  0  0  0  0  0  0  0  0  # atno 17371 bound_to 10713
  139.9008  134.8560  156.1903 LP  0  0  0  0  0  0  0  0  0  0  0  0  # atno 17394 bound_to 11000
  141.0455  133.6916  156.1674 LP  0  0  0  0  0  0  0  0  0  0  0  0  # atno 17395 bound_to 11000

$$$$
