AV-unprocessed.smi:1590|AV-procd|sdf|6395|dock2
  -GOLD-   22720 7 33D 1   1.00000     0.00000
 Structure written by MMmdl.
 35 36  0  0  0  0  0  0  0  0  1 V2000
  153.8301  140.5220  160.8234 C   0  0  0  0  0  0  0  0  0  0  0  0
  153.6725  142.0497  160.8367 C   0  0  0  0  0  0  0  0  0  0  0  0
  153.1798  142.5758  162.1922 C   0  0  0  0  0  0  0  0  0  0  0  0
  152.8176  142.5350  159.7064 C   0  0  0  0  0  0  0  0  0  0  0  0
  152.6547  143.8364  159.4347 N   0  0  0  0  0  0  0  0  0  0  0  0
  151.8195  144.0496  158.3472 N   0  0  0  0  0  0  0  0  0  0  0  0
  151.3696  142.8990  157.8289 C   0  0  0  0  0  0  0  0  0  0  0  0
  150.5067  142.8247  156.7037 N   0  0  0  0  0  0  0  0  0  0  0  0
  150.0449  141.7272  156.0788 C   0  0  0  0  0  0  0  0  0  0  0  0
  150.3368  140.5666  156.3684 O   0  0  0  0  0  0  0  0  0  0  0  0
  149.2145  142.0524  155.0778 N   0  0  0  0  0  0  0  0  0  0  0  0
  148.5428  141.0971  154.2044 C   0  0  0  0  0  0  0  0  0  0  0  0
  147.0419  141.3649  154.1327 C   0  0  0  0  0  0  0  0  0  0  0  0
  146.5276  142.8013  153.9492 C   0  0  0  0  0  0  0  0  0  0  0  0
  145.3460  142.4470  154.8557 C   0  0  0  0  0  0  0  0  0  0  0  0
  146.2030  141.3097  155.4177 C   0  0  0  0  0  0  0  0  0  0  0  0
  151.9328  141.4473  158.6382 S   0  0  0  0  0  0  0  0  0  0  0  0
  154.2430  140.1793  159.8741 H   0  0  0  0  0  0  0  0  0  0  0  0
  152.8739  140.0200  160.9727 H   0  0  0  0  0  0  0  0  0  0  0  0
  154.5036  140.1908  161.6140 H   0  0  0  0  0  0  0  0  0  0  0  0
  154.6690  142.4667  160.6826 H   0  0  0  0  0  0  0  0  0  0  0  0
  153.1437  143.6657  162.1994 H   0  0  0  0  0  0  0  0  0  0  0  0
  153.8436  142.2633  162.9987 H   0  0  0  0  0  0  0  0  0  0  0  0
  152.1803  142.2068  162.4241 H   0  0  0  0  0  0  0  0  0  0  0  0
  150.1935  143.7124  156.3399 H   0  0  0  0  0  0  0  0  0  0  0  0
  149.0319  143.0304  154.9068 H   0  0  0  0  0  0  0  0  0  0  0  0
  148.9863  141.1227  153.2078 H   0  0  0  0  0  0  0  0  0  0  0  0
  148.7316  140.0964  154.5941 H   0  0  0  0  0  0  0  0  0  0  0  0
  146.5673  140.7249  153.3855 H   0  0  0  0  0  0  0  0  0  0  0  0
  147.1876  143.5488  154.3924 H   0  0  0  0  0  0  0  0  0  0  0  0
  146.2571  143.0603  152.9251 H   0  0  0  0  0  0  0  0  0  0  0  0
  145.0779  143.2175  155.5791 H   0  0  0  0  0  0  0  0  0  0  0  0
  144.4773  142.0893  154.3006 H   0  0  0  0  0  0  0  0  0  0  0  0
  145.6717  140.3705  155.5743 H   0  0  0  0  0  0  0  0  0  0  0  0
  146.7655  141.6062  156.3047 H   0  0  0  0  0  0  0  0  0  0  0  0
  1  2  1  0  0  0  0
  1 18  1  0  0  0  0
  1 19  1  0  0  0  0
  1 20  1  0  0  0  0
  2  3  1  0  0  0  0
  2  4  1  0  0  0  0
  2 21  1  0  0  0  0
  3 22  1  0  0  0  0
  3 23  1  0  0  0  0
  3 24  1  0  0  0  0
  4 17  1  0  0  0  0
  4  5  2  0  0  0  0
  5  6  1  0  0  0  0
  6  7  2  0  0  0  0
  7  8  1  0  0  0  0
  7 17  1  0  0  0  0
  8  9  1  0  0  0  0
  8 25  1  0  0  0  0
  9 10  2  0  0  0  0
  9 11  1  0  0  0  0
 11 12  1  0  0  0  0
 11 26  1  0  0  0  0
 12 13  1  0  0  0  0
 12 27  1  0  0  0  0
 12 28  1  0  0  0  0
 13 16  1  0  0  0  0
 13 14  1  0  0  0  0
 13 29  1  0  0  0  0
 14 15  1  0  0  0  0
 14 30  1  0  0  0  0
 14 31  1  0  0  0  0
 15 16  1  0  0  0  0
 15 32  1  0  0  0  0
 15 33  1  0  0  0  0
 16 34  1  0  0  0  0
 16 35  1  0  0  0  0
M  END
> <s_m_source_file>
AV-unprocessed.smi

> <i_m_source_file_index>
1590

> <i_lp_mmshare_version>
43012

> <i_f3d_flags>
0

> <s_epik_input>
W0NIM11bQ0hdKFtDSDNdKWMxbm5jKHMxKVtOSF1DKD1PKVtOSF1bQ0gyXVtDSF0yW0NIMl1bQ0gyXVtDSDJdMg==

> <s_epik_cmdline>
J2VwaWtfcHl0aG9uJywgJy1waCcsICc3LjAnLCAnLXRuJywgJzgnLCAnLW1hJywgJzIwMCcsICctbWV0YWxfYmluZGluZycsICctaW1hZScsICc8aW5maWxlLm1hZT4nLCAnLW9tYWUnLCAnPG91dGZpbGUubWFlPic=

> <r_lp_tautomer_probability>
1

> <r_epik_Ionization_Penalty>
0.000374979

> <r_epik_Ionization_Penalty_Charging>
0

> <r_epik_Ionization_Penalty_Neutral>
0.000374979

> <r_epik_State_Penalty>
-0

> <r_epik_Charging_Adjusted_Penalty>
0

> <i_epik_Tot_Q>
0

> <i_epik_Tot_abs_Q>
0

> <r_epik_Metal_State_Penalty>
0.186879

> <b_epik_Metal_Only>
0

> <s_lp_Force_Field>
OPLS_2005

> <r_lp_Energy>
5.08701

> <b_lp_Chiralities_Consistent>
1

> <s_lp_Variant>
AV-unprocessed.smi:1590-1

> <Gold.Version>
5.8.1

> <Gold.Id.Protein>
6NUR|6NUR_protein|mol2

> <Gold.PLP.Fitness>
45.4453

> <Gold.PLP.PLP>
-39.9014

> <Gold.PLP.part.hbond>
-2.0000

> <Gold.PLP.part.metal>
0.0000

> <Gold.PLP.part.buried>
-7.2541

> <Gold.PLP.part.nonpolar>
-31.1893

> <Gold.PLP.part.repulsive>
0.3829

> <Gold.PLP.ligand.clash>
0.0000

> <Gold.PLP.ligand.torsion>
0.1470

> <Gold.PLP.Chemscore.Hbond>
1.9040

> <Gold.PLP.Chemscore.CHOScore>
0.0000

> <Gold.PLP.Chemscore.Metal>
0.0000

> <Gold.Chemscore.Hbonds>
donor molecule, donor type, donor heavy atom, donor atom, acceptor molecule, acceptor atom, score
      L1  H     8    25       P1  8028  1.00
      L1  H    11    26       P1  8028  0.94

> <Gold.PLP.Chemscore.Internal.Correction>
0.1259

> <Gold.Rescore>
     Score         DG    S(hbond)    S(metal)    S(lipo)     H(rot)  DE(clash)    DE(int)     intcor
     16.21     -17.55       1.93        0.00      78.34       1.39       0.00       1.34       ----

> <Gold.Chemscore.Fitness>
16.2122

> <Gold.Chemscore.DG>
-17.5541

> <Gold.Chemscore.ZeroCoef>
-5.4800

> <Gold.Chemscore.Hbond>
1.9344

> <Gold.Chemscore.Metal>
0.0000

> <Gold.Chemscore.Lipo>
78.3427

> <Gold.Chemscore.Internal_Hbond>
0.0000

> <Gold.Chemscore.DEClash>
0.0045

> <Gold.Chemscore.DEInternal>
1.3374

> <Gold.Chemscore.Rot>
1.3879

> <Gold.Chemscore.Internal.Correction>
   9.000000E+99

> <Gold.Chemscore.Hbonds>
donor molecule, donor type, donor heavy atom, donor atom, acceptor molecule, acceptor atom, score
      L1  H     8    25       P1  8028  0.95
      L1  H    11    26       P1  8028  0.91

> <Gold.Chemscore.Hbond.Weighted>
-6.4609

> <Gold.Chemscore.Metal.Weighted>
-0.0000

> <Gold.Chemscore.Lipo.Weighted>
-9.1661

> <Gold.Chemscore.Internal_Hbond.Weighted>
0.0000

> <Gold.Chemscore.DEClash.Weighted>
0.0045

> <Gold.Chemscore.DEInternal.Weighted>
1.3374

> <Gold.Chemscore.Rot.Weighted>
3.5529

> <Gold.Chemscore.Internal.Correction.Weighted>
   9.000000E+99

> <Gold.Protein.RotatedTorsions>
[ 6907 6896 6895 6894 ] final  114.02 input  -60.11 | X-H torsion
[ 7974 7965 7964 7962 ] final   53.49 input  175.53 | X-H torsion
[ 8008 7997 7996 7995 ] final   61.89 input   59.86 | X-H torsion
[ 10167 10162 10161 10158 ] final  179.55 input  -65.29 | X-H torsion
[ 10718 10713 10712 10709 ] final  152.24 input   66.30 | X-H torsion
[ 10763 10752 10751 10750 ] final  -60.96 input  -60.55 | X-H torsion
[ 11005 11000 10999 10996 ] final  177.16 input  -57.11 | X-H torsion

> <Gold.Protein.ActiveResidues>
 VAL166  LYS551  ARG553  GLY616  TRP617  ASP618  TYR619  PRO620  LYS621  CYS622 
 ASP623  PHE694  ASN695  SER759  ASP760  ASP761  ALA762  ILE779  LEU786  VAL792 
 PHE793  MET794  SER795  GLU796  ALA797  LYS798  CYS799  TRP800  GLU811  SER814 

> <Gold.Protein.RotatedAtoms>
  152.4827  133.8294  159.7094 H   0  0  0  0  0  0  0  0  0  0  0  0  # atno 6907 bound_to 6896
  150.8889  133.7261  159.2917 H   0  0  0  0  0  0  0  0  0  0  0  0  # atno 6908 bound_to 6896
  151.4740  135.1051  159.9811 H   0  0  0  0  0  0  0  0  0  0  0  0  # atno 6909 bound_to 6896
  145.9706  139.4145  143.0192 H   0  0  0  0  0  0  0  0  0  0  0  0  # atno 7974 bound_to 7965
  155.6055  140.3494  155.4606 H   0  0  0  0  0  0  0  0  0  0  0  0  # atno 8008 bound_to 7997
  156.0195  140.1250  157.0396 H   0  0  0  0  0  0  0  0  0  0  0  0  # atno 8009 bound_to 7997
  154.4310  140.1065  156.5929 H   0  0  0  0  0  0  0  0  0  0  0  0  # atno 8010 bound_to 7997
  139.5341  144.2547  152.0756 H   0  0  0  0  0  0  0  0  0  0  0  0  # atno 10167 bound_to 10162
  157.2603  131.0797  151.1670 H   0  0  0  0  0  0  0  0  0  0  0  0  # atno 10718 bound_to 10713
  154.2773  135.6279  153.5333 H   0  0  0  0  0  0  0  0  0  0  0  0  # atno 10763 bound_to 10752
  152.9871  135.5624  154.5534 H   0  0  0  0  0  0  0  0  0  0  0  0  # atno 10764 bound_to 10752
  154.5117  135.2877  155.1312 H   0  0  0  0  0  0  0  0  0  0  0  0  # atno 10765 bound_to 10752
  140.3811  134.6945  157.4451 H   0  0  0  0  0  0  0  0  0  0  0  0  # atno 11005 bound_to 11000
  145.7911  140.9814  143.1048 LP  0  0  0  0  0  0  0  0  0  0  0  0  # atno 17320 bound_to 7965
  144.6836  139.9684  143.7481 LP  0  0  0  0  0  0  0  0  0  0  0  0  # atno 17321 bound_to 7965
  140.2015  144.4653  150.6429 LP  0  0  0  0  0  0  0  0  0  0  0  0  # atno 17342 bound_to 10162
  140.6538  143.2232  151.6017 LP  0  0  0  0  0  0  0  0  0  0  0  0  # atno 17343 bound_to 10162
  157.3182  130.6924  149.6254 LP  0  0  0  0  0  0  0  0  0  0  0  0  # atno 17370 bound_to 10713
  155.9664  130.4343  150.5044 LP  0  0  0  0  0  0  0  0  0  0  0  0  # atno 17371 bound_to 10713
  140.0478  134.6174  155.8899 LP  0  0  0  0  0  0  0  0  0  0  0  0  # atno 17394 bound_to 11000
  141.1923  133.6575  156.5496 LP  0  0  0  0  0  0  0  0  0  0  0  0  # atno 17395 bound_to 11000

$$$$
