AV-unprocessed.smi:2247|AV-procd|sdf|9086|dock5
  -GOLD-   2272012293D 1   1.00000     0.00000
 Structure written by MMmdl.
 34 35  0  0  0  0  0  0  0  0  1 V2000
  150.0966  141.6267  155.6663 C   0  0  0  0  0  0  0  0  0  0  0  0
  149.7827  140.1200  155.6658 C   0  0  0  0  0  0  0  0  0  0  0  0
  151.0016  139.2785  155.2560 C   0  0  0  0  0  0  0  0  0  0  0  0
  148.6261  139.7853  154.8243 N   0  0  0  0  0  0  0  0  0  0  0  0
  148.0181  140.7445  153.9162 C   0  0  0  0  0  0  0  0  0  0  0  0
  147.1228  139.8985  153.0059 C   0  0  0  0  0  0  0  0  0  0  0  0
  146.8648  138.5881  153.7673 C   0  0  1  0  0  0  0  0  0  0  0  0
  146.9411  137.4498  152.8533 N   0  0  0  0  0  0  0  0  0  0  0  0
  145.9204  136.6337  152.5510 C   0  0  0  0  0  0  0  0  0  0  0  0
  144.7787  136.7823  152.9878 O   0  0  0  0  0  0  0  0  0  0  0  0
  146.3113  135.6483  151.7257 N   0  0  0  0  0  0  0  0  0  0  0  0
  145.5228  134.5862  151.2157 C   0  0  0  0  0  0  0  0  0  0  0  0
  145.9696  133.4753  150.6277 N   0  0  0  0  0  0  0  0  0  0  0  0
  144.8226  132.7636  150.3077 C   0  0  0  0  0  0  0  0  0  0  0  0
  143.7374  133.4904  150.7257 C   0  0  0  0  0  0  0  0  0  0  0  0
  144.1681  134.6534  151.3060 O   0  0  0  0  0  0  0  0  0  0  0  0
  148.0358  138.5844  154.7509 C   0  0  0  0  0  0  0  0  0  0  0  0
  148.3640  137.5858  155.3917 O   0  0  0  0  0  0  0  0  0  0  0  0
  150.8923  141.8550  156.3762 H   0  0  0  0  0  0  0  0  0  0  0  0
  149.2233  142.2116  155.9565 H   0  0  0  0  0  0  0  0  0  0  0  0
  150.4260  141.9744  154.6869 H   0  0  0  0  0  0  0  0  0  0  0  0
  149.5322  139.8568  156.6952 H   0  0  0  0  0  0  0  0  0  0  0  0
  151.8538  139.4799  155.9054 H   0  0  0  0  0  0  0  0  0  0  0  0
  151.3058  139.4958  154.2315 H   0  0  0  0  0  0  0  0  0  0  0  0
  150.7866  138.2113  155.3206 H   0  0  0  0  0  0  0  0  0  0  0  0
  147.4224  141.4582  154.4871 H   0  0  0  0  0  0  0  0  0  0  0  0
  148.7659  141.2957  153.3449 H   0  0  0  0  0  0  0  0  0  0  0  0
  146.1958  140.4141  152.7526 H   0  0  0  0  0  0  0  0  0  0  0  0
  147.6499  139.7058  152.0695 H   0  0  0  0  0  0  0  0  0  0  0  0
  145.9213  138.6280  154.3145 H   0  0  0  0  0  0  0  0  0  0  0  0
  147.8448  137.2519  152.4502 H   0  0  0  0  0  0  0  0  0  0  0  0
  147.2800  135.6475  151.4432 H   0  0  0  0  0  0  0  0  0  0  0  0
  144.8675  131.8046  149.8128 H   0  0  0  0  0  0  0  0  0  0  0  0
  142.6697  133.3327  150.6878 H   0  0  0  0  0  0  0  0  0  0  0  0
  1  2  1  0  0  0  0
  1 19  1  0  0  0  0
  1 20  1  0  0  0  0
  1 21  1  0  0  0  0
  2  3  1  0  0  0  0
  2  4  1  0  0  0  0
  2 22  1  0  0  0  0
  3 23  1  0  0  0  0
  3 24  1  0  0  0  0
  3 25  1  0  0  0  0
  4 17  1  0  0  0  0
  4  5  1  0  0  0  0
  5  6  1  0  0  0  0
  5 26  1  0  0  0  0
  5 27  1  0  0  0  0
  6  7  1  0  0  0  0
  6 28  1  0  0  0  0
  6 29  1  0  0  0  0
  7  8  1  0  0  0  0
  7 17  1  0  0  0  0
  7 30  1  0  0  0  0
  8  9  1  0  0  0  0
  8 31  1  0  0  0  0
  9 10  2  0  0  0  0
  9 11  1  0  0  0  0
 11 12  1  0  0  0  0
 11 32  1  0  0  0  0
 12 16  1  0  0  0  0
 12 13  2  0  0  0  0
 13 14  1  0  0  0  0
 14 15  2  0  0  0  0
 14 33  1  0  0  0  0
 15 16  1  0  0  0  0
 15 34  1  0  0  0  0
 17 18  2  0  0  0  0
M  END
> <s_m_source_file>
AV-unprocessed.smi

> <i_m_source_file_index>
2247

> <i_lp_mmshare_version>
43012

> <i_f3d_flags>
0

> <s_epik_input>
W0NIM11bQ0hdKFtDSDNdKU4xW0NIMl1bQ0gyXVtDQEhdKEMxPU8pW05IXUMoPU8pW05IXWMybltjSF1bY0hdbzI=

> <s_epik_cmdline>
J2VwaWtfcHl0aG9uJywgJy1waCcsICc3LjAnLCAnLXRuJywgJzgnLCAnLW1hJywgJzIwMCcsICctbWV0YWxfYmluZGluZycsICctaW1hZScsICc8aW5maWxlLm1hZT4nLCAnLW9tYWUnLCAnPG91dGZpbGUubWFlPic=

> <r_lp_tautomer_probability>
0.785861

> <r_epik_Ionization_Penalty>
5.15801e-05

> <r_epik_Ionization_Penalty_Charging>
0

> <r_epik_Ionization_Penalty_Neutral>
5.15801e-05

> <r_epik_State_Penalty>
0.0205761

> <r_epik_Charging_Adjusted_Penalty>
0.0205761

> <i_epik_Tot_Q>
0

> <i_epik_Tot_abs_Q>
0

> <r_epik_Metal_State_Penalty>
0.0168939

> <b_epik_Metal_Only>
0

> <s_lp_Force_Field>
OPLS_2005

> <r_lp_Energy>
20.5401

> <b_lp_Chiralities_Consistent>
1

> <s_lp_Variant>
AV-unprocessed.smi:2247-1

> <Gold.Version>
5.8.1

> <Gold.Id.Protein>
6NUR|6NUR_protein|mol2

> <Gold.PLP.Fitness>
33.0981

> <Gold.PLP.PLP>
-24.7724

> <Gold.PLP.part.hbond>
-2.0000

> <Gold.PLP.part.metal>
0.0000

> <Gold.PLP.part.buried>
-2.5997

> <Gold.PLP.part.nonpolar>
-20.9273

> <Gold.PLP.part.repulsive>
0.6580

> <Gold.PLP.ligand.clash>
0.0000

> <Gold.PLP.ligand.torsion>
0.2212

> <Gold.PLP.Chemscore.Hbond>
1.9280

> <Gold.PLP.Chemscore.CHOScore>
0.9674

> <Gold.PLP.Chemscore.Metal>
0.0000

> <Gold.Chemscore.Hbonds>
donor molecule, donor type, donor heavy atom, donor atom, acceptor molecule, acceptor atom, score
      L1  H     8    31       P1  7948  1.00
      L1  H    11    32       P1  7948  0.94
      L1  C    15    34       P1 10186  1.00

> <Gold.PLP.Chemscore.Internal.Correction>
0.0821

> <Gold.Rescore>
     Score         DG    S(hbond)    S(metal)    S(lipo)     H(rot)  DE(clash)    DE(int)     intcor
     13.26     -14.94       1.94        0.00      54.71       1.33       0.05       1.63       ----

> <Gold.Chemscore.Fitness>
13.2571

> <Gold.Chemscore.DG>
-14.9398

> <Gold.Chemscore.ZeroCoef>
-5.4800

> <Gold.Chemscore.Hbond>
1.9382

> <Gold.Chemscore.Metal>
0.0000

> <Gold.Chemscore.Lipo>
54.7060

> <Gold.Chemscore.Internal_Hbond>
0.0000

> <Gold.Chemscore.DEClash>
0.0545

> <Gold.Chemscore.DEInternal>
1.6282

> <Gold.Chemscore.Rot>
1.3338

> <Gold.Chemscore.Internal.Correction>
   9.000000E+99

> <Gold.Chemscore.Hbonds>
donor molecule, donor type, donor heavy atom, donor atom, acceptor molecule, acceptor atom, score
      L1  H     8    31       P1  7948  0.96
      L1  H    11    32       P1  7948  0.89

> <Gold.Chemscore.Hbond.Weighted>
-6.4737

> <Gold.Chemscore.Metal.Weighted>
-0.0000

> <Gold.Chemscore.Lipo.Weighted>
-6.4006

> <Gold.Chemscore.Internal_Hbond.Weighted>
0.0000

> <Gold.Chemscore.DEClash.Weighted>
0.0545

> <Gold.Chemscore.DEInternal.Weighted>
1.6282

> <Gold.Chemscore.Rot.Weighted>
3.4145

> <Gold.Chemscore.Internal.Correction.Weighted>
   9.000000E+99

> <Gold.Protein.RotatedTorsions>
[ 6907 6896 6895 6894 ] final  130.47 input  -60.11 | X-H torsion
[ 7974 7965 7964 7962 ] final  -26.28 input  175.53 | X-H torsion
[ 8008 7997 7996 7995 ] final   52.48 input   59.86 | X-H torsion
[ 10167 10162 10161 10158 ] final  -59.77 input  -65.29 | X-H torsion
[ 10718 10713 10712 10709 ] final   78.50 input   66.30 | X-H torsion
[ 10763 10752 10751 10750 ] final  164.27 input  -60.55 | X-H torsion
[ 11005 11000 10999 10996 ] final   69.34 input  -57.11 | X-H torsion

> <Gold.Protein.ActiveResidues>
 VAL166  LYS551  ARG553  GLY616  TRP617  ASP618  TYR619  PRO620  LYS621  CYS622 
 ASP623  PHE694  ASN695  SER759  ASP760  ASP761  ALA762  ILE779  LEU786  VAL792 
 PHE793  MET794  SER795  GLU796  ALA797  LYS798  CYS799  TRP800  GLU811  SER814 

> <Gold.Protein.RotatedAtoms>
  152.3523  133.6195  159.5953 H   0  0  0  0  0  0  0  0  0  0  0  0  # atno 6907 bound_to 6896
  150.7546  133.9554  159.3508 H   0  0  0  0  0  0  0  0  0  0  0  0  # atno 6908 bound_to 6896
  151.7404  135.0856  160.0366 H   0  0  0  0  0  0  0  0  0  0  0  0  # atno 6909 bound_to 6896
  146.1436  140.4999  142.8641 H   0  0  0  0  0  0  0  0  0  0  0  0  # atno 7974 bound_to 7965
  155.4525  140.3459  155.4302 H   0  0  0  0  0  0  0  0  0  0  0  0  # atno 8008 bound_to 7997
  156.1211  140.1487  156.9232 H   0  0  0  0  0  0  0  0  0  0  0  0  # atno 8009 bound_to 7997
  154.4824  140.0865  156.7388 H   0  0  0  0  0  0  0  0  0  0  0  0  # atno 8010 bound_to 7997
  140.6114  143.2388  151.5701 H   0  0  0  0  0  0  0  0  0  0  0  0  # atno 10167 bound_to 10162
  157.6747  130.9871  150.1796 H   0  0  0  0  0  0  0  0  0  0  0  0  # atno 10718 bound_to 10713
  154.3064  135.2758  155.2587 H   0  0  0  0  0  0  0  0  0  0  0  0  # atno 10763 bound_to 10752
  154.5001  135.5810  153.6528 H   0  0  0  0  0  0  0  0  0  0  0  0  # atno 10764 bound_to 10752
  152.9893  135.6156  154.3238 H   0  0  0  0  0  0  0  0  0  0  0  0  # atno 10765 bound_to 10752
  139.9659  134.6982  156.0546 H   0  0  0  0  0  0  0  0  0  0  0  0  # atno 11005 bound_to 11000
  144.7820  140.5860  143.6599 LP  0  0  0  0  0  0  0  0  0  0  0  0  # atno 17320 bound_to 7965
  145.4990  139.1484  143.3667 LP  0  0  0  0  0  0  0  0  0  0  0  0  # atno 17321 bound_to 7965
  139.5364  144.2770  152.1260 LP  0  0  0  0  0  0  0  0  0  0  0  0  # atno 17342 bound_to 10162
  140.1970  144.4696  150.6450 LP  0  0  0  0  0  0  0  0  0  0  0  0  # atno 17343 bound_to 10162
  156.2532  130.3702  149.8210 LP  0  0  0  0  0  0  0  0  0  0  0  0  # atno 17370 bound_to 10713
  156.5977  130.8533  151.3424 LP  0  0  0  0  0  0  0  0  0  0  0  0  # atno 17371 bound_to 10713
  141.1339  133.6580  156.3539 LP  0  0  0  0  0  0  0  0  0  0  0  0  # atno 17394 bound_to 11000
  140.5397  134.6132  157.5376 LP  0  0  0  0  0  0  0  0  0  0  0  0  # atno 17395 bound_to 11000

$$$$
