AV-unprocessed.smi:388|AV-procd|sdf|2475|dock7
  -GOLD-   2262022413D 1   1.00000     0.00000
 Structure written by MMmdl.
 34 35  0  0  0  0  0  0  0  0  1 V2000
  146.5900  138.6976  151.0307 C   0  0  0  0  0  0  0  0  0  0  0  0
  147.5523  139.4692  151.8019 N   0  0  0  0  0  0  0  0  0  0  0  0
  147.3377  139.9117  153.0484 C   0  0  0  0  0  0  0  0  0  0  0  0
  146.2911  139.7076  153.6672 O   0  0  0  0  0  0  0  0  0  0  0  0
  148.4028  140.5950  153.5078 N   0  0  0  0  0  0  0  0  0  0  0  0
  148.5348  141.2115  154.7001 C   0  0  0  0  0  0  0  0  0  0  0  0
  147.6815  141.2311  155.5891 O   0  0  0  0  0  0  0  0  0  0  0  0
  149.8671  141.9366  154.9251 C   0  0  0  0  0  0  0  0  0  0  0  0
  150.7055  141.2883  155.9241 N   0  0  0  0  0  0  0  0  0  0  0  0
  151.2001  139.9892  155.6383 C   0  0  0  0  0  0  0  0  0  0  0  0
  150.9486  139.4142  154.5774 O   0  0  0  0  0  0  0  0  0  0  0  0
  152.0255  139.4094  156.6956 C   0  0  0  0  0  0  0  0  0  0  0  0
  152.5115  138.0856  156.4875 C   0  0  0  0  0  0  0  0  0  0  0  0
  152.9142  137.0172  156.2983 N   0  0  0  0  0  0  0  0  0  0  0  0
  152.3091  140.1025  157.8193 C   0  0  0  0  0  0  0  0  0  0  0  0
  151.8613  141.3891  158.0371 N   0  0  0  0  0  0  0  0  0  0  0  0
  152.0660  142.0497  159.2955 C   0  0  0  0  0  0  0  0  0  0  0  0
  152.8060  143.3723  159.3558 C   0  0  0  0  0  0  0  0  0  0  0  0
  153.4646  142.1157  159.8699 C   0  0  0  0  0  0  0  0  0  0  0  0
  150.9983  142.0100  157.1076 C   0  0  0  0  0  0  0  0  0  0  0  0
  150.5244  143.1287  157.3225 O   0  0  0  0  0  0  0  0  0  0  0  0
  147.0105  138.4456  150.0571 H   0  0  0  0  0  0  0  0  0  0  0  0
  145.6751  139.2692  150.8696 H   0  0  0  0  0  0  0  0  0  0  0  0
  146.3353  137.7688  151.5428 H   0  0  0  0  0  0  0  0  0  0  0  0
  148.4341  139.6817  151.3581 H   0  0  0  0  0  0  0  0  0  0  0  0
  149.1936  140.6634  152.8838 H   0  0  0  0  0  0  0  0  0  0  0  0
  150.4390  142.0037  153.9980 H   0  0  0  0  0  0  0  0  0  0  0  0
  149.7078  142.9725  155.2282 H   0  0  0  0  0  0  0  0  0  0  0  0
  152.9203  139.6357  158.5783 H   0  0  0  0  0  0  0  0  0  0  0  0
  151.2636  141.9238  160.0202 H   0  0  0  0  0  0  0  0  0  0  0  0
  153.1926  143.7909  158.4284 H   0  0  0  0  0  0  0  0  0  0  0  0
  152.4690  144.1010  160.0899 H   0  0  0  0  0  0  0  0  0  0  0  0
  153.5697  142.0085  160.9475 H   0  0  0  0  0  0  0  0  0  0  0  0
  154.2822  141.7061  159.2795 H   0  0  0  0  0  0  0  0  0  0  0  0
  1  2  1  0  0  0  0
  1 22  1  0  0  0  0
  1 23  1  0  0  0  0
  1 24  1  0  0  0  0
  2  3  1  0  0  0  0
  2 25  1  0  0  0  0
  3  4  2  0  0  0  0
  3  5  1  0  0  0  0
  5  6  1  0  0  0  0
  5 26  1  0  0  0  0
  6  7  2  0  0  0  0
  6  8  1  0  0  0  0
  8  9  1  0  0  0  0
  8 27  1  0  0  0  0
  8 28  1  0  0  0  0
  9 20  1  0  0  0  0
  9 10  1  0  0  0  0
 10 11  2  0  0  0  0
 10 12  1  0  0  0  0
 12 13  1  0  0  0  0
 12 15  2  0  0  0  0
 13 14  3  0  0  0  0
 15 16  1  0  0  0  0
 15 29  1  0  0  0  0
 16 17  1  0  0  0  0
 16 20  1  0  0  0  0
 17 19  1  0  0  0  0
 17 18  1  0  0  0  0
 17 30  1  0  0  0  0
 18 19  1  0  0  0  0
 18 31  1  0  0  0  0
 18 32  1  0  0  0  0
 19 33  1  0  0  0  0
 19 34  1  0  0  0  0
 20 21  2  0  0  0  0
M  END
> <s_m_source_file>
AV-unprocessed.smi

> <i_m_source_file_index>
388

> <i_lp_mmshare_version>
43012

> <i_f3d_flags>
0

> <s_epik_input>
W0NIM11bTkhdQyg9TylbTkhdQyg9TylbQ0gyXW4xYyg9TyljKEMjTilbY0hdbihjMT1PKVtDSF0yW0NIMl1bQ0gyXTI=

> <s_epik_cmdline>
J2VwaWtfcHl0aG9uJywgJy1waCcsICc3LjAnLCAnLXRuJywgJzgnLCAnLW1hJywgJzIwMCcsICctbWV0YWxfYmluZGluZycsICctaW1hZScsICc8aW5maWxlLm1hZT4nLCAnLW9tYWUnLCAnPG91dGZpbGUubWFlPic=

> <r_lp_tautomer_probability>
1

> <r_epik_Ionization_Penalty>
2.95777e-05

> <r_epik_Ionization_Penalty_Charging>
6.31124e-11

> <r_epik_Ionization_Penalty_Neutral>
2.95776e-05

> <r_epik_State_Penalty>
-0

> <r_epik_Charging_Adjusted_Penalty>
6.31124e-11

> <i_epik_Tot_Q>
0

> <i_epik_Tot_abs_Q>
0

> <r_epik_Metal_State_Penalty>
-0

> <b_epik_Metal_Only>
0

> <s_lp_Force_Field>
OPLS_2005

> <r_lp_Energy>
33.5858

> <b_lp_Chiralities_Consistent>
1

> <s_lp_Variant>
AV-unprocessed.smi:388-1

> <Gold.Version>
5.8.1

> <Gold.Id.Protein>
6NUR|6NUR_protein|mol2

> <Gold.PLP.Fitness>
45.8158

> <Gold.PLP.PLP>
-36.8844

> <Gold.PLP.part.hbond>
-4.2493

> <Gold.PLP.part.metal>
0.0000

> <Gold.PLP.part.buried>
-0.0951

> <Gold.PLP.part.nonpolar>
-34.4945

> <Gold.PLP.part.repulsive>
2.3995

> <Gold.PLP.ligand.clash>
0.0000

> <Gold.PLP.ligand.torsion>
0.2833

> <Gold.PLP.Chemscore.Hbond>
3.1003

> <Gold.PLP.Chemscore.CHOScore>
0.0000

> <Gold.PLP.Chemscore.Metal>
0.0000

> <Gold.Chemscore.Hbonds>
donor molecule, donor type, donor heavy atom, donor atom, acceptor molecule, acceptor atom, score
      L1  H     2    25       P1  7957  0.18
      L1  H     5    26       P1  7957  0.72
      P1  H  7989  7998       L1    11  0.70
      P1  H 10752 10765       L1    14  0.80

> <Gold.PLP.Chemscore.Internal.Correction>
0.1971

> <Gold.Rescore>
     Score         DG    S(hbond)    S(metal)    S(lipo)     H(rot)  DE(clash)    DE(int)     intcor
     10.47     -15.52       2.20        0.00      63.83       1.87       1.42       3.63       ----

> <Gold.Chemscore.Fitness>
10.4674

> <Gold.Chemscore.DG>
-15.5159

> <Gold.Chemscore.ZeroCoef>
-5.4800

> <Gold.Chemscore.Hbond>
2.1996

> <Gold.Chemscore.Metal>
0.0000

> <Gold.Chemscore.Lipo>
63.8288

> <Gold.Chemscore.Internal_Hbond>
0.0000

> <Gold.Chemscore.DEClash>
1.4233

> <Gold.Chemscore.DEInternal>
3.6252

> <Gold.Chemscore.Rot>
1.8667

> <Gold.Chemscore.Internal.Correction>
   9.000000E+99

> <Gold.Chemscore.Hbonds>
donor molecule, donor type, donor heavy atom, donor atom, acceptor molecule, acceptor atom, score
      L1  H     2    25       P1  7957  0.19
      L1  H     5    26       P1  7957  0.72
      P1  H  7989  7998       L1    11  0.07
      P1  H 10752 10765       L1    14  0.79

> <Gold.Chemscore.Hbond.Weighted>
-7.3467

> <Gold.Chemscore.Metal.Weighted>
-0.0000

> <Gold.Chemscore.Lipo.Weighted>
-7.4680

> <Gold.Chemscore.Internal_Hbond.Weighted>
0.0000

> <Gold.Chemscore.DEClash.Weighted>
1.4233

> <Gold.Chemscore.DEInternal.Weighted>
3.6252

> <Gold.Chemscore.Rot.Weighted>
4.7787

> <Gold.Chemscore.Internal.Correction.Weighted>
   9.000000E+99

> <Gold.Protein.RotatedTorsions>
[ 6907 6896 6895 6894 ] final   24.32 input  -60.11 | X-H torsion
[ 7974 7965 7964 7962 ] final   -9.54 input  175.53 | X-H torsion
[ 8008 7997 7996 7995 ] final  -38.75 input   59.86 | X-H torsion
[ 10167 10162 10161 10158 ] final  147.94 input  -65.29 | X-H torsion
[ 10718 10713 10712 10709 ] final  -65.60 input   66.30 | X-H torsion
[ 10763 10752 10751 10750 ] final -140.03 input  -60.55 | X-H torsion
[ 11005 11000 10999 10996 ] final -121.34 input  -57.11 | X-H torsion

> <Gold.Protein.ActiveResidues>
 VAL166  LYS551  ARG553  GLY616  TRP617  ASP618  TYR619  PRO620  LYS621  CYS622 
 ASP623  PHE694  ASN695  SER759  ASP760  ASP761  ALA762  ILE779  LEU786  VAL792 
 PHE793  MET794  SER795  GLU796  ALA797  LYS798  CYS799  TRP800  GLU811  SER814 

> <Gold.Protein.RotatedAtoms>
  151.9557  135.0148  160.0544 H   0  0  0  0  0  0  0  0  0  0  0  0  # atno 6907 bound_to 6896
  152.1914  133.4771  159.5018 H   0  0  0  0  0  0  0  0  0  0  0  0  # atno 6908 bound_to 6896
  150.6936  134.1625  159.4224 H   0  0  0  0  0  0  0  0  0  0  0  0  # atno 6909 bound_to 6896
  146.2248  140.2631  142.8353 H   0  0  0  0  0  0  0  0  0  0  0  0  # atno 7974 bound_to 7965
  154.4032  140.1569  156.2751 H   0  0  0  0  0  0  0  0  0  0  0  0  # atno 8008 bound_to 7997
  155.8918  140.3438  155.5940 H   0  0  0  0  0  0  0  0  0  0  0  0  # atno 8009 bound_to 7997
  155.7549  140.0810  157.2174 H   0  0  0  0  0  0  0  0  0  0  0  0  # atno 8010 bound_to 7997
  139.4882  144.5717  151.7042 H   0  0  0  0  0  0  0  0  0  0  0  0  # atno 10167 bound_to 10162
  156.0660  130.4250  150.1588 H   0  0  0  0  0  0  0  0  0  0  0  0  # atno 10718 bound_to 10713
  154.8591  135.3565  154.5642 H   0  0  0  0  0  0  0  0  0  0  0  0  # atno 10763 bound_to 10752
  153.6256  135.7004  153.5299 H   0  0  0  0  0  0  0  0  0  0  0  0  # atno 10764 bound_to 10752
  153.3092  135.4183  155.1281 H   0  0  0  0  0  0  0  0  0  0  0  0  # atno 10765 bound_to 10752
  141.0077  134.0310  157.3455 H   0  0  0  0  0  0  0  0  0  0  0  0  # atno 11005 bound_to 11000
  144.9324  140.7990  143.5681 LP  0  0  0  0  0  0  0  0  0  0  0  0  # atno 17320 bound_to 7965
  145.2576  139.2005  143.4909 LP  0  0  0  0  0  0  0  0  0  0  0  0  # atno 17321 bound_to 7965
  140.5305  144.0737  150.6052 LP  0  0  0  0  0  0  0  0  0  0  0  0  # atno 17342 bound_to 10162
  140.3726  143.2846  152.0261 LP  0  0  0  0  0  0  0  0  0  0  0  0  # atno 17343 bound_to 10162
  156.9648  130.9816  151.3471 LP  0  0  0  0  0  0  0  0  0  0  0  0  # atno 17370 bound_to 10713
  157.5701  130.8305  149.8380 LP  0  0  0  0  0  0  0  0  0  0  0  0  # atno 17371 bound_to 10713
  139.9073  135.0182  156.7540 LP  0  0  0  0  0  0  0  0  0  0  0  0  # atno 17394 bound_to 11000
  140.6785  133.9496  155.7896 LP  0  0  0  0  0  0  0  0  0  0  0  0  # atno 17395 bound_to 11000

$$$$
