AV-unprocessed.smi:3090|AV-procd|sdf|11777|dock7
  -GOLD-   2272017153D 1   1.00000     0.00000
 Structure written by MMmdl.
 21 21  0  0  0  0  0  0  0  0  1 V2000
  142.8947  136.0054  153.4480 C   0  0  0  0  0  0  0  0  0  0  0  0
  143.4682  135.1735  152.4121 N   0  0  0  0  0  0  0  0  0  0  0  0
  143.1613  133.8703  152.0853 C   0  0  0  0  0  0  0  0  0  0  0  0
  143.9684  133.5056  151.0428 C   0  0  0  0  0  0  0  0  0  0  0  0
  144.0405  132.1959  150.3023 C   0  0  1  0  0  0  0  0  0  0  0  0
  142.9085  132.0227  149.4732 O   0  0  0  0  0  0  0  0  0  0  0  0
  145.2940  132.1498  149.4120 C   0  0  0  0  0  0  0  0  0  0  0  0
  146.5396  132.3540  150.1681 N   0  0  0  0  0  0  0  0  0  0  0  0
  144.7393  134.6789  150.8011 C   0  0  0  0  0  0  0  0  0  0  0  0
  144.4394  135.6728  151.6211 N   0  0  0  0  0  0  0  0  0  0  0  0
  142.1263  135.4530  153.9896 H   0  0  0  0  0  0  0  0  0  0  0  0
  142.4458  136.8936  153.0023 H   0  0  0  0  0  0  0  0  0  0  0  0
  143.6727  136.3099  154.1486 H   0  0  0  0  0  0  0  0  0  0  0  0
  142.4025  133.3134  152.6154 H   0  0  0  0  0  0  0  0  0  0  0  0
  144.0673  131.3667  151.0107 H   0  0  0  0  0  0  0  0  0  0  0  0
  142.3827  132.8065  149.5163 H   0  0  0  0  0  0  0  0  0  0  0  0
  145.3321  131.2114  148.8574 H   0  0  0  0  0  0  0  0  0  0  0  0
  145.2188  132.9390  148.6630 H   0  0  0  0  0  0  0  0  0  0  0  0
  146.3728  132.2389  151.1667 H   0  0  0  0  0  0  0  0  0  0  0  0
  147.2374  131.6622  149.8991 H   0  0  0  0  0  0  0  0  0  0  0  0
  145.5055  134.8355  150.0563 H   0  0  0  0  0  0  0  0  0  0  0  0
  1  2  1  0  0  0  0
  1 11  1  0  0  0  0
  1 12  1  0  0  0  0
  1 13  1  0  0  0  0
  2 10  1  0  0  0  0
  2  3  1  0  0  0  0
  3  4  2  0  0  0  0
  3 14  1  0  0  0  0
  4  5  1  0  0  0  0
  4  9  1  0  0  0  0
  5  6  1  0  0  0  0
  5  7  1  0  0  0  0
  5 15  1  0  0  0  0
  6 16  1  0  0  0  0
  7  8  1  0  0  0  0
  7 17  1  0  0  0  0
  7 18  1  0  0  0  0
  8 19  1  0  0  0  0
  8 20  1  0  0  0  0
  9 10  2  0  0  0  0
  9 21  1  0  0  0  0
M  END
> <s_m_source_file>
AV-unprocessed.smi

> <i_m_source_file_index>
3090

> <i_lp_mmshare_version>
43012

> <i_f3d_flags>
0

> <s_epik_input>
W0NIM11uMVtjSF1jKFtjSF1uMSlbQ0BIXShbT0hdKVtDSDJdW05IMl0=

> <s_epik_cmdline>
J2VwaWtfcHl0aG9uJywgJy1waCcsICc3LjAnLCAnLXRuJywgJzgnLCAnLW1hJywgJzIwMCcsICctbWV0YWxfYmluZGluZycsICctaW1hZScsICc8aW5maWxlLm1hZT4nLCAnLW9tYWUnLCAnPG91dGZpbGUubWFlPic=

> <r_lp_tautomer_probability>
1

> <r_epik_Ionization_Penalty>
2.22426

> <r_epik_Ionization_Penalty_Charging>
0

> <r_epik_Ionization_Penalty_Neutral>
2.22426

> <r_epik_State_Penalty>
2.36938

> <r_epik_Charging_Adjusted_Penalty>
2.36938

> <i_epik_Tot_Q>
0

> <i_epik_Tot_abs_Q>
0

> <r_epik_Metal_State_Penalty>
2.36934

> <b_epik_Metal_Only>
0

> <s_lp_Force_Field>
OPLS_2005

> <r_lp_Energy>
8.04815

> <b_lp_Chiralities_Consistent>
1

> <s_lp_Variant>
AV-unprocessed.smi:3090-4

> <Gold.Version>
5.8.1

> <Gold.Id.Protein>
6NUR|6NUR_protein|mol2

> <Gold.PLP.Fitness>
36.2870

> <Gold.PLP.PLP>
-23.5580

> <Gold.PLP.part.hbond>
-3.9193

> <Gold.PLP.part.metal>
0.0000

> <Gold.PLP.part.buried>
-5.5620

> <Gold.PLP.part.nonpolar>
-15.3938

> <Gold.PLP.part.repulsive>
0.1779

> <Gold.PLP.ligand.clash>
0.0000

> <Gold.PLP.ligand.torsion>
0.2804

> <Gold.PLP.Chemscore.Hbond>
2.7635

> <Gold.PLP.Chemscore.CHOScore>
1.6661

> <Gold.PLP.Chemscore.Metal>
0.0000

> <Gold.Chemscore.Hbonds>
donor molecule, donor type, donor heavy atom, donor atom, acceptor molecule, acceptor atom, score
      L1  H     6    16       P1 10186  0.80
      L1  H     8    20       P1 10747  0.96
      P1  H 10785 10796       L1     6  0.98
      L1  C     3    14       P1 10957  0.68
      L1  C     9    21       P1  7921  1.00

> <Gold.PLP.Chemscore.Internal.Correction>
0.0009

> <Gold.Rescore>
     Score         DG    S(hbond)    S(metal)    S(lipo)     H(rot)  DE(clash)    DE(int)     intcor
     13.07     -13.39       2.31        0.00      43.42       1.90       0.00       0.32       ----

> <Gold.Chemscore.Fitness>
13.0706

> <Gold.Chemscore.DG>
-13.3856

> <Gold.Chemscore.ZeroCoef>
-5.4800

> <Gold.Chemscore.Hbond>
2.3051

> <Gold.Chemscore.Metal>
0.0000

> <Gold.Chemscore.Lipo>
43.4241

> <Gold.Chemscore.Internal_Hbond>
0.0000

> <Gold.Chemscore.DEClash>
0.0000

> <Gold.Chemscore.DEInternal>
0.3150

> <Gold.Chemscore.Rot>
1.9039

> <Gold.Chemscore.Internal.Correction>
   9.000000E+99

> <Gold.Chemscore.Hbonds>
donor molecule, donor type, donor heavy atom, donor atom, acceptor molecule, acceptor atom, score
      L1  H     6    16       P1 10186  0.79
      L1  H     8    20       P1 10747  0.92
      P1  H 10785 10796       L1     6  0.32

> <Gold.Chemscore.Hbond.Weighted>
-7.6989

> <Gold.Chemscore.Metal.Weighted>
-0.0000

> <Gold.Chemscore.Lipo.Weighted>
-5.0806

> <Gold.Chemscore.Internal_Hbond.Weighted>
0.0000

> <Gold.Chemscore.DEClash.Weighted>
0.0000

> <Gold.Chemscore.DEInternal.Weighted>
0.3150

> <Gold.Chemscore.Rot.Weighted>
4.8739

> <Gold.Chemscore.Internal.Correction.Weighted>
   9.000000E+99

> <Gold.Protein.RotatedTorsions>
[ 6907 6896 6895 6894 ] final  129.29 input  -60.11 | X-H torsion
[ 7974 7965 7964 7962 ] final  143.76 input  175.53 | X-H torsion
[ 8008 7997 7996 7995 ] final  165.03 input   59.86 | X-H torsion
[ 10167 10162 10161 10158 ] final  173.18 input  -65.29 | X-H torsion
[ 10718 10713 10712 10709 ] final -114.11 input   66.30 | X-H torsion
[ 10763 10752 10751 10750 ] final -116.20 input  -60.55 | X-H torsion
[ 11005 11000 10999 10996 ] final   16.62 input  -57.11 | X-H torsion

> <Gold.Protein.ActiveResidues>
 VAL166  LYS551  ARG553  GLY616  TRP617  ASP618  TYR619  PRO620  LYS621  CYS622 
 ASP623  PHE694  ASN695  SER759  ASP760  ASP761  ALA762  ILE779  LEU786  VAL792 
 PHE793  MET794  SER795  GLU796  ALA797  LYS798  CYS799  TRP800  GLU811  SER814 

> <Gold.Protein.RotatedAtoms>
  152.3638  133.6331  159.6034 H   0  0  0  0  0  0  0  0  0  0  0  0  # atno 6907 bound_to 6896
  150.7620  133.9380  159.3456 H   0  0  0  0  0  0  0  0  0  0  0  0  # atno 6908 bound_to 6896
  151.7214  135.0894  160.0336 H   0  0  0  0  0  0  0  0  0  0  0  0  # atno 6909 bound_to 6896
  144.8893  139.5582  143.5806 H   0  0  0  0  0  0  0  0  0  0  0  0  # atno 7974 bound_to 7965
  156.1833  140.1681  156.8233 H   0  0  0  0  0  0  0  0  0  0  0  0  # atno 8008 bound_to 7997
  154.5385  140.0741  156.8502 H   0  0  0  0  0  0  0  0  0  0  0  0  # atno 8009 bound_to 7997
  155.3262  140.3376  155.4242 H   0  0  0  0  0  0  0  0  0  0  0  0  # atno 8010 bound_to 7997
  139.5100  144.3290  152.0130 H   0  0  0  0  0  0  0  0  0  0  0  0  # atno 10167 bound_to 10162
  156.0809  130.6009  150.8731 H   0  0  0  0  0  0  0  0  0  0  0  0  # atno 10718 bound_to 10713
  154.8510  135.4354  154.1783 H   0  0  0  0  0  0  0  0  0  0  0  0  # atno 10763 bound_to 10752
  153.2880  135.6959  153.7327 H   0  0  0  0  0  0  0  0  0  0  0  0  # atno 10764 bound_to 10752
  153.6505  135.3452  155.3073 H   0  0  0  0  0  0  0  0  0  0  0  0  # atno 10765 bound_to 10752
  140.4451  134.1282  155.7695 H   0  0  0  0  0  0  0  0  0  0  0  0  # atno 11005 bound_to 11000
  146.3044  139.7530  142.9067 LP  0  0  0  0  0  0  0  0  0  0  0  0  # atno 17320 bound_to 7965
  145.3812  141.0358  143.3176 LP  0  0  0  0  0  0  0  0  0  0  0  0  # atno 17321 bound_to 7965
  140.2730  144.3943  150.6145 LP  0  0  0  0  0  0  0  0  0  0  0  0  # atno 17342 bound_to 10162
  140.6074  143.2168  151.6953 LP  0  0  0  0  0  0  0  0  0  0  0  0  # atno 17343 bound_to 10162
  157.5925  131.0944  150.9095 LP  0  0  0  0  0  0  0  0  0  0  0  0  # atno 17370 bound_to 10713
  156.9268  130.5335  149.5279 LP  0  0  0  0  0  0  0  0  0  0  0  0  # atno 17371 bound_to 10713
  141.1689  133.8649  157.1632 LP  0  0  0  0  0  0  0  0  0  0  0  0  # atno 17394 bound_to 11000
  140.0044  135.0014  157.0260 LP  0  0  0  0  0  0  0  0  0  0  0  0  # atno 17395 bound_to 11000

$$$$
