AV-unprocessed.smi:2659|AV-procd|sdf|10313|dock10
  -GOLD-   2272014333D 1   1.00000     0.00000
 Structure written by MMmdl.
 47 48  0  0  0  0  0  0  0  0  1 V2000
  151.5826  137.7837  154.3177 C   0  0  0  0  0  0  0  0  0  0  0  0
  150.8892  139.0165  154.6357 N   0  0  0  0  0  0  0  0  0  0  0  0
  151.5121  139.9771  155.3511 N   0  0  0  0  0  0  0  0  0  0  0  0
  150.6255  140.9607  155.4639 C   0  0  0  0  0  0  0  0  0  0  0  0
  150.9953  142.2182  156.2091 C   0  0  0  0  0  0  0  0  0  0  0  0
  151.0678  142.0747  157.7561 C   0  0  0  0  0  0  0  0  0  0  0  0
  151.9529  140.8703  158.1348 C   0  0  0  0  0  0  0  0  0  0  0  0
  149.6458  141.8250  158.2955 C   0  0  0  0  0  0  0  0  0  0  0  0
  151.6302  143.3445  158.4310 C   0  0  0  0  0  0  0  0  0  0  0  0
  149.3865  140.6563  154.8273 C   0  0  0  0  0  0  0  0  0  0  0  0
  149.6096  139.4089  154.3121 C   0  0  0  0  0  0  0  0  0  0  0  0
  148.7696  138.6171  153.5941 N   0  0  0  0  0  0  0  0  0  0  0  0
  147.4381  138.7237  153.4425 C   0  0  0  0  0  0  0  0  0  0  0  0
  146.7276  139.5919  153.9498 O   0  0  0  0  0  0  0  0  0  0  0  0
  146.9628  137.7492  152.6546 N   0  0  0  0  0  0  0  0  0  0  0  0
  145.5600  137.5687  152.2989 C   0  0  0  0  0  0  0  0  0  0  0  0
  145.2120  136.0841  152.1026 C   0  0  1  0  0  0  0  0  0  0  0  0
  145.6085  135.5363  150.7340 C   0  0  0  0  0  0  0  0  0  0  0  0
  145.6980  134.0543  151.0176 C   0  0  0  0  0  0  0  0  0  0  0  0
  146.2916  134.0338  152.4242 C   0  0  0  0  0  0  0  0  0  0  0  0
  145.9261  135.2718  153.0305 O   0  0  0  0  0  0  0  0  0  0  0  0
  151.5621  137.6194  153.2402 H   0  0  0  0  0  0  0  0  0  0  0  0
  151.0897  136.9487  154.8158 H   0  0  0  0  0  0  0  0  0  0  0  0
  152.6214  137.8309  154.6471 H   0  0  0  0  0  0  0  0  0  0  0  0
  151.9709  142.5399  155.8423 H   0  0  0  0  0  0  0  0  0  0  0  0
  150.3164  143.0284  155.9395 H   0  0  0  0  0  0  0  0  0  0  0  0
  151.9760  140.7191  159.2147 H   0  0  0  0  0  0  0  0  0  0  0  0
  152.9830  141.0094  157.8067 H   0  0  0  0  0  0  0  0  0  0  0  0
  151.5863  139.9475  157.6839 H   0  0  0  0  0  0  0  0  0  0  0  0
  149.2013  140.9360  157.8466 H   0  0  0  0  0  0  0  0  0  0  0  0
  148.9851  142.6662  158.0824 H   0  0  0  0  0  0  0  0  0  0  0  0
  149.6484  141.6800  159.3764 H   0  0  0  0  0  0  0  0  0  0  0  0
  151.5963  143.2619  159.5178 H   0  0  0  0  0  0  0  0  0  0  0  0
  151.0550  144.2281  158.1520 H   0  0  0  0  0  0  0  0  0  0  0  0
  152.6705  143.5263  158.1594 H   0  0  0  0  0  0  0  0  0  0  0  0
  148.4993  141.2680  154.7678 H   0  0  0  0  0  0  0  0  0  0  0  0
  149.2117  137.8519  153.1064 H   0  0  0  0  0  0  0  0  0  0  0  0
  147.6148  137.0739  152.2834 H   0  0  0  0  0  0  0  0  0  0  0  0
  144.9233  138.0077  153.0687 H   0  0  0  0  0  0  0  0  0  0  0  0
  145.3636  138.1242  151.3815 H   0  0  0  0  0  0  0  0  0  0  0  0
  144.1445  135.9153  152.2545 H   0  0  0  0  0  0  0  0  0  0  0  0
  144.8881  135.7804  149.9530 H   0  0  0  0  0  0  0  0  0  0  0  0
  146.5848  135.9188  150.4327 H   0  0  0  0  0  0  0  0  0  0  0  0
  144.6993  133.6157  151.0251 H   0  0  0  0  0  0  0  0  0  0  0  0
  146.3038  133.5127  150.2908 H   0  0  0  0  0  0  0  0  0  0  0  0
  145.9334  133.1860  153.0086 H   0  0  0  0  0  0  0  0  0  0  0  0
  147.3798  133.9791  152.3806 H   0  0  0  0  0  0  0  0  0  0  0  0
  1  2  1  0  0  0  0
  1 22  1  0  0  0  0
  1 23  1  0  0  0  0
  1 24  1  0  0  0  0
  2 11  1  0  0  0  0
  2  3  1  0  0  0  0
  3  4  2  0  0  0  0
  4  5  1  0  0  0  0
  4 10  1  0  0  0  0
  5  6  1  0  0  0  0
  5 25  1  0  0  0  0
  5 26  1  0  0  0  0
  6  7  1  0  0  0  0
  6  8  1  0  0  0  0
  6  9  1  0  0  0  0
  7 27  1  0  0  0  0
  7 28  1  0  0  0  0
  7 29  1  0  0  0  0
  8 30  1  0  0  0  0
  8 31  1  0  0  0  0
  8 32  1  0  0  0  0
  9 33  1  0  0  0  0
  9 34  1  0  0  0  0
  9 35  1  0  0  0  0
 10 11  2  0  0  0  0
 10 36  1  0  0  0  0
 11 12  1  0  0  0  0
 12 13  1  0  0  0  0
 12 37  1  0  0  0  0
 13 14  2  0  0  0  0
 13 15  1  0  0  0  0
 15 16  1  0  0  0  0
 15 38  1  0  0  0  0
 16 17  1  0  0  0  0
 16 39  1  0  0  0  0
 16 40  1  0  0  0  0
 17 21  1  0  0  0  0
 17 18  1  0  0  0  0
 17 41  1  0  0  0  0
 18 19  1  0  0  0  0
 18 42  1  0  0  0  0
 18 43  1  0  0  0  0
 19 20  1  0  0  0  0
 19 44  1  0  0  0  0
 19 45  1  0  0  0  0
 20 21  1  0  0  0  0
 20 46  1  0  0  0  0
 20 47  1  0  0  0  0
M  END
> <s_m_source_file>
AV-unprocessed.smi

> <i_m_source_file_index>
2659

> <i_lp_mmshare_version>
43012

> <i_f3d_flags>
0

> <s_epik_input>
W0NIM11uMW5jKFtDSDJdQyhbQ0gzXSkoW0NIM10pW0NIM10pW2NIXWMxW05IXUMoPU8pW05IXVtDSDJdW0NAQEhdMltDSDJdW0NIMl1bQ0gyXU8y

> <s_epik_cmdline>
J2VwaWtfcHl0aG9uJywgJy1waCcsICc3LjAnLCAnLXRuJywgJzgnLCAnLW1hJywgJzIwMCcsICctbWV0YWxfYmluZGluZycsICctaW1hZScsICc8aW5maWxlLm1hZT4nLCAnLW9tYWUnLCAnPG91dGZpbGUubWFlPic=

> <r_lp_tautomer_probability>
1

> <r_epik_Ionization_Penalty>
9.6187e-05

> <r_epik_Ionization_Penalty_Charging>
0

> <r_epik_Ionization_Penalty_Neutral>
9.6187e-05

> <r_epik_State_Penalty>
-0

> <r_epik_Charging_Adjusted_Penalty>
0

> <i_epik_Tot_Q>
0

> <i_epik_Tot_abs_Q>
0

> <r_epik_Metal_State_Penalty>
-0

> <b_epik_Metal_Only>
0

> <s_lp_Force_Field>
OPLS_2005

> <r_lp_Energy>
21.1922

> <b_lp_Chiralities_Consistent>
1

> <s_lp_Variant>
AV-unprocessed.smi:2659-2

> <Gold.Version>
5.8.1

> <Gold.Id.Protein>
6NUR|6NUR_protein|mol2

> <Gold.PLP.Fitness>
43.7932

> <Gold.PLP.PLP>
-39.2499

> <Gold.PLP.part.hbond>
-4.0000

> <Gold.PLP.part.metal>
0.0000

> <Gold.PLP.part.buried>
-3.7887

> <Gold.PLP.part.nonpolar>
-31.4562

> <Gold.PLP.part.repulsive>
0.3614

> <Gold.PLP.ligand.clash>
0.0000

> <Gold.PLP.ligand.torsion>
0.6747

> <Gold.PLP.Chemscore.Hbond>
1.9600

> <Gold.PLP.Chemscore.CHOScore>
0.0000

> <Gold.PLP.Chemscore.Metal>
0.0000

> <Gold.Chemscore.Hbonds>
donor molecule, donor type, donor heavy atom, donor atom, acceptor molecule, acceptor atom, score
      L1  H    12    37       P1  7948  0.96
      L1  H    15    38       P1  7948  1.00

> <Gold.PLP.Chemscore.Internal.Correction>
0.0127

> <Gold.Rescore>
     Score         DG    S(hbond)    S(metal)    S(lipo)     H(rot)  DE(clash)    DE(int)     intcor
     16.40     -18.13       1.91        0.00      86.25       1.49       0.07       1.66       ----

> <Gold.Chemscore.Fitness>
16.3993

> <Gold.Chemscore.DG>
-18.1333

> <Gold.Chemscore.ZeroCoef>
-5.4800

> <Gold.Chemscore.Hbond>
1.9088

> <Gold.Chemscore.Metal>
0.0000

> <Gold.Chemscore.Lipo>
86.2454

> <Gold.Chemscore.Internal_Hbond>
0.0000

> <Gold.Chemscore.DEClash>
0.0706

> <Gold.Chemscore.DEInternal>
1.6634

> <Gold.Chemscore.Rot>
1.4894

> <Gold.Chemscore.Internal.Correction>
   9.000000E+99

> <Gold.Chemscore.Hbonds>
donor molecule, donor type, donor heavy atom, donor atom, acceptor molecule, acceptor atom, score
      L1  H    12    37       P1  7948  0.85
      L1  H    15    38       P1  7948  0.99

> <Gold.Chemscore.Hbond.Weighted>
-6.3755

> <Gold.Chemscore.Metal.Weighted>
-0.0000

> <Gold.Chemscore.Lipo.Weighted>
-10.0907

> <Gold.Chemscore.Internal_Hbond.Weighted>
0.0000

> <Gold.Chemscore.DEClash.Weighted>
0.0706

> <Gold.Chemscore.DEInternal.Weighted>
1.6634

> <Gold.Chemscore.Rot.Weighted>
3.8129

> <Gold.Chemscore.Internal.Correction.Weighted>
   9.000000E+99

> <Gold.Protein.RotatedTorsions>
[ 6907 6896 6895 6894 ] final  179.24 input  -60.11 | X-H torsion
[ 7974 7965 7964 7962 ] final  -20.37 input  175.53 | X-H torsion
[ 8008 7997 7996 7995 ] final  -71.80 input   59.86 | X-H torsion
[ 10167 10162 10161 10158 ] final  136.35 input  -65.29 | X-H torsion
[ 10718 10713 10712 10709 ] final  -53.55 input   66.30 | X-H torsion
[ 10763 10752 10751 10750 ] final   54.46 input  -60.55 | X-H torsion
[ 11005 11000 10999 10996 ] final -115.70 input  -57.11 | X-H torsion

> <Gold.Protein.ActiveResidues>
 VAL166  LYS551  ARG553  GLY616  TRP617  ASP618  TYR619  PRO620  LYS621  CYS622 
 ASP623  PHE694  ASN695  SER759  ASP760  ASP761  ALA762  ILE779  LEU786  VAL792 
 PHE793  MET794  SER795  GLU796  ALA797  LYS798  CYS799  TRP800  GLU811  SER814 

> <Gold.Protein.RotatedAtoms>
  151.6749  133.3313  159.3205 H   0  0  0  0  0  0  0  0  0  0  0  0  # atno 6907 bound_to 6896
  150.7850  134.6831  159.6464 H   0  0  0  0  0  0  0  0  0  0  0  0  # atno 6908 bound_to 6896
  152.3917  134.6433  160.0157 H   0  0  0  0  0  0  0  0  0  0  0  0  # atno 6909 bound_to 6896
  146.1792  140.4192  142.8501 H   0  0  0  0  0  0  0  0  0  0  0  0  # atno 7974 bound_to 7965
  154.5116  140.0809  156.8001 H   0  0  0  0  0  0  0  0  0  0  0  0  # atno 8008 bound_to 7997
  155.3772  140.3426  155.4227 H   0  0  0  0  0  0  0  0  0  0  0  0  # atno 8009 bound_to 7997
  156.1580  140.1579  156.8648 H   0  0  0  0  0  0  0  0  0  0  0  0  # atno 8010 bound_to 7997
  139.5183  144.6469  151.5414 H   0  0  0  0  0  0  0  0  0  0  0  0  # atno 10167 bound_to 10162
  156.1525  130.4151  149.9921 H   0  0  0  0  0  0  0  0  0  0  0  0  # atno 10718 bound_to 10713
  152.9805  135.5744  154.4908 H   0  0  0  0  0  0  0  0  0  0  0  0  # atno 10763 bound_to 10752
  154.4442  135.2776  155.1828 H   0  0  0  0  0  0  0  0  0  0  0  0  # atno 10764 bound_to 10752
  154.3483  135.6214  153.5684 H   0  0  0  0  0  0  0  0  0  0  0  0  # atno 10765 bound_to 10752
  141.0470  133.9747  157.2900 H   0  0  0  0  0  0  0  0  0  0  0  0  # atno 11005 bound_to 11000
  144.8286  140.6670  143.6306 LP  0  0  0  0  0  0  0  0  0  0  0  0  # atno 17320 bound_to 7965
  145.4125  139.1577  143.4118 LP  0  0  0  0  0  0  0  0  0  0  0  0  # atno 17321 bound_to 7965
  140.6257  143.9172  150.6563 LP  0  0  0  0  0  0  0  0  0  0  0  0  # atno 17342 bound_to 10162
  140.2460  143.3628  152.1446 LP  0  0  0  0  0  0  0  0  0  0  0  0  # atno 17343 bound_to 10162
  156.7775  130.9209  151.3645 LP  0  0  0  0  0  0  0  0  0  0  0  0  # atno 17370 bound_to 10713
  157.6669  130.9015  149.9951 LP  0  0  0  0  0  0  0  0  0  0  0  0  # atno 17371 bound_to 10713
  139.9320  135.0199  156.8431 LP  0  0  0  0  0  0  0  0  0  0  0  0  # atno 17394 bound_to 11000
  140.6127  134.0067  155.7584 LP  0  0  0  0  0  0  0  0  0  0  0  0  # atno 17395 bound_to 11000

$$$$
