AV-unprocessed.smi:350|AV-procd|sdf|2398|dock2
  -GOLD-   2262022333D 1   1.00000     0.00000
 Structure written by MMmdl.
 35 36  0  0  0  0  0  0  0  0  1 V2000
  147.3606  141.4375  154.7813 C   0  0  0  0  0  0  0  0  0  0  0  0
  148.7168  140.9321  155.1931 C   0  0  0  0  0  0  0  0  0  0  0  0
  149.4488  141.7359  155.8921 N   0  0  0  0  0  0  0  0  0  0  0  0
  150.7107  141.3717  156.3210 N   0  0  0  0  0  0  0  0  0  0  0  0
  151.4064  142.4156  157.0849 C   0  0  0  0  0  0  0  0  0  0  0  0
  150.6456  142.7965  158.3739 C   0  0  2  0  0  0  0  0  0  0  0  0
  150.0047  144.0423  158.1822 O   0  0  0  0  0  0  0  0  0  0  0  0
  151.5859  142.8444  159.5689 C   0  0  0  0  0  0  0  0  0  0  0  0
  152.4845  141.7812  159.8028 C   0  0  0  0  0  0  0  0  0  0  0  0
  153.3613  141.8214  160.9046 C   0  0  0  0  0  0  0  0  0  0  0  0
  153.3463  142.9263  161.7780 C   0  0  0  0  0  0  0  0  0  0  0  0
  154.4201  142.9752  163.1276 Cl  0  0  0  0  0  0  0  0  0  0  0  0
  152.4548  143.9918  161.5476 C   0  0  0  0  0  0  0  0  0  0  0  0
  151.5782  143.9517  160.4460 C   0  0  0  0  0  0  0  0  0  0  0  0
  151.2996  140.1683  156.0668 C   0  0  0  0  0  0  0  0  0  0  0  0
  152.4278  139.8818  156.4699 O   0  0  0  0  0  0  0  0  0  0  0  0
  150.4650  139.2628  155.2735 C   0  0  0  0  0  0  0  0  0  0  0  0
  151.0451  137.9916  154.9818 C   0  0  0  0  0  0  0  0  0  0  0  0
  151.5158  136.9561  154.7662 N   0  0  0  0  0  0  0  0  0  0  0  0
  149.2258  139.6098  154.8443 C   0  0  0  0  0  0  0  0  0  0  0  0
  148.3202  138.7069  154.0177 C   0  0  0  0  0  0  0  0  0  0  0  0
  146.5739  140.7708  155.1353 H   0  0  0  0  0  0  0  0  0  0  0  0
  147.2864  141.5026  153.6959 H   0  0  0  0  0  0  0  0  0  0  0  0
  147.1558  142.4300  155.1861 H   0  0  0  0  0  0  0  0  0  0  0  0
  152.3851  142.0161  157.3588 H   0  0  0  0  0  0  0  0  0  0  0  0
  151.6268  143.2986  156.4820 H   0  0  0  0  0  0  0  0  0  0  0  0
  149.8711  142.0556  158.5775 H   0  0  0  0  0  0  0  0  0  0  0  0
  149.6377  144.0599  157.3116 H   0  0  0  0  0  0  0  0  0  0  0  0
  152.5061  140.9302  159.1378 H   0  0  0  0  0  0  0  0  0  0  0  0
  154.0453  141.0038  161.0781 H   0  0  0  0  0  0  0  0  0  0  0  0
  152.4421  144.8413  162.2144 H   0  0  0  0  0  0  0  0  0  0  0  0
  150.9000  144.7752  160.2756 H   0  0  0  0  0  0  0  0  0  0  0  0
  148.7936  137.7553  153.7773 H   0  0  0  0  0  0  0  0  0  0  0  0
  148.0571  139.1872  153.0746 H   0  0  0  0  0  0  0  0  0  0  0  0
  147.4005  138.4875  154.5609 H   0  0  0  0  0  0  0  0  0  0  0  0
  1  2  1  0  0  0  0
  1 22  1  0  0  0  0
  1 23  1  0  0  0  0
  1 24  1  0  0  0  0
  2 20  1  0  0  0  0
  2  3  2  0  0  0  0
  3  4  1  0  0  0  0
  4  5  1  0  0  0  0
  4 15  1  0  0  0  0
  5  6  1  0  0  0  0
  5 25  1  0  0  0  0
  5 26  1  0  0  0  0
  6  7  1  0  0  0  0
  6  8  1  0  0  0  0
  6 27  1  0  0  0  0
  7 28  1  0  0  0  0
  8 14  1  0  0  0  0
  8  9  2  0  0  0  0
  9 10  1  0  0  0  0
  9 29  1  0  0  0  0
 10 11  2  0  0  0  0
 10 30  1  0  0  0  0
 11 12  1  0  0  0  0
 11 13  1  0  0  0  0
 13 14  2  0  0  0  0
 13 31  1  0  0  0  0
 14 32  1  0  0  0  0
 15 16  2  0  0  0  0
 15 17  1  0  0  0  0
 17 18  1  0  0  0  0
 17 20  2  0  0  0  0
 18 19  3  0  0  0  0
 20 21  1  0  0  0  0
 21 33  1  0  0  0  0
 21 34  1  0  0  0  0
 21 35  1  0  0  0  0
M  END
> <s_m_source_file>
AV-unprocessed.smi

> <i_m_source_file_index>
350

> <i_lp_mmshare_version>
43012

> <i_f3d_flags>
0

> <s_epik_input>
TiNDYyhjMVtDSDNdKWMoPU8pbihuYzFbQ0gzXSlbQ0gyXVtDQEhdKFtPSF0pYzJbY0hdW2NIXWMoQ2wpW2NIXVtjSF0y

> <s_epik_cmdline>
J2VwaWtfcHl0aG9uJywgJy1waCcsICc3LjAnLCAnLXRuJywgJzgnLCAnLW1hJywgJzIwMCcsICctbWV0YWxfYmluZGluZycsICctaW1hZScsICc8aW5maWxlLm1hZT4nLCAnLW9tYWUnLCAnPG91dGZpbGUubWFlPic=

> <r_lp_tautomer_probability>
1

> <r_epik_Ionization_Penalty>
1.17315e-07

> <r_epik_Ionization_Penalty_Charging>
1.40848e-10

> <r_epik_Ionization_Penalty_Neutral>
1.17174e-07

> <r_epik_State_Penalty>
-0

> <r_epik_Charging_Adjusted_Penalty>
1.40848e-10

> <i_epik_Tot_Q>
0

> <i_epik_Tot_abs_Q>
0

> <r_epik_Metal_State_Penalty>
-0

> <b_epik_Metal_Only>
0

> <s_lp_Force_Field>
OPLS_2005

> <r_lp_Energy>
28.0073

> <b_lp_Chiralities_Consistent>
1

> <s_lp_Variant>
AV-unprocessed.smi:350-1

> <Gold.Version>
5.8.1

> <Gold.Id.Protein>
6NUR|6NUR_protein|mol2

> <Gold.PLP.Fitness>
55.9685

> <Gold.PLP.PLP>
-48.6946

> <Gold.PLP.part.hbond>
-3.8913

> <Gold.PLP.part.metal>
0.0000

> <Gold.PLP.part.buried>
-1.1284

> <Gold.PLP.part.nonpolar>
-43.6059

> <Gold.PLP.part.repulsive>
1.8408

> <Gold.PLP.ligand.clash>
0.0000

> <Gold.PLP.ligand.torsion>
0.8682

> <Gold.PLP.Chemscore.Hbond>
3.0000

> <Gold.PLP.Chemscore.CHOScore>
0.0000

> <Gold.PLP.Chemscore.Metal>
0.0000

> <Gold.Chemscore.Hbonds>
donor molecule, donor type, donor heavy atom, donor atom, acceptor molecule, acceptor atom, score
      L1  H     7    28       P1  8028  1.00
      P1  H  7997  8009       L1    16  1.00
      P1  H 10752 10764       L1    19  1.00

> <Gold.PLP.Chemscore.Internal.Correction>
0.0103

> <Gold.Rescore>
     Score         DG    S(hbond)    S(metal)    S(lipo)     H(rot)  DE(clash)    DE(int)     intcor
     20.65     -24.77       2.64        0.00     131.04       1.90       2.89       1.23       ----

> <Gold.Chemscore.Fitness>
20.6491

> <Gold.Chemscore.DG>
-24.7686

> <Gold.Chemscore.ZeroCoef>
-5.4800

> <Gold.Chemscore.Hbond>
2.6447

> <Gold.Chemscore.Metal>
0.0000

> <Gold.Chemscore.Lipo>
131.0384

> <Gold.Chemscore.Internal_Hbond>
0.0000

> <Gold.Chemscore.DEClash>
2.8931

> <Gold.Chemscore.DEInternal>
1.2264

> <Gold.Chemscore.Rot>
1.9047

> <Gold.Chemscore.Internal.Correction>
   9.000000E+99

> <Gold.Chemscore.Hbonds>
donor molecule, donor type, donor heavy atom, donor atom, acceptor molecule, acceptor atom, score
      L1  H     7    28       P1  8028  0.44
      P1  H  7997  8009       L1    16  0.99
      P1  H 10752 10764       L1    19  0.91

> <Gold.Chemscore.Hbond.Weighted>
-8.8331

> <Gold.Chemscore.Metal.Weighted>
-0.0000

> <Gold.Chemscore.Lipo.Weighted>
-15.3315

> <Gold.Chemscore.Internal_Hbond.Weighted>
0.0000

> <Gold.Chemscore.DEClash.Weighted>
2.8931

> <Gold.Chemscore.DEInternal.Weighted>
1.2264

> <Gold.Chemscore.Rot.Weighted>
4.8760

> <Gold.Chemscore.Internal.Correction.Weighted>
   9.000000E+99

> <Gold.Protein.RotatedTorsions>
[ 6907 6896 6895 6894 ] final   98.82 input  -60.11 | X-H torsion
[ 7974 7965 7964 7962 ] final  106.44 input  175.53 | X-H torsion
[ 8008 7997 7996 7995 ] final -161.59 input   59.86 | X-H torsion
[ 10167 10162 10161 10158 ] final  -11.28 input  -65.29 | X-H torsion
[ 10718 10713 10712 10709 ] final    5.83 input   66.30 | X-H torsion
[ 10763 10752 10751 10750 ] final  -84.30 input  -60.55 | X-H torsion
[ 11005 11000 10999 10996 ] final  -11.63 input  -57.11 | X-H torsion

> <Gold.Protein.ActiveResidues>
 VAL166  LYS551  ARG553  GLY616  TRP617  ASP618  TYR619  PRO620  LYS621  CYS622 
 ASP623  PHE694  ASN695  SER759  ASP760  ASP761  ALA762  ILE779  LEU786  VAL792 
 PHE793  MET794  SER795  GLU796  ALA797  LYS798  CYS799  TRP800  GLU811  SER814 

> <Gold.Protein.RotatedAtoms>
  152.5403  134.0522  159.8114 H   0  0  0  0  0  0  0  0  0  0  0  0  # atno 6907 bound_to 6896
  151.0662  133.5496  159.2638 H   0  0  0  0  0  0  0  0  0  0  0  0  # atno 6908 bound_to 6896
  151.2376  135.0585  159.9066 H   0  0  0  0  0  0  0  0  0  0  0  0  # atno 6909 bound_to 6896
  145.3067  139.2553  143.3785 H   0  0  0  0  0  0  0  0  0  0  0  0  # atno 7974 bound_to 7965
  155.7944  140.0883  157.1991 H   0  0  0  0  0  0  0  0  0  0  0  0  # atno 8008 bound_to 7997
  154.3984  140.1484  156.3259 H   0  0  0  0  0  0  0  0  0  0  0  0  # atno 8009 bound_to 7997
  155.8526  140.3434  155.5706 H   0  0  0  0  0  0  0  0  0  0  0  0  # atno 8010 bound_to 7997
  140.7134  143.5657  150.9147 H   0  0  0  0  0  0  0  0  0  0  0  0  # atno 10167 bound_to 10162
  156.9132  130.5763  149.5647 H   0  0  0  0  0  0  0  0  0  0  0  0  # atno 10718 bound_to 10713
  154.5979  135.5525  153.7344 H   0  0  0  0  0  0  0  0  0  0  0  0  # atno 10763 bound_to 10752
  153.0143  135.6359  154.1756 H   0  0  0  0  0  0  0  0  0  0  0  0  # atno 10764 bound_to 10752
  154.1696  135.2893  155.3065 H   0  0  0  0  0  0  0  0  0  0  0  0  # atno 10765 bound_to 10752
  140.7572  133.8544  155.9094 H   0  0  0  0  0  0  0  0  0  0  0  0  # atno 11005 bound_to 11000
  146.3133  140.3593  142.8663 LP  0  0  0  0  0  0  0  0  0  0  0  0  # atno 17320 bound_to 7965
  144.9049  140.7688  143.5843 LP  0  0  0  0  0  0  0  0  0  0  0  0  # atno 17321 bound_to 7965
  139.9382  143.6412  152.3060 LP  0  0  0  0  0  0  0  0  0  0  0  0  # atno 17342 bound_to 10162
  139.6888  144.7649  151.1476 LP  0  0  0  0  0  0  0  0  0  0  0  0  # atno 17343 bound_to 10162
  156.0526  130.5593  150.9022 LP  0  0  0  0  0  0  0  0  0  0  0  0  # atno 17370 bound_to 10713
  157.5954  131.0943  150.9049 LP  0  0  0  0  0  0  0  0  0  0  0  0  # atno 17371 bound_to 10713
  140.9696  134.1548  157.4587 LP  0  0  0  0  0  0  0  0  0  0  0  0  # atno 17394 bound_to 11000
  139.8777  134.9974  156.5844 LP  0  0  0  0  0  0  0  0  0  0  0  0  # atno 17395 bound_to 11000

$$$$
