AV-unprocessed.smi:1741|AV-procd|sdf|7017|dock10
  -GOLD-   22720 8233D 1   1.00000     0.00000
 Structure written by MMmdl.
 38 39  0  0  0  0  0  0  0  0  1 V2000
  149.8870  141.7470  156.4303 C   0  0  0  0  0  0  0  0  0  0  0  0
  151.3372  141.3135  156.1877 C   0  0  0  0  0  0  0  0  0  0  0  0
  151.4090  139.9754  155.6348 N   0  0  0  0  0  0  0  0  0  0  0  0
  150.3671  139.1222  155.3302 C   0  0  0  0  0  0  0  0  0  0  0  0
  150.9504  137.9849  154.8479 C   0  0  0  0  0  0  0  0  0  0  0  0
  150.3446  136.7890  154.3866 N   0  0  0  0  0  0  0  0  0  0  0  0
  150.5104  135.5493  154.8756 C   0  0  0  0  0  0  0  0  0  0  0  0
  151.2393  135.2560  155.8235 O   0  0  0  0  0  0  0  0  0  0  0  0
  149.7774  134.6585  154.1926 N   0  0  0  0  0  0  0  0  0  0  0  0
  149.7399  133.2171  154.4305 C   0  0  1  0  0  0  0  0  0  0  0  0
  149.2275  132.9648  155.8572 C   0  0  0  0  0  0  0  0  0  0  0  0
  148.8591  132.5473  153.3574 C   0  0  2  0  0  0  0  0  0  0  0  0
  147.4438  133.1162  153.2464 C   0  0  0  0  0  0  0  0  0  0  0  0
  146.6934  131.9546  152.6374 C   0  0  0  0  0  0  0  0  0  0  0  0
  147.3342  130.7656  153.3459 C   0  0  0  0  0  0  0  0  0  0  0  0
  148.6648  131.1669  153.6622 O   0  0  0  0  0  0  0  0  0  0  0  0
  152.3491  138.2202  154.8878 C   0  0  0  0  0  0  0  0  0  0  0  0
  152.6191  139.4249  155.3675 N   0  0  0  0  0  0  0  0  0  0  0  0
  149.8480  142.7562  156.8406 H   0  0  0  0  0  0  0  0  0  0  0  0
  149.3895  141.0809  157.1357 H   0  0  0  0  0  0  0  0  0  0  0  0
  149.3138  141.7424  155.5027 H   0  0  0  0  0  0  0  0  0  0  0  0
  151.8265  142.0015  155.4970 H   0  0  0  0  0  0  0  0  0  0  0  0
  151.9043  141.3442  157.1193 H   0  0  0  0  0  0  0  0  0  0  0  0
  149.3348  139.3998  155.4841 H   0  0  0  0  0  0  0  0  0  0  0  0
  149.7239  136.8872  153.5965 H   0  0  0  0  0  0  0  0  0  0  0  0
  149.2145  135.0011  153.4280 H   0  0  0  0  0  0  0  0  0  0  0  0
  150.7443  132.7959  154.3595 H   0  0  0  0  0  0  0  0  0  0  0  0
  149.2348  131.9023  156.1002 H   0  0  0  0  0  0  0  0  0  0  0  0
  148.2073  133.3288  155.9839 H   0  0  0  0  0  0  0  0  0  0  0  0
  149.8552  133.4683  156.5932 H   0  0  0  0  0  0  0  0  0  0  0  0
  149.3430  132.6048  152.3807 H   0  0  0  0  0  0  0  0  0  0  0  0
  147.0398  133.3438  154.2339 H   0  0  0  0  0  0  0  0  0  0  0  0
  147.3941  134.0200  152.6385 H   0  0  0  0  0  0  0  0  0  0  0  0
  145.6152  132.0111  152.7884 H   0  0  0  0  0  0  0  0  0  0  0  0
  146.8882  131.9049  151.5652 H   0  0  0  0  0  0  0  0  0  0  0  0
  146.8095  130.5478  154.2768 H   0  0  0  0  0  0  0  0  0  0  0  0
  147.3254  129.8640  152.7331 H   0  0  0  0  0  0  0  0  0  0  0  0
  153.1603  137.5706  154.5937 H   0  0  0  0  0  0  0  0  0  0  0  0
  1  2  1  0  0  0  0
  1 19  1  0  0  0  0
  1 20  1  0  0  0  0
  1 21  1  0  0  0  0
  2  3  1  0  0  0  0
  2 22  1  0  0  0  0
  2 23  1  0  0  0  0
  3 18  1  0  0  0  0
  3  4  1  0  0  0  0
  4  5  2  0  0  0  0
  4 24  1  0  0  0  0
  5  6  1  0  0  0  0
  5 17  1  0  0  0  0
  6  7  1  0  0  0  0
  6 25  1  0  0  0  0
  7  8  2  0  0  0  0
  7  9  1  0  0  0  0
  9 10  1  0  0  0  0
  9 26  1  0  0  0  0
 10 11  1  0  0  0  0
 10 12  1  0  0  0  0
 10 27  1  0  0  0  0
 11 28  1  0  0  0  0
 11 29  1  0  0  0  0
 11 30  1  0  0  0  0
 12 16  1  0  0  0  0
 12 13  1  0  0  0  0
 12 31  1  0  0  0  0
 13 14  1  0  0  0  0
 13 32  1  0  0  0  0
 13 33  1  0  0  0  0
 14 15  1  0  0  0  0
 14 34  1  0  0  0  0
 14 35  1  0  0  0  0
 15 16  1  0  0  0  0
 15 36  1  0  0  0  0
 15 37  1  0  0  0  0
 17 18  2  0  0  0  0
 17 38  1  0  0  0  0
M  END
> <s_m_source_file>
AV-unprocessed.smi

> <i_m_source_file_index>
1741

> <i_lp_mmshare_version>
43012

> <i_f3d_flags>
0

> <s_epik_input>
W0NIM11bQ0gyXW4xW2NIXWMoW2NIXW4xKVtOSF1DKD1PKVtOSF1bQ0BIXShbQ0gzXSlbQ0BASF0yW0NIMl1bQ0gyXVtDSDJdTzI=

> <s_epik_cmdline>
J2VwaWtfcHl0aG9uJywgJy1waCcsICc3LjAnLCAnLXRuJywgJzgnLCAnLW1hJywgJzIwMCcsICctbWV0YWxfYmluZGluZycsICctaW1hZScsICc8aW5maWxlLm1hZT4nLCAnLW9tYWUnLCAnPG91dGZpbGUubWFlPic=

> <r_lp_tautomer_probability>
1

> <r_epik_Ionization_Penalty>
0.000179292

> <r_epik_Ionization_Penalty_Charging>
0

> <r_epik_Ionization_Penalty_Neutral>
0.000179292

> <r_epik_State_Penalty>
-0

> <r_epik_Charging_Adjusted_Penalty>
0

> <i_epik_Tot_Q>
0

> <i_epik_Tot_abs_Q>
0

> <r_epik_Metal_State_Penalty>
-0

> <b_epik_Metal_Only>
0

> <s_lp_Force_Field>
OPLS_2005

> <r_lp_Energy>
22.1754

> <b_lp_Chiralities_Consistent>
1

> <s_lp_Variant>
AV-unprocessed.smi:1741-2

> <Gold.Version>
5.8.1

> <Gold.Id.Protein>
6NUR|6NUR_protein|mol2

> <Gold.PLP.Fitness>
42.6459

> <Gold.PLP.PLP>
-32.4893

> <Gold.PLP.part.hbond>
-5.1493

> <Gold.PLP.part.metal>
0.0000

> <Gold.PLP.part.buried>
-3.9108

> <Gold.PLP.part.nonpolar>
-24.6549

> <Gold.PLP.part.repulsive>
0.2510

> <Gold.PLP.ligand.clash>
0.0000

> <Gold.PLP.ligand.torsion>
0.6209

> <Gold.PLP.Chemscore.Hbond>
3.7936

> <Gold.PLP.Chemscore.CHOScore>
0.0000

> <Gold.PLP.Chemscore.Metal>
0.0000

> <Gold.Chemscore.Hbonds>
donor molecule, donor type, donor heavy atom, donor atom, acceptor molecule, acceptor atom, score
      L1  H     6    25       P1  7948  1.00
      L1  H     9    26       P1  7948  0.79
      P1  H  7997  8008       L1    18  0.99
      P1  H 10752 10764       L1     8  0.98

> <Gold.PLP.Chemscore.Internal.Correction>
0.0177

> <Gold.Rescore>
     Score         DG    S(hbond)    S(metal)    S(lipo)     H(rot)  DE(clash)    DE(int)     intcor
     16.82     -17.62       2.30        0.00      68.23       1.38       0.17       0.64       ----

> <Gold.Chemscore.Fitness>
16.8155

> <Gold.Chemscore.DG>
-17.6239

> <Gold.Chemscore.ZeroCoef>
-5.4800

> <Gold.Chemscore.Hbond>
2.3027

> <Gold.Chemscore.Metal>
0.0000

> <Gold.Chemscore.Lipo>
68.2328

> <Gold.Chemscore.Internal_Hbond>
0.0000

> <Gold.Chemscore.DEClash>
0.1704

> <Gold.Chemscore.DEInternal>
0.6381

> <Gold.Chemscore.Rot>
1.3790

> <Gold.Chemscore.Internal.Correction>
   9.000000E+99

> <Gold.Chemscore.Hbonds>
donor molecule, donor type, donor heavy atom, donor atom, acceptor molecule, acceptor atom, score
      L1  H     6    25       P1  7948  0.56
      L1  H     9    26       P1  7948  0.11
      P1  H  7997  8008       L1    18  0.92
      P1  H 10752 10764       L1     8  0.30

> <Gold.Chemscore.Hbond.Weighted>
-7.6909

> <Gold.Chemscore.Metal.Weighted>
-0.0000

> <Gold.Chemscore.Lipo.Weighted>
-7.9832

> <Gold.Chemscore.Internal_Hbond.Weighted>
0.0000

> <Gold.Chemscore.DEClash.Weighted>
0.1704

> <Gold.Chemscore.DEInternal.Weighted>
0.6381

> <Gold.Chemscore.Rot.Weighted>
3.5302

> <Gold.Chemscore.Internal.Correction.Weighted>
   9.000000E+99

> <Gold.Protein.RotatedTorsions>
[ 6907 6896 6895 6894 ] final   59.72 input  -60.11 | X-H torsion
[ 7974 7965 7964 7962 ] final   99.80 input  175.53 | X-H torsion
[ 8008 7997 7996 7995 ] final  -30.65 input   59.86 | X-H torsion
[ 10167 10162 10161 10158 ] final  -54.96 input  -65.29 | X-H torsion
[ 10718 10713 10712 10709 ] final   -3.67 input   66.30 | X-H torsion
[ 10763 10752 10751 10750 ] final  -32.40 input  -60.55 | X-H torsion
[ 11005 11000 10999 10996 ] final -123.04 input  -57.11 | X-H torsion

> <Gold.Protein.ActiveResidues>
 VAL166  LYS551  ARG553  GLY616  TRP617  ASP618  TYR619  PRO620  LYS621  CYS622 
 ASP623  PHE694  ASN695  SER759  ASP760  ASP761  ALA762  ILE779  LEU786  VAL792 
 PHE793  MET794  SER795  GLU796  ALA797  LYS798  CYS799  TRP800  GLU811  SER814 

> <Gold.Protein.RotatedAtoms>
  152.3940  134.6396  160.0096 H   0  0  0  0  0  0  0  0  0  0  0  0  # atno 6907 bound_to 6896
  151.6621  133.3311  159.3184 H   0  0  0  0  0  0  0  0  0  0  0  0  # atno 6908 bound_to 6896
  150.7850  134.6871  159.6521 H   0  0  0  0  0  0  0  0  0  0  0  0  # atno 6909 bound_to 6896
  145.3941  139.2358  143.3336 H   0  0  0  0  0  0  0  0  0  0  0  0  # atno 7974 bound_to 7965
  154.4242  140.1785  156.1440 H   0  0  0  0  0  0  0  0  0  0  0  0  # atno 8008 bound_to 7997
  155.9968  140.3364  155.6782 H   0  0  0  0  0  0  0  0  0  0  0  0  # atno 8009 bound_to 7997
  155.6297  140.0668  157.2643 H   0  0  0  0  0  0  0  0  0  0  0  0  # atno 8010 bound_to 7997
  140.6401  143.2503  151.5012 H   0  0  0  0  0  0  0  0  0  0  0  0  # atno 10167 bound_to 10162
  156.7726  130.5305  149.5764 H   0  0  0  0  0  0  0  0  0  0  0  0  # atno 10718 bound_to 10713
  153.8131  135.6880  153.4838 H   0  0  0  0  0  0  0  0  0  0  0  0  # atno 10763 bound_to 10752
  153.1616  135.4577  154.9778 H   0  0  0  0  0  0  0  0  0  0  0  0  # atno 10764 bound_to 10752
  154.7959  135.3319  154.7610 H   0  0  0  0  0  0  0  0  0  0  0  0  # atno 10765 bound_to 10752
  140.9949  134.0486  157.3609 H   0  0  0  0  0  0  0  0  0  0  0  0  # atno 11005 bound_to 11000
  146.2783  140.4628  142.8786 LP  0  0  0  0  0  0  0  0  0  0  0  0  # atno 17320 bound_to 7965
  144.8420  140.6871  143.6223 LP  0  0  0  0  0  0  0  0  0  0  0  0  # atno 17321 bound_to 7965
  139.5610  144.2155  152.1692 LP  0  0  0  0  0  0  0  0  0  0  0  0  # atno 17342 bound_to 10162
  140.1423  144.5190  150.6736 LP  0  0  0  0  0  0  0  0  0  0  0  0  # atno 17343 bound_to 10162
  156.1268  130.6149  151.0275 LP  0  0  0  0  0  0  0  0  0  0  0  0  # atno 17370 bound_to 10713
  157.6684  131.0867  150.7673 LP  0  0  0  0  0  0  0  0  0  0  0  0  # atno 17371 bound_to 10713
  139.9010  135.0164  156.7267 LP  0  0  0  0  0  0  0  0  0  0  0  0  # atno 17394 bound_to 11000
  140.6982  133.9330  155.8007 LP  0  0  0  0  0  0  0  0  0  0  0  0  # atno 17395 bound_to 11000

$$$$
