AV-unprocessed.smi:2449|AV-procd|sdf|9664|dock8
  -GOLD-   2272013303D 1   1.00000     0.00000
 Structure written by MMmdl.
 36 36  0  0  0  0  0  0  0  0  2 V2000
  144.4647  132.9597  149.7529 C   0  0  0  0  0  0  0  0  0  0  0  0
  144.6812  134.3138  150.4367 C   0  0  0  0  0  0  0  0  0  0  0  0
  146.0847  134.4349  151.0649 C   0  0  0  0  0  0  0  0  0  0  0  0
  146.3365  133.5772  152.3369 C   0  0  0  0  0  0  0  0  0  0  0  0
  145.2438  133.8689  153.3886 C   0  0  0  0  0  0  0  0  0  0  0  0
  146.2748  132.0771  151.9884 C   0  0  0  0  0  0  0  0  0  0  0  0
  147.6651  133.8307  152.9090 N   0  0  0  0  0  0  0  0  0  0  0  0
  148.3125  133.1335  153.8595 C   0  0  0  0  0  0  0  0  0  0  0  0
  147.8704  132.1103  154.3828 O   0  0  0  0  0  0  0  0  0  0  0  0
  149.6890  133.6736  154.2661 C   0  0  0  0  0  0  0  0  0  0  0  0
  150.2982  132.8905  155.3526 N   0  0  0  0  0  0  0  0  0  0  0  0
  150.4732  131.5104  155.1487 C   0  0  0  0  0  0  0  0  0  0  0  0
  151.0152  130.7162  156.0916 C   0  0  0  0  0  0  0  0  0  0  0  0
  151.4258  131.3225  157.3523 C   0  0  0  0  0  0  0  0  0  0  0  0
  151.9254  130.6133  158.2235 O   0  0  0  0  0  0  0  0  0  0  0  0
  151.2323  132.6654  157.5036 N   0  5  0  0  0  0  0  0  0  0  0  0
  150.6780  133.4605  156.5362 C   0  0  0  0  0  0  0  0  0  0  0  0
  150.5109  134.6707  156.6940 O   0  0  0  0  0  0  0  0  0  0  0  0
  143.4685  132.9019  149.3138 H   0  0  0  0  0  0  0  0  0  0  0  0
  144.5610  132.1405  150.4659 H   0  0  0  0  0  0  0  0  0  0  0  0
  145.1906  132.7995  148.9554 H   0  0  0  0  0  0  0  0  0  0  0  0
  144.5271  135.1050  149.7037 H   0  0  0  0  0  0  0  0  0  0  0  0
  143.9119  134.4433  151.1978 H   0  0  0  0  0  0  0  0  0  0  0  0
  146.8228  134.1801  150.3038 H   0  0  0  0  0  0  0  0  0  0  0  0
  146.2723  135.4831  151.3014 H   0  0  0  0  0  0  0  0  0  0  0  0
  144.2563  133.5979  153.0137 H   0  0  0  0  0  0  0  0  0  0  0  0
  145.2031  134.9241  153.6582 H   0  0  0  0  0  0  0  0  0  0  0  0
  145.4121  133.3023  154.3053 H   0  0  0  0  0  0  0  0  0  0  0  0
  145.3255  131.8170  151.5187 H   0  0  0  0  0  0  0  0  0  0  0  0
  146.3765  131.4590  152.8814 H   0  0  0  0  0  0  0  0  0  0  0  0
  147.0714  131.7832  151.3048 H   0  0  0  0  0  0  0  0  0  0  0  0
  148.1368  134.6526  152.5605 H   0  0  0  0  0  0  0  0  0  0  0  0
  150.3289  133.6679  153.3830 H   0  0  0  0  0  0  0  0  0  0  0  0
  149.6128  134.7228  154.5584 H   0  0  0  0  0  0  0  0  0  0  0  0
  150.1376  131.1400  154.1912 H   0  0  0  0  0  0  0  0  0  0  0  0
  151.1402  129.6570  155.9204 H   0  0  0  0  0  0  0  0  0  0  0  0
  1  2  1  0  0  0  0
  1 19  1  0  0  0  0
  1 20  1  0  0  0  0
  1 21  1  0  0  0  0
  2  3  1  0  0  0  0
  2 22  1  0  0  0  0
  2 23  1  0  0  0  0
  3  4  1  0  0  0  0
  3 24  1  0  0  0  0
  3 25  1  0  0  0  0
  4  5  1  0  0  0  0
  4  6  1  0  0  0  0
  4  7  1  0  0  0  0
  5 26  1  0  0  0  0
  5 27  1  0  0  0  0
  5 28  1  0  0  0  0
  6 29  1  0  0  0  0
  6 30  1  0  0  0  0
  6 31  1  0  0  0  0
  7  8  1  0  0  0  0
  7 32  1  0  0  0  0
  8  9  2  0  0  0  0
  8 10  1  0  0  0  0
 10 11  1  0  0  0  0
 10 33  1  0  0  0  0
 10 34  1  0  0  0  0
 11 17  1  0  0  0  0
 11 12  1  0  0  0  0
 12 13  2  0  0  0  0
 12 35  1  0  0  0  0
 13 14  1  0  0  0  0
 13 36  1  0  0  0  0
 14 15  2  0  0  0  0
 14 16  1  0  0  0  0
 16 17  1  0  0  0  0
 17 18  2  0  0  0  0
M  CHG  1  16  -1
M  END
> <s_m_source_file>
AV-unprocessed.smi

> <i_m_source_file_index>
2449

> <i_lp_mmshare_version>
43012

> <i_f3d_flags>
0

> <s_epik_input>
W0NIM11bQ0gyXVtDSDJdQyhbQ0gzXSkoW0NIM10pW05IXUMoPU8pW0NIMl1uMVtjSF1bY0hdYyg9TylbbkhdYzE9Tw==

> <s_epik_cmdline>
J2VwaWtfcHl0aG9uJywgJy1waCcsICc3LjAnLCAnLXRuJywgJzgnLCAnLW1hJywgJzIwMCcsICctbWV0YWxfYmluZGluZycsICctaW1hZScsICc8aW5maWxlLm1hZT4nLCAnLW9tYWUnLCAnPG91dGZpbGUubWFlPic=

> <r_lp_tautomer_probability>
0.999537

> <r_epik_Ionization_Penalty>
3.14746

> <r_epik_Ionization_Penalty_Charging>
2.94994e-08

> <r_epik_Ionization_Penalty_Neutral>
3.14746

> <r_epik_State_Penalty>
3.14658

> <r_epik_Charging_Adjusted_Penalty>
3.14658

> <i_epik_Tot_Q>
-1

> <i_epik_Tot_abs_Q>
1

> <r_epik_Metal_State_Penalty>
0.466037

> <b_epik_Metal_Only>
1

> <s_lp_Force_Field>
OPLS_2005

> <r_lp_Energy>
14.91

> <b_lp_Chiralities_Consistent>
1

> <s_lp_Variant>
AV-unprocessed.smi:2449-2

> <Gold.Version>
5.8.1

> <Gold.Id.Protein>
6NUR|6NUR_protein|mol2

> <Gold.PLP.Fitness>
37.2541

> <Gold.PLP.PLP>
-28.7157

> <Gold.PLP.part.hbond>
-2.0000

> <Gold.PLP.part.metal>
0.0000

> <Gold.PLP.part.buried>
-4.5744

> <Gold.PLP.part.nonpolar>
-21.2513

> <Gold.PLP.part.repulsive>
0.0339

> <Gold.PLP.ligand.clash>
0.0000

> <Gold.PLP.ligand.torsion>
0.2526

> <Gold.PLP.Chemscore.Hbond>
3.0000

> <Gold.PLP.Chemscore.CHOScore>
0.0000

> <Gold.PLP.Chemscore.Metal>
0.0000

> <Gold.Chemscore.Hbonds>
donor molecule, donor type, donor heavy atom, donor atom, acceptor molecule, acceptor atom, score
      L1  H     7    32       P1  7948  1.00
      P1  H  6896  6909       L1    16  1.86

> <Gold.PLP.Chemscore.Internal.Correction>
0.0436

> <Gold.Rescore>
     Score         DG    S(hbond)    S(metal)    S(lipo)     H(rot)  DE(clash)    DE(int)     intcor
      8.49     -11.44       1.77        0.00      46.16       2.08       0.00       2.96       ----

> <Gold.Chemscore.Fitness>
8.4875

> <Gold.Chemscore.DG>
-11.4448

> <Gold.Chemscore.ZeroCoef>
-5.4800

> <Gold.Chemscore.Hbond>
1.7653

> <Gold.Chemscore.Metal>
0.0000

> <Gold.Chemscore.Lipo>
46.1598

> <Gold.Chemscore.Internal_Hbond>
0.0000

> <Gold.Chemscore.DEClash>
0.0000

> <Gold.Chemscore.DEInternal>
2.9573

> <Gold.Chemscore.Rot>
2.0828

> <Gold.Chemscore.Internal.Correction>
   9.000000E+99

> <Gold.Chemscore.Hbonds>
donor molecule, donor type, donor heavy atom, donor atom, acceptor molecule, acceptor atom, score
      L1  H     7    32       P1  7948  0.50
      P1  H  6896  6909       L1    16  0.78

> <Gold.Chemscore.Hbond.Weighted>
-5.8961

> <Gold.Chemscore.Metal.Weighted>
-0.0000

> <Gold.Chemscore.Lipo.Weighted>
-5.4007

> <Gold.Chemscore.Internal_Hbond.Weighted>
0.0000

> <Gold.Chemscore.DEClash.Weighted>
0.0000

> <Gold.Chemscore.DEInternal.Weighted>
2.9573

> <Gold.Chemscore.Rot.Weighted>
5.3319

> <Gold.Chemscore.Internal.Correction.Weighted>
   9.000000E+99

> <Gold.Protein.RotatedTorsions>
[ 6907 6896 6895 6894 ] final  -58.23 input  -60.11 | X-H torsion
[ 7974 7965 7964 7962 ] final  100.14 input  175.53 | X-H torsion
[ 8008 7997 7996 7995 ] final -137.69 input   59.86 | X-H torsion
[ 10167 10162 10161 10158 ] final -116.90 input  -65.29 | X-H torsion
[ 10718 10713 10712 10709 ] final  -54.36 input   66.30 | X-H torsion
[ 10763 10752 10751 10750 ] final -140.95 input  -60.55 | X-H torsion
[ 11005 11000 10999 10996 ] final   32.75 input  -57.11 | X-H torsion

> <Gold.Protein.ActiveResidues>
 VAL166  LYS551  ARG553  GLY616  TRP617  ASP618  TYR619  PRO620  LYS621  CYS622 
 ASP623  PHE694  ASN695  SER759  ASP760  ASP761  ALA762  ILE779  LEU786  VAL792 
 PHE793  MET794  SER795  GLU796  ALA797  LYS798  CYS799  TRP800  GLU811  SER814 

> <Gold.Protein.RotatedAtoms>
  150.8023  134.7125  159.6611 H   0  0  0  0  0  0  0  0  0  0  0  0  # atno 6907 bound_to 6896
  152.4141  134.6070  160.0025 H   0  0  0  0  0  0  0  0  0  0  0  0  # atno 6908 bound_to 6896
  151.6304  133.3295  159.3143 H   0  0  0  0  0  0  0  0  0  0  0  0  # atno 6909 bound_to 6896
  145.3895  139.2365  143.3359 H   0  0  0  0  0  0  0  0  0  0  0  0  # atno 7974 bound_to 7965
  155.4160  140.0515  157.3029 H   0  0  0  0  0  0  0  0  0  0  0  0  # atno 8008 bound_to 7997
  154.4924  140.2125  155.9479 H   0  0  0  0  0  0  0  0  0  0  0  0  # atno 8009 bound_to 7997
  156.1360  140.3163  155.8427 H   0  0  0  0  0  0  0  0  0  0  0  0  # atno 8010 bound_to 7997
  140.0742  143.4848  152.1962 H   0  0  0  0  0  0  0  0  0  0  0  0  # atno 10167 bound_to 10162
  156.1457  130.4153  150.0028 H   0  0  0  0  0  0  0  0  0  0  0  0  # atno 10718 bound_to 10713
  154.8561  135.3538  154.5790 H   0  0  0  0  0  0  0  0  0  0  0  0  # atno 10763 bound_to 10752
  153.6401  135.6998  153.5249 H   0  0  0  0  0  0  0  0  0  0  0  0  # atno 10764 bound_to 10752
  153.2978  135.4215  155.1184 H   0  0  0  0  0  0  0  0  0  0  0  0  # atno 10765 bound_to 10752
  140.2702  134.3091  155.7830 H   0  0  0  0  0  0  0  0  0  0  0  0  # atno 11005 bound_to 11000
  146.2804  140.4575  142.8778 LP  0  0  0  0  0  0  0  0  0  0  0  0  # atno 17320 bound_to 7965
  144.8450  140.6915  143.6205 LP  0  0  0  0  0  0  0  0  0  0  0  0  # atno 17321 bound_to 7965
  139.5817  144.7513  151.3622 LP  0  0  0  0  0  0  0  0  0  0  0  0  # atno 17342 bound_to 10162
  140.7110  143.7390  150.7567 LP  0  0  0  0  0  0  0  0  0  0  0  0  # atno 17343 bound_to 10162
  156.7901  130.9253  151.3646 LP  0  0  0  0  0  0  0  0  0  0  0  0  # atno 17370 bound_to 10713
  157.6614  130.8969  149.9838 LP  0  0  0  0  0  0  0  0  0  0  0  0  # atno 17371 bound_to 10713
  141.2178  133.7462  156.9323 LP  0  0  0  0  0  0  0  0  0  0  0  0  # atno 17394 bound_to 11000
  140.1380  134.9312  157.2428 LP  0  0  0  0  0  0  0  0  0  0  0  0  # atno 17395 bound_to 11000

$$$$
