AV-unprocessed.smi:1047|AV-procd|sdf|4586|dock5
  -GOLD-   22720 3 63D 1   1.00000     0.00000
 Structure written by MMmdl.
 58 60  0  0  0  0  0  0  0  0  4 V2000
  144.4333  132.1983  151.8318 C   0  0  0  0  0  0  0  0  0  0  0  0
  145.1443  133.0725  152.8743 C   0  0  0  0  0  0  0  0  0  0  0  0
  146.2044  132.3289  153.6053 N   0  3  1  0  0  0  0  0  0  0  0  0
  147.2031  131.6569  152.7362 C   0  0  0  0  0  0  0  0  0  0  0  0
  148.2361  132.6589  152.1880 C   0  0  0  0  0  0  0  0  0  0  0  0
  148.8497  133.3518  153.2685 O   0  0  0  0  0  0  0  0  0  0  0  0
  147.9182  134.1060  154.0385 C   0  0  2  0  0  0  0  0  0  0  0  0
  148.7050  134.8543  155.1259 C   0  0  0  0  0  0  0  0  0  0  0  0
  149.5064  135.9555  154.5536 N   0  3  0  0  0  0  0  0  0  0  0  0
  149.3952  137.2287  155.2947 C   0  0  0  0  0  0  0  0  0  0  0  0
  150.0583  138.3850  154.5271 C   0  0  1  0  0  0  0  0  0  0  0  0
  149.2826  138.6687  153.3792 O   0  0  0  0  0  0  0  0  0  0  0  0
  150.1826  139.6536  155.3936 C   0  0  0  0  0  0  0  0  0  0  0  0
  151.0789  139.4749  156.5461 N   0  0  0  0  0  0  0  0  0  0  0  0
  151.7294  138.3579  156.9732 C   0  0  0  0  0  0  0  0  0  0  0  0
  152.4257  138.6901  158.0948 N   0  3  0  0  0  0  0  0  0  0  0  0
  152.2148  140.0377  158.3925 C   0  0  0  0  0  0  0  0  0  0  0  0
  152.7001  140.8260  159.4289 C   0  0  0  0  0  0  0  0  0  0  0  0
  152.2927  142.1787  159.4562 C   0  0  0  0  0  0  0  0  0  0  0  0
  152.8003  143.0660  160.5803 C   0  0  0  0  0  0  0  0  0  0  0  0
  151.4270  142.6999  158.4599 C   0  0  0  0  0  0  0  0  0  0  0  0
  150.9937  144.1557  158.4985 C   0  0  0  0  0  0  0  0  0  0  0  0
  150.9480  141.8826  157.4110 C   0  0  0  0  0  0  0  0  0  0  0  0
  151.3536  140.5496  157.4019 C   0  0  0  0  0  0  0  0  0  0  0  0
  146.8854  133.1334  154.6502 C   0  0  0  0  0  0  0  0  0  0  0  0
  143.6020  132.7403  151.3805 H   0  0  0  0  0  0  0  0  0  0  0  0
  144.0278  131.2936  152.2859 H   0  0  0  0  0  0  0  0  0  0  0  0
  145.0994  131.8996  151.0228 H   0  0  0  0  0  0  0  0  0  0  0  0
  145.5483  133.9699  152.4063 H   0  0  0  0  0  0  0  0  0  0  0  0
  144.3916  133.4123  153.5869 H   0  0  0  0  0  0  0  0  0  0  0  0
  147.7201  130.9049  153.3340 H   0  0  0  0  0  0  0  0  0  0  0  0
  146.7218  131.1159  151.9226 H   0  0  0  0  0  0  0  0  0  0  0  0
  149.0080  132.1291  151.6297 H   0  0  0  0  0  0  0  0  0  0  0  0
  147.7800  133.3673  151.4956 H   0  0  0  0  0  0  0  0  0  0  0  0
  147.4123  134.8322  153.3995 H   0  0  0  0  0  0  0  0  0  0  0  0
  148.0162  135.2740  155.8603 H   0  0  0  0  0  0  0  0  0  0  0  0
  149.3587  134.1616  155.6581 H   0  0  0  0  0  0  0  0  0  0  0  0
  150.4773  135.6763  154.5469 H   0  0  0  0  0  0  0  0  0  0  0  0
  148.3458  137.4522  155.4940 H   0  0  0  0  0  0  0  0  0  0  0  0
  149.8832  137.1042  156.2624 H   0  0  0  0  0  0  0  0  0  0  0  0
  151.0546  138.0818  154.2014 H   0  0  0  0  0  0  0  0  0  0  0  0
  149.0922  137.8551  152.9368 H   0  0  0  0  0  0  0  0  0  0  0  0
  150.5147  140.5074  154.8029 H   0  0  0  0  0  0  0  0  0  0  0  0
  149.2044  139.9251  155.7929 H   0  0  0  0  0  0  0  0  0  0  0  0
  151.6964  137.3821  156.5102 H   0  0  0  0  0  0  0  0  0  0  0  0
  153.3582  140.4221  160.1845 H   0  0  0  0  0  0  0  0  0  0  0  0
  151.9748  143.3777  161.2208 H   0  0  0  0  0  0  0  0  0  0  0  0
  153.2846  143.9570  160.1807 H   0  0  0  0  0  0  0  0  0  0  0  0
  153.5279  142.5444  161.2029 H   0  0  0  0  0  0  0  0  0  0  0  0
  150.2640  144.3756  157.7187 H   0  0  0  0  0  0  0  0  0  0  0  0
  151.8511  144.8126  158.3497 H   0  0  0  0  0  0  0  0  0  0  0  0
  150.5343  144.3961  159.4578 H   0  0  0  0  0  0  0  0  0  0  0  0
  150.2936  142.2851  156.6522 H   0  0  0  0  0  0  0  0  0  0  0  0
  146.1533  133.6707  155.2545 H   0  0  0  0  0  0  0  0  0  0  0  0
  147.3922  132.4452  155.3285 H   0  0  0  0  0  0  0  0  0  0  0  0
  149.2103  136.1163  153.6010 H   0  0  0  0  0  0  0  0  0  0  0  0
  145.7139  131.5963  154.0989 H   0  0  0  0  0  0  0  0  0  0  0  0
  152.9985  138.0415  158.6200 H   0  0  0  0  0  0  0  0  0  0  0  0
  1  2  1  0  0  0  0
  1 26  1  0  0  0  0
  1 27  1  0  0  0  0
  1 28  1  0  0  0  0
  2  3  1  0  0  0  0
  2 29  1  0  0  0  0
  2 30  1  0  0  0  0
  3 25  1  0  0  0  0
  3  4  1  0  0  0  0
  3 57  1  0  0  0  0
  4  5  1  0  0  0  0
  4 31  1  0  0  0  0
  4 32  1  0  0  0  0
  5  6  1  0  0  0  0
  5 33  1  0  0  0  0
  5 34  1  0  0  0  0
  6  7  1  0  0  0  0
  7  8  1  0  0  0  0
  7 25  1  0  0  0  0
  7 35  1  0  0  0  0
  8  9  1  0  0  0  0
  8 36  1  0  0  0  0
  8 37  1  0  0  0  0
  9 10  1  0  0  0  0
  9 38  1  0  0  0  0
  9 56  1  0  0  0  0
 10 11  1  0  0  0  0
 10 39  1  0  0  0  0
 10 40  1  0  0  0  0
 11 12  1  0  0  0  0
 11 13  1  0  0  0  0
 11 41  1  0  0  0  0
 12 42  1  0  0  0  0
 13 14  1  0  0  0  0
 13 43  1  0  0  0  0
 13 44  1  0  0  0  0
 14 24  1  0  0  0  0
 14 15  1  0  0  0  0
 15 16  2  0  0  0  0
 15 45  1  0  0  0  0
 16 17  1  0  0  0  0
 16 58  1  0  0  0  0
 17 24  2  0  0  0  0
 17 18  1  0  0  0  0
 18 19  2  0  0  0  0
 18 46  1  0  0  0  0
 19 20  1  0  0  0  0
 19 21  1  0  0  0  0
 20 47  1  0  0  0  0
 20 48  1  0  0  0  0
 20 49  1  0  0  0  0
 21 22  1  0  0  0  0
 21 23  2  0  0  0  0
 22 50  1  0  0  0  0
 22 51  1  0  0  0  0
 22 52  1  0  0  0  0
 23 24  1  0  0  0  0
 23 53  1  0  0  0  0
 25 54  1  0  0  0  0
 25 55  1  0  0  0  0
M  CHG  1   3   1
M  CHG  1   9   1
M  CHG  1  16   1
M  END
> <s_m_source_file>
AV-unprocessed.smi

> <i_m_source_file_index>
1047

> <i_lp_mmshare_version>
43012

> <i_f3d_flags>
0

> <s_epik_input>
W0NIM11bQ0gyXU4xW0NIMl1bQ0gyXU9bQ0BIXShbQ0gyXTEpW0NIMl1bTkhdW0NIMl1bQ0BIXShbT0hdKVtDSDJdbihbY0hdbjIpYyhjMjMpW2NIXWMoW0NIM10pYyhbY0hdMylbQ0gzXQ==

> <s_epik_cmdline>
J2VwaWtfcHl0aG9uJywgJy1waCcsICc3LjAnLCAnLXRuJywgJzgnLCAnLW1hJywgJzIwMCcsICctbWV0YWxfYmluZGluZycsICctaW1hZScsICc8aW5maWxlLm1hZT4nLCAnLW9tYWUnLCAnPG91dGZpbGUubWFlPic=

> <r_epik_Ionization_Penalty>
1.6114

> <r_epik_Ionization_Penalty_Charging>
1.61139

> <r_epik_Ionization_Penalty_Neutral>
5.04732e-06

> <r_epik_State_Penalty>
1.63724

> <r_epik_Charging_Adjusted_Penalty>
3.24864

> <i_epik_Tot_Q>
3

> <i_epik_Tot_abs_Q>
3

> <r_epik_Metal_State_Penalty>
5.64594

> <b_epik_Metal_Only>
0

> <s_lp_Force_Field>
OPLS_2005

> <r_lp_Energy>
39.9268

> <b_lp_Chiralities_Consistent>
1

> <s_lp_Variant>
AV-unprocessed.smi:1047-27

> <Gold.Version>
5.8.1

> <Gold.Id.Protein>
6NUR|6NUR_protein|mol2

> <Gold.PLP.Fitness>
56.7374

> <Gold.PLP.PLP>
-42.6574

> <Gold.PLP.part.hbond>
-3.6953

> <Gold.PLP.part.metal>
0.0000

> <Gold.PLP.part.buried>
-6.8334

> <Gold.PLP.part.nonpolar>
-32.4291

> <Gold.PLP.part.repulsive>
0.2087

> <Gold.PLP.ligand.clash>
0.0000

> <Gold.PLP.ligand.torsion>
0.5002

> <Gold.PLP.Chemscore.Hbond>
5.0000

> <Gold.PLP.Chemscore.CHOScore>
0.0000

> <Gold.PLP.Chemscore.Metal>
0.0000

> <Gold.Chemscore.Hbonds>
donor molecule, donor type, donor heavy atom, donor atom, acceptor molecule, acceptor atom, score
      L1  H     9    56       P1  7948  2.00
      L1  H    12    42       P1  7948  1.00

> <Gold.PLP.Chemscore.Internal.Correction>
0.0803

> <Gold.Rescore>
     Score         DG    S(hbond)    S(metal)    S(lipo)     H(rot)  DE(clash)    DE(int)     intcor
     21.05     -21.70       2.97        0.00     114.70       2.78       0.00       0.65       ----

> <Gold.Chemscore.Fitness>
21.0481

> <Gold.Chemscore.DG>
-21.6991

> <Gold.Chemscore.ZeroCoef>
-5.4800

> <Gold.Chemscore.Hbond>
2.9726

> <Gold.Chemscore.Metal>
0.0000

> <Gold.Chemscore.Lipo>
114.6980

> <Gold.Chemscore.Internal_Hbond>
0.0000

> <Gold.Chemscore.DEClash>
0.0015

> <Gold.Chemscore.DEInternal>
0.6496

> <Gold.Chemscore.Rot>
2.7848

> <Gold.Chemscore.Internal.Correction>
   9.000000E+99

> <Gold.Chemscore.Hbonds>
donor molecule, donor type, donor heavy atom, donor atom, acceptor molecule, acceptor atom, score
      L1  H     9    56       P1  7948  0.88
      L1  H    12    42       P1  7948  0.99

> <Gold.Chemscore.Hbond.Weighted>
-9.9285

> <Gold.Chemscore.Metal.Weighted>
-0.0000

> <Gold.Chemscore.Lipo.Weighted>
-13.4197

> <Gold.Chemscore.Internal_Hbond.Weighted>
0.0000

> <Gold.Chemscore.DEClash.Weighted>
0.0015

> <Gold.Chemscore.DEInternal.Weighted>
0.6496

> <Gold.Chemscore.Rot.Weighted>
7.1291

> <Gold.Chemscore.Internal.Correction.Weighted>
   9.000000E+99

> <Gold.Protein.RotatedTorsions>
[ 6907 6896 6895 6894 ] final  -50.30 input  -60.11 | X-H torsion
[ 7974 7965 7964 7962 ] final    7.12 input  175.53 | X-H torsion
[ 8008 7997 7996 7995 ] final  -57.08 input   59.86 | X-H torsion
[ 10167 10162 10161 10158 ] final -166.64 input  -65.29 | X-H torsion
[ 10718 10713 10712 10709 ] final -108.67 input   66.30 | X-H torsion
[ 10763 10752 10751 10750 ] final -150.99 input  -60.55 | X-H torsion
[ 11005 11000 10999 10996 ] final  110.75 input  -57.11 | X-H torsion

> <Gold.Protein.ActiveResidues>
 VAL166  LYS551  ARG553  GLY616  TRP617  ASP618  TYR619  PRO620  LYS621  CYS622 
 ASP623  PHE694  ASN695  SER759  ASP760  ASP761  ALA762  ILE779  LEU786  VAL792 
 PHE793  MET794  SER795  GLU796  ALA797  LYS798  CYS799  TRP800  GLU811  SER814 

> <Gold.Protein.RotatedAtoms>
  150.8720  134.8096  159.7161 H   0  0  0  0  0  0  0  0  0  0  0  0  # atno 6907 bound_to 6896
  152.4721  134.4931  159.9711 H   0  0  0  0  0  0  0  0  0  0  0  0  # atno 6908 bound_to 6896
  151.5019  133.3464  159.2906 H   0  0  0  0  0  0  0  0  0  0  0  0  # atno 6909 bound_to 6896
  146.2429  140.0131  142.8405 H   0  0  0  0  0  0  0  0  0  0  0  0  # atno 7974 bound_to 7965
  154.4254  140.1115  156.5740 H   0  0  0  0  0  0  0  0  0  0  0  0  # atno 8008 bound_to 7997
  155.6182  140.3495  155.4624 H   0  0  0  0  0  0  0  0  0  0  0  0  # atno 8009 bound_to 7997
  156.0045  140.1206  157.0504 H   0  0  0  0  0  0  0  0  0  0  0  0  # atno 8010 bound_to 7997
  139.6102  144.0831  152.1834 H   0  0  0  0  0  0  0  0  0  0  0  0  # atno 10167 bound_to 10162
  156.0497  130.5725  150.7994 H   0  0  0  0  0  0  0  0  0  0  0  0  # atno 10718 bound_to 10713
  154.8085  135.3271  154.7367 H   0  0  0  0  0  0  0  0  0  0  0  0  # atno 10763 bound_to 10752
  153.8021  135.6902  153.4858 H   0  0  0  0  0  0  0  0  0  0  0  0  # atno 10764 bound_to 10752
  153.1847  135.4573  155.0019 H   0  0  0  0  0  0  0  0  0  0  0  0  # atno 10765 bound_to 10752
  139.8888  134.9491  156.6327 H   0  0  0  0  0  0  0  0  0  0  0  0  # atno 11005 bound_to 11000
  145.1309  140.9517  143.4545 LP  0  0  0  0  0  0  0  0  0  0  0  0  # atno 17320 bound_to 7965
  145.0388  139.3277  143.5987 LP  0  0  0  0  0  0  0  0  0  0  0  0  # atno 17321 bound_to 7965
  140.0448  144.5979  150.7382 LP  0  0  0  0  0  0  0  0  0  0  0  0  # atno 17342 bound_to 10162
  140.7313  143.2693  151.3940 LP  0  0  0  0  0  0  0  0  0  0  0  0  # atno 17343 bound_to 10162
  157.5411  131.0941  150.9825 LP  0  0  0  0  0  0  0  0  0  0  0  0  # atno 17370 bound_to 10713
  157.0108  130.5636  149.5320 LP  0  0  0  0  0  0  0  0  0  0  0  0  # atno 17371 bound_to 10713
  140.7654  133.8782  155.8450 LP  0  0  0  0  0  0  0  0  0  0  0  0  # atno 17394 bound_to 11000
  140.9887  134.1308  157.4428 LP  0  0  0  0  0  0  0  0  0  0  0  0  # atno 17395 bound_to 11000

$$$$
