AV-unprocessed.smi:1243|AV-procd|sdf|5218|dock9
  -GOLD-   22720 4313D 1   1.00000     0.00000
 Structure written by MMmdl.
 51 52  0  0  0  0  0  0  0  0  2 V2000
  156.0473  139.7474  160.7588 C   0  0  0  0  0  0  0  0  0  0  0  0
  154.8630  140.3909  160.3005 O   0  0  0  0  0  0  0  0  0  0  0  0
  154.1937  141.2340  161.1674 C   0  0  0  0  0  0  0  0  0  0  0  0
  154.6918  141.4024  162.4182 N   0  0  0  0  0  0  0  0  0  0  0  0
  154.0373  142.2228  163.2656 C   0  0  0  0  0  0  0  0  0  0  0  0
  152.8582  142.9079  162.9190 C   0  0  0  0  0  0  0  0  0  0  0  0
  152.3401  142.7355  161.6221 C   0  0  0  0  0  0  0  0  0  0  0  0
  153.0249  141.8900  160.7164 C   0  0  0  0  0  0  0  0  0  0  0  0
  152.5715  141.6332  159.3944 N   0  0  0  0  0  0  0  0  0  0  0  0
  151.3504  141.8544  158.8804 C   0  0  0  0  0  0  0  0  0  0  0  0
  150.4040  142.3512  159.4906 O   0  0  0  0  0  0  0  0  0  0  0  0
  151.2974  141.4892  157.5920 N   0  0  0  0  0  0  0  0  0  0  0  0
  150.1444  141.6432  156.7047 C   0  0  0  0  0  0  0  0  0  0  0  0
  149.8024  140.3351  155.9319 C   0  0  0  0  0  0  0  0  0  0  0  0
  150.9732  140.0076  154.9743 C   0  0  0  0  0  0  0  0  0  0  0  0
  149.6808  139.1950  156.9752 C   0  0  0  0  0  0  0  0  0  0  0  0
  148.5139  140.4808  155.2008 N   0  0  0  0  0  0  0  0  0  0  0  0
  148.5568  141.4007  154.0514 C   0  0  0  0  0  0  0  0  0  0  0  0
  147.2653  141.2839  153.2173 C   0  0  0  0  0  0  0  0  0  0  0  0
  146.0640  141.5825  154.0297 N   0  3  0  0  0  0  0  0  0  0  0  0
  145.8556  143.0259  154.2882 C   0  0  0  0  0  0  0  0  0  0  0  0
  146.0525  140.7456  155.2509 C   0  0  0  0  0  0  0  0  0  0  0  0
  147.3706  140.8783  156.0398 C   0  0  0  0  0  0  0  0  0  0  0  0
  156.4549  139.1301  159.9585 H   0  0  0  0  0  0  0  0  0  0  0  0
  155.8427  139.0944  161.6082 H   0  0  0  0  0  0  0  0  0  0  0  0
  156.8131  140.4719  161.0398 H   0  0  0  0  0  0  0  0  0  0  0  0
  154.4630  142.3312  164.2523 H   0  0  0  0  0  0  0  0  0  0  0  0
  152.3599  143.5464  163.6332 H   0  0  0  0  0  0  0  0  0  0  0  0
  151.4246  143.2385  161.3510 H   0  0  0  0  0  0  0  0  0  0  0  0
  153.2800  141.3197  158.7473 H   0  0  0  0  0  0  0  0  0  0  0  0
  152.1319  141.1003  157.1789 H   0  0  0  0  0  0  0  0  0  0  0  0
  149.3007  141.9923  157.2984 H   0  0  0  0  0  0  0  0  0  0  0  0
  150.3152  142.4512  155.9911 H   0  0  0  0  0  0  0  0  0  0  0  0
  151.9029  139.8900  155.5322 H   0  0  0  0  0  0  0  0  0  0  0  0
  151.1451  140.7983  154.2443 H   0  0  0  0  0  0  0  0  0  0  0  0
  150.8175  139.0766  154.4297 H   0  0  0  0  0  0  0  0  0  0  0  0
  150.5194  139.2106  157.6723 H   0  0  0  0  0  0  0  0  0  0  0  0
  149.6908  138.2056  156.5184 H   0  0  0  0  0  0  0  0  0  0  0  0
  148.7688  139.2811  157.5674 H   0  0  0  0  0  0  0  0  0  0  0  0
  148.7037  142.4285  154.3831 H   0  0  0  0  0  0  0  0  0  0  0  0
  149.3849  141.1634  153.3873 H   0  0  0  0  0  0  0  0  0  0  0  0
  147.3061  141.9491  152.3540 H   0  0  0  0  0  0  0  0  0  0  0  0
  147.1764  140.2713  152.8209 H   0  0  0  0  0  0  0  0  0  0  0  0
  146.6624  143.4561  154.8816 H   0  0  0  0  0  0  0  0  0  0  0  0
  144.9191  143.1853  154.8237 H   0  0  0  0  0  0  0  0  0  0  0  0
  145.7958  143.5763  153.3487 H   0  0  0  0  0  0  0  0  0  0  0  0
  145.2020  141.0142  155.8788 H   0  0  0  0  0  0  0  0  0  0  0  0
  145.9033  139.7045  154.9606 H   0  0  0  0  0  0  0  0  0  0  0  0
  147.2815  140.2385  156.9147 H   0  0  0  0  0  0  0  0  0  0  0  0
  147.4949  141.8972  156.4068 H   0  0  0  0  0  0  0  0  0  0  0  0
  145.2688  141.2933  153.4782 H   0  0  0  0  0  0  0  0  0  0  0  0
  1  2  1  0  0  0  0
  1 24  1  0  0  0  0
  1 25  1  0  0  0  0
  1 26  1  0  0  0  0
  2  3  1  0  0  0  0
  3  8  1  0  0  0  0
  3  4  2  0  0  0  0
  4  5  1  0  0  0  0
  5  6  2  0  0  0  0
  5 27  1  0  0  0  0
  6  7  1  0  0  0  0
  6 28  1  0  0  0  0
  7  8  2  0  0  0  0
  7 29  1  0  0  0  0
  8  9  1  0  0  0  0
  9 10  1  0  0  0  0
  9 30  1  0  0  0  0
 10 11  2  0  0  0  0
 10 12  1  0  0  0  0
 12 13  1  0  0  0  0
 12 31  1  0  0  0  0
 13 14  1  0  0  0  0
 13 32  1  0  0  0  0
 13 33  1  0  0  0  0
 14 15  1  0  0  0  0
 14 16  1  0  0  0  0
 14 17  1  0  0  0  0
 15 34  1  0  0  0  0
 15 35  1  0  0  0  0
 15 36  1  0  0  0  0
 16 37  1  0  0  0  0
 16 38  1  0  0  0  0
 16 39  1  0  0  0  0
 17 23  1  0  0  0  0
 17 18  1  0  0  0  0
 18 19  1  0  0  0  0
 18 40  1  0  0  0  0
 18 41  1  0  0  0  0
 19 20  1  0  0  0  0
 19 42  1  0  0  0  0
 19 43  1  0  0  0  0
 20 21  1  0  0  0  0
 20 22  1  0  0  0  0
 20 51  1  0  0  0  0
 21 44  1  0  0  0  0
 21 45  1  0  0  0  0
 21 46  1  0  0  0  0
 22 23  1  0  0  0  0
 22 47  1  0  0  0  0
 22 48  1  0  0  0  0
 23 49  1  0  0  0  0
 23 50  1  0  0  0  0
M  CHG  1  20   1
M  END
> <s_m_source_file>
AV-unprocessed.smi

> <i_m_source_file_index>
1243

> <i_lp_mmshare_version>
43012

> <i_f3d_flags>
0

> <s_epik_input>
W0NIM11PYzFuW2NIXVtjSF1bY0hdYzFbTkhdQyg9TylbTkhdW0NIMl1DKFtDSDNdKShbQ0gzXSlOMltDSDJdW0NIMl1OKFtDSDNdKVtDSDJdW0NIMl0y

> <s_epik_cmdline>
J2VwaWtfcHl0aG9uJywgJy1waCcsICc3LjAnLCAnLXRuJywgJzgnLCAnLW1hJywgJzIwMCcsICctbWV0YWxfYmluZGluZycsICctaW1hZScsICc8aW5maWxlLm1hZT4nLCAnLW9tYWUnLCAnPG91dGZpbGUubWFlPic=

> <r_lp_tautomer_probability>
1

> <r_epik_Ionization_Penalty>
0.0248754

> <r_epik_Ionization_Penalty_Charging>
0.0238192

> <r_epik_Ionization_Penalty_Neutral>
0.00105626

> <r_epik_State_Penalty>
0.139266

> <r_epik_Charging_Adjusted_Penalty>
0.163085

> <i_epik_Tot_Q>
1

> <i_epik_Tot_abs_Q>
1

> <r_epik_Metal_State_Penalty>
0.139265

> <b_epik_Metal_Only>
0

> <s_lp_Force_Field>
OPLS_2005

> <r_lp_Energy>
29.8064

> <b_lp_Chiralities_Consistent>
1

> <s_lp_Variant>
AV-unprocessed.smi:1243-1

> <Gold.Version>
5.8.1

> <Gold.Id.Protein>
6NUR|6NUR_protein|mol2

> <Gold.PLP.Fitness>
47.7756

> <Gold.PLP.PLP>
-42.2010

> <Gold.PLP.part.hbond>
-3.0000

> <Gold.PLP.part.metal>
0.0000

> <Gold.PLP.part.buried>
-5.6014

> <Gold.PLP.part.nonpolar>
-34.1675

> <Gold.PLP.part.repulsive>
0.2852

> <Gold.PLP.ligand.clash>
0.0000

> <Gold.PLP.ligand.torsion>
0.2348

> <Gold.PLP.Chemscore.Hbond>
2.0000

> <Gold.PLP.Chemscore.CHOScore>
0.0000

> <Gold.PLP.Chemscore.Metal>
0.0000

> <Gold.Chemscore.Hbonds>
donor molecule, donor type, donor heavy atom, donor atom, acceptor molecule, acceptor atom, score
      L1  H    20    51       P1 10175  2.00

> <Gold.PLP.Chemscore.Internal.Correction>
0.0441

> <Gold.Rescore>
     Score         DG    S(hbond)    S(metal)    S(lipo)     H(rot)  DE(clash)    DE(int)     intcor
     12.23     -14.52       0.88        0.00      89.76       1.72       0.88       1.42       ----

> <Gold.Chemscore.Fitness>
12.2273

> <Gold.Chemscore.DG>
-14.5216

> <Gold.Chemscore.ZeroCoef>
-5.4800

> <Gold.Chemscore.Hbond>
0.8820

> <Gold.Chemscore.Metal>
0.0000

> <Gold.Chemscore.Lipo>
89.7640

> <Gold.Chemscore.Internal_Hbond>
0.0000

> <Gold.Chemscore.DEClash>
0.8782

> <Gold.Chemscore.DEInternal>
1.4161

> <Gold.Chemscore.Rot>
1.7213

> <Gold.Chemscore.Internal.Correction>
   9.000000E+99

> <Gold.Chemscore.Hbonds>
donor molecule, donor type, donor heavy atom, donor atom, acceptor molecule, acceptor atom, score
      L1  H    20    51       P1 10175  0.24

> <Gold.Chemscore.Hbond.Weighted>
-2.9457

> <Gold.Chemscore.Metal.Weighted>
-0.0000

> <Gold.Chemscore.Lipo.Weighted>
-10.5024

> <Gold.Chemscore.Internal_Hbond.Weighted>
0.0000

> <Gold.Chemscore.DEClash.Weighted>
0.8782

> <Gold.Chemscore.DEInternal.Weighted>
1.4161

> <Gold.Chemscore.Rot.Weighted>
4.4066

> <Gold.Chemscore.Internal.Correction.Weighted>
   9.000000E+99

> <Gold.Protein.RotatedTorsions>
[ 6907 6896 6895 6894 ] final -156.35 input  -60.11 | X-H torsion
[ 7974 7965 7964 7962 ] final  161.90 input  175.53 | X-H torsion
[ 8008 7997 7996 7995 ] final    5.73 input   59.86 | X-H torsion
[ 10167 10162 10161 10158 ] final   61.66 input  -65.29 | X-H torsion
[ 10718 10713 10712 10709 ] final -167.42 input   66.30 | X-H torsion
[ 10763 10752 10751 10750 ] final  167.30 input  -60.55 | X-H torsion
[ 11005 11000 10999 10996 ] final  179.41 input  -57.11 | X-H torsion

> <Gold.Protein.ActiveResidues>
 VAL166  LYS551  ARG553  GLY616  TRP617  ASP618  TYR619  PRO620  LYS621  CYS622 
 ASP623  PHE694  ASN695  SER759  ASP760  ASP761  ALA762  ILE779  LEU786  VAL792 
 PHE793  MET794  SER795  GLU796  ALA797  LYS798  CYS799  TRP800  GLU811  SER814 

> <Gold.Protein.RotatedAtoms>
  151.2862  133.4186  159.2629 H   0  0  0  0  0  0  0  0  0  0  0  0  # atno 6907 bound_to 6896
  151.0317  134.9544  159.8125 H   0  0  0  0  0  0  0  0  0  0  0  0  # atno 6908 bound_to 6896
  152.5347  134.2823  159.9064 H   0  0  0  0  0  0  0  0  0  0  0  0  # atno 6909 bound_to 6896
  144.7663  139.7964  143.6314 H   0  0  0  0  0  0  0  0  0  0  0  0  # atno 7974 bound_to 7965
  154.7321  140.2732  155.6447 H   0  0  0  0  0  0  0  0  0  0  0  0  # atno 8008 bound_to 7997
  156.2852  140.2714  156.1949 H   0  0  0  0  0  0  0  0  0  0  0  0  # atno 8009 bound_to 7997
  155.0368  140.0371  157.2485 H   0  0  0  0  0  0  0  0  0  0  0  0  # atno 8010 bound_to 7997
  140.1524  144.4450  150.6752 H   0  0  0  0  0  0  0  0  0  0  0  0  # atno 10167 bound_to 10162
  156.6821  130.9126  151.3058 H   0  0  0  0  0  0  0  0  0  0  0  0  # atno 10718 bound_to 10713
  154.3518  135.2753  155.2368 H   0  0  0  0  0  0  0  0  0  0  0  0  # atno 10763 bound_to 10752
  154.4594  135.5911  153.6249 H   0  0  0  0  0  0  0  0  0  0  0  0  # atno 10764 bound_to 10752
  152.9849  135.6061  154.3729 H   0  0  0  0  0  0  0  0  0  0  0  0  # atno 10765 bound_to 10752
  140.4058  134.6736  157.4587 H   0  0  0  0  0  0  0  0  0  0  0  0  # atno 11005 bound_to 11000
  146.1772  139.4948  142.9889 LP  0  0  0  0  0  0  0  0  0  0  0  0  # atno 17320 bound_to 7965
  145.6461  141.0273  143.1785 LP  0  0  0  0  0  0  0  0  0  0  0  0  # atno 17321 bound_to 7965
  140.6694  143.2280  151.5662 LP  0  0  0  0  0  0  0  0  0  0  0  0  # atno 17342 bound_to 10162
  139.5420  144.2623  152.1368 LP  0  0  0  0  0  0  0  0  0  0  0  0  # atno 17343 bound_to 10162
  157.7040  130.9364  150.0872 LP  0  0  0  0  0  0  0  0  0  0  0  0  # atno 17370 bound_to 10713
  156.1860  130.3652  149.8972 LP  0  0  0  0  0  0  0  0  0  0  0  0  # atno 17371 bound_to 10713
  140.0303  134.6416  155.9116 LP  0  0  0  0  0  0  0  0  0  0  0  0  # atno 17394 bound_to 11000
  141.1839  133.6552  156.5137 LP  0  0  0  0  0  0  0  0  0  0  0  0  # atno 17395 bound_to 11000

$$$$
