AV-unprocessed.smi:3323|AV-procd|sdf|12779|dock2
  -GOLD-   2272019123D 1   1.00000     0.00000
 Structure written by MMmdl.
 37 38  0  0  0  0  0  0  0  0  1 V2000
  151.5279  138.0157  154.3508 C   0  0  0  0  0  0  0  0  0  0  0  0
  150.2224  138.7593  154.6532 C   0  0  2  0  0  0  0  0  0  0  0  0
  149.1147  138.4265  153.6360 C   0  0  0  0  0  0  0  0  0  0  0  0
  147.8388  139.2347  153.9245 C   0  0  2  0  0  0  0  0  0  0  0  0
  146.7426  138.9343  152.8822 C   0  0  0  0  0  0  0  0  0  0  0  0
  146.7829  137.5480  152.4251 N   0  0  0  0  0  0  0  0  0  0  0  0
  145.7158  136.7665  152.2046 C   0  0  0  0  0  0  0  0  0  0  0  0
  144.5548  137.1411  152.3655 O   0  0  0  0  0  0  0  0  0  0  0  0
  146.0924  135.5465  151.7840 N   0  0  0  0  0  0  0  0  0  0  0  0
  145.2876  134.4257  151.4409 C   0  0  0  0  0  0  0  0  0  0  0  0
  145.7123  133.3446  150.6298 C   0  0  0  0  0  0  0  0  0  0  0  0
  144.8056  132.3017  150.3580 C   0  0  0  0  0  0  0  0  0  0  0  0
  143.5080  132.3788  150.8993 C   0  0  0  0  0  0  0  0  0  0  0  0
  143.0860  133.4071  151.6643 N   0  0  0  0  0  0  0  0  0  0  0  0
  143.9607  134.4028  151.9211 C   0  0  0  0  0  0  0  0  0  0  0  0
  148.2101  140.7272  154.0037 C   0  0  0  0  0  0  0  0  0  0  0  0
  149.3679  140.9518  154.9895 C   0  0  0  0  0  0  0  0  0  0  0  0
  150.4893  140.1579  154.6177 O   0  0  0  0  0  0  0  0  0  0  0  0
  151.3795  136.9359  154.3775 H   0  0  0  0  0  0  0  0  0  0  0  0
  152.2955  138.2631  155.0845 H   0  0  0  0  0  0  0  0  0  0  0  0
  151.9125  138.2769  153.3644 H   0  0  0  0  0  0  0  0  0  0  0  0
  149.8933  138.4843  155.6570 H   0  0  0  0  0  0  0  0  0  0  0  0
  149.4680  138.6436  152.6266 H   0  0  0  0  0  0  0  0  0  0  0  0
  148.8940  137.3588  153.6658 H   0  0  0  0  0  0  0  0  0  0  0  0
  147.4651  138.9278  154.9026 H   0  0  0  0  0  0  0  0  0  0  0  0
  145.7592  139.1923  153.2793 H   0  0  0  0  0  0  0  0  0  0  0  0
  146.8881  139.5676  152.0067 H   0  0  0  0  0  0  0  0  0  0  0  0
  147.6981  137.1537  152.2634 H   0  0  0  0  0  0  0  0  0  0  0  0
  147.0848  135.4151  151.6531 H   0  0  0  0  0  0  0  0  0  0  0  0
  146.7007  133.2939  150.2019 H   0  0  0  0  0  0  0  0  0  0  0  0
  145.0975  131.4624  149.7443 H   0  0  0  0  0  0  0  0  0  0  0  0
  142.7885  131.5962  150.7091 H   0  0  0  0  0  0  0  0  0  0  0  0
  143.5865  135.2093  152.5351 H   0  0  0  0  0  0  0  0  0  0  0  0
  148.4984  141.0894  153.0161 H   0  0  0  0  0  0  0  0  0  0  0  0
  147.3514  141.3220  154.3156 H   0  0  0  0  0  0  0  0  0  0  0  0
  149.6643  142.0008  154.9851 H   0  0  0  0  0  0  0  0  0  0  0  0
  149.0623  140.7131  156.0093 H   0  0  0  0  0  0  0  0  0  0  0  0
  1  2  1  0  0  0  0
  1 19  1  0  0  0  0
  1 20  1  0  0  0  0
  1 21  1  0  0  0  0
  2 18  1  0  0  0  0
  2  3  1  0  0  0  0
  2 22  1  0  0  0  0
  3  4  1  0  0  0  0
  3 23  1  0  0  0  0
  3 24  1  0  0  0  0
  4  5  1  0  0  0  0
  4 16  1  0  0  0  0
  4 25  1  0  0  0  0
  5  6  1  0  0  0  0
  5 26  1  0  0  0  0
  5 27  1  0  0  0  0
  6  7  1  0  0  0  0
  6 28  1  0  0  0  0
  7  8  2  0  0  0  0
  7  9  1  0  0  0  0
  9 10  1  0  0  0  0
  9 29  1  0  0  0  0
 10 15  1  0  0  0  0
 10 11  2  0  0  0  0
 11 12  1  0  0  0  0
 11 30  1  0  0  0  0
 12 13  2  0  0  0  0
 12 31  1  0  0  0  0
 13 14  1  0  0  0  0
 13 32  1  0  0  0  0
 14 15  2  0  0  0  0
 15 33  1  0  0  0  0
 16 17  1  0  0  0  0
 16 34  1  0  0  0  0
 16 35  1  0  0  0  0
 17 18  1  0  0  0  0
 17 36  1  0  0  0  0
 17 37  1  0  0  0  0
M  END
> <s_m_source_file>
AV-unprocessed.smi

> <i_m_source_file_index>
3323

> <i_lp_mmshare_version>
43012

> <i_f3d_flags>
0

> <s_epik_input>
W0NIM11bQ0BASF0xW0NIMl1bQ0BIXShbQ0gyXVtDSDJdTzEpW0NIMl1bTkhdQyg9TylbTkhdYzJbY0hdW2NIXVtjSF1uW2NIXTI=

> <s_epik_cmdline>
J2VwaWtfcHl0aG9uJywgJy1waCcsICc3LjAnLCAnLXRuJywgJzgnLCAnLW1hJywgJzIwMCcsICctbWV0YWxfYmluZGluZycsICctaW1hZScsICc8aW5maWxlLm1hZT4nLCAnLW9tYWUnLCAnPG91dGZpbGUubWFlPic=

> <r_epik_Ionization_Penalty>
0.00485293

> <r_epik_Ionization_Penalty_Charging>
0

> <r_epik_Ionization_Penalty_Neutral>
0.00485293

> <r_epik_State_Penalty>
0.00349083

> <r_epik_Charging_Adjusted_Penalty>
0.00349083

> <i_epik_Tot_Q>
0

> <i_epik_Tot_abs_Q>
0

> <r_epik_Metal_State_Penalty>
-0

> <b_epik_Metal_Only>
0

> <s_lp_Force_Field>
OPLS_2005

> <r_lp_Energy>
12.0355

> <b_lp_Chiralities_Consistent>
1

> <s_lp_Variant>
AV-unprocessed.smi:3323-3

> <Gold.Version>
5.8.1

> <Gold.Id.Protein>
6NUR|6NUR_protein|mol2

> <Gold.PLP.Fitness>
42.0293

> <Gold.PLP.PLP>
-31.5038

> <Gold.PLP.part.hbond>
-3.0000

> <Gold.PLP.part.metal>
0.0000

> <Gold.PLP.part.buried>
-2.9735

> <Gold.PLP.part.nonpolar>
-28.4755

> <Gold.PLP.part.repulsive>
2.0820

> <Gold.PLP.ligand.clash>
0.0000

> <Gold.PLP.ligand.torsion>
0.4966

> <Gold.PLP.Chemscore.Hbond>
2.9440

> <Gold.PLP.Chemscore.CHOScore>
0.8944

> <Gold.PLP.Chemscore.Metal>
0.0000

> <Gold.Chemscore.Hbonds>
donor molecule, donor type, donor heavy atom, donor atom, acceptor molecule, acceptor atom, score
      L1  H     6    28       P1  7948  1.00
      L1  H     9    29       P1  7948  0.94
      P1  H  7989  7998       L1    18  1.00
      L1  C    13    32       P1 10952  0.85

> <Gold.PLP.Chemscore.Internal.Correction>
0.0035

> <Gold.Rescore>
     Score         DG    S(hbond)    S(metal)    S(lipo)     H(rot)  DE(clash)    DE(int)     intcor
     18.85     -21.50       2.84        0.00      82.79       1.23       0.85       1.80       ----

> <Gold.Chemscore.Fitness>
18.8499

> <Gold.Chemscore.DG>
-21.5046

> <Gold.Chemscore.ZeroCoef>
-5.4800

> <Gold.Chemscore.Hbond>
2.8385

> <Gold.Chemscore.Metal>
0.0000

> <Gold.Chemscore.Lipo>
82.7859

> <Gold.Chemscore.Internal_Hbond>
0.0000

> <Gold.Chemscore.DEClash>
0.8529

> <Gold.Chemscore.DEInternal>
1.8018

> <Gold.Chemscore.Rot>
1.2273

> <Gold.Chemscore.Internal.Correction>
   9.000000E+99

> <Gold.Chemscore.Hbonds>
donor molecule, donor type, donor heavy atom, donor atom, acceptor molecule, acceptor atom, score
      L1  H     6    28       P1  7948  0.98
      L1  H     9    29       P1  7948  0.87
      P1  H  7989  7998       L1    18  0.93

> <Gold.Chemscore.Hbond.Weighted>
-9.4805

> <Gold.Chemscore.Metal.Weighted>
-0.0000

> <Gold.Chemscore.Lipo.Weighted>
-9.6860

> <Gold.Chemscore.Internal_Hbond.Weighted>
0.0000

> <Gold.Chemscore.DEClash.Weighted>
0.8529

> <Gold.Chemscore.DEInternal.Weighted>
1.8018

> <Gold.Chemscore.Rot.Weighted>
3.1418

> <Gold.Chemscore.Internal.Correction.Weighted>
   9.000000E+99

> <Gold.Protein.RotatedTorsions>
[ 6907 6896 6895 6894 ] final   92.83 input  -60.11 | X-H torsion
[ 7974 7965 7964 7962 ] final  -92.82 input  175.53 | X-H torsion
[ 8008 7997 7996 7995 ] final   -6.59 input   59.86 | X-H torsion
[ 10167 10162 10161 10158 ] final  -13.86 input  -65.29 | X-H torsion
[ 10718 10713 10712 10709 ] final -133.01 input   66.30 | X-H torsion
[ 10763 10752 10751 10750 ] final   75.63 input  -60.55 | X-H torsion
[ 11005 11000 10999 10996 ] final  122.03 input  -57.11 | X-H torsion

> <Gold.Protein.ActiveResidues>
 VAL166  LYS551  ARG553  GLY616  TRP617  ASP618  TYR619  PRO620  LYS621  CYS622 
 ASP623  PHE694  ASN695  SER759  ASP760  ASP761  ALA762  ILE779  LEU786  VAL792 
 PHE793  MET794  SER795  GLU796  ALA797  LYS798  CYS799  TRP800  GLU811  SER814 

> <Gold.Protein.RotatedAtoms>
  152.5453  134.1442  159.8491 H   0  0  0  0  0  0  0  0  0  0  0  0  # atno 6907 bound_to 6896
  151.1475  133.4922  159.2603 H   0  0  0  0  0  0  0  0  0  0  0  0  # atno 6908 bound_to 6896
  151.1507  135.0236  159.8722 H   0  0  0  0  0  0  0  0  0  0  0  0  # atno 6909 bound_to 6896
  145.3947  140.9531  143.2321 H   0  0  0  0  0  0  0  0  0  0  0  0  # atno 7974 bound_to 7965
  154.5922  140.2429  155.7905 H   0  0  0  0  0  0  0  0  0  0  0  0  # atno 8008 bound_to 7997
  156.2255  140.2984  156.0011 H   0  0  0  0  0  0  0  0  0  0  0  0  # atno 8009 bound_to 7997
  155.2354  140.0405  157.2958 H   0  0  0  0  0  0  0  0  0  0  0  0  # atno 8010 bound_to 7997
  140.7190  143.5381  150.9440 H   0  0  0  0  0  0  0  0  0  0  0  0  # atno 10167 bound_to 10162
  156.2405  130.7093  151.0952 H   0  0  0  0  0  0  0  0  0  0  0  0  # atno 10718 bound_to 10713
  153.0668  135.4981  154.8217 H   0  0  0  0  0  0  0  0  0  0  0  0  # atno 10763 bound_to 10752
  154.6965  135.2994  154.9406 H   0  0  0  0  0  0  0  0  0  0  0  0  # atno 10764 bound_to 10752
  154.0144  135.6750  153.4820 H   0  0  0  0  0  0  0  0  0  0  0  0  # atno 10765 bound_to 10752
  139.9251  134.9640  156.8048 H   0  0  0  0  0  0  0  0  0  0  0  0  # atno 11005 bound_to 11000
  144.8415  139.5464  143.6898 LP  0  0  0  0  0  0  0  0  0  0  0  0  # atno 17320 bound_to 7965
  146.2781  139.6804  142.9249 LP  0  0  0  0  0  0  0  0  0  0  0  0  # atno 17321 bound_to 7965
  139.9103  143.6728  152.3116 LP  0  0  0  0  0  0  0  0  0  0  0  0  # atno 17342 bound_to 10162
  139.7109  144.7620  151.1114 LP  0  0  0  0  0  0  0  0  0  0  0  0  # atno 17343 bound_to 10162
  157.7173  131.0702  150.6276 LP  0  0  0  0  0  0  0  0  0  0  0  0  # atno 17370 bound_to 10713
  156.6349  130.4442  149.5773 LP  0  0  0  0  0  0  0  0  0  0  0  0  # atno 17371 bound_to 10713
  140.6360  133.9862  155.7684 LP  0  0  0  0  0  0  0  0  0  0  0  0  # atno 17394 bound_to 11000
  141.0802  134.0073  157.3397 LP  0  0  0  0  0  0  0  0  0  0  0  0  # atno 17395 bound_to 11000

$$$$
