AV-unprocessed.smi:2513|AV-procd|sdf|9891|dock7
  -GOLD-   2272013523D 1   1.00000     0.00000
 Structure written by MMmdl.
 35 36  0  0  0  0  0  0  0  0  1 V2000
  151.5771  145.5777  159.9958 C   0  0  0  0  0  0  0  0  0  0  0  0
  151.3674  144.4362  159.1775 O   0  0  0  0  0  0  0  0  0  0  0  0
  152.0752  143.2857  159.4664 C   0  0  0  0  0  0  0  0  0  0  0  0
  153.0255  143.1923  160.5152 C   0  0  0  0  0  0  0  0  0  0  0  0
  153.6980  141.9771  160.7312 C   0  0  0  0  0  0  0  0  0  0  0  0
  153.3967  140.8934  159.8904 C   0  0  0  0  0  0  0  0  0  0  0  0
  152.4958  140.9678  158.8913 N   0  0  0  0  0  0  0  0  0  0  0  0
  151.8395  142.1343  158.6704 C   0  0  0  0  0  0  0  0  0  0  0  0
  150.8758  142.2942  157.6363 N   0  0  0  0  0  0  0  0  0  0  0  0
  150.6020  141.4670  156.6123 C   0  0  0  0  0  0  0  0  0  0  0  0
  151.1630  140.3931  156.3928 O   0  0  0  0  0  0  0  0  0  0  0  0
  149.6220  141.9599  155.8412 N   0  0  0  0  0  0  0  0  0  0  0  0
  149.0840  141.3127  154.6483 C   0  0  2  0  0  0  0  0  0  0  0  0
  147.7278  141.9358  154.2857 C   0  0  0  0  0  0  0  0  0  0  0  0
  147.0940  141.1697  153.1192 C   0  0  0  0  0  0  0  0  0  0  0  0
  147.0393  139.6659  153.4313 C   0  0  0  0  0  0  0  0  0  0  0  0
  148.3471  139.1845  153.7219 O   0  0  0  0  0  0  0  0  0  0  0  0
  148.9240  139.7942  154.8724 C   0  0  0  0  0  0  0  0  0  0  0  0
  150.9484  146.3945  159.6410 H   0  0  0  0  0  0  0  0  0  0  0  0
  152.6133  145.9160  159.9510 H   0  0  0  0  0  0  0  0  0  0  0  0
  151.3052  145.3799  161.0335 H   0  0  0  0  0  0  0  0  0  0  0  0
  153.2533  144.0281  161.1587 H   0  0  0  0  0  0  0  0  0  0  0  0
  154.4272  141.8788  161.5217 H   0  0  0  0  0  0  0  0  0  0  0  0
  153.8914  139.9424  160.0221 H   0  0  0  0  0  0  0  0  0  0  0  0
  150.3308  143.1422  157.6862 H   0  0  0  0  0  0  0  0  0  0  0  0
  149.2175  142.8488  156.0963 H   0  0  0  0  0  0  0  0  0  0  0  0
  149.7682  141.4749  153.8132 H   0  0  0  0  0  0  0  0  0  0  0  0
  147.0589  141.8996  155.1471 H   0  0  0  0  0  0  0  0  0  0  0  0
  147.8473  142.9881  154.0247 H   0  0  0  0  0  0  0  0  0  0  0  0
  146.0924  141.5505  152.9179 H   0  0  0  0  0  0  0  0  0  0  0  0
  147.6792  141.3319  152.2133 H   0  0  0  0  0  0  0  0  0  0  0  0
  146.3716  139.4663  154.2709 H   0  0  0  0  0  0  0  0  0  0  0  0
  146.6449  139.1195  152.5744 H   0  0  0  0  0  0  0  0  0  0  0  0
  149.8944  139.3317  155.0553 H   0  0  0  0  0  0  0  0  0  0  0  0
  148.3059  139.5900  155.7484 H   0  0  0  0  0  0  0  0  0  0  0  0
  1  2  1  0  0  0  0
  1 19  1  0  0  0  0
  1 20  1  0  0  0  0
  1 21  1  0  0  0  0
  2  3  1  0  0  0  0
  3  8  1  0  0  0  0
  3  4  2  0  0  0  0
  4  5  1  0  0  0  0
  4 22  1  0  0  0  0
  5  6  2  0  0  0  0
  5 23  1  0  0  0  0
  6  7  1  0  0  0  0
  6 24  1  0  0  0  0
  7  8  2  0  0  0  0
  8  9  1  0  0  0  0
  9 10  1  0  0  0  0
  9 25  1  0  0  0  0
 10 11  2  0  0  0  0
 10 12  1  0  0  0  0
 12 13  1  0  0  0  0
 12 26  1  0  0  0  0
 13 18  1  0  0  0  0
 13 14  1  0  0  0  0
 13 27  1  0  0  0  0
 14 15  1  0  0  0  0
 14 28  1  0  0  0  0
 14 29  1  0  0  0  0
 15 16  1  0  0  0  0
 15 30  1  0  0  0  0
 15 31  1  0  0  0  0
 16 17  1  0  0  0  0
 16 32  1  0  0  0  0
 16 33  1  0  0  0  0
 17 18  1  0  0  0  0
 18 34  1  0  0  0  0
 18 35  1  0  0  0  0
M  END
> <s_m_source_file>
AV-unprocessed.smi

> <i_m_source_file_index>
2513

> <i_lp_mmshare_version>
43012

> <i_f3d_flags>
0

> <s_epik_input>
W0NIM11PYzFbY0hdW2NIXVtjSF1uYzFbTkhdQyg9TylbTkhdW0NAQEhdMltDSDJdW0NIMl1bQ0gyXU9bQ0gyXTI=

> <s_epik_cmdline>
J2VwaWtfcHl0aG9uJywgJy1waCcsICc3LjAnLCAnLXRuJywgJzgnLCAnLW1hJywgJzIwMCcsICctbWV0YWxfYmluZGluZycsICctaW1hZScsICc8aW5maWxlLm1hZT4nLCAnLW9tYWUnLCAnPG91dGZpbGUubWFlPic=

> <r_lp_tautomer_probability>
1

> <r_epik_Ionization_Penalty>
3.98976e-05

> <r_epik_Ionization_Penalty_Charging>
0

> <r_epik_Ionization_Penalty_Neutral>
3.98976e-05

> <r_epik_State_Penalty>
-0

> <r_epik_Charging_Adjusted_Penalty>
0

> <i_epik_Tot_Q>
0

> <i_epik_Tot_abs_Q>
0

> <r_epik_Metal_State_Penalty>
-0

> <b_epik_Metal_Only>
0

> <s_lp_Force_Field>
OPLS_2005

> <r_lp_Energy>
12.9865

> <b_lp_Chiralities_Consistent>
1

> <s_lp_Variant>
AV-unprocessed.smi:2513-1

> <Gold.Version>
5.8.1

> <Gold.Id.Protein>
6NUR|6NUR_protein|mol2

> <Gold.PLP.Fitness>
40.4664

> <Gold.PLP.PLP>
-38.0177

> <Gold.PLP.part.hbond>
-1.0000

> <Gold.PLP.part.metal>
0.0000

> <Gold.PLP.part.buried>
-7.7217

> <Gold.PLP.part.nonpolar>
-30.7185

> <Gold.PLP.part.repulsive>
1.2375

> <Gold.PLP.ligand.clash>
0.0000

> <Gold.PLP.ligand.torsion>
0.2772

> <Gold.PLP.Chemscore.Hbond>
1.0000

> <Gold.PLP.Chemscore.CHOScore>
0.0000

> <Gold.PLP.Chemscore.Metal>
0.0000

> <Gold.Chemscore.Hbonds>
donor molecule, donor type, donor heavy atom, donor atom, acceptor molecule, acceptor atom, score
      L1  H    12    26       P1  8028  0.98

> <Gold.PLP.Chemscore.Internal.Correction>
0.0032

> <Gold.Rescore>
     Score         DG    S(hbond)    S(metal)    S(lipo)     H(rot)  DE(clash)    DE(int)     intcor
     13.06     -16.04       0.97        0.00      90.12       1.25       0.09       2.89       ----

> <Gold.Chemscore.Fitness>
13.0585

> <Gold.Chemscore.DG>
-16.0447

> <Gold.Chemscore.ZeroCoef>
-5.4800

> <Gold.Chemscore.Hbond>
0.9673

> <Gold.Chemscore.Metal>
0.0000

> <Gold.Chemscore.Lipo>
90.1250

> <Gold.Chemscore.Internal_Hbond>
0.0000

> <Gold.Chemscore.DEClash>
0.0924

> <Gold.Chemscore.DEInternal>
2.8938

> <Gold.Chemscore.Rot>
1.2542

> <Gold.Chemscore.Internal.Correction>
   9.000000E+99

> <Gold.Chemscore.Hbonds>
donor molecule, donor type, donor heavy atom, donor atom, acceptor molecule, acceptor atom, score
      L1  H    12    26       P1  8028  0.92

> <Gold.Chemscore.Hbond.Weighted>
-3.2307

> <Gold.Chemscore.Metal.Weighted>
-0.0000

> <Gold.Chemscore.Lipo.Weighted>
-10.5446

> <Gold.Chemscore.Internal_Hbond.Weighted>
0.0000

> <Gold.Chemscore.DEClash.Weighted>
0.0924

> <Gold.Chemscore.DEInternal.Weighted>
2.8938

> <Gold.Chemscore.Rot.Weighted>
3.2107

> <Gold.Chemscore.Internal.Correction.Weighted>
   9.000000E+99

> <Gold.Protein.RotatedTorsions>
[ 6907 6896 6895 6894 ] final  176.42 input  -60.11 | X-H torsion
[ 7974 7965 7964 7962 ] final -160.27 input  175.53 | X-H torsion
[ 8008 7997 7996 7995 ] final   78.36 input   59.86 | X-H torsion
[ 10167 10162 10161 10158 ] final  -66.52 input  -65.29 | X-H torsion
[ 10718 10713 10712 10709 ] final  -35.14 input   66.30 | X-H torsion
[ 10763 10752 10751 10750 ] final  179.47 input  -60.55 | X-H torsion
[ 11005 11000 10999 10996 ] final -139.17 input  -57.11 | X-H torsion

> <Gold.Protein.ActiveResidues>
 VAL166  LYS551  ARG553  GLY616  TRP617  ASP618  TYR619  PRO620  LYS621  CYS622 
 ASP623  PHE694  ASN695  SER759  ASP760  ASP761  ALA762  ILE779  LEU786  VAL792 
 PHE793  MET794  SER795  GLU796  ALA797  LYS798  CYS799  TRP800  GLU811  SER814 

> <Gold.Protein.RotatedAtoms>
  151.7205  133.3314  159.3313 H   0  0  0  0  0  0  0  0  0  0  0  0  # atno 6907 bound_to 6896
  150.7655  134.6453  159.6268 H   0  0  0  0  0  0  0  0  0  0  0  0  # atno 6908 bound_to 6896
  152.3655  134.6813  160.0245 H   0  0  0  0  0  0  0  0  0  0  0  0  # atno 6909 bound_to 6896
  144.7433  140.3566  143.6105 H   0  0  0  0  0  0  0  0  0  0  0  0  # atno 7974 bound_to 7965
  155.8546  140.3456  155.5716 H   0  0  0  0  0  0  0  0  0  0  0  0  # atno 8008 bound_to 7997
  155.8000  140.0884  157.1982 H   0  0  0  0  0  0  0  0  0  0  0  0  # atno 8009 bound_to 7997
  154.4009  140.1467  156.3250 H   0  0  0  0  0  0  0  0  0  0  0  0  # atno 8010 bound_to 7997
  140.5650  143.2314  151.6652 H   0  0  0  0  0  0  0  0  0  0  0  0  # atno 10167 bound_to 10162
  156.3422  130.4295  149.7777 H   0  0  0  0  0  0  0  0  0  0  0  0  # atno 10718 bound_to 10713
  154.5211  135.2794  155.1262 H   0  0  0  0  0  0  0  0  0  0  0  0  # atno 10763 bound_to 10752
  154.2819  135.6283  153.5354 H   0  0  0  0  0  0  0  0  0  0  0  0  # atno 10764 bound_to 10752
  152.9937  135.5653  154.5700 H   0  0  0  0  0  0  0  0  0  0  0  0  # atno 10765 bound_to 10752
  140.8546  134.2244  157.4742 H   0  0  0  0  0  0  0  0  0  0  0  0  # atno 11005 bound_to 11000
  145.7221  139.1712  143.2479 LP  0  0  0  0  0  0  0  0  0  0  0  0  # atno 17320 bound_to 7965
  146.1269  140.7236  142.9430 LP  0  0  0  0  0  0  0  0  0  0  0  0  # atno 17321 bound_to 7965
  139.5089  144.3596  152.0574 LP  0  0  0  0  0  0  0  0  0  0  0  0  # atno 17342 bound_to 10162
  140.2727  144.3946  150.6145 LP  0  0  0  0  0  0  0  0  0  0  0  0  # atno 17343 bound_to 10162
  156.5009  130.8128  151.3132 LP  0  0  0  0  0  0  0  0  0  0  0  0  # atno 17370 bound_to 10713
  157.7448  130.9945  150.2709 LP  0  0  0  0  0  0  0  0  0  0  0  0  # atno 17371 bound_to 10713
  139.8705  134.9700  156.4685 LP  0  0  0  0  0  0  0  0  0  0  0  0  # atno 17394 bound_to 11000
  140.8752  133.7959  155.9407 LP  0  0  0  0  0  0  0  0  0  0  0  0  # atno 17395 bound_to 11000

$$$$
