AV-unprocessed.smi:1349|AV-procd|sdf|5519|dock3
  -GOLD-   22720 5103D 1   1.00000     0.00000
 Structure written by MMmdl.
 43 45  0  0  0  0  0  0  0  0  2 V2000
  145.8501  141.4243  154.1511 O   0  0  0  0  0  0  0  0  0  0  0  0
  147.2189  141.3382  153.8154 C   0  0  0  0  0  0  0  0  0  0  0  0
  148.0889  141.4572  155.0750 C   0  0  0  0  0  0  0  0  0  0  0  0
  149.5936  141.3360  154.7850 C   0  0  0  0  0  0  0  0  0  0  0  0
  150.4112  141.6512  155.9952 C   0  0  0  0  0  0  0  0  0  0  0  0
  150.4176  142.8372  156.6665 N   0  3  0  0  0  0  0  0  0  0  0  0
  151.2958  142.7634  157.7486 C   0  0  0  0  0  0  0  0  0  0  0  0
  151.6401  143.7088  158.7097 C   0  0  0  0  0  0  0  0  0  0  0  0
  152.5785  143.3082  159.6837 C   0  0  0  0  0  0  0  0  0  0  0  0
  153.1363  142.0129  159.6770 C   0  0  0  0  0  0  0  0  0  0  0  0
  152.7789  141.0627  158.6976 C   0  0  0  0  0  0  0  0  0  0  0  0
  151.8492  141.4668  157.7398 C   0  0  0  0  0  0  0  0  0  0  0  0
  151.2708  140.8147  156.6459 N   0  0  0  0  0  0  0  0  0  0  0  0
  151.6511  139.4240  156.3571 C   0  0  0  0  0  0  0  0  0  0  0  0
  150.4343  138.5459  156.0333 C   0  0  0  0  0  0  0  0  0  0  0  0
  150.8855  137.2526  155.6528 O   0  0  0  0  0  0  0  0  0  0  0  0
  149.9453  136.2911  155.3540 C   0  0  0  0  0  0  0  0  0  0  0  0
  150.4290  135.0193  154.9837 C   0  0  0  0  0  0  0  0  0  0  0  0
  149.5400  133.9748  154.6650 C   0  0  0  0  0  0  0  0  0  0  0  0
  148.1510  134.1946  154.7127 C   0  0  0  0  0  0  0  0  0  0  0  0
  147.6545  135.4597  155.0780 C   0  0  0  0  0  0  0  0  0  0  0  0
  148.5442  136.5045  155.3970 C   0  0  0  0  0  0  0  0  0  0  0  0
  145.3386  141.1507  153.4048 H   0  0  0  0  0  0  0  0  0  0  0  0
  147.4102  140.3983  153.2966 H   0  0  0  0  0  0  0  0  0  0  0  0
  147.4546  142.1446  153.1205 H   0  0  0  0  0  0  0  0  0  0  0  0
  147.8960  142.4229  155.5436 H   0  0  0  0  0  0  0  0  0  0  0  0
  147.7845  140.7015  155.8005 H   0  0  0  0  0  0  0  0  0  0  0  0
  149.8380  140.3300  154.4433 H   0  0  0  0  0  0  0  0  0  0  0  0
  149.8772  142.0139  153.9794 H   0  0  0  0  0  0  0  0  0  0  0  0
  151.2152  144.7018  158.7153 H   0  0  0  0  0  0  0  0  0  0  0  0
  152.8768  144.0085  160.4502 H   0  0  0  0  0  0  0  0  0  0  0  0
  153.8534  141.7420  160.4384 H   0  0  0  0  0  0  0  0  0  0  0  0
  153.2130  140.0739  158.6997 H   0  0  0  0  0  0  0  0  0  0  0  0
  152.3719  139.4154  155.5390 H   0  0  0  0  0  0  0  0  0  0  0  0
  152.1718  139.0315  157.2308 H   0  0  0  0  0  0  0  0  0  0  0  0
  149.7877  138.4771  156.9096 H   0  0  0  0  0  0  0  0  0  0  0  0
  149.8599  139.0004  155.2248 H   0  0  0  0  0  0  0  0  0  0  0  0
  151.4940  134.8424  154.9441 H   0  0  0  0  0  0  0  0  0  0  0  0
  149.9244  133.0054  154.3835 H   0  0  0  0  0  0  0  0  0  0  0  0
  147.4676  133.3945  154.4690 H   0  0  0  0  0  0  0  0  0  0  0  0
  146.5886  135.6300  155.1139 H   0  0  0  0  0  0  0  0  0  0  0  0
  148.1261  137.4611  155.6710 H   0  0  0  0  0  0  0  0  0  0  0  0
  149.8629  143.6398  156.3983 H   0  0  0  0  0  0  0  0  0  0  0  0
  1  2  1  0  0  0  0
  1 23  1  0  0  0  0
  2  3  1  0  0  0  0
  2 24  1  0  0  0  0
  2 25  1  0  0  0  0
  3  4  1  0  0  0  0
  3 26  1  0  0  0  0
  3 27  1  0  0  0  0
  4  5  1  0  0  0  0
  4 28  1  0  0  0  0
  4 29  1  0  0  0  0
  5 13  1  0  0  0  0
  5  6  2  0  0  0  0
  6  7  1  0  0  0  0
  6 43  1  0  0  0  0
  7 12  2  0  0  0  0
  7  8  1  0  0  0  0
  8  9  2  0  0  0  0
  8 30  1  0  0  0  0
  9 10  1  0  0  0  0
  9 31  1  0  0  0  0
 10 11  2  0  0  0  0
 10 32  1  0  0  0  0
 11 12  1  0  0  0  0
 11 33  1  0  0  0  0
 12 13  1  0  0  0  0
 13 14  1  0  0  0  0
 14 15  1  0  0  0  0
 14 34  1  0  0  0  0
 14 35  1  0  0  0  0
 15 16  1  0  0  0  0
 15 36  1  0  0  0  0
 15 37  1  0  0  0  0
 16 17  1  0  0  0  0
 17 22  1  0  0  0  0
 17 18  2  0  0  0  0
 18 19  1  0  0  0  0
 18 38  1  0  0  0  0
 19 20  2  0  0  0  0
 19 39  1  0  0  0  0
 20 21  1  0  0  0  0
 20 40  1  0  0  0  0
 21 22  2  0  0  0  0
 21 41  1  0  0  0  0
 22 42  1  0  0  0  0
M  CHG  1   6   1
M  END
> <s_m_source_file>
AV-unprocessed.smi

> <i_m_source_file_index>
1349

> <i_lp_mmshare_version>
43012

> <i_f3d_flags>
0

> <s_epik_input>
W09IXVtDSDJdW0NIMl1bQ0gyXWMobjEpbihjKGMxMilbY0hdW2NIXVtjSF1bY0hdMilbQ0gyXVtDSDJdT2MzW2NIXVtjSF1bY0hdW2NIXVtjSF0z

> <s_epik_cmdline>
J2VwaWtfcHl0aG9uJywgJy1waCcsICc3LjAnLCAnLXRuJywgJzgnLCAnLW1hJywgJzIwMCcsICctbWV0YWxfYmluZGluZycsICctaW1hZScsICc8aW5maWxlLm1hZT4nLCAnLW9tYWUnLCAnPG91dGZpbGUubWFlPic=

> <r_lp_tautomer_probability>
1

> <r_epik_Ionization_Penalty>
0.856072

> <r_epik_Ionization_Penalty_Charging>
0.856072

> <r_epik_Ionization_Penalty_Neutral>
1.64909e-07

> <r_epik_State_Penalty>
0.892118

> <r_epik_Charging_Adjusted_Penalty>
1.74819

> <i_epik_Tot_Q>
1

> <i_epik_Tot_abs_Q>
1

> <r_epik_Metal_State_Penalty>
4.83641

> <b_epik_Metal_Only>
0

> <s_lp_Force_Field>
OPLS_2005

> <r_lp_Energy>
19.1857

> <b_lp_Chiralities_Consistent>
1

> <s_lp_Variant>
AV-unprocessed.smi:1349-2

> <Gold.Version>
5.8.1

> <Gold.Id.Protein>
6NUR|6NUR_protein|mol2

> <Gold.PLP.Fitness>
51.4557

> <Gold.PLP.PLP>
-42.8069

> <Gold.PLP.part.hbond>
-2.0000

> <Gold.PLP.part.metal>
0.0000

> <Gold.PLP.part.buried>
-5.4269

> <Gold.PLP.part.nonpolar>
-35.3285

> <Gold.PLP.part.repulsive>
0.1247

> <Gold.PLP.ligand.clash>
0.0000

> <Gold.PLP.ligand.torsion>
0.2114

> <Gold.PLP.Chemscore.Hbond>
3.0000

> <Gold.PLP.Chemscore.CHOScore>
0.0000

> <Gold.PLP.Chemscore.Metal>
0.0000

> <Gold.Chemscore.Hbonds>
donor molecule, donor type, donor heavy atom, donor atom, acceptor molecule, acceptor atom, score
      L1  H     1    23       P1 10175  1.00
      L1  H     6    43       P1  8028  2.00

> <Gold.PLP.Chemscore.Internal.Correction>
0.0716

> <Gold.Rescore>
     Score         DG    S(hbond)    S(metal)    S(lipo)     H(rot)  DE(clash)    DE(int)     intcor
     18.88     -19.23       1.94        0.00     117.20       2.51       0.15       0.20       ----

> <Gold.Chemscore.Fitness>
18.8793

> <Gold.Chemscore.DG>
-19.2276

> <Gold.Chemscore.ZeroCoef>
-5.4800

> <Gold.Chemscore.Hbond>
1.9359

> <Gold.Chemscore.Metal>
0.0000

> <Gold.Chemscore.Lipo>
117.2042

> <Gold.Chemscore.Internal_Hbond>
0.0000

> <Gold.Chemscore.DEClash>
0.1481

> <Gold.Chemscore.DEInternal>
0.2002

> <Gold.Chemscore.Rot>
2.5123

> <Gold.Chemscore.Internal.Correction>
   9.000000E+99

> <Gold.Chemscore.Hbonds>
donor molecule, donor type, donor heavy atom, donor atom, acceptor molecule, acceptor atom, score
      L1  H     1    23       P1 10175  0.37
      L1  H     6    43       P1  8028  0.99

> <Gold.Chemscore.Hbond.Weighted>
-6.4661

> <Gold.Chemscore.Metal.Weighted>
-0.0000

> <Gold.Chemscore.Lipo.Weighted>
-13.7129

> <Gold.Chemscore.Internal_Hbond.Weighted>
0.0000

> <Gold.Chemscore.DEClash.Weighted>
0.1481

> <Gold.Chemscore.DEInternal.Weighted>
0.2002

> <Gold.Chemscore.Rot.Weighted>
6.4314

> <Gold.Chemscore.Internal.Correction.Weighted>
   9.000000E+99

> <Gold.Protein.RotatedTorsions>
[ 6907 6896 6895 6894 ] final   61.29 input  -60.11 | X-H torsion
[ 7974 7965 7964 7962 ] final  154.87 input  175.53 | X-H torsion
[ 8008 7997 7996 7995 ] final -163.01 input   59.86 | X-H torsion
[ 10167 10162 10161 10158 ] final   48.07 input  -65.29 | X-H torsion
[ 10718 10713 10712 10709 ] final  123.52 input   66.30 | X-H torsion
[ 10763 10752 10751 10750 ] final -166.11 input  -60.55 | X-H torsion
[ 11005 11000 10999 10996 ] final  174.28 input  -57.11 | X-H torsion

> <Gold.Protein.ActiveResidues>
 VAL166  LYS551  ARG553  GLY616  TRP617  ASP618  TYR619  PRO620  LYS621  CYS622 
 ASP623  PHE694  ASN695  SER759  ASP760  ASP761  ALA762  ILE779  LEU786  VAL792 
 PHE793  MET794  SER795  GLU796  ALA797  LYS798  CYS799  TRP800  GLU811  SER814 

> <Gold.Protein.RotatedAtoms>
  152.4076  134.6180  160.0043 H   0  0  0  0  0  0  0  0  0  0  0  0  # atno 6907 bound_to 6896
  151.6367  133.3323  159.3129 H   0  0  0  0  0  0  0  0  0  0  0  0  # atno 6908 bound_to 6896
  150.7969  134.7077  159.6631 H   0  0  0  0  0  0  0  0  0  0  0  0  # atno 6909 bound_to 6896
  144.8061  139.6992  143.6161 H   0  0  0  0  0  0  0  0  0  0  0  0  # atno 7974 bound_to 7965
  155.8152  140.0911  157.1881 H   0  0  0  0  0  0  0  0  0  0  0  0  # atno 8008 bound_to 7997
  154.3979  140.1447  156.3493 H   0  0  0  0  0  0  0  0  0  0  0  0  # atno 8009 bound_to 7997
  155.8324  140.3442  155.5583 H   0  0  0  0  0  0  0  0  0  0  0  0  # atno 8010 bound_to 7997
  140.2971  144.2978  150.6227 H   0  0  0  0  0  0  0  0  0  0  0  0  # atno 10167 bound_to 10162
  157.5658  131.1086  150.8456 H   0  0  0  0  0  0  0  0  0  0  0  0  # atno 10718 bound_to 10713
  154.6865  135.2963  154.9540 H   0  0  0  0  0  0  0  0  0  0  0  0  # atno 10763 bound_to 10752
  154.0517  135.6643  153.4805 H   0  0  0  0  0  0  0  0  0  0  0  0  # atno 10764 bound_to 10752
  153.0583  135.5131  154.7935 H   0  0  0  0  0  0  0  0  0  0  0  0  # atno 10765 bound_to 10752
  140.3496  134.7206  157.4259 H   0  0  0  0  0  0  0  0  0  0  0  0  # atno 11005 bound_to 11000
  146.2352  139.5891  142.9528 LP  0  0  0  0  0  0  0  0  0  0  0  0  # atno 17320 bound_to 7965
  145.5436  141.0419  143.2317 LP  0  0  0  0  0  0  0  0  0  0  0  0  # atno 17321 bound_to 7965
  140.5683  143.2183  151.7644 LP  0  0  0  0  0  0  0  0  0  0  0  0  # atno 17342 bound_to 10162
  139.4924  144.4253  151.9933 LP  0  0  0  0  0  0  0  0  0  0  0  0  # atno 17343 bound_to 10162
  156.8941  130.5223  149.5285 LP  0  0  0  0  0  0  0  0  0  0  0  0  # atno 17370 bound_to 10713
  156.0707  130.5740  150.9377 LP  0  0  0  0  0  0  0  0  0  0  0  0  # atno 17371 bound_to 10713
  140.0714  134.5858  155.8638 LP  0  0  0  0  0  0  0  0  0  0  0  0  # atno 17394 bound_to 11000
  141.2016  133.6619  156.5958 LP  0  0  0  0  0  0  0  0  0  0  0  0  # atno 17395 bound_to 11000

$$$$
