AV-unprocessed.smi:3028|AV-procd|sdf|11523|dock5
  -GOLD-   2272016463D 1   1.00000     0.00000
 Structure written by MMmdl.
 47 48  0  0  0  0  0  0  0  0  1 V2000
  151.2453  142.8943  157.9253 C   0  0  0  0  0  0  0  0  0  0  0  0
  151.1375  141.7461  156.9638 C   0  0  0  0  0  0  0  0  0  0  0  0
  150.4465  141.7104  155.7200 C   0  0  0  0  0  0  0  0  0  0  0  0
  150.5455  140.5405  155.1120 N   0  0  0  0  0  0  0  0  0  0  0  0
  151.3075  139.7869  155.9373 N   0  0  0  0  0  0  0  0  0  0  0  0
  151.6201  138.3990  155.6037 C   0  0  2  0  0  0  0  0  0  0  0  0
  152.4571  138.2917  154.3148 C   0  0  0  0  0  0  0  0  0  0  0  0
  150.3784  137.4611  155.6362 C   0  0  1  0  0  0  0  0  0  0  0  0
  150.6368  136.1273  154.9148 C   0  0  0  0  0  0  0  0  0  0  0  0
  149.9758  137.1283  156.9999 N   0  0  0  0  0  0  0  0  0  0  0  0
  148.8476  136.1898  157.0645 C   0  0  0  0  0  0  0  0  0  0  0  0
  148.8429  135.3552  158.3551 C   0  0  0  0  0  0  0  0  0  0  0  0
  149.1643  134.1677  158.3291 O   0  0  0  0  0  0  0  0  0  0  0  0
  148.4899  135.9405  159.5118 N   0  0  0  0  0  0  0  0  0  0  0  0
  148.4196  135.3327  160.8388 C   0  0  0  0  0  0  0  0  0  0  0  0
  147.4261  134.1617  160.8158 C   0  0  0  0  0  0  0  0  0  0  0  0
  147.2113  133.6024  162.2317 C   0  0  0  0  0  0  0  0  0  0  0  0
  146.7671  134.6382  163.1014 O   0  0  0  0  0  0  0  0  0  0  0  0
  147.7166  135.6896  163.2426 C   0  0  0  0  0  0  0  0  0  0  0  0
  147.9629  136.3646  161.8836 C   0  0  0  0  0  0  0  0  0  0  0  0
  151.6705  140.4924  157.0664 C   0  0  0  0  0  0  0  0  0  0  0  0
  150.4160  143.5934  157.8150 H   0  0  0  0  0  0  0  0  0  0  0  0
  152.1649  143.4597  157.7732 H   0  0  0  0  0  0  0  0  0  0  0  0
  151.2429  142.5553  158.9614 H   0  0  0  0  0  0  0  0  0  0  0  0
  149.8772  142.4955  155.2444 H   0  0  0  0  0  0  0  0  0  0  0  0
  152.2797  138.0462  156.3978 H   0  0  0  0  0  0  0  0  0  0  0  0
  152.7190  137.2549  154.1026 H   0  0  0  0  0  0  0  0  0  0  0  0
  153.3879  138.8514  154.4103 H   0  0  0  0  0  0  0  0  0  0  0  0
  151.9294  138.6872  153.4472 H   0  0  0  0  0  0  0  0  0  0  0  0
  149.5545  137.9486  155.1120 H   0  0  0  0  0  0  0  0  0  0  0  0
  150.9530  136.2935  153.8848 H   0  0  0  0  0  0  0  0  0  0  0  0
  149.7329  135.5178  154.8830 H   0  0  0  0  0  0  0  0  0  0  0  0
  151.4110  135.5388  155.4084 H   0  0  0  0  0  0  0  0  0  0  0  0
  149.7838  137.9828  157.5051 H   0  0  0  0  0  0  0  0  0  0  0  0
  147.9095  136.7381  157.0012 H   0  0  0  0  0  0  0  0  0  0  0  0
  148.8933  135.5173  156.2073 H   0  0  0  0  0  0  0  0  0  0  0  0
  148.2466  136.9195  159.4642 H   0  0  0  0  0  0  0  0  0  0  0  0
  149.3915  134.9350  161.1322 H   0  0  0  0  0  0  0  0  0  0  0  0
  146.4677  134.4945  160.4141 H   0  0  0  0  0  0  0  0  0  0  0  0
  147.7856  133.3736  160.1533 H   0  0  0  0  0  0  0  0  0  0  0  0
  146.4597  132.8132  162.2117 H   0  0  0  0  0  0  0  0  0  0  0  0
  148.1297  133.1574  162.6179 H   0  0  0  0  0  0  0  0  0  0  0  0
  147.3313  136.4173  163.9571 H   0  0  0  0  0  0  0  0  0  0  0  0
  148.6476  135.2998  163.6571 H   0  0  0  0  0  0  0  0  0  0  0  0
  148.7044  137.1565  161.9910 H   0  0  0  0  0  0  0  0  0  0  0  0
  147.0409  136.8446  161.5518 H   0  0  0  0  0  0  0  0  0  0  0  0
  152.2727  140.0470  157.8445 H   0  0  0  0  0  0  0  0  0  0  0  0
  1  2  1  0  0  0  0
  1 22  1  0  0  0  0
  1 23  1  0  0  0  0
  1 24  1  0  0  0  0
  2 21  2  0  0  0  0
  2  3  1  0  0  0  0
  3  4  2  0  0  0  0
  3 25  1  0  0  0  0
  4  5  1  0  0  0  0
  5  6  1  0  0  0  0
  5 21  1  0  0  0  0
  6  7  1  0  0  0  0
  6  8  1  0  0  0  0
  6 26  1  0  0  0  0
  7 27  1  0  0  0  0
  7 28  1  0  0  0  0
  7 29  1  0  0  0  0
  8  9  1  0  0  0  0
  8 10  1  0  0  0  0
  8 30  1  0  0  0  0
  9 31  1  0  0  0  0
  9 32  1  0  0  0  0
  9 33  1  0  0  0  0
 10 11  1  0  0  0  0
 10 34  1  0  0  0  0
 11 12  1  0  0  0  0
 11 35  1  0  0  0  0
 11 36  1  0  0  0  0
 12 13  2  0  0  0  0
 12 14  1  0  0  0  0
 14 15  1  0  0  0  0
 14 37  1  0  0  0  0
 15 20  1  0  0  0  0
 15 16  1  0  0  0  0
 15 38  1  0  0  0  0
 16 17  1  0  0  0  0
 16 39  1  0  0  0  0
 16 40  1  0  0  0  0
 17 18  1  0  0  0  0
 17 41  1  0  0  0  0
 17 42  1  0  0  0  0
 18 19  1  0  0  0  0
 19 20  1  0  0  0  0
 19 43  1  0  0  0  0
 19 44  1  0  0  0  0
 20 45  1  0  0  0  0
 20 46  1  0  0  0  0
 21 47  1  0  0  0  0
M  END
> <s_m_source_file>
AV-unprocessed.smi

> <i_m_source_file_index>
3028

> <i_lp_mmshare_version>
43012

> <i_f3d_flags>
0

> <s_epik_input>
W0NIM11jMVtjSF1ubihbY0hdMSlbQ0BIXShbQ0gzXSlbQ0BIXShbQ0gzXSlbTkhdW0NIMl1DKD1PKVtOSF1bQ0hdMltDSDJdW0NIMl1PW0NIMl1bQ0gyXTI=

> <s_epik_cmdline>
J2VwaWtfcHl0aG9uJywgJy1waCcsICc3LjAnLCAnLXRuJywgJzgnLCAnLW1hJywgJzIwMCcsICctbWV0YWxfYmluZGluZycsICctaW1hZScsICc8aW5maWxlLm1hZT4nLCAnLW9tYWUnLCAnPG91dGZpbGUubWFlPic=

> <r_lp_tautomer_probability>
1

> <r_epik_Ionization_Penalty>
0.88617

> <r_epik_Ionization_Penalty_Charging>
0

> <r_epik_Ionization_Penalty_Neutral>
0.88617

> <r_epik_State_Penalty>
0.921066

> <r_epik_Charging_Adjusted_Penalty>
0.921066

> <i_epik_Tot_Q>
0

> <i_epik_Tot_abs_Q>
0

> <r_epik_Metal_State_Penalty>
0.917309

> <b_epik_Metal_Only>
0

> <s_lp_Force_Field>
OPLS_2005

> <r_lp_Energy>
19.7658

> <b_lp_Chiralities_Consistent>
1

> <s_lp_Variant>
AV-unprocessed.smi:3028-7

> <Gold.Version>
5.8.1

> <Gold.Id.Protein>
6NUR|6NUR_protein|mol2

> <Gold.PLP.Fitness>
45.1891

> <Gold.PLP.PLP>
-37.5809

> <Gold.PLP.part.hbond>
-2.3954

> <Gold.PLP.part.metal>
0.0000

> <Gold.PLP.part.buried>
-5.6627

> <Gold.PLP.part.nonpolar>
-29.8799

> <Gold.PLP.part.repulsive>
0.2114

> <Gold.PLP.ligand.clash>
0.0000

> <Gold.PLP.ligand.torsion>
0.8229

> <Gold.PLP.Chemscore.Hbond>
1.9920

> <Gold.PLP.Chemscore.CHOScore>
1.0000

> <Gold.PLP.Chemscore.Metal>
0.0000

> <Gold.Chemscore.Hbonds>
donor molecule, donor type, donor heavy atom, donor atom, acceptor molecule, acceptor atom, score
      P1  H  6896  6909       L1    13  1.00
      P1  H  7989  7998       L1     4  0.98
      L1  C     3    25       P1  8028  1.00

> <Gold.PLP.Chemscore.Internal.Correction>
0.2779

> <Gold.Rescore>
     Score         DG    S(hbond)    S(metal)    S(lipo)     H(rot)  DE(clash)    DE(int)     intcor
     16.18     -17.12       1.66        0.00      94.13       1.92       0.02       0.92       ----

> <Gold.Chemscore.Fitness>
16.1810

> <Gold.Chemscore.DG>
-17.1207

> <Gold.Chemscore.ZeroCoef>
-5.4800

> <Gold.Chemscore.Hbond>
1.6621

> <Gold.Chemscore.Metal>
0.0000

> <Gold.Chemscore.Lipo>
94.1258

> <Gold.Chemscore.Internal_Hbond>
0.0000

> <Gold.Chemscore.DEClash>
0.0162

> <Gold.Chemscore.DEInternal>
0.9235

> <Gold.Chemscore.Rot>
1.9233

> <Gold.Chemscore.Internal.Correction>
   9.000000E+99

> <Gold.Chemscore.Hbonds>
donor molecule, donor type, donor heavy atom, donor atom, acceptor molecule, acceptor atom, score
      P1  H  6896  6909       L1    13  0.40
      P1  H  7989  7998       L1     4  0.28

> <Gold.Chemscore.Hbond.Weighted>
-5.5516

> <Gold.Chemscore.Metal.Weighted>
-0.0000

> <Gold.Chemscore.Lipo.Weighted>
-11.0127

> <Gold.Chemscore.Internal_Hbond.Weighted>
0.0000

> <Gold.Chemscore.DEClash.Weighted>
0.0162

> <Gold.Chemscore.DEInternal.Weighted>
0.9235

> <Gold.Chemscore.Rot.Weighted>
4.9235

> <Gold.Chemscore.Internal.Correction.Weighted>
   9.000000E+99

> <Gold.Protein.RotatedTorsions>
[ 6907 6896 6895 6894 ] final   22.17 input  -60.11 | X-H torsion
[ 7974 7965 7964 7962 ] final   84.40 input  175.53 | X-H torsion
[ 8008 7997 7996 7995 ] final  127.11 input   59.86 | X-H torsion
[ 10167 10162 10161 10158 ] final -139.52 input  -65.29 | X-H torsion
[ 10718 10713 10712 10709 ] final   19.79 input   66.30 | X-H torsion
[ 10763 10752 10751 10750 ] final  -78.14 input  -60.55 | X-H torsion
[ 11005 11000 10999 10996 ] final   41.86 input  -57.11 | X-H torsion

> <Gold.Protein.ActiveResidues>
 VAL166  LYS551  ARG553  GLY616  TRP617  ASP618  TYR619  PRO620  LYS621  CYS622 
 ASP623  PHE694  ASN695  SER759  ASP760  ASP761  ALA762  ILE779  LEU786  VAL792 
 PHE793  MET794  SER795  GLU796  ALA797  LYS798  CYS799  TRP800  GLU811  SER814 

> <Gold.Protein.RotatedAtoms>
  151.9230  135.0290  160.0523 H   0  0  0  0  0  0  0  0  0  0  0  0  # atno 6907 bound_to 6896
  152.2183  133.4959  159.5157 H   0  0  0  0  0  0  0  0  0  0  0  0  # atno 6908 bound_to 6896
  150.6993  134.1292  159.4106 H   0  0  0  0  0  0  0  0  0  0  0  0  # atno 6909 bound_to 6896
  145.5992  139.2350  143.2255 H   0  0  0  0  0  0  0  0  0  0  0  0  # atno 7974 bound_to 7965
  156.2882  140.2676  156.2220 H   0  0  0  0  0  0  0  0  0  0  0  0  # atno 8008 bound_to 7997
  155.0158  140.0387  157.2436 H   0  0  0  0  0  0  0  0  0  0  0  0  # atno 8009 bound_to 7997
  154.7478  140.2737  155.6323 H   0  0  0  0  0  0  0  0  0  0  0  0  # atno 8010 bound_to 7997
  139.8372  143.7370  152.2664 H   0  0  0  0  0  0  0  0  0  0  0  0  # atno 10167 bound_to 10162
  157.1154  130.6527  149.5909 H   0  0  0  0  0  0  0  0  0  0  0  0  # atno 10718 bound_to 10713
  154.5221  135.5740  153.6689 H   0  0  0  0  0  0  0  0  0  0  0  0  # atno 10763 bound_to 10752
  152.9919  135.6184  154.2741 H   0  0  0  0  0  0  0  0  0  0  0  0  # atno 10764 bound_to 10752
  154.2662  135.2854  155.2737 H   0  0  0  0  0  0  0  0  0  0  0  0  # atno 10765 bound_to 10752
  140.1794  134.4123  155.8209 H   0  0  0  0  0  0  0  0  0  0  0  0  # atno 11005 bound_to 11000
  146.1589  140.6817  142.9287 LP  0  0  0  0  0  0  0  0  0  0  0  0  # atno 17320 bound_to 7965
  144.7317  140.4691  143.6933 LP  0  0  0  0  0  0  0  0  0  0  0  0  # atno 17321 bound_to 7965
  139.7595  144.7510  151.0385 LP  0  0  0  0  0  0  0  0  0  0  0  0  # atno 17342 bound_to 10162
  140.7801  143.4767  151.0073 LP  0  0  0  0  0  0  0  0  0  0  0  0  # atno 17343 bound_to 10162
  155.9840  130.4863  150.6964 LP  0  0  0  0  0  0  0  0  0  0  0  0  # atno 17370 bound_to 10713
  157.4523  131.0874  151.0833 LP  0  0  0  0  0  0  0  0  0  0  0  0  # atno 17371 bound_to 10713
  141.2222  133.6993  156.7903 LP  0  0  0  0  0  0  0  0  0  0  0  0  # atno 17394 bound_to 11000
  140.2285  134.8703  157.3452 LP  0  0  0  0  0  0  0  0  0  0  0  0  # atno 17395 bound_to 11000

$$$$
