AV-unprocessed.smi:243|AV-procd|sdf|1862|dock6
  -GOLD-   2262020493D 1   1.00000     0.00000
 Structure written by MMmdl.
 58 61  0  0  0  0  0  0  0  0  2 V2000
  146.0957  128.3956  151.9739 C   0  0  0  0  0  0  0  0  0  0  0  0
  146.5808  129.4561  152.9733 C   0  0  0  0  0  0  0  0  0  0  0  0
  146.8266  130.7745  152.3354 N   0  3  2  0  0  0  0  0  0  0  0  0
  147.5622  131.7182  153.2139 C   0  0  0  0  0  0  0  0  0  0  0  0
  147.8959  133.0312  152.4793 C   0  0  0  0  0  0  0  0  0  0  0  0
  146.6745  133.7211  151.8315 C   0  0  2  0  0  0  0  0  0  0  0  0
  145.9200  134.6071  152.7387 N   0  0  0  0  0  0  0  0  0  0  0  0
  145.2203  134.0414  153.8879 C   0  0  0  0  0  0  0  0  0  0  0  0
  146.2716  135.9028  152.8992 C   0  0  0  0  0  0  0  0  0  0  0  0
  145.7293  136.8459  152.0868 N   0  0  0  0  0  0  0  0  0  0  0  0
  146.0664  138.1305  152.2348 C   0  0  0  0  0  0  0  0  0  0  0  0
  146.9168  138.6746  153.1078 N   0  0  0  0  0  0  0  0  0  0  0  0
  147.4886  137.7245  153.9020 C   0  0  0  0  0  0  0  0  0  0  0  0
  147.2291  136.3262  153.8599 C   0  0  0  0  0  0  0  0  0  0  0  0
  147.9960  135.6709  154.8143 N   0  0  0  0  0  0  0  0  0  0  0  0
  148.6638  136.6291  155.3965 C   0  0  0  0  0  0  0  0  0  0  0  0
  148.4236  137.8938  154.9080 N   0  0  0  0  0  0  0  0  0  0  0  0
  149.0260  139.1356  155.3680 C   0  0  0  0  0  0  0  0  0  0  0  0
  150.3728  139.4592  154.6805 C   0  0  2  0  0  0  0  0  0  0  0  0
  150.1213  140.1687  153.4800 O   0  0  0  0  0  0  0  0  0  0  0  0
  151.2162  138.2307  154.3491 C   0  0  0  0  0  0  0  0  0  0  0  0
  152.6410  138.7439  154.5035 C   0  0  0  0  0  0  0  0  0  0  0  0
  152.5417  139.5850  155.6394 O   0  0  0  0  0  0  0  0  0  0  0  0
  151.3160  140.3050  155.5594 C   0  0  0  0  0  0  0  0  0  0  0  0
  145.8545  132.6756  151.0214 C   0  0  2  0  0  0  0  0  0  0  0  0
  144.5863  133.2218  150.3465 C   0  0  0  0  0  0  0  0  0  0  0  0
  145.5761  131.3785  151.8101 C   0  0  0  0  0  0  0  0  0  0  0  0
  145.8330  127.4736  152.4931 H   0  0  0  0  0  0  0  0  0  0  0  0
  146.8591  128.1428  151.2388 H   0  0  0  0  0  0  0  0  0  0  0  0
  145.2090  128.7354  151.4380 H   0  0  0  0  0  0  0  0  0  0  0  0
  145.8100  129.5656  153.7373 H   0  0  0  0  0  0  0  0  0  0  0  0
  147.4796  129.1166  153.4905 H   0  0  0  0  0  0  0  0  0  0  0  0
  146.9763  131.8991  154.1127 H   0  0  0  0  0  0  0  0  0  0  0  0
  148.4964  131.2687  153.5476 H   0  0  0  0  0  0  0  0  0  0  0  0
  148.4229  133.7203  153.1387 H   0  0  0  0  0  0  0  0  0  0  0  0
  148.6075  132.7939  151.6873 H   0  0  0  0  0  0  0  0  0  0  0  0
  147.0926  134.4089  151.0955 H   0  0  0  0  0  0  0  0  0  0  0  0
  145.8179  134.0987  154.7974 H   0  0  0  0  0  0  0  0  0  0  0  0
  144.9657  132.9955  153.7165 H   0  0  0  0  0  0  0  0  0  0  0  0
  144.2903  134.5836  154.0625 H   0  0  0  0  0  0  0  0  0  0  0  0
  145.5865  138.8213  151.5572 H   0  0  0  0  0  0  0  0  0  0  0  0
  149.3567  136.4368  156.2028 H   0  0  0  0  0  0  0  0  0  0  0  0
  148.3139  139.9461  155.2062 H   0  0  0  0  0  0  0  0  0  0  0  0
  149.1647  139.0633  156.4475 H   0  0  0  0  0  0  0  0  0  0  0  0
  150.0244  139.5445  152.7773 H   0  0  0  0  0  0  0  0  0  0  0  0
  151.0473  137.4462  155.0880 H   0  0  0  0  0  0  0  0  0  0  0  0
  151.0140  137.8081  153.3638 H   0  0  0  0  0  0  0  0  0  0  0  0
  153.3651  137.9434  154.6558 H   0  0  0  0  0  0  0  0  0  0  0  0
  152.9463  139.3290  153.6346 H   0  0  0  0  0  0  0  0  0  0  0  0
  151.5013  141.2917  155.1317 H   0  0  0  0  0  0  0  0  0  0  0  0
  150.9237  140.4558  156.5656 H   0  0  0  0  0  0  0  0  0  0  0  0
  146.5073  132.3782  150.1990 H   0  0  0  0  0  0  0  0  0  0  0  0
  143.8086  133.4499  151.0748 H   0  0  0  0  0  0  0  0  0  0  0  0
  144.1714  132.4915  149.6514 H   0  0  0  0  0  0  0  0  0  0  0  0
  144.7990  134.1270  149.7775 H   0  0  0  0  0  0  0  0  0  0  0  0
  145.0926  130.6626  151.1441 H   0  0  0  0  0  0  0  0  0  0  0  0
  144.8798  131.5475  152.6286 H   0  0  0  0  0  0  0  0  0  0  0  0
  147.4132  130.6000  151.5318 H   0  0  0  0  0  0  0  0  0  0  0  0
  1  2  1  0  0  0  0
  1 28  1  0  0  0  0
  1 29  1  0  0  0  0
  1 30  1  0  0  0  0
  2  3  1  0  0  0  0
  2 31  1  0  0  0  0
  2 32  1  0  0  0  0
  3 27  1  0  0  0  0
  3  4  1  0  0  0  0
  3 58  1  0  0  0  0
  4  5  1  0  0  0  0
  4 33  1  0  0  0  0
  4 34  1  0  0  0  0
  5  6  1  0  0  0  0
  5 35  1  0  0  0  0
  5 36  1  0  0  0  0
  6  7  1  0  0  0  0
  6 25  1  0  0  0  0
  6 37  1  0  0  0  0
  7  8  1  0  0  0  0
  7  9  1  0  0  0  0
  8 38  1  0  0  0  0
  8 39  1  0  0  0  0
  8 40  1  0  0  0  0
  9 14  1  0  0  0  0
  9 10  2  0  0  0  0
 10 11  1  0  0  0  0
 11 12  2  0  0  0  0
 11 41  1  0  0  0  0
 12 13  1  0  0  0  0
 13 17  1  0  0  0  0
 13 14  2  0  0  0  0
 14 15  1  0  0  0  0
 15 16  2  0  0  0  0
 16 17  1  0  0  0  0
 16 42  1  0  0  0  0
 17 18  1  0  0  0  0
 18 19  1  0  0  0  0
 18 43  1  0  0  0  0
 18 44  1  0  0  0  0
 19 24  1  0  0  0  0
 19 20  1  0  0  0  0
 19 21  1  0  0  0  0
 20 45  1  0  0  0  0
 21 22  1  0  0  0  0
 21 46  1  0  0  0  0
 21 47  1  0  0  0  0
 22 23  1  0  0  0  0
 22 48  1  0  0  0  0
 22 49  1  0  0  0  0
 23 24  1  0  0  0  0
 24 50  1  0  0  0  0
 24 51  1  0  0  0  0
 25 26  1  0  0  0  0
 25 27  1  0  0  0  0
 25 52  1  0  0  0  0
 26 53  1  0  0  0  0
 26 54  1  0  0  0  0
 26 55  1  0  0  0  0
 27 56  1  0  0  0  0
 27 57  1  0  0  0  0
M  CHG  1   3   1
M  END
> <s_m_source_file>
AV-unprocessed.smi

> <i_m_source_file_index>
243

> <i_lp_mmshare_version>
43012

> <i_f3d_flags>
0

> <s_epik_input>
W0NIM11bQ0gyXU4xW0NIMl1bQ0gyXVtDQEhdKFtDQEBIXShbQ0gzXSlbQ0gyXTEpTihbQ0gzXSljKG5bY0hdbjIpYyhjMjMpbltjSF1uM1tDSDJdW0NAQF00KFtPSF0pW0NIMl1bQ0gyXU9bQ0gyXTQ=

> <s_epik_cmdline>
J2VwaWtfcHl0aG9uJywgJy1waCcsICc3LjAnLCAnLXRuJywgJzgnLCAnLW1hJywgJzIwMCcsICctbWV0YWxfYmluZGluZycsICctaW1hZScsICc8aW5maWxlLm1hZT4nLCAnLW9tYWUnLCAnPG91dGZpbGUubWFlPic=

> <r_lp_tautomer_probability>
1

> <r_epik_Ionization_Penalty>
0.00253099

> <r_epik_Ionization_Penalty_Charging>
0.00137877

> <r_epik_Ionization_Penalty_Neutral>
0.00115221

> <r_epik_State_Penalty>
-0

> <r_epik_Charging_Adjusted_Penalty>
0.00137877

> <i_epik_Tot_Q>
1

> <i_epik_Tot_abs_Q>
1

> <r_epik_Metal_State_Penalty>
-0

> <b_epik_Metal_Only>
0

> <s_lp_Force_Field>
OPLS_2005

> <r_lp_Energy>
52.4668

> <b_lp_Chiralities_Consistent>
1

> <s_lp_Variant>
AV-unprocessed.smi:243-15

> <Gold.Version>
5.8.1

> <Gold.Id.Protein>
6NUR|6NUR_protein|mol2

> <Gold.PLP.Fitness>
49.4510

> <Gold.PLP.PLP>
-38.8666

> <Gold.PLP.part.hbond>
-4.0000

> <Gold.PLP.part.metal>
0.0000

> <Gold.PLP.part.buried>
-1.8494

> <Gold.PLP.part.nonpolar>
-34.4518

> <Gold.PLP.part.repulsive>
0.5129

> <Gold.PLP.ligand.clash>
0.0000

> <Gold.PLP.ligand.torsion>
2.6121

> <Gold.PLP.Chemscore.Hbond>
3.3760

> <Gold.PLP.Chemscore.CHOScore>
1.5744

> <Gold.PLP.Chemscore.Metal>
0.0000

> <Gold.Chemscore.Hbonds>
donor molecule, donor type, donor heavy atom, donor atom, acceptor molecule, acceptor atom, score
      L1  H     3    58       P1 10747  1.00
      L1  H    20    45       P1  7957  0.45
      P1  H  7989  7998       L1    20  0.44
      P1  H  7997  8009       L1    23  1.00
      L1  C    11    41       P1 10171  1.00
      L1  C    11    41       P1 10175  0.55

> <Gold.PLP.Chemscore.Internal.Correction>
0.9574

> <Gold.Rescore>
     Score         DG    S(hbond)    S(metal)    S(lipo)     H(rot)  DE(clash)    DE(int)     intcor
     14.97     -20.16       2.67        0.00      98.20       2.24       2.48       2.70       ----

> <Gold.Chemscore.Fitness>
14.9723

> <Gold.Chemscore.DG>
-20.1555

> <Gold.Chemscore.ZeroCoef>
-5.4800

> <Gold.Chemscore.Hbond>
2.6692

> <Gold.Chemscore.Metal>
0.0000

> <Gold.Chemscore.Lipo>
98.2003

> <Gold.Chemscore.Internal_Hbond>
0.0000

> <Gold.Chemscore.DEClash>
2.4835

> <Gold.Chemscore.DEInternal>
2.6997

> <Gold.Chemscore.Rot>
2.2379

> <Gold.Chemscore.Internal.Correction>
   9.000000E+99

> <Gold.Chemscore.Hbonds>
donor molecule, donor type, donor heavy atom, donor atom, acceptor molecule, acceptor atom, score
      L1  H     3    58       P1 10747  0.94
      L1  H    20    45       P1  7957  0.43
      P1  H  7989  7998       L1    20  0.04
      P1  H  7997  8009       L1    23  0.69

> <Gold.Chemscore.Hbond.Weighted>
-8.9152

> <Gold.Chemscore.Metal.Weighted>
-0.0000

> <Gold.Chemscore.Lipo.Weighted>
-11.4894

> <Gold.Chemscore.Internal_Hbond.Weighted>
0.0000

> <Gold.Chemscore.DEClash.Weighted>
2.4835

> <Gold.Chemscore.DEInternal.Weighted>
2.6997

> <Gold.Chemscore.Rot.Weighted>
5.7291

> <Gold.Chemscore.Internal.Correction.Weighted>
   9.000000E+99

> <Gold.Protein.RotatedTorsions>
[ 6907 6896 6895 6894 ] final  100.63 input  -60.11 | X-H torsion
[ 7974 7965 7964 7962 ] final   -0.19 input  175.53 | X-H torsion
[ 8008 7997 7996 7995 ] final -152.86 input   59.86 | X-H torsion
[ 10167 10162 10161 10158 ] final  166.35 input  -65.29 | X-H torsion
[ 10718 10713 10712 10709 ] final  169.01 input   66.30 | X-H torsion
[ 10763 10752 10751 10750 ] final  -21.77 input  -60.55 | X-H torsion
[ 11005 11000 10999 10996 ] final   -1.25 input  -57.11 | X-H torsion

> <Gold.Protein.ActiveResidues>
 VAL166  LYS551  ARG553  GLY616  TRP617  ASP618  TYR619  PRO620  LYS621  CYS622 
 ASP623  PHE694  ASN695  SER759  ASP760  ASP761  ALA762  ILE779  LEU786  VAL792 
 PHE793  MET794  SER795  GLU796  ALA797  LYS798  CYS799  TRP800  GLU811  SER814 

> <Gold.Protein.RotatedAtoms>
  152.5368  134.0248  159.7997 H   0  0  0  0  0  0  0  0  0  0  0  0  # atno 6907 bound_to 6896
  151.0428  133.5683  159.2656 H   0  0  0  0  0  0  0  0  0  0  0  0  # atno 6908 bound_to 6896
  151.2646  135.0672  159.9165 H   0  0  0  0  0  0  0  0  0  0  0  0  # atno 6909 bound_to 6896
  146.2429  140.1233  142.8340 H   0  0  0  0  0  0  0  0  0  0  0  0  # atno 7974 bound_to 7965
  155.6618  140.0723  157.2551 H   0  0  0  0  0  0  0  0  0  0  0  0  # atno 8008 bound_to 7997
  154.4141  140.1715  156.1836 H   0  0  0  0  0  0  0  0  0  0  0  0  # atno 8009 bound_to 7997
  155.9690  140.3363  155.6562 H   0  0  0  0  0  0  0  0  0  0  0  0  # atno 8010 bound_to 7997
  139.4923  144.4037  151.9380 H   0  0  0  0  0  0  0  0  0  0  0  0  # atno 10167 bound_to 10162
  157.0288  131.0253  151.2751 H   0  0  0  0  0  0  0  0  0  0  0  0  # atno 10718 bound_to 10713
  153.6413  135.6985  153.5240 H   0  0  0  0  0  0  0  0  0  0  0  0  # atno 10763 bound_to 10752
  153.2780  135.4194  155.1051 H   0  0  0  0  0  0  0  0  0  0  0  0  # atno 10764 bound_to 10752
  154.8499  135.3595  154.5957 H   0  0  0  0  0  0  0  0  0  0  0  0  # atno 10765 bound_to 10752
  140.6452  133.9453  155.8349 H   0  0  0  0  0  0  0  0  0  0  0  0  # atno 11005 bound_to 11000
  145.0388  140.8929  143.5065 LP  0  0  0  0  0  0  0  0  0  0  0  0  # atno 17320 bound_to 7965
  145.1310  139.2632  143.5539 LP  0  0  0  0  0  0  0  0  0  0  0  0  # atno 17321 bound_to 7965
  140.3476  144.3127  150.5955 LP  0  0  0  0  0  0  0  0  0  0  0  0  # atno 17342 bound_to 10162
  140.5512  143.2206  151.7923 LP  0  0  0  0  0  0  0  0  0  0  0  0  # atno 17343 bound_to 10162
  157.5193  130.7988  149.7792 LP  0  0  0  0  0  0  0  0  0  0  0  0  # atno 17370 bound_to 10713
  156.0077  130.3848  150.2374 LP  0  0  0  0  0  0  0  0  0  0  0  0  # atno 17371 bound_to 10713
  141.0577  134.0392  157.3700 LP  0  0  0  0  0  0  0  0  0  0  0  0  # atno 17394 bound_to 11000
  139.9065  135.0181  156.7509 LP  0  0  0  0  0  0  0  0  0  0  0  0  # atno 17395 bound_to 11000

$$$$
