AV-unprocessed.smi:196|AV-procd|sdf|1532|dock3
  -GOLD-   2262019383D 1   1.00000     0.00000
 Structure written by MMmdl.
 47 50  0  0  0  0  0  0  0  0  1 V2000
  150.4637  130.8395  155.3039 C   0  0  0  0  0  0  0  0  0  0  0  0
  149.2344  131.6669  154.8974 C   0  0  2  0  0  0  0  0  0  0  0  0
  149.0692  131.5509  153.4874 O   0  0  0  0  0  0  0  0  0  0  0  0
  148.4068  132.7103  153.0167 C   0  0  0  0  0  0  0  0  0  0  0  0
  149.0931  133.8154  153.8049 C   0  0  0  0  0  0  0  0  0  0  0  0
  149.2834  133.1944  155.1883 C   0  0  1  0  0  0  0  0  0  0  0  0
  148.1467  133.5199  155.9702 O   0  0  0  0  0  0  0  0  0  0  0  0
  150.5443  133.7142  155.9284 C   0  0  0  0  0  0  0  0  0  0  0  0
  150.6816  135.1625  155.8925 N   0  0  0  0  0  0  0  0  0  0  0  0
  151.2255  135.9154  154.8754 C   0  0  0  0  0  0  0  0  0  0  0  0
  151.2343  137.2046  155.0788 N   0  0  0  0  0  0  0  0  0  0  0  0
  150.6604  137.3501  156.3350 C   0  0  0  0  0  0  0  0  0  0  0  0
  150.3628  138.4650  157.1611 C   0  0  0  0  0  0  0  0  0  0  0  0
  150.6281  139.7353  156.7767 N   0  0  0  0  0  0  0  0  0  0  0  0
  151.1396  140.6068  157.8325 C   0  0  0  0  0  0  0  0  0  0  0  0
  150.1012  141.7112  157.9969 C   0  0  1  0  0  0  0  0  0  0  0  0
  150.6225  142.8419  158.4722 F   0  0  0  0  0  0  0  0  0  0  0  0
  149.5634  141.8624  156.5819 C   0  0  0  0  0  0  0  0  0  0  0  0
  149.5307  140.4133  156.0672 C   0  0  1  0  0  0  0  0  0  0  0  0
  149.6357  140.3520  154.5325 C   0  0  0  0  0  0  0  0  0  0  0  0
  149.6459  139.1577  153.9322 N   0  0  0  0  0  0  0  0  0  0  0  0
  149.7001  141.3953  153.8863 O   0  0  0  0  0  0  0  0  0  0  0  0
  149.7928  138.2263  158.3720 N   0  0  0  0  0  0  0  0  0  0  0  0
  149.5249  136.9718  158.7472 C   0  0  0  0  0  0  0  0  0  0  0  0
  149.7399  135.8364  158.0787 N   0  0  0  0  0  0  0  0  0  0  0  0
  150.3149  136.0761  156.8653 C   0  0  0  0  0  0  0  0  0  0  0  0
  149.3076  141.3952  158.6754 H   0  0  0  0  0  0  0  0  0  0  0  0
  148.5716  139.9725  156.3471 H   0  0  0  0  0  0  0  0  0  0  0  0
  150.6329  130.8810  156.3800 H   0  0  0  0  0  0  0  0  0  0  0  0
  151.3668  131.1860  154.8011 H   0  0  0  0  0  0  0  0  0  0  0  0
  150.3253  129.7917  155.0366 H   0  0  0  0  0  0  0  0  0  0  0  0
  148.3528  131.2217  155.3629 H   0  0  0  0  0  0  0  0  0  0  0  0
  148.5175  132.8283  151.9387 H   0  0  0  0  0  0  0  0  0  0  0  0
  147.3435  132.6551  153.2553 H   0  0  0  0  0  0  0  0  0  0  0  0
  150.0625  134.0146  153.3465 H   0  0  0  0  0  0  0  0  0  0  0  0
  148.5314  134.7505  153.8112 H   0  0  0  0  0  0  0  0  0  0  0  0
  147.6005  132.7519  156.0414 H   0  0  0  0  0  0  0  0  0  0  0  0
  150.5322  133.3987  156.9725 H   0  0  0  0  0  0  0  0  0  0  0  0
  151.4466  133.2894  155.4878 H   0  0  0  0  0  0  0  0  0  0  0  0
  151.6151  135.4756  153.9686 H   0  0  0  0  0  0  0  0  0  0  0  0
  151.3379  140.0955  158.7763 H   0  0  0  0  0  0  0  0  0  0  0  0
  152.0866  141.0239  157.4874 H   0  0  0  0  0  0  0  0  0  0  0  0
  148.5839  142.3412  156.5569 H   0  0  0  0  0  0  0  0  0  0  0  0
  150.2503  142.4717  155.9911 H   0  0  0  0  0  0  0  0  0  0  0  0
  149.7165  139.1009  152.9262 H   0  0  0  0  0  0  0  0  0  0  0  0
  149.5852  138.3165  154.4870 H   0  0  0  0  0  0  0  0  0  0  0  0
  149.0724  136.8621  159.7218 H   0  0  0  0  0  0  0  0  0  0  0  0
  1  2  1  0  0  0  0
  1 29  1  0  0  0  0
  1 30  1  0  0  0  0
  1 31  1  0  0  0  0
  2  6  1  0  0  0  0
  2  3  1  0  0  0  0
  2 32  1  0  0  0  0
  3  4  1  0  0  0  0
  4  5  1  0  0  0  0
  4 33  1  0  0  0  0
  4 34  1  0  0  0  0
  5  6  1  0  0  0  0
  5 35  1  0  0  0  0
  5 36  1  0  0  0  0
  6  7  1  0  0  0  0
  6  8  1  0  0  0  0
  7 37  1  0  0  0  0
  8  9  1  0  0  0  0
  8 38  1  0  0  0  0
  8 39  1  0  0  0  0
  9 26  1  0  0  0  0
  9 10  1  0  0  0  0
 10 11  2  0  0  0  0
 10 40  1  0  0  0  0
 11 12  1  0  0  0  0
 12 26  2  0  0  0  0
 12 13  1  0  0  0  0
 13 14  1  0  0  0  0
 13 23  2  0  0  0  0
 14 19  1  0  0  0  0
 14 15  1  0  0  0  0
 15 16  1  0  0  0  0
 15 41  1  0  0  0  0
 15 42  1  0  0  0  0
 16 27  1  0  0  0  0
 16 17  1  0  0  0  0
 16 18  1  0  0  0  0
 18 19  1  0  0  0  0
 18 43  1  0  0  0  0
 18 44  1  0  0  0  0
 19 28  1  0  0  0  0
 19 20  1  0  0  0  0
 20 21  1  0  0  0  0
 20 22  2  0  0  0  0
 21 45  1  0  0  0  0
 21 46  1  0  0  0  0
 23 24  1  0  0  0  0
 24 25  2  0  0  0  0
 24 47  1  0  0  0  0
 25 26  1  0  0  0  0
M  END
> <s_m_source_file>
AV-unprocessed.smi

> <i_m_source_file_index>
196

> <i_lp_mmshare_version>
43012

> <i_f3d_flags>
0

> <s_epik_input>
W0NIMl0xW0NIMl1PW0NAQEhdKFtDSDNdKVtDQEBdMShbT0hdKVtDSDJdbihbY0hdbjIpYyhjMjMpbltjSF1uYzNONFtDSDJdW0NASF0oRilbQ0gyXVtDQEhdNEMoPU8pW05IMl0=

> <s_epik_cmdline>
J2VwaWtfcHl0aG9uJywgJy1waCcsICc3LjAnLCAnLXRuJywgJzgnLCAnLW1hJywgJzIwMCcsICctbWV0YWxfYmluZGluZycsICctaW1hZScsICc8aW5maWxlLm1hZT4nLCAnLW9tYWUnLCAnPG91dGZpbGUubWFlPic=

> <r_lp_tautomer_probability>
1

> <r_epik_Ionization_Penalty>
0.000857933

> <r_epik_Ionization_Penalty_Charging>
0

> <r_epik_Ionization_Penalty_Neutral>
0.000857933

> <r_epik_State_Penalty>
0.000462053

> <r_epik_Charging_Adjusted_Penalty>
0.000462053

> <i_epik_Tot_Q>
0

> <i_epik_Tot_abs_Q>
0

> <r_epik_Metal_State_Penalty>
-0

> <b_epik_Metal_Only>
0

> <s_lp_Force_Field>
OPLS_2005

> <r_lp_Energy>
45.3025

> <b_lp_Chiralities_Consistent>
1

> <s_lp_Variant>
AV-unprocessed.smi:196-5

> <Gold.Version>
5.8.1

> <Gold.Id.Protein>
6NUR|6NUR_protein|mol2

> <Gold.PLP.Fitness>
39.3169

> <Gold.PLP.PLP>
-30.6847

> <Gold.PLP.part.hbond>
-4.0000

> <Gold.PLP.part.metal>
0.0000

> <Gold.PLP.part.buried>
-0.2178

> <Gold.PLP.part.nonpolar>
-26.7238

> <Gold.PLP.part.repulsive>
0.6615

> <Gold.PLP.ligand.clash>
0.0000

> <Gold.PLP.ligand.torsion>
1.1106

> <Gold.PLP.Chemscore.Hbond>
2.5909

> <Gold.PLP.Chemscore.CHOScore>
1.0000

> <Gold.PLP.Chemscore.Metal>
0.0000

> <Gold.Chemscore.Hbonds>
donor molecule, donor type, donor heavy atom, donor atom, acceptor molecule, acceptor atom, score
      L1  H    21    45       P1  7957  0.98
      P1  H  6896  6909       L1    25  0.67
      P1  H  7989  7998       L1    22  0.09
      P1  H  8011  8017       L1    22  0.74
      L1  C    10    40       P1  7949  0.95

> <Gold.PLP.Chemscore.Internal.Correction>
0.0806

> <Gold.Rescore>
     Score         DG    S(hbond)    S(metal)    S(lipo)     H(rot)  DE(clash)    DE(int)     intcor
      7.21      -9.51       1.73        0.00      51.51       3.04       1.17       1.13       ----

> <Gold.Chemscore.Fitness>
7.2140

> <Gold.Chemscore.DG>
-9.5108

> <Gold.Chemscore.ZeroCoef>
-5.4800

> <Gold.Chemscore.Hbond>
1.7334

> <Gold.Chemscore.Metal>
0.0000

> <Gold.Chemscore.Lipo>
51.5116

> <Gold.Chemscore.Internal_Hbond>
0.0000

> <Gold.Chemscore.DEClash>
1.1653

> <Gold.Chemscore.DEInternal>
1.1315

> <Gold.Chemscore.Rot>
3.0413

> <Gold.Chemscore.Internal.Correction>
   9.000000E+99

> <Gold.Chemscore.Hbonds>
donor molecule, donor type, donor heavy atom, donor atom, acceptor molecule, acceptor atom, score
      L1  H    21    45       P1  7957  0.88
      P1  H  6896  6909       L1    25  0.32
      P1  H  8011  8017       L1    22  0.74

> <Gold.Chemscore.Hbond.Weighted>
-5.7896

> <Gold.Chemscore.Metal.Weighted>
-0.0000

> <Gold.Chemscore.Lipo.Weighted>
-6.0269

> <Gold.Chemscore.Internal_Hbond.Weighted>
0.0000

> <Gold.Chemscore.DEClash.Weighted>
1.1653

> <Gold.Chemscore.DEInternal.Weighted>
1.1315

> <Gold.Chemscore.Rot.Weighted>
7.7856

> <Gold.Chemscore.Internal.Correction.Weighted>
   9.000000E+99

> <Gold.Protein.RotatedTorsions>
[ 6907 6896 6895 6894 ] final   43.92 input  -60.11 | X-H torsion
[ 7974 7965 7964 7962 ] final  -44.51 input  175.53 | X-H torsion
[ 8008 7997 7996 7995 ] final -130.66 input   59.86 | X-H torsion
[ 10167 10162 10161 10158 ] final   41.68 input  -65.29 | X-H torsion
[ 10718 10713 10712 10709 ] final   -2.32 input   66.30 | X-H torsion
[ 10763 10752 10751 10750 ] final -165.20 input  -60.55 | X-H torsion
[ 11005 11000 10999 10996 ] final   41.02 input  -57.11 | X-H torsion

> <Gold.Protein.ActiveResidues>
 VAL166  LYS551  ARG553  GLY616  TRP617  ASP618  TYR619  PRO620  LYS621  CYS622 
 ASP623  PHE694  ASN695  SER759  ASP760  ASP761  ALA762  ILE779  LEU786  VAL792 
 PHE793  MET794  SER795  GLU796  ALA797  LYS798  CYS799  TRP800  GLU811  SER814 

> <Gold.Protein.RotatedAtoms>
  152.2262  134.8366  160.0479 H   0  0  0  0  0  0  0  0  0  0  0  0  # atno 6907 bound_to 6896
  151.9131  133.3561  159.3879 H   0  0  0  0  0  0  0  0  0  0  0  0  # atno 6908 bound_to 6896
  150.7013  134.4637  159.5437 H   0  0  0  0  0  0  0  0  0  0  0  0  # atno 6909 bound_to 6896
  145.9914  140.7177  142.9315 H   0  0  0  0  0  0  0  0  0  0  0  0  # atno 7974 bound_to 7965
  155.2995  140.0452  157.3028 H   0  0  0  0  0  0  0  0  0  0  0  0  # atno 8008 bound_to 7997
  154.5495  140.2313  155.8476 H   0  0  0  0  0  0  0  0  0  0  0  0  # atno 8009 bound_to 7997
  156.1954  140.3040  155.9423 H   0  0  0  0  0  0  0  0  0  0  0  0  # atno 8010 bound_to 7997
  140.3619  144.2217  150.6137 H   0  0  0  0  0  0  0  0  0  0  0  0  # atno 10167 bound_to 10162
  156.7926  130.5367  149.5733 H   0  0  0  0  0  0  0  0  0  0  0  0  # atno 10718 bound_to 10713
  154.6954  135.2978  154.9419 H   0  0  0  0  0  0  0  0  0  0  0  0  # atno 10763 bound_to 10752
  154.0368  135.6663  153.4790 H   0  0  0  0  0  0  0  0  0  0  0  0  # atno 10764 bound_to 10752
  153.0642  135.5098  154.8069 H   0  0  0  0  0  0  0  0  0  0  0  0  # atno 10765 bound_to 10752
  140.1874  134.4029  155.8165 H   0  0  0  0  0  0  0  0  0  0  0  0  # atno 11005 bound_to 11000
  144.6890  140.3076  143.7253 LP  0  0  0  0  0  0  0  0  0  0  0  0  # atno 17320 bound_to 7965
  145.7625  139.1829  143.2259 LP  0  0  0  0  0  0  0  0  0  0  0  0  # atno 17321 bound_to 7965
  140.5119  143.2288  151.8523 LP  0  0  0  0  0  0  0  0  0  0  0  0  # atno 17342 bound_to 10162
  139.4813  144.4940  151.9148 LP  0  0  0  0  0  0  0  0  0  0  0  0  # atno 17343 bound_to 10162
  156.1149  130.6068  151.0106 LP  0  0  0  0  0  0  0  0  0  0  0  0  # atno 17370 bound_to 10713
  157.6593  131.0884  150.7875 LP  0  0  0  0  0  0  0  0  0  0  0  0  # atno 17371 bound_to 10713
  141.2225  133.7030  156.8036 LP  0  0  0  0  0  0  0  0  0  0  0  0  # atno 17394 bound_to 11000
  140.2198  134.8765  157.3365 LP  0  0  0  0  0  0  0  0  0  0  0  0  # atno 17395 bound_to 11000

$$$$
