AV-unprocessed.smi:34|AV-procd|sdf|222|dock2
  -GOLD-   2262015543D 1   1.00000     0.00000
 Structure written by MMmdl.
 55 59  0  0  0  0  0  0  0  0  1 V2000
  151.7048  141.4805  157.3427 O   0  0  0  0  0  0  0  0  0  0  0  0
  152.1597  141.3897  158.4834 C   0  0  0  0  0  0  0  0  0  0  0  0
  152.8836  140.2153  158.9350 N   0  0  0  0  0  0  0  0  0  0  0  0
  153.0942  139.0588  158.2647 C   0  0  0  0  0  0  0  0  0  0  0  0
  154.3264  138.6819  157.8317 N   0  0  0  0  0  0  0  0  0  0  0  0
  154.4843  137.5321  157.1685 C   0  0  0  0  0  0  0  0  0  0  0  0
  153.5606  136.6277  156.8341 N   0  0  0  0  0  0  0  0  0  0  0  0
  152.3214  137.0048  157.2614 C   0  0  0  0  0  0  0  0  0  0  0  0
  152.0068  138.1955  157.9719 C   0  0  0  0  0  0  0  0  0  0  0  0
  150.6433  138.2399  158.2318 N   0  0  0  0  0  0  0  0  0  0  0  0
  150.1848  137.1337  157.7093 C   0  0  0  0  0  0  0  0  0  0  0  0
  151.1298  136.3335  157.1003 N   0  0  0  0  0  0  0  0  0  0  0  0
  150.9657  135.0076  156.4194 C   0  0  1  0  0  0  0  0  0  0  0  0
  149.8846  134.3422  157.0014 O   0  0  0  0  0  0  0  0  0  0  0  0
  148.7441  134.4879  156.1653 C   0  0  2  0  0  0  0  0  0  0  0  0
  147.6830  133.4325  156.4947 C   0  0  0  0  0  0  0  0  0  0  0  0
  147.1452  133.7139  157.7762 O   0  0  0  0  0  0  0  0  0  0  0  0
  147.8831  133.4982  158.8815 C   0  0  0  0  0  0  0  0  0  0  0  0
  148.9843  132.9444  158.8695 O   0  0  0  0  0  0  0  0  0  0  0  0
  147.2260  133.9984  160.1235 C   0  0  0  0  0  0  0  0  0  0  0  0
  145.9804  134.6621  160.0294 C   0  0  0  0  0  0  0  0  0  0  0  0
  145.3368  135.1471  161.1845 C   0  0  0  0  0  0  0  0  0  0  0  0
  145.9312  134.9748  162.4482 C   0  0  0  0  0  0  0  0  0  0  0  0
  147.1698  134.3159  162.5556 C   0  0  0  0  0  0  0  0  0  0  0  0
  147.8148  133.8295  161.4015 C   0  0  0  0  0  0  0  0  0  0  0  0
  149.3513  134.3720  154.7688 C   0  0  2  0  0  0  0  0  0  0  0  0
  149.6219  133.0970  154.4809 F   0  0  0  0  0  0  0  0  0  0  0  0
  150.6537  135.1471  154.9083 C   0  0  1  0  0  0  0  0  0  0  0  0
  150.4784  136.4796  154.4575 O   0  0  0  0  0  0  0  0  0  0  0  0
  152.0840  142.5288  159.4572 C   0  0  0  0  0  0  0  0  0  0  0  0
  151.4769  143.7462  159.0755 C   0  0  0  0  0  0  0  0  0  0  0  0
  151.3914  144.8165  159.9872 C   0  0  0  0  0  0  0  0  0  0  0  0
  151.9032  144.6747  161.2910 C   0  0  0  0  0  0  0  0  0  0  0  0
  152.4968  143.4604  161.6840 C   0  0  0  0  0  0  0  0  0  0  0  0
  152.5849  142.3900  160.7724 C   0  0  0  0  0  0  0  0  0  0  0  0
  153.2848  140.2710  159.8597 H   0  0  0  0  0  0  0  0  0  0  0  0
  155.4950  137.3050  156.8625 H   0  0  0  0  0  0  0  0  0  0  0  0
  149.1377  136.8746  157.7631 H   0  0  0  0  0  0  0  0  0  0  0  0
  151.8940  134.4748  156.6298 H   0  0  0  0  0  0  0  0  0  0  0  0
  148.3244  135.4881  156.2846 H   0  0  0  0  0  0  0  0  0  0  0  0
  146.8795  133.4703  155.7579 H   0  0  0  0  0  0  0  0  0  0  0  0
  148.1134  132.4302  156.4666 H   0  0  0  0  0  0  0  0  0  0  0  0
  145.5043  134.8066  159.0699 H   0  0  0  0  0  0  0  0  0  0  0  0
  144.3859  135.6524  161.0999 H   0  0  0  0  0  0  0  0  0  0  0  0
  145.4381  135.3474  163.3338 H   0  0  0  0  0  0  0  0  0  0  0  0
  147.6274  134.1833  163.5250 H   0  0  0  0  0  0  0  0  0  0  0  0
  148.7645  133.3285  161.5199 H   0  0  0  0  0  0  0  0  0  0  0  0
  148.6962  134.7472  153.9814 H   0  0  0  0  0  0  0  0  0  0  0  0
  151.4561  134.6901  154.3277 H   0  0  0  0  0  0  0  0  0  0  0  0
  149.9891  136.4581  153.6486 H   0  0  0  0  0  0  0  0  0  0  0  0
  151.0785  143.8701  158.0786 H   0  0  0  0  0  0  0  0  0  0  0  0
  150.9322  145.7464  159.6862 H   0  0  0  0  0  0  0  0  0  0  0  0
  151.8368  145.4956  161.9900 H   0  0  0  0  0  0  0  0  0  0  0  0
  152.8831  143.3486  162.6863 H   0  0  0  0  0  0  0  0  0  0  0  0
  153.0362  141.4634  161.0966 H   0  0  0  0  0  0  0  0  0  0  0  0
  1  2  2  0  0  0  0
  2  3  1  0  0  0  0
  2 30  1  0  0  0  0
  3  4  1  0  0  0  0
  3 36  1  0  0  0  0
  4  9  1  0  0  0  0
  4  5  2  0  0  0  0
  5  6  1  0  0  0  0
  6  7  2  0  0  0  0
  6 37  1  0  0  0  0
  7  8  1  0  0  0  0
  8 12  1  0  0  0  0
  8  9  2  0  0  0  0
  9 10  1  0  0  0  0
 10 11  2  0  0  0  0
 11 12  1  0  0  0  0
 11 38  1  0  0  0  0
 12 13  1  0  0  0  0
 13 28  1  0  0  0  0
 13 14  1  0  0  0  0
 13 39  1  0  0  0  0
 14 15  1  0  0  0  0
 15 16  1  0  0  0  0
 15 26  1  0  0  0  0
 15 40  1  0  0  0  0
 16 17  1  0  0  0  0
 16 41  1  0  0  0  0
 16 42  1  0  0  0  0
 17 18  1  0  0  0  0
 18 19  2  0  0  0  0
 18 20  1  0  0  0  0
 20 25  1  0  0  0  0
 20 21  2  0  0  0  0
 21 22  1  0  0  0  0
 21 43  1  0  0  0  0
 22 23  2  0  0  0  0
 22 44  1  0  0  0  0
 23 24  1  0  0  0  0
 23 45  1  0  0  0  0
 24 25  2  0  0  0  0
 24 46  1  0  0  0  0
 25 47  1  0  0  0  0
 26 27  1  0  0  0  0
 26 28  1  0  0  0  0
 26 48  1  0  0  0  0
 28 29  1  0  0  0  0
 28 49  1  0  0  0  0
 29 50  1  0  0  0  0
 30 35  1  0  0  0  0
 30 31  2  0  0  0  0
 31 32  1  0  0  0  0
 31 51  1  0  0  0  0
 32 33  2  0  0  0  0
 32 52  1  0  0  0  0
 33 34  1  0  0  0  0
 33 53  1  0  0  0  0
 34 35  2  0  0  0  0
 34 54  1  0  0  0  0
 35 55  1  0  0  0  0
M  END
> <s_m_source_file>
AV-unprocessed.smi

> <i_m_source_file_index>
34

> <i_lp_mmshare_version>
43012

> <i_f3d_flags>
0

> <s_epik_input>
W2NIXTFbY0hdW2NIXVtjSF1bY0hdYzFDKD1PKVtOSF1jKG5bY0hdbjIpYyhjMjMpbltjSF1uM1tDQEBIXTRPW0NASF0oW0NAQEhdKEYpW0NASF00W09IXSlbQ0gyXU9DKD1PKWM1W2NIXVtjSF1bY0hdW2NIXVtjSF01

> <s_epik_cmdline>
J2VwaWtfcHl0aG9uJywgJy1waCcsICc3LjAnLCAnLXRuJywgJzgnLCAnLW1hJywgJzIwMCcsICctbWV0YWxfYmluZGluZycsICctaW1hZScsICc8aW5maWxlLm1hZT4nLCAnLW9tYWUnLCAnPG91dGZpbGUubWFlPic=

> <r_lp_tautomer_probability>
1

> <r_epik_Ionization_Penalty>
0.00257489

> <r_epik_Ionization_Penalty_Charging>
0

> <r_epik_Ionization_Penalty_Neutral>
0.00257489

> <r_epik_State_Penalty>
0.00519398

> <r_epik_Charging_Adjusted_Penalty>
0.00519398

> <i_epik_Tot_Q>
0

> <i_epik_Tot_abs_Q>
0

> <r_epik_Metal_State_Penalty>
0.335891

> <b_epik_Metal_Only>
0

> <s_epik_Chemistry_Notes>
This compound has an ester and may undergo hydrolysis at high or low pH. This compound contains an acetal/aminal-like group ( X-CH(R)-Y where X, Y are N, S, or O) that may be acid/base labile, releasing an aldehyde.

> <s_lp_Force_Field>
OPLS_2005

> <r_lp_Energy>
48.7075

> <b_lp_Chiralities_Consistent>
1

> <s_lp_Variant>
AV-unprocessed.smi:34-8

> <Gold.Version>
5.8.1

> <Gold.Id.Protein>
6NUR|6NUR_protein|mol2

> <Gold.PLP.Fitness>
61.2307

> <Gold.PLP.PLP>
-52.2111

> <Gold.PLP.part.hbond>
-4.5668

> <Gold.PLP.part.metal>
0.0000

> <Gold.PLP.part.buried>
-4.1245

> <Gold.PLP.part.nonpolar>
-43.2547

> <Gold.PLP.part.repulsive>
0.1232

> <Gold.PLP.ligand.clash>
0.0000

> <Gold.PLP.ligand.torsion>
1.5045

> <Gold.PLP.Chemscore.Hbond>
3.8535

> <Gold.PLP.Chemscore.CHOScore>
0.0000

> <Gold.PLP.Chemscore.Metal>
0.0000

> <Gold.Chemscore.Hbonds>
donor molecule, donor type, donor heavy atom, donor atom, acceptor molecule, acceptor atom, score
      L1  H    29    50       P1  7948  0.84
      P1  H  6896  6909       L1    19  1.00
      P1  H  7997  8010       L1     5  0.94
      P1  H 10752 10763       L1     7  0.94

> <Gold.PLP.Chemscore.Internal.Correction>
0.4682

> <Gold.Rescore>
     Score         DG    S(hbond)    S(metal)    S(lipo)     H(rot)  DE(clash)    DE(int)     intcor
     18.49     -23.52       3.16        0.00     123.49       2.72       0.45       4.57       ----

> <Gold.Chemscore.Fitness>
18.4944

> <Gold.Chemscore.DG>
-23.5187

> <Gold.Chemscore.ZeroCoef>
-5.4800

> <Gold.Chemscore.Hbond>
3.1608

> <Gold.Chemscore.Metal>
0.0000

> <Gold.Chemscore.Lipo>
123.4914

> <Gold.Chemscore.Internal_Hbond>
0.0000

> <Gold.Chemscore.DEClash>
0.4506

> <Gold.Chemscore.DEInternal>
4.5737

> <Gold.Chemscore.Rot>
2.7215

> <Gold.Chemscore.Internal.Correction>
   9.000000E+99

> <Gold.Chemscore.Hbonds>
donor molecule, donor type, donor heavy atom, donor atom, acceptor molecule, acceptor atom, score
      L1  H    29    50       P1  7948  0.14
      P1  H  6896  6909       L1    19  0.92
      P1  H  7997  8010       L1     5  0.18
      P1  H 10752 10763       L1     7  0.82

> <Gold.Chemscore.Hbond.Weighted>
-10.5572

> <Gold.Chemscore.Metal.Weighted>
-0.0000

> <Gold.Chemscore.Lipo.Weighted>
-14.4485

> <Gold.Chemscore.Internal_Hbond.Weighted>
0.0000

> <Gold.Chemscore.DEClash.Weighted>
0.4506

> <Gold.Chemscore.DEInternal.Weighted>
4.5737

> <Gold.Chemscore.Rot.Weighted>
6.9670

> <Gold.Chemscore.Internal.Correction.Weighted>
   9.000000E+99

> <Gold.Protein.RotatedTorsions>
[ 6907 6896 6895 6894 ] final    2.33 input  -60.11 | X-H torsion
[ 7974 7965 7964 7962 ] final  178.96 input  175.53 | X-H torsion
[ 8008 7997 7996 7995 ] final   24.79 input   59.86 | X-H torsion
[ 10167 10162 10161 10158 ] final   27.62 input  -65.29 | X-H torsion
[ 10718 10713 10712 10709 ] final    4.51 input   66.30 | X-H torsion
[ 10763 10752 10751 10750 ] final  119.38 input  -60.55 | X-H torsion
[ 11005 11000 10999 10996 ] final   12.99 input  -57.11 | X-H torsion

> <Gold.Protein.ActiveResidues>
 VAL166  LYS551  ARG553  GLY616  TRP617  ASP618  TYR619  PRO620  LYS621  CYS622 
 ASP623  PHE694  ASN695  SER759  ASP760  ASP761  ALA762  ILE779  LEU786  VAL792 
 PHE793  MET794  SER795  GLU796  ALA797  LYS798  CYS799  TRP800  GLU811  SER814 

> <Gold.Protein.RotatedAtoms>
  151.6071  135.1043  160.0072 H   0  0  0  0  0  0  0  0  0  0  0  0  # atno 6907 bound_to 6896
  152.4228  133.7140  159.6506 H   0  0  0  0  0  0  0  0  0  0  0  0  # atno 6908 bound_to 6896
  150.8116  133.8339  159.3202 H   0  0  0  0  0  0  0  0  0  0  0  0  # atno 6909 bound_to 6896
  144.7150  140.0476  143.6436 H   0  0  0  0  0  0  0  0  0  0  0  0  # atno 7974 bound_to 7965
  155.0018  140.3126  155.4864 H   0  0  0  0  0  0  0  0  0  0  0  0  # atno 8008 bound_to 7997
  156.2924  140.2230  156.5069 H   0  0  0  0  0  0  0  0  0  0  0  0  # atno 8009 bound_to 7997
  154.7612  140.0459  157.0963 H   0  0  0  0  0  0  0  0  0  0  0  0  # atno 8010 bound_to 7997
  140.4923  144.0447  150.6301 H   0  0  0  0  0  0  0  0  0  0  0  0  # atno 10167 bound_to 10162
  156.8937  130.5696  149.5649 H   0  0  0  0  0  0  0  0  0  0  0  0  # atno 10718 bound_to 10713
  153.5822  135.3482  155.2879 H   0  0  0  0  0  0  0  0  0  0  0  0  # atno 10763 bound_to 10752
  154.8666  135.4184  154.2608 H   0  0  0  0  0  0  0  0  0  0  0  0  # atno 10764 bound_to 10752
  153.3397  135.7049  153.6948 H   0  0  0  0  0  0  0  0  0  0  0  0  # atno 10765 bound_to 10752
  140.4858  134.0890  155.7760 H   0  0  0  0  0  0  0  0  0  0  0  0  # atno 11005 bound_to 11000
  145.9971  139.3061  143.0950 LP  0  0  0  0  0  0  0  0  0  0  0  0  # atno 17320 bound_to 7965
  145.8836  140.9347  143.0588 LP  0  0  0  0  0  0  0  0  0  0  0  0  # atno 17321 bound_to 7965
  140.3720  143.2849  152.0268 LP  0  0  0  0  0  0  0  0  0  0  0  0  # atno 17342 bound_to 10162
  139.4854  144.6222  151.7232 LP  0  0  0  0  0  0  0  0  0  0  0  0  # atno 17343 bound_to 10162
  156.0616  130.5668  150.9204 LP  0  0  0  0  0  0  0  0  0  0  0  0  # atno 17370 bound_to 10713
  157.6068  131.0938  150.8865 LP  0  0  0  0  0  0  0  0  0  0  0  0  # atno 17371 bound_to 10713
  141.1509  133.8971  157.2101 LP  0  0  0  0  0  0  0  0  0  0  0  0  # atno 17394 bound_to 11000
  139.9799  135.0102  156.9723 LP  0  0  0  0  0  0  0  0  0  0  0  0  # atno 17395 bound_to 11000

$$$$
