AV-unprocessed.smi:1867|AV-procd|sdf|7581|dock1
  -GOLD-   22720 9293D 1   1.00000     0.00000
 Structure written by MMmdl.
 52 55  0  0  0  0  0  0  0  0  4 V2000
  152.1009  136.7009  157.4128 O   0  0  0  0  0  0  0  0  0  0  0  0
  151.6075  136.8608  156.2994 C   0  0  0  0  0  0  0  0  0  0  0  0
  151.3387  138.1158  155.8600 N   0  0  0  0  0  0  0  0  0  0  0  0
  151.5293  139.3828  156.4805 C   0  0  0  0  0  0  0  0  0  0  0  0
  152.4087  139.4268  157.5826 C   0  0  0  0  0  0  0  0  0  0  0  0
  152.6450  140.6463  158.2488 C   0  0  0  0  0  0  0  0  0  0  0  0
  151.9970  141.8226  157.8048 C   0  0  0  0  0  0  0  0  0  0  0  0
  152.1765  143.0754  158.4210 N   0  0  0  0  0  0  0  0  0  0  0  0
  151.3097  144.2028  158.1212 C   0  0  0  0  0  0  0  0  0  0  0  0
  151.7330  145.2893  159.1091 C   0  0  0  0  0  0  0  0  0  0  0  0
  152.1726  144.4909  160.3367 C   0  0  0  0  0  0  0  0  0  0  0  0
  152.7536  143.1976  159.7536 C   0  0  0  0  0  0  0  0  0  0  0  0
  151.1561  141.7353  156.7476 N   0  3  0  0  0  0  0  0  0  0  0  0
  150.9013  140.5883  156.0817 C   0  0  0  0  0  0  0  0  0  0  0  0
  151.3254  135.7890  155.4986 N   0  5  0  0  0  0  0  0  0  0  0  0
  150.5742  134.5581  155.8050 C   0  0  1  0  0  0  0  0  0  0  0  0
  149.3576  134.9059  156.6648 C   0  0  0  0  0  0  0  0  0  0  0  0
  148.2816  135.3456  155.6654 C   0  0  0  0  0  0  0  0  0  0  0  0
  148.6385  134.7323  154.3640 N   0  3  2  0  0  0  0  0  0  0  0  0
  147.5365  133.9641  153.7233 C   0  0  0  0  0  0  0  0  0  0  0  0
  148.0787  133.0374  152.6241 C   0  0  0  0  0  0  0  0  0  0  0  0
  149.0614  131.9971  153.1968 C   0  0  0  0  0  0  0  0  0  0  0  0
  149.7181  132.4678  154.5100 C   0  0  0  0  0  0  0  0  0  0  0  0
  149.9319  134.0038  154.5153 C   0  0  2  0  0  0  0  0  0  0  0  0
  150.9272  138.1557  154.9391 H   0  0  0  0  0  0  0  0  0  0  0  0
  152.9035  138.5279  157.9207 H   0  0  0  0  0  0  0  0  0  0  0  0
  153.3189  140.6612  159.0923 H   0  0  0  0  0  0  0  0  0  0  0  0
  151.4206  144.5347  157.0885 H   0  0  0  0  0  0  0  0  0  0  0  0
  150.2703  143.9159  158.2855 H   0  0  0  0  0  0  0  0  0  0  0  0
  152.5825  145.8439  158.7079 H   0  0  0  0  0  0  0  0  0  0  0  0
  150.9362  146.0017  159.3244 H   0  0  0  0  0  0  0  0  0  0  0  0
  152.8843  145.0298  160.9628 H   0  0  0  0  0  0  0  0  0  0  0  0
  151.3003  144.2563  160.9484 H   0  0  0  0  0  0  0  0  0  0  0  0
  152.5187  142.3433  160.3899 H   0  0  0  0  0  0  0  0  0  0  0  0
  153.8380  143.2676  159.6610 H   0  0  0  0  0  0  0  0  0  0  0  0
  150.2045  140.6983  155.2661 H   0  0  0  0  0  0  0  0  0  0  0  0
  151.1853  133.7987  156.2947 H   0  0  0  0  0  0  0  0  0  0  0  0
  149.0192  134.0080  157.1835 H   0  0  0  0  0  0  0  0  0  0  0  0
  149.5617  135.6600  157.4263 H   0  0  0  0  0  0  0  0  0  0  0  0
  147.2856  135.0643  156.0105 H   0  0  0  0  0  0  0  0  0  0  0  0
  148.2839  136.4305  155.5445 H   0  0  0  0  0  0  0  0  0  0  0  0
  147.0137  133.3631  154.4692 H   0  0  0  0  0  0  0  0  0  0  0  0
  146.8077  134.6639  153.3135 H   0  0  0  0  0  0  0  0  0  0  0  0
  147.2605  132.5339  152.1086 H   0  0  0  0  0  0  0  0  0  0  0  0
  148.5860  133.6428  151.8714 H   0  0  0  0  0  0  0  0  0  0  0  0
  148.5456  131.0534  153.3776 H   0  0  0  0  0  0  0  0  0  0  0  0
  149.8277  131.7852  152.4503 H   0  0  0  0  0  0  0  0  0  0  0  0
  149.0792  132.1706  155.3449 H   0  0  0  0  0  0  0  0  0  0  0  0
  150.6603  131.9331  154.6461 H   0  0  0  0  0  0  0  0  0  0  0  0
  150.5592  134.2403  153.6534 H   0  0  0  0  0  0  0  0  0  0  0  0
  148.8521  135.5059  153.7505 H   0  0  0  0  0  0  0  0  0  0  0  0
  150.6857  142.5841  156.4340 H   0  0  0  0  0  0  0  0  0  0  0  0
  1  2  2  0  0  0  0
  2  3  1  0  0  0  0
  2 15  1  0  0  0  0
  3  4  1  0  0  0  0
  3 25  1  0  0  0  0
  4 14  1  0  0  0  0
  4  5  2  0  0  0  0
  5  6  1  0  0  0  0
  5 26  1  0  0  0  0
  6  7  2  0  0  0  0
  6 27  1  0  0  0  0
  7  8  1  0  0  0  0
  7 13  1  0  0  0  0
  8 12  1  0  0  0  0
  8  9  1  0  0  0  0
  9 10  1  0  0  0  0
  9 28  1  0  0  0  0
  9 29  1  0  0  0  0
 10 11  1  0  0  0  0
 10 30  1  0  0  0  0
 10 31  1  0  0  0  0
 11 12  1  0  0  0  0
 11 32  1  0  0  0  0
 11 33  1  0  0  0  0
 12 34  1  0  0  0  0
 12 35  1  0  0  0  0
 13 14  2  0  0  0  0
 13 52  1  0  0  0  0
 14 36  1  0  0  0  0
 15 16  1  0  0  0  0
 16 24  1  0  0  0  0
 16 17  1  0  0  0  0
 16 37  1  0  0  0  0
 17 18  1  0  0  0  0
 17 38  1  0  0  0  0
 17 39  1  0  0  0  0
 18 19  1  0  0  0  0
 18 40  1  0  0  0  0
 18 41  1  0  0  0  0
 19 24  1  0  0  0  0
 19 20  1  0  0  0  0
 19 51  1  0  0  0  0
 20 21  1  0  0  0  0
 20 42  1  0  0  0  0
 20 43  1  0  0  0  0
 21 22  1  0  0  0  0
 21 44  1  0  0  0  0
 21 45  1  0  0  0  0
 22 23  1  0  0  0  0
 22 46  1  0  0  0  0
 22 47  1  0  0  0  0
 23 24  1  0  0  0  0
 23 48  1  0  0  0  0
 23 49  1  0  0  0  0
 24 50  1  0  0  0  0
M  CHG  1  13   1
M  CHG  1  15  -1
M  CHG  1  19   1
M  END
> <s_m_source_file>
AV-unprocessed.smi

> <i_m_source_file_index>
1867

> <i_lp_mmshare_version>
43012

> <i_f3d_flags>
0

> <s_epik_input>
W0NIMl0xW0NIMl1bQ0gyXVtDSDJdW0NASF0oTjEyKVtDQEBIXShbQ0gyXVtDSDJdMilbTkhdQyg9TylbTkhdYzNbY0hdW2NIXWMobltjSF0zKU40W0NIMl1bQ0gyXVtDSDJdW0NIMl00

> <s_epik_cmdline>
J2VwaWtfcHl0aG9uJywgJy1waCcsICc3LjAnLCAnLXRuJywgJzgnLCAnLW1hJywgJzIwMCcsICctbWV0YWxfYmluZGluZycsICctaW1hZScsICc8aW5maWxlLm1hZT4nLCAnLW9tYWUnLCAnPG91dGZpbGUubWFlPic=

> <r_lp_tautomer_probability>
0.999994

> <r_epik_Ionization_Penalty>
8.56137

> <r_epik_Ionization_Penalty_Charging>
8.56136

> <r_epik_Ionization_Penalty_Neutral>
3.91889e-06

> <r_epik_State_Penalty>
8.16255

> <r_epik_Charging_Adjusted_Penalty>
16.7239

> <i_epik_Tot_Q>
1

> <i_epik_Tot_abs_Q>
3

> <r_epik_Metal_State_Penalty>
4.14279

> <b_epik_Metal_Only>
1

> <s_lp_Force_Field>
OPLS_2005

> <r_lp_Energy>
71.031

> <b_lp_Chiralities_Consistent>
1

> <s_lp_Variant>
AV-unprocessed.smi:1867-22

> <Gold.Version>
5.8.1

> <Gold.Id.Protein>
6NUR|6NUR_protein|mol2

> <Gold.PLP.Fitness>
53.3606

> <Gold.PLP.PLP>
-43.2027

> <Gold.PLP.part.hbond>
-2.0000

> <Gold.PLP.part.metal>
0.0000

> <Gold.PLP.part.buried>
-4.0049

> <Gold.PLP.part.nonpolar>
-36.4976

> <Gold.PLP.part.repulsive>
0.2414

> <Gold.PLP.ligand.clash>
0.0543

> <Gold.PLP.ligand.torsion>
0.9347

> <Gold.PLP.Chemscore.Hbond>
3.9200

> <Gold.PLP.Chemscore.CHOScore>
0.0000

> <Gold.PLP.Chemscore.Metal>
0.0000

> <Gold.Chemscore.Hbonds>
donor molecule, donor type, donor heavy atom, donor atom, acceptor molecule, acceptor atom, score
      L1  H    19    51       P1  7948  1.92
      P1  H 10752 10765       L1    15  2.00

> <Gold.PLP.Chemscore.Internal.Correction>
0.3216

> <Gold.Rescore>
     Score         DG    S(hbond)    S(metal)    S(lipo)     H(rot)  DE(clash)    DE(int)     intcor
     17.45     -20.13       1.24        0.00     111.64       1.00       0.29       2.39       ----

> <Gold.Chemscore.Fitness>
17.4549

> <Gold.Chemscore.DG>
-20.1338

> <Gold.Chemscore.ZeroCoef>
-5.4800

> <Gold.Chemscore.Hbond>
1.2431

> <Gold.Chemscore.Metal>
0.0000

> <Gold.Chemscore.Lipo>
111.6410

> <Gold.Chemscore.Internal_Hbond>
0.0000

> <Gold.Chemscore.DEClash>
0.2869

> <Gold.Chemscore.DEInternal>
2.3920

> <Gold.Chemscore.Rot>
1.0000

> <Gold.Chemscore.Internal.Correction>
   9.000000E+99

> <Gold.Chemscore.Hbonds>
donor molecule, donor type, donor heavy atom, donor atom, acceptor molecule, acceptor atom, score
      L1  H    19    51       P1  7948  0.80
      P1  H 10752 10765       L1    15  0.32

> <Gold.Chemscore.Hbond.Weighted>
-4.1518

> <Gold.Chemscore.Metal.Weighted>
-0.0000

> <Gold.Chemscore.Lipo.Weighted>
-13.0620

> <Gold.Chemscore.Internal_Hbond.Weighted>
0.0000

> <Gold.Chemscore.DEClash.Weighted>
0.2869

> <Gold.Chemscore.DEInternal.Weighted>
2.3920

> <Gold.Chemscore.Rot.Weighted>
2.5600

> <Gold.Chemscore.Internal.Correction.Weighted>
   9.000000E+99

> <Gold.Protein.RotatedTorsions>
[ 6907 6896 6895 6894 ] final   81.63 input  -60.11 | X-H torsion
[ 7974 7965 7964 7962 ] final  -70.23 input  175.53 | X-H torsion
[ 8008 7997 7996 7995 ] final   37.44 input   59.86 | X-H torsion
[ 10167 10162 10161 10158 ] final -127.65 input  -65.29 | X-H torsion
[ 10718 10713 10712 10709 ] final  176.13 input   66.30 | X-H torsion
[ 10763 10752 10751 10750 ] final  176.18 input  -60.55 | X-H torsion
[ 11005 11000 10999 10996 ] final -177.37 input  -57.11 | X-H torsion

> <Gold.Protein.ActiveResidues>
 VAL166  LYS551  ARG553  GLY616  TRP617  ASP618  TYR619  PRO620  LYS621  CYS622 
 ASP623  PHE694  ASN695  SER759  ASP760  ASP761  ALA762  ILE779  LEU786  VAL792 
 PHE793  MET794  SER795  GLU796  ALA797  LYS798  CYS799  TRP800  GLU811  SER814 

> <Gold.Protein.RotatedAtoms>
  152.5274  134.3173  159.9135 H   0  0  0  0  0  0  0  0  0  0  0  0  # atno 6907 bound_to 6896
  151.3123  133.4069  159.2655 H   0  0  0  0  0  0  0  0  0  0  0  0  # atno 6908 bound_to 6896
  151.0028  134.9352  159.8021 H   0  0  0  0  0  0  0  0  0  0  0  0  # atno 6909 bound_to 6896
  145.6936  140.9144  143.0768 H   0  0  0  0  0  0  0  0  0  0  0  0  # atno 7974 bound_to 7965
  155.2039  140.3318  155.4339 H   0  0  0  0  0  0  0  0  0  0  0  0  # atno 8008 bound_to 7997
  156.2396  140.1889  156.7074 H   0  0  0  0  0  0  0  0  0  0  0  0  # atno 8009 bound_to 7997
  154.6123  140.0607  156.9495 H   0  0  0  0  0  0  0  0  0  0  0  0  # atno 8010 bound_to 7997
  139.9586  143.5975  152.2452 H   0  0  0  0  0  0  0  0  0  0  0  0  # atno 10167 bound_to 10162
  156.9247  130.9952  151.2998 H   0  0  0  0  0  0  0  0  0  0  0  0  # atno 10718 bound_to 10713
  154.4776  135.2773  155.1595 H   0  0  0  0  0  0  0  0  0  0  0  0  # atno 10763 bound_to 10752
  154.3318  135.6188  153.5559 H   0  0  0  0  0  0  0  0  0  0  0  0  # atno 10764 bound_to 10752
  152.9871  135.5767  154.5170 H   0  0  0  0  0  0  0  0  0  0  0  0  # atno 10765 bound_to 10752
  140.4417  134.6425  157.4760 H   0  0  0  0  0  0  0  0  0  0  0  0  # atno 11005 bound_to 11000
  144.6989  139.8854  143.7450 LP  0  0  0  0  0  0  0  0  0  0  0  0  # atno 17320 bound_to 7965
  146.0860  139.3849  143.0435 LP  0  0  0  0  0  0  0  0  0  0  0  0  # atno 17321 bound_to 7965
  139.6571  144.7662  151.2034 LP  0  0  0  0  0  0  0  0  0  0  0  0  # atno 17342 bound_to 10162
  140.7560  143.6068  150.8645 LP  0  0  0  0  0  0  0  0  0  0  0  0  # atno 17343 bound_to 10162
  157.5885  130.8427  149.8625 LP  0  0  0  0  0  0  0  0  0  0  0  0  # atno 17370 bound_to 10713
  156.0475  130.3725  150.1282 LP  0  0  0  0  0  0  0  0  0  0  0  0  # atno 17371 bound_to 10713
  140.0065  134.6755  155.9446 LP  0  0  0  0  0  0  0  0  0  0  0  0  # atno 17394 bound_to 11000
  141.1703  133.6537  156.4626 LP  0  0  0  0  0  0  0  0  0  0  0  0  # atno 17395 bound_to 11000

$$$$
