AV-unprocessed.smi:113|AV-procd|sdf|1102|dock6
  -GOLD-   2262018213D 1   1.00000     0.00000
 Structure written by MMmdl.
 53 56  0  0  0  0  0  0  0  0  2 V2000
  155.1718  139.6128  162.0552 C   0  0  0  0  0  0  0  0  0  0  0  0
  154.2022  140.2021  161.0527 C   0  0  0  0  0  0  0  0  0  0  0  0
  153.5686  139.4173  160.0698 C   0  0  0  0  0  0  0  0  0  0  0  0
  152.6665  140.0190  159.1572 C   0  0  0  0  0  0  0  0  0  0  0  0
  151.9601  139.1908  158.0783 C   0  0  0  0  0  0  0  0  0  0  0  0
  150.5835  138.7984  158.3444 N   0  0  0  0  0  0  0  0  0  0  0  0
  149.5503  139.5507  157.7334 C   0  0  0  0  0  0  0  0  0  0  0  0
  149.7997  140.5062  156.9953 O   0  0  0  0  0  0  0  0  0  0  0  0
  148.1884  139.1241  158.0662 C   0  0  0  0  0  0  0  0  0  0  0  0
  147.0269  139.8875  157.4501 C   0  0  0  0  0  0  0  0  0  0  0  0
  147.9982  138.0805  158.9087 C   0  0  0  0  0  0  0  0  0  0  0  0
  149.0295  137.3636  159.4908 N   0  0  0  0  0  0  0  0  0  0  0  0
  148.7391  136.2234  160.4352 C   0  0  1  0  0  0  0  0  0  0  0  0
  147.6165  136.5864  161.3981 C   0  0  0  0  0  0  0  0  0  0  0  0
  147.0418  135.2201  161.7152 C   0  0  2  0  0  0  0  0  0  0  0  0
  147.6995  134.6572  162.8342 O   0  0  0  0  0  0  0  0  0  0  0  0
  147.3357  134.3894  160.4501 C   0  0  1  0  0  0  0  0  0  0  0  0
  146.1064  134.1914  159.5489 C   0  0  0  0  0  0  0  0  0  0  0  0
  145.0599  133.5788  160.2718 O   0  0  0  0  0  0  0  0  0  0  0  0
  148.2998  135.1272  159.6989 O   0  0  0  0  0  0  0  0  0  0  0  0
  150.3672  137.7244  159.2363 C   0  0  0  0  0  0  0  0  0  0  0  0
  151.3016  137.1395  159.7896 O   0  0  0  0  0  0  0  0  0  0  0  0
  152.4298  141.4171  159.2666 C   0  0  0  0  0  0  0  0  0  0  0  0
  151.5481  142.1032  158.3972 C   0  0  0  0  0  0  0  0  0  0  0  0
  151.3402  143.4895  158.5368 C   0  0  0  0  0  0  0  0  0  0  0  0
  152.0073  144.2094  159.5455 C   0  0  0  0  0  0  0  0  0  0  0  0
  152.8867  143.5432  160.4188 C   0  0  0  0  0  0  0  0  0  0  0  0
  153.0971  142.1567  160.2801 C   0  0  0  0  0  0  0  0  0  0  0  0
  153.9435  141.5239  161.1197 N   0  3  0  0  0  0  0  0  0  0  0  0
  155.5340  138.6397  161.7224 H   0  0  0  0  0  0  0  0  0  0  0  0
  154.6836  139.4847  163.0214 H   0  0  0  0  0  0  0  0  0  0  0  0
  156.0341  140.2671  162.1880 H   0  0  0  0  0  0  0  0  0  0  0  0
  153.7835  138.3598  160.0289 H   0  0  0  0  0  0  0  0  0  0  0  0
  151.9679  139.7261  157.1275 H   0  0  0  0  0  0  0  0  0  0  0  0
  152.5229  138.2779  157.8769 H   0  0  0  0  0  0  0  0  0  0  0  0
  146.0639  139.4791  157.7584 H   0  0  0  0  0  0  0  0  0  0  0  0
  147.0742  139.8414  156.3615 H   0  0  0  0  0  0  0  0  0  0  0  0
  147.0564  140.9356  157.7507 H   0  0  0  0  0  0  0  0  0  0  0  0
  146.9821  137.7991  159.1463 H   0  0  0  0  0  0  0  0  0  0  0  0
  149.6694  135.9485  160.9342 H   0  0  0  0  0  0  0  0  0  0  0  0
  147.9886  137.1406  162.2606 H   0  0  0  0  0  0  0  0  0  0  0  0
  146.8733  137.1925  160.8780 H   0  0  0  0  0  0  0  0  0  0  0  0
  145.9768  135.2788  161.9431 H   0  0  0  0  0  0  0  0  0  0  0  0
  148.3720  134.0691  162.5262 H   0  0  0  0  0  0  0  0  0  0  0  0
  147.7630  133.4174  160.7031 H   0  0  0  0  0  0  0  0  0  0  0  0
  145.7645  135.1419  159.1384 H   0  0  0  0  0  0  0  0  0  0  0  0
  146.3592  133.5477  158.7062 H   0  0  0  0  0  0  0  0  0  0  0  0
  145.3980  132.8035  160.6934 H   0  0  0  0  0  0  0  0  0  0  0  0
  151.0189  141.5852  157.6118 H   0  0  0  0  0  0  0  0  0  0  0  0
  150.6654  144.0025  157.8669 H   0  0  0  0  0  0  0  0  0  0  0  0
  151.8440  145.2724  159.6485 H   0  0  0  0  0  0  0  0  0  0  0  0
  153.3962  144.1011  161.1913 H   0  0  0  0  0  0  0  0  0  0  0  0
  154.4114  142.0730  161.8406 H   0  0  0  0  0  0  0  0  0  0  0  0
  1  2  1  0  0  0  0
  1 30  1  0  0  0  0
  1 31  1  0  0  0  0
  1 32  1  0  0  0  0
  2 29  1  0  0  0  0
  2  3  2  0  0  0  0
  3  4  1  0  0  0  0
  3 33  1  0  0  0  0
  4  5  1  0  0  0  0
  4 23  2  0  0  0  0
  5  6  1  0  0  0  0
  5 34  1  0  0  0  0
  5 35  1  0  0  0  0
  6 21  1  0  0  0  0
  6  7  1  0  0  0  0
  7  8  2  0  0  0  0
  7  9  1  0  0  0  0
  9 10  1  0  0  0  0
  9 11  2  0  0  0  0
 10 36  1  0  0  0  0
 10 37  1  0  0  0  0
 10 38  1  0  0  0  0
 11 12  1  0  0  0  0
 11 39  1  0  0  0  0
 12 13  1  0  0  0  0
 12 21  1  0  0  0  0
 13 20  1  0  0  0  0
 13 14  1  0  0  0  0
 13 40  1  0  0  0  0
 14 15  1  0  0  0  0
 14 41  1  0  0  0  0
 14 42  1  0  0  0  0
 15 16  1  0  0  0  0
 15 17  1  0  0  0  0
 15 43  1  0  0  0  0
 16 44  1  0  0  0  0
 17 18  1  0  0  0  0
 17 20  1  0  0  0  0
 17 45  1  0  0  0  0
 18 19  1  0  0  0  0
 18 46  1  0  0  0  0
 18 47  1  0  0  0  0
 19 48  1  0  0  0  0
 21 22  2  0  0  0  0
 23 28  1  0  0  0  0
 23 24  1  0  0  0  0
 24 25  2  0  0  0  0
 24 49  1  0  0  0  0
 25 26  1  0  0  0  0
 25 50  1  0  0  0  0
 26 27  2  0  0  0  0
 26 51  1  0  0  0  0
 27 28  1  0  0  0  0
 27 52  1  0  0  0  0
 28 29  2  0  0  0  0
 29 53  1  0  0  0  0
M  CHG  1  29   1
M  END
> <s_m_source_file>
AV-unprocessed.smi

> <i_m_source_file_index>
113

> <i_lp_mmshare_version>
43012

> <i_f3d_flags>
0

> <s_epik_input>
W2NIXTFbY0hdW2NIXVtjSF1jKGMxMiluYyhbQ0gzXSlbY0hdYzJbQ0gyXW4zYyg9TyljKFtDSDNdKVtjSF1uKGMzPU8pW0NAQEhdNFtDSDJdW0NAQEhdKFtPSF0pW0NASF0oTzQpW0NIMl1bT0hd

> <s_epik_cmdline>
J2VwaWtfcHl0aG9uJywgJy1waCcsICc3LjAnLCAnLXRuJywgJzgnLCAnLW1hJywgJzIwMCcsICctbWV0YWxfYmluZGluZycsICctaW1hZScsICc8aW5maWxlLm1hZT4nLCAnLW9tYWUnLCAnPG91dGZpbGUubWFlPic=

> <r_lp_tautomer_probability>
1

> <r_epik_Ionization_Penalty>
0.705471

> <r_epik_Ionization_Penalty_Charging>
0.70547

> <r_epik_Ionization_Penalty_Neutral>
1.19947e-07

> <r_epik_State_Penalty>
0.728574

> <r_epik_Charging_Adjusted_Penalty>
1.43404

> <i_epik_Tot_Q>
1

> <i_epik_Tot_abs_Q>
1

> <r_epik_Metal_State_Penalty>
4.61665

> <b_epik_Metal_Only>
0

> <s_epik_Chemistry_Notes>
This compound contains an acetal/aminal-like group ( X-CH(R)-Y where X, Y are N, S, or O) that may be acid/base labile, releasing an aldehyde.

> <s_lp_Force_Field>
OPLS_2005

> <r_lp_Energy>
43.7755

> <b_lp_Chiralities_Consistent>
1

> <s_lp_Variant>
AV-unprocessed.smi:113-12

> <Gold.Version>
5.8.1

> <Gold.Id.Protein>
6NUR|6NUR_protein|mol2

> <Gold.PLP.Fitness>
47.8076

> <Gold.PLP.PLP>
-46.6703

> <Gold.PLP.part.hbond>
-1.9668

> <Gold.PLP.part.metal>
0.0000

> <Gold.PLP.part.buried>
-7.1377

> <Gold.PLP.part.nonpolar>
-38.4256

> <Gold.PLP.part.repulsive>
0.0275

> <Gold.PLP.ligand.clash>
0.0000

> <Gold.PLP.ligand.torsion>
0.9066

> <Gold.PLP.Chemscore.Hbond>
0.9750

> <Gold.PLP.Chemscore.CHOScore>
0.0000

> <Gold.PLP.Chemscore.Metal>
0.0000

> <Gold.Chemscore.Hbonds>
donor molecule, donor type, donor heavy atom, donor atom, acceptor molecule, acceptor atom, score
      P1  H  6896  6909       L1    22  1.00

> <Gold.PLP.Chemscore.Internal.Correction>
0.0255

> <Gold.Rescore>
     Score         DG    S(hbond)    S(metal)    S(lipo)     H(rot)  DE(clash)    DE(int)     intcor
     13.13     -15.18       0.98        0.00     120.69       3.01       0.18       1.87       ----

> <Gold.Chemscore.Fitness>
13.1302

> <Gold.Chemscore.DG>
-15.1780

> <Gold.Chemscore.ZeroCoef>
-5.4800

> <Gold.Chemscore.Hbond>
0.9845

> <Gold.Chemscore.Metal>
0.0000

> <Gold.Chemscore.Lipo>
120.6886

> <Gold.Chemscore.Internal_Hbond>
0.0000

> <Gold.Chemscore.DEClash>
0.1812

> <Gold.Chemscore.DEInternal>
1.8666

> <Gold.Chemscore.Rot>
3.0120

> <Gold.Chemscore.Internal.Correction>
   9.000000E+99

> <Gold.Chemscore.Hbonds>
donor molecule, donor type, donor heavy atom, donor atom, acceptor molecule, acceptor atom, score
      P1  H  6896  6909       L1    22  0.96

> <Gold.Chemscore.Hbond.Weighted>
-3.2883

> <Gold.Chemscore.Metal.Weighted>
-0.0000

> <Gold.Chemscore.Lipo.Weighted>
-14.1206

> <Gold.Chemscore.Internal_Hbond.Weighted>
0.0000

> <Gold.Chemscore.DEClash.Weighted>
0.1812

> <Gold.Chemscore.DEInternal.Weighted>
1.8666

> <Gold.Chemscore.Rot.Weighted>
7.7108

> <Gold.Chemscore.Internal.Correction.Weighted>
   9.000000E+99

> <Gold.Protein.RotatedTorsions>
[ 6907 6896 6895 6894 ] final  105.98 input  -60.11 | X-H torsion
[ 7974 7965 7964 7962 ] final  -40.47 input  175.53 | X-H torsion
[ 8008 7997 7996 7995 ] final  156.28 input   59.86 | X-H torsion
[ 10167 10162 10161 10158 ] final  -12.97 input  -65.29 | X-H torsion
[ 10718 10713 10712 10709 ] final   53.97 input   66.30 | X-H torsion
[ 10763 10752 10751 10750 ] final  -54.83 input  -60.55 | X-H torsion
[ 11005 11000 10999 10996 ] final  -52.01 input  -57.11 | X-H torsion

> <Gold.Protein.ActiveResidues>
 VAL166  LYS551  ARG553  GLY616  TRP617  ASP618  TYR619  PRO620  LYS621  CYS622 
 ASP623  PHE694  ASN695  SER759  ASP760  ASP761  ALA762  ILE779  LEU786  VAL792 
 PHE793  MET794  SER795  GLU796  ALA797  LYS798  CYS799  TRP800  GLU811  SER814 

> <Gold.Protein.RotatedAtoms>
  152.5210  133.9448  159.7643 H   0  0  0  0  0  0  0  0  0  0  0  0  # atno 6907 bound_to 6896
  150.9770  133.6276  159.2735 H   0  0  0  0  0  0  0  0  0  0  0  0  # atno 6908 bound_to 6896
  151.3467  135.0881  159.9442 H   0  0  0  0  0  0  0  0  0  0  0  0  # atno 6909 bound_to 6896
  146.0302  140.6741  142.9136 H   0  0  0  0  0  0  0  0  0  0  0  0  # atno 7974 bound_to 7965
  156.2431  140.1917  156.6930 H   0  0  0  0  0  0  0  0  0  0  0  0  # atno 8008 bound_to 7997
  154.6237  140.0605  156.9673 H   0  0  0  0  0  0  0  0  0  0  0  0  # atno 8009 bound_to 7997
  155.1820  140.3277  155.4376 H   0  0  0  0  0  0  0  0  0  0  0  0  # atno 8010 bound_to 7997
  140.7172  143.5476  150.9337 H   0  0  0  0  0  0  0  0  0  0  0  0  # atno 10167 bound_to 10162
  157.5215  130.8568  149.8565 H   0  0  0  0  0  0  0  0  0  0  0  0  # atno 10718 bound_to 10713
  154.1811  135.6443  153.5034 H   0  0  0  0  0  0  0  0  0  0  0  0  # atno 10763 bound_to 10752
  153.0059  135.5406  154.6513 H   0  0  0  0  0  0  0  0  0  0  0  0  # atno 10764 bound_to 10752
  154.5877  135.2931  155.0640 H   0  0  0  0  0  0  0  0  0  0  0  0  # atno 10765 bound_to 10752
  141.0901  133.6634  156.3961 H   0  0  0  0  0  0  0  0  0  0  0  0  # atno 11005 bound_to 11000
  144.7027  140.3721  143.7143 LP  0  0  0  0  0  0  0  0  0  0  0  0  # atno 17320 bound_to 7965
  145.7054  139.1671  143.2569 LP  0  0  0  0  0  0  0  0  0  0  0  0  # atno 17321 bound_to 7965
  139.9200  143.6617  152.3098 LP  0  0  0  0  0  0  0  0  0  0  0  0  # atno 17342 bound_to 10162
  139.7031  144.7632  151.1239 LP  0  0  0  0  0  0  0  0  0  0  0  0  # atno 17343 bound_to 10162
  156.0356  130.3752  150.1568 LP  0  0  0  0  0  0  0  0  0  0  0  0  # atno 17370 bound_to 10713
  156.9756  130.9848  151.3449 LP  0  0  0  0  0  0  0  0  0  0  0  0  # atno 17371 bound_to 10713
  140.5271  134.6248  157.5338 LP  0  0  0  0  0  0  0  0  0  0  0  0  # atno 17394 bound_to 11000
  139.9726  134.7268  156.0012 LP  0  0  0  0  0  0  0  0  0  0  0  0  # atno 17395 bound_to 11000

$$$$
