AV-unprocessed.smi:1123|AV-procd|sdf|4829|dock4
  -GOLD-   22720 3393D 1   1.00000     0.00000
 Structure written by MMmdl.
 37 38  0  0  0  0  0  0  0  0  1 V2000
  147.6772  132.9965  152.2255 C   0  0  0  0  0  0  0  0  0  0  0  0
  146.4946  133.8560  151.7333 C   0  0  2  0  0  0  0  0  0  0  0  0
  145.8769  134.7108  152.8514 C   0  0  0  0  0  0  0  0  0  0  0  0
  144.7946  134.4035  153.3524 O   0  0  0  0  0  0  0  0  0  0  0  0
  146.5804  135.7892  153.2321 N   0  0  0  0  0  0  0  0  0  0  0  0
  146.1674  136.7420  154.2548 C   0  0  0  0  0  0  0  0  0  0  0  0
  146.2266  138.1895  153.7319 C   0  0  0  0  0  0  0  0  0  0  0  0
  147.2827  139.0135  154.3175 N   0  0  0  0  0  0  0  0  0  0  0  0
  148.5691  138.3266  154.2658 C   0  0  0  0  0  0  0  0  0  0  0  0
  149.7000  139.1732  154.8750 C   0  0  0  0  0  0  0  0  0  0  0  0
  149.7718  140.4254  154.2016 O   0  0  0  0  0  0  0  0  0  0  0  0
  148.5501  141.1533  154.2678 C   0  0  0  0  0  0  0  0  0  0  0  0
  147.4121  140.3133  153.6615 C   0  0  0  0  0  0  0  0  0  0  0  0
  145.4626  133.0572  151.0830 N   0  0  0  0  0  0  0  0  0  0  0  0
  145.5762  131.9692  150.3180 C   0  0  0  0  0  0  0  0  0  0  0  0
  144.4227  131.5197  149.8441 N   0  0  0  0  0  0  0  0  0  0  0  0
  143.5784  132.4491  150.3820 C   0  0  0  0  0  0  0  0  0  0  0  0
  144.1499  133.3976  151.1236 N   0  0  0  0  0  0  0  0  0  0  0  0
  148.4619  133.6195  152.6564 H   0  0  0  0  0  0  0  0  0  0  0  0
  148.1210  132.4387  151.4004 H   0  0  0  0  0  0  0  0  0  0  0  0
  147.3738  132.2752  152.9855 H   0  0  0  0  0  0  0  0  0  0  0  0
  146.8890  134.5403  150.9803 H   0  0  0  0  0  0  0  0  0  0  0  0
  147.4609  135.9689  152.7719 H   0  0  0  0  0  0  0  0  0  0  0  0
  145.1524  136.4775  154.5492 H   0  0  0  0  0  0  0  0  0  0  0  0
  146.7898  136.6309  155.1444 H   0  0  0  0  0  0  0  0  0  0  0  0
  146.3775  138.1489  152.6523 H   0  0  0  0  0  0  0  0  0  0  0  0
  145.2592  138.6720  153.8799 H   0  0  0  0  0  0  0  0  0  0  0  0
  148.5037  137.3777  154.7992 H   0  0  0  0  0  0  0  0  0  0  0  0
  148.8182  138.0857  153.2312 H   0  0  0  0  0  0  0  0  0  0  0  0
  149.5319  139.3344  155.9410 H   0  0  0  0  0  0  0  0  0  0  0  0
  150.6558  138.6587  154.7748 H   0  0  0  0  0  0  0  0  0  0  0  0
  148.3289  141.4115  155.3044 H   0  0  0  0  0  0  0  0  0  0  0  0
  148.6627  142.0899  153.7217 H   0  0  0  0  0  0  0  0  0  0  0  0
  147.5965  140.1732  152.5954 H   0  0  0  0  0  0  0  0  0  0  0  0
  146.4834  140.8761  153.7478 H   0  0  0  0  0  0  0  0  0  0  0  0
  146.5234  131.4985  150.0997 H   0  0  0  0  0  0  0  0  0  0  0  0
  142.5112  132.4297  150.2170 H   0  0  0  0  0  0  0  0  0  0  0  0
  1  2  1  0  0  0  0
  1 19  1  0  0  0  0
  1 20  1  0  0  0  0
  1 21  1  0  0  0  0
  2  3  1  0  0  0  0
  2 14  1  0  0  0  0
  2 22  1  0  0  0  0
  3  4  2  0  0  0  0
  3  5  1  0  0  0  0
  5  6  1  0  0  0  0
  5 23  1  0  0  0  0
  6  7  1  0  0  0  0
  6 24  1  0  0  0  0
  6 25  1  0  0  0  0
  7  8  1  0  0  0  0
  7 26  1  0  0  0  0
  7 27  1  0  0  0  0
  8 13  1  0  0  0  0
  8  9  1  0  0  0  0
  9 10  1  0  0  0  0
  9 28  1  0  0  0  0
  9 29  1  0  0  0  0
 10 11  1  0  0  0  0
 10 30  1  0  0  0  0
 10 31  1  0  0  0  0
 11 12  1  0  0  0  0
 12 13  1  0  0  0  0
 12 32  1  0  0  0  0
 12 33  1  0  0  0  0
 13 34  1  0  0  0  0
 13 35  1  0  0  0  0
 14 18  1  0  0  0  0
 14 15  1  0  0  0  0
 15 16  2  0  0  0  0
 15 36  1  0  0  0  0
 16 17  1  0  0  0  0
 17 18  2  0  0  0  0
 17 37  1  0  0  0  0
M  END
> <s_m_source_file>
AV-unprocessed.smi

> <i_m_source_file_index>
1123

> <i_lp_mmshare_version>
43012

> <i_f3d_flags>
0

> <s_epik_input>
bjFbY0hdbltjSF1uMVtDQEhdKFtDSDNdKUMoPU8pW05IXVtDSDJdW0NIMl1OMltDSDJdW0NIMl1PW0NIMl1bQ0gyXTI=

> <s_epik_cmdline>
J2VwaWtfcHl0aG9uJywgJy1waCcsICc3LjAnLCAnLXRuJywgJzgnLCAnLW1hJywgJzIwMCcsICctbWV0YWxfYmluZGluZycsICctaW1hZScsICc8aW5maWxlLm1hZT4nLCAnLW9tYWUnLCAnPG91dGZpbGUubWFlPic=

> <r_lp_tautomer_probability>
1

> <r_epik_Ionization_Penalty>
0.211373

> <r_epik_Ionization_Penalty_Charging>
0

> <r_epik_Ionization_Penalty_Neutral>
0.211373

> <r_epik_State_Penalty>
0.201459

> <r_epik_Charging_Adjusted_Penalty>
0.201459

> <i_epik_Tot_Q>
0

> <i_epik_Tot_abs_Q>
0

> <r_epik_Metal_State_Penalty>
0.201458

> <b_epik_Metal_Only>
0

> <s_lp_Force_Field>
OPLS_2005

> <r_lp_Energy>
26.6349

> <b_lp_Chiralities_Consistent>
1

> <s_lp_Variant>
AV-unprocessed.smi:1123-1

> <Gold.Version>
5.8.1

> <Gold.Id.Protein>
6NUR|6NUR_protein|mol2

> <Gold.PLP.Fitness>
36.7688

> <Gold.PLP.PLP>
-26.2522

> <Gold.PLP.part.hbond>
-3.0000

> <Gold.PLP.part.metal>
0.0000

> <Gold.PLP.part.buried>
-3.1583

> <Gold.PLP.part.nonpolar>
-22.4241

> <Gold.PLP.part.repulsive>
1.6066

> <Gold.PLP.ligand.clash>
0.0000

> <Gold.PLP.ligand.torsion>
1.5549

> <Gold.PLP.Chemscore.Hbond>
2.1068

> <Gold.PLP.Chemscore.CHOScore>
2.3917

> <Gold.PLP.Chemscore.Metal>
0.0000

> <Gold.Chemscore.Hbonds>
donor molecule, donor type, donor heavy atom, donor atom, acceptor molecule, acceptor atom, score
      L1  H     5    23       P1  7948  1.00
      P1  H  7989  7998       L1    11  0.77
      P1  H 10785 10796       L1    16  0.37
      L1  C    15    36       P1 10747  1.00
      L1  C    17    37       P1 10186  0.84
      L1  C    17    37       P1 10952  0.45

> <Gold.PLP.Chemscore.Internal.Correction>
0.1311

> <Gold.Rescore>
     Score         DG    S(hbond)    S(metal)    S(lipo)     H(rot)  DE(clash)    DE(int)     intcor
      8.35     -11.62       2.41        0.00      40.75       2.61       0.04       3.23       ----

> <Gold.Chemscore.Fitness>
8.3524

> <Gold.Chemscore.DG>
-11.6208

> <Gold.Chemscore.ZeroCoef>
-5.4800

> <Gold.Chemscore.Hbond>
2.4113

> <Gold.Chemscore.Metal>
0.0000

> <Gold.Chemscore.Lipo>
40.7519

> <Gold.Chemscore.Internal_Hbond>
0.0000

> <Gold.Chemscore.DEClash>
0.0352

> <Gold.Chemscore.DEInternal>
3.2332

> <Gold.Chemscore.Rot>
2.6097

> <Gold.Chemscore.Internal.Correction>
   9.000000E+99

> <Gold.Chemscore.Hbonds>
donor molecule, donor type, donor heavy atom, donor atom, acceptor molecule, acceptor atom, score
      L1  H     5    23       P1  7948  1.00
      P1  H  7989  7998       L1    11  0.64
      P1  H 10785 10796       L1    16  0.24

> <Gold.Chemscore.Hbond.Weighted>
-8.0537

> <Gold.Chemscore.Metal.Weighted>
-0.0000

> <Gold.Chemscore.Lipo.Weighted>
-4.7680

> <Gold.Chemscore.Internal_Hbond.Weighted>
0.0000

> <Gold.Chemscore.DEClash.Weighted>
0.0352

> <Gold.Chemscore.DEInternal.Weighted>
3.2332

> <Gold.Chemscore.Rot.Weighted>
6.6809

> <Gold.Chemscore.Internal.Correction.Weighted>
   9.000000E+99

> <Gold.Protein.RotatedTorsions>
[ 6907 6896 6895 6894 ] final  155.51 input  -60.11 | X-H torsion
[ 7974 7965 7964 7962 ] final  -34.63 input  175.53 | X-H torsion
[ 8008 7997 7996 7995 ] final   -5.19 input   59.86 | X-H torsion
[ 10167 10162 10161 10158 ] final  134.69 input  -65.29 | X-H torsion
[ 10718 10713 10712 10709 ] final  -68.33 input   66.30 | X-H torsion
[ 10763 10752 10751 10750 ] final  -12.65 input  -60.55 | X-H torsion
[ 11005 11000 10999 10996 ] final   35.23 input  -57.11 | X-H torsion

> <Gold.Protein.ActiveResidues>
 VAL166  LYS551  ARG553  GLY616  TRP617  ASP618  TYR619  PRO620  LYS621  CYS622 
 ASP623  PHE694  ASN695  SER759  ASP760  ASP761  ALA762  ILE779  LEU786  VAL792 
 PHE793  MET794  SER795  GLU796  ALA797  LYS798  CYS799  TRP800  GLU811  SER814 

> <Gold.Protein.RotatedAtoms>
  152.0431  133.3986  159.4345 H   0  0  0  0  0  0  0  0  0  0  0  0  # atno 6907 bound_to 6896
  150.6874  134.3392  159.4870 H   0  0  0  0  0  0  0  0  0  0  0  0  # atno 6908 bound_to 6896
  152.1193  134.9217  160.0614 H   0  0  0  0  0  0  0  0  0  0  0  0  # atno 6909 bound_to 6896
  146.0813  140.6062  142.8907 H   0  0  0  0  0  0  0  0  0  0  0  0  # atno 7974 bound_to 7965
  154.6064  140.2465  155.7725 H   0  0  0  0  0  0  0  0  0  0  0  0  # atno 8008 bound_to 7997
  156.2344  140.2955  156.0224 H   0  0  0  0  0  0  0  0  0  0  0  0  # atno 8009 bound_to 7997
  155.2124  140.0397  157.2926 H   0  0  0  0  0  0  0  0  0  0  0  0  # atno 8010 bound_to 7997
  139.5246  144.6555  151.5175 H   0  0  0  0  0  0  0  0  0  0  0  0  # atno 10167 bound_to 10162
  156.0511  130.4293  150.1984 H   0  0  0  0  0  0  0  0  0  0  0  0  # atno 10718 bound_to 10713
  153.5015  135.7017  153.5829 H   0  0  0  0  0  0  0  0  0  0  0  0  # atno 10763 bound_to 10752
  153.3958  135.3884  155.1954 H   0  0  0  0  0  0  0  0  0  0  0  0  # atno 10764 bound_to 10752
  154.8710  135.3869  154.4486 H   0  0  0  0  0  0  0  0  0  0  0  0  # atno 10765 bound_to 10752
  140.2448  134.3372  155.7912 H   0  0  0  0  0  0  0  0  0  0  0  0  # atno 11005 bound_to 11000
  144.7295  140.4629  143.6948 LP  0  0  0  0  0  0  0  0  0  0  0  0  # atno 17320 bound_to 7965
  145.6212  139.1524  143.3021 LP  0  0  0  0  0  0  0  0  0  0  0  0  # atno 17321 bound_to 7965
  140.6378  143.8948  150.6664 LP  0  0  0  0  0  0  0  0  0  0  0  0  # atno 17342 bound_to 10162
  140.2273  143.3762  152.1594 LP  0  0  0  0  0  0  0  0  0  0  0  0  # atno 17343 bound_to 10162
  157.0067  130.9939  151.3376 LP  0  0  0  0  0  0  0  0  0  0  0  0  # atno 17370 bound_to 10713
  157.5438  130.8137  149.8061 LP  0  0  0  0  0  0  0  0  0  0  0  0  # atno 17371 bound_to 10713
  141.2207  133.7319  156.8943 LP  0  0  0  0  0  0  0  0  0  0  0  0  # atno 17394 bound_to 11000
  140.1617  134.9161  157.2723 LP  0  0  0  0  0  0  0  0  0  0  0  0  # atno 17395 bound_to 11000

$$$$
