AV-unprocessed.smi:2525|AV-procd|sdf|9933|dock9
  -GOLD-   2272013573D 1   1.00000     0.00000
 Structure written by MMmdl.
 44 45  0  0  0  0  0  0  0  0  1 V2000
  151.7400  142.8484  159.0312 C   0  0  0  0  0  0  0  0  0  0  0  0
  152.2488  142.4134  157.6462 C   0  0  0  0  0  0  0  0  0  0  0  0
  152.1135  140.9022  157.3373 C   0  0  0  0  0  0  0  0  0  0  0  0
  153.0975  140.1227  158.2489 C   0  0  0  0  0  0  0  0  0  0  0  0
  154.3356  140.9157  158.6986 C   0  0  0  0  0  0  0  0  0  0  0  0
  150.6372  140.4115  157.2677 C   0  0  2  0  0  0  0  0  0  0  0  0
  150.4629  138.9988  157.6000 N   0  0  0  0  0  0  0  0  0  0  0  0
  149.6045  138.5171  158.5108 C   0  0  0  0  0  0  0  0  0  0  0  0
  148.8743  139.2308  159.1976 O   0  0  0  0  0  0  0  0  0  0  0  0
  149.5737  136.9966  158.6848 C   0  0  0  0  0  0  0  0  0  0  0  0
  148.9247  136.6116  159.9276 N   0  0  0  0  0  0  0  0  0  0  0  0
  147.9167  135.6892  160.1216 C   0  0  0  0  0  0  0  0  0  0  0  0
  147.7139  135.7195  161.4717 C   0  0  0  0  0  0  0  0  0  0  0  0
  148.5923  136.6437  162.0350 N   0  0  0  0  0  0  0  0  0  0  0  0
  149.3122  137.1753  161.0977 N   0  0  0  0  0  0  0  0  0  0  0  0
  150.6502  140.6349  155.7461 C   0  0  2  0  0  0  0  0  0  0  0  0
  149.8612  139.7233  154.8068 C   0  0  0  0  0  0  0  0  0  0  0  0
  152.1870  140.5698  155.8215 C   0  0  2  0  0  0  0  0  0  0  0  0
  152.6887  139.2583  155.5870 O   0  0  0  0  0  0  0  0  0  0  0  0
  152.6908  138.8984  154.2162 C   0  0  0  0  0  0  0  0  0  0  0  0
  151.7498  143.9349  159.1169 H   0  0  0  0  0  0  0  0  0  0  0  0
  152.3653  142.4604  159.8345 H   0  0  0  0  0  0  0  0  0  0  0  0
  150.7176  142.5154  159.2087 H   0  0  0  0  0  0  0  0  0  0  0  0
  151.6930  142.9904  156.9071 H   0  0  0  0  0  0  0  0  0  0  0  0
  153.2790  142.7451  157.5213 H   0  0  0  0  0  0  0  0  0  0  0  0
  152.5842  139.7225  159.1225 H   0  0  0  0  0  0  0  0  0  0  0  0
  153.4717  139.2390  157.7327 H   0  0  0  0  0  0  0  0  0  0  0  0
  155.0379  140.2633  159.2178 H   0  0  0  0  0  0  0  0  0  0  0  0
  154.0775  141.7191  159.3877 H   0  0  0  0  0  0  0  0  0  0  0  0
  154.8599  141.3519  157.8481 H   0  0  0  0  0  0  0  0  0  0  0  0
  149.9245  141.0692  157.7672 H   0  0  0  0  0  0  0  0  0  0  0  0
  151.0335  138.3397  157.0898 H   0  0  0  0  0  0  0  0  0  0  0  0
  149.0501  136.5428  157.8417 H   0  0  0  0  0  0  0  0  0  0  0  0
  150.5899  136.5994  158.6848 H   0  0  0  0  0  0  0  0  0  0  0  0
  147.4616  135.1199  159.3246 H   0  0  0  0  0  0  0  0  0  0  0  0
  147.0183  135.1583  162.0781 H   0  0  0  0  0  0  0  0  0  0  0  0
  150.3632  141.6706  155.5577 H   0  0  0  0  0  0  0  0  0  0  0  0
  150.1711  138.6810  154.8884 H   0  0  0  0  0  0  0  0  0  0  0  0
  149.9918  140.0234  153.7674 H   0  0  0  0  0  0  0  0  0  0  0  0
  148.7944  139.7632  155.0269 H   0  0  0  0  0  0  0  0  0  0  0  0
  152.6998  141.3403  155.2423 H   0  0  0  0  0  0  0  0  0  0  0  0
  153.0517  137.8757  154.1081 H   0  0  0  0  0  0  0  0  0  0  0  0
  153.3520  139.5497  153.6430 H   0  0  0  0  0  0  0  0  0  0  0  0
  151.6915  138.9504  153.7840 H   0  0  0  0  0  0  0  0  0  0  0  0
  1  2  1  0  0  0  0
  1 21  1  0  0  0  0
  1 22  1  0  0  0  0
  1 23  1  0  0  0  0
  2  3  1  0  0  0  0
  2 24  1  0  0  0  0
  2 25  1  0  0  0  0
  3 18  1  0  0  0  0
  3  4  1  0  0  0  0
  3  6  1  0  0  0  0
  4  5  1  0  0  0  0
  4 26  1  0  0  0  0
  4 27  1  0  0  0  0
  5 28  1  0  0  0  0
  5 29  1  0  0  0  0
  5 30  1  0  0  0  0
  6  7  1  0  0  0  0
  6 16  1  0  0  0  0
  6 31  1  0  0  0  0
  7  8  1  0  0  0  0
  7 32  1  0  0  0  0
  8  9  2  0  0  0  0
  8 10  1  0  0  0  0
 10 11  1  0  0  0  0
 10 33  1  0  0  0  0
 10 34  1  0  0  0  0
 11 15  1  0  0  0  0
 11 12  1  0  0  0  0
 12 13  2  0  0  0  0
 12 35  1  0  0  0  0
 13 14  1  0  0  0  0
 13 36  1  0  0  0  0
 14 15  2  0  0  0  0
 16 17  1  0  0  0  0
 16 18  1  0  0  0  0
 16 37  1  0  0  0  0
 17 38  1  0  0  0  0
 17 39  1  0  0  0  0
 17 40  1  0  0  0  0
 18 19  1  0  0  0  0
 18 41  1  0  0  0  0
 19 20  1  0  0  0  0
 20 42  1  0  0  0  0
 20 43  1  0  0  0  0
 20 44  1  0  0  0  0
M  END
> <s_m_source_file>
AV-unprocessed.smi

> <i_m_source_file_index>
2525

> <i_lp_mmshare_version>
43012

> <i_f3d_flags>
0

> <s_epik_input>
W0NIM11PW0NAQEhdMVtDQEhdKFtDSDNdKVtDQEBIXShDMShbQ0gyXVtDSDNdKVtDSDJdW0NIM10pW05IXUMoPU8pW0NIMl1uMltjSF1bY0hdbm4y

> <s_epik_cmdline>
J2VwaWtfcHl0aG9uJywgJy1waCcsICc3LjAnLCAnLXRuJywgJzgnLCAnLW1hJywgJzIwMCcsICctbWV0YWxfYmluZGluZycsICctaW1hZScsICc8aW5maWxlLm1hZT4nLCAnLW9tYWUnLCAnPG91dGZpbGUubWFlPic=

> <r_lp_tautomer_probability>
1

> <r_epik_Ionization_Penalty>
1.18045e-06

> <r_epik_Ionization_Penalty_Charging>
0

> <r_epik_Ionization_Penalty_Neutral>
1.18045e-06

> <r_epik_State_Penalty>
-0

> <r_epik_Charging_Adjusted_Penalty>
0

> <i_epik_Tot_Q>
0

> <i_epik_Tot_abs_Q>
0

> <r_epik_Metal_State_Penalty>
-0

> <b_epik_Metal_Only>
0

> <s_lp_Force_Field>
OPLS_2005

> <r_lp_Energy>
29.0326

> <b_lp_Chiralities_Consistent>
1

> <s_lp_Variant>
AV-unprocessed.smi:2525-8

> <Gold.Version>
5.8.1

> <Gold.Id.Protein>
6NUR|6NUR_protein|mol2

> <Gold.PLP.Fitness>
35.9137

> <Gold.PLP.PLP>
-34.0999

> <Gold.PLP.part.hbond>
-4.1875

> <Gold.PLP.part.metal>
0.0000

> <Gold.PLP.part.buried>
-5.0090

> <Gold.PLP.part.nonpolar>
-26.2481

> <Gold.PLP.part.repulsive>
0.0521

> <Gold.PLP.ligand.clash>
0.0000

> <Gold.PLP.ligand.torsion>
1.2134

> <Gold.PLP.Chemscore.Hbond>
1.2012

> <Gold.PLP.Chemscore.CHOScore>
0.0000

> <Gold.PLP.Chemscore.Metal>
0.0000

> <Gold.Chemscore.Hbonds>
donor molecule, donor type, donor heavy atom, donor atom, acceptor molecule, acceptor atom, score
      P1  H  7997  8008       L1    19  0.07

> <Gold.PLP.Chemscore.Internal.Correction>
0.6369

> <Gold.Rescore>
     Score         DG    S(hbond)    S(metal)    S(lipo)     H(rot)  DE(clash)    DE(int)     intcor
     10.44     -12.46       0.96        0.00      75.65       1.98       0.05       1.98       ----

> <Gold.Chemscore.Fitness>
10.4374

> <Gold.Chemscore.DG>
-12.4614

> <Gold.Chemscore.ZeroCoef>
-5.4800

> <Gold.Chemscore.Hbond>
0.9591

> <Gold.Chemscore.Metal>
0.0000

> <Gold.Chemscore.Lipo>
75.6489

> <Gold.Chemscore.Internal_Hbond>
0.0000

> <Gold.Chemscore.DEClash>
0.0456

> <Gold.Chemscore.DEInternal>
1.9783

> <Gold.Chemscore.Rot>
1.9817

> <Gold.Chemscore.Internal.Correction>
   9.000000E+99

> <Gold.Chemscore.Hbond.Weighted>
-3.2035

> <Gold.Chemscore.Metal.Weighted>
-0.0000

> <Gold.Chemscore.Lipo.Weighted>
-8.8509

> <Gold.Chemscore.Internal_Hbond.Weighted>
0.0000

> <Gold.Chemscore.DEClash.Weighted>
0.0456

> <Gold.Chemscore.DEInternal.Weighted>
1.9783

> <Gold.Chemscore.Rot.Weighted>
5.0731

> <Gold.Chemscore.Internal.Correction.Weighted>
   9.000000E+99

> <Gold.Protein.RotatedTorsions>
[ 6907 6896 6895 6894 ] final  -80.84 input  -60.11 | X-H torsion
[ 7974 7965 7964 7962 ] final   81.59 input  175.53 | X-H torsion
[ 8008 7997 7996 7995 ] final    3.88 input   59.86 | X-H torsion
[ 10167 10162 10161 10158 ] final -144.68 input  -65.29 | X-H torsion
[ 10718 10713 10712 10709 ] final  -11.87 input   66.30 | X-H torsion
[ 10763 10752 10751 10750 ] final  -58.26 input  -60.55 | X-H torsion
[ 11005 11000 10999 10996 ] final  -14.46 input  -57.11 | X-H torsion

> <Gold.Protein.ActiveResidues>
 VAL166  LYS551  ARG553  GLY616  TRP617  ASP618  TYR619  PRO620  LYS621  CYS622 
 ASP623  PHE694  ASN695  SER759  ASP760  ASP761  ALA762  ILE779  LEU786  VAL792 
 PHE793  MET794  SER795  GLU796  ALA797  LYS798  CYS799  TRP800  GLU811  SER814 

> <Gold.Protein.RotatedAtoms>
  150.6922  134.3908  159.5075 H   0  0  0  0  0  0  0  0  0  0  0  0  # atno 6907 bound_to 6896
  152.1697  134.8842  160.0544 H   0  0  0  0  0  0  0  0  0  0  0  0  # atno 6908 bound_to 6896
  151.9873  133.3743  159.4167 H   0  0  0  0  0  0  0  0  0  0  0  0  # atno 6909 bound_to 6896
  145.6362  139.2415  143.2056 H   0  0  0  0  0  0  0  0  0  0  0  0  # atno 7974 bound_to 7965
  154.7090  140.2689  155.6647 H   0  0  0  0  0  0  0  0  0  0  0  0  # atno 8008 bound_to 7997
  156.2789  140.2757  156.1650 H   0  0  0  0  0  0  0  0  0  0  0  0  # atno 8009 bound_to 7997
  155.0660  140.0371  157.2583 H   0  0  0  0  0  0  0  0  0  0  0  0  # atno 8010 bound_to 7997
  139.7876  143.8012  152.2646 H   0  0  0  0  0  0  0  0  0  0  0  0  # atno 10167 bound_to 10162
  156.6528  130.4959  149.6056 H   0  0  0  0  0  0  0  0  0  0  0  0  # atno 10718 bound_to 10713
  154.2353  135.6353  153.5189 H   0  0  0  0  0  0  0  0  0  0  0  0  # atno 10763 bound_to 10752
  152.9940  135.5529  154.5968 H   0  0  0  0  0  0  0  0  0  0  0  0  # atno 10764 bound_to 10752
  154.5461  135.2898  155.1026 H   0  0  0  0  0  0  0  0  0  0  0  0  # atno 10765 bound_to 10752
  140.7867  133.8320  155.9341 H   0  0  0  0  0  0  0  0  0  0  0  0  # atno 11005 bound_to 11000
  146.1317  140.7176  142.9409 LP  0  0  0  0  0  0  0  0  0  0  0  0  # atno 17320 bound_to 7965
  144.7175  140.4259  143.7033 LP  0  0  0  0  0  0  0  0  0  0  0  0  # atno 17321 bound_to 7965
  139.8093  144.7342  150.9718 LP  0  0  0  0  0  0  0  0  0  0  0  0  # atno 17342 bound_to 10162
  140.7820  143.4266  151.0758 LP  0  0  0  0  0  0  0  0  0  0  0  0  # atno 17343 bound_to 10162
  156.2071  130.6656  151.1230 LP  0  0  0  0  0  0  0  0  0  0  0  0  # atno 17370 bound_to 10713
  157.7135  131.0722  150.6413 LP  0  0  0  0  0  0  0  0  0  0  0  0  # atno 17371 bound_to 10713
  140.9430  134.1876  157.4784 LP  0  0  0  0  0  0  0  0  0  0  0  0  # atno 17394 bound_to 11000
  139.8736  134.9879  156.5390 LP  0  0  0  0  0  0  0  0  0  0  0  0  # atno 17395 bound_to 11000

$$$$
