AV-unprocessed.smi:2159|AV-procd|sdf|8794|dock2
  -GOLD-   2272011573D 1   1.00000     0.00000
 Structure written by MMmdl.
 48 50  0  0  0  0  0  0  0  0  2 V2000
  149.4492  135.7506  158.9998 O   0  0  0  0  0  0  0  0  0  0  0  0
  149.7899  136.6758  158.2618 C   0  0  0  0  0  0  0  0  0  0  0  0
  150.3931  137.9563  158.8460 C   0  0  0  0  0  0  0  0  0  0  0  0
  151.4242  138.6155  157.9081 C   0  0  0  0  0  0  0  0  0  0  0  0
  151.5907  140.0380  158.2159 N   0  0  0  0  0  0  0  0  0  0  0  0
  150.9356  141.0320  157.5865 C   0  0  0  0  0  0  0  0  0  0  0  0
  150.0471  140.9207  156.7424 O   0  0  0  0  0  0  0  0  0  0  0  0
  151.5223  142.3644  158.0284 C   0  0  1  0  0  0  0  0  0  0  0  0
  150.6759  143.6298  158.1743 C   0  0  0  0  0  0  0  0  0  0  0  0
  151.6357  144.7615  158.6287 C   0  0  0  0  0  0  0  0  0  0  0  0
  152.5185  144.3891  159.8565 C   0  0  0  0  0  0  0  0  0  0  0  0
  153.2061  143.0026  159.7419 C   0  0  0  0  0  0  0  0  0  0  0  0
  152.1138  141.9972  159.3751 C   0  0  2  0  0  0  0  0  0  0  0  0
  152.3952  140.5140  159.1857 C   0  0  0  0  0  0  0  0  0  0  0  0
  153.1833  139.8735  159.8808 O   0  0  0  0  0  0  0  0  0  0  0  0
  149.6515  136.6366  156.9275 N   0  0  0  0  0  0  0  0  0  0  0  0
  149.0951  135.5142  156.1811 C   0  0  0  0  0  0  0  0  0  0  0  0
  150.1651  134.8219  155.3199 C   0  0  0  0  0  0  0  0  0  0  0  0
  149.6290  133.5906  154.6166 C   0  0  0  0  0  0  0  0  0  0  0  0
  149.9021  132.2827  155.0731 C   0  0  0  0  0  0  0  0  0  0  0  0
  149.3677  131.1827  154.3699 C   0  0  0  0  0  0  0  0  0  0  0  0
  148.5724  131.4131  153.2280 C   0  0  0  0  0  0  0  0  0  0  0  0
  148.3303  132.7401  152.8177 C   0  0  0  0  0  0  0  0  0  0  0  0
  148.8598  133.7674  153.5178 N   0  3  0  0  0  0  0  0  0  0  0  0
  149.5926  138.6647  159.0655 H   0  0  0  0  0  0  0  0  0  0  0  0
  150.8608  137.7074  159.7991 H   0  0  0  0  0  0  0  0  0  0  0  0
  152.3891  138.1112  157.9883 H   0  0  0  0  0  0  0  0  0  0  0  0
  151.1145  138.4961  156.8680 H   0  0  0  0  0  0  0  0  0  0  0  0
  152.3207  142.5751  157.3130 H   0  0  0  0  0  0  0  0  0  0  0  0
  150.2014  143.8908  157.2279 H   0  0  0  0  0  0  0  0  0  0  0  0
  149.8787  143.4829  158.9040 H   0  0  0  0  0  0  0  0  0  0  0  0
  152.2930  145.0151  157.7960 H   0  0  0  0  0  0  0  0  0  0  0  0
  151.0653  145.6653  158.8444 H   0  0  0  0  0  0  0  0  0  0  0  0
  153.2705  145.1616  160.0192 H   0  0  0  0  0  0  0  0  0  0  0  0
  151.8895  144.3929  160.7475 H   0  0  0  0  0  0  0  0  0  0  0  0
  153.9886  143.0213  158.9821 H   0  0  0  0  0  0  0  0  0  0  0  0
  153.6809  142.7341  160.6861 H   0  0  0  0  0  0  0  0  0  0  0  0
  151.3427  142.0430  160.1478 H   0  0  0  0  0  0  0  0  0  0  0  0
  149.9560  137.4383  156.3937 H   0  0  0  0  0  0  0  0  0  0  0  0
  148.6748  134.8042  156.8940 H   0  0  0  0  0  0  0  0  0  0  0  0
  148.2656  135.8588  155.5612 H   0  0  0  0  0  0  0  0  0  0  0  0
  150.5505  135.5099  154.5660 H   0  0  0  0  0  0  0  0  0  0  0  0
  151.0172  134.5387  155.9395 H   0  0  0  0  0  0  0  0  0  0  0  0
  150.5121  132.1219  155.9503 H   0  0  0  0  0  0  0  0  0  0  0  0
  149.5658  130.1742  154.7024 H   0  0  0  0  0  0  0  0  0  0  0  0
  148.1541  130.5842  152.6758 H   0  0  0  0  0  0  0  0  0  0  0  0
  147.7344  133.0091  151.9576 H   0  0  0  0  0  0  0  0  0  0  0  0
  148.6717  134.7199  153.2035 H   0  0  0  0  0  0  0  0  0  0  0  0
  1  2  2  0  0  0  0
  2  3  1  0  0  0  0
  2 16  1  0  0  0  0
  3  4  1  0  0  0  0
  3 25  1  0  0  0  0
  3 26  1  0  0  0  0
  4  5  1  0  0  0  0
  4 27  1  0  0  0  0
  4 28  1  0  0  0  0
  5 14  1  0  0  0  0
  5  6  1  0  0  0  0
  6  7  2  0  0  0  0
  6  8  1  0  0  0  0
  8 13  1  0  0  0  0
  8  9  1  0  0  0  0
  8 29  1  0  0  0  0
  9 10  1  0  0  0  0
  9 30  1  0  0  0  0
  9 31  1  0  0  0  0
 10 11  1  0  0  0  0
 10 32  1  0  0  0  0
 10 33  1  0  0  0  0
 11 12  1  0  0  0  0
 11 34  1  0  0  0  0
 11 35  1  0  0  0  0
 12 13  1  0  0  0  0
 12 36  1  0  0  0  0
 12 37  1  0  0  0  0
 13 14  1  0  0  0  0
 13 38  1  0  0  0  0
 14 15  2  0  0  0  0
 16 17  1  0  0  0  0
 16 39  1  0  0  0  0
 17 18  1  0  0  0  0
 17 40  1  0  0  0  0
 17 41  1  0  0  0  0
 18 19  1  0  0  0  0
 18 42  1  0  0  0  0
 18 43  1  0  0  0  0
 19 24  1  0  0  0  0
 19 20  2  0  0  0  0
 20 21  1  0  0  0  0
 20 44  1  0  0  0  0
 21 22  2  0  0  0  0
 21 45  1  0  0  0  0
 22 23  1  0  0  0  0
 22 46  1  0  0  0  0
 23 24  2  0  0  0  0
 23 47  1  0  0  0  0
 24 48  1  0  0  0  0
M  CHG  1  24   1
M  END
> <s_m_source_file>
AV-unprocessed.smi

> <i_m_source_file_index>
2159

> <i_lp_mmshare_version>
43012

> <i_f3d_flags>
0

> <s_epik_input>
bjFbY0hdW2NIXVtjSF1bY0hdYzFbQ0gyXVtDSDJdW05IXUMoPU8pW0NIMl1bQ0gyXU4oQzI9TylDKD1PKVtDQEhdKFtDQEBIXTIzKVtDSDJdW0NIMl1bQ0gyXVtDSDJdMw==

> <s_epik_cmdline>
J2VwaWtfcHl0aG9uJywgJy1waCcsICc3LjAnLCAnLXRuJywgJzgnLCAnLW1hJywgJzIwMCcsICctbWV0YWxfYmluZGluZycsICctaW1hZScsICc8aW5maWxlLm1hZT4nLCAnLW9tYWUnLCAnPG91dGZpbGUubWFlPic=

> <r_lp_tautomer_probability>
1

> <r_epik_Ionization_Penalty>
1.85146

> <r_epik_Ionization_Penalty_Charging>
1.85146

> <r_epik_Ionization_Penalty_Neutral>
2.95922e-08

> <r_epik_State_Penalty>
1.96899

> <r_epik_Charging_Adjusted_Penalty>
3.82044

> <i_epik_Tot_Q>
1

> <i_epik_Tot_abs_Q>
1

> <r_epik_Metal_State_Penalty>
1.99467

> <b_epik_Metal_Only>
0

> <s_lp_Force_Field>
OPLS_2005

> <r_lp_Energy>
36.2537

> <b_lp_Chiralities_Consistent>
1

> <s_lp_Variant>
AV-unprocessed.smi:2159-4

> <Gold.Version>
5.8.1

> <Gold.Id.Protein>
6NUR|6NUR_protein|mol2

> <Gold.PLP.Fitness>
50.3972

> <Gold.PLP.PLP>
-43.4863

> <Gold.PLP.part.hbond>
-2.0000

> <Gold.PLP.part.metal>
0.0000

> <Gold.PLP.part.buried>
-3.9895

> <Gold.PLP.part.nonpolar>
-37.4964

> <Gold.PLP.part.repulsive>
0.0807

> <Gold.PLP.ligand.clash>
0.0000

> <Gold.PLP.ligand.torsion>
1.0869

> <Gold.PLP.Chemscore.Hbond>
2.9840

> <Gold.PLP.Chemscore.CHOScore>
0.0000

> <Gold.PLP.Chemscore.Metal>
0.0000

> <Gold.Chemscore.Hbonds>
donor molecule, donor type, donor heavy atom, donor atom, acceptor molecule, acceptor atom, score
      L1  H    24    48       P1  7948  1.95
      P1  H  6896  6909       L1     1  1.00

> <Gold.PLP.Chemscore.Internal.Correction>
0.1328

> <Gold.Rescore>
     Score         DG    S(hbond)    S(metal)    S(lipo)     H(rot)  DE(clash)    DE(int)     intcor
     17.09     -18.31       1.55        0.00     111.21       2.10       0.19       1.02       ----

> <Gold.Chemscore.Fitness>
17.0925

> <Gold.Chemscore.DG>
-18.3067

> <Gold.Chemscore.ZeroCoef>
-5.4800

> <Gold.Chemscore.Hbond>
1.5509

> <Gold.Chemscore.Metal>
0.0000

> <Gold.Chemscore.Lipo>
111.2139

> <Gold.Chemscore.Internal_Hbond>
0.0000

> <Gold.Chemscore.DEClash>
0.1928

> <Gold.Chemscore.DEInternal>
1.0214

> <Gold.Chemscore.Rot>
2.0959

> <Gold.Chemscore.Internal.Correction>
   9.000000E+99

> <Gold.Chemscore.Hbonds>
donor molecule, donor type, donor heavy atom, donor atom, acceptor molecule, acceptor atom, score
      L1  H    24    48       P1  7948  0.31
      P1  H  6896  6909       L1     1  0.93

> <Gold.Chemscore.Hbond.Weighted>
-5.1802

> <Gold.Chemscore.Metal.Weighted>
-0.0000

> <Gold.Chemscore.Lipo.Weighted>
-13.0120

> <Gold.Chemscore.Internal_Hbond.Weighted>
0.0000

> <Gold.Chemscore.DEClash.Weighted>
0.1928

> <Gold.Chemscore.DEInternal.Weighted>
1.0214

> <Gold.Chemscore.Rot.Weighted>
5.3655

> <Gold.Chemscore.Internal.Correction.Weighted>
   9.000000E+99

> <Gold.Protein.RotatedTorsions>
[ 6907 6896 6895 6894 ] final   62.77 input  -60.11 | X-H torsion
[ 7974 7965 7964 7962 ] final  105.48 input  175.53 | X-H torsion
[ 8008 7997 7996 7995 ] final -170.05 input   59.86 | X-H torsion
[ 10167 10162 10161 10158 ] final   71.51 input  -65.29 | X-H torsion
[ 10718 10713 10712 10709 ] final   51.71 input   66.30 | X-H torsion
[ 10763 10752 10751 10750 ] final   49.15 input  -60.55 | X-H torsion
[ 11005 11000 10999 10996 ] final  107.45 input  -57.11 | X-H torsion

> <Gold.Protein.ActiveResidues>
 VAL166  LYS551  ARG553  GLY616  TRP617  ASP618  TYR619  PRO620  LYS621  CYS622 
 ASP623  PHE694  ASN695  SER759  ASP760  ASP761  ALA762  ILE779  LEU786  VAL792 
 PHE793  MET794  SER795  GLU796  ALA797  LYS798  CYS799  TRP800  GLU811  SER814 

> <Gold.Protein.RotatedAtoms>
  152.4199  134.5974  159.9990 H   0  0  0  0  0  0  0  0  0  0  0  0  # atno 6907 bound_to 6896
  151.6127  133.3340  159.3079 H   0  0  0  0  0  0  0  0  0  0  0  0  # atno 6908 bound_to 6896
  150.8087  134.7267  159.6734 H   0  0  0  0  0  0  0  0  0  0  0  0  # atno 6909 bound_to 6896
  145.3192  139.2518  143.3721 H   0  0  0  0  0  0  0  0  0  0  0  0  # atno 7974 bound_to 7965
  155.9131  140.1061  157.1264 H   0  0  0  0  0  0  0  0  0  0  0  0  # atno 8008 bound_to 7997
  154.4042  140.1270  156.4648 H   0  0  0  0  0  0  0  0  0  0  0  0  # atno 8009 bound_to 7997
  155.7286  140.3469  155.5051 H   0  0  0  0  0  0  0  0  0  0  0  0  # atno 8010 bound_to 7997
  140.0454  144.5356  150.7403 H   0  0  0  0  0  0  0  0  0  0  0  0  # atno 10167 bound_to 10162
  157.5006  130.8435  149.8312 H   0  0  0  0  0  0  0  0  0  0  0  0  # atno 10718 bound_to 10713
  152.9788  135.5921  154.4043 H   0  0  0  0  0  0  0  0  0  0  0  0  # atno 10763 bound_to 10752
  154.3685  135.2767  155.2282 H   0  0  0  0  0  0  0  0  0  0  0  0  # atno 10764 bound_to 10752
  154.4248  135.6050  153.6086 H   0  0  0  0  0  0  0  0  0  0  0  0  # atno 10765 bound_to 10752
  139.8828  134.9401  156.5821 H   0  0  0  0  0  0  0  0  0  0  0  0  # atno 11005 bound_to 11000
  146.3089  140.3745  142.8677 LP  0  0  0  0  0  0  0  0  0  0  0  0  # atno 17320 bound_to 7965
  144.8953  140.7575  143.5901 LP  0  0  0  0  0  0  0  0  0  0  0  0  # atno 17321 bound_to 7965
  140.7241  143.2618  151.4179 LP  0  0  0  0  0  0  0  0  0  0  0  0  # atno 17342 bound_to 10162
  139.5987  144.1342  152.2173 LP  0  0  0  0  0  0  0  0  0  0  0  0  # atno 17343 bound_to 10162
  156.0227  130.3790  150.1914 LP  0  0  0  0  0  0  0  0  0  0  0  0  # atno 17370 bound_to 10713
  157.0104  130.9949  151.3367 LP  0  0  0  0  0  0  0  0  0  0  0  0  # atno 17371 bound_to 10713
  140.8019  133.8498  155.8734 LP  0  0  0  0  0  0  0  0  0  0  0  0  # atno 17394 bound_to 11000
  140.9584  134.1687  157.4673 LP  0  0  0  0  0  0  0  0  0  0  0  0  # atno 17395 bound_to 11000

$$$$
