AV-unprocessed.smi:157|AV-procd|sdf|1307|dock5
  -GOLD-   2262018593D 1   1.00000     0.00000
 Structure written by MMmdl.
 36 38  0  0  0  0  0  0  0  0  2 V2000
  150.8408  140.1669  153.8387 O   0  0  0  0  0  0  0  0  0  0  0  0
  150.4010  139.1436  154.7059 C   0  0  0  0  0  0  0  0  0  0  0  0
  151.5768  138.6268  155.5495 C   0  0  1  0  0  0  0  0  0  0  0  0
  152.0591  139.6830  156.3736 O   0  0  0  0  0  0  0  0  0  0  0  0
  152.6155  139.1108  157.5046 C   0  0  1  0  0  0  0  0  0  0  0  0
  152.7030  140.1523  158.5723 N   0  0  0  0  0  0  0  0  0  0  0  0
  153.1782  139.9539  159.8188 C   0  0  0  0  0  0  0  0  0  0  0  0
  153.1687  141.0315  160.5850 N   0  3  0  0  0  0  0  0  0  0  0  0
  152.6563  142.0543  159.8152 C   0  0  0  0  0  0  0  0  0  0  0  0
  152.3660  141.4891  158.5705 C   0  0  0  0  0  0  0  0  0  0  0  0
  151.8247  142.0861  157.4205 N   0  0  0  0  0  0  0  0  0  0  0  0
  151.2175  143.2277  157.4383 C   0  0  0  0  0  0  0  0  0  0  0  0
  151.0558  144.1131  158.4907 N   0  0  0  0  0  0  0  0  0  0  0  0
  152.1465  144.5072  159.3644 C   0  0  0  0  0  0  0  0  0  0  0  0
  152.5361  143.4323  160.3880 C   0  0  1  0  0  0  0  0  0  0  0  0
  151.6319  143.4920  161.4719 O   0  0  0  0  0  0  0  0  0  0  0  0
  151.6709  137.9825  157.8954 C   0  0  0  0  0  0  0  0  0  0  0  0
  151.1775  137.5055  156.5357 C   0  0  2  0  0  0  0  0  0  0  0  0
  151.8094  136.2894  156.1874 O   0  0  0  0  0  0  0  0  0  0  0  0
  152.3923  138.2867  154.9074 H   0  0  0  0  0  0  0  0  0  0  0  0
  153.6376  138.7796  157.3118 H   0  0  0  0  0  0  0  0  0  0  0  0
  153.5095  143.7055  160.7966 H   0  0  0  0  0  0  0  0  0  0  0  0
  150.0985  137.3468  156.5636 H   0  0  0  0  0  0  0  0  0  0  0  0
  150.4488  140.0317  152.9896 H   0  0  0  0  0  0  0  0  0  0  0  0
  149.5863  139.5012  155.3367 H   0  0  0  0  0  0  0  0  0  0  0  0
  150.0031  138.3406  154.0846 H   0  0  0  0  0  0  0  0  0  0  0  0
  153.5356  138.9975  160.1564 H   0  0  0  0  0  0  0  0  0  0  0  0
  150.7569  143.5946  156.5199 H   0  0  0  0  0  0  0  0  0  0  0  0
  150.3691  144.8489  158.4024 H   0  0  0  0  0  0  0  0  0  0  0  0
  153.0094  144.7203  158.7315 H   0  0  0  0  0  0  0  0  0  0  0  0
  151.8988  145.4457  159.8617 H   0  0  0  0  0  0  0  0  0  0  0  0
  151.9099  142.8780  162.1340 H   0  0  0  0  0  0  0  0  0  0  0  0
  152.1853  137.2256  158.4891 H   0  0  0  0  0  0  0  0  0  0  0  0
  150.8373  138.3787  158.4761 H   0  0  0  0  0  0  0  0  0  0  0  0
  151.4358  135.5943  156.7073 H   0  0  0  0  0  0  0  0  0  0  0  0
  153.4868  141.0900  161.5440 H   0  0  0  0  0  0  0  0  0  0  0  0
  1  2  1  0  0  0  0
  1 24  1  0  0  0  0
  2  3  1  0  0  0  0
  2 25  1  0  0  0  0
  2 26  1  0  0  0  0
  3 20  1  0  0  0  0
  3 18  1  0  0  0  0
  3  4  1  0  0  0  0
  4  5  1  0  0  0  0
  5 21  1  0  0  0  0
  5  6  1  0  0  0  0
  5 17  1  0  0  0  0
  6 10  1  0  0  0  0
  6  7  1  0  0  0  0
  7  8  2  0  0  0  0
  7 27  1  0  0  0  0
  8  9  1  0  0  0  0
  8 36  1  0  0  0  0
  9 15  1  0  0  0  0
  9 10  2  0  0  0  0
 10 11  1  0  0  0  0
 11 12  2  0  0  0  0
 12 13  1  0  0  0  0
 12 28  1  0  0  0  0
 13 14  1  0  0  0  0
 13 29  1  0  0  0  0
 14 15  1  0  0  0  0
 14 30  1  0  0  0  0
 14 31  1  0  0  0  0
 15 22  1  0  0  0  0
 15 16  1  0  0  0  0
 16 32  1  0  0  0  0
 17 18  1  0  0  0  0
 17 33  1  0  0  0  0
 17 34  1  0  0  0  0
 18 23  1  0  0  0  0
 18 19  1  0  0  0  0
 19 35  1  0  0  0  0
M  CHG  1   8   1
M  END
> <s_m_source_file>
AV-unprocessed.smi

> <i_m_source_file_index>
157

> <i_lp_mmshare_version>
43012

> <i_f3d_flags>
0

> <s_epik_input>
W09IXVtDSDJdW0NASF0xT1tDQEhdKFtDSDJdW0NAQEhdMVtPSF0pbihbY0hdbjIpYyhjMjMpTj1bQ0hdW05IXVtDSDJdW0NASF0zW09IXQ==

> <s_epik_cmdline>
J2VwaWtfcHl0aG9uJywgJy1waCcsICc3LjAnLCAnLXRuJywgJzgnLCAnLW1hJywgJzIwMCcsICctbWV0YWxfYmluZGluZycsICctaW1hZScsICc8aW5maWxlLm1hZT4nLCAnLW9tYWUnLCAnPG91dGZpbGUubWFlPic=

> <r_epik_Ionization_Penalty>
1.68594

> <r_epik_Ionization_Penalty_Charging>
0

> <r_epik_Ionization_Penalty_Neutral>
1.68594

> <r_epik_State_Penalty>
1.79006

> <r_epik_Charging_Adjusted_Penalty>
1.79006

> <i_epik_Tot_Q>
1

> <i_epik_Tot_abs_Q>
1

> <r_epik_Metal_State_Penalty>
5.85324

> <b_epik_Metal_Only>
0

> <s_epik_Chemistry_Notes>
This compound has an imine and may undergo hydrolysis. This compound contains an acetal/aminal-like group ( X-CH(R)-Y where X, Y are N, S, or O) that may be acid/base labile, releasing an aldehyde.

> <s_lp_Force_Field>
OPLS_2005

> <r_lp_Energy>
53.8219

> <b_lp_Chiralities_Consistent>
1

> <s_lp_Variant>
AV-unprocessed.smi:157-17

> <Gold.Version>
5.8.1

> <Gold.Id.Protein>
6NUR|6NUR_protein|mol2

> <Gold.PLP.Fitness>
43.7762

> <Gold.PLP.PLP>
-31.8786

> <Gold.PLP.part.hbond>
-4.1387

> <Gold.PLP.part.metal>
0.0000

> <Gold.PLP.part.buried>
-4.3678

> <Gold.PLP.part.nonpolar>
-22.8749

> <Gold.PLP.part.repulsive>
0.2023

> <Gold.PLP.ligand.clash>
0.0000

> <Gold.PLP.ligand.torsion>
0.0127

> <Gold.PLP.Chemscore.Hbond>
2.9673

> <Gold.PLP.Chemscore.CHOScore>
1.0000

> <Gold.PLP.Chemscore.Metal>
0.0000

> <Gold.Chemscore.Hbonds>
donor molecule, donor type, donor heavy atom, donor atom, acceptor molecule, acceptor atom, score
      L1  H     1    24       P1  7957  1.00
      P1  H 10752 10765       L1    19  1.00
      L1  C    12    28       P1  8028  1.00

> <Gold.PLP.Chemscore.Internal.Correction>
0.0212

> <Gold.Rescore>
     Score         DG    S(hbond)    S(metal)    S(lipo)     H(rot)  DE(clash)    DE(int)     intcor
      8.85     -10.62       2.46        0.00      53.92       3.67       0.13       1.64       ----

> <Gold.Chemscore.Fitness>
8.8514

> <Gold.Chemscore.DG>
-10.6213

> <Gold.Chemscore.ZeroCoef>
-5.4800

> <Gold.Chemscore.Hbond>
2.4602

> <Gold.Chemscore.Metal>
0.0000

> <Gold.Chemscore.Lipo>
53.9236

> <Gold.Chemscore.Internal_Hbond>
0.0000

> <Gold.Chemscore.DEClash>
0.1317

> <Gold.Chemscore.DEInternal>
1.6382

> <Gold.Chemscore.Rot>
3.6659

> <Gold.Chemscore.Internal.Correction>
   9.000000E+99

> <Gold.Chemscore.Hbonds>
donor molecule, donor type, donor heavy atom, donor atom, acceptor molecule, acceptor atom, score
      L1  H     1    24       P1  7957  0.95
      P1  H 10752 10765       L1    19  0.65

> <Gold.Chemscore.Hbond.Weighted>
-8.2170

> <Gold.Chemscore.Metal.Weighted>
-0.0000

> <Gold.Chemscore.Lipo.Weighted>
-6.3091

> <Gold.Chemscore.Internal_Hbond.Weighted>
0.0000

> <Gold.Chemscore.DEClash.Weighted>
0.1317

> <Gold.Chemscore.DEInternal.Weighted>
1.6382

> <Gold.Chemscore.Rot.Weighted>
9.3848

> <Gold.Chemscore.Internal.Correction.Weighted>
   9.000000E+99

> <Gold.Protein.RotatedTorsions>
[ 6907 6896 6895 6894 ] final  100.19 input  -60.11 | X-H torsion
[ 7974 7965 7964 7962 ] final -121.96 input  175.53 | X-H torsion
[ 8008 7997 7996 7995 ] final -167.97 input   59.86 | X-H torsion
[ 10167 10162 10161 10158 ] final -145.74 input  -65.29 | X-H torsion
[ 10718 10713 10712 10709 ] final   99.65 input   66.30 | X-H torsion
[ 10763 10752 10751 10750 ] final -155.96 input  -60.55 | X-H torsion
[ 11005 11000 10999 10996 ] final  -99.97 input  -57.11 | X-H torsion

> <Gold.Protein.ActiveResidues>
 VAL166  LYS551  ARG553  GLY616  TRP617  ASP618  TYR619  PRO620  LYS621  CYS622 
 ASP623  PHE694  ASN695  SER759  ASP760  ASP761  ALA762  ILE779  LEU786  VAL792 
 PHE793  MET794  SER795  GLU796  ALA797  LYS798  CYS799  TRP800  GLU811  SER814 

> <Gold.Protein.RotatedAtoms>
  152.5377  134.0314  159.8026 H   0  0  0  0  0  0  0  0  0  0  0  0  # atno 6907 bound_to 6896
  151.0484  133.5638  159.2652 H   0  0  0  0  0  0  0  0  0  0  0  0  # atno 6908 bound_to 6896
  151.2581  135.0652  159.9141 H   0  0  0  0  0  0  0  0  0  0  0  0  # atno 6909 bound_to 6896
  145.0346  140.8095  143.4303 H   0  0  0  0  0  0  0  0  0  0  0  0  # atno 7974 bound_to 7965
  155.8851  140.1015  157.1458 H   0  0  0  0  0  0  0  0  0  0  0  0  # atno 8008 bound_to 7997
  154.4009  140.1321  156.4308 H   0  0  0  0  0  0  0  0  0  0  0  0  # atno 8009 bound_to 7997
  155.7598  140.3463  155.5195 H   0  0  0  0  0  0  0  0  0  0  0  0  # atno 8010 bound_to 7997
  139.7778  143.8145  152.2634 H   0  0  0  0  0  0  0  0  0  0  0  0  # atno 10167 bound_to 10162
  157.6871  131.0676  150.4980 H   0  0  0  0  0  0  0  0  0  0  0  0  # atno 10718 bound_to 10713
  154.7748  135.3156  154.8114 H   0  0  0  0  0  0  0  0  0  0  0  0  # atno 10763 bound_to 10752
  153.8840  135.6832  153.4769 H   0  0  0  0  0  0  0  0  0  0  0  0  # atno 10764 bound_to 10752
  153.1370  135.4755  154.9373 H   0  0  0  0  0  0  0  0  0  0  0  0  # atno 10765 bound_to 10752
  141.1288  133.8363  157.1042 H   0  0  0  0  0  0  0  0  0  0  0  0  # atno 11005 bound_to 11000
  145.1726  139.2396  143.5334 LP  0  0  0  0  0  0  0  0  0  0  0  0  # atno 17320 bound_to 7965
  146.3502  140.1481  142.8593 LP  0  0  0  0  0  0  0  0  0  0  0  0  # atno 17321 bound_to 7965
  139.8198  144.7300  150.9587 LP  0  0  0  0  0  0  0  0  0  0  0  0  # atno 17342 bound_to 10162
  140.7817  143.4170  151.0902 LP  0  0  0  0  0  0  0  0  0  0  0  0  # atno 17343 bound_to 10162
  156.5303  130.4183  149.6205 LP  0  0  0  0  0  0  0  0  0  0  0  0  # atno 17370 bound_to 10713
  156.3075  130.7211  151.2096 LP  0  0  0  0  0  0  0  0  0  0  0  0  # atno 17371 bound_to 10713
  140.0315  134.9899  157.0789 LP  0  0  0  0  0  0  0  0  0  0  0  0  # atno 17394 bound_to 11000
  140.4278  134.1812  155.7167 LP  0  0  0  0  0  0  0  0  0  0  0  0  # atno 17395 bound_to 11000

$$$$
