AV-unprocessed.smi:1280|AV-procd|sdf|5358|dock3
  -GOLD-   22720 4493D 1   1.00000     0.00000
 Structure written by MMmdl.
 44 45  0  0  0  0  0  0  0  0  2 V2000
  155.8708  133.3527  160.2809 C   0  0  0  0  0  0  0  0  0  0  0  0
  154.8862  134.1835  158.9715 S   0  0  0  0  0  0  0  0  0  0  0  0
  155.8542  134.5954  157.9420 O   0  0  0  0  0  0  0  0  0  0  0  0
  153.8523  133.2146  158.5732 O   0  0  0  0  0  0  0  0  0  0  0  0
  154.2833  135.4377  159.8020 N   0  5  0  0  0  0  0  0  0  0  0  0
  155.1908  136.4504  160.3152 C   0  0  0  0  0  0  0  0  0  0  0  0
  154.7911  137.8458  159.7942 C   0  0  0  0  0  0  0  0  0  0  0  0
  153.3061  138.2234  159.9976 C   0  0  0  0  0  0  0  0  0  0  0  0
  153.0607  139.6104  159.6173 N   0  0  0  0  0  0  0  0  0  0  0  0
  151.9958  140.0484  158.9258 C   0  0  0  0  0  0  0  0  0  0  0  0
  151.1060  139.3109  158.5024 O   0  0  0  0  0  0  0  0  0  0  0  0
  151.9769  141.5224  158.6196 C   0  0  0  0  0  0  0  0  0  0  0  0
  152.6751  142.3985  159.4802 C   0  0  0  0  0  0  0  0  0  0  0  0
  152.6612  143.7811  159.2251 C   0  0  0  0  0  0  0  0  0  0  0  0
  151.9505  144.2426  158.1042 C   0  0  0  0  0  0  0  0  0  0  0  0
  151.2969  143.4219  157.2575 N   0  0  0  0  0  0  0  0  0  0  0  0
  151.3087  142.0852  157.4906 C   0  0  0  0  0  0  0  0  0  0  0  0
  150.6769  141.2736  156.5265 N   0  0  0  0  0  0  0  0  0  0  0  0
  151.4796  140.2170  155.9188 C   0  0  0  0  0  0  0  0  0  0  0  0
  150.7014  139.5715  154.7603 C   0  0  0  0  0  0  0  0  0  0  0  0
  149.4519  139.0853  155.2423 O   0  0  0  0  0  0  0  0  0  0  0  0
  148.6372  140.1296  155.7671 C   0  0  0  0  0  0  0  0  0  0  0  0
  149.3565  140.8150  156.9421 C   0  0  0  0  0  0  0  0  0  0  0  0
  156.3500  132.4677  159.8638 H   0  0  0  0  0  0  0  0  0  0  0  0
  155.2132  133.0586  161.0984 H   0  0  0  0  0  0  0  0  0  0  0  0
  156.6328  134.0370  160.6529 H   0  0  0  0  0  0  0  0  0  0  0  0
  155.1784  136.4731  161.4051 H   0  0  0  0  0  0  0  0  0  0  0  0
  156.2261  136.2513  160.0360 H   0  0  0  0  0  0  0  0  0  0  0  0
  155.4337  138.6026  160.2466 H   0  0  0  0  0  0  0  0  0  0  0  0
  155.0042  137.8747  158.7257 H   0  0  0  0  0  0  0  0  0  0  0  0
  152.6596  137.6000  159.3773 H   0  0  0  0  0  0  0  0  0  0  0  0
  152.9882  138.0655  161.0307 H   0  0  0  0  0  0  0  0  0  0  0  0
  153.7499  140.2900  159.9044 H   0  0  0  0  0  0  0  0  0  0  0  0
  153.2084  142.0193  160.3400 H   0  0  0  0  0  0  0  0  0  0  0  0
  153.1798  144.4702  159.8750 H   0  0  0  0  0  0  0  0  0  0  0  0
  151.9131  145.2973  157.8754 H   0  0  0  0  0  0  0  0  0  0  0  0
  152.4213  140.6305  155.5552 H   0  0  0  0  0  0  0  0  0  0  0  0
  151.7219  139.4581  156.6643 H   0  0  0  0  0  0  0  0  0  0  0  0
  150.5397  140.2868  153.9522 H   0  0  0  0  0  0  0  0  0  0  0  0
  151.2693  138.7402  154.3430 H   0  0  0  0  0  0  0  0  0  0  0  0
  148.4038  140.8487  154.9815 H   0  0  0  0  0  0  0  0  0  0  0  0
  147.6895  139.7077  156.1017 H   0  0  0  0  0  0  0  0  0  0  0  0
  149.4665  140.1155  157.7719 H   0  0  0  0  0  0  0  0  0  0  0  0
  148.7569  141.6502  157.3054 H   0  0  0  0  0  0  0  0  0  0  0  0
  1  2  1  0  0  0  0
  1 24  1  0  0  0  0
  1 25  1  0  0  0  0
  1 26  1  0  0  0  0
  2  3  2  0  0  0  0
  2  4  2  0  0  0  0
  2  5  1  0  0  0  0
  5  6  1  0  0  0  0
  6  7  1  0  0  0  0
  6 27  1  0  0  0  0
  6 28  1  0  0  0  0
  7  8  1  0  0  0  0
  7 29  1  0  0  0  0
  7 30  1  0  0  0  0
  8  9  1  0  0  0  0
  8 31  1  0  0  0  0
  8 32  1  0  0  0  0
  9 10  1  0  0  0  0
  9 33  1  0  0  0  0
 10 11  2  0  0  0  0
 10 12  1  0  0  0  0
 12 17  1  0  0  0  0
 12 13  2  0  0  0  0
 13 14  1  0  0  0  0
 13 34  1  0  0  0  0
 14 15  2  0  0  0  0
 14 35  1  0  0  0  0
 15 16  1  0  0  0  0
 15 36  1  0  0  0  0
 16 17  2  0  0  0  0
 17 18  1  0  0  0  0
 18 23  1  0  0  0  0
 18 19  1  0  0  0  0
 19 20  1  0  0  0  0
 19 37  1  0  0  0  0
 19 38  1  0  0  0  0
 20 21  1  0  0  0  0
 20 39  1  0  0  0  0
 20 40  1  0  0  0  0
 21 22  1  0  0  0  0
 22 23  1  0  0  0  0
 22 41  1  0  0  0  0
 22 42  1  0  0  0  0
 23 43  1  0  0  0  0
 23 44  1  0  0  0  0
M  CHG  1   5  -1
M  END
> <s_m_source_file>
AV-unprocessed.smi

> <i_m_source_file_index>
1280

> <i_lp_mmshare_version>
43012

> <i_f3d_flags>
0

> <s_epik_input>
W0NIM11TKD1PKSg9TylbTkhdW0NIMl1bQ0gyXVtDSDJdW05IXUMoPU8pYzFbY0hdW2NIXVtjSF1uYzFOMltDSDJdW0NIMl1PW0NIMl1bQ0gyXTI=

> <s_epik_cmdline>
J2VwaWtfcHl0aG9uJywgJy1waCcsICc3LjAnLCAnLXRuJywgJzgnLCAnLW1hJywgJzIwMCcsICctbWV0YWxfYmluZGluZycsICctaW1hZScsICc8aW5maWxlLm1hZT4nLCAnLW9tYWUnLCAnPG91dGZpbGUubWFlPic=

> <r_lp_tautomer_probability>
1

> <r_epik_Ionization_Penalty>
6.65739

> <r_epik_Ionization_Penalty_Charging>
6.65737

> <r_epik_Ionization_Penalty_Neutral>
1.70916e-05

> <r_epik_State_Penalty>
6.65736

> <r_epik_Charging_Adjusted_Penalty>
13.3147

> <i_epik_Tot_Q>
-1

> <i_epik_Tot_abs_Q>
1

> <r_epik_Metal_State_Penalty>
2.58004

> <b_epik_Metal_Only>
1

> <s_lp_Force_Field>
OPLS_2005

> <r_lp_Energy>
24.7135

> <b_lp_Chiralities_Consistent>
1

> <s_lp_Variant>
AV-unprocessed.smi:1280-2

> <Gold.Version>
5.8.1

> <Gold.Id.Protein>
6NUR|6NUR_protein|mol2

> <Gold.PLP.Fitness>
39.0987

> <Gold.PLP.PLP>
-32.8082

> <Gold.PLP.part.hbond>
-2.0000

> <Gold.PLP.part.metal>
0.0000

> <Gold.PLP.part.buried>
-4.4061

> <Gold.PLP.part.nonpolar>
-27.3637

> <Gold.PLP.part.repulsive>
0.3605

> <Gold.PLP.ligand.clash>
0.0000

> <Gold.PLP.ligand.torsion>
1.2334

> <Gold.PLP.Chemscore.Hbond>
2.5075

> <Gold.PLP.Chemscore.CHOScore>
0.0000

> <Gold.PLP.Chemscore.Metal>
0.0000

> <Gold.Chemscore.Hbonds>
donor molecule, donor type, donor heavy atom, donor atom, acceptor molecule, acceptor atom, score
      P1  H  6896  6908       L1     5  1.82
      P1  H  6896  6909       L1     4  0.45

> <Gold.PLP.Chemscore.Internal.Correction>
1.2347

> <Gold.Rescore>
     Score         DG    S(hbond)    S(metal)    S(lipo)     H(rot)  DE(clash)    DE(int)     intcor
     10.05     -15.38       1.99        0.00      75.08       2.16       0.01       5.33       ----

> <Gold.Chemscore.Fitness>
10.0462

> <Gold.Chemscore.DG>
-15.3828

> <Gold.Chemscore.ZeroCoef>
-5.4800

> <Gold.Chemscore.Hbond>
1.9869

> <Gold.Chemscore.Metal>
0.0000

> <Gold.Chemscore.Lipo>
75.0794

> <Gold.Chemscore.Internal_Hbond>
0.0000

> <Gold.Chemscore.DEClash>
0.0059

> <Gold.Chemscore.DEInternal>
5.3307

> <Gold.Chemscore.Rot>
2.1554

> <Gold.Chemscore.Internal.Correction>
   9.000000E+99

> <Gold.Chemscore.Hbonds>
donor molecule, donor type, donor heavy atom, donor atom, acceptor molecule, acceptor atom, score
      P1  H  6896  6908       L1     5  0.21
      P1  H  6896  6909       L1     4  0.43

> <Gold.Chemscore.Hbond.Weighted>
-6.6363

> <Gold.Chemscore.Metal.Weighted>
-0.0000

> <Gold.Chemscore.Lipo.Weighted>
-8.7843

> <Gold.Chemscore.Internal_Hbond.Weighted>
0.0000

> <Gold.Chemscore.DEClash.Weighted>
0.0059

> <Gold.Chemscore.DEInternal.Weighted>
5.3307

> <Gold.Chemscore.Rot.Weighted>
5.5178

> <Gold.Chemscore.Internal.Correction.Weighted>
   9.000000E+99

> <Gold.Protein.RotatedTorsions>
[ 6907 6896 6895 6894 ] final  -73.72 input  -60.11 | X-H torsion
[ 7974 7965 7964 7962 ] final  -76.53 input  175.53 | X-H torsion
[ 8008 7997 7996 7995 ] final  147.62 input   59.86 | X-H torsion
[ 10167 10162 10161 10158 ] final -136.49 input  -65.29 | X-H torsion
[ 10718 10713 10712 10709 ] final  -22.50 input   66.30 | X-H torsion
[ 10763 10752 10751 10750 ] final   40.73 input  -60.55 | X-H torsion
[ 11005 11000 10999 10996 ] final  135.80 input  -57.11 | X-H torsion

> <Gold.Protein.ActiveResidues>
 VAL166  LYS551  ARG553  GLY616  TRP617  ASP618  TYR619  PRO620  LYS621  CYS622 
 ASP623  PHE694  ASN695  SER759  ASP760  ASP761  ALA762  ILE779  LEU786  VAL792 
 PHE793  MET794  SER795  GLU796  ALA797  LYS798  CYS799  TRP800  GLU811  SER814 

> <Gold.Protein.RotatedAtoms>
  150.7119  134.4974  159.5544 H   0  0  0  0  0  0  0  0  0  0  0  0  # atno 6907 bound_to 6896
  152.2579  134.8062  160.0444 H   0  0  0  0  0  0  0  0  0  0  0  0  # atno 6908 bound_to 6896
  151.8786  133.3455  159.3795 H   0  0  0  0  0  0  0  0  0  0  0  0  # atno 6909 bound_to 6896
  145.6116  140.9385  143.1186 H   0  0  0  0  0  0  0  0  0  0  0  0  # atno 7974 bound_to 7965
  156.2819  140.2151  156.5566 H   0  0  0  0  0  0  0  0  0  0  0  0  # atno 8008 bound_to 7997
  154.7247  140.0500  157.0694 H   0  0  0  0  0  0  0  0  0  0  0  0  # atno 8009 bound_to 7997
  155.0432  140.3148  155.4720 H   0  0  0  0  0  0  0  0  0  0  0  0  # atno 8010 bound_to 7997
  139.8673  143.7001  152.2644 H   0  0  0  0  0  0  0  0  0  0  0  0  # atno 10167 bound_to 10162
  156.5037  130.4594  149.6687 H   0  0  0  0  0  0  0  0  0  0  0  0  # atno 10718 bound_to 10713
  152.9928  135.6182  154.2674 H   0  0  0  0  0  0  0  0  0  0  0  0  # atno 10763 bound_to 10752
  154.2408  135.2788  155.2856 H   0  0  0  0  0  0  0  0  0  0  0  0  # atno 10764 bound_to 10752
  154.5371  135.5771  153.6865 H   0  0  0  0  0  0  0  0  0  0  0  0  # atno 10765 bound_to 10752
  140.0003  134.9481  157.0058 H   0  0  0  0  0  0  0  0  0  0  0  0  # atno 11005 bound_to 11000
  144.7267  139.7852  143.7362 LP  0  0  0  0  0  0  0  0  0  0  0  0  # atno 17320 bound_to 7965
  146.1500  139.4580  143.0055 LP  0  0  0  0  0  0  0  0  0  0  0  0  # atno 17321 bound_to 7965
  139.7317  144.7581  151.0791 LP  0  0  0  0  0  0  0  0  0  0  0  0  # atno 17342 bound_to 10162
  140.7766  143.5080  150.9688 LP  0  0  0  0  0  0  0  0  0  0  0  0  # atno 17343 bound_to 10162
  156.3308  130.7330  151.2259 LP  0  0  0  0  0  0  0  0  0  0  0  0  # atno 17370 bound_to 10713
  157.7459  131.0430  150.4723 LP  0  0  0  0  0  0  0  0  0  0  0  0  # atno 17371 bound_to 10713
  140.4740  134.1358  155.7207 LP  0  0  0  0  0  0  0  0  0  0  0  0  # atno 17394 bound_to 11000
  141.1637  133.8744  157.1776 LP  0  0  0  0  0  0  0  0  0  0  0  0  # atno 17395 bound_to 11000

$$$$
