AV-unprocessed.smi:2665|AV-procd|sdf|10331|dock5
  -GOLD-   2272014353D 1   1.00000     0.00000
 Structure written by MMmdl.
 29 30  0  0  0  0  0  0  0  0  2 V2000
  153.1237  142.0776  161.1045 C   0  0  0  0  0  0  0  0  0  0  0  0
  152.4880  142.6362  159.8270 C   0  0  1  0  0  0  0  0  0  0  0  0
  151.9225  141.5214  158.9258 C   0  0  0  0  0  0  0  0  0  0  0  0
  151.2514  142.1039  157.7706 N   0  0  0  0  0  0  0  0  0  0  0  0
  150.8149  141.1524  156.8379 C   0  0  0  0  0  0  0  0  0  0  0  0
  151.6931  140.1170  156.4570 C   0  0  0  0  0  0  0  0  0  0  0  0
  151.2567  139.1549  155.5177 C   0  0  0  0  0  0  0  0  0  0  0  0
  152.1577  138.0326  155.0812 C   0  0  0  0  0  0  0  0  0  0  0  0
  151.6425  136.9921  154.6142 O   0  0  0  0  0  0  0  0  0  0  0  0
  153.3958  138.1720  155.1978 O   0  5  0  0  0  0  0  0  0  0  0  0
  149.9473  139.2803  155.0014 C   0  0  0  0  0  0  0  0  0  0  0  0
  149.1454  140.3496  155.4434 C   0  0  0  0  0  0  0  0  0  0  0  0
  149.5610  141.2685  156.3399 N   0  0  0  0  0  0  0  0  0  0  0  0
  150.2214  143.0625  158.1490 C   0  0  0  0  0  0  0  0  0  0  0  0
  150.8194  144.1383  159.0710 C   0  0  0  0  0  0  0  0  0  0  0  0
  151.4291  143.5164  160.1993 O   0  0  0  0  0  0  0  0  0  0  0  0
  153.9490  141.4049  160.8698 H   0  0  0  0  0  0  0  0  0  0  0  0
  152.3963  141.5213  161.6964 H   0  0  0  0  0  0  0  0  0  0  0  0
  153.5164  142.8812  161.7279 H   0  0  0  0  0  0  0  0  0  0  0  0
  153.2455  143.2010  159.2803 H   0  0  0  0  0  0  0  0  0  0  0  0
  152.7265  140.8656  158.5892 H   0  0  0  0  0  0  0  0  0  0  0  0
  151.2187  140.9069  159.4894 H   0  0  0  0  0  0  0  0  0  0  0  0
  152.6849  140.0664  156.8830 H   0  0  0  0  0  0  0  0  0  0  0  0
  149.5573  138.5764  154.2805 H   0  0  0  0  0  0  0  0  0  0  0  0
  148.1412  140.4712  155.0655 H   0  0  0  0  0  0  0  0  0  0  0  0
  149.8013  143.5255  157.2552 H   0  0  0  0  0  0  0  0  0  0  0  0
  149.4068  142.5477  158.6607 H   0  0  0  0  0  0  0  0  0  0  0  0
  151.5526  144.7449  158.5370 H   0  0  0  0  0  0  0  0  0  0  0  0
  150.0375  144.8143  159.4170 H   0  0  0  0  0  0  0  0  0  0  0  0
  1  2  1  0  0  0  0
  1 17  1  0  0  0  0
  1 18  1  0  0  0  0
  1 19  1  0  0  0  0
  2 16  1  0  0  0  0
  2  3  1  0  0  0  0
  2 20  1  0  0  0  0
  3  4  1  0  0  0  0
  3 21  1  0  0  0  0
  3 22  1  0  0  0  0
  4  5  1  0  0  0  0
  4 14  1  0  0  0  0
  5 13  1  0  0  0  0
  5  6  2  0  0  0  0
  6  7  1  0  0  0  0
  6 23  1  0  0  0  0
  7  8  1  0  0  0  0
  7 11  2  0  0  0  0
  8  9  2  0  0  0  0
  8 10  1  0  0  0  0
 11 12  1  0  0  0  0
 11 24  1  0  0  0  0
 12 13  2  0  0  0  0
 12 25  1  0  0  0  0
 14 15  1  0  0  0  0
 14 26  1  0  0  0  0
 14 27  1  0  0  0  0
 15 16  1  0  0  0  0
 15 28  1  0  0  0  0
 15 29  1  0  0  0  0
M  CHG  1  10  -1
M  END
> <s_m_source_file>
AV-unprocessed.smi

> <i_m_source_file_index>
2665

> <i_lp_mmshare_version>
43012

> <i_f3d_flags>
0

> <s_epik_input>
W0NIM11bQ0BASF0xW0NIMl1OKFtDSDJdW0NIMl1PMSljMltjSF1jKEMoPU8pW09IXSlbY0hdW2NIXW4y

> <s_epik_cmdline>
J2VwaWtfcHl0aG9uJywgJy1waCcsICc3LjAnLCAnLXRuJywgJzgnLCAnLW1hJywgJzIwMCcsICctbWV0YWxfYmluZGluZycsICctaW1hZScsICc8aW5maWxlLm1hZT4nLCAnLW9tYWUnLCAnPG91dGZpbGUubWFlPic=

> <r_epik_Ionization_Penalty>
0.00511367

> <r_epik_Ionization_Penalty_Charging>
0.00135522

> <r_epik_Ionization_Penalty_Neutral>
0.00375844

> <r_epik_State_Penalty>
0.00357724

> <r_epik_Charging_Adjusted_Penalty>
0.00493246

> <i_epik_Tot_Q>
-1

> <i_epik_Tot_abs_Q>
1

> <r_epik_Metal_State_Penalty>
-0

> <b_epik_Metal_Only>
0

> <s_lp_Force_Field>
OPLS_2005

> <r_lp_Energy>
17.7567

> <b_lp_Chiralities_Consistent>
1

> <s_lp_Variant>
AV-unprocessed.smi:2665-2

> <Gold.Version>
5.8.1

> <Gold.Id.Protein>
6NUR|6NUR_protein|mol2

> <Gold.PLP.Fitness>
44.1366

> <Gold.PLP.PLP>
-33.8165

> <Gold.PLP.part.hbond>
-2.2185

> <Gold.PLP.part.metal>
0.0000

> <Gold.PLP.part.buried>
-5.3113

> <Gold.PLP.part.nonpolar>
-27.2535

> <Gold.PLP.part.repulsive>
0.6642

> <Gold.PLP.ligand.clash>
0.0000

> <Gold.PLP.ligand.torsion>
0.4117

> <Gold.PLP.Chemscore.Hbond>
3.6800

> <Gold.PLP.Chemscore.CHOScore>
0.0000

> <Gold.PLP.Chemscore.Metal>
0.0000

> <Gold.Chemscore.Hbonds>
donor molecule, donor type, donor heavy atom, donor atom, acceptor molecule, acceptor atom, score
      P1  H  7997  8010       L1    10  0.07
      P1  H 10752 10765       L1     9  1.98

> <Gold.PLP.Chemscore.Internal.Correction>
0.1036

> <Gold.Rescore>
     Score         DG    S(hbond)    S(metal)    S(lipo)     H(rot)  DE(clash)    DE(int)     intcor
     16.33     -16.91       1.65        0.00      72.49       1.00       0.27       0.31       ----

> <Gold.Chemscore.Fitness>
16.3295

> <Gold.Chemscore.DG>
-16.9084

> <Gold.Chemscore.ZeroCoef>
-5.4800

> <Gold.Chemscore.Hbond>
1.6488

> <Gold.Chemscore.Metal>
0.0000

> <Gold.Chemscore.Lipo>
72.4903

> <Gold.Chemscore.Internal_Hbond>
0.0000

> <Gold.Chemscore.DEClash>
0.2692

> <Gold.Chemscore.DEInternal>
0.3097

> <Gold.Chemscore.Rot>
1.0000

> <Gold.Chemscore.Internal.Correction>
   9.000000E+99

> <Gold.Chemscore.Hbonds>
donor molecule, donor type, donor heavy atom, donor atom, acceptor molecule, acceptor atom, score
      P1  H  7997  8010       L1    10  0.07
      P1  H 10752 10765       L1     9  0.73

> <Gold.Chemscore.Hbond.Weighted>
-5.5071

> <Gold.Chemscore.Metal.Weighted>
-0.0000

> <Gold.Chemscore.Lipo.Weighted>
-8.4814

> <Gold.Chemscore.Internal_Hbond.Weighted>
0.0000

> <Gold.Chemscore.DEClash.Weighted>
0.2692

> <Gold.Chemscore.DEInternal.Weighted>
0.3097

> <Gold.Chemscore.Rot.Weighted>
2.5600

> <Gold.Chemscore.Internal.Correction.Weighted>
   9.000000E+99

> <Gold.Protein.RotatedTorsions>
[ 6907 6896 6895 6894 ] final   34.06 input  -60.11 | X-H torsion
[ 7974 7965 7964 7962 ] final   60.51 input  175.53 | X-H torsion
[ 8008 7997 7996 7995 ] final  117.45 input   59.86 | X-H torsion
[ 10167 10162 10161 10158 ] final   37.90 input  -65.29 | X-H torsion
[ 10718 10713 10712 10709 ] final  -28.99 input   66.30 | X-H torsion
[ 10763 10752 10751 10750 ] final  151.42 input  -60.55 | X-H torsion
[ 11005 11000 10999 10996 ] final  118.85 input  -57.11 | X-H torsion

> <Gold.Protein.ActiveResidues>
 VAL166  LYS551  ARG553  GLY616  TRP617  ASP618  TYR619  PRO620  LYS621  CYS622 
 ASP623  PHE694  ASN695  SER759  ASP760  ASP761  ALA762  ILE779  LEU786  VAL792 
 PHE793  MET794  SER795  GLU796  ALA797  LYS798  CYS799  TRP800  GLU811  SER814 

> <Gold.Protein.RotatedAtoms>
  152.0972  134.9366  160.0570 H   0  0  0  0  0  0  0  0  0  0  0  0  # atno 6907 bound_to 6896
  152.0595  133.4051  159.4420 H   0  0  0  0  0  0  0  0  0  0  0  0  # atno 6908 bound_to 6896
  150.6838  134.3137  159.4800 H   0  0  0  0  0  0  0  0  0  0  0  0  # atno 6909 bound_to 6896
  145.8952  139.3540  143.0625 H   0  0  0  0  0  0  0  0  0  0  0  0  # atno 7974 bound_to 7965
  156.2495  140.2896  156.0680 H   0  0  0  0  0  0  0  0  0  0  0  0  # atno 8008 bound_to 7997
  155.1702  140.0401  157.2878 H   0  0  0  0  0  0  0  0  0  0  0  0  # atno 8009 bound_to 7997
  154.6331  140.2504  155.7417 H   0  0  0  0  0  0  0  0  0  0  0  0  # atno 8010 bound_to 7997
  140.3988  144.1752  150.6133 H   0  0  0  0  0  0  0  0  0  0  0  0  # atno 10167 bound_to 10162
  156.4181  130.4421  149.7203 H   0  0  0  0  0  0  0  0  0  0  0  0  # atno 10718 bound_to 10713
  154.1035  135.2844  155.3246 H   0  0  0  0  0  0  0  0  0  0  0  0  # atno 10763 bound_to 10752
  154.6539  135.5359  153.7938 H   0  0  0  0  0  0  0  0  0  0  0  0  # atno 10764 bound_to 10752
  153.0370  135.6517  154.1197 H   0  0  0  0  0  0  0  0  0  0  0  0  # atno 10765 bound_to 10752
  139.9124  134.9624  156.7565 H   0  0  0  0  0  0  0  0  0  0  0  0  # atno 11005 bound_to 11000
  145.8859  140.9334  143.0577 LP  0  0  0  0  0  0  0  0  0  0  0  0  # atno 17320 bound_to 7965
  144.6732  140.0841  143.7468 LP  0  0  0  0  0  0  0  0  0  0  0  0  # atno 17321 bound_to 7965
  140.4762  143.2395  151.9020 LP  0  0  0  0  0  0  0  0  0  0  0  0  # atno 17342 bound_to 10162
  139.4785  144.5318  151.8656 LP  0  0  0  0  0  0  0  0  0  0  0  0  # atno 17343 bound_to 10162
  156.4155  130.7743  151.2758 LP  0  0  0  0  0  0  0  0  0  0  0  0  # atno 17370 bound_to 10713
  157.7508  131.0198  150.3684 LP  0  0  0  0  0  0  0  0  0  0  0  0  # atno 17371 bound_to 10713
  140.6731  133.9541  155.7868 LP  0  0  0  0  0  0  0  0  0  0  0  0  # atno 17394 bound_to 11000
  141.0563  134.0411  157.3718 LP  0  0  0  0  0  0  0  0  0  0  0  0  # atno 17395 bound_to 11000

$$$$
