AV-unprocessed.smi:21|AV-procd|sdf|133|dock10
  -GOLD-   2262015323D 1   1.00000     0.00000
 Structure written by MMmdl.
 62 65  0  0  0  0  0  0  0  0  2 V2000
  148.7929  130.1870  153.7215 C   0  0  0  0  0  0  0  0  0  0  0  0
  148.3167  131.3524  153.0682 O   0  0  0  0  0  0  0  0  0  0  0  0
  147.9827  132.4028  153.9628 C   0  0  1  0  0  0  0  0  0  0  0  0
  149.2398  133.0053  154.5749 C   0  0  0  0  0  0  0  0  0  0  0  0
  148.7661  134.3901  155.0219 C   0  0  1  0  0  0  0  0  0  0  0  0
  149.9136  135.4119  155.1854 C   0  0  0  0  0  0  0  0  0  0  0  0
  150.7139  135.2096  156.3928 N   0  0  0  0  0  0  0  0  0  0  0  0
  151.4294  133.9472  156.5057 C   0  0  0  0  0  0  0  0  0  0  0  0
  151.4369  136.2534  156.8620 C   0  0  0  0  0  0  0  0  0  0  0  0
  152.7821  136.0912  156.9220 N   0  0  0  0  0  0  0  0  0  0  0  0
  153.5544  137.0650  157.4124 C   0  0  0  0  0  0  0  0  0  0  0  0
  153.1911  138.2569  157.8907 N   0  0  0  0  0  0  0  0  0  0  0  0
  151.8409  138.4307  157.8155 C   0  0  0  0  0  0  0  0  0  0  0  0
  150.8960  137.4927  157.3120 C   0  0  0  0  0  0  0  0  0  0  0  0
  149.6140  138.0257  157.3935 N   0  0  0  0  0  0  0  0  0  0  0  0
  149.7890  139.2033  157.9277 C   0  0  0  0  0  0  0  0  0  0  0  0
  151.0935  139.5187  158.2303 N   0  0  0  0  0  0  0  0  0  0  0  0
  151.5635  140.7413  158.8561 C   0  0  0  0  0  0  0  0  0  0  0  0
  151.9193  141.8636  157.8440 C   0  0  1  0  0  0  0  0  0  0  0  0
  150.7292  142.2307  156.9193 C   0  0  0  0  0  0  0  0  0  0  0  0
  149.6242  142.7274  157.6473 O   0  0  0  0  0  0  0  0  0  0  0  0
  152.4477  143.1161  158.5911 C   0  0  1  0  0  0  0  0  0  0  0  0
  152.0676  144.4465  157.9617 C   0  0  0  0  0  0  0  0  0  0  0  0
  152.2875  145.4202  159.1117 C   0  0  0  0  0  0  0  0  0  0  0  0
  151.9050  144.7057  160.2789 O   0  0  0  0  0  0  0  0  0  0  0  0
  151.8900  143.3062  160.0097 C   0  0  0  0  0  0  0  0  0  0  0  0
  147.7963  134.8169  153.9869 N   0  3  2  0  0  0  0  0  0  0  0  0
  146.7014  135.6685  154.5016 C   0  0  0  0  0  0  0  0  0  0  0  0
  147.3284  133.6062  153.2702 C   0  0  0  0  0  0  0  0  0  0  0  0
  147.3427  132.0389  154.7695 H   0  0  0  0  0  0  0  0  0  0  0  0
  148.2155  134.2678  155.9558 H   0  0  0  0  0  0  0  0  0  0  0  0
  149.0403  129.4289  152.9785 H   0  0  0  0  0  0  0  0  0  0  0  0
  148.0416  129.7663  154.3909 H   0  0  0  0  0  0  0  0  0  0  0  0
  149.6953  130.3984  154.2967 H   0  0  0  0  0  0  0  0  0  0  0  0
  149.6389  132.4075  155.3950 H   0  0  0  0  0  0  0  0  0  0  0  0
  150.0179  133.0980  153.8154 H   0  0  0  0  0  0  0  0  0  0  0  0
  150.5751  135.3466  154.3206 H   0  0  0  0  0  0  0  0  0  0  0  0
  149.5240  136.4295  155.1807 H   0  0  0  0  0  0  0  0  0  0  0  0
  151.7582  133.7715  157.5309 H   0  0  0  0  0  0  0  0  0  0  0  0
  152.3065  133.9434  155.8573 H   0  0  0  0  0  0  0  0  0  0  0  0
  150.7873  133.1151  156.2156 H   0  0  0  0  0  0  0  0  0  0  0  0
  154.6142  136.8562  157.4312 H   0  0  0  0  0  0  0  0  0  0  0  0
  148.9658  139.8726  158.1323 H   0  0  0  0  0  0  0  0  0  0  0  0
  150.8010  141.0927  159.5522 H   0  0  0  0  0  0  0  0  0  0  0  0
  152.4314  140.4775  159.4603 H   0  0  0  0  0  0  0  0  0  0  0  0
  152.7323  141.5013  157.2126 H   0  0  0  0  0  0  0  0  0  0  0  0
  151.0324  142.9623  156.1697 H   0  0  0  0  0  0  0  0  0  0  0  0
  150.3671  141.3594  156.3756 H   0  0  0  0  0  0  0  0  0  0  0  0
  149.3573  143.5453  157.2565 H   0  0  0  0  0  0  0  0  0  0  0  0
  153.5365  143.0677  158.6514 H   0  0  0  0  0  0  0  0  0  0  0  0
  152.6693  144.6989  157.0882 H   0  0  0  0  0  0  0  0  0  0  0  0
  151.0166  144.4458  157.6678 H   0  0  0  0  0  0  0  0  0  0  0  0
  153.3430  145.6834  159.1912 H   0  0  0  0  0  0  0  0  0  0  0  0
  151.7145  146.3410  158.9990 H   0  0  0  0  0  0  0  0  0  0  0  0
  150.8575  142.9604  160.0738 H   0  0  0  0  0  0  0  0  0  0  0  0
  152.4714  142.7667  160.7579 H   0  0  0  0  0  0  0  0  0  0  0  0
  146.0894  135.1291  155.2259 H   0  0  0  0  0  0  0  0  0  0  0  0
  146.0573  135.9951  153.6847 H   0  0  0  0  0  0  0  0  0  0  0  0
  147.1021  136.5580  154.9880 H   0  0  0  0  0  0  0  0  0  0  0  0
  147.6691  133.6824  152.2370 H   0  0  0  0  0  0  0  0  0  0  0  0
  146.2413  133.5155  153.2508 H   0  0  0  0  0  0  0  0  0  0  0  0
  148.3110  135.3632  153.3107 H   0  0  0  0  0  0  0  0  0  0  0  0
  1  2  1  0  0  0  0
  1 32  1  0  0  0  0
  1 33  1  0  0  0  0
  1 34  1  0  0  0  0
  2  3  1  0  0  0  0
  3 30  1  0  0  0  0
  3 29  1  0  0  0  0
  3  4  1  0  0  0  0
  4  5  1  0  0  0  0
  4 35  1  0  0  0  0
  4 36  1  0  0  0  0
  5 31  1  0  0  0  0
  5  6  1  0  0  0  0
  5 27  1  0  0  0  0
  6  7  1  0  0  0  0
  6 37  1  0  0  0  0
  6 38  1  0  0  0  0
  7  8  1  0  0  0  0
  7  9  1  0  0  0  0
  8 39  1  0  0  0  0
  8 40  1  0  0  0  0
  8 41  1  0  0  0  0
  9 14  1  0  0  0  0
  9 10  2  0  0  0  0
 10 11  1  0  0  0  0
 11 12  2  0  0  0  0
 11 42  1  0  0  0  0
 12 13  1  0  0  0  0
 13 17  1  0  0  0  0
 13 14  2  0  0  0  0
 14 15  1  0  0  0  0
 15 16  2  0  0  0  0
 16 17  1  0  0  0  0
 16 43  1  0  0  0  0
 17 18  1  0  0  0  0
 18 19  1  0  0  0  0
 18 44  1  0  0  0  0
 18 45  1  0  0  0  0
 19 20  1  0  0  0  0
 19 22  1  0  0  0  0
 19 46  1  0  0  0  0
 20 21  1  0  0  0  0
 20 47  1  0  0  0  0
 20 48  1  0  0  0  0
 21 49  1  0  0  0  0
 22 26  1  0  0  0  0
 22 23  1  0  0  0  0
 22 50  1  0  0  0  0
 23 24  1  0  0  0  0
 23 51  1  0  0  0  0
 23 52  1  0  0  0  0
 24 25  1  0  0  0  0
 24 53  1  0  0  0  0
 24 54  1  0  0  0  0
 25 26  1  0  0  0  0
 26 55  1  0  0  0  0
 26 56  1  0  0  0  0
 27 28  1  0  0  0  0
 27 29  1  0  0  0  0
 27 62  1  0  0  0  0
 28 57  1  0  0  0  0
 28 58  1  0  0  0  0
 28 59  1  0  0  0  0
 29 60  1  0  0  0  0
 29 61  1  0  0  0  0
M  CHG  1  27   1
M  END
> <s_m_source_file>
AV-unprocessed.smi

> <i_m_source_file_index>
21

> <i_lp_mmshare_version>
43012

> <i_f3d_flags>
0

> <s_epik_input>
W0NIM11PW0NASF0xW0NIMl1bQ0BIXShOKFtDSDNdKVtDSDJdMSlbQ0gyXU4oW0NIM10pYyhuW2NIXW4yKWMoYzIzKW5bY0hdbjNbQ0gyXVtDQEhdKFtDSDJdW09IXSlbQ0BASF00W0NIMl1bQ0gyXU9bQ0gyXTQ=

> <s_epik_cmdline>
J2VwaWtfcHl0aG9uJywgJy1waCcsICc3LjAnLCAnLXRuJywgJzgnLCAnLW1hJywgJzIwMCcsICctbWV0YWxfYmluZGluZycsICctaW1hZScsICc8aW5maWxlLm1hZT4nLCAnLW9tYWUnLCAnPG91dGZpbGUubWFlPic=

> <r_lp_tautomer_probability>
1

> <r_epik_Ionization_Penalty>
0.0157465

> <r_epik_Ionization_Penalty_Charging>
0.015354

> <r_epik_Ionization_Penalty_Neutral>
0.000392529

> <r_epik_State_Penalty>
0.0120612

> <r_epik_Charging_Adjusted_Penalty>
0.0274152

> <i_epik_Tot_Q>
1

> <i_epik_Tot_abs_Q>
1

> <r_epik_Metal_State_Penalty>
0.0121253

> <b_epik_Metal_Only>
0

> <s_lp_Force_Field>
OPLS_2005

> <r_lp_Energy>
58.1484

> <b_lp_Chiralities_Consistent>
1

> <s_lp_Variant>
AV-unprocessed.smi:21-13

> <Gold.Version>
5.8.1

> <Gold.Id.Protein>
6NUR|6NUR_protein|mol2

> <Gold.PLP.Fitness>
52.2176

> <Gold.PLP.PLP>
-43.3281

> <Gold.PLP.part.hbond>
-3.0000

> <Gold.PLP.part.metal>
0.0000

> <Gold.PLP.part.buried>
-7.9798

> <Gold.PLP.part.nonpolar>
-34.3826

> <Gold.PLP.part.repulsive>
2.4510

> <Gold.PLP.ligand.clash>
0.0000

> <Gold.PLP.ligand.torsion>
1.9034

> <Gold.PLP.Chemscore.Hbond>
4.0000

> <Gold.PLP.Chemscore.CHOScore>
0.0000

> <Gold.PLP.Chemscore.Metal>
0.0000

> <Gold.Chemscore.Hbonds>
donor molecule, donor type, donor heavy atom, donor atom, acceptor molecule, acceptor atom, score
      L1  H    21    49       P1  8028  1.00
      L1  H    27    62       P1  7948  2.00
      P1  H 10752 10764       L1    10  1.00

> <Gold.PLP.Chemscore.Internal.Correction>
0.6962

> <Gold.Rescore>
     Score         DG    S(hbond)    S(metal)    S(lipo)     H(rot)  DE(clash)    DE(int)     intcor
     15.53     -17.48       2.36        0.00     108.40       3.35       0.14       1.80       ----

> <Gold.Chemscore.Fitness>
15.5336

> <Gold.Chemscore.DG>
-17.4757

> <Gold.Chemscore.ZeroCoef>
-5.4800

> <Gold.Chemscore.Hbond>
2.3581

> <Gold.Chemscore.Metal>
0.0000

> <Gold.Chemscore.Lipo>
108.4029

> <Gold.Chemscore.Internal_Hbond>
0.0000

> <Gold.Chemscore.DEClash>
0.1398

> <Gold.Chemscore.DEInternal>
1.8022

> <Gold.Chemscore.Rot>
3.3452

> <Gold.Chemscore.Internal.Correction>
   9.000000E+99

> <Gold.Chemscore.Hbonds>
donor molecule, donor type, donor heavy atom, donor atom, acceptor molecule, acceptor atom, score
      L1  H    21    49       P1  8028  0.64
      L1  H    27    62       P1  7948  0.99
      P1  H  7997  8010       L1    12  0.01
      P1  H 10752 10764       L1    10  0.67

> <Gold.Chemscore.Hbond.Weighted>
-7.8762

> <Gold.Chemscore.Metal.Weighted>
-0.0000

> <Gold.Chemscore.Lipo.Weighted>
-12.6831

> <Gold.Chemscore.Internal_Hbond.Weighted>
0.0000

> <Gold.Chemscore.DEClash.Weighted>
0.1398

> <Gold.Chemscore.DEInternal.Weighted>
1.8022

> <Gold.Chemscore.Rot.Weighted>
8.5636

> <Gold.Chemscore.Internal.Correction.Weighted>
   9.000000E+99

> <Gold.Protein.RotatedTorsions>
[ 6907 6896 6895 6894 ] final  144.08 input  -60.11 | X-H torsion
[ 7974 7965 7964 7962 ] final  -45.97 input  175.53 | X-H torsion
[ 8008 7997 7996 7995 ] final   14.50 input   59.86 | X-H torsion
[ 10167 10162 10161 10158 ] final  151.83 input  -65.29 | X-H torsion
[ 10718 10713 10712 10709 ] final  110.83 input   66.30 | X-H torsion
[ 10763 10752 10751 10750 ] final    0.62 input  -60.55 | X-H torsion
[ 11005 11000 10999 10996 ] final  -24.25 input  -57.11 | X-H torsion

> <Gold.Protein.ActiveResidues>
 VAL166  LYS551  ARG553  GLY616  TRP617  ASP618  TYR619  PRO620  LYS621  CYS622 
 ASP623  PHE694  ASN695  SER759  ASP760  ASP761  ALA762  ILE779  LEU786  VAL792 
 PHE793  MET794  SER795  GLU796  ALA797  LYS798  CYS799  TRP800  GLU811  SER814 

> <Gold.Protein.RotatedAtoms>
  152.1981  133.4821  159.5043 H   0  0  0  0  0  0  0  0  0  0  0  0  # atno 6907 bound_to 6896
  150.6964  134.1625  159.4191 H   0  0  0  0  0  0  0  0  0  0  0  0  # atno 6908 bound_to 6896
  151.9542  135.0154  160.0594 H   0  0  0  0  0  0  0  0  0  0  0  0  # atno 6909 bound_to 6896
  145.9766  140.7327  142.9384 H   0  0  0  0  0  0  0  0  0  0  0  0  # atno 7974 bound_to 7965
  154.8494  140.2927  155.5608 H   0  0  0  0  0  0  0  0  0  0  0  0  # atno 8008 bound_to 7997
  156.3016  140.2499  156.3382 H   0  0  0  0  0  0  0  0  0  0  0  0  # atno 8009 bound_to 7997
  154.9038  140.0390  157.1897 H   0  0  0  0  0  0  0  0  0  0  0  0  # atno 8010 bound_to 7997
  139.4837  144.5408  151.7568 H   0  0  0  0  0  0  0  0  0  0  0  0  # atno 10167 bound_to 10162
  157.6475  131.0940  150.6660 H   0  0  0  0  0  0  0  0  0  0  0  0  # atno 10718 bound_to 10713
  153.3183  135.6967  153.7053 H   0  0  0  0  0  0  0  0  0  0  0  0  # atno 10763 bound_to 10752
  153.5903  135.3481  155.2909 H   0  0  0  0  0  0  0  0  0  0  0  0  # atno 10764 bound_to 10752
  154.8592  135.4316  154.2341 H   0  0  0  0  0  0  0  0  0  0  0  0  # atno 10765 bound_to 10752
  140.8828  133.7642  156.0323 H   0  0  0  0  0  0  0  0  0  0  0  0  # atno 11005 bound_to 11000
  144.6850  140.2838  143.7288 LP  0  0  0  0  0  0  0  0  0  0  0  0  # atno 17320 bound_to 7965
  145.7829  139.1898  143.2147 LP  0  0  0  0  0  0  0  0  0  0  0  0  # atno 17321 bound_to 7965
  140.4947  144.1258  150.5957 LP  0  0  0  0  0  0  0  0  0  0  0  0  # atno 17342 bound_to 10162
  140.4131  143.2647  151.9808 LP  0  0  0  0  0  0  0  0  0  0  0  0  # atno 17343 bound_to 10162
  156.6975  130.4613  149.5582 LP  0  0  0  0  0  0  0  0  0  0  0  0  # atno 17370 bound_to 10713
  156.1818  130.6504  151.0960 LP  0  0  0  0  0  0  0  0  0  0  0  0  # atno 17371 bound_to 10713
  140.8441  134.3032  157.5302 LP  0  0  0  0  0  0  0  0  0  0  0  0  # atno 17394 bound_to 11000
  139.8721  134.9432  156.3847 LP  0  0  0  0  0  0  0  0  0  0  0  0  # atno 17395 bound_to 11000

$$$$
