AV-unprocessed.smi:1260|AV-procd|sdf|5299|dock9
  -GOLD-   22720 4423D 1   1.00000     0.00000
 Structure written by MMmdl.
 37 39  0  0  0  0  0  0  0  0  2 V2000
  151.1298  140.3145  158.0809 O   0  0  0  0  0  0  0  0  0  0  0  0
  151.3543  141.0682  157.1336 C   0  0  0  0  0  0  0  0  0  0  0  0
  151.7271  140.5045  155.7592 C   0  0  0  0  0  0  0  0  0  0  0  0
  152.0642  139.0938  155.8268 N   0  0  0  0  0  0  0  0  0  0  0  0
  151.5229  138.0326  155.2249 C   0  0  0  0  0  0  0  0  0  0  0  0
  152.1381  136.9105  155.5656 N   0  0  0  0  0  0  0  0  0  0  0  0
  153.1221  137.3439  156.4384 N   0  0  0  0  0  0  0  0  0  0  0  0
  153.0839  138.6386  156.5965 N   0  0  0  0  0  0  0  0  0  0  0  0
  151.3017  142.4052  157.2348 N   0  0  0  0  0  0  0  0  0  0  0  0
  150.9615  143.1345  158.4539 C   0  0  2  0  0  0  0  0  0  0  0  0
  151.4172  144.5880  158.4370 C   0  0  0  0  0  0  0  0  0  0  0  0
  151.3982  144.9762  159.9192 C   0  0  0  0  0  0  0  0  0  0  0  0
  151.5911  143.7258  160.6947 N   0  3  2  0  0  0  0  0  0  0  0  0
  152.7305  143.7760  161.6497 C   0  0  0  0  0  0  0  0  0  0  0  0
  153.1225  142.3648  162.1117 C   0  0  0  0  0  0  0  0  0  0  0  0
  153.5928  141.4959  160.9298 C   0  0  0  0  0  0  0  0  0  0  0  0
  153.0206  141.9746  159.5813 C   0  0  0  0  0  0  0  0  0  0  0  0
  151.6044  142.5806  159.7404 C   0  0  2  0  0  0  0  0  0  0  0  0
  150.8998  140.6263  155.0585 H   0  0  0  0  0  0  0  0  0  0  0  0
  152.5755  141.0611  155.3583 H   0  0  0  0  0  0  0  0  0  0  0  0
  150.6855  138.0819  154.5444 H   0  0  0  0  0  0  0  0  0  0  0  0
  151.5072  142.9538  156.4121 H   0  0  0  0  0  0  0  0  0  0  0  0
  149.8759  143.1301  158.5752 H   0  0  0  0  0  0  0  0  0  0  0  0
  152.4345  144.6613  158.0496 H   0  0  0  0  0  0  0  0  0  0  0  0
  150.7780  145.2269  157.8268 H   0  0  0  0  0  0  0  0  0  0  0  0
  152.1454  145.7395  160.1416 H   0  0  0  0  0  0  0  0  0  0  0  0
  150.4249  145.3889  160.1871 H   0  0  0  0  0  0  0  0  0  0  0  0
  153.5947  144.2509  161.1817 H   0  0  0  0  0  0  0  0  0  0  0  0
  152.4529  144.3972  162.5019 H   0  0  0  0  0  0  0  0  0  0  0  0
  153.9022  142.4141  162.8724 H   0  0  0  0  0  0  0  0  0  0  0  0
  152.2608  141.8960  162.5891 H   0  0  0  0  0  0  0  0  0  0  0  0
  154.6819  141.4987  160.8725 H   0  0  0  0  0  0  0  0  0  0  0  0
  153.3024  140.4608  161.1133 H   0  0  0  0  0  0  0  0  0  0  0  0
  153.6875  142.7240  159.1525 H   0  0  0  0  0  0  0  0  0  0  0  0
  153.0168  141.1379  158.8826 H   0  0  0  0  0  0  0  0  0  0  0  0
  150.9592  141.7993  160.1454 H   0  0  0  0  0  0  0  0  0  0  0  0
  150.7558  143.6073  161.2504 H   0  0  0  0  0  0  0  0  0  0  0  0
  1  2  2  0  0  0  0
  2  3  1  0  0  0  0
  2  9  1  0  0  0  0
  3  4  1  0  0  0  0
  3 19  1  0  0  0  0
  3 20  1  0  0  0  0
  4  8  1  0  0  0  0
  4  5  1  0  0  0  0
  5  6  2  0  0  0  0
  5 21  1  0  0  0  0
  6  7  1  0  0  0  0
  7  8  2  0  0  0  0
  9 10  1  0  0  0  0
  9 22  1  0  0  0  0
 10 18  1  0  0  0  0
 10 11  1  0  0  0  0
 10 23  1  0  0  0  0
 11 12  1  0  0  0  0
 11 24  1  0  0  0  0
 11 25  1  0  0  0  0
 12 13  1  0  0  0  0
 12 26  1  0  0  0  0
 12 27  1  0  0  0  0
 13 18  1  0  0  0  0
 13 14  1  0  0  0  0
 13 37  1  0  0  0  0
 14 15  1  0  0  0  0
 14 28  1  0  0  0  0
 14 29  1  0  0  0  0
 15 16  1  0  0  0  0
 15 30  1  0  0  0  0
 15 31  1  0  0  0  0
 16 17  1  0  0  0  0
 16 32  1  0  0  0  0
 16 33  1  0  0  0  0
 17 18  1  0  0  0  0
 17 34  1  0  0  0  0
 17 35  1  0  0  0  0
 18 36  1  0  0  0  0
M  CHG  1  13   1
M  END
> <s_m_source_file>
AV-unprocessed.smi

> <i_m_source_file_index>
1260

> <i_lp_mmshare_version>
43012

> <i_f3d_flags>
0

> <s_epik_input>
bjFubltjSF1uMVtDSDJdQyg9TylbTkhdW0NASF0oW0NIMl1bQ0gyXTIpW0NAQEhdKE4yMylbQ0gyXVtDSDJdW0NIMl1bQ0gyXTM=

> <s_epik_cmdline>
J2VwaWtfcHl0aG9uJywgJy1waCcsICc3LjAnLCAnLXRuJywgJzgnLCAnLW1hJywgJzIwMCcsICctbWV0YWxfYmluZGluZycsICctaW1hZScsICc8aW5maWxlLm1hZT4nLCAnLW9tYWUnLCAnPG91dGZpbGUubWFlPic=

> <r_lp_tautomer_probability>
1

> <r_epik_Ionization_Penalty>
0.00234324

> <r_epik_Ionization_Penalty_Charging>
0.00233897

> <r_epik_Ionization_Penalty_Neutral>
4.26861e-06

> <r_epik_State_Penalty>
0.00161477

> <r_epik_Charging_Adjusted_Penalty>
0.00395374

> <i_epik_Tot_Q>
1

> <i_epik_Tot_abs_Q>
1

> <r_epik_Metal_State_Penalty>
-0

> <b_epik_Metal_Only>
0

> <s_lp_Force_Field>
OPLS_2005

> <r_lp_Energy>
44.1786

> <b_lp_Chiralities_Consistent>
1

> <s_lp_Variant>
AV-unprocessed.smi:1260-7

> <Gold.Version>
5.8.1

> <Gold.Id.Protein>
6NUR|6NUR_protein|mol2

> <Gold.PLP.Fitness>
43.7566

> <Gold.PLP.PLP>
-38.6919

> <Gold.PLP.part.hbond>
-2.9372

> <Gold.PLP.part.metal>
0.0000

> <Gold.PLP.part.buried>
-4.8697

> <Gold.PLP.part.nonpolar>
-30.7498

> <Gold.PLP.part.repulsive>
0.1729

> <Gold.PLP.ligand.clash>
0.0000

> <Gold.PLP.ligand.torsion>
0.4087

> <Gold.PLP.Chemscore.Hbond>
1.9600

> <Gold.PLP.Chemscore.CHOScore>
0.0000

> <Gold.PLP.Chemscore.Metal>
0.0000

> <Gold.Chemscore.Hbonds>
donor molecule, donor type, donor heavy atom, donor atom, acceptor molecule, acceptor atom, score
      P1  H  7997  8010       L1     8  1.00
      P1  H 10752 10764       L1     6  0.96

> <Gold.PLP.Chemscore.Internal.Correction>
0.0021

> <Gold.Rescore>
     Score         DG    S(hbond)    S(metal)    S(lipo)     H(rot)  DE(clash)    DE(int)     intcor
     13.99     -16.33       1.60        0.00      90.36       1.98       0.06       2.28       ----

> <Gold.Chemscore.Fitness>
13.9875

> <Gold.Chemscore.DG>
-16.3335

> <Gold.Chemscore.ZeroCoef>
-5.4800

> <Gold.Chemscore.Hbond>
1.5984

> <Gold.Chemscore.Metal>
0.0000

> <Gold.Chemscore.Lipo>
90.3633

> <Gold.Chemscore.Internal_Hbond>
0.0000

> <Gold.Chemscore.DEClash>
0.0619

> <Gold.Chemscore.DEInternal>
2.2841

> <Gold.Chemscore.Rot>
1.9757

> <Gold.Chemscore.Internal.Correction>
   9.000000E+99

> <Gold.Chemscore.Hbonds>
donor molecule, donor type, donor heavy atom, donor atom, acceptor molecule, acceptor atom, score
      P1  H  7997  8010       L1     8  0.49
      P1  H 10752 10764       L1     6  0.24

> <Gold.Chemscore.Hbond.Weighted>
-5.3388

> <Gold.Chemscore.Metal.Weighted>
-0.0000

> <Gold.Chemscore.Lipo.Weighted>
-10.5725

> <Gold.Chemscore.Internal_Hbond.Weighted>
0.0000

> <Gold.Chemscore.DEClash.Weighted>
0.0619

> <Gold.Chemscore.DEInternal.Weighted>
2.2841

> <Gold.Chemscore.Rot.Weighted>
5.0578

> <Gold.Chemscore.Internal.Correction.Weighted>
   9.000000E+99

> <Gold.Protein.RotatedTorsions>
[ 6907 6896 6895 6894 ] final -124.43 input  -60.11 | X-H torsion
[ 7974 7965 7964 7962 ] final   86.82 input  175.53 | X-H torsion
[ 8008 7997 7996 7995 ] final   61.50 input   59.86 | X-H torsion
[ 10167 10162 10161 10158 ] final  138.18 input  -65.29 | X-H torsion
[ 10718 10713 10712 10709 ] final  146.81 input   66.30 | X-H torsion
[ 10763 10752 10751 10750 ] final  -50.47 input  -60.55 | X-H torsion
[ 11005 11000 10999 10996 ] final   21.59 input  -57.11 | X-H torsion

> <Gold.Protein.ActiveResidues>
 VAL166  LYS551  ARG553  GLY616  TRP617  ASP618  TYR619  PRO620  LYS621  CYS622 
 ASP623  PHE694  ASN695  SER759  ASP760  ASP761  ALA762  ILE779  LEU786  VAL792 
 PHE793  MET794  SER795  GLU796  ALA797  LYS798  CYS799  TRP800  GLU811  SER814 

> <Gold.Protein.RotatedAtoms>
  150.8767  133.7428  159.2944 H   0  0  0  0  0  0  0  0  0  0  0  0  # atno 6907 bound_to 6896
  151.5023  135.1060  159.9841 H   0  0  0  0  0  0  0  0  0  0  0  0  # atno 6908 bound_to 6896
  152.4732  133.8033  159.7020 H   0  0  0  0  0  0  0  0  0  0  0  0  # atno 6909 bound_to 6896
  145.5672  139.2310  143.2426 H   0  0  0  0  0  0  0  0  0  0  0  0  # atno 7974 bound_to 7965
  155.5994  140.3494  155.4589 H   0  0  0  0  0  0  0  0  0  0  0  0  # atno 8008 bound_to 7997
  156.0240  140.1260  157.0353 H   0  0  0  0  0  0  0  0  0  0  0  0  # atno 8009 bound_to 7997
  154.4326  140.1057  156.5990 H   0  0  0  0  0  0  0  0  0  0  0  0  # atno 8010 bound_to 7997
  139.5119  144.6368  151.5675 H   0  0  0  0  0  0  0  0  0  0  0  0  # atno 10167 bound_to 10162
  157.3287  131.0916  151.1181 H   0  0  0  0  0  0  0  0  0  0  0  0  # atno 10718 bound_to 10713
  154.1109  135.6549  153.4885 H   0  0  0  0  0  0  0  0  0  0  0  0  # atno 10763 bound_to 10752
  153.0257  135.5247  154.7193 H   0  0  0  0  0  0  0  0  0  0  0  0  # atno 10764 bound_to 10752
  154.6373  135.2983  155.0116 H   0  0  0  0  0  0  0  0  0  0  0  0  # atno 10765 bound_to 10752
  140.3899  134.1830  155.7662 H   0  0  0  0  0  0  0  0  0  0  0  0  # atno 11005 bound_to 11000
  146.1809  140.6498  142.9189 LP  0  0  0  0  0  0  0  0  0  0  0  0  # atno 17320 bound_to 7965
  144.7455  140.5055  143.6839 LP  0  0  0  0  0  0  0  0  0  0  0  0  # atno 17321 bound_to 7965
  140.6120  143.9418  150.6460 LP  0  0  0  0  0  0  0  0  0  0  0  0  # atno 17342 bound_to 10162
  140.2664  143.3487  152.1277 LP  0  0  0  0  0  0  0  0  0  0  0  0  # atno 17343 bound_to 10162
  157.2438  130.6582  149.5901 LP  0  0  0  0  0  0  0  0  0  0  0  0  # atno 17370 bound_to 10713
  155.9693  130.4560  150.5908 LP  0  0  0  0  0  0  0  0  0  0  0  0  # atno 17371 bound_to 10713
  141.1894  133.8238  157.0957 LP  0  0  0  0  0  0  0  0  0  0  0  0  # atno 17394 bound_to 11000
  140.0415  134.9852  157.0969 LP  0  0  0  0  0  0  0  0  0  0  0  0  # atno 17395 bound_to 11000

$$$$
