AV-unprocessed.smi:86|AV-procd|sdf|812|dock4
  -GOLD-   2262017213D 1   1.00000     0.00000
 Structure written by MMmdl.
 51 55  0  0  0  0  0  0  0  0  1 V2000
  154.9083  143.4002  170.1526 O   0  0  0  0  0  0  0  0  0  0  0  0
  155.5190  143.5179  168.8838 C   0  0  0  0  0  0  0  0  0  0  0  0
  156.2812  142.2356  168.5068 C   0  0  0  0  0  0  0  0  0  0  0  0
  156.9738  142.4021  167.1390 C   0  0  0  0  0  0  0  0  0  0  0  0
  156.0480  142.5706  166.0288 N   0  0  0  0  0  0  0  0  0  0  0  0
  155.0678  143.5291  165.9101 C   0  0  0  0  0  0  0  0  0  0  0  0
  154.3611  143.4682  164.8152 N   0  0  0  0  0  0  0  0  0  0  0  0
  154.9037  142.3980  164.1118 C   0  0  0  0  0  0  0  0  0  0  0  0
  154.6217  141.7786  162.8583 C   0  0  0  0  0  0  0  0  0  0  0  0
  153.6415  142.1815  162.0100 N   0  0  0  0  0  0  0  0  0  0  0  0
  152.7544  143.3031  162.3121 C   0  0  0  0  0  0  0  0  0  0  0  0
  152.4207  143.8936  160.9408 C   0  0  2  0  0  0  0  0  0  0  0  0
  151.0977  144.6468  160.7588 C   0  0  0  0  0  0  0  0  0  0  0  0
  150.9603  145.0707  159.2799 C   0  0  0  0  0  0  0  0  0  0  0  0
  151.1300  143.8788  158.3052 C   0  0  1  0  0  0  0  0  0  0  0  0
  151.1214  144.3528  156.9752 O   0  0  0  0  0  0  0  0  0  0  0  0
  152.4318  143.0852  158.5611 C   0  0  0  0  0  0  0  0  0  0  0  0
  152.4740  142.6699  160.0364 C   0  0  1  0  0  0  0  0  0  0  0  0
  153.7118  141.9518  160.5682 C   0  0  0  0  0  0  0  0  0  0  0  0
  155.3791  140.7047  162.5110 N   0  0  0  0  0  0  0  0  0  0  0  0
  156.3541  140.2729  163.3153 C   0  0  0  0  0  0  0  0  0  0  0  0
  156.7318  140.7550  164.4996 N   0  0  0  0  0  0  0  0  0  0  0  0
  155.9684  141.8240  164.8651 C   0  0  0  0  0  0  0  0  0  0  0  0
  157.1511  141.6630  169.6354 C   0  0  0  0  0  0  0  0  0  0  0  0
  156.1727  140.6513  169.9539 O   0  0  0  0  0  0  0  0  0  0  0  0
  155.4966  140.9318  168.7096 C   0  0  0  0  0  0  0  0  0  0  0  0
  154.2040  142.7733  170.0894 H   0  0  0  0  0  0  0  0  0  0  0  0
  154.7591  143.7688  168.1437 H   0  0  0  0  0  0  0  0  0  0  0  0
  156.1973  144.3711  168.9198 H   0  0  0  0  0  0  0  0  0  0  0  0
  157.6333  143.2708  167.1503 H   0  0  0  0  0  0  0  0  0  0  0  0
  157.6214  141.5508  166.9260 H   0  0  0  0  0  0  0  0  0  0  0  0
  154.8872  144.2791  166.6659 H   0  0  0  0  0  0  0  0  0  0  0  0
  151.8604  142.9284  162.8116 H   0  0  0  0  0  0  0  0  0  0  0  0
  153.2261  144.0497  162.9517 H   0  0  0  0  0  0  0  0  0  0  0  0
  153.2374  144.5649  160.6668 H   0  0  0  0  0  0  0  0  0  0  0  0
  150.2594  144.0102  161.0447 H   0  0  0  0  0  0  0  0  0  0  0  0
  151.0664  145.5226  161.4075 H   0  0  0  0  0  0  0  0  0  0  0  0
  149.9921  145.5470  159.1225 H   0  0  0  0  0  0  0  0  0  0  0  0
  151.7135  145.8289  159.0594 H   0  0  0  0  0  0  0  0  0  0  0  0
  150.2787  143.2067  158.4213 H   0  0  0  0  0  0  0  0  0  0  0  0
  150.2384  144.2982  156.6432 H   0  0  0  0  0  0  0  0  0  0  0  0
  152.4740  142.2044  157.9192 H   0  0  0  0  0  0  0  0  0  0  0  0
  153.3032  143.6961  158.3200 H   0  0  0  0  0  0  0  0  0  0  0  0
  151.6076  142.0380  160.2436 H   0  0  0  0  0  0  0  0  0  0  0  0
  154.6246  142.3926  160.1650 H   0  0  0  0  0  0  0  0  0  0  0  0
  153.6992  140.8884  160.3267 H   0  0  0  0  0  0  0  0  0  0  0  0
  156.9103  139.4185  162.9591 H   0  0  0  0  0  0  0  0  0  0  0  0
  158.0880  141.2181  169.2973 H   0  0  0  0  0  0  0  0  0  0  0  0
  157.3246  142.3558  170.4597 H   0  0  0  0  0  0  0  0  0  0  0  0
  154.4224  141.0719  168.8377 H   0  0  0  0  0  0  0  0  0  0  0  0
  155.7018  140.1686  167.9570 H   0  0  0  0  0  0  0  0  0  0  0  0
  1  2  1  0  0  0  0
  1 27  1  0  0  0  0
  2  3  1  0  0  0  0
  2 28  1  0  0  0  0
  2 29  1  0  0  0  0
  3 26  1  0  0  0  0
  3  4  1  0  0  0  0
  3 24  1  0  0  0  0
  4  5  1  0  0  0  0
  4 30  1  0  0  0  0
  4 31  1  0  0  0  0
  5 23  1  0  0  0  0
  5  6  1  0  0  0  0
  6  7  2  0  0  0  0
  6 32  1  0  0  0  0
  7  8  1  0  0  0  0
  8 23  2  0  0  0  0
  8  9  1  0  0  0  0
  9 10  1  0  0  0  0
  9 20  2  0  0  0  0
 10 19  1  0  0  0  0
 10 11  1  0  0  0  0
 11 12  1  0  0  0  0
 11 33  1  0  0  0  0
 11 34  1  0  0  0  0
 12 18  1  0  0  0  0
 12 13  1  0  0  0  0
 12 35  1  0  0  0  0
 13 14  1  0  0  0  0
 13 36  1  0  0  0  0
 13 37  1  0  0  0  0
 14 15  1  0  0  0  0
 14 38  1  0  0  0  0
 14 39  1  0  0  0  0
 15 16  1  0  0  0  0
 15 17  1  0  0  0  0
 15 40  1  0  0  0  0
 16 41  1  0  0  0  0
 17 18  1  0  0  0  0
 17 42  1  0  0  0  0
 17 43  1  0  0  0  0
 18 19  1  0  0  0  0
 18 44  1  0  0  0  0
 19 45  1  0  0  0  0
 19 46  1  0  0  0  0
 20 21  1  0  0  0  0
 21 22  2  0  0  0  0
 21 47  1  0  0  0  0
 22 23  1  0  0  0  0
 24 25  1  0  0  0  0
 24 48  1  0  0  0  0
 24 49  1  0  0  0  0
 25 26  1  0  0  0  0
 26 50  1  0  0  0  0
 26 51  1  0  0  0  0
M  END
> <s_m_source_file>
AV-unprocessed.smi

> <i_m_source_file_index>
86

> <i_lp_mmshare_version>
43012

> <i_f3d_flags>
0

> <s_epik_input>
W0NIMl0xT1tDSDJdQzEoW0NIMl1bT0hdKVtDSDJdbihbY0hdbjIpYyhjMjMpbltjSF1uYzNOKFtDSDJdNClbQ0gyXVtDQEBIXShbQ0BIXTQ1KVtDSDJdW0NASF0oW09IXSlbQ0gyXVtDSDJdNQ==

> <s_epik_cmdline>
J2VwaWtfcHl0aG9uJywgJy1waCcsICc3LjAnLCAnLXRuJywgJzgnLCAnLW1hJywgJzIwMCcsICctbWV0YWxfYmluZGluZycsICctaW1hZScsICc8aW5maWxlLm1hZT4nLCAnLW9tYWUnLCAnPG91dGZpbGUubWFlPic=

> <r_lp_tautomer_probability>
1

> <r_epik_Ionization_Penalty>
0.00425795

> <r_epik_Ionization_Penalty_Charging>
0

> <r_epik_Ionization_Penalty_Neutral>
0.00425795

> <r_epik_State_Penalty>
0.00299946

> <r_epik_Charging_Adjusted_Penalty>
0.00299946

> <i_epik_Tot_Q>
0

> <i_epik_Tot_abs_Q>
0

> <r_epik_Metal_State_Penalty>
-0

> <b_epik_Metal_Only>
0

> <s_lp_Force_Field>
OPLS_2005

> <r_lp_Energy>
53.7305

> <b_lp_Chiralities_Consistent>
1

> <s_lp_Variant>
AV-unprocessed.smi:86-1

> <Gold.Version>
5.8.1

> <Gold.Id.Protein>
6NUR|6NUR_protein|mol2

> <Gold.PLP.Fitness>
58.2996

> <Gold.PLP.PLP>
-55.5132

> <Gold.PLP.part.hbond>
-3.5777

> <Gold.PLP.part.metal>
0.0000

> <Gold.PLP.part.buried>
-4.4329

> <Gold.PLP.part.nonpolar>
-47.3341

> <Gold.PLP.part.repulsive>
0.1493

> <Gold.PLP.ligand.clash>
0.0000

> <Gold.PLP.ligand.torsion>
0.3563

> <Gold.PLP.Chemscore.Hbond>
1.0000

> <Gold.PLP.Chemscore.CHOScore>
0.0000

> <Gold.PLP.Chemscore.Metal>
0.0000

> <Gold.Chemscore.Hbonds>
donor molecule, donor type, donor heavy atom, donor atom, acceptor molecule, acceptor atom, score
      L1  H    16    41       P1  8028  1.00

> <Gold.PLP.Chemscore.Internal.Correction>
0.4990

> <Gold.Rescore>
     Score         DG    S(hbond)    S(metal)    S(lipo)     H(rot)  DE(clash)    DE(int)     intcor
     11.01     -15.64       0.98        0.00     119.49       2.76       2.08       2.55       ----

> <Gold.Chemscore.Fitness>
11.0137

> <Gold.Chemscore.DG>
-15.6436

> <Gold.Chemscore.ZeroCoef>
-5.4800

> <Gold.Chemscore.Hbond>
0.9751

> <Gold.Chemscore.Metal>
0.0000

> <Gold.Chemscore.Lipo>
119.4882

> <Gold.Chemscore.Internal_Hbond>
0.0000

> <Gold.Chemscore.DEClash>
2.0779

> <Gold.Chemscore.DEInternal>
2.5520

> <Gold.Chemscore.Rot>
2.7630

> <Gold.Chemscore.Internal.Correction>
   9.000000E+99

> <Gold.Chemscore.Hbonds>
donor molecule, donor type, donor heavy atom, donor atom, acceptor molecule, acceptor atom, score
      L1  H    16    41       P1  8028  0.96

> <Gold.Chemscore.Hbond.Weighted>
-3.2568

> <Gold.Chemscore.Metal.Weighted>
-0.0000

> <Gold.Chemscore.Lipo.Weighted>
-13.9801

> <Gold.Chemscore.Internal_Hbond.Weighted>
0.0000

> <Gold.Chemscore.DEClash.Weighted>
2.0779

> <Gold.Chemscore.DEInternal.Weighted>
2.5520

> <Gold.Chemscore.Rot.Weighted>
7.0734

> <Gold.Chemscore.Internal.Correction.Weighted>
   9.000000E+99

> <Gold.Protein.RotatedTorsions>
[ 6907 6896 6895 6894 ] final   37.60 input  -60.11 | X-H torsion
[ 7974 7965 7964 7962 ] final  -80.18 input  175.53 | X-H torsion
[ 8008 7997 7996 7995 ] final  -61.29 input   59.86 | X-H torsion
[ 10167 10162 10161 10158 ] final   57.94 input  -65.29 | X-H torsion
[ 10718 10713 10712 10709 ] final  -33.89 input   66.30 | X-H torsion
[ 10763 10752 10751 10750 ] final  -55.29 input  -60.55 | X-H torsion
[ 11005 11000 10999 10996 ] final  -26.77 input  -57.11 | X-H torsion

> <Gold.Protein.ActiveResidues>
 VAL166  LYS551  ARG553  GLY616  TRP617  ASP618  TYR619  PRO620  LYS621  CYS622 
 ASP623  PHE694  ASN695  SER759  ASP760  ASP761  ALA762  ILE779  LEU786  VAL792 
 PHE793  MET794  SER795  GLU796  ALA797  LYS798  CYS799  TRP800  GLU811  SER814 

> <Gold.Protein.RotatedAtoms>
  152.1453  134.9030  160.0551 H   0  0  0  0  0  0  0  0  0  0  0  0  # atno 6907 bound_to 6896
  152.0082  133.3846  159.4217 H   0  0  0  0  0  0  0  0  0  0  0  0  # atno 6908 bound_to 6896
  150.6869  134.3681  159.5023 H   0  0  0  0  0  0  0  0  0  0  0  0  # atno 6909 bound_to 6896
  145.5633  140.9478  143.1435 H   0  0  0  0  0  0  0  0  0  0  0  0  # atno 7974 bound_to 7965
  154.4440  140.1021  156.6407 H   0  0  0  0  0  0  0  0  0  0  0  0  # atno 8008 bound_to 7997
  155.5505  140.3485  155.4449 H   0  0  0  0  0  0  0  0  0  0  0  0  # atno 8009 bound_to 7997
  156.0532  140.1309  157.0015 H   0  0  0  0  0  0  0  0  0  0  0  0  # atno 8010 bound_to 7997
  140.1926  144.4070  150.6564 H   0  0  0  0  0  0  0  0  0  0  0  0  # atno 10167 bound_to 10162
  156.3572  130.4318  149.7654 H   0  0  0  0  0  0  0  0  0  0  0  0  # atno 10718 bound_to 10713
  154.1884  135.6431  153.5053 H   0  0  0  0  0  0  0  0  0  0  0  0  # atno 10763 bound_to 10752
  153.0041  135.5422  154.6441 H   0  0  0  0  0  0  0  0  0  0  0  0  # atno 10764 bound_to 10752
  154.5823  135.2926  155.0692 H   0  0  0  0  0  0  0  0  0  0  0  0  # atno 10765 bound_to 10752
  140.9060  133.7492  156.0606 H   0  0  0  0  0  0  0  0  0  0  0  0  # atno 11005 bound_to 11000
  144.7472  139.7288  143.7287 LP  0  0  0  0  0  0  0  0  0  0  0  0  # atno 17320 bound_to 7965
  146.1836  139.5040  142.9851 LP  0  0  0  0  0  0  0  0  0  0  0  0  # atno 17321 bound_to 7965
  140.6445  143.2210  151.6215 LP  0  0  0  0  0  0  0  0  0  0  0  0  # atno 17342 bound_to 10162
  139.5250  144.3088  152.1011 LP  0  0  0  0  0  0  0  0  0  0  0  0  # atno 17343 bound_to 10162
  156.4832  130.8051  151.3064 LP  0  0  0  0  0  0  0  0  0  0  0  0  # atno 17370 bound_to 10713
  157.7469  130.9999  150.2906 LP  0  0  0  0  0  0  0  0  0  0  0  0  # atno 17371 bound_to 10713
  140.8171  134.3332  157.5393 LP  0  0  0  0  0  0  0  0  0  0  0  0  # atno 17394 bound_to 11000
  139.8749  134.9288  156.3459 LP  0  0  0  0  0  0  0  0  0  0  0  0  # atno 17395 bound_to 11000

$$$$
