AV-unprocessed.smi:234|AV-procd|sdf|1790|dock9
  -GOLD-   2262020353D 1   1.00000     0.00000
 Structure written by MMmdl.
 59 62  0  0  0  0  0  0  0  0  1 V2000
  153.1743  142.2960  159.8828 C   0  0  0  0  0  0  0  0  0  0  0  0
  152.3138  141.8154  158.7123 C   0  0  0  0  0  0  0  0  0  0  0  0
  152.0326  140.4371  158.8866 O   0  0  0  0  0  0  0  0  0  0  0  0
  150.9841  139.9763  158.0484 C   0  0  1  0  0  0  0  0  0  0  0  0
  151.3129  139.9858  156.5531 C   0  0  0  0  0  0  0  0  0  0  0  0
  150.5148  138.6809  156.4878 C   0  0  1  0  0  0  0  0  0  0  0  0
  151.0545  137.7052  155.5374 N   0  0  0  0  0  0  0  0  0  0  0  0
  151.1772  138.1465  154.1540 C   0  0  0  0  0  0  0  0  0  0  0  0
  150.5025  136.4705  155.5931 C   0  0  0  0  0  0  0  0  0  0  0  0
  151.2393  135.4089  156.0161 N   0  0  0  0  0  0  0  0  0  0  0  0
  150.6898  134.1918  156.0680 C   0  0  0  0  0  0  0  0  0  0  0  0
  149.4461  133.8228  155.7529 N   0  0  0  0  0  0  0  0  0  0  0  0
  148.7040  134.8888  155.3359 C   0  0  0  0  0  0  0  0  0  0  0  0
  149.1485  136.2363  155.2352 C   0  0  0  0  0  0  0  0  0  0  0  0
  148.1169  137.0469  154.7791 N   0  0  0  0  0  0  0  0  0  0  0  0
  147.1181  136.2229  154.6143 C   0  0  0  0  0  0  0  0  0  0  0  0
  147.3854  134.9063  154.9177 N   0  0  0  0  0  0  0  0  0  0  0  0
  146.4663  133.7841  154.8197 C   0  0  0  0  0  0  0  0  0  0  0  0
  146.1262  133.3914  153.3620 C   0  0  2  0  0  0  0  0  0  0  0  0
  145.1750  132.3384  153.3830 O   0  0  0  0  0  0  0  0  0  0  0  0
  147.3264  132.9287  152.5487 C   0  0  0  0  0  0  0  0  0  0  0  0
  146.8861  133.2173  151.1193 C   0  0  0  0  0  0  0  0  0  0  0  0
  146.1613  134.4355  151.2118 O   0  0  0  0  0  0  0  0  0  0  0  0
  145.6131  134.5833  152.5210 C   0  0  1  0  0  0  0  0  0  0  0  0
  144.0890  134.7737  152.4560 C   0  0  0  0  0  0  0  0  0  0  0  0
  150.8856  138.4321  157.9796 C   0  0  0  0  0  0  0  0  0  0  0  0
  152.1930  137.6738  158.2754 C   0  0  0  0  0  0  0  0  0  0  0  0
  149.7981  137.8080  158.8538 C   0  0  0  0  0  0  0  0  0  0  0  0
  153.4158  143.3539  159.7798 H   0  0  0  0  0  0  0  0  0  0  0  0
  154.1117  141.7415  159.9322 H   0  0  0  0  0  0  0  0  0  0  0  0
  152.6545  142.1621  160.8318 H   0  0  0  0  0  0  0  0  0  0  0  0
  151.3849  142.3860  158.6737 H   0  0  0  0  0  0  0  0  0  0  0  0
  152.8423  141.9797  157.7724 H   0  0  0  0  0  0  0  0  0  0  0  0
  150.0208  140.4417  158.2718 H   0  0  0  0  0  0  0  0  0  0  0  0
  150.8768  140.8153  155.9963 H   0  0  0  0  0  0  0  0  0  0  0  0
  152.3774  139.8696  156.3424 H   0  0  0  0  0  0  0  0  0  0  0  0
  149.4494  138.8819  156.3552 H   0  0  0  0  0  0  0  0  0  0  0  0
  151.6130  137.3688  153.5254 H   0  0  0  0  0  0  0  0  0  0  0  0
  151.8225  139.0222  154.0870 H   0  0  0  0  0  0  0  0  0  0  0  0
  150.2008  138.4107  153.7464 H   0  0  0  0  0  0  0  0  0  0  0  0
  151.3402  133.4001  156.4091 H   0  0  0  0  0  0  0  0  0  0  0  0
  146.1535  136.5545  154.2586 H   0  0  0  0  0  0  0  0  0  0  0  0
  146.9002  132.9344  155.3485 H   0  0  0  0  0  0  0  0  0  0  0  0
  145.5570  134.0473  155.3618 H   0  0  0  0  0  0  0  0  0  0  0  0
  144.5462  132.5148  154.0662 H   0  0  0  0  0  0  0  0  0  0  0  0
  148.1999  133.5385  152.7837 H   0  0  0  0  0  0  0  0  0  0  0  0
  147.5935  131.8838  152.7122 H   0  0  0  0  0  0  0  0  0  0  0  0
  147.7249  133.3014  150.4283 H   0  0  0  0  0  0  0  0  0  0  0  0
  146.2204  132.4339  150.7545 H   0  0  0  0  0  0  0  0  0  0  0  0
  146.0507  135.5025  152.9130 H   0  0  0  0  0  0  0  0  0  0  0  0
  143.6636  134.8777  153.4545 H   0  0  0  0  0  0  0  0  0  0  0  0
  143.5982  133.9339  151.9635 H   0  0  0  0  0  0  0  0  0  0  0  0
  143.8375  135.6732  151.8937 H   0  0  0  0  0  0  0  0  0  0  0  0
  152.0849  136.6010  158.1148 H   0  0  0  0  0  0  0  0  0  0  0  0
  152.5059  137.8111  159.3108 H   0  0  0  0  0  0  0  0  0  0  0  0
  153.0166  138.0101  157.6455 H   0  0  0  0  0  0  0  0  0  0  0  0
  149.7041  136.7362  158.6768 H   0  0  0  0  0  0  0  0  0  0  0  0
  148.8227  138.2534  158.6570 H   0  0  0  0  0  0  0  0  0  0  0  0
  150.0112  137.9483  159.9139 H   0  0  0  0  0  0  0  0  0  0  0  0
  1  2  1  0  0  0  0
  1 29  1  0  0  0  0
  1 30  1  0  0  0  0
  1 31  1  0  0  0  0
  2  3  1  0  0  0  0
  2 32  1  0  0  0  0
  2 33  1  0  0  0  0
  3  4  1  0  0  0  0
  4 26  1  0  0  0  0
  4  5  1  0  0  0  0
  4 34  1  0  0  0  0
  5  6  1  0  0  0  0
  5 35  1  0  0  0  0
  5 36  1  0  0  0  0
  6  7  1  0  0  0  0
  6 26  1  0  0  0  0
  6 37  1  0  0  0  0
  7  8  1  0  0  0  0
  7  9  1  0  0  0  0
  8 38  1  0  0  0  0
  8 39  1  0  0  0  0
  8 40  1  0  0  0  0
  9 14  1  0  0  0  0
  9 10  2  0  0  0  0
 10 11  1  0  0  0  0
 11 12  2  0  0  0  0
 11 41  1  0  0  0  0
 12 13  1  0  0  0  0
 13 17  1  0  0  0  0
 13 14  2  0  0  0  0
 14 15  1  0  0  0  0
 15 16  2  0  0  0  0
 16 17  1  0  0  0  0
 16 42  1  0  0  0  0
 17 18  1  0  0  0  0
 18 19  1  0  0  0  0
 18 43  1  0  0  0  0
 18 44  1  0  0  0  0
 19 24  1  0  0  0  0
 19 20  1  0  0  0  0
 19 21  1  0  0  0  0
 20 45  1  0  0  0  0
 21 22  1  0  0  0  0
 21 46  1  0  0  0  0
 21 47  1  0  0  0  0
 22 23  1  0  0  0  0
 22 48  1  0  0  0  0
 22 49  1  0  0  0  0
 23 24  1  0  0  0  0
 24 25  1  0  0  0  0
 24 50  1  0  0  0  0
 25 51  1  0  0  0  0
 25 52  1  0  0  0  0
 25 53  1  0  0  0  0
 26 27  1  0  0  0  0
 26 28  1  0  0  0  0
 27 54  1  0  0  0  0
 27 55  1  0  0  0  0
 27 56  1  0  0  0  0
 28 57  1  0  0  0  0
 28 58  1  0  0  0  0
 28 59  1  0  0  0  0
M  END
> <s_m_source_file>
AV-unprocessed.smi

> <i_m_source_file_index>
234

> <i_lp_mmshare_version>
43012

> <i_f3d_flags>
0

> <s_epik_input>
W0NIM11bQ0gyXU9bQ0BASF0oQzEoW0NIM10pW0NIM10pW0NIMl1bQ0BIXTFOKFtDSDNdKWMobltjSF1uMiljKGMyMyluW2NIXW4zW0NIMl1bQ0BAXTQoW09IXSlbQ0gyXVtDSDJdT1tDQEhdNFtDSDNd

> <s_epik_cmdline>
J2VwaWtfcHl0aG9uJywgJy1waCcsICc3LjAnLCAnLXRuJywgJzgnLCAnLW1hJywgJzIwMCcsICctbWV0YWxfYmluZGluZycsICctaW1hZScsICc8aW5maWxlLm1hZT4nLCAnLW9tYWUnLCAnPG91dGZpbGUubWFlPic=

> <r_lp_tautomer_probability>
1

> <r_epik_Ionization_Penalty>
0.00349132

> <r_epik_Ionization_Penalty_Charging>
0

> <r_epik_Ionization_Penalty_Neutral>
0.00349132

> <r_epik_State_Penalty>
0.00242418

> <r_epik_Charging_Adjusted_Penalty>
0.00242418

> <i_epik_Tot_Q>
0

> <i_epik_Tot_abs_Q>
0

> <r_epik_Metal_State_Penalty>
-0

> <b_epik_Metal_Only>
0

> <s_lp_Force_Field>
OPLS_2005

> <r_lp_Energy>
47.69

> <b_lp_Chiralities_Consistent>
1

> <s_lp_Variant>
AV-unprocessed.smi:234-6

> <Gold.Version>
5.8.1

> <Gold.Id.Protein>
6NUR|6NUR_protein|mol2

> <Gold.PLP.Fitness>
37.6927

> <Gold.PLP.PLP>
-33.1383

> <Gold.PLP.part.hbond>
-2.0000

> <Gold.PLP.part.metal>
0.0000

> <Gold.PLP.part.buried>
-7.4342

> <Gold.PLP.part.nonpolar>
-25.9749

> <Gold.PLP.part.repulsive>
0.4170

> <Gold.PLP.ligand.clash>
0.0000

> <Gold.PLP.ligand.torsion>
0.4957

> <Gold.PLP.Chemscore.Hbond>
1.6037

> <Gold.PLP.Chemscore.CHOScore>
0.0000

> <Gold.PLP.Chemscore.Metal>
0.0000

> <Gold.Chemscore.Hbonds>
donor molecule, donor type, donor heavy atom, donor atom, acceptor molecule, acceptor atom, score
      L1  H    20    45       P1 10957  0.57
      P1  H 10752 10764       L1    10  0.80

> <Gold.PLP.Chemscore.Internal.Correction>
0.7347

> <Gold.Rescore>
     Score         DG    S(hbond)    S(metal)    S(lipo)     H(rot)  DE(clash)    DE(int)     intcor
     11.96     -12.73       1.33        0.00      81.39       2.62       0.06       0.70       ----

> <Gold.Chemscore.Fitness>
11.9640

> <Gold.Chemscore.DG>
-12.7263

> <Gold.Chemscore.ZeroCoef>
-5.4800

> <Gold.Chemscore.Hbond>
1.3280

> <Gold.Chemscore.Metal>
0.0000

> <Gold.Chemscore.Lipo>
81.3931

> <Gold.Chemscore.Internal_Hbond>
0.0000

> <Gold.Chemscore.DEClash>
0.0624

> <Gold.Chemscore.DEInternal>
0.7000

> <Gold.Chemscore.Rot>
2.6219

> <Gold.Chemscore.Internal.Correction>
   9.000000E+99

> <Gold.Chemscore.Hbonds>
donor molecule, donor type, donor heavy atom, donor atom, acceptor molecule, acceptor atom, score
      L1  H    20    45       P1 10957  0.35
      P1  H 10752 10764       L1    10  0.34

> <Gold.Chemscore.Hbond.Weighted>
-4.4354

> <Gold.Chemscore.Metal.Weighted>
-0.0000

> <Gold.Chemscore.Lipo.Weighted>
-9.5230

> <Gold.Chemscore.Internal_Hbond.Weighted>
0.0000

> <Gold.Chemscore.DEClash.Weighted>
0.0624

> <Gold.Chemscore.DEInternal.Weighted>
0.7000

> <Gold.Chemscore.Rot.Weighted>
6.7121

> <Gold.Chemscore.Internal.Correction.Weighted>
   9.000000E+99

> <Gold.Protein.RotatedTorsions>
[ 6907 6896 6895 6894 ] final  157.33 input  -60.11 | X-H torsion
[ 7974 7965 7964 7962 ] final   27.65 input  175.53 | X-H torsion
[ 8008 7997 7996 7995 ] final  110.79 input   59.86 | X-H torsion
[ 10167 10162 10161 10158 ] final  163.39 input  -65.29 | X-H torsion
[ 10718 10713 10712 10709 ] final  100.96 input   66.30 | X-H torsion
[ 10763 10752 10751 10750 ] final  -41.65 input  -60.55 | X-H torsion
[ 11005 11000 10999 10996 ] final  -90.23 input  -57.11 | X-H torsion

> <Gold.Protein.ActiveResidues>
 VAL166  LYS551  ARG553  GLY616  TRP617  ASP618  TYR619  PRO620  LYS621  CYS622 
 ASP623  PHE694  ASN695  SER759  ASP760  ASP761  ALA762  ILE779  LEU786  VAL792 
 PHE793  MET794  SER795  GLU796  ALA797  LYS798  CYS799  TRP800  GLU811  SER814 

> <Gold.Protein.RotatedAtoms>
  152.0166  133.3882  159.4241 H   0  0  0  0  0  0  0  0  0  0  0  0  # atno 6907 bound_to 6896
  150.6894  134.3672  159.4985 H   0  0  0  0  0  0  0  0  0  0  0  0  # atno 6908 bound_to 6896
  152.1440  134.9040  160.0603 H   0  0  0  0  0  0  0  0  0  0  0  0  # atno 6909 bound_to 6896
  146.1773  139.7163  142.8925 H   0  0  0  0  0  0  0  0  0  0  0  0  # atno 7974 bound_to 7965
  156.2078  140.3032  155.9665 H   0  0  0  0  0  0  0  0  0  0  0  0  # atno 8008 bound_to 7997
  155.2799  140.0437  157.3031 H   0  0  0  0  0  0  0  0  0  0  0  0  # atno 8009 bound_to 7997
  154.5657  140.2333  155.8276 H   0  0  0  0  0  0  0  0  0  0  0  0  # atno 8010 bound_to 7997
  139.4873  144.4342  151.9033 H   0  0  0  0  0  0  0  0  0  0  0  0  # atno 10167 bound_to 10162
  157.6841  131.0713  150.5180 H   0  0  0  0  0  0  0  0  0  0  0  0  # atno 10718 bound_to 10713
  153.9660  135.6734  153.4746 H   0  0  0  0  0  0  0  0  0  0  0  0  # atno 10763 bound_to 10752
  153.0815  135.4920  154.8510 H   0  0  0  0  0  0  0  0  0  0  0  0  # atno 10764 bound_to 10752
  154.7246  135.3124  154.8952 H   0  0  0  0  0  0  0  0  0  0  0  0  # atno 10765 bound_to 10752
  141.1569  133.7679  156.9708 H   0  0  0  0  0  0  0  0  0  0  0  0  # atno 11005 bound_to 11000
  145.4176  141.0403  143.2982 LP  0  0  0  0  0  0  0  0  0  0  0  0  # atno 17320 bound_to 7965
  144.8256  139.5715  143.6967 LP  0  0  0  0  0  0  0  0  0  0  0  0  # atno 17321 bound_to 7965
  140.3791  144.2759  150.5911 LP  0  0  0  0  0  0  0  0  0  0  0  0  # atno 17342 bound_to 10162
  140.5250  143.2256  151.8329 LP  0  0  0  0  0  0  0  0  0  0  0  0  # atno 17343 bound_to 10162
  156.5494  130.4228  149.6115 LP  0  0  0  0  0  0  0  0  0  0  0  0  # atno 17370 bound_to 10713
  156.2915  130.7127  151.1977 LP  0  0  0  0  0  0  0  0  0  0  0  0  # atno 17371 bound_to 10713
  140.1130  134.9465  157.2093 LP  0  0  0  0  0  0  0  0  0  0  0  0  # atno 17394 bound_to 11000
  140.3169  134.2960  155.7254 LP  0  0  0  0  0  0  0  0  0  0  0  0  # atno 17395 bound_to 11000

$$$$
