AV-unprocessed.smi:3290|AV-procd|sdf|12613|dock3
  -GOLD-   2272018543D 1   1.00000     0.00000
 Structure written by MMmdl.
 43 44  0  0  0  0  0  0  0  0  2 V2000
  152.7527  142.3447  159.6128 C   0  0  0  0  0  0  0  0  0  0  0  0
  152.4768  143.5488  158.6892 C   0  0  2  0  0  0  0  0  0  0  0  0
  152.5815  144.8858  159.4532 C   0  0  0  0  0  0  0  0  0  0  0  0
  151.3887  145.1152  160.3965 C   0  0  0  0  0  0  0  0  0  0  0  0
  150.0559  145.0216  159.6399 C   0  0  0  0  0  0  0  0  0  0  0  0
  149.9316  143.6920  158.8783 C   0  0  0  0  0  0  0  0  0  0  0  0
  151.1277  143.4694  157.9248 C   0  0  2  0  0  0  0  0  0  0  0  0
  150.9870  142.1744  157.0994 C   0  0  0  0  0  0  0  0  0  0  0  0
  150.1212  142.3726  155.9200 N   0  3  0  0  0  0  0  0  0  0  0  0
  149.2328  141.2301  155.6249 C   0  0  0  0  0  0  0  0  0  0  0  0
  149.7086  140.4508  154.3863 C   0  0  2  0  0  0  0  0  0  0  0  0
  148.5763  140.0414  153.6442 O   0  0  0  0  0  0  0  0  0  0  0  0
  150.5782  139.2671  154.7792 C   0  0  0  0  0  0  0  0  0  0  0  0
  151.8130  139.4705  155.4305 C   0  0  0  0  0  0  0  0  0  0  0  0
  152.5852  138.3439  155.7783 C   0  0  0  0  0  0  0  0  0  0  0  0
  152.2019  137.0749  155.5227 N   0  0  0  0  0  0  0  0  0  0  0  0
  151.0187  136.8851  154.9011 C   0  0  0  0  0  0  0  0  0  0  0  0
  150.1722  137.9418  154.5104 C   0  0  0  0  0  0  0  0  0  0  0  0
  151.9766  142.2158  160.3667 H   0  0  0  0  0  0  0  0  0  0  0  0
  153.6998  142.4694  160.1385 H   0  0  0  0  0  0  0  0  0  0  0  0
  152.8245  141.4150  159.0487 H   0  0  0  0  0  0  0  0  0  0  0  0
  153.2737  143.5499  157.9441 H   0  0  0  0  0  0  0  0  0  0  0  0
  153.5143  144.9281  160.0168 H   0  0  0  0  0  0  0  0  0  0  0  0
  152.6281  145.7063  158.7359 H   0  0  0  0  0  0  0  0  0  0  0  0
  151.4060  144.3831  161.2045 H   0  0  0  0  0  0  0  0  0  0  0  0
  151.4764  146.0931  160.8706 H   0  0  0  0  0  0  0  0  0  0  0  0
  149.2248  145.1300  160.3375 H   0  0  0  0  0  0  0  0  0  0  0  0
  149.9783  145.8519  158.9372 H   0  0  0  0  0  0  0  0  0  0  0  0
  149.8553  142.8677  159.5878 H   0  0  0  0  0  0  0  0  0  0  0  0
  148.9967  143.6939  158.3175 H   0  0  0  0  0  0  0  0  0  0  0  0
  151.1305  144.2976  157.2138 H   0  0  0  0  0  0  0  0  0  0  0  0
  151.9686  141.8480  156.7530 H   0  0  0  0  0  0  0  0  0  0  0  0
  150.5787  141.3705  157.7132 H   0  0  0  0  0  0  0  0  0  0  0  0
  149.5450  143.1874  156.0780 H   0  0  0  0  0  0  0  0  0  0  0  0
  149.2203  140.5690  156.4925 H   0  0  0  0  0  0  0  0  0  0  0  0
  148.2121  141.5888  155.4812 H   0  0  0  0  0  0  0  0  0  0  0  0
  150.2947  141.1132  153.7473 H   0  0  0  0  0  0  0  0  0  0  0  0
  148.8574  139.8114  152.7712 H   0  0  0  0  0  0  0  0  0  0  0  0
  152.1670  140.4649  155.6598 H   0  0  0  0  0  0  0  0  0  0  0  0
  153.5359  138.4662  156.2757 H   0  0  0  0  0  0  0  0  0  0  0  0
  150.7374  135.8602  154.7096 H   0  0  0  0  0  0  0  0  0  0  0  0
  149.2342  137.7345  154.0163 H   0  0  0  0  0  0  0  0  0  0  0  0
  150.7059  142.5427  155.1144 H   0  0  0  0  0  0  0  0  0  0  0  0
  1  2  1  0  0  0  0
  1 19  1  0  0  0  0
  1 20  1  0  0  0  0
  1 21  1  0  0  0  0
  2  7  1  0  0  0  0
  2  3  1  0  0  0  0
  2 22  1  0  0  0  0
  3  4  1  0  0  0  0
  3 23  1  0  0  0  0
  3 24  1  0  0  0  0
  4  5  1  0  0  0  0
  4 25  1  0  0  0  0
  4 26  1  0  0  0  0
  5  6  1  0  0  0  0
  5 27  1  0  0  0  0
  5 28  1  0  0  0  0
  6  7  1  0  0  0  0
  6 29  1  0  0  0  0
  6 30  1  0  0  0  0
  7  8  1  0  0  0  0
  7 31  1  0  0  0  0
  8  9  1  0  0  0  0
  8 32  1  0  0  0  0
  8 33  1  0  0  0  0
  9 10  1  0  0  0  0
  9 34  1  0  0  0  0
  9 43  1  0  0  0  0
 10 11  1  0  0  0  0
 10 35  1  0  0  0  0
 10 36  1  0  0  0  0
 11 12  1  0  0  0  0
 11 13  1  0  0  0  0
 11 37  1  0  0  0  0
 12 38  1  0  0  0  0
 13 18  1  0  0  0  0
 13 14  2  0  0  0  0
 14 15  1  0  0  0  0
 14 39  1  0  0  0  0
 15 16  2  0  0  0  0
 15 40  1  0  0  0  0
 16 17  1  0  0  0  0
 17 18  2  0  0  0  0
 17 41  1  0  0  0  0
 18 42  1  0  0  0  0
M  CHG  1   9   1
M  END
> <s_m_source_file>
AV-unprocessed.smi

> <i_m_source_file_index>
3290

> <i_lp_mmshare_version>
43012

> <i_f3d_flags>
0

> <s_epik_input>
W0NIM11bQ0BASF0xW0NIMl1bQ0gyXVtDSDJdW0NIMl1bQ0BIXTFbQ0gyXVtOSF1bQ0gyXVtDQEhdKFtPSF0pYzJbY0hdW2NIXW5bY0hdW2NIXTI=

> <s_epik_cmdline>
J2VwaWtfcHl0aG9uJywgJy1waCcsICc3LjAnLCAnLXRuJywgJzgnLCAnLW1hJywgJzIwMCcsICctbWV0YWxfYmluZGluZycsICctaW1hZScsICc8aW5maWxlLm1hZT4nLCAnLW9tYWUnLCAnPG91dGZpbGUubWFlPic=

> <r_lp_tautomer_probability>
1

> <r_epik_Ionization_Penalty>
0.00420552

> <r_epik_Ionization_Penalty_Charging>
0.00207255

> <r_epik_Ionization_Penalty_Neutral>
0.00213297

> <r_epik_State_Penalty>
-0

> <r_epik_Charging_Adjusted_Penalty>
0.00207255

> <i_epik_Tot_Q>
1

> <i_epik_Tot_abs_Q>
1

> <r_epik_Metal_State_Penalty>
-0

> <b_epik_Metal_Only>
0

> <s_lp_Force_Field>
OPLS_2005

> <r_lp_Energy>
18.6683

> <b_lp_Chiralities_Consistent>
1

> <s_lp_Variant>
AV-unprocessed.smi:3290-3

> <Gold.Version>
5.8.1

> <Gold.Id.Protein>
6NUR|6NUR_protein|mol2

> <Gold.PLP.Fitness>
52.3460

> <Gold.PLP.PLP>
-43.6465

> <Gold.PLP.part.hbond>
-3.0000

> <Gold.PLP.part.metal>
0.0000

> <Gold.PLP.part.buried>
-3.5436

> <Gold.PLP.part.nonpolar>
-37.5109

> <Gold.PLP.part.repulsive>
0.1952

> <Gold.PLP.ligand.clash>
0.0000

> <Gold.PLP.ligand.torsion>
1.4294

> <Gold.PLP.Chemscore.Hbond>
3.8320

> <Gold.PLP.Chemscore.CHOScore>
0.0000

> <Gold.PLP.Chemscore.Metal>
0.0000

> <Gold.Chemscore.Hbonds>
donor molecule, donor type, donor heavy atom, donor atom, acceptor molecule, acceptor atom, score
      L1  H     9    34       P1  8028  2.00
      L1  H    12    38       P1  7957  1.00
      P1  H 10752 10765       L1    16  0.76

> <Gold.PLP.Chemscore.Internal.Correction>
0.0624

> <Gold.Rescore>
     Score         DG    S(hbond)    S(metal)    S(lipo)     H(rot)  DE(clash)    DE(int)     intcor
     23.16     -24.86       2.77        0.00     131.51       2.05       0.29       1.41       ----

> <Gold.Chemscore.Fitness>
23.1581

> <Gold.Chemscore.DG>
-24.8561

> <Gold.Chemscore.ZeroCoef>
-5.4800

> <Gold.Chemscore.Hbond>
2.7657

> <Gold.Chemscore.Metal>
0.0000

> <Gold.Chemscore.Lipo>
131.5060

> <Gold.Chemscore.Internal_Hbond>
0.0000

> <Gold.Chemscore.DEClash>
0.2906

> <Gold.Chemscore.DEInternal>
1.4074

> <Gold.Chemscore.Rot>
2.0498

> <Gold.Chemscore.Internal.Correction>
   9.000000E+99

> <Gold.Chemscore.Hbonds>
donor molecule, donor type, donor heavy atom, donor atom, acceptor molecule, acceptor atom, score
      L1  H     9    34       P1  8028  0.98
      L1  H    12    38       P1  7957  0.99
      P1  H 10752 10765       L1    16  0.13

> <Gold.Chemscore.Hbond.Weighted>
-9.2374

> <Gold.Chemscore.Metal.Weighted>
-0.0000

> <Gold.Chemscore.Lipo.Weighted>
-15.3862

> <Gold.Chemscore.Internal_Hbond.Weighted>
0.0000

> <Gold.Chemscore.DEClash.Weighted>
0.2906

> <Gold.Chemscore.DEInternal.Weighted>
1.4074

> <Gold.Chemscore.Rot.Weighted>
5.2475

> <Gold.Chemscore.Internal.Correction.Weighted>
   9.000000E+99

> <Gold.Protein.RotatedTorsions>
[ 6907 6896 6895 6894 ] final   -4.52 input  -60.11 | X-H torsion
[ 7974 7965 7964 7962 ] final  108.00 input  175.53 | X-H torsion
[ 8008 7997 7996 7995 ] final  -10.95 input   59.86 | X-H torsion
[ 10167 10162 10161 10158 ] final   39.62 input  -65.29 | X-H torsion
[ 10718 10713 10712 10709 ] final  132.14 input   66.30 | X-H torsion
[ 10763 10752 10751 10750 ] final -163.34 input  -60.55 | X-H torsion
[ 11005 11000 10999 10996 ] final  101.56 input  -57.11 | X-H torsion

> <Gold.Protein.ActiveResidues>
 VAL166  LYS551  ARG553  GLY616  TRP617  ASP618  TYR619  PRO620  LYS621  CYS622 
 ASP623  PHE694  ASN695  SER759  ASP760  ASP761  ALA762  ILE779  LEU786  VAL792 
 PHE793  MET794  SER795  GLU796  ALA797  LYS798  CYS799  TRP800  GLU811  SER814 

> <Gold.Protein.RotatedAtoms>
  151.4963  135.1060  159.9816 H   0  0  0  0  0  0  0  0  0  0  0  0  # atno 6907 bound_to 6896
  152.4720  133.8048  159.6982 H   0  0  0  0  0  0  0  0  0  0  0  0  # atno 6908 bound_to 6896
  150.8735  133.7409  159.2980 H   0  0  0  0  0  0  0  0  0  0  0  0  # atno 6909 bound_to 6896
  145.2863  139.2615  143.3889 H   0  0  0  0  0  0  0  0  0  0  0  0  # atno 7974 bound_to 7965
  154.5508  140.2315  155.8488 H   0  0  0  0  0  0  0  0  0  0  0  0  # atno 8008 bound_to 7997
  156.1945  140.3069  155.9359 H   0  0  0  0  0  0  0  0  0  0  0  0  # atno 8009 bound_to 7997
  155.3075  140.0434  157.3023 H   0  0  0  0  0  0  0  0  0  0  0  0  # atno 8010 bound_to 7997
  140.3822  144.1965  150.6130 H   0  0  0  0  0  0  0  0  0  0  0  0  # atno 10167 bound_to 10162
  157.4900  131.1090  150.9569 H   0  0  0  0  0  0  0  0  0  0  0  0  # atno 10718 bound_to 10713
  154.7131  135.3010  154.9166 H   0  0  0  0  0  0  0  0  0  0  0  0  # atno 10763 bound_to 10752
  154.0061  135.6700  153.4766 H   0  0  0  0  0  0  0  0  0  0  0  0  # atno 10764 bound_to 10752
  153.0771  135.5029  154.8341 H   0  0  0  0  0  0  0  0  0  0  0  0  # atno 10765 bound_to 10752
  139.8774  134.9188  156.4926 H   0  0  0  0  0  0  0  0  0  0  0  0  # atno 11005 bound_to 11000
  146.3200  140.3343  142.8643 LP  0  0  0  0  0  0  0  0  0  0  0  0  # atno 17320 bound_to 7965
  144.9210  140.7868  143.5748 LP  0  0  0  0  0  0  0  0  0  0  0  0  # atno 17321 bound_to 7965
  140.4926  143.2342  151.8796 LP  0  0  0  0  0  0  0  0  0  0  0  0  # atno 17342 bound_to 10162
  139.4794  144.5149  151.8882 LP  0  0  0  0  0  0  0  0  0  0  0  0  # atno 17343 bound_to 10162
  157.0274  130.5698  149.5339 LP  0  0  0  0  0  0  0  0  0  0  0  0  # atno 17370 bound_to 10713
  156.0168  130.5262  150.8158 LP  0  0  0  0  0  0  0  0  0  0  0  0  # atno 17371 bound_to 10713
  140.8648  133.8033  155.9302 LP  0  0  0  0  0  0  0  0  0  0  0  0  # atno 17394 bound_to 11000
  140.9013  134.2375  157.5040 LP  0  0  0  0  0  0  0  0  0  0  0  0  # atno 17395 bound_to 11000

$$$$
