AV-unprocessed.smi:1414|AV-procd|sdf|5761|dock6
  -GOLD-   22720 5403D 1   1.00000     0.00000
 Structure written by MMmdl.
 45 46  0  0  0  0  0  0  0  0  1 V2000
  153.3203  142.3554  162.4132 C   0  0  0  0  0  0  0  0  0  0  0  0
  152.5114  142.4566  161.1157 C   0  0  2  0  0  0  0  0  0  0  0  0
  153.2672  141.8546  159.9144 C   0  0  0  0  0  0  0  0  0  0  0  0
  152.5467  142.0991  158.6534 N   0  0  0  0  0  0  0  0  0  0  0  0
  151.6455  140.8136  157.9059 S   0  0  0  0  0  0  0  0  0  0  0  0
  152.5061  140.1913  156.8880 O   0  0  0  0  0  0  0  0  0  0  0  0
  151.0730  139.9810  158.9750 O   0  0  0  0  0  0  0  0  0  0  0  0
  150.2642  141.6736  157.0417 C   0  0  0  0  0  0  0  0  0  0  0  0
  148.9377  141.4568  157.7846 C   0  0  0  0  0  0  0  0  0  0  0  0
  148.1516  142.6839  157.8515 N   0  0  0  0  0  0  0  0  0  0  0  0
  146.9748  142.8107  158.4809 C   0  0  0  0  0  0  0  0  0  0  0  0
  146.4252  141.8873  159.0809 O   0  0  0  0  0  0  0  0  0  0  0  0
  146.4873  144.0568  158.3523 N   0  0  0  0  0  0  0  0  0  0  0  0
  145.2815  144.5978  158.8764 C   0  0  0  0  0  0  0  0  0  0  0  0
  144.3392  143.8626  159.6362 C   0  0  0  0  0  0  0  0  0  0  0  0
  143.1892  144.5203  160.1135 C   0  0  0  0  0  0  0  0  0  0  0  0
  143.0255  145.8880  159.8203 C   0  0  0  0  0  0  0  0  0  0  0  0
  143.9214  146.6044  159.1094 N   0  0  0  0  0  0  0  0  0  0  0  0
  145.0220  145.9674  158.6560 C   0  0  0  0  0  0  0  0  0  0  0  0
  152.1166  143.4958  158.4747 C   0  0  0  0  0  0  0  0  0  0  0  0
  151.4055  144.0249  159.7359 C   0  0  2  0  0  0  0  0  0  0  0  0
  151.0853  145.5198  159.6309 C   0  0  0  0  0  0  0  0  0  0  0  0
  152.2432  143.8306  160.8681 O   0  0  0  0  0  0  0  0  0  0  0  0
  153.5429  141.3164  162.6565 H   0  0  0  0  0  0  0  0  0  0  0  0
  152.7673  142.7811  163.2507 H   0  0  0  0  0  0  0  0  0  0  0  0
  154.2666  142.8911  162.3321 H   0  0  0  0  0  0  0  0  0  0  0  0
  151.5675  141.9329  161.2659 H   0  0  0  0  0  0  0  0  0  0  0  0
  154.2536  142.3131  159.8349 H   0  0  0  0  0  0  0  0  0  0  0  0
  153.4317  140.7871  160.0590 H   0  0  0  0  0  0  0  0  0  0  0  0
  150.5024  142.7349  156.9920 H   0  0  0  0  0  0  0  0  0  0  0  0
  150.2013  141.2880  156.0253 H   0  0  0  0  0  0  0  0  0  0  0  0
  148.3439  140.7023  157.2686 H   0  0  0  0  0  0  0  0  0  0  0  0
  149.1200  141.0738  158.7902 H   0  0  0  0  0  0  0  0  0  0  0  0
  148.5277  143.4916  157.3765 H   0  0  0  0  0  0  0  0  0  0  0  0
  147.0199  144.6815  157.7650 H   0  0  0  0  0  0  0  0  0  0  0  0
  144.4780  142.8200  159.8743 H   0  0  0  0  0  0  0  0  0  0  0  0
  142.4506  143.9882  160.6946 H   0  0  0  0  0  0  0  0  0  0  0  0
  142.1548  146.4217  160.1715 H   0  0  0  0  0  0  0  0  0  0  0  0
  145.7182  146.5728  158.0938 H   0  0  0  0  0  0  0  0  0  0  0  0
  153.0014  144.1001  158.2714 H   0  0  0  0  0  0  0  0  0  0  0  0
  151.4704  143.5870  157.6019 H   0  0  0  0  0  0  0  0  0  0  0  0
  150.4691  143.4888  159.8913 H   0  0  0  0  0  0  0  0  0  0  0  0
  150.4355  145.7233  158.7795 H   0  0  0  0  0  0  0  0  0  0  0  0
  151.9933  146.1112  159.5087 H   0  0  0  0  0  0  0  0  0  0  0  0
  150.5771  145.8724  160.5284 H   0  0  0  0  0  0  0  0  0  0  0  0
  1  2  1  0  0  0  0
  1 24  1  0  0  0  0
  1 25  1  0  0  0  0
  1 26  1  0  0  0  0
  2 23  1  0  0  0  0
  2  3  1  0  0  0  0
  2 27  1  0  0  0  0
  3  4  1  0  0  0  0
  3 28  1  0  0  0  0
  3 29  1  0  0  0  0
  4  5  1  0  0  0  0
  4 20  1  0  0  0  0
  5  6  2  0  0  0  0
  5  7  2  0  0  0  0
  5  8  1  0  0  0  0
  8  9  1  0  0  0  0
  8 30  1  0  0  0  0
  8 31  1  0  0  0  0
  9 10  1  0  0  0  0
  9 32  1  0  0  0  0
  9 33  1  0  0  0  0
 10 11  1  0  0  0  0
 10 34  1  0  0  0  0
 11 12  2  0  0  0  0
 11 13  1  0  0  0  0
 13 14  1  0  0  0  0
 13 35  1  0  0  0  0
 14 19  1  0  0  0  0
 14 15  2  0  0  0  0
 15 16  1  0  0  0  0
 15 36  1  0  0  0  0
 16 17  2  0  0  0  0
 16 37  1  0  0  0  0
 17 18  1  0  0  0  0
 17 38  1  0  0  0  0
 18 19  2  0  0  0  0
 19 39  1  0  0  0  0
 20 21  1  0  0  0  0
 20 40  1  0  0  0  0
 20 41  1  0  0  0  0
 21 22  1  0  0  0  0
 21 23  1  0  0  0  0
 21 42  1  0  0  0  0
 22 43  1  0  0  0  0
 22 44  1  0  0  0  0
 22 45  1  0  0  0  0
M  END
> <s_m_source_file>
AV-unprocessed.smi

> <i_m_source_file_index>
1414

> <i_lp_mmshare_version>
43012

> <i_f3d_flags>
0

> <s_epik_input>
W0NIM11bQ0BASF0xW0NIMl1OKFtDSDJdW0NASF0oTzEpW0NIM10pUyg9TykoPU8pW0NIMl1bQ0gyXVtOSF1DKD1PKVtOSF1jMltjSF1bY0hdW2NIXW5bY0hdMg==

> <s_epik_cmdline>
J2VwaWtfcHl0aG9uJywgJy1waCcsICc3LjAnLCAnLXRuJywgJzgnLCAnLW1hJywgJzIwMCcsICctbWV0YWxfYmluZGluZycsICctaW1hZScsICc8aW5maWxlLm1hZT4nLCAnLW9tYWUnLCAnPG91dGZpbGUubWFlPic=

> <r_epik_Ionization_Penalty>
0.00437531

> <r_epik_Ionization_Penalty_Charging>
0

> <r_epik_Ionization_Penalty_Neutral>
0.00437531

> <r_epik_State_Penalty>
0.00312896

> <r_epik_Charging_Adjusted_Penalty>
0.00312896

> <i_epik_Tot_Q>
0

> <i_epik_Tot_abs_Q>
0

> <r_epik_Metal_State_Penalty>
-0

> <b_epik_Metal_Only>
0

> <s_lp_Force_Field>
OPLS_2005

> <r_lp_Energy>
4.57438

> <b_lp_Chiralities_Consistent>
1

> <s_lp_Variant>
AV-unprocessed.smi:1414-2

> <Gold.Version>
5.8.1

> <Gold.Id.Protein>
6NUR|6NUR_protein|mol2

> <Gold.PLP.Fitness>
49.7468

> <Gold.PLP.PLP>
-37.9967

> <Gold.PLP.part.hbond>
-3.8108

> <Gold.PLP.part.metal>
0.0000

> <Gold.PLP.part.buried>
-2.8774

> <Gold.PLP.part.nonpolar>
-30.5630

> <Gold.PLP.part.repulsive>
0.3086

> <Gold.PLP.ligand.clash>
0.0000

> <Gold.PLP.ligand.torsion>
1.7517

> <Gold.PLP.Chemscore.Hbond>
3.3691

> <Gold.PLP.Chemscore.CHOScore>
0.9982

> <Gold.PLP.Chemscore.Metal>
0.0000

> <Gold.Chemscore.Hbonds>
donor molecule, donor type, donor heavy atom, donor atom, acceptor molecule, acceptor atom, score
      L1  H    10    34       P1  8028  0.55
      L1  H    13    35       P1  8029  1.00
      P1  H  6934  6946       L1    12  0.86
      P1  H  7997  8009       L1     6  1.00
      L1  C    19    39       P1  8029  0.98

> <Gold.PLP.Chemscore.Internal.Correction>
2.1515

> <Gold.Rescore>
     Score         DG    S(hbond)    S(metal)    S(lipo)     H(rot)  DE(clash)    DE(int)     intcor
     16.92     -20.22       2.31        0.00      94.38       1.57       0.25       3.06       ----

> <Gold.Chemscore.Fitness>
16.9158

> <Gold.Chemscore.DG>
-20.2221

> <Gold.Chemscore.ZeroCoef>
-5.4800

> <Gold.Chemscore.Hbond>
2.3099

> <Gold.Chemscore.Metal>
0.0000

> <Gold.Chemscore.Lipo>
94.3838

> <Gold.Chemscore.Internal_Hbond>
0.0000

> <Gold.Chemscore.DEClash>
0.2459

> <Gold.Chemscore.DEInternal>
3.0604

> <Gold.Chemscore.Rot>
1.5687

> <Gold.Chemscore.Internal.Correction>
   9.000000E+99

> <Gold.Chemscore.Hbonds>
donor molecule, donor type, donor heavy atom, donor atom, acceptor molecule, acceptor atom, score
      L1  H    10    34       P1  8028  0.05
      L1  H    13    35       P1  8029  0.29
      P1  H  6934  6946       L1    12  0.85
      P1  H  7997  8009       L1     6  0.95

> <Gold.Chemscore.Hbond.Weighted>
-7.7152

> <Gold.Chemscore.Metal.Weighted>
-0.0000

> <Gold.Chemscore.Lipo.Weighted>
-11.0429

> <Gold.Chemscore.Internal_Hbond.Weighted>
0.0000

> <Gold.Chemscore.DEClash.Weighted>
0.2459

> <Gold.Chemscore.DEInternal.Weighted>
3.0604

> <Gold.Chemscore.Rot.Weighted>
4.0160

> <Gold.Chemscore.Internal.Correction.Weighted>
   9.000000E+99

> <Gold.Protein.RotatedTorsions>
[ 6907 6896 6895 6894 ] final  -50.26 input  -60.11 | X-H torsion
[ 7974 7965 7964 7962 ] final   28.51 input  175.53 | X-H torsion
[ 8008 7997 7996 7995 ] final -164.85 input   59.86 | X-H torsion
[ 10167 10162 10161 10158 ] final  -30.82 input  -65.29 | X-H torsion
[ 10718 10713 10712 10709 ] final -111.79 input   66.30 | X-H torsion
[ 10763 10752 10751 10750 ] final  -30.98 input  -60.55 | X-H torsion
[ 11005 11000 10999 10996 ] final   75.62 input  -57.11 | X-H torsion

> <Gold.Protein.ActiveResidues>
 VAL166  LYS551  ARG553  GLY616  TRP617  ASP618  TYR619  PRO620  LYS621  CYS622 
 ASP623  PHE694  ASN695  SER759  ASP760  ASP761  ALA762  ILE779  LEU786  VAL792 
 PHE793  MET794  SER795  GLU796  ALA797  LYS798  CYS799  TRP800  GLU811  SER814 

> <Gold.Protein.RotatedAtoms>
  150.8725  134.8101  159.7164 H   0  0  0  0  0  0  0  0  0  0  0  0  # atno 6907 bound_to 6896
  152.4724  134.4924  159.9709 H   0  0  0  0  0  0  0  0  0  0  0  0  # atno 6908 bound_to 6896
  151.5011  133.3466  159.2904 H   0  0  0  0  0  0  0  0  0  0  0  0  # atno 6909 bound_to 6896
  146.1724  139.7046  142.8958 H   0  0  0  0  0  0  0  0  0  0  0  0  # atno 7974 bound_to 7965
  155.8415  140.0949  157.1731 H   0  0  0  0  0  0  0  0  0  0  0  0  # atno 8008 bound_to 7997
  154.3982  140.1400  156.3796 H   0  0  0  0  0  0  0  0  0  0  0  0  # atno 8009 bound_to 7997
  155.8059  140.3451  155.5432 H   0  0  0  0  0  0  0  0  0  0  0  0  # atno 8010 bound_to 7997
  140.7244  143.3819  151.1586 H   0  0  0  0  0  0  0  0  0  0  0  0  # atno 10167 bound_to 10162
  156.0667  130.5886  150.8421 H   0  0  0  0  0  0  0  0  0  0  0  0  # atno 10718 bound_to 10713
  153.7899  135.6898  153.4873 H   0  0  0  0  0  0  0  0  0  0  0  0  # atno 10763 bound_to 10752
  153.1756  135.4526  154.9959 H   0  0  0  0  0  0  0  0  0  0  0  0  # atno 10764 bound_to 10752
  154.8048  135.3352  154.7396 H   0  0  0  0  0  0  0  0  0  0  0  0  # atno 10765 bound_to 10752
  139.9335  134.7533  156.1294 H   0  0  0  0  0  0  0  0  0  0  0  0  # atno 11005 bound_to 11000
  145.4303  141.0414  143.2914 LP  0  0  0  0  0  0  0  0  0  0  0  0  # atno 17320 bound_to 7965
  144.8184  139.5835  143.6998 LP  0  0  0  0  0  0  0  0  0  0  0  0  # atno 17321 bound_to 7965
  139.7409  143.8926  152.3049 LP  0  0  0  0  0  0  0  0  0  0  0  0  # atno 17342 bound_to 10162
  139.8747  144.7050  150.8947 LP  0  0  0  0  0  0  0  0  0  0  0  0  # atno 17343 bound_to 10162
  157.5713  131.0946  150.9413 LP  0  0  0  0  0  0  0  0  0  0  0  0  # atno 17370 bound_to 10713
  156.9628  130.5461  149.5286 LP  0  0  0  0  0  0  0  0  0  0  0  0  # atno 17371 bound_to 10713
  141.0937  133.6704  156.2597 LP  0  0  0  0  0  0  0  0  0  0  0  0  # atno 17394 bound_to 11000
  140.6137  134.5432  157.5537 LP  0  0  0  0  0  0  0  0  0  0  0  0  # atno 17395 bound_to 11000

$$$$
