AV-unprocessed.smi:1056|AV-procd|sdf|4639|dock10
  -GOLD-   22720 3143D 1   1.00000     0.00000
 Structure written by MMmdl.
 44 46  0  0  0  0  0  0  0  0  1 V2000
  153.7489  141.7297  161.0650 C   0  0  0  0  0  0  0  0  0  0  0  0
  152.9350  141.6341  159.7864 C   0  0  0  0  0  0  0  0  0  0  0  0
  152.7681  140.3732  159.1705 C   0  0  0  0  0  0  0  0  0  0  0  0
  152.0178  140.2418  157.9813 C   0  0  0  0  0  0  0  0  0  0  0  0
  151.7288  139.1215  157.2208 N   0  0  0  0  0  0  0  0  0  0  0  0
  150.9954  139.6445  156.2426 C   0  0  0  0  0  0  0  0  0  0  0  0
  150.7750  140.9725  156.2789 N   0  0  0  0  0  0  0  0  0  0  0  0
  150.0098  141.7560  155.3253 C   0  0  0  0  0  0  0  0  0  0  0  0
  148.5172  141.3732  155.3084 C   0  0  1  0  0  0  0  0  0  0  0  0
  147.7599  142.4244  155.8764 O   0  0  0  0  0  0  0  0  0  0  0  0
  148.0131  141.1227  153.8718 C   0  0  0  0  0  0  0  0  0  0  0  0
  146.5803  140.8052  153.7382 N   0  0  0  0  0  0  0  0  0  0  0  0
  146.1488  139.6560  154.5421 C   0  0  0  0  0  0  0  0  0  0  0  0
  146.7519  138.3167  154.0722 C   0  0  0  0  0  0  0  0  0  0  0  0
  146.7711  138.1966  152.6148 N   0  0  0  0  0  0  0  0  0  0  0  0
  146.5709  139.2127  151.7574 C   0  0  0  0  0  0  0  0  0  0  0  0
  146.6569  139.0619  150.5411 O   0  0  0  0  0  0  0  0  0  0  0  0
  146.1936  140.5920  152.3348 C   0  0  0  0  0  0  0  0  0  0  0  0
  151.4359  141.4158  157.4196 C   0  0  0  0  0  0  0  0  0  0  0  0
  151.5944  142.6755  158.0236 C   0  0  0  0  0  0  0  0  0  0  0  0
  152.3462  142.7891  159.2116 C   0  0  0  0  0  0  0  0  0  0  0  0
  152.5099  144.1538  159.8568 C   0  0  0  0  0  0  0  0  0  0  0  0
  154.1053  140.7498  161.3845 H   0  0  0  0  0  0  0  0  0  0  0  0
  153.1462  142.1454  161.8730 H   0  0  0  0  0  0  0  0  0  0  0  0
  154.6188  142.3698  160.9162 H   0  0  0  0  0  0  0  0  0  0  0  0
  153.2162  139.4932  159.6078 H   0  0  0  0  0  0  0  0  0  0  0  0
  150.5931  139.0268  155.4530 H   0  0  0  0  0  0  0  0  0  0  0  0
  150.1335  142.8137  155.5614 H   0  0  0  0  0  0  0  0  0  0  0  0
  150.4462  141.6061  154.3370 H   0  0  0  0  0  0  0  0  0  0  0  0
  148.3911  140.4837  155.9239 H   0  0  0  0  0  0  0  0  0  0  0  0
  148.2322  143.2334  155.7508 H   0  0  0  0  0  0  0  0  0  0  0  0
  148.2356  142.0171  153.2877 H   0  0  0  0  0  0  0  0  0  0  0  0
  148.6139  140.3336  153.4187 H   0  0  0  0  0  0  0  0  0  0  0  0
  146.3480  139.8118  155.6010 H   0  0  0  0  0  0  0  0  0  0  0  0
  145.0622  139.5816  154.4762 H   0  0  0  0  0  0  0  0  0  0  0  0
  147.7760  138.2190  154.4335 H   0  0  0  0  0  0  0  0  0  0  0  0
  146.1930  137.4816  154.4949 H   0  0  0  0  0  0  0  0  0  0  0  0
  146.9933  137.2895  152.2305 H   0  0  0  0  0  0  0  0  0  0  0  0
  145.1098  140.6818  152.2519 H   0  0  0  0  0  0  0  0  0  0  0  0
  146.6010  141.3795  151.6991 H   0  0  0  0  0  0  0  0  0  0  0  0
  151.1372  143.5461  157.5768 H   0  0  0  0  0  0  0  0  0  0  0  0
  152.0174  144.9316  159.2724 H   0  0  0  0  0  0  0  0  0  0  0  0
  153.5652  144.4147  159.9383 H   0  0  0  0  0  0  0  0  0  0  0  0
  152.0730  144.1580  160.8556 H   0  0  0  0  0  0  0  0  0  0  0  0
  1  2  1  0  0  0  0
  1 23  1  0  0  0  0
  1 24  1  0  0  0  0
  1 25  1  0  0  0  0
  2 21  1  0  0  0  0
  2  3  2  0  0  0  0
  3  4  1  0  0  0  0
  3 26  1  0  0  0  0
  4 19  2  0  0  0  0
  4  5  1  0  0  0  0
  5  6  2  0  0  0  0
  6  7  1  0  0  0  0
  6 27  1  0  0  0  0
  7  8  1  0  0  0  0
  7 19  1  0  0  0  0
  8  9  1  0  0  0  0
  8 28  1  0  0  0  0
  8 29  1  0  0  0  0
  9 10  1  0  0  0  0
  9 11  1  0  0  0  0
  9 30  1  0  0  0  0
 10 31  1  0  0  0  0
 11 12  1  0  0  0  0
 11 32  1  0  0  0  0
 11 33  1  0  0  0  0
 12 18  1  0  0  0  0
 12 13  1  0  0  0  0
 13 14  1  0  0  0  0
 13 34  1  0  0  0  0
 13 35  1  0  0  0  0
 14 15  1  0  0  0  0
 14 36  1  0  0  0  0
 14 37  1  0  0  0  0
 15 16  1  0  0  0  0
 15 38  1  0  0  0  0
 16 17  2  0  0  0  0
 16 18  1  0  0  0  0
 18 39  1  0  0  0  0
 18 40  1  0  0  0  0
 19 20  1  0  0  0  0
 20 21  2  0  0  0  0
 20 41  1  0  0  0  0
 21 22  1  0  0  0  0
 22 42  1  0  0  0  0
 22 43  1  0  0  0  0
 22 44  1  0  0  0  0
M  END
> <s_m_source_file>
AV-unprocessed.smi

> <i_m_source_file_index>
1056

> <i_lp_mmshare_version>
43012

> <i_f3d_flags>
0

> <s_epik_input>
W0NIM11jKFtjSF0xKWMoW0NIM10pW2NIXWMoYzEyKW4oW2NIXW4yKVtDSDJdW0NASF0oW09IXSlbQ0gyXU4zW0NIMl1bQ0gyXVtOSF1DKD1PKVtDSDJdMw==

> <s_epik_cmdline>
J2VwaWtfcHl0aG9uJywgJy1waCcsICc3LjAnLCAnLXRuJywgJzgnLCAnLW1hJywgJzIwMCcsICctbWV0YWxfYmluZGluZycsICctaW1hZScsICc8aW5maWxlLm1hZT4nLCAnLW9tYWUnLCAnPG91dGZpbGUubWFlPic=

> <r_epik_Ionization_Penalty>
1.40166

> <r_epik_Ionization_Penalty_Charging>
0

> <r_epik_Ionization_Penalty_Neutral>
1.40166

> <r_epik_State_Penalty>
1.44226

> <r_epik_Charging_Adjusted_Penalty>
1.44226

> <i_epik_Tot_Q>
0

> <i_epik_Tot_abs_Q>
0

> <r_epik_Metal_State_Penalty>
1.50267

> <b_epik_Metal_Only>
0

> <s_lp_Force_Field>
OPLS_2005

> <r_lp_Energy>
31.4444

> <b_lp_Chiralities_Consistent>
1

> <s_lp_Variant>
AV-unprocessed.smi:1056-10

> <Gold.Version>
5.8.1

> <Gold.Id.Protein>
6NUR|6NUR_protein|mol2

> <Gold.PLP.Fitness>
46.6590

> <Gold.PLP.PLP>
-40.4113

> <Gold.PLP.part.hbond>
-2.9456

> <Gold.PLP.part.metal>
0.0000

> <Gold.PLP.part.buried>
1.2202

> <Gold.PLP.part.nonpolar>
-38.5752

> <Gold.PLP.part.repulsive>
1.2111

> <Gold.PLP.ligand.clash>
0.0000

> <Gold.PLP.ligand.torsion>
0.7269

> <Gold.PLP.Chemscore.Hbond>
2.5600

> <Gold.PLP.Chemscore.CHOScore>
0.0000

> <Gold.PLP.Chemscore.Metal>
0.0000

> <Gold.Chemscore.Hbonds>
donor molecule, donor type, donor heavy atom, donor atom, acceptor molecule, acceptor atom, score
      L1  H    10    31       P1  8028  1.00
      L1  H    15    38       P1  7948  0.31
      P1  H  7954  7966       L1    17  0.62

> <Gold.PLP.Chemscore.Internal.Correction>
0.0215

> <Gold.Rescore>
     Score         DG    S(hbond)    S(metal)    S(lipo)     H(rot)  DE(clash)    DE(int)     intcor
     15.54     -20.22       2.21        0.00     113.62       2.31       3.91       0.77       ----

> <Gold.Chemscore.Fitness>
15.5415

> <Gold.Chemscore.DG>
-20.2165

> <Gold.Chemscore.ZeroCoef>
-5.4800

> <Gold.Chemscore.Hbond>
2.2061

> <Gold.Chemscore.Metal>
0.0000

> <Gold.Chemscore.Lipo>
113.6223

> <Gold.Chemscore.Internal_Hbond>
0.0000

> <Gold.Chemscore.DEClash>
3.9064

> <Gold.Chemscore.DEInternal>
0.7686

> <Gold.Chemscore.Rot>
2.3147

> <Gold.Chemscore.Internal.Correction>
   9.000000E+99

> <Gold.Chemscore.Hbonds>
donor molecule, donor type, donor heavy atom, donor atom, acceptor molecule, acceptor atom, score
      L1  H    10    31       P1  8028  0.84
      L1  H    15    38       P1  7948  0.32
      P1  H  7954  7966       L1    17  0.56

> <Gold.Chemscore.Hbond.Weighted>
-7.3682

> <Gold.Chemscore.Metal.Weighted>
-0.0000

> <Gold.Chemscore.Lipo.Weighted>
-13.2938

> <Gold.Chemscore.Internal_Hbond.Weighted>
0.0000

> <Gold.Chemscore.DEClash.Weighted>
3.9064

> <Gold.Chemscore.DEInternal.Weighted>
0.7686

> <Gold.Chemscore.Rot.Weighted>
5.9256

> <Gold.Chemscore.Internal.Correction.Weighted>
   9.000000E+99

> <Gold.Protein.RotatedTorsions>
[ 6907 6896 6895 6894 ] final  178.34 input  -60.11 | X-H torsion
[ 7974 7965 7964 7962 ] final   92.89 input  175.53 | X-H torsion
[ 8008 7997 7996 7995 ] final -165.04 input   59.86 | X-H torsion
[ 10167 10162 10161 10158 ] final  -30.84 input  -65.29 | X-H torsion
[ 10718 10713 10712 10709 ] final   58.31 input   66.30 | X-H torsion
[ 10763 10752 10751 10750 ] final   75.64 input  -60.55 | X-H torsion
[ 11005 11000 10999 10996 ] final   17.45 input  -57.11 | X-H torsion

> <Gold.Protein.ActiveResidues>
 VAL166  LYS551  ARG553  GLY616  TRP617  ASP618  TYR619  PRO620  LYS621  CYS622 
 ASP623  PHE694  ASN695  SER759  ASP760  ASP761  ALA762  ILE779  LEU786  VAL792 
 PHE793  MET794  SER795  GLU796  ALA797  LYS798  CYS799  TRP800  GLU811  SER814 

> <Gold.Protein.RotatedAtoms>
  151.6894  133.3311  159.3238 H   0  0  0  0  0  0  0  0  0  0  0  0  # atno 6907 bound_to 6896
  150.7786  134.6712  159.6402 H   0  0  0  0  0  0  0  0  0  0  0  0  # atno 6908 bound_to 6896
  152.3836  134.6555  160.0186 H   0  0  0  0  0  0  0  0  0  0  0  0  # atno 6909 bound_to 6896
  145.4862  139.2277  143.2855 H   0  0  0  0  0  0  0  0  0  0  0  0  # atno 7974 bound_to 7965
  155.8442  140.0953  157.1715 H   0  0  0  0  0  0  0  0  0  0  0  0  # atno 8008 bound_to 7997
  154.3983  140.1395  156.3827 H   0  0  0  0  0  0  0  0  0  0  0  0  # atno 8009 bound_to 7997
  155.8032  140.3452  155.5417 H   0  0  0  0  0  0  0  0  0  0  0  0  # atno 8010 bound_to 7997
  140.7244  143.3817  151.1588 H   0  0  0  0  0  0  0  0  0  0  0  0  # atno 10167 bound_to 10162
  157.5586  130.8819  149.9075 H   0  0  0  0  0  0  0  0  0  0  0  0  # atno 10718 bound_to 10713
  153.0669  135.4981  154.8219 H   0  0  0  0  0  0  0  0  0  0  0  0  # atno 10763 bound_to 10752
  154.6966  135.2994  154.9404 H   0  0  0  0  0  0  0  0  0  0  0  0  # atno 10764 bound_to 10752
  154.0142  135.6750  153.4820 H   0  0  0  0  0  0  0  0  0  0  0  0  # atno 10765 bound_to 10752
  140.4358  134.1373  155.7685 H   0  0  0  0  0  0  0  0  0  0  0  0  # atno 11005 bound_to 11000
  146.2311  140.5653  142.8975 LP  0  0  0  0  0  0  0  0  0  0  0  0  # atno 17320 bound_to 7965
  144.7860  140.5937  143.6573 LP  0  0  0  0  0  0  0  0  0  0  0  0  # atno 17321 bound_to 7965
  139.7407  143.8929  152.3049 LP  0  0  0  0  0  0  0  0  0  0  0  0  # atno 17342 bound_to 10162
  139.8749  144.7049  150.8945 LP  0  0  0  0  0  0  0  0  0  0  0  0  # atno 17343 bound_to 10162
  156.0641  130.3695  150.0916 LP  0  0  0  0  0  0  0  0  0  0  0  0  # atno 17370 bound_to 10713
  156.9082  130.9643  151.3567 LP  0  0  0  0  0  0  0  0  0  0  0  0  # atno 17371 bound_to 10713
  141.1726  133.8577  157.1521 LP  0  0  0  0  0  0  0  0  0  0  0  0  # atno 17394 bound_to 11000
  140.0103  134.9991  157.0381 LP  0  0  0  0  0  0  0  0  0  0  0  0  # atno 17395 bound_to 11000

$$$$
